#------------------------------------------------------------------------------
#$Date: 2022-03-15 01:56:30 +0200 (Tue, 15 Mar 2022) $
#$Revision: 273687 $
#$URL: file:///home/coder/svn-repositories/cod/cif/7/70/97/7709748.cif $
#------------------------------------------------------------------------------
#
# This file is available in the Crystallography Open Database (COD),
# http://www.crystallography.net/
#
# All data on this site have been placed in the public domain by the
# contributors.
#
data_7709748
loop_
_publ_author_name
'Jiang, Ming'
'Yang, Tongfu'
'Chu, Yong'
'Zhang, Zhenlei'
'Sun, Hongbin'
'Liang, Hong'
'Yang, Feng'
_publ_section_title
;
 Design of a novel Pt(ii) complex to reverse cisplatin-induced resistance
 in lung cancer via a multi-mechanism
;
_journal_name_full               'Dalton Transactions'
_journal_paper_doi               10.1039/D1DT03964D
_journal_year                    2022
_chemical_formula_moiety         'C12 H14 N8 Pt S4'
_chemical_formula_sum            'C12 H14 N8 Pt S4'
_chemical_formula_weight         593.64
_space_group_crystal_system      monoclinic
_space_group_IT_number           14
_space_group_name_Hall           '-P 2yn'
_space_group_name_H-M_alt        'P 1 21/n 1'
_atom_sites_solution_hydrogens   geom
_atom_sites_solution_primary     iterative
_audit_creation_date             2021-12-28
_audit_creation_method
;
Olex2 1.3
(compiled 2020.11.12 svn.r5f609507 for OlexSys, GUI svn.r6408)
;
_audit_update_record
;
2022-01-06 deposited with the CCDC.	2022-02-28 downloaded from the CCDC.
;
_cell_angle_alpha                90
_cell_angle_beta                 95.180(5)
_cell_angle_gamma                90
_cell_formula_units_Z            2
_cell_length_a                   4.0079(3)
_cell_length_b                   17.0621(10)
_cell_length_c                   12.9516(6)
_cell_measurement_reflns_used    1379
_cell_measurement_temperature    296.15
_cell_measurement_theta_max      27.0220
_cell_measurement_theta_min      3.9050
_cell_volume                     882.05(9)
_computing_cell_refinement       'CrysAlisPro 1.171.40.53 (Rigaku OD, 2019)'
_computing_data_collection       'CrysAlisPro 1.171.40.53 (Rigaku OD, 2019)'
_computing_data_reduction        'CrysAlisPro 1.171.40.53 (Rigaku OD, 2019)'
_computing_molecular_graphics    'Olex2 1.3 (Dolomanov et al., 2009)'
_computing_publication_material  'Olex2 1.3 (Dolomanov et al., 2009)'
_computing_structure_refinement  'SHELXL 2018/3 (Sheldrick, 2015)'
_computing_structure_solution    'olex2.solve (Bourhis et al., 2015)'
_diffrn_ambient_temperature      296.15
_diffrn_detector                 'CCD plate'
_diffrn_detector_area_resol_mean 15.9784
_diffrn_detector_type            Eos
_diffrn_measured_fraction_theta_full 0.997
_diffrn_measured_fraction_theta_max 0.997
_diffrn_measurement_details
;
List of Runs (angles in degrees, time in seconds):

  # Type    Start    End  Width  t~exp~   \w     \q     \k     \f   Frames
#--------------------------------------------------------------------------
  1  \w    -12.00  88.00   1.00    2.25    --   17.93  77.00 -60.00  100
  2  \w    -12.00  88.00   1.00    2.25    --   17.93  77.00 -30.00  100
  3  \w    -14.00  50.00   1.00    2.25    --  -19.72  77.00  60.00   64
  4  \w    -48.00  20.00   1.00    2.25    --  -19.72  77.00 150.00   68
;
_diffrn_measurement_device       'four-circle diffractometer'
_diffrn_measurement_device_type  'SuperNova, Single source at offset/far, Eos'
_diffrn_measurement_method       '\w scans'
_diffrn_orient_matrix_type
'CrysAlisPro convention (1999,Acta A55,543-557)'
_diffrn_orient_matrix_UB_11      0.0373949000
_diffrn_orient_matrix_UB_12      -0.0403222000
_diffrn_orient_matrix_UB_13      -0.0057631000
_diffrn_orient_matrix_UB_21      0.0897981000
_diffrn_orient_matrix_UB_22      -0.0000142000
_diffrn_orient_matrix_UB_23      0.0497608000
_diffrn_orient_matrix_UB_31      -0.1487086000
_diffrn_orient_matrix_UB_32      -0.0101248000
_diffrn_orient_matrix_UB_33      0.0226769000
_diffrn_radiation_monochromator  mirror
_diffrn_radiation_probe          x-ray
_diffrn_radiation_type           MoK\a
_diffrn_radiation_wavelength     0.71073
_diffrn_reflns_av_R_equivalents  0.0516
_diffrn_reflns_av_unetI/netI     0.0586
_diffrn_reflns_Laue_measured_fraction_full 0.997
_diffrn_reflns_Laue_measured_fraction_max 0.997
_diffrn_reflns_limit_h_max       4
_diffrn_reflns_limit_h_min       -4
_diffrn_reflns_limit_k_max       20
_diffrn_reflns_limit_k_min       -16
_diffrn_reflns_limit_l_max       15
_diffrn_reflns_limit_l_min       -10
_diffrn_reflns_number            4924
_diffrn_reflns_point_group_measured_fraction_full 0.997
_diffrn_reflns_point_group_measured_fraction_max 0.997
_diffrn_reflns_theta_full        24.993
_diffrn_reflns_theta_max         24.993
_diffrn_reflns_theta_min         3.377
_diffrn_source                   'micro-focus sealed X-ray tube'
_diffrn_source_type              'SuperNova (Mo) X-ray Source'
_exptl_absorpt_coefficient_mu    8.442
_exptl_absorpt_correction_T_max  1.00000
_exptl_absorpt_correction_T_min  0.53273
_exptl_absorpt_correction_type   multi-scan
_exptl_absorpt_process_details
;
CrysAlisPro 1.171.40.53 (Rigaku Oxford Diffraction, 2019)
Empirical absorption correction using spherical harmonics,
 implemented in SCALE3 ABSPACK scaling algorithm.
;
_exptl_crystal_colour            'metallic dark brown'
_exptl_crystal_colour_lustre     metallic
_exptl_crystal_colour_modifier   dark
_exptl_crystal_colour_primary    brown
_exptl_crystal_density_diffrn    2.235
_exptl_crystal_description       plate
_exptl_crystal_F_000             568
_exptl_crystal_size_max          0.51
_exptl_crystal_size_mid          0.23
_exptl_crystal_size_min          0.12
_refine_diff_density_max         1.281
_refine_diff_density_min         -2.067
_refine_diff_density_rms         0.178
_refine_ls_extinction_method     none
_refine_ls_goodness_of_fit_ref   1.025
_refine_ls_hydrogen_treatment    constr
_refine_ls_matrix_type           full
_refine_ls_number_parameters     116
_refine_ls_number_reflns         1552
_refine_ls_number_restraints     0
_refine_ls_restrained_S_all      1.025
_refine_ls_R_factor_all          0.0524
_refine_ls_R_factor_gt           0.0342
_refine_ls_shift/su_max          0.000
_refine_ls_shift/su_mean         0.000
_refine_ls_structure_factor_coef Fsqd
_refine_ls_weighting_details
'w=1/[\s^2^(Fo^2^)+(0.0343P)^2^] where P=(Fo^2^+2Fc^2^)/3'
_refine_ls_weighting_scheme      calc
_refine_ls_wR_factor_gt          0.0741
_refine_ls_wR_factor_ref         0.0847
_reflns_Friedel_coverage         0.000
_reflns_number_gt                1137
_reflns_number_total             1552
_reflns_threshold_expression     'I > 2\s(I)'
_cod_data_source_file            d1dt03964d2.cif
_cod_data_source_block           jm-l67aaaa
_cod_original_cell_volume        882.06(9)
_cod_database_code               7709748
_shelx_shelxl_version_number     2018/3
_shelx_space_group_comment
;
The symmetry employed for this shelxl refinement is uniquely defined
by the following loop, which should always be used as a source of
symmetry information in preference to the above space-group names.
They are only intended as comments.
;
_shelx_estimated_absorpt_t_max   0.431
_shelx_estimated_absorpt_t_min   0.099
_reflns_odcompleteness_completeness 99.68
_reflns_odcompleteness_iscentric 1
_reflns_odcompleteness_theta     26.32
_olex2_refinement_description
;
1. Fixed Uiso
 At 1.2 times of:
  All C(H) groups, All N(H) groups
 At 1.5 times of:
  All C(H,H,H) groups
2.a Aromatic/amide H refined with riding coordinates:
 N4(H4), C1(H1), C4(H4A), C2(H2)
2.b Idealised Me refined as rotating group:
 C6(H6A,H6B,H6C)
;
_shelx_res_file
;
TITL JM-L67AAAA in P21/n #14
    jm-l67aaaa.res
    created by SHELXL-2018/3 at 19:28:53 on 28-Dec-2021
REM reset to P21/n #14
CELL 0.71073 4.007932 17.062096 12.951592 90 95.18 90
ZERR 2 0.00026 0.001011 0.000607 0 0.0049 0
LATT 1
SYMM 0.5-X,0.5+Y,0.5-Z
SFAC C H N Pt S
UNIT 24 28 16 2 8

L.S. 4 0 0
PLAN  5
SIZE 0.51 0.12 0.23
TEMP 23
CONF
BOND
MORE -1
BOND $H
fmap 2 53
acta
OMIT -2 50
REM <olex2.extras>
REM <HklSrc "%.\\JM-L67AAAA.hkl">
REM </olex2.extras>

WGHT    0.034300
FVAR       3.05634
PT1   4    0.000000    0.500000    1.000000    10.50000    0.03392    0.02170 =
         0.02559    0.00059   -0.00084    0.00055
S2    5    0.716850    0.528812    1.358494    11.00000    0.05743    0.02748 =
         0.03811    0.00267   -0.00888    0.00619
S1    5   -0.023580    0.629686    0.952350    11.00000    0.06085    0.02377 =
         0.03693    0.00275   -0.01103   -0.00243
N3    3   -0.354649    0.546845    0.796165    11.00000    0.04087    0.01819 =
         0.03440    0.00106   -0.00426    0.00482
N2    3    0.262819    0.515155    1.139422    11.00000    0.03890    0.02295 =
         0.02339   -0.00709    0.00269   -0.00066
N4    3   -0.315453    0.679144    0.773771    11.00000    0.05999    0.01952 =
         0.03652    0.00025   -0.01028    0.00206
AFIX  43
H4    2   -0.241555    0.723799    0.796568    11.00000   -1.20000
AFIX   0
C3    1    0.546773    0.597670    1.272642    11.00000    0.04111    0.01995 =
         0.03155    0.00049   -0.00168    0.00102
N1    3    0.609895    0.670851    1.302689    11.00000    0.06542    0.02055 =
         0.04034   -0.00151   -0.00443   -0.00097
C1    1    0.879060    0.602557    1.437546    11.00000    0.06213    0.03540 =
         0.03765   -0.00414   -0.01343    0.00802
AFIX  43
H1    2    1.005253    0.594994    1.500606    11.00000   -1.20000
AFIX   0
C4    1    0.356754    0.583522    1.175136    11.00000    0.05373    0.02908 =
         0.02743    0.00337   -0.00794    0.00133
AFIX  43
H4A   2    0.295930    0.626886    1.134180    11.00000   -1.20000
AFIX   0
C2    1    0.799014    0.672376    1.395985    11.00000    0.06313    0.02580 =
         0.03540   -0.01467   -0.00913   -0.00396
AFIX  43
H2    2    0.867430    0.719061    1.428379    11.00000   -1.20000
AFIX   0
C5    1   -0.249185    0.615213    0.832232    11.00000    0.03358    0.02750 =
         0.03761   -0.00349    0.00556    0.00220
C6    1   -0.508283    0.675632    0.672965    11.00000    0.07147    0.04060 =
         0.03659    0.00809   -0.00913   -0.00465
AFIX 137
H6A   2   -0.382783    0.647719    0.625033    11.00000   -1.50000
H6B   2   -0.552861    0.727858    0.647808    11.00000   -1.50000
H6C   2   -0.716245    0.649005    0.679641    11.00000   -1.50000
AFIX   0
HKLF 4




REM  JM-L67AAAA in P21/n #14
REM wR2 = 0.0847, GooF = S = 1.025, Restrained GooF = 1.025 for all data
REM R1 = 0.0342 for 1137 Fo > 4sig(Fo) and 0.0524 for all 1552 data
REM 116 parameters refined using 0 restraints

END

WGHT      0.0343      0.0000

REM Highest difference peak  1.281,  deepest hole -2.067,  1-sigma level  0.178
Q1    1   0.4141  0.4581  1.0056  11.00000  0.05    1.28
Q2    1   0.3288  0.5391  1.0143  11.00000  0.05    1.13
Q3    1   0.0256  0.6350  1.0426  11.00000  0.05    1.06
Q4    1  -0.2344  0.5007  1.0354  11.00000  0.05    0.94
Q5    1   0.7141  0.4686  1.3566  11.00000  0.05    0.82
;
_shelx_res_checksum              84040
_shelx_hkl_file
;
   0   0   3-15.5691 171.171   3
   0   0   3 172.012 152.727   1
   0   0  -3-17.6525 114.608   1
   0   0  -3-305.343 211.051   4
   0   0   3-25.3056 197.256   4
   0   0   4 88021.4 4085.13   3
   0   0   4 83855.2 4263.86   4
   0   0  -4 84308.4 3562.05   1
   0   0  -4 85710.8 4344.22   4
   0   0   4 97276.6 3557.40   1
   0   0  -5-373.087 305.100   4
   0   0   5 122.089 230.832   1
   0   0   5 215.322 326.388   4
   0   0   5-286.090 283.923   3
   0   0  -5-33.4559 169.965   1
   0   0   6 195056. 8642.23   4
   0   0   6 213321. 7275.02   1
   0   0   6 205212. 8337.13   3
   0   0  -6 194944. 7571.18   1
   0   0   7 702.086 490.570   4
   0   0  -7 306.951 243.887   1
   0   0   7-7.41144 199.052   1
   0   0   7-18.7410 321.684   3
   0   0  -8 49798.6 3284.95   1
   0   0   8 52214.4 3766.31   3
   0   0   8 47683.6 3960.81   4
   0   0   8 48169.1 2829.78   1
   0   0   9 180.712 342.105   3
   0   0   9-449.336 505.339   4
   0   0   9-35.9395 273.843   1
   0   0  10 12903.5 2236.50   4
   0   0  10 18935.8 2418.14   3
   0   0  11 527.296 568.589   4
   0   0  11 668.350 676.402   3
   0   0  12 15086.0 2365.92   3
   0   0  12 16343.4 2754.07   4
   0   0  13 438.624 595.629   3
   0   0  13-427.348 647.419   4
   0   0  14 30534.6 4138.23   4
   0   0  14 25435.7 3413.17   3
   0   0  15 4.13202 577.343   4
   0   0  15 9.96331 390.633   3
   0   0  16 14100.8 2699.19   3
   0  -1   2 48036.4 2287.07   4
   0  -1  -2 44770.1 1734.63   2
   0   1   2 48006.7 2230.44   4
   0   1  -2 45235.4 2284.39   4
   0  -1  -2 44220.9 2188.41   4
   0  -1   3 240235. 8350.87   4
   0  -1  -3 210830. 7620.11   1
   0   1  -3 234329. 7243.43   1
   0   1  -3 248786. 8221.95   3
   0   1   3 239759. 7693.39   1
   0   1   3 236676. 8251.04   4
   0  -1  -3 214290. 8158.76   4
   0  -1   3 243625. 7134.93   1
   0   1   3 208069. 7107.56   2
   0  -1  -3 230575. 7309.96   2
   0   1  -3 234496. 8379.95   4
   0  -1   3 249807. 8131.69   3
   0  -1   4 4495.62 827.742   4
   0  -1   4 6324.77 570.083   1
   0  -1   4 4560.81 776.697   3
   0   1   4 4850.86 874.750   4
   0  -1  -4 5404.46 885.801   4
   0   1   4 6619.61 539.183   2
   0   1  -4 5332.24 611.307   1
   0   1  -4 5728.16 902.218   3
   0  -1  -4 5186.02 701.441   1
   0   1  -4 5348.37 935.482   4
   0   1   4 6162.00 742.303   1
   0   1   4 3813.56 692.225   3
   0  -1  -4 5421.10 585.982   2
   0   1   5 222451. 9070.97   4
   0  -1  -5 220814. 7628.03   2
   0   1   5 244144. 7249.02   2
   0   1  -5 225784. 9215.34   4
   0  -1  -5 218271. 9065.09   4
   0   1  -5 217289. 7807.16   1
   0  -1   5 226256. 9139.11   4
   0  -1  -5 221674. 8193.72   1
   0  -1   5 221750. 7452.17   1
   0   1   5 219095. 8604.75   3
   0  -1   5 227620. 8794.92   3
   0   1   6 26743.1 2240.05   3
   0   1   6 23750.7 1242.37   2
   0   1  -6 25975.7 1839.02   1
   0  -1  -6 23997.0 1545.81   2
   0  -1   6 25612.7 2460.96   4
   0   1   6 27616.3 1884.36   1
   0  -1   6 23603.3 2184.53   3
   0  -1  -6 25444.5 1995.33   1
   0  -1   6 25089.8 1531.88   1
   0   1   6 23901.2 2390.80   4
   0  -1   7 55457.4 2756.71   1
   0  -1   7 64161.8 4036.49   3
   0   1   7 54659.4 2310.99   2
   0   1   7 63129.2 3891.49   3
   0  -1   7 56814.4 4141.95   4
   0   1   7 59643.4 4184.74   4
   0  -1  -7 60315.8 3559.18   1
   0  -1  -7 51939.0 2621.60   2
   0   1   7 64513.6 3244.17   1
   0   1  -7 59662.4 3294.74   1
   0  -1   8 1522.84 738.930   4
   0  -1   8 599.464 289.311   1
   0   1   8 1139.45 250.475   2
   0  -1   8 1784.39 676.195   3
   0   1   8 1533.66 627.402   3
   0   1  -8 784.067 364.275   1
   0   1   8 1296.15 425.152   1
   0   1   8 1162.82 522.617   4
   0  -1   9 41869.1 3906.55   4
   0   1   9 40817.0 2829.19   1
   0  -1   9 47393.1 3804.36   3
   0   1  -9 42804.9 3108.39   1
   0   1   9 44173.1 3989.70   4
   0   1   9 42388.8 3505.39   3
   0   1  10 2244.14 835.099   3
   0  -1  10 1121.55 720.323   4
   0   1  10 2752.49 974.759   4
   0   1  10 1410.04 527.105   1
   0  -1  10 2665.87 1006.80   3
   0   1  11 46099.8 4056.33   3
   0   1  11 48012.4 4606.42   4
   0  -1  11 50947.0 4379.65   3
   0  -1  11 42191.6 4340.33   4
   0   1  12 2052.23 979.759   3
   0  -1  12 516.432 514.693   3
   0   1  12 2872.10 1228.02   4
   0  -1  12 787.535 738.786   4
   0   1  13 13993.4 2359.93   3
   0  -1  13 11849.8 2222.43   3
   0   1  13 14458.8 2686.39   4
   0  -1  13 13544.8 2621.61   4
   0  -1  14 194.869 536.936   3
   0   1  14 994.634 742.735   3
   0   1  14-117.214 576.615   4
   0  -1  14-1466.67 1023.32   4
   0   1  15 11348.7 2583.32   4
   0   1  15 13509.3 2526.67   3
   0  -1  15 12349.4 2467.65   3
   0  -1  16-1179.81 916.883   3
   0   1  16-213.522 696.826   4
   0   1  16-49.0503 501.017   3
   0   2   2 134594. 4947.29   2
   0   2  -2 160641. 5408.93   3
   0   2  -2 153879. 4789.98   2
   0  -2  -2 139274. 5269.66   1
   0  -2   2 168967. 5435.21   3
   0  -2   2 141185. 4681.37   2
   0   2   2 130624. 5155.11   1
   0  -2  -2 159686. 5073.88   2
   0  -2   3 115.338 78.5840   2
   0   2  -3 60.9989 127.843   4
   0   2   3 111.085 134.545   2
   0  -2  -3 14.1843 123.233   1
   0   2   3 105.619 168.759   4
   0   2  -3-302.640 201.918   3
   0   2   3 232.336 232.110   1
   0  -2  -3 26.3586 93.6861   2
   0  -2   3-7.12652 174.960   3
   0   2   4 59979.1 3447.14   4
   0   2   4 67836.2 2666.25   2
   0   2  -4 57573.4 3544.11   4
   0  -2  -4 60436.6 2743.19   2
   0  -2  -4 62989.1 3130.65   1
   0  -2   4 58229.7 2137.46   1
   0   2  -4 57062.4 2400.78   1
   0   2   4 68873.3 3154.29   1
   0  -2  -4 61123.3 3449.12   4
   0  -2   4 64310.0 3405.95   3
   0   2  -4 65446.3 3451.38   3
   0  -2   5 11647.9 779.910   1
   0   2   5 12006.3 1535.95   4
   0   2  -5 13022.5 1677.60   4
   0  -2   5 12242.6 1461.49   3
   0   2   5 13366.8 996.131   2
   0   2   5 15708.7 1385.05   1
   0  -2  -5 9625.73 1375.83   4
   0  -2  -5 13532.3 1158.90   2
   0  -2  -5 14452.0 1402.14   1
   0  -2   5 11759.8 1548.29   4
   0   2  -5 13669.0 1062.42   1
   0  -2   6 176814. 6306.88   1
   0   2   6 211374. 7516.78   1
   0  -2  -6 184877. 6997.35   2
   0  -2   6 192218. 8144.73   3
   0   2  -6 190279. 6929.10   1
   0   2   6 185832. 7767.48   3
   0  -2   6 198335. 8646.58   4
   0   2   6 192569. 8508.06   4
   0   2   6 200980. 6526.46   2
   0  -2  -6 207322. 7787.44   1
   0  -2   7 14581.8 1992.51   4
   0   2   7 13128.4 1025.16   2
   0   2   7 13608.5 1903.58   4
   0  -2  -7 12425.1 1249.37   2
   0  -2   7 11704.3 991.606   1
   0   2   7 14598.9 1502.73   1
   0  -2   7 13793.9 1816.47   3
   0   2   7 13888.2 1695.23   3
   0   2  -7 11705.4 1254.67   1
   0   2  -8 124441. 5368.75   1
   0   2   8 112007. 5984.82   3
   0  -2  -8 111216. 4917.16   2
   0  -2   8 118789. 6834.64   4
   0   2   8 109629. 4382.44   2
   0  -2   8 123796. 6468.83   3
   0   2   8 115437. 6671.63   4
   0   2   8 125018. 5478.96   1
   0   2   9-42.0987 565.678   4
   0   2   9 288.286 172.780   2
   0   2   9 906.316 551.606   3
   0   2   9 822.872 409.415   1
   0  -2   9 205.941 377.537   4
   0   2  -9 859.088 427.282   1
   0  -2   9 139.579 431.991   3
   0  -2  10 24190.1 3127.88   4
   0   2  10 22419.2 2226.70   1
   0   2  10 27144.1 3243.84   4
   0   2  10 28931.1 2935.59   3
   0   2 -10 25784.6 2346.02   1
   0  -2  10 30729.1 3194.75   3
   0   2  11 533.464 538.082   3
   0  -2  11-1424.87 859.799   4
   0   2  11-864.926 730.994   4
   0  -2  11-126.312 548.470   3
   0   2  12 28149.6 3632.20   4
   0   2  12 24714.4 2999.12   3
   0  -2  12 30435.9 3509.98   3
   0   2  13-524.812 688.595   4
   0  -2  13-124.684 477.074   3
   0   2  13 267.186 513.398   3
   0   2  14 32896.7 4357.61   4
   0  -2  14 38102.7 4302.08   3
   0   2  14 39133.4 4108.15   3
   0   2  15-523.412 699.527   4
   0   2  15-18.8979 373.048   3
   0   2  16 13280.2 2960.23   4
   0  -2  16 9755.80 2387.84   3
   0   2  16 10780.4 2321.28   3
   0   2  17 809.544 1036.92   3
   0   2  17-622.933 861.190   4
   0  -3   0 59.3645 117.881   2
   0   3   0 130.861 161.869   2
   0   3   0 1.78290 90.5373   1
   0  -3   0 2.82978 89.1395   1
   0  -3   1 110850. 4389.94   2
   0  -3  -1 132641. 4677.55   2
   0   3   1 112264. 4531.35   1
   0   3  -1 143882. 4186.92   1
   0   3  -1 148074. 4576.13   2
   0  -3   1 147564. 4732.11   3
   0   3  -1 138163. 4640.50   3
   0   3   1 120362. 4547.14   2
   0  -3  -1 108743. 4598.99   1
   0  -3   1 105576. 4106.72   1
   0   3   2 27669.8 1659.41   2
   0   3  -2 32428.9 1864.70   3
   0  -3  -2 29242.2 1896.67   1
   0  -3   2 32779.3 1898.42   3
   0  -3   2 29470.0 1538.39   2
   0   3   2 28342.2 1830.58   1
   0  -3  -2 32385.8 1759.61   2
   0   3  -2 33865.6 1610.47   2
   0   3  -3 84149.5 3313.88   2
   0  -3  -3 90094.9 3637.60   2
   0  -3   3 95254.1 4076.04   3
   0  -3   3 84749.4 3218.95   2
   0   3   3 85523.3 3552.83   2
   0   3   3 83122.9 3821.97   1
   0  -3  -3 89948.2 3994.71   1
   0   3  -3 89260.0 3987.45   3
   0  -3  -4 2673.53 587.854   1
   0   3   4 2432.58 479.467   2
   0   3   4 2768.33 672.988   4
   0   3  -4 2401.19 684.026   4
   0   3  -4 3228.96 676.858   3
   0  -3  -4 2611.96 506.899   2
   0  -3   4 2256.67 601.005   3
   0  -3   4 2857.38 369.177   2
   0   3   4 1803.98 488.980   1
   0  -3  -5 162438. 6640.12   1
   0   3   5 157658. 7164.68   4
   0   3   5 180048. 6658.70   1
   0  -3   5 153443. 6889.35   3
   0   3   5 169432. 5886.23   2
   0  -3  -5 147744. 6037.25   2
   0  -3   5 159004. 5106.48   2
   0   3  -6 7163.02 728.554   1
   0   3   6 9118.19 912.529   2
   0   3   6 8742.60 1178.45   1
   0   3   6 8218.72 1396.12   4
   0  -3  -6 7856.56 1007.20   2
   0  -3   6 7358.63 1289.47   3
   0  -3  -7 67515.1 3639.45   2
   0   3   7 77597.8 4009.47   1
   0   3   7 72130.2 3196.59   2
   0   3   7 68192.5 4111.20   3
   0   3  -7 62744.2 3083.11   1
   0   3   7 65011.6 4572.74   4
   0  -3   7 74616.4 4639.12   3
   0  -3  -8 900.115 399.746   2
   0  -3   8 1672.70 891.769   3
   0   3  -8 1394.08 426.103   1
   0   3   8 1036.76 514.716   4
   0   3   8 1389.48 392.959   2
   0   3   8 3216.04 892.006   3
   0   3   8 1975.86 659.604   1
   0   3   9 96961.8 5003.80   1
   0   3  -9 90987.0 4355.69   1
   0   3   9 86611.1 3984.64   2
   0   3   9 92774.9 5425.56   3
   0  -3   9 100142. 6028.35   3
   0  -3  -9 86001.1 4468.87   2
   0   3   9 96685.4 6289.04   4
   0   3  10 714.514 578.812   3
   0  -3  10 101.889 463.837   3
   0   3  10 415.913 239.120   2
   0   3  10-12.0027 336.742   1
   0   3  10 933.138 684.920   4
   0  -3  11 94527.3 6369.25   3
   0   3  11 87474.2 6536.53   4
   0   3  11 81235.4 4990.47   1
   0   3  11 98958.0 6016.39   3
   0  -3  12 3190.69 1305.28   3
   0   3  12 2625.29 1019.77   3
   0   3  12 3052.51 1182.26   4
   0   3  13 18228.8 3048.45   4
   0   3  13 18757.3 2682.93   3
   0  -3  13 16845.7 2767.72   3
   0   3  14 379.009 570.651   4
   0  -3  14 645.412 859.448   3
   0   3  14 217.474 504.259   3
   0   3  15 17061.2 2816.75   3
   0   3  15 14489.0 2957.79   4
   0  -3  15 19165.5 3203.28   3
   0   3  16-301.548 492.654   3
   0  -3  16-1021.10 816.694   3
   0   3  16-220.288 724.090   4
   0   3  17 8438.42 2412.92   4
   0   3  17 12138.5 2553.98   3
   0  -4   0 42179.0 2235.43   2
   0   4   0 41445.7 2201.28   2
   0   4   0 47176.6 2131.09   1
   0  -4   1 21810.9 1500.61   3
   0  -4   1 19528.1 1296.05   1
   0  -4  -1 22473.5 1607.45   1
   0   4  -1 23715.8 1471.88   2
   0  -4  -1 22644.6 1578.05   2
   0   4  -1 23375.7 1497.96   3
   0   4   1 20251.5 1479.20   1
   0  -4   1 20864.8 1455.75   2
   0   4  -1 25597.6 1302.08   1
   0   4   1 20582.0 1484.25   2
   0   4   2 91188.6 3965.90   2
   0  -4  -2 100325. 4087.84   2
   0  -4   2 93351.3 3314.00   1
   0  -4  -2 97123.5 4261.59   1
   0  -4   2 98854.1 4179.75   3
   0   4  -2 97768.3 3797.34   2
   0   4   2 82715.0 3986.58   1
   0   4  -2 105084. 4154.06   3
   0  -4   2 93145.4 3799.86   2
   0   4  -3 514.874 256.470   3
   0  -4   3 432.383 195.481   2
   0   4  -3 322.450 182.749   2
   0  -4  -3 683.670 310.886   1
   0   4   3 313.351 250.823   2
   0  -4  -3 335.671 209.258   2
   0   4   3 423.464 333.665   1
   0  -4   3 259.632 216.325   3
   0  -4   4 48026.1 2196.67   2
   0   4   4 47782.5 2599.67   2
   0   4   4 49476.1 3211.88   4
   0   4  -4 44170.8 2310.11   2
   0  -4  -4 49975.9 3022.56   1
   0  -4   4 47668.6 2994.76   3
   0  -4  -4 45828.2 2616.22   2
   0   4   4 49267.8 2891.32   1
   0  -4  -5 2991.06 617.546   2
   0  -4   5 2013.54 643.435   3
   0   4   5 2805.92 701.112   1
   0   4   5 2135.30 691.063   4
   0  -4   5 3368.62 439.987   2
   0   4   5 3759.76 689.590   2
   0  -4   6 168693. 7494.04   3
   0   4   6 169977. 6960.94   1
   0  -4  -6 156108. 6524.06   2
   0   4   6 163126. 7749.05   4
   0  -4   6 155595. 5311.39   2
   0   4   6 165032. 6154.61   2
   0   4   7 695.009 293.455   2
   0  -4   7 119.630 89.2282   2
   0  -4   7 249.344 415.308   3
   0   4   7-308.749 422.379   4
   0   4   7 646.355 425.539   1
   0  -4  -7-135.479 130.188   2
   0  -4   8 175938. 8501.94   3
   0   4   8 166836. 7726.19   3
   0   4   8 165071. 6613.97   2
   0   4   8 169595. 8767.89   4
   0  -4  -8 176544. 7380.35   2
   0   4   8 188185. 7778.75   1
   0  -4  -9 9053.23 1327.77   2
   0   4   9 6959.51 1368.79   3
   0   4   9 13241.5 2184.55   4
   0   4   9 8228.23 1082.38   2
   0  -4   9 9724.53 1751.64   3
   0   4   9 7783.90 1367.55   1
   0   4  10 53496.1 3111.42   2
   0   4  10 52509.5 3795.59   1
   0   4  10 53667.3 4111.38   3
   0   4  10 60878.8 5129.79   4
   0  -4  10 58265.8 4722.28   3
   0   4  11 3543.20 1273.80   4
   0   4  11 3486.73 1055.13   3
   0   4  11 3154.33 911.884   1
   0  -4  11 5233.46 1540.61   3
   0   4  12 28004.5 3768.54   4
   0  -4  12 34934.7 3871.90   3
   0   4  12 34553.2 3483.14   3
   0   4  13 147.210 505.409   3
   0   4  13 1225.17 847.240   4
   0  -4  13 1569.54 1083.13   3
   0   4  14 40169.3 4886.81   4
   0   4  14 39106.9 4085.79   3
   0  -4  14 42725.9 4710.52   3
   0   4  15-949.804 763.068   3
   0  -4  15-692.439 765.798   3
   0   4  15-2262.88 1246.87   4
   0  -4  16 13423.6 2786.33   3
   0   4  16 13573.4 2983.31   4
   0   4  16 9252.79 2139.19   3
   0   4  17 1891.89 1240.43   3
   0   5   0 232.830 220.415   1
   0  -5   0-78.0263 250.091   2
   0  -5   0 177.587 203.968   1
   0   5   0 90.4676 218.278   2
   0   5  -1 72228.0 2890.06   1
   0   5   1 60778.6 3147.93   2
   0  -5   1 68758.7 2998.76   1
   0   5  -1 62993.2 3083.65   3
   0  -5  -1 70202.6 3348.62   2
   0   5  -1 67448.4 3172.91   2
   0  -5   1 66759.8 3212.91   2
   0  -5  -1 60430.6 3214.33   1
   0   5   1 61142.9 3155.95   1
   0   5  -2 723.705 314.350   3
   0  -5   2 437.804 257.241   2
   0  -5  -2 462.276 253.871   2
   0  -5   2 316.280 256.646   3
   0   5  -2 587.454 282.443   2
   0   5   2 76.8028 206.526   1
   0   5   2 180.343 233.201   2
   0  -5  -2 380.615 224.619   1
   0  -5   2 256.075 162.307   1
   0   5  -3 237223. 8820.03   3
   0  -5   3 240304. 8967.28   3
   0  -5  -3 247832. 8769.91   2
   0   5   3 234379. 8600.84   2
   0  -5   3 236884. 8287.75   2
   0   5  -3 228348. 8309.33   2
   0  -5  -3 251633. 9192.95   1
   0   5   3 232012. 8872.92   1
   0  -5   3 249162. 7475.14   1
   0  -5  -4 14369.2 1442.56   2
   0  -5   4 16222.3 1250.08   2
   0   5   4 18057.0 1552.34   2
   0   5   4 16571.6 1643.38   1
   0  -5   4 16058.6 1713.39   3
   0   5  -4 16043.6 1351.07   2
   0  -5   5 119395. 4393.33   2
   0   5   5 123293. 5537.00   1
   0   5   5 116596. 6002.86   4
   0   5  -5 99707.0 4593.33   2
   0  -5  -5 114708. 5164.53   2
   0   5   5 114809. 4994.40   2
   0  -5   5 108732. 5606.82   3
   0  -5   6 12841.1 1763.14   3
   0   5   6 14661.2 1681.15   1
   0   5   6 12542.5 1362.05   2
   0  -5  -6 13707.5 1534.55   2
   0  -5   6 13968.2 1058.09   2
   0   5   6 14790.5 1984.27   4
   0   5   7 56555.2 3593.12   1
   0  -5   7 48878.4 2282.24   2
   0   5   7 49281.6 2937.42   2
   0   5   7 48631.9 4034.85   4
   0  -5   7 56012.6 4015.59   3
   0   5   8-469.121 542.996   4
   0   5   8 141.170 434.826   1
   0  -5   8 161.235 493.156   3
   0   5   8 108.065 276.468   2
   0  -5   8-31.6841 121.661   2
   0   5   9 108789. 5183.19   2
   0   5   9 122061. 7375.38   4
   0   5   9 107425. 5939.00   3
   0   5   9 108459. 5888.73   1
   0  -5   9 115443. 6839.37   3
   0   5  10-469.043 454.747   3
   0   5  10-818.232 644.327   4
   0   5  10 471.390 316.370   2
   0  -5  10-185.180 439.491   3
   0   5  10-391.161 426.845   1
   0   5  11 29355.0 2385.86   2
   0   5  11 28667.5 3012.65   3
   0  -5  11 33563.0 3719.72   3
   0   5  11 25625.9 2771.94   1
   0   5  11 30111.7 3754.19   4
   0   5  12 822.770 843.312   4
   0  -5  12 899.216 665.973   3
   0   5  12 907.509 647.294   3
   0   5  13 33545.9 3580.97   3
   0   5  13 30555.8 4160.54   4
   0   5  14-1041.25 914.920   4
   0   5  14 929.018 780.733   3
   0  -5  14-184.404 581.622   3
   0   5  15 14589.7 3019.19   4
   0   5  15 16558.8 2684.12   3
   0  -5  15 21960.5 3536.22   3
   0   5  16 201.474 634.734   4
   0   5  16 2517.30 1117.81   3
   0   5  17 9849.64 2227.79   3
   0   6   0 280015. 9873.39   3
   0   6   0 308807. 10009.6   1
   0   6   0 299539. 10236.2   2
   0  -6   0 319582. 10255.2   1
   0   6   1 5212.94 831.573   1
   0  -6  -1 5084.75 859.448   1
   0  -6   1 4713.96 687.230   1
   0   6  -1 5543.93 708.787   1
   0   6  -1 5404.20 822.041   2
   0   6   1 4962.73 840.726   2
   0  -6  -1 5253.94 850.902   2
   0  -6   1 3853.68 701.791   2
   0   6  -1 4805.73 747.991   3
   0  -6  -2 103877. 4904.87   1
   0  -6  -2 105205. 4760.56   2
   0   6   2 100311. 4628.78   2
   0   6  -2 99889.7 4467.61   2
   0  -6   2 101881. 4759.68   3
   0  -6   2 96954.8 4445.21   2
   0   6   2 97986.6 4658.33   1
   0  -6   2 106119. 4006.34   1
   0   6  -2 98848.5 4540.24   3
   0   6   3 43144.2 2944.65   1
   0   6  -3 46106.7 2701.36   2
   0  -6   3 49146.8 2696.33   2
   0  -6   3 49328.4 3108.85   3
   0  -6   3 47959.3 2093.33   1
   0   6   3 47229.8 2879.83   2
   0  -6   4 72031.8 3292.87   2
   0  -6   4 59417.3 3787.36   3
   0   6  -4 65890.9 3393.25   2
   0   6   4 67026.4 3843.02   1
   0  -6   4 63620.8 2407.35   1
   0   6   4 67759.2 3594.26   2
   0   6   5 4351.36 837.909   2
   0   6   5 5703.28 1063.00   1
   0  -6   5 3109.50 896.031   3
   0  -6   5 4744.41 692.196   2
   0   6  -5 5182.75 830.738   2
   0   6   6 117907. 6522.27   4
   0   6   6 118373. 5315.54   2
   0   6   6 113038. 5796.71   1
   0  -6   6 112471. 6134.89   3
   0  -6   6 115997. 4590.77   2
   0   6   7 4366.59 1035.51   1
   0  -6   7 6571.94 772.323   2
   0   6   7 4651.26 1235.66   4
   0  -6   7 3419.96 981.347   3
   0   6   7 4677.65 912.015   2
   0   6   8 92321.6 6180.88   4
   0  -6   8 86284.2 3691.88   2
   0   6   8 88723.7 4589.70   2
   0  -6   8 92405.7 5882.59   3
   0   6   8 94370.5 5322.35   1
   0   6   9 12219.8 1785.93   1
   0   6   9 10899.2 1430.75   2
   0  -6   9 14378.5 2267.89   3
   0  -6   9 13542.1 995.603   2
   0   6   9 11891.0 2192.46   4
   0   6  10 35739.1 3275.58   1
   0   6  10 34439.2 3214.18   3
   0  -6  10 42802.0 4156.12   3
   0   6  10 36110.6 2808.58   2
   0   6  10 38756.5 4199.54   4
   0   6  11 74.2678 373.215   3
   0   6  11 442.319 766.185   4
   0  -6  11 877.239 757.282   3
   0   6  11 996.602 503.513   2
   0   6  11 927.686 639.203   1
   0   6  12 19420.4 2584.73   3
   0   6  12 21879.1 3377.79   4
   0  -6  12 21982.3 3239.62   3
   0  -6  13 2263.46 1317.52   3
   0   6  13 1962.25 1113.46   4
   0   6  13 411.721 500.878   3
   0   6  14 22788.7 2995.82   3
   0   6  14 21253.0 3607.51   4
   0  -6  14 20601.6 3395.13   3
   0   6  15 773.267 797.352   4
   0  -6  15 347.906 697.417   3
   0   6  15-141.089 733.085   3
   0   6  16 11801.0 2814.78   4
   0   6  16 5514.14 1748.87   3
   0  -7   0 909.490 398.386   1
   0   7   0 340.172 339.425   2
   0   7   0 177.865 270.184   1
   0   7   0 799.571 336.727   3
   0   7  -1 188737. 7431.89   3
   0   7  -1 210111. 7775.30   2
   0  -7   1 208899. 7414.88   1
   0   7   1 190940. 7728.98   2
   0   7   1 191143. 7580.40   1
   0   7  -1 195866. 7192.44   1
   0  -7   2 4167.37 653.689   1
   0   7   2 5170.53 938.795   1
   0   7  -2 5092.76 877.426   2
   0  -7   2 4443.61 877.350   3
   0   7   2 3104.06 728.086   2
   0  -7   3 220603. 7126.25   1
   0   7   3 190140. 8205.21   2
   0   7   3 204423. 8346.04   1
   0   7  -3 198848. 7930.36   2
   0  -7   3 211986. 7926.23   2
   0  -7   3 209145. 8521.06   3
   0   7   4 23264.1 2171.80   1
   0  -7   4 19464.3 1188.13   1
   0  -7   4 18058.9 1995.31   3
   0   7  -4 20353.4 1814.89   2
   0  -7   4 22552.1 1770.41   2
   0   7   4 18084.6 1810.03   2
   0   7   5 78769.4 4251.59   2
   0  -7   5 82857.0 3817.12   2
   0   7   5 77514.0 4534.12   1
   0  -7   5 76167.8 4727.81   3
   0   7  -5 75450.5 4020.91   2
   0   7  -6 5505.66 946.817   2
   0   7   6 4807.37 1224.19   4
   0  -7   6 4071.83 1061.95   3
   0  -7   6 6031.35 828.686   2
   0   7   6 4660.59 931.469   2
   0   7   6 6191.23 1216.44   1
   0  -7   7 62735.9 4620.30   3
   0  -7   7 62440.9 3154.41   2
   0   7   7 66921.6 4353.14   1
   0   7   7 60015.9 4809.23   4
   0   7   7 62914.4 3768.34   2
   0  -7   8 2241.28 962.582   3
   0   7   8 1675.91 661.027   2
   0   7   8 1882.61 886.535   1
   0  -7   8 2311.17 509.040   2
   0   7   8 2710.79 980.277   4
   0   7   9 37651.8 3977.39   4
   0  -7   9 36579.0 3715.61   3
   0   7   9 27975.2 2530.11   2
   0   7   9 30135.9 3028.26   1
   0   7  10 575.293 635.272   4
   0   7  10 1567.99 795.896   1
   0  -7  10 1945.33 1046.59   3
   0   7  10 1694.38 648.350   2
   0   7  10 3146.36 926.836   3
   0  -7  11 15993.2 2705.09   3
   0   7  11 12179.7 1944.60   3
   0   7  11 17893.6 2988.13   4
   0   7  11 13423.5 1767.76   2
   0   7  11 13674.9 2179.03   1
   0   7  12 825.621 793.966   4
   0   7  12 162.517 326.779   3
   0  -7  12-266.413 521.879   3
   0   7  13 18151.5 3282.62   4
   0   7  13 17286.9 2525.56   3
   0  -7  13 19135.2 3202.52   3
   0   7  14 219.341 480.260   3
   0   7  14-421.628 683.552   4
   0  -7  14 579.683 739.543   3
   0   7  15 12111.1 2886.99   4
   0   7  15 13639.1 2406.02   3
   0  -7  15 12308.9 2780.72   3
   0   7  16 1455.50 1141.36   4
   0   7  16 1921.62 965.653   3
   0   8   0 138353. 5831.68   1
   0   8   0 139952. 6271.99   2
   0   8   0 134008. 5734.45   3
   0   8  -1 316.425 251.540   1
   0   8   1 520.059 419.333   2
   0  -8   1 638.068 298.112   1
   0   8  -1 747.106 506.681   2
   0   8   1 445.984 374.614   1
   0   8  -2 250317. 9709.73   2
   0   8   2 249432. 9809.87   2
   0  -8   2 271006. 9095.05   1
   0   8   2 249250. 9790.31   1
   0   8  -3 7236.69 1125.02   2
   0  -8   3 8953.13 933.127   1
   0  -8   3 7944.74 1298.35   3
   0   8   3 7977.67 1233.21   1
   0   8   3 6189.56 1102.07   2
   0   8   4 78462.1 4663.77   1
   0  -8   4 80870.1 3308.96   1
   0   8   4 74126.1 4348.13   2
   0  -8   4 76467.6 4630.87   3
   0   8  -4 76294.1 4204.29   2
   0   8   5 28725.3 2488.85   2
   0   8  -5 28153.5 2335.20   2
   0   8   5 28871.6 2666.11   1
   0  -8   5 27125.2 1453.48   1
   0  -8   5 30700.5 2875.73   3
   0  -8   6 71458.1 4893.90   3
   0   8   6 68943.6 4529.28   1
   0   8   6 76163.5 4359.45   2
   0   8  -6 75811.0 4234.84   2
   0   8   7 1367.55 734.227   1
   0   8   7 1809.29 718.500   2
   0  -8   7 1409.53 448.991   2
   0  -8   7 1595.40 753.098   3
   0   8   7 2298.98 997.936   4
   0  -8   8 52020.9 4445.40   3
   0   8   8 45893.1 3425.05   2
   0   8   8 50184.5 3988.25   1
   0   8   8 50739.3 4641.58   4
   0  -8   9 4396.35 1383.33   3
   0   8   9 4027.08 1334.41   4
   0   8   9 3057.67 894.651   2
   0   8   9 4301.67 1179.28   1
   0   8  10 5795.20 1248.57   2
   0   8  10 6957.53 1554.56   1
   0  -8  10 10037.9 2038.33   3
   0   8  10 8990.09 2128.22   4
   0   8  11-1192.47 874.711   4
   0   8  11-174.482 675.625   1
   0  -8  11 1028.66 829.058   3
   0   8  11-284.393 327.488   2
   0   8  11 582.950 509.347   3
   0   8  12 17420.5 2410.21   3
   0  -8  12 16112.9 2889.47   3
   0   8  12 16477.4 3031.27   4
   0  -8  13 266.452 660.296   3
   0   8  13 924.330 654.380   4
   0   8  13-358.341 467.594   3
   0  -8  14 13852.7 2886.96   3
   0   8  14 14475.7 3123.11   4
   0   8  14 18353.6 2643.77   3
   0   8  15-411.007 435.106   3
   0  -8  15-111.260 601.645   3
   0   8  15-586.207 800.591   4
   0   8  16 12955.6 3106.73   4
   0   9   0 232.061 370.823   2
   0   9   0 223.729 328.016   1
   0   9   1 157936. 7012.43   1
   0   9   1 177138. 7497.63   2
   0   9  -1 153982. 6607.49   1
   0   9  -1 175894. 7400.49   2
   0   9   2 12324.0 1640.92   2
   0   9   2 14296.3 1720.35   1
   0  -9   2 16055.4 1496.99   1
   0   9  -2 15382.6 1769.12   2
   0  -9   3 68338.9 3337.32   1
   0   9   3 67314.9 4147.42   2
   0  -9   3 60572.3 4143.35   3
   0   9   3 65309.6 4127.47   1
   0   9  -3 70284.4 4110.25   2
   0   9   4-1.56952 370.166   1
   0   9  -4 324.769 350.644   2
   0  -9   4 115.521 384.207   3
   0   9   4 364.709 365.120   2
   0  -9   4 138.728 135.262   1
   0  -9   5 68813.7 4632.81   3
   0   9   5 62034.8 4169.39   2
   0   9   5 62794.0 4286.39   1
   0   9  -5 59754.1 3859.87   2
   0  -9   5 65032.2 2876.74   1
   0   9  -6 557.327 457.427   2
   0  -9   6 87.4090 353.427   3
   0   9   6 488.615 476.627   1
   0   9   6 751.120 594.787   2
   0  -9   7 79546.3 5600.48   3
   0   9   7 79036.9 4938.93   2
   0   9   7 83535.9 5322.09   1
   0   9   7 87526.6 6171.85   4
   0   9   8 11032.5 1673.04   2
   0   9   8 10498.3 2147.15   4
   0  -9   8 11377.8 2052.68   3
   0   9   8 9823.10 1804.76   1
   0   9   9 29600.8 3715.93   4
   0   9   9 21394.6 2739.32   1
   0  -9   9 19256.8 2848.76   3
   0   9   9 21848.0 2442.51   2
   0   9  10-420.729 418.603   2
   0  -9  10 589.663 708.958   3
   0   9  10 792.795 777.091   4
   0   9  10 1055.86 749.440   1
   0   9  11 24923.3 3106.53   1
   0   9  11 32851.3 3216.71   3
   0   9  11 25668.3 2811.75   2
   0   9  11 30297.5 4145.04   4
   0  -9  11 35772.7 4221.28   3
   0  -9  12 216.583 740.564   3
   0   9  12 461.956 671.867   4
   0   9  12 351.216 739.521   3
   0   9  13 11059.7 2643.22   4
   0  -9  13 13041.2 2789.40   3
   0   9  13 12868.2 2138.33   3
   0  -9  14 387.553 670.654   3
   0   9  14 1257.51 1038.95   4
   0   9  14 108.781 488.083   3
   0   9  15 8503.70 2505.15   4
   0  10   0 100197. 5471.81   2
   0  10   0 99567.6 5089.11   1
   0  10  -1 222.252 309.008   1
   0  10  -1 572.012 512.474   2
   0  10   1 215.805 328.311   1
   0  10   1 862.077 635.043   2
   0  10  -2 80228.7 4701.96   2
   0  10   2 75230.5 4742.86   2
   0  10   2 74589.7 4512.92   1
   0  10   3 824.551 644.537   2
   0  10  -3 1027.53 528.326   2
   0 -10   3 1171.55 418.223   1
   0  10   3 759.031 503.778   1
   0 -10   4 74960.6 3661.36   1
   0  10  -4 79741.4 4693.04   2
   0 -10   4 75835.1 4970.63   3
   0  10   4 73355.1 4775.91   1
   0  10   4 77923.1 4774.35   2
   0  10   5 16367.2 2165.17   1
   0  10  -5 18336.7 2063.21   2
   0  10   5 15221.3 2036.32   2
   0 -10   5 14250.3 1256.28   1
   0 -10   5 12930.1 2000.01   3
   0  10   6 55234.4 4009.00   2
   0 -10   6 52077.1 2325.51   1
   0  10   6 54928.6 4274.33   1
   0 -10   6 52215.9 4340.30   3
   0  10  -6 62944.1 4112.13   2
   0  10   7 6829.63 1741.35   4
   0 -10   7 5129.61 1409.27   3
   0  10   7 6619.02 1343.51   2
   0  10   7 3961.81 1173.42   1
   0  10   8 50385.5 3965.79   2
   0 -10   8 52718.9 4710.57   3
   0  10   8 48956.5 4295.45   1
   0  10   8 47650.4 4817.29   4
   0  10   9 3748.78 1057.58   2
   0  10   9 5314.26 1442.45   1
   0  10   9 4793.07 1632.43   4
   0 -10   9 5865.44 1644.02   3
   0  10  10 24460.9 3101.52   1
   0 -10  10 33007.1 3978.38   3
   0  10  10 28049.4 3909.61   4
   0  10  10 26495.8 2908.01   2
   0  10  11 2063.99 1170.80   4
   0  10  11 343.709 523.114   2
   0  10  11 1095.56 635.367   3
   0 -10  11 895.223 891.734   3
   0  10  12 25749.9 2979.31   3
   0  10  12 27552.9 4183.59   4
   0 -10  12 31968.6 4234.42   3
   0  10  13-257.113 667.365   4
   0 -10  13 1492.14 1099.02   3
   0  10  13 1149.13 677.667   3
   0  10  14 14028.7 3188.43   4
   0 -10  14 13011.8 2861.50   3
   0  10  15 2186.58 1385.22   4
   0  11   0 486.277 426.836   2
   0  11   0-4.21861 318.076   1
   0  11   1 35791.0 3182.72   2
   0  11   1 36448.4 3017.00   1
   0  11  -1 37461.2 3214.54   2
   0  11   2 7892.95 1385.38   1
   0  11  -2 8572.67 1518.53   2
   0  11   2 8015.78 1462.64   2
   0  11  -3 47177.7 3642.60   2
   0  11   3 47083.3 3714.22   2
   0  11   3 44635.8 3626.59   1
   0  11  -4 54.2920 351.183   2
   0  11   4 1011.42 718.207   2
   0 -11   4-121.894 196.488   1
   0  11   4 15.2039 394.550   1
   0  11   5 42319.5 3715.42   1
   0 -11   5 42948.2 3845.97   3
   0 -11   5 41639.9 2522.72   1
   0  11   5 42766.1 3602.74   2
   0  11  -5 39779.7 3362.49   2
   0 -11   6-357.228 679.672   3
   0  11  -6 141.113 384.731   2
   0  11   6-224.321 584.313   1
   0  11   6 171.287 339.837   2
   0  11   7 78937.4 5754.32   1
   0  11  -7 94989.7 5680.92   2
   0  11   7 97712.0 5919.29   2
   0 -11   7 95766.4 6460.92   3
   0  11   8 4334.81 1272.55   1
   0 -11   8 3690.85 1278.47   3
   0  11   8 4772.83 1237.97   2
   0  11   8 4802.37 1533.20   4
   0 -11   9 45053.9 4612.38   3
   0  11   9 40855.5 3781.43   2
   0  11   9 47760.5 5085.50   4
   0  11   9 40435.6 4111.75   1
   0  11  10 194.860 367.520   2
   0 -11  10-1625.55 998.024   3
   0  11  10-558.897 826.811   4
   0  11  10-251.221 530.918   1
   0 -11  11 29885.7 4036.15   3
   0  11  11 25156.8 3948.51   4
   0  11  11 20838.4 2745.07   2
   0  11  12 2398.91 1290.98   4
   0 -11  12 1042.06 682.922   3
   0  11  12 3017.47 1069.84   3
   0  11  13 28817.6 4585.01   4
   0 -11  13 31038.8 4461.48   3
   0  11  14-1372.57 1124.32   4
   0  11  15 14525.4 3411.05   4
   0  12   0 44101.9 3730.57   2
   0  12   0 37927.7 3095.22   1
   0  12   1 6043.86 1395.68   2
   0  12   1 6297.32 1267.09   1
   0  12  -1 6351.86 1392.19   2
   0  12  -2 34942.1 3244.76   2
   0  12   2 29164.0 2888.68   1
   0  12   2 31041.0 3122.32   2
   0  12  -3 5239.27 1293.23   2
   0  12   3 6466.56 1377.00   2
   0  12   3 4556.59 1210.09   1
   0  12   4 53194.6 4329.50   1
   0  12   4 57980.2 4531.84   2
   0 -12   5 512.890 666.991   3
   0  12   5 49.5600 566.767   1
   0  12  -5 585.248 538.497   2
   0  12   5 943.790 652.025   2
   0  12   6 43287.0 3838.83   2
   0  12   6 38157.5 3844.54   1
   0  12  -6 41994.7 3691.02   2
   0 -12   6 40643.5 4022.55   3
   0 -12   7-732.525 650.648   3
   0  12  -7 230.556 493.829   2
   0  12   7-409.702 639.129   1
   0  12   7 873.458 614.641   2
   0  12   8 40601.0 3872.73   2
   0 -12   8 41537.0 4373.30   3
   0  12   8 45801.1 4963.98   4
   0  12   8 35598.7 3856.88   1
   0  12   9 4279.26 1609.37   4
   0  12   9 2964.34 1103.31   2
   0 -12   9 3315.80 1349.30   3
   0  12   9 2386.27 1083.34   1
   0  12  10 43884.9 4485.90   1
   0  12  10 50159.9 5604.16   4
   0  12  10 44339.1 4213.21   2
   0 -12  10 49183.4 5166.92   3
   0  12  11-669.405 615.507   2
   0  12  11-577.191 792.280   4
   0 -12  11-623.083 788.331   3
   0 -12  12 27709.9 4114.28   3
   0  12  12 32419.3 4768.21   4
   0  12  13 1816.67 1311.12   4
   0 -12  13 3383.38 1556.03   3
   0  12  14 10725.3 2930.44   4
   0  13   0 531.352 659.764   2
   0  13  -1 60342.6 4593.07   2
   0  13   1 63721.6 4792.94   2
   0  13   1 52834.2 4066.93   1
   0  13  -2 490.875 379.353   2
   0  13   2 134.989 353.529   2
   0  13   2 200.178 404.786   1
   0  13  -3 35591.2 3477.72   2
   0  13   3 37265.8 3633.33   2
   0  13   3 29022.8 3138.20   1
   0  13   4 1684.73 782.168   1
   0  13   4 4092.64 1178.55   2
   0  13  -4 3205.54 1056.02   2
   0  13   5 28123.2 3273.04   1
   0  13  -5 31723.4 3254.33   2
   0  13   5 34188.8 3571.31   2
   0  13   6 2110.52 860.961   1
   0  13  -6 2579.18 916.495   2
   0 -13   6 1943.20 867.382   3
   0  13   6 3254.15 1130.26   2
   0  13   7 50400.1 4711.74   1
   0  13  -7 65764.3 4980.10   2
   0  13   7 63500.9 5071.10   2
   0 -13   7 57955.8 5227.87   3
   0  13   8 3097.90 1508.25   4
   0  13   8 2970.84 1221.05   1
   0  13   8 3387.72 1149.58   2
   0 -13   8 1771.85 1107.32   3
   0 -13   9 22461.8 3415.98   3
   0  13   9 24270.3 3852.97   4
   0  13   9 27489.8 3341.22   2
   0  13   9 19943.1 3048.11   1
   0  13  10 646.384 1047.35   4
   0  13  10 791.168 690.708   2
   0 -13  10-372.426 729.760   3
   0 -13  11 14554.1 2933.81   3
   0  13  11 16525.6 3440.17   4
   0  13  11 13829.9 2427.25   2
   0 -13  12-354.333 1063.35   3
   0  13  12 713.601 910.177   4
   0  13  13 22901.4 4209.89   4
   0 -13  13 16878.9 3434.38   3
   0  13  14 52.4765 406.178   4
   0  14   0 10474.5 1973.16   2
   0  14  -1 19087.7 2632.11   2
   0  14   1 16675.4 2499.13   2
   0  14   2 94168.5 6266.79   2
   0  14  -2 89711.1 6080.77   2
   0  14   2 79521.7 5489.26   1
   0  14   3 3467.35 1205.53   2
   0  14  -3 5030.40 1352.99   2
   0  14   3 1924.14 741.983   1
   0  14  -4 64131.9 4963.10   2
   0  14   4 53698.1 4718.68   2
   0  14   4 58662.1 4821.42   1
   0  14   5-165.843 687.182   1
   0  14   5 145.049 482.167   2
   0  14  -5 320.939 478.531   2
   0  14   6 27704.9 3414.36   1
   0  14  -6 26972.6 3183.84   2
   0  14   6 27694.1 3359.09   2
   0  14   7 2661.31 1023.78   2
   0  14   7 3431.24 1249.27   1
   0  14  -7 4409.73 1305.99   2
   0  14   8 15448.2 2656.99   1
   0  14   8 18487.9 2794.25   2
   0 -14   8 16839.2 2914.70   3
   0  14   9-598.578 794.332   4
   0 -14   9 1587.56 1040.43   3
   0  14   9 906.793 706.632   2
   0  14  10 17587.5 3491.47   4
   0  14  10 16586.8 2770.98   2
   0 -14  10 21780.4 3540.74   3
   0  14  11 417.586 981.606   4
   0  14  11 1324.15 815.629   2
   0 -14  11 47.7615 741.542   3
   0  14  12 14900.9 3378.84   4
   0 -14  12 10974.6 2733.87   3
   0  14  13 395.477 749.449   4
   0  14  14 3904.21 1914.85   4
   0  15   0 713.239 620.987   2
   0  15   1 106069. 7142.26   2
   0  15  -1 103738. 6958.46   2
   0  15  -2 1948.41 892.536   2
   0  15   2 3672.96 1303.47   2
   0  15   3 26251.4 3375.84   2
   0  15  -3 27249.9 3317.89   2
   0  15   4 1048.16 758.056   2
   0  15   4-207.576 631.233   1
   0  15  -4 761.619 654.096   2
   0  15  -5 33755.5 3683.99   2
   0  15   5 23865.6 3278.58   2
   0  15   5 26322.7 3375.91   1
   0  15   6 439.378 696.461   2
   0  15  -6 1119.39 741.747   2
   0  15   6 507.169 499.706   1
   0  15  -7 27548.8 3418.72   2
   0  15   7 29818.0 3724.78   2
   0  15   8 38.4802 418.824   2
   0  15   9 11076.2 2750.07   4
   0  15   9 11140.9 2352.20   2
   0 -15   9 10617.4 2493.52   3
   0 -15  10-1637.31 1065.34   3
   0  15  10 907.338 768.389   2
   0  15  10 1647.76 1301.47   4
   0  15  11 3588.65 1748.09   4
   0  15  11 2512.22 1188.26   2
   0 -15  11 5013.59 1829.18   3
   0  15  12-201.950 580.256   4
   0  15  13 10663.3 3006.68   4
   0  16   0 31986.4 3851.40   2
   0  16   1 1836.97 998.333   2
   0  16  -1 3056.87 1232.25   2
   0  16  -2 54026.5 4969.43   2
   0  16   2 51444.6 4994.43   2
   0  16  -3 2010.66 1008.93   2
   0  16   3 3416.27 1337.91   2
   0  16  -4 50883.1 4834.86   2
   0  16   4 50518.3 5017.00   2
   0  16   5 6653.76 1816.22   2
   0  16  -5 4265.72 1415.68   2
   0  16   6 15063.1 2719.39   2
   0  16  -6 19703.3 2967.70   2
   0  16   7-388.920 595.733   2
   0  16  -7-1136.71 808.741   2
   0  16   8 8731.16 2135.43   2
   0  16   9-245.738 541.120   4
   0  16   9-631.813 725.459   2
   0  16  10 15321.9 3463.48   4
   0  16  10 12036.0 2569.92   2
   0 -16  11-754.309 971.332   3
   0  16  11-1686.26 1286.93   4
   0  16  11 669.039 789.284   2
   0  16  12 9301.64 2857.51   4
   0  17   0 123.079 569.674   2
   0  17  -1 42367.9 4620.86   2
   0  17   1 52402.1 5181.68   2
   0  17  -2 2143.20 1066.76   2
   0  17   2 3225.84 1295.58   2
   0  17   3 19284.9 3129.18   2
   0  17  -3 21658.9 3216.96   2
   0  17  -4 1022.39 825.511   2
   0  17   4 4448.20 1550.10   2
   0  17  -5 20813.0 3199.68   2
   0  17   5 19847.7 3241.69   2
   0  17  -6 426.637 582.180   2
   0  17   6 334.933 705.063   2
   0  17   7 28681.2 3982.84   2
   0  17   8-664.549 808.854   2
   0  17   9 10216.9 2405.73   2
   0  17   9 12729.3 3116.85   4
   0  17  10-417.143 694.170   2
   0  17  10 2209.05 1502.75   4
   0  17  11 2746.29 1389.10   2
   0  17  11 3291.56 1583.69   4
   0  18   0 17224.5 3008.55   2
   0  18   1 2437.84 1189.79   2
   0  18  -1 711.779 709.462   2
   0  18  -2 15027.4 2851.93   2
   0  18   2 20407.5 3392.95   2
   0  18  -3-822.909 791.449   2
   0  18   3 316.204 707.807   2
   0  18  -4 25545.9 3714.10   2
   0  18   4 26035.7 3910.55   2
   0  18  -5 4567.54 1616.61   2
   0  18   5 3947.04 1492.49   2
   0  18   6 9976.65 2479.07   2
   0  18  -6 12674.2 2595.58   2
   0  18   7-509.125 714.984   2
   0  18   8 10218.1 2509.31   2
   0  18   9 711.474 945.024   4
   0  18   9 690.180 748.220   2
   0  18  10 21754.9 3764.23   2
   0  18  10 24015.4 4653.80   4
   0  19   0 466.777 624.755   2
   0  19  -1 14390.2 2920.03   2
   0  19   1 15179.6 2961.15   2
   0  19  -2-1893.56 1100.87   2
   0  19   2 549.327 820.253   2
   0  19  -3 1780.79 1137.55   2
   0  19   3 6622.63 1995.11   2
   0  19   4 1147.85 946.102   2
   0  19  -4-502.059 743.452   2
   0  19  -5 16115.3 2990.44   2
   0  19   5 13397.4 2869.09   2
   0  19  -6 535.243 748.959   2
   0  19   6 514.417 720.897   2
   0  19   7 26783.3 4198.53   2
   0  19   8 2147.15 1346.84   2
   0  19   9 14502.7 3532.28   4
   0  20   0 2088.17 1381.98   2
   0  20  -1 417.837 640.366   2
   0  20   1 1768.66 1150.98   2
   0  20   2 19905.4 3624.80   2
   0  20  -2 15286.5 3157.90   2
   0  20   3 814.978 834.051   2
   0  20  -3-126.380 588.797   2
   0  20   4 21106.1 3782.31   2
   0  20  -4 23183.8 3803.93   2
   0  20   5 1016.65 1191.86   2
   0  20  -5 928.344 878.614   2
   0  20   6 6298.17 2148.58   2
   0  21   0 455.730 745.209   2
   0  21   1 16838.5 3501.86   2
   0  21  -1 17666.6 3525.29   2
   0  21  -2 2495.77 1296.70   2
   0  21   2 2734.95 1403.31   2
   0  21  -3 7658.92 2291.42   2
   0  21  -4 253.982 625.387   2
   0  21  -5 8098.52 2242.36   2
  -1   0  17 8123.83 2256.80   3
  -1   0  16-984.739 970.375   4
  -1   0  16-1244.53 939.681   3
  -1   0  15 8527.97 2102.95   3
  -1   0  15 7648.25 2314.33   4
  -1   0  14-393.610 610.003   3
  -1   0  14 434.664 723.050   4
  -1   0  13 27160.4 3577.52   3
  -1   0  13 25733.0 3941.34   4
  -1   0  12 630.479 626.788   3
  -1   0  12 468.183 658.101   4
  -1   0  11 23238.1 2970.23   3
  -1   0  11 20954.0 3269.24   4
  -1   0  10-13.5713 378.351   3
  -1   0  10-133.578 718.851   4
  -1   0   9 29268.4 3030.24   3
   1   0  -9 29393.5 1286.35   2
  -1   0   9 26023.9 3345.34   4
  -1   0   8 130.352 492.988   4
  -1   0   8 219.987 510.454   3
   1   0  -8 43.3194 90.4994   2
  -1   0   7 117797. 6735.57   4
   1   0  -7 93907.6 3960.23   2
   1   0  -7 96884.8 4407.12   1
  -1   0   7 112105. 5616.92   3
  -1   0   6-889.055 590.231   4
  -1   0   6 314.395 315.409   3
  -1   0   5 168228. 8081.24   4
  -1   0   5 178270. 7144.55   3
   1   0  -5 178812. 6806.68   3
   1   0  -4 133.289 150.728   3
  -1   0   4 27.5132 194.279   3
   1   0  -4 361.294 409.245   4
  -1   0   4 31.5017 291.037   4
   1   0  -3 70898.5 3985.93   4
   1   0  -3 66994.8 3057.19   3
  -1   0   3 63665.9 3774.30   4
   1   0  -2-95.8873 315.026   4
  -1   0   2-52.8546 235.501   4
  -1   0   1 334359. 11214.3   4
   1   0  -1 346903. 11319.9   4
  -1   0   0 129.395 154.628   4
   1   0   0 66.8378 105.715   4
   1   0   1 245479. 9540.90   1
   1   0   2-188.938 305.995   1
  -1   0  -2 125.697 189.966   1
   1   0   3 264271. 10247.2   1
  -1   0  -3 272716. 10809.9   1
  -1   0  -3 266687. 8293.61   4
  -1   0  -4-79.9406 288.828   1
  -1   0  -4-155.215 147.376   4
  -1   0  -5 121683. 5040.26   4
   1   0   5 119776. 4994.07   4
   1   0   5 116563. 5635.20   1
   1   0   5 116379. 5669.25   2
  -1   0  -5 120535. 6625.43   1
  -1   0  -6-316.895 262.126   4
   1   0   6-315.007 277.967   4
   1   0   6-333.374 318.645   2
   1   0   7 46025.2 3013.87   1
   1   0   7 46555.7 3150.38   2
  -1   0  -7 52313.3 3432.29   4
   1   0   7 44596.0 3164.04   4
   1   0   8-277.400 340.871   1
   1   0   8-52.0713 366.007   4
   1   0   8-250.309 494.392   3
   1   0   8-723.674 380.071   2
   1   0   9 46563.3 3696.28   4
   1   0   9 46519.5 2867.80   2
   1   0   9 47029.5 2998.15   1
   1   0   9 44200.1 3838.03   3
   1   0  10 93.4737 393.878   3
   1   0  10 53.7980 144.581   2
   1   0  10-749.485 557.970   4
   1   0  10-18.7639 191.484   1
   1   0  11 15594.3 1772.82   1
   1   0  11 16746.2 2524.77   3
   1   0  12 312.977 358.010   1
   1   0  12 903.773 656.498   3
   1   0  13 12124.9 2329.83   3
   1   0  14 308.964 800.782   3
   1   0  15 15724.8 2821.34   3
  -1   1  17 272.087 706.958   3
  -1  -1  17-142.226 450.886   3
  -1   1  16 16913.3 3055.11   3
  -1   1  16 15050.6 3401.84   4
  -1  -1  16 18528.5 3318.41   3
  -1  -1  16 18582.9 3746.37   4
  -1  -1  15-1185.65 966.172   3
  -1   1  15-911.044 994.578   4
  -1  -1  15-653.288 808.517   4
  -1   1  15 1475.88 985.547   3
  -1   1  14 12807.7 2456.39   3
  -1  -1  14 16039.6 2874.16   3
  -1   1  14 12834.7 2872.03   4
  -1  -1  14 13012.7 2896.17   4
  -1  -1  13 1982.63 1028.45   3
  -1   1  13 2294.79 1032.79   3
  -1  -1  13-184.271 878.213   4
  -1   1  13 2034.97 1153.21   4
  -1   1  12 14401.5 2384.60   3
  -1  -1  12 10127.6 2141.41   3
  -1   1  12 13618.0 2698.09   4
  -1  -1  12 8386.40 2185.82   4
  -1  -1  11 137.614 470.729   3
  -1   1  11 293.433 536.539   3
  -1  -1  11 686.418 609.267   4
  -1   1  11-274.777 1075.00   4
  -1   1  10 43432.1 4566.78   4
  -1  -1  10 36706.5 4197.65   4
  -1  -1  10 42800.1 4009.14   3
  -1   1  10 41397.3 3731.90   3
  -1  -1   9 641.352 645.992   3
  -1  -1   9 367.328 417.843   4
  -1   1   9-371.996 554.158   4
   1  -1  -9 589.644 212.154   2
  -1   1   9 348.507 416.697   3
  -1  -1   8 81189.1 5160.36   3
   1   1  -8 74463.2 2928.96   2
   1   1  -8 93445.3 3893.30   1
   1   1  -8 78980.1 3257.05   2
  -1  -1   8 85157.1 5999.91   4
   1  -1  -8 85319.2 3281.21   2
  -1   1   8 91024.6 5130.78   3
  -1   1   8 82312.7 5944.59   4
  -1  -1   7 4360.00 1187.45   4
  -1   1   7 4017.79 917.161   3
  -1   1   7 4354.23 1221.87   4
  -1  -1   7 5682.18 1188.83   3
   1   1  -7 4517.67 704.371   1
   1  -1  -7 4198.69 622.068   2
   1   1  -7 3565.85 592.622   2
  -1  -1   6 52145.6 4101.97   4
  -1   1   6 46975.4 3938.14   4
  -1  -1   6 52863.6 3523.69   3
   1  -1  -6 53103.4 3064.70   3
  -1   1   6 51848.6 3250.10   3
   1  -1  -6 46387.3 2647.52   2
  -1   1   5-84.2397 206.973   3
  -1  -1   5-15.0375 294.533   3
  -1   1   5 55.0923 454.525   4
   1   1  -5 238.567 225.356   3
  -1  -1   5 174.796 323.733   4
   1  -1  -5 258.298 203.970   3
  -1   1   4 55144.0 2866.27   3
  -1  -1   4 56008.9 3762.37   4
  -1  -1   4 57338.3 3243.41   3
   1  -1  -4 58342.3 2743.37   3
   1   1  -4 56894.0 3010.10   3
  -1   1   4 58674.8 3844.26   4
   1   1  -3-33.8647 125.836   3
  -1   1   3 89.5556 268.432   4
   1  -1  -3 78.9803 219.840   4
   1   1  -3-73.1572 319.769   4
  -1  -1   3-26.0760 274.494   4
   1  -1  -3 32.2176 118.635   3
   1   1  -2 999999. 29748.3   4
   1  -1  -2 972350. 29559.1   4
  -1  -1   2 966751. 29497.6   4
   1  -1  -2 933815. 28285.3   3
  -1   1   2 952496. 29571.6   4
   1   1  -1 6872.44 883.322   4
  -1  -1   1 5082.82 742.096   4
  -1   1   1 7697.85 920.225   4
   1  -1  -1 8028.94 918.306   4
   1   1   0 126511. 4584.80   4
  -1   1   0 124033. 4583.39   4
  -1  -1   0 122548. 4500.08   4
   1   1   0 121973. 5732.25   1
   1   1   1 1120.32 485.107   1
  -1  -1  -1 1408.95 535.022   1
  -1  -1  -2 78817.1 4714.56   1
   1  -1   2 83383.2 4507.66   1
   1   1   2 79551.7 4390.14   1
  -1   1  -3 2183.29 376.055   4
   1  -1   3 2192.62 682.261   1
   1   1   3 1728.48 266.556   4
   1   1   3 1459.77 499.578   1
   1   1   3 2337.09 687.892   2
  -1  -1  -3 1903.04 783.221   1
  -1   1  -4 274543. 9289.19   4
   1   1   4 276665. 9058.32   4
   1  -1   4 276042. 10499.4   1
  -1  -1  -4 283454. 11653.1   1
   1   1   4 276404. 10517.8   1
  -1   1  -4 269843. 10997.5   1
   1   1   4 269161. 10461.1   2
  -1  -1  -5 19430.6 1588.71   4
  -1   1  -5 20638.2 2301.97   1
   1   1   5 19554.6 1942.88   1
   1   1   5 21223.0 1646.37   4
  -1   1  -5 20165.9 1740.35   4
   1  -1   5 19362.3 1926.67   1
   1   1   5 22179.5 2074.86   2
  -1   1  -6 79547.9 5183.11   1
   1   1   6 84082.9 4527.17   2
   1  -1   6 84089.9 4412.65   1
   1   1   6 89051.4 4549.05   1
  -1  -1  -6 82875.3 4221.34   4
  -1   1  -6 82451.0 4408.54   4
   1   1   6 81774.1 4186.10   4
   1  -1   7 648.015 396.028   2
   1   1   7 1185.05 520.735   2
  -1   1  -7 549.282 286.743   4
   1   1   7 870.391 444.334   4
   1  -1   7 996.904 431.998   1
  -1  -1  -7 1061.53 426.724   4
   1  -1   7 1260.79 630.883   3
   1   1   7 502.973 368.074   1
   1   1   8 27333.7 2216.22   2
   1   1   8 30183.1 2683.41   4
   1  -1   8 31588.2 3064.33   3
   1   1   8 30819.8 2368.06   1
   1  -1   8 28620.3 2210.64   1
   1  -1   8 28358.1 2355.79   2
   1  -1   9 344.701 261.516   2
   1  -1   9-18.7504 485.512   3
   1   1   9 791.957 444.567   1
   1  -1   9 479.047 314.108   1
   1   1   9 5.27224 396.980   4
   1   1   9 355.762 255.614   2
   1   1   9 113.176 364.627   3
   1   1  10 19456.1 1574.75   2
   1   1  10 19703.5 1995.60   1
   1  -1  10 20789.7 1862.55   1
   1  -1  10 21373.1 1654.13   2
   1   1  10 17872.8 2312.85   4
   1   1  10 16527.7 2381.80   3
   1  -1  10 22618.7 2765.32   3
   1   1  11-158.460 346.328   4
   1   1  11 603.939 458.618   3
   1  -1  11-366.557 609.427   3
   1   1  11 74.1285 280.536   1
   1  -1  11 769.652 397.529   1
   1   1  12 44731.1 4296.26   3
   1  -1  12 40294.0 4139.56   3
   1   1  12 38781.4 3955.92   4
   1   1  12 51175.7 3458.05   1
   1  -1  13 391.904 527.560   3
   1   1  13 445.614 585.650   3
   1  -1  14 16702.7 2843.52   3
   1   1  14 18846.2 2952.05   3
   1   1  15 966.345 812.230   3
   1  -1  15 2174.89 1099.95   3
  -1   2  17 7169.87 2017.75   3
  -1  -2  16 1234.33 1021.29   3
  -1   2  16 1902.23 1078.10   3
  -1   2  16-210.250 783.958   4
  -1  -2  15 11877.3 2600.74   3
  -1   2  15 9624.81 2207.11   3
  -1   2  15 12846.6 3008.08   4
  -1   2  14 1568.52 1062.77   3
  -1   2  14 743.149 872.956   4
  -1  -2  14 216.602 634.282   4
  -1  -2  14 1537.26 1119.85   3
  -1  -2  13 46496.6 4837.10   3
  -1   2  13 38381.3 4875.95   4
  -1  -2  13 38342.7 4856.31   4
  -1   2  13 41187.8 4217.20   3
  -1  -2  12 183.724 593.028   3
  -1  -2  12-996.418 925.013   4
  -1   2  12 520.803 731.880   4
  -1   2  12 125.527 456.008   3
  -1  -2  11 40326.1 4176.93   3
  -1   2  11 31433.6 4153.23   4
  -1   2  11 43426.1 3925.90   3
  -1  -2  11 39464.4 4587.96   4
  -1   2  10 135.940 569.303   4
  -1  -2  10 1166.64 787.201   3
  -1  -2  10-3.13501 792.761   4
  -1   2  10 371.723 375.398   3
   1   2  -9 42643.8 2449.01   1
   1  -2  -9 47108.8 2242.34   2
  -1   2   9 42089.1 3485.74   3
  -1  -2   9 41424.5 4267.81   4
  -1  -2   9 38443.5 3703.41   3
  -1   2   9 42506.9 4357.98   4
  -1  -2   8 9698.65 1681.50   3
   1  -2  -8 12662.9 1052.48   2
   1   2  -8 11511.1 1067.90   1
   1   2  -8 9826.59 691.432   2
  -1  -2   8 10841.1 2027.34   4
  -1   2   8 10555.5 2008.59   4
  -1   2   8 11320.6 1614.79   3
   1  -2  -7 103807. 4345.40   2
   1   2  -7 108721. 4253.01   2
  -1  -2   7 110967. 6740.34   4
  -1   2   7 116051. 5537.96   3
  -1   2   7 105981. 6681.27   4
  -1  -2   7 117224. 6233.14   3
   1   2  -6 3002.50 569.118   2
  -1   2   6 5712.90 1315.18   4
  -1  -2   6 4630.83 1176.26   4
   1  -2  -6 3747.15 655.924   2
   1  -2  -6 4917.68 819.384   3
  -1  -2   6 2953.18 834.855   3
  -1   2   6 3628.07 760.521   3
  -1  -2   5 84461.7 4527.31   3
   1  -2  -5 73712.8 3869.39   2
   1   2  -5 79164.6 3868.35   2
  -1   2   5 85099.5 5174.64   4
   1  -2  -5 83031.5 3731.43   3
  -1   2   5 85253.4 3914.96   3
  -1  -2   5 85167.0 5150.00   4
  -1   2   4 27319.4 2573.16   4
   1   2  -4 25864.3 2041.93   2
   1   2  -4 29370.0 2109.07   3
  -1   2   4 28338.3 1762.90   3
   1  -2  -4 30347.8 1692.39   3
  -1  -2   4 26796.9 2187.06   3
  -1  -2   4 24333.4 2408.07   4
   1  -2  -3 168131. 7202.27   4
   1   2  -3 179556. 7520.47   4
   1   2  -3 167797. 6515.10   3
  -1  -2   3 168697. 7254.34   4
   1   2  -3 164035. 6790.07   2
  -1   2   3 167012. 7253.40   4
   1  -2  -3 165258. 5568.79   3
  -1   2   2 28630.2 2226.93   4
   1   2  -2 30928.2 2355.92   2
   1   2  -2 35365.6 2468.00   4
   1  -2  -2 31019.5 1438.21   3
  -1  -2   2 31360.4 2293.18   4
   1   2  -1 141546. 5566.74   4
   1   2  -1 134858. 6010.31   2
  -1   2   1 128539. 5403.03   4
   1   2  -1 137580. 6071.79   1
   1   2   0 67440.1 3895.34   2
  -1  -2   0 70615.9 4152.56   1
   1   2   0 69583.3 3093.46   4
   1   2   0 69568.7 3945.01   1
  -1  -2  -1 139717. 6680.67   1
   1   2   1 136162. 6180.07   2
   1   2   1 134569. 6177.06   1
  -1  -2  -2 2753.75 832.641   1
   1   2   2 3013.67 747.878   2
   1   2   2 2863.10 742.233   1
   1   2   3 181349. 7754.07   1
   1   2   3 191003. 6180.58   4
   1  -2   3 174907. 7771.58   1
  -1  -2  -3 192622. 8796.13   1
   1   2   3 174335. 7680.85   2
   1   2   4 29192.6 2432.50   2
  -1   2  -4 27989.8 1991.17   4
   1  -2   4 25985.7 2305.85   1
   1   2   4 27611.8 1719.87   4
   1   2   4 30582.7 2479.04   1
   1   2   5 69426.3 4045.63   2
  -1   2  -5 63304.4 3636.71   4
   1   2   5 69275.4 4014.71   1
   1  -2   5 66937.4 3908.53   1
   1  -2   5 68276.9 4096.22   3
   1   2   5 70080.0 3456.34   4
   1  -2   6 453.518 339.784   1
  -1   2  -6 644.069 416.128   1
   1  -2   6 260.640 304.435   3
  -1   2  -6 42.4750 177.314   4
   1   2   6 1168.87 457.490   4
   1   2   6 662.218 378.386   1
   1   2   6 1013.37 429.701   2
  -1   2  -7 79187.7 5099.78   1
   1   2   7 78526.5 4243.20   2
   1  -2   7 79008.7 4148.99   1
   1  -2   7 83302.4 5033.39   3
   1   2   7 80134.5 4332.60   1
   1   2   7 80849.9 4469.75   4
   1  -2   8 6753.70 1119.38   2
   1   2   8 8975.17 1447.01   4
   1   2   8 8361.91 1227.62   1
   1  -2   8 7079.66 1025.07   1
   1   2   8 8249.62 1151.19   2
   1  -2   8 7876.40 1507.39   3
   1  -2   9 113208. 4997.83   1
   1  -2   9 118887. 5375.88   2
   1  -2   9 103505. 6447.58   3
   1   2   9 119037. 5670.34   1
   1   2   9 112394. 5034.43   2
   1   2   9 103155. 6054.94   4
   1  -2  10 2764.62 625.138   1
   1   2  10 1677.56 784.025   3
   1   2  10 1661.32 462.180   2
   1   2  10 3524.08 906.706   1
   1   2  10 1806.47 756.928   4
   1  -2  10 2006.45 514.483   2
   1  -2  10 802.191 534.712   3
   1   2  11 22517.5 2300.01   1
   1  -2  11 21140.2 1891.99   1
   1   2  11 19222.3 2558.87   4
   1   2  11 15753.3 2440.03   3
   1  -2  11 19113.0 2687.95   3
   1   2  12 1420.48 624.225   1
   1   2  12 382.378 422.508   4
   1   2  12 553.609 741.783   3
   1  -2  12 626.596 758.792   3
   1   2  13 20911.6 3018.58   3
   1  -2  13 19194.8 2927.60   3
   1   2  13 19173.4 2808.40   4
   1   2  13 20431.6 2228.00   1
   1  -2  14 713.297 740.761   3
   1   2  14 1057.42 813.380   3
   1  -2  15 20532.7 3292.36   3
   1   2  15 21598.2 3268.74   3
  -1   3  16 18133.5 3689.87   4
  -1   3  16 25045.8 3604.50   3
  -1  -3  16 21098.1 3695.12   3
  -1   3  15 506.831 567.114   3
  -1  -3  15 1405.77 1024.44   3
  -1   3  15 490.173 869.360   4
  -1   3  14 17991.9 2797.74   3
  -1  -3  14 13681.8 2795.35   3
  -1   3  14 13351.3 2972.09   4
  -1   3  13 94.9538 455.690   3
  -1   3  13 54.6977 982.717   4
  -1  -3  13 565.961 700.271   3
  -1   3  12 31517.9 4218.66   4
  -1  -3  12 28898.5 3700.27   3
  -1  -3  12 26834.7 3950.23   4
  -1   3  12 28420.4 3269.83   3
  -1   3  11 891.286 659.595   3
  -1  -3  11 3088.33 1153.88   3
  -1  -3  11 910.865 893.748   4
  -1   3  11 2102.27 1140.65   4
  -1  -3  10 86276.7 6768.80   4
  -1   3  10 85133.7 6744.20   4
  -1   3  10 88983.4 5558.92   3
  -1  -3  10 95147.8 6442.07   3
  -1   3   9 819.046 493.707   3
   1   3  -9 754.017 257.826   1
  -1  -3   9 325.103 506.526   3
  -1   3   9 338.889 713.860   4
   1  -3  -9 1067.44 362.213   2
  -1  -3   9 1440.24 924.080   4
  -1  -3   8 129042. 7928.57   4
   1   3  -8 126798. 4850.05   1
   1  -3  -8 145046. 5260.62   2
  -1   3   8 129646. 6397.48   3
   1   3  -8 132371. 4284.31   2
  -1   3   8 112404. 7493.28   4
  -1  -3   8 129451. 7265.08   3
  -1   3   7 5166.30 978.491   3
   1  -3  -7 6994.59 851.540   2
  -1   3   7 5330.86 1363.15   4
   1   3  -7 4974.74 594.933   2
  -1  -3   7 6278.77 1490.98   4
  -1  -3   7 5720.21 1275.40   3
   1  -3  -6 47504.0 2726.75   2
  -1  -3   6 51539.2 3715.95   3
   1   3  -6 49609.6 2550.41   2
  -1   3   6 47377.9 2934.04   3
  -1  -3   6 48216.8 4043.49   4
  -1   3   6 48894.3 4078.81   4
  -1   3   5-453.531 469.202   4
  -1  -3   5 109.490 268.419   3
  -1   3   5 48.6338 153.954   3
   1   3  -5-223.999 220.185   2
  -1  -3   5-1.81759 360.124   4
   1  -3  -5 108.982 165.116   2
   1  -3  -4 95497.9 4789.51   2
   1   3  -4 102066. 4699.36   2
   1  -3  -4 109082. 4016.81   3
  -1   3   4 101947. 5612.50   4
  -1  -3   4 105185. 5230.71   3
  -1   3   4 106041. 4072.82   3
  -1  -3   4 107277. 5750.80   4
   1   3  -3 1264.45 416.589   1
   1   3  -3 625.122 337.884   3
  -1   3   3 390.398 328.912   4
   1   3  -3 532.092 347.296   4
   1  -3  -3 790.847 179.323   3
   1   3  -3 1035.70 474.642   2
   1   3  -2 74288.0 4007.25   4
   1   3  -2 77487.6 4049.92   2
  -1   3   2 66709.2 3807.53   4
   1   3  -2 74539.1 3979.81   1
  -1  -3   1 21485.9 2084.06   1
   1   3  -1 19976.1 1897.52   2
   1   3  -1 17755.9 1794.40   1
  -1  -3   1 23450.1 2246.23   2
   1   3  -1 19333.7 1656.54   4
   1   3   0 115590. 5568.01   2
  -1  -3   0 115481. 5915.33   1
  -1  -3   0 122278. 6152.45   2
   1   3   0 120737. 5585.92   1
   1   3   1 649.480 355.889   1
  -1  -3  -1 902.013 535.658   2
   1   3   1 484.169 408.769   2
  -1  -3  -1 210.840 303.359   1
  -1  -3  -2 29359.1 2761.25   2
   1   3   2 30675.4 2515.21   2
   1   3   2 27963.1 2388.70   1
  -1  -3  -2 30373.0 2901.75   1
  -1  -3  -3 6262.27 1286.42   2
   1  -3   3 6321.39 962.799   3
   1   3   3 6804.94 1164.79   1
   1   3   3 5288.11 1002.66   2
   1   3   4 154188. 6898.49   2
   1  -3   4 159773. 6735.54   3
  -1  -3  -4 158161. 7723.28   2
   1   3   4 151034. 6865.19   1
   1  -3   4 156145. 6991.73   1
   1   3   4 153575. 5916.48   4
  -1   3  -5 5434.70 961.847   4
   1   3   5 3609.30 820.630   1
   1   3   5 4007.55 740.369   4
   1  -3   5 3919.10 915.286   3
   1  -3   5 5168.68 1005.73   1
   1   3   5 4901.25 965.837   2
   1   3   6 220404. 8742.29   1
   1   3   6 207760. 8570.47   2
   1   3   6 215881. 8523.69   4
  -1   3  -6 215509. 9017.67   4
   1  -3   6 211390. 8467.07   1
   1  -3   6 218467. 9230.83   3
   1   3   7 6.22596 309.812   1
   1   3   7-228.013 346.788   2
   1  -3   7-292.418 408.631   3
   1   3   7 254.693 293.519   4
   1  -3   7 64.6609 202.731   1
   1   3   8 37044.2 2581.64   2
   1   3   8 41120.9 2951.01   1
   1  -3   8 40403.9 3501.06   3
   1   3   8 33653.8 2960.23   4
   1  -3   8 34338.2 2373.41   1
   1   3   9 2186.48 737.944   1
   1  -3   9 1286.82 463.656   2
   1   3   9 1998.98 563.489   2
   1  -3   9 1882.78 494.850   1
   1   3   9 1630.18 669.324   4
   1  -3   9 2462.54 942.906   3
   1   3  10 62291.1 4100.59   1
   1   3  10 64500.6 3307.93   2
   1   3  10 55215.7 4391.62   4
   1  -3  10 63288.9 3258.57   1
   1  -3  10 58665.6 3336.56   2
   1  -3  10 57249.4 4712.77   3
   1   3  11-386.377 505.933   4
   1   3  11 1532.44 710.953   1
   1   3  11 1254.84 841.107   3
   1  -3  11-207.393 538.486   3
   1   3  12 77715.2 4711.16   1
   1   3  12 56094.6 4888.73   4
   1  -3  12 67727.9 5557.68   3
   1   3  12 67903.9 5428.31   3
   1  -3  13 2123.34 936.398   3
   1   3  13 884.922 686.641   3
   1   3  13 1016.14 717.987   4
   1   3  13 1331.07 655.774   1
   1  -3  14 21801.1 3294.12   3
   1   3  14 24197.5 3363.70   3
   1  -3  15 1425.63 964.285   3
   1   3  15-547.132 628.360   3
  -1  -4  16-289.071 738.403   3
  -1   4  16-1286.63 1091.45   4
  -1  -4  15 16336.3 3199.32   3
  -1   4  15 15286.3 3409.92   4
  -1   4  15 13796.4 2566.60   3
  -1   4  14 1818.33 999.668   3
  -1  -4  14 1111.95 1011.17   3
  -1   4  14 1642.46 1171.37   4
  -1   4  13 28395.1 4272.41   4
  -1  -4  13 33453.2 4285.84   3
  -1   4  13 33610.0 3648.65   3
  -1  -4  12-138.194 459.571   3
  -1   4  12-229.219 670.914   4
  -1   4  12-146.457 430.084   3
  -1   4  11 67784.2 6302.44   4
  -1   4  11 76807.3 5212.64   3
  -1  -4  11 67383.4 5796.55   3
  -1   4  10 1177.23 676.398   3
  -1  -4  10 646.037 673.007   3
  -1   4  10 215.395 655.106   4
   1   4  -9 43304.2 2209.60   1
   1  -4  -9 55343.6 2839.71   2
  -1   4   9 53604.7 4997.41   4
  -1  -4   9 51045.0 4473.65   3
  -1   4   9 50097.7 3672.47   3
  -1  -4   8 604.852 604.115   3
  -1   4   8 18.2775 231.995   3
   1  -4  -8 168.897 204.360   2
   1   4  -8 439.800 157.340   2
  -1   4   8 465.809 637.562   4
   1   4  -8 245.583 165.327   1
  -1   4   7 94779.3 6319.75   4
   1  -4  -7 87119.5 4174.69   2
   1   4  -7 96861.8 3648.58   2
  -1   4   7 95913.6 4797.66   3
  -1  -4   7 95287.1 5831.28   3
   1  -4  -6 1166.17 420.292   2
  -1  -4   6 612.658 442.230   3
  -1   4   6 949.902 406.284   3
   1   4  -6 1456.77 365.191   2
  -1   4   6 571.941 677.119   4
   1  -4  -5 107370. 5014.42   2
   1   4  -5 117766. 4841.70   2
  -1  -4   5 119874. 6090.45   3
  -1   4   5 118190. 6519.47   4
   1   4  -5 112673. 5111.41   1
  -1   4   5 113737. 4615.50   3
  -1   4   4 3037.39 433.222   3
   1   4  -4 1470.11 496.234   1
   1   4  -4 2169.52 544.322   2
   1  -4  -4 2511.25 620.294   2
  -1   4   3 82874.7 4713.16   4
   1  -4  -3 75868.9 4225.95   2
   1   4  -3 88235.3 4271.90   2
  -1  -4   3 90928.5 4953.02   2
   1   4  -3 87202.5 4285.11   1
  -1  -4   2 3290.65 872.519   2
  -1  -4   2 3379.17 814.348   1
   1   4  -2 4848.51 911.692   2
   1  -4  -2 2400.77 658.670   2
   1   4  -2 3419.20 752.948   1
   1   4  -2 3650.50 800.373   4
  -1  -4   1 64767.0 4274.43   2
   1   4  -1 58159.8 3496.87   1
   1   4  -1 57913.7 3504.90   2
  -1  -4   1 58537.3 3817.84   1
   1   4   0-5.95694 283.192   1
  -1  -4   0 202.812 298.580   2
   1  -4   0 15.5255 79.9547   3
  -1  -4   0 712.131 529.766   1
   1   4   0 292.409 258.948   2
   1   4   1 112388. 5458.36   1
   1   4   1 105753. 5377.78   2
  -1  -4  -1 117175. 6259.32   1
  -1  -4  -1 121026. 6464.00   2
   1  -4   1 112236. 4402.47   3
   1   4   2-8.76688 236.225   1
  -1  -4  -2-64.6314 326.425   2
   1  -4   2 137.314 199.061   3
   1   4   2 531.321 404.973   2
   1   4   3 114224. 5594.27   2
   1   4   3 110707. 5566.04   1
   1  -4   3 118959. 5189.26   3
   1   4   4 895.028 449.232   1
   1  -4   4 729.813 451.444   1
   1  -4   4 1810.11 587.751   3
   1   4   4 999.153 426.548   2
   1   4   5 40223.6 2683.68   4
   1  -4   5 39069.9 3002.69   3
   1   4   5 41430.5 2931.48   2
   1  -4   5 43156.7 3033.63   1
   1   4   5 38330.1 2888.01   1
   1   4   6 2598.58 706.546   1
   1  -4   6 2795.81 703.353   1
   1  -4   6 2315.86 737.476   3
   1   4   6 2154.79 687.490   4
   1   4   6 2212.54 634.369   2
   1   4   7 136279. 6081.43   2
   1   4   7 141250. 6430.42   1
   1  -4   7 125761. 5773.11   1
   1  -4   7 146129. 7153.40   3
   1   4   7 137699. 6624.90   4
   1   4   8 533.524 415.365   1
   1  -4   8 108.291 220.297   1
   1   4   8 69.7281 207.909   2
   1   4   8 411.294 427.143   4
   1  -4   8-301.493 356.045   3
   1   4   9 98766.6 6004.57   4
   1   4   9 102396. 4846.91   2
   1   4   9 106560. 5695.44   1
   1  -4   9 105885. 4513.78   1
   1  -4   9 109517. 6531.94   3
   1  -4  10 2894.33 582.578   1
   1   4  10 2285.48 578.066   2
   1   4  10 1742.91 831.968   4
   1   4  10 2834.91 855.086   1
   1  -4  10 2577.05 1016.60   3
   1  -4  11 43622.9 4269.17   3
   1   4  11 48455.1 2938.40   2
   1   4  11 58205.7 4050.86   1
   1   4  11 41889.8 4074.29   3
   1   4  11 49143.5 4310.59   4
   1  -4  12-147.834 522.416   3
   1   4  12 633.303 539.837   1
   1   4  12 26.2587 400.437   4
   1   4  12 628.812 572.873   3
   1  -4  13 42212.2 4432.28   3
   1   4  13 37905.1 3278.02   1
   1   4  13 31693.3 3715.96   4
   1   4  13 32557.9 3763.15   3
   1  -4  14 2252.15 1155.19   3
   1   4  14 623.424 527.550   1
   1   4  14 511.706 618.164   3
   1  -4  15 14043.8 2770.69   3
   1   4  15 15094.3 2700.55   3
  -1  -5  16 17482.5 3552.41   3
  -1   5  16 17120.1 3649.64   4
  -1  -5  15-1073.43 1037.55   3
  -1   5  15 1156.70 1101.23   4
  -1   5  14 18959.2 2782.79   3
  -1   5  14 18853.8 3588.36   4
  -1  -5  14 15173.2 3041.26   3
  -1  -5  13 5737.53 1751.63   3
  -1   5  13 4518.80 1300.57   3
  -1   5  13 4198.75 1780.35   4
  -1  -5  12 24627.4 3568.73   3
  -1   5  12 25017.0 3888.51   4
  -1   5  12 23440.3 2850.16   3
  -1   5  11 4378.91 1147.78   3
  -1  -5  11 5747.13 1677.17   3
  -1   5  11 3569.61 1316.13   4
  -1   5  10 97175.5 5727.21   3
  -1   5  10 93700.1 7279.97   4
  -1  -5  10 102259. 7110.42   3
  -1   5   9 774.663 487.083   3
   1   5  -9 642.522 164.755   1
  -1  -5   9 923.210 674.984   3
  -1   5   9 544.749 526.711   4
   1   5  -9 809.561 184.807   2
   1   5  -9 1133.41 360.750   1
   1   5  -8 88852.9 3209.76   1
   1   5  -8 81250.3 3814.67   1
  -1   5   8 86870.8 6398.33   4
   1   5  -8 98333.4 3515.14   2
  -1   5   8 85948.4 4787.97   3
  -1  -5   8 91510.3 6088.42   3
   1   5  -7 880.618 324.523   1
   1   5  -7 1202.63 324.214   2
  -1  -5   7 155.831 526.307   3
  -1   5   7 44.9854 578.776   4
  -1   5   7 576.490 326.929   3
   1   5  -6 46018.9 2329.88   2
  -1   5   6 40773.3 2539.95   3
   1   5  -6 41215.8 2481.05   1
  -1   5   6 40680.7 3837.65   4
  -1  -5   6 43373.0 3633.88   3
  -1   5   5 14200.2 2052.28   4
   1   5  -5 13241.0 1339.87   1
  -1   5   5 13559.3 1166.57   3
  -1  -5   5 15401.0 2015.51   3
  -1  -5   5 13211.5 1707.05   2
   1   5  -5 14904.2 1331.47   2
   1   5  -4 80180.3 4004.84   1
   1   5  -4 85280.3 4036.67   2
  -1   5   4 85246.5 5172.68   4
  -1  -5   4 84280.2 4966.67   2
  -1   5   4 82833.1 3110.84   3
  -1  -5   3 12275.8 1743.40   2
   1   5  -3 10371.8 1256.21   2
   1   5  -3 9140.33 1168.38   1
   1   5  -2 133401. 6013.32   2
  -1  -5   2 140479. 6609.32   1
  -1  -5   2 156974. 7455.73   2
   1   5  -2 138032. 6055.97   1
  -1  -5   1 3042.16 885.979   2
  -1  -5   1 2336.56 717.427   1
   1   5  -1 2325.22 656.404   1
   1   5  -1 2319.93 660.190   2
   1   5   0 55284.9 3446.47   1
   1   5   0 60065.4 3593.09   2
   1  -5   0 57717.6 2383.77   3
  -1  -5   0 56572.5 4029.21   1
   1  -5   1 6749.43 773.343   3
   1   5   1 7791.21 1208.29   1
   1   5   1 6321.90 1089.23   2
   1   5   2 40488.3 2956.45   2
   1   5   2 41744.4 3022.47   1
   1  -5   2 45799.4 2553.39   3
   1  -5   3 1187.39 469.132   3
   1   5   3 509.792 430.547   1
   1   5   3 1079.21 528.949   2
   1  -5   4 143720. 6239.05   3
   1   5   4 131660. 6228.00   2
   1   5   4 133810. 6326.44   1
   1  -5   5 7567.40 1248.65   1
   1  -5   5 7688.62 1258.70   3
   1   5   5 6930.66 1111.89   2
   1   5   5 7435.97 1144.44   4
   1   5   5 6114.00 1115.89   1
   1   5   6 128945. 6082.75   1
   1  -5   6 113069. 5671.62   2
   1   5   6 124712. 5816.09   2
   1  -5   6 126650. 6430.04   3
   1  -5   6 125095. 5846.36   1
   1   5   6 130967. 6215.73   4
   1  -5   7 22530.9 2033.78   2
   1   5   7 21580.5 1999.77   2
   1   5   7 24889.5 2384.95   1
   1   5   7 23245.3 2407.79   4
   1  -5   7 23197.6 1966.14   1
   1  -5   7 26634.5 2722.86   3
   1  -5   8 80833.4 4237.78   2
   1   5   8 103147. 5363.62   1
   1   5   8 93769.7 4614.39   2
   1   5   8 92259.3 5509.83   4
   1  -5   8 85861.8 4090.70   1
   1  -5   8 94117.7 5819.41   3
   1   5   9 1099.77 680.525   1
   1   5   9 1513.52 669.716   4
   1   5   9 365.072 315.086   2
   1  -5   9 841.007 291.162   1
   1  -5   9 2122.16 876.772   3
   1   5  10 40995.7 2763.02   2
   1   5  10 39290.5 3408.75   1
   1   5  10 35692.9 3573.42   4
   1  -5  10 34111.8 3629.46   3
   1  -5  11 1060.72 709.619   3
   1   5  11 1094.23 637.956   1
   1   5  11 1438.19 714.776   4
   1   5  11 1266.16 516.979   2
   1   5  12 60819.0 4283.80   1
   1   5  12 52281.2 4704.57   3
   1  -5  12 55376.8 5035.20   3
   1  -5  13-133.831 584.834   3
   1   5  13 108.574 306.321   1
   1   5  13 572.579 661.141   3
   1  -5  14 24958.1 3561.85   3
   1   5  14 18838.5 2414.04   1
   1   5  14 16661.3 2767.94   3
   1  -5  15-604.886 732.589   3
   1   5  15-648.346 677.936   3
  -1   6  16-459.337 730.394   4
  -1   6  15 20541.0 3979.23   4
  -1  -6  15 17893.2 3540.49   3
  -1  -6  14 372.035 677.968   3
  -1   6  14-191.216 637.620   4
  -1  -6  13 15838.0 3087.47   3
  -1   6  13 11536.4 2024.97   3
  -1   6  13 9706.25 2510.32   4
  -1  -6  12 1661.35 993.127   3
  -1   6  12 1498.29 728.425   3
  -1   6  12 1333.91 954.232   4
  -1   6  11 38935.0 3502.87   3
  -1   6  11 35834.1 4555.89   4
  -1  -6  11 39406.3 4485.33   3
  -1   6  10 466.323 458.483   3
  -1  -6  10 1037.76 999.794   3
  -1   6  10 372.933 564.095   4
   1   6  -9 32527.0 1678.17   2
  -1   6   9 31203.9 3911.56   4
  -1   6   9 34090.2 2866.46   3
  -1  -6   9 32615.2 3715.94   3
  -1  -6   8 6862.90 1605.71   3
   1   6  -8 7494.02 793.741   2
  -1   6   8 7831.87 1792.09   4
  -1   6   8 5623.67 1045.40   3
   1   6  -7 61757.1 2828.35   2
  -1   6   7 60044.1 4977.33   4
   1   6  -7 54415.0 2528.43   1
  -1   6   7 52749.8 3236.43   3
  -1  -6   7 53969.4 4525.96   3
  -1   6   6 12439.2 2075.43   4
   1   6  -6 12097.4 1106.77   2
  -1  -6   6 9385.72 1468.25   2
   1   6  -6 9922.32 1007.72   1
  -1   6   6 10187.1 1138.16   3
  -1  -6   6 11132.5 1862.10   3
  -1  -6   5 175927. 8126.07   2
  -1   6   5 171662. 8613.49   4
   1   6  -5 167577. 6447.28   1
   1   6  -5 171986. 6487.84   2
  -1   6   5 167215. 6073.78   3
  -1  -6   4 2977.18 924.767   2
   1   6  -4 2050.34 528.071   1
  -1   6   4 1642.35 286.259   3
  -1   6   4 2257.57 796.883   4
   1   6  -4 1920.69 514.400   2
   1   6  -3 72538.9 3804.32   2
  -1  -6   3 72383.6 4262.30   1
   1   6  -3 73368.6 3792.44   1
   1   6  -2 503.253 341.323   1
  -1  -6   2 374.167 391.144   1
   1   6  -2 421.613 321.958   2
   1   6  -1 141088. 6224.07   1
   1   6  -1 144038. 6311.16   2
  -1  -6   1 145458. 7119.70   1
   1   6   0 6693.16 1092.08   1
   1   6   0 6666.50 1112.28   2
   1  -6   0 6830.32 682.857   3
  -1   6   0 7395.88 812.648   3
   1   6   1 224450. 8915.78   2
   1   6   1 225773. 8907.90   1
   1  -6   1 222885. 7708.45   3
  -1   6  -1 216560. 8136.82   3
   1   6   2 29532.6 2431.02   2
   1   6   2 27412.0 2363.55   1
   1  -6   2 27771.3 1975.87   3
   1   6   3 98407.5 5143.31   2
   1   6   3 107341. 5291.45   1
   1  -6   3 102009. 4801.05   3
   1   6   4 13338.0 1612.71   2
   1   6   4 14593.2 1717.17   1
   1  -6   4 15124.4 1664.12   3
   1   6   5 67282.6 4072.23   1
   1   6   5 66662.9 3936.53   2
   1  -6   5 69369.0 4254.88   1
   1  -6   5 63161.7 4036.92   3
   1  -6   6 5626.57 1175.80   3
   1  -6   6 6191.47 1060.94   1
   1   6   6 4545.07 929.731   2
   1   6   6 5573.81 1106.23   1
   1   6   6 6396.73 1212.23   4
   1  -6   7 84294.3 5364.73   3
   1   6   7 91892.1 4705.07   2
   1   6   7 99428.6 5294.56   1
   1   6   7 83936.8 5236.97   4
   1  -6   7 86152.1 4392.22   1
   1  -6   8-129.174 394.484   3
   1   6   8 539.247 509.981   1
   1   6   8-577.930 456.998   4
   1   6   8 70.9053 230.205   2
   1  -6   8 308.905 227.990   1
   1   6   9 24851.7 2858.50   4
   1   6   9 22942.1 2086.59   2
   1   6   9 20988.4 2477.05   1
   1  -6   9 21332.8 1464.91   1
   1  -6   9 25269.7 2963.10   3
   1   6  10 386.358 378.478   1
   1   6  10 369.849 417.297   4
   1   6  10 139.110 253.922   2
   1  -6  10 278.607 480.922   3
   1   6  11 51880.7 3311.75   2
   1   6  11 51394.3 4023.51   1
   1  -6  11 39096.6 4160.38   3
   1   6  11 38759.2 4042.48   4
   1  -6  12-268.077 547.623   3
   1   6  12 481.917 517.635   1
   1   6  12-168.926 503.331   3
   1  -6  13 24719.4 3470.00   3
   1   6  13 24312.3 2754.24   1
   1   6  13 20535.3 3000.42   3
   1  -6  14 4926.04 1674.44   3
   1   6  14 4178.19 1288.44   3
   1   6  14 5570.24 1334.10   1
   1   6  15 10556.8 2284.32   3
  -1   7  16 8515.67 2663.60   4
  -1  -7  15 1258.45 1008.26   3
  -1   7  15 740.201 903.552   4
  -1  -7  14 9085.94 2473.42   3
  -1   7  14 10187.9 2766.86   4
  -1  -7  13 239.042 710.469   3
  -1   7  13 1822.71 1171.46   4
  -1   7  12 12275.1 1968.88   3
  -1  -7  12 10582.0 2498.23   3
  -1   7  12 13140.3 2899.15   4
  -1   7  11 377.533 261.890   3
  -1  -7  11 180.172 672.687   3
  -1   7  11 506.445 875.452   4
  -1   7  10 28567.0 2738.36   3
  -1  -7  10 32901.8 4008.08   3
  -1   7  10 32439.2 4185.73   4
   1   7  -9 941.799 288.842   2
  -1  -7   9-181.594 534.168   3
  -1   7   9 9.95519 936.974   4
  -1   7   9 510.736 388.353   3
   1   7  -8 49675.5 2505.97   2
  -1   7   8 49671.2 3267.65   3
  -1   7   8 50355.5 4857.39   4
  -1  -7   8 49070.4 4552.63   3
  -1   7   7 7613.50 1071.30   3
  -1  -7   7 8373.90 1424.71   2
  -1   7   7 6327.61 1621.31   4
  -1  -7   7 9077.21 1819.73   3
   1   7  -7 11200.6 1121.78   2
   1   7  -7 8692.48 614.302   1
  -1   7   6 38621.2 3827.34   4
   1   7  -6 44215.5 2501.35   2
   1   7  -6 40524.1 2059.13   1
  -1   7   6 43896.1 2509.23   3
  -1  -7   6 39560.6 3730.84   3
  -1   7   5 13166.4 2092.44   4
   1   7  -5 16207.5 1427.53   2
   1   7  -5 14678.5 1252.49   1
  -1   7   5 13278.0 1102.99   3
   1   7  -4 128708. 5403.49   2
   1   7  -4 128051. 5202.85   1
  -1   7   4 124454. 4291.87   3
  -1  -7   4 116927. 5923.71   1
   1   7  -3 8375.84 1102.53   2
   1   7  -3 6307.27 947.349   1
  -1  -7   3 6245.10 1158.55   1
   1   7  -2 187076. 7540.45   2
  -1  -7   2 187004. 8434.93   1
   1   7  -2 185153. 7377.19   1
   1   7  -1 365.957 279.391   1
   1   7  -1 735.274 479.140   2
  -1   7   1 369.675 162.621   3
   1   7   0 207440. 8036.58   2
   1   7   0 191597. 7806.14   1
  -1   7   0 185634. 6880.10   3
   1  -7   0 184709. 6603.47   3
   1   7   1 29445.1 2432.76   2
   1   7   1 28212.8 2379.34   1
   1  -7   1 27348.5 1842.53   3
  -1   7  -1 29259.3 2127.13   3
   1   7   2 98138.6 5084.95   2
   1   7   2 107345. 5271.25   1
  -1   7  -2 103894. 5049.81   3
   1  -7   2 93540.8 4431.11   3
   1   7   3 18357.8 1932.84   1
   1   7   3 14759.8 1749.62   2
   1  -7   3 16979.9 1671.34   3
   1   7   4 116969. 5796.11   1
   1   7   4 119496. 5713.19   2
   1  -7   4 110147. 5523.71   3
   1  -7   5-49.0687 218.516   3
   1   7   5 226.646 315.247   1
   1   7   5 202.094 379.459   2
   1   7   6 85351.5 5319.87   4
   1   7   6 95078.4 4941.49   2
   1   7   6 103258. 5484.58   1
   1  -7   6 95614.3 5163.84   1
   1  -7   6 93377.1 5442.14   3
   1   7   7 26475.2 2304.40   2
   1   7   7 26272.5 2615.92   1
   1   7   7 25307.6 2742.44   4
   1  -7   7 24225.6 2682.83   3
   1  -7   7 24588.0 2078.51   1
   1   7   8 23344.0 2174.42   2
   1   7   8 24980.4 2680.26   1
   1   7   8 23098.3 2757.26   4
   1  -7   8 22142.0 1669.32   1
   1  -7   8 23547.2 2764.88   3
   1  -7   9-98.3567 385.723   3
   1   7   9 37.6734 423.392   1
   1   7   9-307.180 475.418   4
   1   7   9 554.209 392.237   2
   1   7  10 20687.4 2548.73   1
   1   7  10 25293.9 2344.19   2
   1   7  10 17565.0 2620.55   4
   1  -7  10 20899.7 2879.31   3
   1  -7  11 14.4902 450.330   3
   1   7  11 1003.86 735.654   1
   1   7  11-66.8626 422.900   4
   1   7  11 255.005 378.085   2
   1  -7  12 23392.9 3327.68   3
   1   7  12 21722.9 3122.55   4
   1   7  12 26223.6 2931.65   1
   1  -7  13-425.777 694.564   3
   1   7  13-35.7739 427.336   3
   1   7  13 814.642 652.073   1
   1  -7  14 14239.4 2748.06   3
   1   7  14 9889.15 2130.80   3
   1   7  14 10307.3 1932.77   1
   1   7  15 1089.21 777.093   3
   1   7  15 566.317 541.905   1
  -1  -8  15 5303.79 2008.20   3
  -1   8  15 3652.17 1690.40   4
  -1   8  14 459.530 854.056   4
  -1  -8  14 478.277 820.698   3
  -1  -8  13 18136.6 3428.59   3
  -1   8  13 19577.9 3755.45   4
  -1  -8  12-654.731 798.659   3
  -1   8  12 508.460 826.255   4
  -1  -8  11 16065.9 2902.66   3
  -1   8  11 12784.3 2730.11   4
  -1   8  11 10240.5 1694.62   3
  -1   8  10 595.386 601.223   4
  -1  -8  10-227.865 688.119   3
  -1   8  10-254.791 326.353   3
   1   8  -9 34478.4 2129.53   2
  -1   8   9 36726.8 4364.47   4
  -1   8   9 37309.3 2915.07   3
  -1  -8   9 36419.3 4153.73   3
  -1   8   8 141.301 548.041   4
  -1  -8   8 91.2133 496.748   3
   1   8  -8 792.058 296.028   2
  -1   8   8 596.630 356.115   3
   1   8  -7 54899.3 2862.38   2
   1   8  -7 41757.9 1681.38   1
  -1   8   7 45785.3 4504.50   4
  -1   8   7 47382.5 2850.83   3
  -1  -8   7 49836.1 4471.66   3
   1   8  -6 1543.63 312.431   1
  -1   8   6 1854.82 802.429   4
   1   8  -6 1517.76 473.812   2
  -1   8   6 1231.00 380.367   3
   1   8  -5 61298.3 3301.81   2
   1   8  -5 58182.7 2758.18   1
  -1   8   5 54538.0 2624.87   3
  -1  -8   4 7325.59 1239.47   1
   1   8  -4 6976.54 1009.43   2
   1   8  -4 5611.68 809.762   1
   1   8  -3 192087. 7241.55   2
   1   8  -3 177458. 6799.75   1
  -1  -8   3 171836. 7946.85   1
  -1   8   3 168183. 5514.80   3
  -1   8   2 735.832 207.427   3
   1   8  -2 1332.15 520.872   1
   1   8  -2 564.261 386.791   2
   1   8  -1 167541. 7012.70   1
  -1   8   1 165573. 6047.83   3
   1   8   0 17186.0 1800.05   2
  -1   8   0 13131.3 1279.65   3
   1   8   0 16252.4 1690.15   1
   1  -8   0 14566.8 1274.12   3
   1  -8   1 153941. 6348.47   3
   1   8   1 170317. 7264.04   2
  -1   8  -1 166752. 6798.02   3
   1   8   1 179618. 7328.22   1
   1  -8   2 7389.87 1035.51   3
   1   8   2 6556.10 1163.53   1
   1   8   2 9122.00 1343.53   2
   1   8   3 85612.9 4684.99   2
   1   8   3 90825.6 4871.53   1
   1  -8   3 79439.0 4333.91   3
   1  -8   4 201.688 315.194   3
   1   8   4 275.734 265.914   1
   1   8   4 367.069 350.898   2
   1   8   5 107384. 5431.76   2
   1   8   5 107079. 5738.88   1
   1  -8   5 99611.0 5532.25   3
   1  -8   6 1909.76 729.566   3
   1   8   6 1251.61 668.503   1
   1   8   6 1144.31 521.220   2
   1  -8   6 645.422 386.076   1
   1   8   7 43855.7 3159.66   2
   1   8   7 35237.9 3257.17   1
   1  -8   7 40512.4 2829.34   1
   1  -8   7 42554.6 3649.74   3
   1   8   7 36942.9 3539.98   4
   1  -8   8 411.339 241.591   1
   1  -8   8-35.5993 329.216   3
   1   8   8 717.901 580.249   1
   1   8   8 586.464 603.087   4
   1   8   8 43.2556 367.414   2
   1   8   9 32134.4 2797.06   2
   1   8   9 35127.6 3395.93   1
   1   8   9 26962.2 3232.24   4
   1  -8   9 30527.5 3373.24   3
   1  -8  10-276.632 637.162   3
   1   8  10-175.638 409.068   1
   1   8  10-491.691 534.762   4
   1   8  10-443.192 400.146   2
   1  -8  11 12344.7 2309.20   3
   1   8  11 15711.6 1907.33   2
   1   8  11 15627.5 2256.87   1
   1   8  11 12441.1 2327.06   4
   1   8  12 426.592 613.460   1
   1  -8  12 461.656 440.319   3
   1   8  12 885.001 694.091   4
   1  -8  13 14267.7 2713.92   3
   1   8  13 9751.21 1867.44   1
   1   8  13 10058.8 2111.31   3
   1  -8  14 104.624 570.009   3
   1   8  14 958.405 755.666   3
   1   8  14 868.327 648.749   1
   1   8  15 7317.37 1925.57   3
   1   8  15 8724.07 1884.12   1
  -1   9  15-145.633 1156.76   4
  -1   9  14 13234.4 3292.06   4
  -1  -9  14 14575.3 3258.44   3
  -1  -9  13-1450.54 1142.78   3
  -1   9  13-1766.77 1195.03   4
  -1  -9  12 10210.8 2507.18   3
  -1   9  12 8117.08 2369.32   4
  -1  -9  11 5295.53 1837.37   3
  -1   9  11 5420.50 1845.65   4
  -1  -9  10 21834.3 3411.12   3
  -1   9  10 22712.4 3647.62   4
  -1   9  10 22425.2 2326.44   3
  -1   9   9 976.743 557.001   4
  -1  -9   9 2956.15 1243.56   3
   1   9  -9 2255.57 562.193   2
  -1   9   9 1756.05 649.870   3
  -1   9   8 41161.5 2853.13   3
   1   9  -8 43497.2 2600.52   2
  -1   9   8 44337.8 4715.39   4
  -1  -9   8 38890.9 4288.38   3
   1   9  -7 15276.8 781.134   1
   1   9  -7 16843.9 1556.90   2
  -1   9   7 13183.8 2469.19   4
  -1   9   7 14005.2 1431.44   3
   1   9  -6 47356.9 2347.98   1
  -1   9   6 53455.6 2796.40   3
  -1   9   6 53177.7 4807.66   4
   1   9  -5 85.7933 127.836   1
   1   9  -5-242.218 283.061   2
   1   9  -4 117886. 5365.22   2
   1   9  -4 114460. 4723.17   1
  -1   9   3 473.494 178.042   3
   1   9  -3 380.530 272.479   1
   1   9  -3 135.377 250.897   2
   1   9  -2 108128. 5136.35   2
   1   9  -2 99855.1 4713.20   1
  -1   9   2 97695.8 3828.48   3
   1   9  -1 1642.10 521.663   1
   1   9  -1 3026.81 751.811   2
  -1   9   1 2192.60 468.114   3
   1   9   0 195659. 7922.29   2
   1   9   0 189218. 7700.32   1
  -1   9   0 173343. 6983.80   3
   1  -9   1 564.321 285.016   3
   1   9   1 654.876 407.879   1
   1   9   1 445.571 435.286   2
  -1   9  -1 461.264 311.211   3
   1   9   2 99935.8 5211.06   2
   1   9   2 105859. 5386.91   1
   1  -9   2 93393.4 4756.81   3
   1   9   3 29042.0 2535.46   2
   1   9   3 33032.2 2786.58   1
   1  -9   3 23668.2 2205.75   3
   1   9   4 77375.0 4473.52   2
   1   9   4 78462.3 4758.45   1
   1  -9   4 68036.2 4285.60   3
   1  -9   5 8044.96 1404.66   3
   1   9   5 7453.10 1402.79   1
   1   9   5 8208.59 1343.25   2
   1   9   6 88723.5 4904.63   2
   1   9   6 79348.0 5160.54   1
   1  -9   6 76516.1 5047.53   3
   1  -9   7 1094.34 706.431   3
   1   9   7 1288.36 698.049   1
   1  -9   7 1294.35 511.435   1
   1   9   7 1785.60 709.063   2
   1   9   7 1517.65 744.311   4
   1  -9   8 7649.67 1616.61   3
   1   9   8 10745.7 2000.20   4
   1   9   8 11947.2 1995.36   1
   1   9   8 11164.2 1641.51   2
   1  -9   9 539.812 599.263   3
   1   9   9 836.183 569.800   1
   1   9   9 842.316 764.269   4
   1   9   9 330.356 447.681   2
   1   9  10 39441.3 3216.55   2
   1   9  10 41743.0 3812.61   1
   1  -9  10 32162.0 3734.27   3
   1   9  11 1570.52 871.038   1
   1  -9  11 1530.50 1090.80   3
   1   9  11 2542.75 1108.91   4
   1   9  11 2045.04 767.662   2
   1   9  12 25066.1 2999.31   1
   1   9  12 20527.9 3240.95   4
   1  -9  12 25732.3 3594.93   3
   1  -9  13 2890.91 1252.37   3
   1   9  13 2936.12 1119.71   1
   1  -9  14 11455.8 2613.04   3
   1   9  14 12084.2 2416.66   3
   1   9  14 9916.69 1946.50   1
   1   9  15 2502.71 1026.45   1
   1   9  15 1397.03 927.471   3
  -1  10  15 12613.7 3295.91   4
  -1 -10  14-197.817 743.033   3
  -1  10  14 3133.36 1618.01   4
  -1 -10  13 20517.8 3825.41   3
  -1  10  13 18426.6 3790.87   4
  -1  10  12 1356.65 1062.68   4
  -1 -10  12 1499.35 1009.55   3
  -1 -10  11 25441.7 3941.11   3
  -1  10  11 18293.2 3519.45   4
  -1 -10  10 3866.14 1557.12   3
  -1  10  10 1851.40 1140.79   4
   1  10  -9 53762.8 3252.77   2
  -1  10   9 59551.9 5861.65   4
  -1 -10   9 66342.8 5996.29   3
  -1  10   8 198.650 221.934   3
  -1 -10   8 279.697 527.438   3
  -1  10   8-165.553 577.126   4
   1  10  -8 135.628 286.564   2
  -1  10   7 44583.0 4658.70   4
   1  10  -7 53285.5 3126.47   2
  -1  10   7 43079.0 2712.98   3
   1  10  -6 460.118 228.614   1
   1  10  -6 677.771 427.334   2
   1  10  -5 37319.4 2272.31   1
  -1  10   5 31889.6 3890.34   2
  -1 -10   5 40526.0 3210.06   1
   1  10  -4 16724.9 1514.57   1
  -1 -10   4 16673.4 2070.73   1
  -1  10   4 16061.0 1145.47   3
   1  10  -3 76480.0 4135.93   2
   1  10  -3 70788.8 3602.79   1
  -1  10   2 199.079 151.809   3
   1  10  -2 112.431 232.197   1
   1  10  -2-179.289 377.938   2
  -1  10   2 47.8360 529.184   2
   1  10  -1 88822.3 4750.78   2
   1  10  -1 88749.9 4510.27   1
  -1  10   1 75279.6 3677.24   3
   1  10   0 1567.33 619.701   1
   1  10   0 2053.18 695.321   2
  -1  10   0 1731.04 496.396   3
   1  10   1 52054.6 3567.54   2
   1  10   1 56811.2 3687.55   1
   1 -10   1 47944.7 3103.60   3
  -1  10  -1 46249.9 3150.18   3
   1 -10   2 585.258 399.777   3
   1  10   2 1268.30 623.154   1
   1  10   2 875.609 505.270   2
   1  10   3 55980.3 3795.47   2
   1  10   3 58533.8 4015.67   1
   1 -10   3 47930.9 3443.95   3
   1 -10   4 648.281 473.214   3
   1  10   4 302.464 488.228   1
   1  10   4 163.730 400.905   2
   1 -10   5 101520. 5905.66   3
   1  10   5 109524. 5857.84   2
   1  10   5 113941. 6400.99   1
   1  10   6 24680.0 2526.24   2
   1  10   6 25174.2 2825.57   1
   1 -10   6 22475.8 2610.62   3
   1  10   7 54227.1 3915.30   2
   1  10   7 52025.5 4284.29   1
   1 -10   7 52567.3 3582.41   1
   1 -10   7 44275.4 3990.11   3
   1 -10   8-93.1285 433.381   3
   1  10   8 276.053 525.571   1
   1  10   8-335.483 507.233   4
   1  10   8-101.184 364.096   2
   1  10   9 44897.3 3627.86   2
   1  10   9 55949.7 4432.44   1
   1  10   9 42421.8 4455.82   4
   1 -10   9 40067.8 4132.48   3
   1  10  10 1897.55 889.166   1
   1 -10  10 1152.57 729.958   3
   1  10  10 1228.99 721.041   2
   1  10  10 1335.09 828.941   4
   1  10  11 29987.8 2870.93   2
   1  10  11 39451.6 3808.87   1
   1  10  11 32200.1 4057.40   4
   1 -10  11 25641.7 3589.62   3
   1 -10  12 694.987 716.872   3
   1  10  12 510.198 540.170   4
   1  10  12 1623.17 891.442   1
   1 -10  13 15666.4 2932.42   3
   1  10  13 16320.1 2523.42   1
   1  10  14-48.6302 344.168   1
   1  10  14 840.248 724.747   3
   1  10  15 6670.70 1843.01   3
  -1  11  14 17744.8 3874.96   4
  -1 -11  13 335.820 886.070   3
  -1  11  13-581.095 877.904   4
  -1 -11  12 24528.4 4149.84   3
  -1  11  12 29432.5 4673.12   4
  -1 -11  11 5591.86 1958.70   3
  -1  11  11 5172.24 1946.25   4
  -1  11  10 41246.8 5117.47   4
  -1 -11  10 43842.5 5136.45   3
  -1  11   9 138.217 832.260   4
   1  11  -8 41263.6 2883.86   2
  -1  11   8 38808.0 4631.49   4
  -1  11   7 3176.52 1328.28   4
   1  11  -7 4475.81 888.918   2
  -1  11   7 3070.96 648.616   3
   1  11  -6 55695.6 2570.47   1
   1  11  -6 60612.4 3638.47   2
   1  11  -5 588.150 296.069   1
   1  11  -5 451.263 416.832   2
  -1  11   5-128.853 669.167   2
   1  11  -4 38964.6 2539.46   1
  -1  11   4 36952.6 2012.28   3
  -1  11   3-245.061 174.262   3
   1  11  -3 374.470 320.494   1
  -1  11   3-69.7589 501.997   2
   1  11  -3 462.101 432.452   2
   1  11  -2 73035.0 4377.04   2
   1  11  -2 75850.7 4082.80   1
  -1  11   2 62366.4 3071.84   3
  -1  11   1 3608.10 700.127   3
   1  11  -1 3912.50 912.371   1
   1  11  -1 4315.04 1018.56   2
   1  11   0 26336.7 2590.10   2
   1  11   0 24478.0 2447.59   1
  -1  11   0 24641.7 2066.41   3
   1  11   1-195.561 341.258   1
   1  11   1-161.623 376.219   2
   1  11   2 62490.3 4227.75   2
   1  11   2 67516.0 4396.42   1
   1 -11   2 56927.6 3784.23   3
   1 -11   3 4054.45 970.314   3
   1  11   3 4482.75 1102.40   1
   1  11   3 3836.30 1005.71   2
   1  11   4 46527.2 3638.06   2
   1  11   4 45444.3 3770.53   1
   1 -11   4 35171.3 3143.66   3
   1 -11   5 1635.41 752.885   3
   1  11   5 1926.93 878.631   1
   1  11   5 1864.58 818.653   2
   1  11   6 49797.4 4233.67   1
   1 -11   6 43277.9 3839.66   3
   1 -11   7 2898.67 1027.19   3
   1  11   7 2963.85 1129.58   1
   1  11   7 2409.26 854.088   2
   1  11   8 81174.7 5251.49   2
   1  11   8 91025.7 5926.35   1
   1  11   8 76927.0 6186.26   4
   1 -11   8 68956.7 5484.37   3
   1  11   9 1427.79 769.805   1
   1 -11   9 564.992 526.202   3
   1  11   9 867.919 558.906   2
   1  11  10 47801.7 3790.49   2
   1  11  10 48640.3 4305.62   1
   1  11  10 38477.7 4560.45   4
   1 -11  10 40789.5 4456.12   3
   1  11  11 3726.76 1214.30   1
   1 -11  11 2870.36 1274.03   3
   1  11  11 1950.49 1006.01   4
   1  11  11 1723.22 762.952   2
   1 -11  12 18103.2 3144.52   3
   1  11  12 20508.6 2878.44   1
   1 -11  13 1653.45 1045.90   3
   1  11  13 118.769 575.078   1
   1  11  14 11686.9 2283.41   1
   1  11  14 9058.85 2117.24   3
  -1  12  14 338.842 614.349   4
  -1 -12  13 15853.7 3488.34   3
  -1  12  13 14728.4 3484.17   4
  -1  12  12 85.2288 571.867   4
  -1 -12  12-920.853 998.368   3
  -1 -12  11 28847.7 4435.71   3
  -1  12  11 28351.2 4571.20   4
  -1  12  10 99.9142 517.617   4
  -1  12   9 53770.6 5844.36   4
  -1  12   8 877.615 665.949   4
   1  12  -8 825.964 441.585   2
   1  12  -7 37385.4 2878.56   2
  -1  12   7 34114.2 4279.96   4
   1  12  -6 1065.49 528.792   2
   1  12  -6 863.406 286.122   1
  -1  12   6 319.671 594.008   2
   1  12  -5 43287.4 2498.91   1
   1  12  -5 48326.2 3377.38   2
   1  12  -4 923.724 446.054   1
   1  12  -4 851.943 518.729   2
   1  12  -3 46814.2 3389.35   2
   1  12  -3 40481.6 2756.17   1
  -1  12   2 439.265 249.125   3
   1  12  -2 361.130 439.818   1
  -1  12   2-17.8548 459.052   2
   1  12  -2-131.008 337.093   2
  -1  12   1 32925.1 4142.02   2
   1  12  -1 30081.0 2727.35   1
  -1  12   1 33746.8 2384.47   3
   1  12   0 7131.61 1384.53   2
   1  12   0 7104.74 1318.14   1
   1  12   1 38310.0 3299.40   2
   1  12   1 36704.5 3216.59   1
   1  12   2 1769.24 785.347   2
   1  12   2 1602.59 759.215   1
   1  12   3 37924.8 3345.16   2
   1  12   3 33008.4 3203.01   1
   1 -12   3 27320.8 2740.38   3
   1 -12   4 877.936 547.911   3
   1  12   4 1213.70 830.483   1
   1  12   4 1140.57 709.095   2
   1  12   5 100398. 5900.99   2
   1  12   5 108167. 6365.09   1
   1  12   6 766.308 689.296   2
   1 -12   6-40.8760 415.608   3
   1  12   6 146.090 518.178   1
   1  12   7 54449.9 4257.95   2
   1  12   7 54128.2 4572.13   1
   1 -12   7 52841.9 4573.71   3
   1  12   8 60.2324 511.337   1
   1 -12   8-438.737 530.933   3
   1  12   8 412.568 578.201   4
   1  12   8 14.2665 462.807   2
   1 -12   9 22068.8 3169.51   3
   1  12   9 26937.0 3764.93   4
   1  12   9 32732.0 3219.14   2
   1  12   9 32716.0 3486.73   1
   1  12  10 4848.69 1439.51   1
   1 -12  10 2719.56 1281.07   3
   1  12  10 2752.23 1278.57   4
   1  12  10 1711.90 770.884   2
   1  12  11 36990.5 3501.42   2
   1  12  11 43742.6 4271.07   1
   1  12  11 44645.2 5120.11   4
   1 -12  11 44528.5 4880.78   3
   1 -12  12 589.914 642.756   3
   1  12  12 973.189 792.401   1
   1 -12  13 25249.1 3917.16   3
   1  12  13 18114.7 2849.90   1
  -1  13  13-1344.96 1210.98   4
  -1  13  12 22228.8 4218.02   4
  -1  13  11 154.935 694.022   4
  -1  13  10 19570.5 3704.59   4
  -1  13   9 576.256 862.517   4
  -1  13   8 31347.2 4345.09   4
   1  13  -8 29363.0 2686.08   2
  -1  13   7-112.354 484.373   4
   1  13  -7 386.626 345.021   2
  -1  13   6 31345.0 4432.88   2
   1  13  -6 52628.4 3609.58   2
   1  13  -5 6586.60 1233.55   2
   1  13  -5 4755.79 792.977   1
   1  13  -4 60580.2 3942.46   2
   1  13  -4 67903.4 3356.82   1
   1  13  -3 21125.7 2394.47   2
   1  13  -3 21096.4 1979.85   1
   1  13  -2 27147.5 2691.96   2
   1  13  -2 22988.9 2201.09   1
  -1  13   1 8178.42 2217.06   2
   1  13  -1 7941.32 1400.27   1
   1  13  -1 10540.8 1731.96   2
   1  13   0 58742.9 4306.33   2
   1  13   0 54838.9 3979.76   1
   1  13   1 4985.85 1278.83   2
   1  13   1 4370.29 1153.23   1
   1  13   2 69936.2 4980.46   2
   1  13   2 72627.6 4946.98   1
   1  13   3-92.7778 346.665   1
   1 -13   3 180.111 349.288   3
   1  13   3 186.891 527.118   2
   1  13   4 43848.4 3829.88   2
   1  13   4 43808.3 3897.08   1
   1  13   5 5047.44 1380.34   1
   1 -13   5 3332.01 1098.27   3
   1  13   5 2421.59 932.486   2
   1  13   6 37597.1 3592.25   2
   1  13   6 42263.7 3935.05   1
   1 -13   6 31564.2 3454.87   3
   1  13   7 7261.10 1637.36   1
   1 -13   7 3576.96 1202.47   3
   1  13   7 5996.32 1421.26   2
   1  13   8 49252.8 4137.62   2
   1  13   8 50145.7 4423.93   1
   1 -13   8 41106.4 4325.81   3
   1  13   9 734.308 635.765   1
   1 -13   9 1286.01 906.894   3
   1  13   9 270.962 390.492   2
   1  13   9 203.813 856.218   4
   1  13  10 32588.9 3343.78   2
   1  13  10 37459.6 3953.19   1
   1  13  10 37200.3 4693.10   4
   1 -13  10 29654.8 3969.61   3
   1 -13  11 1373.30 1105.84   3
   1  13  11 600.309 818.076   4
   1  13  11 1378.75 802.519   2
   1  13  11 692.886 719.564   1
   1 -13  12 10624.8 2477.11   3
   1  13  12 10600.5 2232.29   1
  -1  14  12 1752.43 1278.43   4
  -1  14  11 8894.68 2607.98   4
  -1  14  10-10.0344 531.885   4
  -1  14   9 26781.6 4282.17   4
   1  14  -8 1727.62 699.845   2
  -1  14   8 1480.63 945.495   4
   1  14  -7 19414.4 2243.39   2
  -1  14   6 8.76406 1147.16   2
   1  14  -6 535.759 356.137   2
   1  14  -5 15758.9 1534.35   1
   1  14  -5 19879.1 2239.07   2
   1  14  -4 1115.33 503.997   2
   1  14  -4 455.864 324.201   1
   1  14  -3 106349. 5703.62   2
   1  14  -3 98864.2 4823.72   1
   1  14  -2 1305.54 600.388   1
  -1  14   2-252.882 732.601   2
   1  14  -2 1994.79 811.218   2
   1  14  -1 85901.2 5395.88   2
   1  14  -1 86608.9 5016.19   1
   1  14   0 1361.85 692.179   1
   1  14   0 236.524 586.577   2
   1  14   1 50096.9 4081.45   2
   1  14   1 45465.0 3846.24   1
   1  14   2 1199.60 715.239   1
   1  14   2-237.499 501.215   2
   1  14   3 44823.3 3969.23   2
   1  14   3 47675.7 4055.25   1
   1  14   4 5886.26 1476.43   1
   1  14   4 5482.43 1435.27   2
   1 -14   4 3612.71 1110.42   3
   1  14   5 59854.7 4627.69   2
   1  14   5 54149.0 4529.67   1
   1  14   6 2743.90 1163.61   1
   1 -14   6 2242.22 973.324   3
   1  14   6 1727.90 888.323   2
   1  14   7 26964.4 3045.17   2
   1  14   7 34283.4 3562.03   1
   1  14   8 794.289 784.677   1
   1 -14   8-218.216 484.596   3
   1  14   8-186.801 505.080   2
   1  14   9 12795.6 2793.15   4
   1 -14   9 13543.2 2561.09   3
   1  14   9 14994.6 2510.97   1
   1  14   9 9925.99 1903.81   2
   1  14  10-150.686 951.313   4
   1 -14  10 1551.85 1002.94   3
   1  14  10 298.547 591.834   2
   1  14  10-32.0893 468.762   1
   1 -14  11 13143.6 2771.54   3
   1  14  11 13477.1 2235.01   2
   1  14  11 8458.03 2391.31   4
   1  14  11 10522.9 2187.78   1
   1 -14  12-700.413 810.134   3
  -1  15  12 9437.07 2831.70   4
  -1  15  11-1116.57 1014.52   4
  -1  15  10 6785.64 2302.74   4
  -1  15   9 870.774 998.896   4
   1  15  -8 14843.7 2093.66   2
  -1  15   8 7342.80 2262.47   4
   1  15  -7 669.353 483.045   2
   1  15  -6 39433.4 3410.04   2
  -1  15   6 27229.6 4372.96   2
  -1  15   5-1703.51 1202.02   2
   1  15  -5 604.324 587.074   2
   1  15  -4 58796.1 3526.29   1
   1  15  -4 64502.6 4443.68   2
   1  15  -3 6658.18 1431.08   2
   1  15  -3 6609.23 1145.83   1
   1  15  -2 19708.0 2506.42   2
   1  15  -2 18828.0 2079.81   1
   1  15  -1 5325.97 1451.62   2
   1  15  -1 5272.55 1154.30   1
  -1  15   1 5652.28 1972.05   2
   1  15   0 102088. 6280.35   2
   1  15   0 98779.7 5833.04   1
   1  15   1-23.4050 422.094   1
   1  15   1 1219.11 816.662   2
   1  15   2 71731.2 5342.58   2
   1  15   2 91910.0 5701.77   1
   1  15   3 744.600 651.469   1
   1  15   3 1436.34 825.395   2
   1  15   4 38439.6 3761.71   2
   1  15   4 35588.3 3650.18   1
   1  15   5 2119.69 862.429   1
   1 -15   5 2137.85 766.573   3
   1  15   5 4122.76 1276.41   2
   1  15   6 22824.9 2883.89   2
   1  15   6 25326.2 3147.84   1
   1 -15   6 19533.9 2895.37   3
   1 -15   7 973.607 605.612   3
   1  15   7 1154.33 784.696   1
   1  15   7 85.6027 513.084   2
   1  15   8 19511.6 2817.47   1
   1 -15   8 12622.0 2456.75   3
   1  15   8 15101.2 2374.16   2
   1  15   9-590.232 636.630   4
   1 -15   9 180.295 449.733   3
   1  15   9-289.903 768.859   2
   1  15   9-404.693 596.482   1
   1  15  10 11425.1 2791.30   4
   1 -15  10 10371.6 2392.34   3
   1  15  10 11695.1 2109.86   2
   1  15  10 11577.2 2378.39   1
   1 -15  11-1150.22 933.769   3
   1  15  11 1001.13 711.439   2
  -1  16  11 8640.18 2825.36   4
  -1  16  10 1548.56 1222.42   4
  -1  16   9 16129.6 3491.09   4
  -1  16   8 481.822 718.161   4
   1  16  -7 17798.2 2409.65   2
  -1  16   6 210.133 844.737   2
   1  16  -6 2853.90 951.395   2
   1  16  -5 18240.0 2355.44   2
  -1  16   5 7176.84 2295.55   2
  -1  16   4-1793.01 1279.40   2
   1  16  -4 861.746 631.549   2
   1  16  -3 57006.9 3743.86   1
   1  16  -3 59031.8 4452.90   2
   1  16  -2-438.951 692.031   2
  -1  16   2 250.754 973.726   2
   1  16  -2 363.505 391.389   1
   1  16  -1 88184.6 5410.45   1
   1  16  -1 98034.8 6151.73   2
   1  16   0 6607.38 1406.13   1
   1  16   0 4704.89 1325.38   2
   1  16   1 35252.5 3612.80   2
   1  16   1 36351.3 3402.56   1
   1  16   2 2374.34 1010.90   1
   1  16   2 3455.40 1229.77   2
   1  16   3 41291.3 4024.66   2
   1  16   3 46694.7 4150.45   1
   1  16   4-406.796 536.300   1
   1  16   4-150.013 477.705   2
   1  16   5 42921.9 4150.79   2
   1  16   5 47640.9 4346.05   1
   1  16   6 1090.20 749.382   1
   1 -16   6 57.5712 453.556   3
   1  16   6 1463.25 833.032   2
   1 -16   7 15059.7 2668.55   3
   1  16   7 18407.8 2691.83   2
   1  16   7 20561.6 2951.33   1
   1  16   8-156.296 578.380   2
   1 -16   8 1417.47 1179.70   3
   1  16   8-2.99659 588.993   1
   1 -16   9 1053.97 968.437   3
   1  16   9 4860.79 1681.47   4
   1  16   9 2276.82 1007.79   2
   1  16   9 3017.34 1247.93   1
   1 -16  10-1278.36 976.503   3
   1  16  10 828.938 862.326   4
   1  16  10 768.557 650.454   2
   1 -16  11 16017.4 3159.37   3
   1  16  11 8159.11 1928.38   2
  -1  17  10 6616.86 2394.09   4
  -1  17   9 711.374 789.972   4
  -1  17   8 9453.47 2716.37   4
   1  17  -7 3609.30 1139.97   2
   1  17  -6 26148.4 3066.43   2
   1  17  -5 84.0815 358.959   2
  -1  17   5 1428.26 1019.14   2
   1  17  -4 22829.5 2788.18   2
  -1  17   4 13861.7 3326.43   2
   1  17  -3 778.239 525.055   2
   1  17  -3 23.1632 287.810   1
   1  17  -2 24506.0 2545.88   1
   1  17  -2 24987.2 2972.95   2
   1  17  -1 551.676 624.375   2
   1  17  -1 341.129 499.340   1
   1  17   0 38115.7 3492.98   1
   1  17   0 38800.2 3833.74   2
   1  17   1 566.392 695.118   2
   1  17   1 347.685 484.150   1
   1  17   2 47845.4 4137.13   1
   1  17   2 42463.4 4201.36   2
   1  17   3 8070.42 1807.01   2
   1  17   3 6929.80 1613.23   1
   1  17   4 23620.0 3030.31   1
   1  17   4 22444.0 3030.16   2
   1  17   5 571.939 695.556   2
   1  17   5 835.542 663.249   1
   1  17   6 7468.40 1760.20   2
   1  17   6 9304.46 1970.67   1
   1  17   7 202.440 490.476   2
   1  17   7 106.174 547.226   1
   1 -17   8 23082.9 3559.45   3
   1  17   8 29271.1 3700.15   1
   1  17   8 25045.1 3301.73   2
   1 -17   9 364.446 682.403   3
   1  17   9 1070.36 963.906   4
   1  17   9 958.400 731.830   2
   1 -17  10 6863.87 2127.64   3
   1  17  10 7846.01 1885.58   2
   1  17  10 8889.47 2602.37   4
  -1  18   8-175.868 516.021   4
   1  18  -7 15113.6 2435.04   2
   1  18  -6 2263.11 943.649   2
   1  18  -5 16186.4 2511.76   2
   1  18  -4 246.157 420.154   2
   1  18  -3 20624.4 2831.34   2
   1  18  -2 2214.49 977.992   2
   1  18  -2 3.89818 303.872   1
   1  18  -1 22842.5 2648.51   1
   1  18  -1 22382.2 2971.40   2
   1  18   0-374.018 779.465   2
   1  18   0 214.349 412.264   1
   1  18   1 12659.6 2244.05   2
   1  18   1 8364.65 1732.59   1
   1  18   2-824.099 747.820   2
   1  18   2 442.301 556.320   1
   1  18   3 15769.9 2583.34   2
   1  18   3 15169.6 2426.84   1
   1  18   4 885.687 834.826   2
   1  18   4 2138.36 1082.45   1
   1  18   5 36145.1 3984.00   1
   1  18   5 37042.7 4072.19   2
   1  18   6 195.019 461.478   2
   1  18   6 513.253 932.738   1
   1  18   7 17462.5 2881.15   2
   1  18   7 20213.3 3135.73   1
   1  18   8 920.236 774.513   2
   1  18   9 7386.84 2370.85   4
   1  18   9 7735.35 1990.64   2
   1 -18  10-900.437 1056.21   3
   1  19  -7 345.924 497.081   2
   1  19  -6 18432.8 2798.86   2
   1  19  -5 1162.52 786.512   2
   1  19  -4 14822.1 2513.40   2
   1  19  -3 8.73417 333.925   2
   1  19  -2 5296.40 1481.58   2
   1  19  -1 1673.96 845.314   2
   1  19  -1-618.472 526.195   1
   1  19   0 13894.2 2470.82   2
   1  19   0 13585.4 2178.61   1
   1  19   1 241.962 482.153   2
   1  19   1-359.629 677.460   1
   1  19   2 24466.3 3315.37   2
   1  19   2 19385.7 2807.39   1
   1  19   3 1254.46 842.001   2
   1  19   3-742.743 667.176   1
   1  19   4 12253.8 2370.17   2
   1  19   4 7242.12 1843.49   1
   1  19   5-574.158 672.567   1
   1  19   5 1472.76 882.912   2
   1  19   6 16208.9 2860.20   2
   1  19   6 9470.76 2196.57   1
   1  19   7 215.199 557.498   2
   1  20  -6 205.097 365.424   2
   1  20  -5 4568.65 1468.90   2
   1  20  -4 226.037 505.850   2
   1  20  -3 15969.8 2758.25   2
   1  20  -2-227.411 472.334   2
   1  20  -1 12551.2 2410.40   2
   1  20  -1 10596.4 1939.07   1
   1  20   0 1229.99 833.389   2
   1  20   0-450.206 565.604   1
   1  20   1 5374.87 1534.81   2
   1  20   1 3333.21 1164.64   1
   1  20   2 1005.26 822.686   2
   1  20   2-617.116 630.008   1
   1  20   3 8153.25 2053.64   2
   1  20   3 9020.83 2020.25   1
   1  20   4-191.619 574.970   2
   1  20   4-1330.13 922.451   1
   1  20   5 17639.6 2971.22   1
   1  21  -6 19184.6 3149.49   2
   1  21  -5 2232.17 1127.41   2
   1  21  -4 7989.66 2015.98   2
   1  21  -3-205.805 552.541   2
   1  21  -2 6463.72 1908.04   2
   1  21  -1 468.366 695.716   2
   1  21   0 11668.1 2502.36   2
   1  21   1-1349.24 843.178   1
   1  21   2 18580.1 2943.21   1
   1  21   3 4123.12 1412.16   1
   1  21   4 4461.86 1470.43   1
  -2   0  15-411.064 734.571   3
  -2   0  15-2449.78 1594.32   4
  -2   0  14 4513.30 1707.67   3
  -2   0  14 8620.62 2539.01   4
  -2   0  13-18.8097 530.670   3
  -2   0  13 288.423 631.730   4
  -2   0  12 15748.6 2786.48   3
  -2   0  12 21047.8 3668.20   4
  -2   0  11 633.374 646.750   3
  -2   0  11-1985.84 1212.54   4
  -2   0  10 33411.7 4312.48   4
  -2   0  10 30685.8 3570.23   3
  -2   0   9-150.075 575.940   3
  -2   0   9-3579.67 1442.67   4
  -2   0   8 21787.2 3166.98   4
  -2   0   7 263.845 606.410   4
  -2   0   6 30022.0 3362.00   4
  -2   0   5-1222.83 713.145   4
  -2   0   4 355021. 14079.6   4
  -2   0   3-545.940 465.428   4
  -2   0   2 116080. 5888.68   4
   2   0  -2 126094. 5998.54   4
   2   0  -1-367.960 272.423   4
  -2   0   1-388.938 317.255   4
  -2   0   0 56585.4 3057.72   4
   2   0   0 55874.2 4686.28   1
  -2   0  -1 10.4878 105.421   4
   2   0   1-1533.84 838.774   1
   2   0   2 230783. 11179.1   1
   2   0   3 29.9421 413.405   1
   2   0   4 67576.1 5204.56   1
   2   0   5 80.8749 411.072   1
   2   0   6 35702.4 3665.85   2
   2   0   6 39580.5 3815.13   1
   2   0   7-44.3379 484.998   1
   2   0   7-225.629 422.941   2
   2   0   8 7693.88 1652.30   2
   2   0   8 10545.9 1816.09   1
   2   0   9-749.146 545.398   2
   2   0   9 298.439 421.736   1
   2   0  10 36757.9 3560.70   2
   2   0  10 36450.6 3331.18   1
   2   0  10 40480.1 4097.96   3
   2   0  11-1107.18 585.740   1
   2   0  11 158.999 564.364   3
   2   0  12 15158.7 1988.84   1
   2   0  12 16874.2 2797.97   3
   2   0  13-465.262 632.382   3
   2   0  14 4500.58 1625.49   3
  -2  -1  16-2407.18 1480.47   3
  -2  -1  15 9464.47 2540.41   3
  -2   1  15 16666.9 3652.21   4
  -2  -1  15 14573.3 3452.78   4
  -2  -1  14 341.137 650.456   3
  -2   1  14-684.469 872.186   4
  -2  -1  14-465.421 963.122   4
  -2   1  14-251.140 618.603   3
  -2   1  13 8770.40 2187.46   3
  -2  -1  13 10967.5 2575.35   3
  -2  -1  13 11964.4 2854.54   4
  -2   1  13 11592.9 2861.28   4
  -2   1  12 1016.01 649.958   3
  -2  -1  12 836.612 775.389   3
  -2  -1  12-590.579 908.394   4
  -2   1  12-184.710 937.161   4
  -2   1  11 11763.2 2637.61   4
  -2   1  11 17473.3 2729.44   3
  -2  -1  11 13052.3 2569.68   3
  -2  -1  11 15414.4 3034.50   4
   2   1 -10 280.570 356.026   2
  -2   1  10 890.976 754.274   3
  -2  -1  10 1116.12 857.206   3
  -2   1  10 174.075 1046.35   4
  -2  -1  10-319.080 1069.98   4
  -2   1   9 43354.3 4803.84   4
  -2  -1   9 45884.8 4901.81   4
  -2   1   9 54874.5 4383.40   3
  -2  -1   8 79.0699 551.920   4
  -2   1   8 89.3007 586.173   4
  -2   1   7 61500.6 5248.54   4
  -2  -1   7 59358.6 5128.05   4
  -2   1   6 2890.53 1038.85   4
  -2  -1   6 3554.31 1173.77   4
  -2   1   5 45676.7 4042.87   4
  -2  -1   5 47957.7 4058.11   4
   2  -1  -5 44111.5 2774.74   3
  -2   1   4 12971.6 1971.47   4
  -2  -1   4 11526.6 1790.53   4
   2  -1  -4 12151.2 1332.65   3
  -2   1   3 126225. 6652.69   4
  -2  -1   3 129757. 6571.22   4
  -2  -1   2 10521.7 1476.43   4
   2  -1  -2 12553.0 1580.01   4
   2   1  -2 11209.4 1546.65   4
  -2   1   2 11427.1 1571.17   4
  -2   1   1 123046. 5800.93   4
  -2  -1   1 121631. 5634.29   4
   2   1  -1 127659. 5767.88   4
   2   1  -1 142175. 7815.22   1
  -2   1   0-285.959 238.870   4
   2   1   0 57.9459 201.102   4
  -2  -1   0-505.373 274.856   4
   2   1   0-893.235 659.983   1
  -2   1  -1 157815. 5927.78   4
   2   1   1 157943. 5560.46   4
   2   1   1 157210. 8650.63   1
   2  -1   1 152074. 8549.09   1
  -2   1  -2 2940.27 424.673   4
   2   1   2 4051.83 1260.00   1
   2  -1   2 2569.22 999.753   1
   2   1   3 106929. 6817.31   1
   2  -1   3 115734. 7204.83   1
   2  -1   4 2745.89 1080.70   1
   2   1   4 1900.25 871.777   1
   2   1   5 49579.4 4373.32   2
   2  -1   5 54210.7 4601.41   1
   2   1   5 52001.6 4456.30   1
   2   1   6 1940.06 944.076   2
   2   1   6 2995.99 1000.87   1
   2  -1   6 2951.90 1078.11   1
  -2   1  -6 2903.61 413.939   4
   2   1   7 64455.7 5091.49   2
  -2   1  -7 72846.4 3287.00   4
   2   1   7 67245.3 5035.60   1
   2  -1   7 66563.4 5097.24   1
   2   1   8-454.820 508.067   2
   2  -1   8-113.124 336.145   2
   2   1   8-4.37590 262.799   1
   2  -1   8 156.383 402.336   1
   2  -1   9 13728.4 2231.36   2
   2  -1   9 13674.4 2024.84   1
   2   1   9 13056.4 1995.41   1
   2  -1   9 14812.4 2368.79   3
   2   1   9 13332.2 2122.53   2
   2  -1  10-90.8479 530.061   2
   2   1  10 366.244 446.417   1
   2  -1  10-758.524 518.715   1
   2  -1  10 410.650 505.698   3
   2   1  10-196.356 611.927   2
   2   1  11 9878.77 1642.17   1
   2  -1  11 11922.1 1753.18   1
   2   1  11 9522.34 2034.63   3
   2  -1  11 11719.9 2284.91   3
   2   1  12-151.072 312.805   1
   2   1  12 309.075 790.906   3
   2  -1  12 559.328 883.964   3
   2   1  13 16600.4 2923.20   3
   2  -1  13 21445.7 3267.56   3
   2   1  14-122.472 552.866   3
   2  -1  14 2018.17 1110.81   3
  -2  -2  16 3848.30 1805.31   3
  -2  -2  15-83.1667 644.599   3
  -2   2  15 419.774 886.765   4
  -2  -2  15-1996.31 1413.21   4
  -2  -2  14 9680.92 2602.08   3
  -2  -2  14 8882.52 2614.60   4
  -2   2  14 6294.17 2185.58   4
  -2   2  13-514.327 743.959   3
  -2  -2  13-444.614 673.826   3
  -2  -2  13 408.799 918.406   4
  -2   2  13 307.853 653.259   4
  -2   2  12 18883.5 2939.99   3
  -2  -2  12 27826.2 3930.34   3
  -2   2  12 27595.6 4255.29   4
  -2  -2  12 25822.4 4111.45   4
  -2   2  11 106.082 693.665   4
  -2   2  11-133.792 366.455   3
  -2  -2  11 453.480 653.341   3
  -2  -2  11 405.484 711.812   4
   2   2 -10 44806.3 3189.98   2
  -2   2  10 48120.2 5242.38   4
  -2  -2  10 47522.4 5182.25   4
  -2   2  10 48124.9 4278.55   3
  -2  -2  10 51709.4 4935.57   3
   2   2  -9 2281.05 818.208   2
  -2   2   9 1961.43 940.922   3
  -2  -2   9 484.968 841.224   4
  -2   2   9 1140.88 823.210   4
  -2   2   8 34123.4 3998.65   4
  -2  -2   8 31220.7 3849.39   4
   2   2  -8 31901.3 2964.93   2
   2   2  -7 119.192 521.652   2
  -2   2   7 82.2630 798.094   4
  -2  -2   7 10.9821 558.666   4
  -2   2   6 40707.8 4029.17   4
  -2  -2   6 43337.1 4042.75   4
   2  -2  -6 38363.8 2480.08   3
   2  -2  -5 439.975 292.008   3
  -2   2   5-400.782 695.603   4
  -2  -2   5-52.2584 385.083   4
  -2  -2   4 162878. 8178.69   4
  -2   2   4 169041. 8480.87   4
   2  -2  -4 169474. 6470.61   3
  -2   2   3 23960.3 2542.34   4
  -2  -2   3 21929.8 2357.57   4
  -2   2   2 74756.4 4525.36   4
   2   2  -2 71035.1 4391.89   4
  -2  -2   2 71192.1 4270.45   4
   2   2  -2 77374.0 5477.50   1
  -2   2   1-275.682 408.384   4
   2   2  -1 40.3269 502.080   1
   2   2  -1 72.0769 220.656   4
  -2  -2   1 52.3783 267.648   4
   2   2   0 40153.0 2564.78   4
   2   2   0 41032.7 3880.44   1
  -2   2   0 40933.3 2725.93   4
   2   2   1 50.2459 515.724   1
  -2   2  -1 246.698 214.084   4
   2   2   1 547.246 217.067   4
  -2   2  -2 146208. 5425.12   4
   2   2   2 131034. 7787.10   2
   2   2   2 149394. 8202.20   1
   2  -2   2 140386. 8220.01   1
   2   2   3 16231.3 2433.60   2
   2  -2   3 12026.0 2164.26   1
   2   2   3 12261.3 2120.97   1
   2   2   4 118745. 7214.88   2
  -2   2  -4 123049. 4441.82   4
   2   2   4 114657. 7170.55   1
   2  -2   4 130793. 7783.36   1
   2   2   5 1595.16 875.117   2
   2   2   5 1579.55 810.566   1
  -2   2  -5 3018.77 483.636   4
   2  -2   5 2580.71 1018.40   1
   2   2   6 17793.6 2496.89   1
   2   2   6 19250.7 2624.56   2
  -2   2  -6 21037.6 1530.38   4
   2  -2   6 18282.2 2592.07   1
   2   2   7 3907.24 1135.84   2
   2  -2   7 4829.65 1302.63   1
   2   2   7 2511.31 1029.52   1
   2   2   8 36567.3 3599.61   2
   2  -2   8 35001.2 3512.98   1
   2  -2   8 42180.2 3859.18   3
   2   2   8 40076.9 3627.43   1
   2  -2   9-686.489 577.752   2
   2   2   9-33.1016 320.144   1
   2  -2   9-21.0312 291.964   1
   2  -2   9 359.101 626.772   3
   2   2   9-512.877 512.063   2
   2   2  10 52003.1 4168.12   2
   2  -2  10 52206.1 4512.26   2
   2   2  10 54005.8 4123.74   1
   2  -2  10 54803.7 4152.91   1
   2  -2  10 57608.8 4987.40   3
   2   2  11 493.916 490.739   1
   2  -2  11-53.5038 274.626   1
   2   2  12 27611.9 2820.17   1
   2   2  12 24163.9 3492.16   3
   2  -2  12 22980.0 3287.06   3
   2   2  13 952.046 757.107   3
   2  -2  13 1667.45 987.466   3
   2   2  14 6190.76 1846.72   3
   2  -2  14 9627.96 2255.19   3
  -2  -3  16 2673.55 1513.90   3
  -2  -3  15 10668.8 2832.03   3
  -2   3  15 12289.7 3158.01   4
  -2  -3  14-487.951 812.380   3
  -2   3  14 220.790 733.478   4
  -2  -3  14-1750.97 1268.92   4
  -2  -3  13 29549.0 4366.14   3
  -2   3  13 26479.4 4326.85   4
  -2  -3  13 26607.9 4329.27   4
  -2   3  12-688.241 627.164   3
  -2  -3  12 1571.07 1119.03   3
  -2   3  12-98.7567 586.054   4
  -2  -3  12 350.117 738.580   4
  -2  -3  11 23544.2 3526.02   3
  -2  -3  11 25401.8 3898.47   4
  -2   3  11 22701.4 3739.12   4
  -2   3  11 23477.5 2998.88   3
  -2   3  10 949.144 676.933   3
  -2   3  10 457.654 749.076   4
  -2  -3  10-442.555 724.890   4
   2   3  -9 49225.9 3473.87   2
  -2   3   9 47573.8 5082.62   4
  -2  -3   9 54587.3 5382.31   4
  -2   3   9 57348.4 4231.86   3
   2   3  -8-497.851 436.292   2
  -2   3   8-76.9625 860.812   4
  -2  -3   8-1278.16 894.241   4
   2   3  -7 51954.7 3930.23   2
   2  -3  -7 48039.8 2912.27   3
  -2  -3   7 48600.6 4625.67   4
  -2   3   7 51231.8 4825.88   4
   2   3  -6 4217.14 1050.57   2
  -2   3   6 3804.10 1184.96   4
  -2  -3   6 3181.19 1012.36   4
   2  -3  -6 2793.91 583.536   3
   2   3  -5 73565.3 5058.52   2
  -2   3   5 74184.3 5446.25   4
  -2  -3   5 77979.4 5419.36   4
   2  -3  -5 74262.0 3395.66   3
   2   3  -4 5383.86 1366.29   1
   2  -3  -4 3814.57 594.971   3
   2   3  -4 4057.93 1080.01   2
  -2   3   4 3244.33 985.128   4
  -2  -3   4 3552.83 1038.87   4
  -2   3   3 49820.1 3905.59   4
  -2  -3   3 46972.1 3659.31   4
   2   3  -3 50585.3 4193.63   2
   2   3  -3 55729.2 4532.70   1
   2   3  -2 42.2266 303.319   2
   2   3  -2 1951.15 793.257   1
  -2   3   2 2438.47 798.811   4
   2   3  -1 74232.8 5337.85   2
   2   3  -1 70621.2 4146.84   4
   2   3  -1 75681.1 5428.23   1
  -2   3   1 72805.6 4290.34   4
   2   3   0 133.598 429.099   2
   2   3   0 214.694 458.554   1
  -2   3   0 51.5272 256.208   4
   2   3   0 322.674 251.684   4
  -2   3  -1 73237.0 3802.24   4
   2   3   1 73902.9 5368.44   2
   2   3   1 74574.1 3507.52   4
   2   3   1 74974.8 5395.69   1
   2   3   2 2006.24 825.132   2
   2   3   2 1679.04 333.668   4
   2   3   2 608.091 628.991   1
   2   3   3 17546.9 2473.32   1
   2   3   3 19674.6 2662.22   2
   2  -3   3 21576.3 2882.50   1
   2   3   4 3150.08 1147.07   2
   2  -3   4 2382.30 938.664   1
   2   3   4 3305.97 1156.78   1
  -2   3  -5 100289. 4437.56   4
   2   3   5 99804.6 6405.90   1
   2  -3   5 110372. 7036.25   1
   2   3   5 96182.1 6359.99   2
   2   3   6 6936.70 1526.67   2
  -2   3  -6 4677.29 812.029   4
   2  -3   6 3420.47 1166.05   1
   2   3   6 4390.49 1204.48   1
   2   3   7 99357.6 6413.52   2
   2   3   7 103735. 6427.95   1
   2  -3   7 114993. 6994.95   1
   2  -3   7 98294.4 6160.46   3
   2  -3   8 1506.85 717.379   1
   2   3   8 1856.84 867.799   1
   2  -3   8 1425.28 877.378   3
   2   3   8 2417.97 849.436   2
   2   3   9 29823.3 3101.87   2
   2   3   9 29597.3 3069.76   1
   2  -3   9 32328.6 3236.79   1
   2  -3   9 32150.8 3493.60   3
   2  -3  10 66.3893 379.473   2
   2  -3  10 510.892 497.141   1
   2   3  10 424.161 505.857   1
   2   3  10-663.292 522.910   2
   2  -3  10-272.624 498.312   3
   2   3  11 36212.6 3308.05   1
   2  -3  11 35806.1 4022.48   3
   2   3  12-85.0235 412.015   1
   2  -3  12 31.9771 476.838   3
   2   3  13 28303.6 3055.79   1
   2   3  13 28429.2 3841.25   3
   2  -3  13 29010.6 3829.17   3
   2   3  14 650.318 770.369   3
   2  -3  14 1316.74 824.279   3
  -2  -4  16 7095.68 2490.94   3
  -2  -4  15 554.688 890.275   3
  -2   4  15 270.029 827.449   4
  -2  -4  14 13421.2 3122.72   3
  -2   4  14 11950.3 3112.28   4
  -2  -4  13 1943.76 1181.67   3
  -2   4  13 1310.94 1168.58   4
  -2   4  12 42525.7 5401.48   4
  -2  -4  12 41768.3 5123.19   3
  -2   4  11-23.8735 455.083   3
  -2  -4  11 775.460 642.919   3
  -2   4  11 642.454 602.251   4
  -2   4  10 52077.7 5625.96   4
  -2   4  10 48516.1 4061.32   3
  -2   4   9 1876.83 741.673   3
  -2   4   9 767.909 833.729   4
  -2  -4   9 2304.51 1188.22   4
   2   4  -9 475.946 350.649   2
   2   4  -8 28211.1 2607.07   2
  -2   4   8 29264.8 3817.97   4
  -2  -4   8 32090.5 3916.94   4
   2   4  -7 1278.16 639.170   2
  -2   4   7 346.790 650.673   4
   2  -4  -7 1859.11 493.781   3
   2   4  -6 64112.3 4462.70   2
  -2   4   6 60395.0 5137.91   4
   2  -4  -6 61746.4 2986.15   3
   2   4  -6 58061.6 4670.18   1
   2   4  -5-675.590 551.041   2
   2   4  -5-670.600 568.575   1
  -2   4   5 568.810 637.103   4
   2  -4  -5 8.27475 65.4292   3
   2   4  -4 65577.0 4702.39   2
  -2   4   4 57191.4 4577.17   4
   2   4  -4 61404.5 4777.25   1
   2  -4  -4 61140.0 2618.82   3
   2   4  -3 434.261 566.263   2
   2  -4  -3 614.612 222.863   3
  -2   4   3 1046.97 579.840   4
   2   4  -2 41648.5 3746.14   2
  -2   4   2 39845.7 3286.16   4
   2   4  -2 35574.4 3592.30   1
   2   4  -1 545.117 443.313   1
   2   4  -1-326.496 647.460   2
  -2   4   1 104.061 293.144   4
   2   4  -1 207.179 209.853   4
  -2   4   0 16558.8 1804.33   4
   2   4   0 20466.7 2660.77   2
   2   4   0 18241.8 1778.04   4
   2   4   0 17980.4 2486.44   1
   2   4   1 685.899 520.709   2
   2   4   1 272.730 323.525   1
   2   4   1 1004.47 369.131   4
   2   4   2 89616.9 5899.18   2
   2   4   2 79415.6 3586.72   4
   2   4   2 85188.5 5787.05   1
   2   4   3-348.298 493.267   2
   2   4   3 349.340 492.450   1
   2   4   4 105412. 6666.63   2
   2   4   4 113341. 4013.46   4
   2   4   4 100571. 6575.54   1
   2  -4   4 117556. 7459.94   1
   2   4   5 4401.91 517.530   4
   2  -4   5 6048.96 1601.10   1
   2   4   5 3324.74 1090.47   1
   2   4   5 4167.14 1187.49   2
   2   4   6 51606.4 4283.83   1
   2  -4   6 53680.4 4730.67   1
   2   4   6 50101.3 4278.27   2
   2   4   6 50913.1 2413.52   4
  -2   4  -6 49195.4 3253.80   4
   2  -4   6 49770.2 3938.91   3
   2  -4   7 722.215 688.101   1
   2   4   7 1101.13 699.152   1
   2   4   7 694.220 285.799   4
   2  -4   7 620.800 546.946   3
   2   4   7-206.584 435.769   2
   2   4   8 49471.8 4154.66   2
   2   4   8 53931.4 4255.06   1
   2  -4   8 52357.0 4424.97   1
   2  -4   8 54916.5 4469.80   3
   2  -4   9 1189.96 662.949   1
   2   4   9 1090.64 708.832   1
   2   4   9 1314.11 582.618   2
   2  -4   9 3008.30 1126.17   3
   2   4  10 62252.9 4544.39   2
   2   4  10 71165.8 4887.90   1
   2  -4  10 65508.0 4570.09   1
   2  -4  10 74688.0 5686.76   3
   2   4  11 576.424 535.500   1
   2  -4  11 338.320 604.604   3
   2   4  12 30680.3 3216.48   1
   2  -4  12 34197.1 4027.94   3
   2   4  13 733.803 539.678   1
   2   4  13-1212.44 944.436   3
   2  -4  13-657.069 684.987   3
   2   4  14 5543.73 1835.00   3
   2  -4  14 5635.52 1843.65   3
  -2  -5  15 9679.57 2751.28   3
  -2   5  15 10541.7 3048.82   4
  -2  -5  14 3707.15 1749.98   3
  -2   5  14 3772.43 1742.18   4
  -2  -5  13 26591.4 4283.77   3
  -2   5  13 23714.8 4177.78   4
  -2  -5  12 1777.10 1287.06   3
  -2   5  12 23.3627 905.713   4
  -2   5  11 28170.3 4252.51   4
  -2   5  10 1135.48 685.096   3
  -2   5  10-291.777 893.089   4
   2   5  -9 34876.9 2629.86   2
  -2   5   9 36713.7 4524.45   4
   2   5  -9 38197.1 3619.30   1
  -2   5   9 39692.4 3135.34   3
   2   5  -8-619.742 559.649   1
   2   5  -8 589.621 471.664   2
   2   5  -7 74257.2 4628.37   2
  -2   5   7 76467.5 6150.43   4
   2   5  -7 73643.4 5249.84   1
   2   5  -6 575.276 521.385   1
  -2   5   6 94.7973 541.118   4
   2   5  -6 1335.28 647.888   2
   2   5  -5 43330.0 3608.48   2
   2   5  -5 37301.8 3594.71   1
   2  -5  -5 40879.1 1864.83   3
  -2   5   5 43447.5 4149.84   4
   2   5  -4 4076.30 1143.71   2
   2   5  -4 3709.41 1121.21   1
  -2   5   4 4198.59 1186.67   4
   2  -5  -4 3357.69 357.267   3
   2   5  -3 58573.0 4505.54   2
  -2   5   3 53259.0 4266.33   4
   2   5  -3 66215.0 4823.06   1
   2  -5  -3 58630.0 2237.47   3
   2   5  -2 218.822 405.103   2
  -2   5   2-169.490 456.295   4
   2   5  -2 1220.92 707.443   1
   2   5  -1 86198.6 5704.52   2
  -2   5   1 81697.4 4872.12   4
   2   5  -1 79437.9 5513.23   1
   2   5   0 1138.83 642.336   2
   2   5   0 400.999 474.937   1
   2   5   0 2095.07 619.304   4
   2   5   1 61756.0 4837.10   2
   2   5   1 60075.1 3378.47   4
   2   5   1 63070.5 4823.94   1
   2   5   2 4548.22 1280.11   2
   2   5   2 5320.90 1364.96   1
   2   5   3 33331.8 3409.96   2
   2   5   3 36090.9 3566.99   1
   2  -5   3 31417.8 2593.80   3
   2  -5   4-1070.94 784.731   1
   2  -5   4 1128.99 559.640   3
   2   5   4 1322.58 734.949   1
   2   5   4 736.032 701.548   2
   2   5   5 75426.3 5398.44   2
   2   5   5 80132.1 3561.02   4
   2   5   5 72575.7 5300.11   1
   2  -5   5 79814.5 6077.32   1
   2  -5   5 72642.5 4729.12   3
   2  -5   6 50.0713 406.330   1
   2   5   6 394.065 467.715   1
   2   5   6 872.901 319.833   4
   2   5   6 669.531 510.583   2
   2  -5   6 689.684 473.222   3
   2   5   7 50044.1 4163.03   2
   2   5   7 52584.2 2949.15   4
   2   5   7 47369.3 4083.65   1
   2  -5   7 52343.5 4645.86   1
   2  -5   7 49716.1 4123.24   3
   2  -5   8 2831.76 1065.19   1
   2   5   8 3363.47 1077.47   1
   2   5   8 3494.37 1041.81   2
   2  -5   8 3615.60 1154.61   3
   2   5   9 43222.3 3711.50   2
   2   5   9 44302.0 3820.03   1
   2  -5   9 46261.8 3979.99   1
   2  -5   9 47287.8 4297.69   3
   2   5  10 608.281 569.106   1
   2   5  10-198.416 419.628   2
   2  -5  10 563.642 659.000   3
   2   5  11 29467.6 2808.67   2
   2   5  11 34499.7 3360.26   1
   2  -5  11 33074.3 3860.17   3
   2   5  12 4311.56 1252.83   1
   2  -5  12 4139.72 1392.15   3
   2   5  13 22232.4 2883.36   1
   2  -5  13 24038.6 3502.60   3
   2   5  14-188.675 452.802   1
   2   5  14 2000.55 1141.17   3
  -2  -6  15 588.424 1150.28   3
  -2  -6  14 8887.57 2683.41   3
  -2   6  14 8389.79 2593.61   4
  -2   6  13 743.003 552.592   4
  -2   6  12 26056.1 4264.72   4
  -2   6  11 1656.60 1294.68   4
  -2   6  10 22974.0 3715.78   4
   2   6  -9 581.390 417.581   1
  -2   6   9 1490.26 1088.96   4
   2   6  -9 675.028 376.003   2
   2   6  -8 16179.8 2203.69   1
   2   6  -8 18392.5 1931.12   2
  -2   6   8 19590.8 3180.97   4
   2   6  -7 4450.82 1220.62   1
  -2   6   7 5501.94 1642.04   4
   2   6  -7 4500.50 1023.23   2
   2   6  -6 57834.2 4009.69   2
  -2   6   6 56559.6 5074.28   4
   2   6  -6 51288.0 4156.00   1
  -2   6   5 8857.42 1936.83   4
   2   6  -5 7239.93 1529.24   1
   2   6  -5 12396.2 1808.38   2
   2   6  -4 79498.4 5218.08   2
  -2   6   4 76320.4 5544.47   4
   2   6  -4 85972.2 5533.14   1
  -2   6   3-661.566 526.737   4
   2   6  -3 161.232 370.683   1
   2   6  -3 271.179 481.483   2
   2   6  -2 78162.1 5328.97   1
   2   6  -2 78227.6 5299.50   2
  -2   6   2 76905.6 5051.20   4
   2  -6  -2 77181.9 2709.02   3
   2   6  -1 5092.11 1286.06   1
   2  -6  -1 3828.77 527.903   3
   2   6  -1 4672.73 1250.34   2
   2   6   0 49938.8 4196.58   2
   2   6   0 46381.3 4060.02   1
   2  -6   0 48274.3 2581.32   3
   2   6   1 4192.73 1178.47   1
   2  -6   1 2941.02 656.283   3
   2   6   1 1987.12 853.114   2
   2   6   2 94577.5 6212.26   2
   2   6   2 101536. 6324.39   1
   2  -6   2 102272. 4897.80   3
   2  -6   3 200.388 262.795   3
   2   6   3 637.217 694.768   2
   2   6   3 364.695 343.332   1
   2   6   4 73875.5 5276.35   2
   2   6   4 69596.1 5152.44   1
   2  -6   4 74483.0 4465.21   3
   2   6   5 32118.2 3339.87   1
   2   6   5 33745.7 3404.97   2
   2   6   5 37801.4 2453.52   4
   2  -6   5 30946.1 2862.20   3
   2  -6   5 33700.1 3812.09   1
   2   6   6 57487.8 4524.61   2
   2   6   6 65524.1 3566.23   4
   2   6   6 59034.4 4588.46   1
   2  -6   6 59003.4 5231.79   1
   2  -6   6 62491.7 4443.43   3
   2   6   7-30.1487 463.263   1
   2   6   7-27.7442 151.434   4
   2   6   7-104.763 612.638   2
   2  -6   7-1210.70 775.885   1
   2  -6   7-148.901 420.295   3
   2   6   8 16278.6 2244.21   2
   2   6   8 19787.0 2520.68   1
   2  -6   8 23699.1 2926.63   1
   2  -6   8 19587.0 2604.69   3
   2  -6   9-217.548 395.432   1
   2   6   9 219.747 436.639   1
   2   6   9-323.041 472.339   2
   2  -6   9 297.167 439.050   3
   2   6  10 33015.8 3074.32   2
   2   6  10 32015.4 3280.64   1
   2  -6  10 38564.5 4000.88   3
   2   6  11 775.229 617.542   1
   2   6  11 392.590 445.187   2
   2  -6  11-506.174 651.194   3
   2   6  12 15626.1 2381.15   1
   2  -6  12 14767.9 2645.27   3
   2  -6  13 1137.82 890.946   3
   2   6  13 808.069 645.615   1
   2   6  14 6323.54 1604.78   1
  -2   7  14-1603.66 1317.20   4
  -2   7  13 14736.6 3372.72   4
  -2   7  12 1798.38 1210.61   4
  -2   7  11 16186.3 3213.92   4
  -2   7  10 361.416 681.684   4
   2   7  -9 22931.1 1937.77   2
  -2   7   9 15888.8 2977.71   4
  -2   7   8 597.719 544.968   4
   2   7  -8 1281.38 566.668   1
   2   7  -8 1627.33 570.998   2
   2   7  -7 43555.3 3243.89   2
  -2   7   7 54144.2 5183.33   4
   2   7  -7 44955.5 3642.85   1
  -2   7   6 139.507 512.175   4
   2   7  -6 110.297 338.612   1
   2   7  -6-484.864 402.192   2
   2   7  -5 54988.3 4038.36   2
  -2   7   5 62289.4 5168.01   4
   2   7  -5 60012.3 4419.03   1
   2   7  -4-524.844 474.156   1
   2   7  -4-772.857 554.563   2
  -2   7   4-95.7354 511.223   4
   2   7  -3 90143.5 5582.79   2
  -2   7   3 85223.8 5798.65   4
   2   7  -3 89676.8 5692.08   1
   2   7  -2 17508.0 2344.69   1
   2   7  -2 14247.8 2085.02   2
   2   7  -1 133269. 7326.01   2
   2   7  -1 136047. 7425.66   1
   2  -7  -1 131106. 4618.91   3
   2   7   0 11903.2 1964.99   1
   2  -7   0 13210.4 1159.04   3
   2   7   0 13055.2 2070.08   2
   2   7   1 79032.3 5437.10   2
   2   7   1 79345.0 5456.86   1
   2  -7   1 76928.9 3770.66   3
   2   7   2 4737.19 1261.75   1
   2   7   2 3505.22 1104.66   2
   2  -7   2 3759.87 771.019   3
   2   7   3 76722.7 5409.92   2
   2   7   3 76458.1 5349.31   1
   2  -7   3 79959.1 4372.37   3
   2   7   4-578.638 573.381   1
   2   7   4 826.441 618.114   2
   2  -7   4 475.859 428.319   3
   2  -7   5 60700.5 5277.60   1
   2   7   5 58543.6 4556.39   2
   2   7   5 51989.5 4313.57   1
   2  -7   5 58985.2 4059.02   3
   2  -7   6 766.472 912.382   1
   2   7   6 823.208 403.138   4
   2   7   6 853.975 682.199   1
   2   7   6 1210.62 693.486   2
   2  -7   6 892.923 602.511   3
   2  -7   7 22280.4 3061.03   1
   2   7   7 18448.5 2397.78   2
   2   7   7 18186.5 1952.63   4
   2   7   7 18713.6 2464.61   1
   2  -7   7 19085.6 2448.77   3
   2   7   8 488.044 520.765   1
   2  -7   8-1077.82 708.112   1
   2   7   8 855.605 576.526   2
   2  -7   8 259.548 555.733   3
   2   7   9 21012.3 2498.52   2
   2   7   9 23767.4 2763.26   1
   2  -7   9 24742.8 3075.51   3
   2   7  10 1697.04 837.461   1
   2   7  10 609.059 538.557   2
   2  -7  10 211.841 684.496   3
   2  -7  11 12118.2 2334.89   3
   2   7  11 12407.5 2125.57   1
   2   7  11 12909.9 1817.49   2
   2  -7  12 1977.54 962.345   3
   2   7  12 1566.67 795.920   1
   2  -7  13 14816.9 2797.37   3
   2   7  13 10870.2 2112.78   1
   2   7  14-456.129 628.002   1
  -2   8  14 4703.91 2048.49   4
  -2   8  13-392.703 817.981   4
  -2   8  12 7697.94 2343.14   4
  -2   8  11-562.796 844.267   4
  -2   8  10 19626.2 3534.76   4
   2   8  -9 5427.79 905.474   2
  -2   8   9 3482.97 1488.04   4
   2   8  -8 24871.5 2174.32   2
  -2   8   8 28275.9 3888.55   4
   2   8  -8 21588.0 2275.18   1
   2   8  -7 1605.70 675.174   1
  -2   8   7 292.888 589.810   4
   2   8  -7 588.478 385.714   2
   2   8  -6 45704.2 3380.35   2
   2   8  -6 38371.6 3347.95   1
  -2   8   6 44779.5 4556.36   4
   2   8  -5 606.341 460.622   1
  -2   8   5 222.441 426.757   4
   2   8  -5 958.534 535.013   2
   2   8  -4 77906.7 4930.65   2
  -2   8   4 70396.8 5482.01   4
   2   8  -4 72919.0 4921.23   1
   2   8  -3-17.9463 332.302   1
   2   8  -3 2038.01 834.087   2
   2   8  -2 119532. 6671.99   2
   2   8  -2 112418. 6603.84   1
   2   8  -1 3859.10 1065.50   1
   2  -8  -1 4104.30 480.119   3
   2   8  -1 4599.70 1202.86   2
   2   8   0 94993.7 5921.37   1
   2   8   0 85633.3 5661.37   2
   2  -8   0 87650.3 3750.71   3
   2  -8   1 13820.3 1334.55   3
   2   8   1 13113.2 2043.77   1
   2   8   1 12114.7 1969.42   2
   2   8   2 70152.3 5110.09   2
   2   8   2 76139.5 5277.47   1
   2  -8   2 78526.0 4035.77   3
   2   8   3 2992.22 1034.66   1
   2   8   3 3552.14 1072.33   2
   2  -8   3 3280.60 801.936   3
   2   8   4 88842.7 5832.28   2
   2   8   4 94873.1 6031.26   1
   2  -8   4 98489.1 5268.86   3
   2   8   5 6490.03 1461.60   1
   2   8   5 8838.80 1673.29   2
   2  -8   5 8484.33 1443.29   3
   2   8   6 5267.03 1371.26   1
   2   8   6 8255.97 1350.70   4
   2   8   6 8164.06 1585.23   2
   2  -8   6 7933.17 1896.15   1
   2  -8   6 8993.98 1582.40   3
   2  -8   7 1085.53 769.896   1
   2   8   7 663.459 450.810   4
   2   8   7 393.075 438.795   2
   2   8   7 197.849 417.332   1
   2  -8   7 302.120 450.918   3
   2   8   8 28043.6 2911.36   2
   2   8   8 26043.0 2913.05   1
   2  -8   8 26201.0 3213.10   1
   2  -8   8 28058.4 3176.49   3
   2  -8   9 1287.82 720.943   3
   2   8   9 1227.32 619.300   1
   2   8   9 1482.06 665.718   2
   2  -8  10 21082.5 2992.10   3
   2   8  10 21871.5 2458.89   2
   2   8  10 21823.5 2799.32   1
   2  -8  11 2055.35 1039.32   3
   2   8  11 586.932 643.796   1
   2   8  11 1577.69 675.349   2
   2  -8  12 8436.49 2079.06   3
   2   8  12 7160.88 1722.24   1
   2  -8  13 646.303 711.824   3
   2   8  13 766.643 716.827   1
   2   8  14 10025.6 2059.10   1
  -2   9  13 6734.02 2398.05   4
  -2   9  12 57.4292 1226.78   4
  -2   9  11 21013.8 3844.87   4
  -2   9  10-286.740 740.427   4
   2   9  -9 24870.8 2062.67   2
  -2   9   9 27142.3 4065.97   4
  -2   9   8-724.325 828.966   4
   2   9  -8 750.768 383.529   2
   2   9  -7 19541.1 2026.63   2
  -2   9   7 21068.7 3314.78   4
   2   9  -7 22697.6 2268.30   1
   2   9  -6 8042.82 1401.67   1
  -2   9   6 7091.73 1935.28   4
   2   9  -6 7922.23 1331.47   2
  -2   9   5 55449.6 5091.02   4
   2   9  -5 55623.8 3898.31   2
   2   9  -5 57552.6 4112.23   1
  -2   9   4 591.530 622.416   4
   2   9  -4 356.250 337.647   2
   2   9  -4 932.304 540.708   1
   2   9  -3 67776.8 4582.71   2
   2   9  -3 64815.8 4597.67   1
   2   9  -2 44.3538 345.445   2
   2   9  -2 237.774 561.468   1
   2   9  -1 69591.9 4917.61   2
   2   9  -1 69424.7 4880.30   1
   2  -9  -1 74977.6 2928.87   3
   2  -9   0 530.976 275.744   3
   2   9   0 604.749 505.552   1
   2   9   0 773.752 563.723   2
   2   9   1 51296.8 4118.74   2
   2   9   1 49003.7 4080.23   1
   2  -9   1 49124.4 2825.94   3
   2  -9   2-344.207 271.689   3
   2   9   2-103.058 510.031   1
   2   9   2-163.963 520.758   2
   2   9   3 86443.5 5620.06   2
   2   9   3 78405.6 5368.36   1
   2  -9   3 80272.7 4473.54   3
   2   9   4 14102.3 2142.40   1
   2  -9   4 13230.6 1734.57   3
   2   9   4 11917.9 1942.24   2
   2   9   5 45947.0 3911.12   2
   2   9   5 45447.9 3938.68   1
   2  -9   5 47719.9 3662.87   3
   2  -9   6 1114.45 597.135   3
   2   9   6 1060.05 567.605   1
   2  -9   6 459.486 806.295   1
   2   9   6 594.847 492.696   2
   2   9   7 26990.0 2892.09   2
   2   9   7 30988.6 3191.89   1
   2  -9   7 32187.8 3868.05   1
   2   9   7 30293.6 2939.98   4
   2  -9   7 26838.1 3000.34   3
   2  -9   8-349.223 499.680   3
   2   9   8-193.313 373.570   1
   2   9   8 623.624 500.721   2
   2  -9   9 11651.4 2175.79   3
   2   9   9 17462.4 2476.61   1
   2   9   9 16454.1 2177.55   2
   2  -9  10 774.026 786.838   3
   2   9  10 70.5043 521.740   1
   2   9  10-1435.73 701.116   2
   2  -9  11 11503.1 2310.49   3
   2   9  11 11680.9 2218.44   1
   2   9  11 12656.0 1873.44   2
   2  -9  12-696.108 753.243   3
   2   9  12 861.279 717.700   1
   2  -9  13 8350.31 2132.36   3
   2   9  13 8598.82 1932.20   1
  -2  10  13 1190.03 1001.29   4
  -2  10  12 9050.99 2731.78   4
  -2  10  11 2230.25 1387.75   4
  -2  10  10 24663.4 4080.76   4
  -2  10   9 3005.64 1409.98   4
   2  10  -8 29080.8 2401.04   2
  -2  10   8 32073.1 4320.25   4
   2  10  -7 164.722 209.065   1
   2  10  -7 506.114 400.556   2
   2  10  -6 34633.1 2830.63   2
  -2  10   6 31557.9 4025.84   4
   2  10  -6 31583.1 2727.60   1
  -2  10   5 1969.86 1049.92   4
   2  10  -5 1822.46 664.155   1
   2  10  -5 2328.97 760.985   2
   2  10  -4 55052.9 3876.49   2
   2  10  -4 42421.5 3492.00   1
   2  10  -3 2347.89 837.977   1
   2  10  -3 1568.62 658.978   2
   2  10  -2 50357.5 3941.37   2
   2  10  -2 46219.2 3770.64   1
   2  10  -1 1117.85 677.172   1
   2  10  -1 773.632 619.860   2
   2  10   0 51069.4 4085.12   2
   2  10   0 52199.3 4078.91   1
   2 -10   0 49082.0 2673.18   3
   2 -10   1 6927.03 999.102   3
   2  10   1 9083.80 1649.40   1
   2  10   1 5617.50 1356.09   2
   2  10   2 35656.6 3418.25   2
   2  10   2 35749.5 3417.49   1
   2 -10   2 35687.0 2585.10   3
   2 -10   3 3296.35 805.517   3
   2  10   3 2282.40 837.491   1
   2  10   3 2255.43 973.934   2
   2  10   4 37235.0 3507.02   2
   2  10   4 42569.7 3778.99   1
   2 -10   4 43289.1 3310.03   3
   2 -10   5 347.220 394.235   3
   2  10   5 2.15145 555.454   1
   2  10   5 198.508 432.064   2
   2  10   6 30567.8 3156.89   1
   2  10   6 24886.1 2777.42   2
   2 -10   6 25349.8 2805.96   3
   2 -10   7 1189.95 712.896   3
   2 -10   7 1132.25 760.651   1
   2  10   7 468.090 690.450   1
   2  10   7 1610.54 724.300   4
   2  10   7 1045.67 686.164   2
   2  10   8 34165.6 3265.33   2
   2  10   8 40656.7 3835.00   1
   2 -10   8 31723.6 3497.49   3
   2 -10   9 5498.70 1453.68   3
   2  10   9 5210.62 1477.66   1
   2  10   9 5790.76 1323.80   2
   2  10  10 24664.9 2748.95   2
   2  10  10 26276.4 3276.82   1
   2 -10  10 28006.8 3545.76   3
   2 -10  11 1319.45 904.070   3
   2  10  11 2013.04 1046.57   1
   2  10  11 2382.47 949.118   2
   2 -10  12 17371.2 2995.69   3
   2  10  12 14132.0 2522.85   1
   2  10  13 2589.57 1171.64   1
  -2  11  13 10145.8 2958.54   4
  -2  11  12-2249.60 1432.25   4
  -2  11  11 39232.3 5484.12   4
  -2  11  10-1086.67 1108.77   4
  -2  11   9 22840.9 3825.17   4
  -2  11   8-262.359 681.197   4
   2  11  -8 93.4320 313.207   2
   2  11  -7 27669.4 2466.47   2
  -2  11   7 22980.5 3618.94   4
  -2  11   6 2718.54 1313.78   4
   2  11  -6 1720.01 634.338   1
   2  11  -6 4118.66 984.960   2
   2  11  -5 27062.9 2561.97   2
   2  11  -5 25335.1 2423.90   1
  -2  11   5 23749.5 3415.06   4
   2  11  -4 139.363 299.419   1
   2  11  -4 1299.55 598.748   2
   2  11  -3 32137.3 2958.19   2
   2  11  -3 28198.2 2766.01   1
   2  11  -2 325.872 438.057   1
   2  11  -2 1131.43 703.290   2
   2  11  -1 20634.8 2444.30   2
   2  11  -1 18522.8 2282.62   1
   2 -11   0-29.2452 242.690   3
   2  11   0-73.7803 405.563   1
   2  11   0 502.284 449.542   2
   2  11   1 24613.3 2772.07   2
   2  11   1 23156.1 2689.22   1
   2 -11   1 24291.3 2006.28   3
   2 -11   2 701.685 425.198   3
   2  11   2 275.997 383.472   1
   2  11   2 230.383 457.776   2
   2  11   3 67166.8 4791.50   2
   2  11   3 62308.3 4655.68   1
   2 -11   3 62356.7 3988.71   3
   2 -11   4 5500.32 1185.66   3
   2  11   4 5759.28 1386.08   1
   2  11   4 5346.64 1312.62   2
   2  11   5 33283.9 3249.77   2
   2  11   5 35931.3 3441.30   1
   2 -11   5 30588.0 2982.22   3
   2 -11   6 773.766 561.939   3
   2  11   6 635.864 491.325   1
   2  11   6 880.783 586.438   2
   2  11   7 33204.5 3239.51   2
   2  11   7 33560.3 3502.79   1
   2 -11   7 31832.1 3370.94   3
   2 -11   8 3493.54 1205.99   3
   2  11   8 1265.29 810.740   1
   2  11   8 3400.85 1058.84   2
   2  11   9 40191.2 3624.26   2
   2  11   9 41276.5 4107.19   1
   2 -11   9 37795.5 4053.31   3
   2 -11  10 659.177 783.594   3
   2  11  10 122.033 466.309   1
   2  11  10-209.533 446.887   2
   2 -11  11 21865.9 3324.71   3
   2  11  11 24063.5 3296.01   1
   2  11  11 25525.8 2901.24   2
   2 -11  12-699.563 715.358   3
   2  11  12-122.182 497.048   1
  -2  12  12 10468.5 3019.47   4
  -2  12  11-1305.36 1167.03   4
  -2  12  10 16694.6 3471.51   4
  -2  12   9 3128.07 1519.45   4
   2  12  -8 26770.3 2472.15   2
  -2  12   8 22543.4 3817.13   4
  -2  12   7 850.931 950.159   4
   2  12  -7 381.282 297.840   2
   2  12  -6 36419.5 2993.25   2
   2  12  -6 37047.6 2694.94   1
   2  12  -5 6126.77 1125.83   1
  -2  12   5 7118.59 1895.47   4
   2  12  -5 5901.18 1228.65   2
   2  12  -4 28966.8 2732.78   2
   2  12  -4 25239.8 2481.27   1
   2  12  -3 2707.07 821.290   1
   2  12  -3 5067.47 1153.59   2
   2  12  -2 17325.6 2201.58   2
   2  12  -2 19044.3 2241.22   1
   2  12  -1 323.410 338.065   1
   2  12  -1 1164.05 646.203   2
   2  12   0 36353.5 3360.51   2
   2  12   0 34985.6 3239.81   1
   2 -12   1 239.001 277.409   3
   2  12   1 704.226 531.136   1
   2  12   1 328.135 442.166   2
   2  12   2 24103.4 2717.58   1
   2  12   2 20223.0 2526.58   2
   2 -12   2 19787.2 2045.93   3
   2 -12   3 466.785 418.054   3
   2  12   3-44.1221 389.281   1
   2  12   3 595.383 637.094   2
   2  12   4 20987.5 2556.22   2
   2  12   4 21278.0 2669.52   1
   2 -12   4 19591.1 2285.50   3
   2 -12   5 3940.95 1069.03   3
   2  12   5 5218.12 1368.04   1
   2  12   5 5483.04 1332.99   2
   2  12   6 62966.1 4684.24   2
   2  12   6 67325.1 5056.60   1
   2 -12   6 62655.0 4795.76   3
   2 -12   7-363.768 466.066   3
   2  12   7 491.503 494.686   1
   2  12   7-55.6167 443.217   2
   2  12   8 32718.9 3334.48   2
   2  12   8 35873.8 3839.97   1
   2 -12   8 35581.7 3802.34   3
   2 -12   9 1141.49 710.946   3
   2  12   9 1913.70 975.254   1
   2  12   9 1340.94 775.134   2
   2 -12  10 20184.0 3087.37   3
   2  12  10 17788.5 2869.26   1
   2  12  10 18912.2 2564.55   2
   2 -12  11-1623.41 1025.80   3
   2  12  11-198.960 422.612   1
   2  12  11-484.225 447.214   2
   2 -12  12 17047.9 3085.54   3
  -2  13  11 22965.2 4251.42   4
  -2  13  10-254.482 632.302   4
  -2  13   9 17691.7 3580.81   4
  -2  13   8 1966.86 1394.47   4
   2  13  -8 934.539 514.792   2
  -2  13   7 12915.2 2901.15   4
   2  13  -7 16421.4 2007.03   2
  -2  13   6 592.196 742.053   4
   2  13  -6-37.0088 299.006   2
   2  13  -5 40579.9 3368.75   2
   2  13  -5 45303.0 3165.11   1
   2  13  -4 655.815 413.752   1
   2  13  -4 251.316 444.155   2
   2  13  -3 29012.4 2882.33   2
   2  13  -3 34314.8 2930.85   1
   2  13  -2 3243.77 944.638   1
   2  13  -2 2460.04 921.047   2
   2  13  -1 21796.5 2598.97   2
   2  13  -1 26422.3 2691.33   1
   2  13   0 911.375 657.160   1
   2  13   0 1274.10 743.667   2
   2  13   1 26663.7 2884.94   2
   2  13   1 24048.2 2701.59   1
   2 -13   2 1579.02 644.480   3
   2  13   2 1678.39 781.225   1
   2  13   2 567.214 389.855   2
   2  13   3 42179.5 3740.60   2
   2  13   3 46228.9 3930.19   1
   2 -13   3 36585.1 3145.05   3
   2 -13   4 2051.70 762.956   3
   2  13   4 3498.59 1130.23   1
   2  13   4 528.364 530.160   2
   2  13   5 25552.9 2938.37   2
   2  13   5 29729.1 3315.80   1
   2 -13   5 27346.0 2947.62   3
   2 -13   6 865.586 591.845   3
   2  13   6 613.114 592.728   1
   2  13   6-242.899 456.396   2
   2 -13   7 18541.5 2651.04   3
   2  13   7 16748.7 2604.08   1
   2  13   7 15370.0 2304.70   2
   2 -13   8 2599.00 1073.01   3
   2  13   8 2600.71 1071.71   1
   2  13   8 2371.07 1015.17   2
   2 -13   9 23417.1 3297.96   3
   2  13   9 25453.5 3060.77   2
   2  13   9 27906.3 3554.48   1
   2 -13  10-1156.46 861.279   3
   2  13  10-155.142 580.362   1
   2  13  10 106.115 440.035   2
   2 -13  11 15556.2 2915.23   3
   2  13  11 16564.1 2507.24   2
  -2  14  11-442.198 896.883   4
  -2  14  10 13171.3 3185.23   4
  -2  14   9 15.1359 534.743   4
   2  14  -8 23910.8 2480.24   2
  -2  14   8 17462.2 3470.25   4
  -2  14   7 1242.14 1078.13   4
   2  14  -7 346.922 402.224   2
   2  14  -6 35134.0 3217.17   2
  -2  14   6 32316.3 4456.98   4
   2  14  -5 12489.5 1592.38   1
   2  14  -5 11225.0 1783.92   2
   2  14  -4 14683.8 2082.47   2
   2  14  -4 13958.7 1782.77   1
   2  14  -3 2196.33 771.951   1
   2  14  -3 1793.84 740.300   2
   2  14  -2 44360.1 3755.81   2
   2  14  -2 48491.8 3713.37   1
   2  14  -1 1170.54 685.576   1
   2  14  -1-16.3674 433.936   2
   2  14   0 58083.0 4445.02   2
   2  14   0 58791.2 4374.61   1
   2  14   1 885.998 756.011   1
   2  14   1 184.368 632.571   2
   2  14   2 28922.7 3128.70   2
   2  14   2 35251.1 3441.17   1
   2 -14   3 2376.41 816.182   3
   2  14   3 3161.59 1112.03   1
   2  14   3 1984.27 865.890   2
   2  14   4 22348.5 2772.44   2
   2  14   4 28168.6 3176.07   1
   2 -14   4 25896.9 2799.56   3
   2 -14   5 2731.06 1005.01   3
   2  14   5 3098.71 1138.68   1
   2  14   5 4892.96 1293.70   2
   2  14   6 20518.1 2935.13   1
   2  14   6 17874.2 2511.55   2
   2 -14   6 21141.5 2769.93   3
   2 -14   7-35.3531 443.148   3
   2  14   7 328.771 481.572   1
   2  14   7-718.777 663.271   2
   2 -14   8 23311.8 3208.84   3
   2  14   8 20505.1 3075.17   1
   2  14   8 24831.5 3073.00   2
   2 -14   9 1362.83 859.882   3
   2  14   9 88.9732 485.265   1
   2  14   9 430.365 542.086   2
   2 -14  10 6257.77 1819.24   3
   2  14  10 4851.97 1412.06   2
   2 -14  11-760.074 790.486   3
   2  14  11 210.733 598.204   2
  -2  15  10 153.773 709.503   4
  -2  15   9 7945.91 2403.54   4
  -2  15   8-526.682 855.391   4
  -2  15   7 10027.5 2653.20   4
   2  15  -7 7181.36 1436.94   2
  -2  15   6 131.489 561.277   4
   2  15  -6 379.892 462.040   2
   2  15  -5 46371.7 3907.65   2
   2  15  -4 2220.23 730.337   1
   2  15  -4 3299.06 1030.22   2
   2  15  -3 52844.6 4212.35   2
   2  15  -3 50878.4 3864.25   1
   2  15  -2 2168.07 821.281   1
   2  15  -2 1913.14 853.092   2
   2  15  -1 27036.1 3030.04   2
   2  15  -1 29027.6 2992.61   1
   2  15   0-254.165 368.197   1
   2  15   0 524.184 531.309   2
   2  15   1 40722.1 3785.80   2
   2  15   1 37379.2 3589.48   1
   2  15   2 1053.48 769.897   1
   2  15   2-467.186 656.138   2
   2  15   3 32746.0 3476.24   2
   2  15   3 36188.1 3705.04   1
   2  15   4 513.164 379.415   1
   2  15   4 197.321 518.027   2
   2 -15   5 18514.8 2552.75   3
   2  15   5 20933.6 2963.45   1
   2  15   5 19970.8 2730.07   2
   2 -15   6 589.921 551.911   3
   2  15   6-306.924 554.014   1
   2  15   6-718.667 675.163   2
   2 -15   7 4140.69 1358.05   3
   2  15   7 7672.22 1841.59   1
   2  15   7 4759.45 1407.13   2
   2 -15   8 402.502 503.506   3
   2  15   8 1257.83 951.653   1
   2  15   8 864.675 725.998   2
   2 -15   9 8760.47 2098.13   3
   2  15   9 9963.24 2048.34   2
   2 -15  10-714.694 693.821   3
   2  15  10 444.199 553.327   2
   2 -15  11 8250.80 2220.21   3
  -2  16   9 758.926 981.291   4
  -2  16   8 14521.6 3301.53   4
  -2  16   7 1685.00 1252.19   4
   2  16  -7 689.824 593.706   2
   2  16  -6 19362.8 2474.22   2
  -2  16   6 22918.8 3945.26   4
   2  16  -5 183.084 463.127   2
   2  16  -4 16874.9 2403.84   2
   2  16  -3-491.259 452.331   1
   2  16  -3 241.787 448.300   2
   2  16  -2 49044.8 4213.50   2
   2  16  -2 41331.3 3683.00   1
   2  16  -1 604.997 539.891   1
   2  16  -1 667.968 535.418   2
   2  16   0 48746.0 4278.57   2
   2  16   0 43838.8 3970.02   1
   2  16   1 1883.99 854.222   1
   2  16   1 2890.10 1043.85   2
   2  16   2 31838.6 3454.38   2
   2  16   2 27708.9 3298.93   1
   2  16   3 56.8251 463.065   1
   2  16   3-429.720 628.461   2
   2  16   4 13487.3 2381.55   1
   2  16   4 13531.6 2340.45   2
   2  16   5 1223.19 1197.52   1
   2  16   5-882.740 701.049   2
   2  16   6 25699.9 3286.30   2
   2  16   6 23793.8 3335.35   1
   2  16   7-401.454 604.469   1
   2 -16   7 1066.64 756.849   3
   2  16   7 605.437 683.529   2
   2 -16   8 6948.05 1827.67   3
   2  16   8 7508.26 1837.92   2
   2 -16   9 338.976 798.232   3
   2  16   9 551.620 625.577   2
   2 -16  10 1026.21 870.672   3
  -2  17   8 2948.84 1583.40   4
  -2  17   7 9765.95 2708.61   4
   2  17  -7 12775.3 1993.00   2
   2  17  -6-120.979 373.497   2
   2  17  -5 15244.0 2328.60   2
   2  17  -4 763.538 669.444   2
   2  17  -3 37382.3 3800.39   2
   2  17  -3 32384.8 3157.14   1
   2  17  -2 1927.74 846.951   1
   2  17  -2 1563.64 799.282   2
   2  17  -1 14179.0 2163.11   1
   2  17  -1 14496.4 2378.21   2
   2  17   0 1146.49 708.344   1
   2  17   0 633.355 649.570   2
   2  17   1 23738.4 3080.10   2
   2  17   1 21638.0 2903.98   1
   2  17   2 1417.25 870.118   1
   2  17   2 270.096 478.626   2
   2  17   3 38144.2 4086.10   2
   2  17   3 42471.4 4311.48   1
   2  17   4 2579.99 1095.87   1
   2  17   4 577.856 599.587   2
   2  17   5 12949.6 2447.98   1
   2  17   5 18105.6 2787.37   2
   2  17   6 780.118 571.796   1
   2  17   6 1537.32 933.498   2
   2  17   7 3590.88 1312.38   2
   2  18  -7 325.129 421.182   2
   2  18  -6 11481.9 1996.68   2
   2  18  -5 527.367 569.987   2
   2  18  -4 10287.4 1958.92   2
   2  18  -3-10.3823 412.190   2
   2  18  -2 16004.5 2261.22   1
   2  18  -2 19597.9 2805.43   2
   2  18  -1 219.897 527.111   1
   2  18  -1-2.75304 372.225   2
   2  18   0 20341.5 2749.75   1
   2  18   0 21311.8 3002.36   2
   2  18   1 2528.15 1091.67   2
   2  18   1 2304.46 1014.54   1
   2  18   2 13565.5 2363.66   1
   2  18   2 12090.5 2295.47   2
   2  18   3 1058.03 828.720   1
   2  18   3 1143.33 934.359   2
   2  18   4 10955.2 2198.45   1
   2  18   4 9844.58 2078.25   2
   2  18   5 2402.87 1013.55   1
   2  18   5 688.613 828.775   2
   2  19  -6-460.089 497.787   2
   2  19  -5 11691.6 2069.80   2
   2  19  -4 233.316 534.334   2
   2  19  -3 7247.25 1718.53   2
   2  19  -2 791.065 628.898   2
   2  19  -1 5390.71 1347.81   1
   2  19  -1 5148.19 1490.28   2
   2  19   0-1236.66 727.965   1
   2  19   0-192.054 439.898   2
   2  19   1 7417.82 1746.94   1
   2  19   1 8556.62 1972.49   2
   2  19   2-476.259 574.414   1
   2  19   2 826.760 757.260   2
   2  19   3 25066.8 3415.55   2
   2  19   3 25339.4 3320.89   1
   2  19   4 560.664 452.281   1
   2  20  -6 6435.28 1595.19   2
   2  20  -5-280.786 470.537   2
   2  20  -4 3571.99 1296.75   2
   2  20  -3 1266.51 837.758   2
   2  20  -2 8757.90 1941.89   2
   2  20  -1-305.196 668.981   2
   2  20   0 16576.9 2536.32   1
   2  20   1 1298.76 741.610   1
   2  20   2 4855.34 1453.45   1
   2  20   3 1603.72 964.631   1
   2  21   1 10711.8 2104.03   1
  -3   0  13 8368.38 2547.06   4
  -3   0  12-96.7811 1153.72   4
  -3   0  11 13194.7 3114.99   4
  -3   0  10-410.304 1079.16   4
  -3   0   9 19687.8 3436.17   4
  -3   0   8-2504.79 1280.66   4
  -3   0   7 12226.3 2428.14   4
  -3   0   6-266.376 893.732   4
  -3   0   5 45241.4 4385.61   4
  -3   0   4 2.44689 497.903   4
  -3   0   3 68055.5 4934.64   4
  -3   0   2-148.553 466.916   4
  -3   0   1 71161.5 4436.43   4
   3   0  -1 77877.2 6762.70   1
   3   0   0 280.468 932.225   1
  -3   0   0 167.398 243.661   4
   3   0   1 87880.4 7304.33   1
   3   0   2-700.464 825.512   1
   3   0   3 35872.6 4617.35   1
   3   0   4 15.3191 896.673   1
   3   0   5 59548.8 5901.53   1
   3   0   6 387.110 674.750   2
   3   0   6-914.410 810.520   1
   3   0   7 8654.87 2261.35   2
   3   0   7 9287.24 2244.58   1
   3   0   8-68.1866 505.121   2
   3   0   8 1024.85 988.500   1
   3   0   9 9155.46 2213.41   2
   3   0   9 8670.48 2092.65   1
   3   0  10-2442.31 1175.26   2
   3   0  10 931.745 752.355   1
   3   0  11 11178.1 2238.76   1
   3   0  11 9165.34 2201.85   3
   3   0  12-1310.44 999.642   3
  -3   1  13-2068.23 1372.60   4
  -3  -1  13-1142.86 1256.08   4
  -3   1  12 8971.01 2634.94   4
  -3  -1  12 9140.55 2712.70   4
  -3   1  11-1444.09 1169.44   4
  -3  -1  11-788.481 1058.16   4
   3   1 -10 10897.8 2114.66   2
  -3   1  10 12054.9 2806.47   4
  -3  -1  10 12742.7 2840.28   4
  -3   1   9-582.076 838.794   4
  -3  -1   9-527.022 969.342   4
  -3   1   8 15162.0 2880.51   4
  -3  -1   8 11454.0 2514.85   4
  -3   1   7-1123.04 904.794   4
  -3  -1   7 653.540 582.386   4
  -3   1   6 76579.2 6234.52   4
  -3  -1   6 76854.6 6133.35   4
  -3   1   5 4992.23 1404.09   4
  -3  -1   5 5613.46 1571.60   4
  -3   1   4 51628.4 4501.27   4
  -3  -1   4 46183.6 4203.72   4
  -3   1   3-1757.35 816.623   4
  -3  -1   3-1049.04 665.200   4
   3   1  -3 741.050 708.643   1
  -3   1   2 22697.8 2582.39   4
  -3  -1   2 27310.3 2725.99   4
   3   1  -2 22849.7 3620.55   1
  -3   1   1-952.725 535.982   4
  -3  -1   1-332.589 355.782   4
   3   1  -1 244.296 500.190   1
  -3   1   0 92759.8 4950.68   4
   3   1   0 96540.8 7651.17   1
   3  -1   0 93374.0 7592.61   1
  -3   1  -1 203.337 241.603   4
   3   1   1 641.897 769.352   1
   3  -1   1 780.772 671.920   1
   3   1   2 61836.8 5968.20   1
   3  -1   2 60671.3 6028.27   1
   3  -1   3 1286.32 1000.20   1
   3   1   3 3037.92 1423.26   1
   3  -1   4 23549.0 3706.66   1
   3   1   4 23594.2 3601.38   2
   3   1   4 28001.5 3914.86   1
   3   1   5 1363.92 935.384   2
   3   1   5 940.977 744.324   1
   3  -1   5 1507.14 1020.47   1
   3   1   6 13551.0 2732.75   2
   3   1   6 17048.1 3028.12   1
   3  -1   6 14970.6 2947.35   1
   3   1   7 198.368 632.204   2
   3   1   7-1064.10 871.365   1
   3  -1   7-392.918 709.442   2
   3  -1   7 235.902 609.796   1
   3   1   8 30429.0 4129.07   2
   3  -1   8 34166.4 4415.71   2
   3   1   8 37401.2 4398.74   1
   3  -1   8 34762.9 4369.53   1
   3  -1   9-1263.70 906.310   1
   3   1   9-620.405 710.617   2
   3  -1   9-376.682 673.356   2
   3   1   9 192.351 509.709   1
   3  -1  10 16809.8 2986.09   2
   3   1  10 14175.7 2590.02   1
   3  -1  10 13656.5 2552.82   1
   3   1  10 13656.3 2641.81   2
   3   1  11-1059.04 776.933   1
   3  -1  11-862.624 754.461   1
   3  -1  11 665.733 784.677   3
   3   1  12 4549.73 1434.12   1
   3   1  12 4694.73 1695.78   3
   3  -1  12 5764.11 1832.92   3
  -3   2  13 7456.08 2389.15   4
  -3  -2  13 5738.44 2257.45   4
  -3   2  12 555.202 991.997   4
  -3  -2  12 769.138 1007.00   4
  -3   2  11 17752.7 3475.56   4
  -3  -2  11 22225.9 3915.42   4
  -3   2  10-2195.33 1292.91   4
  -3  -2  10 65.0326 949.532   4
   3   2  -9 22260.0 3152.02   2
  -3   2   9 24095.2 3884.92   4
  -3  -2   9 24988.5 3870.40   4
  -3   2   8-697.236 821.317   4
  -3  -2   8 342.331 610.585   4
  -3   2   7 24569.3 3577.51   4
  -3  -2   7 24947.0 3512.61   4
  -3   2   6 3930.59 1405.11   4
  -3  -2   6 1841.73 1038.13   4
  -3   2   5 45793.7 4540.22   4
  -3  -2   5 33916.9 3762.44   4
   3   2  -4 517.471 701.541   1
  -3   2   4 1230.18 818.863   4
  -3  -2   4 341.046 553.161   4
  -3   2   3 45884.5 4131.84   4
  -3  -2   3 44254.6 3832.59   4
   3   2  -3 43925.7 4977.88   1
   3   2  -2-886.304 836.781   1
  -3   2   2-436.266 555.129   4
  -3  -2   2 43.2731 510.053   4
  -3   2   1 48903.0 3762.52   4
   3   2  -1 53888.5 5572.44   1
   3   2   0-129.573 227.827   4
  -3   2   0 412.552 318.297   4
   3  -2   1 26563.9 3926.47   1
  -3   2  -1 27151.8 2261.06   4
   3   2   1 35129.5 4318.40   1
   3   2   2 2514.56 1344.16   2
  -3   2  -2 1708.88 433.199   4
   3  -2   2 1576.50 1070.31   1
   3   2   2 3935.16 1546.89   1
   3   2   3 49662.1 5246.35   2
   3   2   3 50722.5 5331.30   1
   3  -2   3 51945.3 5596.50   1
   3   2   4 2129.22 1148.96   2
   3  -2   4 2252.35 1225.34   1
   3   2   4 3423.51 1377.90   1
   3   2   5 54572.0 5567.80   2
   3   2   5 55949.8 5603.37   1
   3  -2   5 56195.2 5793.74   1
   3   2   6-176.881 672.702   2
   3   2   6-32.6436 530.654   1
   3  -2   6-858.700 855.268   1
   3   2   7 15746.5 2880.93   2
   3   2   7 14097.5 2710.02   1
   3  -2   7 21493.2 3472.60   1
   3   2   8-306.329 658.569   2
   3  -2   8 70.6435 557.576   2
   3  -2   8 1002.80 957.881   1
   3   2   8 223.221 545.143   1
   3  -2   9 16773.9 2991.09   1
   3  -2   9 14970.7 2956.48   2
   3   2   9 18079.2 2961.92   1
   3   2   9 20155.3 3219.76   2
   3   2  10 213.266 488.847   1
   3  -2  10 713.373 707.756   1
   3  -2  10-1044.90 809.920   3
   3   2  10 1198.82 854.824   2
   3   2  11 16082.0 2678.28   1
   3  -2  11 20178.4 3249.60   3
   3   2  12 2195.14 993.517   1
   3  -2  12 2503.13 1269.10   3
  -3   3  13 776.145 1166.22   4
  -3  -3  13-1983.67 1454.50   4
  -3   3  12 20085.6 3947.58   4
  -3  -3  12 20928.9 3991.04   4
  -3   3  11 350.870 824.949   4
  -3  -3  11 3090.84 1644.16   4
  -3   3  10 23101.3 3860.83   4
  -3  -3  10 17595.5 3356.08   4
   3   3  -9-957.038 777.601   2
  -3   3   9 1182.45 958.051   4
  -3  -3   9-465.511 687.459   4
   3   3  -8 21858.9 3093.79   2
  -3   3   8 25683.5 3832.11   4
  -3  -3   8 22303.8 3525.32   4
   3   3  -7 390.967 549.818   2
  -3   3   7-523.881 656.135   4
  -3  -3   7 688.261 579.033   4
   3   3  -7 94.7486 772.350   1
   3   3  -6 55355.9 5260.53   2
  -3   3   6 43333.6 4748.58   4
  -3  -3   6 48499.3 4766.54   4
   3   3  -6 50090.5 5396.37   1
   3   3  -5 2334.66 1088.27   2
   3   3  -5 4379.43 1569.86   1
  -3   3   5 2494.51 1123.27   4
  -3  -3   5 4357.19 1350.27   4
   3   3  -4 20961.5 3258.70   2
  -3   3   4 21173.3 2972.58   4
   3   3  -4 25008.6 3692.30   1
   3   3  -3-363.648 711.755   2
   3   3  -3-927.322 846.567   1
  -3   3   3-24.7849 591.960   4
   3   3  -2 20140.4 3276.72   2
  -3   3   2 18309.7 2452.67   4
   3   3  -2 18900.2 3144.62   1
   3   3  -1-880.141 830.584   2
   3   3  -1 172.240 516.193   1
  -3   3   1-662.931 486.172   4
   3   3   0 52658.9 3355.13   4
   3   3   0 54164.0 5533.58   2
  -3   3   0 49827.7 3723.48   4
   3   3   0 55017.7 5521.74   1
   3   3   1 535.203 673.318   2
  -3   3  -1 1070.29 482.673   4
   3   3   1-206.085 702.411   1
   3   3   2 52365.0 5436.43   2
  -3   3  -2 54499.9 3230.51   4
   3   3   2 51336.0 5306.99   1
   3  -3   2 51609.9 5580.52   1
   3   3   3-838.843 767.927   2
   3  -3   3-1191.19 1003.96   1
   3   3   3 638.875 762.596   1
  -3   3  -3-55.6391 125.328   4
   3   3   4 18957.0 3178.61   2
   3   3   4 22522.3 3394.22   1
   3  -3   4 16103.9 3157.90   1
   3   3   5 1544.46 917.858   2
   3  -3   5 1605.99 1095.62   1
   3   3   5 2283.96 1230.84   1
   3   3   6 39141.7 4571.68   2
   3   3   6 34469.3 4281.34   1
   3  -3   6 33693.1 4530.88   1
   3   3   7 338.016 696.760   2
   3  -3   7 1379.89 828.333   1
   3   3   7 1735.08 843.445   1
   3   3   8 45778.8 4925.50   2
   3   3   8 51970.0 5144.69   1
   3  -3   8 49131.6 5371.25   1
   3  -3   9 377.385 466.917   1
   3  -3   9 132.454 719.963   2
   3   3   9 339.733 662.856   1
   3  -3   9-1276.86 865.481   3
   3   3   9 210.991 437.341   2
   3   3  10 23642.4 3328.23   1
   3  -3  10 25896.0 3625.76   3
   3   3  10 19997.3 3110.09   2
   3  -3  10 27250.6 3672.35   1
   3   3  11 53.4392 460.188   1
   3  -3  11 1059.65 862.549   3
   3   3  12 10285.8 2054.79   1
   3  -3  12 10667.5 2439.71   3
  -3   4  13 12142.2 3122.03   4
  -3   4  12-1114.51 1065.69   4
  -3   4  11 17405.4 3575.50   4
  -3   4  10-849.417 897.713   4
   3   4 -10 1436.69 954.645   1
   3   4  -9 27814.0 3335.82   2
  -3   4   9 29598.7 4322.05   4
   3   4  -9 35603.7 4558.59   1
   3   4  -8-1202.65 807.104   2
   3   4  -8-1079.51 937.066   1
  -3   4   8 1191.96 937.296   4
   3   4  -7 32566.2 3841.09   2
  -3   4   7 27769.9 3935.08   4
   3   4  -7 30663.7 4160.26   1
   3   4  -6-975.978 812.214   2
   3   4  -6-815.709 849.581   1
  -3   4   6 88.7466 735.612   4
   3   4  -5 28089.6 3696.12   2
  -3   4   5 29662.2 3752.82   4
   3   4  -5 29644.5 4044.50   1
   3   4  -4-1124.23 901.139   1
   3   4  -4-64.4691 732.472   2
  -3   4   4-1666.88 887.891   4
   3   4  -3 38421.6 4483.09   2
  -3   4   3 29538.2 3428.10   4
   3   4  -3 29760.1 4064.66   1
   3   4  -2-834.599 801.502   2
   3   4  -2-245.760 667.935   1
  -3   4   2-30.4569 398.753   4
   3   4  -1 36344.2 4393.21   2
  -3   4   1 35355.8 3410.39   4
   3   4  -1 32379.9 4162.00   1
   3   4   0-583.258 1016.90   2
  -3   4   0 77.6058 274.104   4
   3   4   0 401.083 631.748   1
   3   4   1 11631.0 2505.25   2
  -3   4  -1 12575.6 1754.66   4
   3   4   1 17102.7 2993.34   1
   3   4   2-1082.84 992.105   2
   3   4   2-320.880 853.495   1
  -3   4  -2 499.895 359.807   4
   3  -4   2 336.982 802.952   1
   3   4   3 44842.4 4943.01   2
  -3   4  -3 47535.0 3020.39   4
   3   4   3 49823.9 5155.65   1
   3  -4   3 43611.8 5160.35   1
   3   4   4 898.487 1008.14   2
   3  -4   4 1207.89 1020.92   1
   3   4   4 1570.00 850.745   1
   3   4   5 44552.8 4913.97   2
   3   4   5 51425.3 5208.89   1
   3  -4   5 50846.8 5653.63   1
   3   4   6 2109.96 1123.29   2
   3   4   6 5565.47 1588.65   1
   3  -4   6 2499.29 1142.08   1
   3   4   7 27196.9 3754.87   2
   3   4   7 31521.8 3962.16   1
   3  -4   7 30798.8 4300.83   1
   3  -4   7 29662.9 3430.30   3
   3  -4   8-712.748 848.079   1
   3   4   8-246.186 448.711   1
   3  -4   8-11.3656 738.371   3
   3   4   8 51.0855 509.139   2
   3   4   9 30470.9 3851.65   2
   3   4   9 30413.3 3812.89   1
   3  -4   9 33500.3 4326.99   1
   3  -4   9 33982.3 3957.40   3
   3   4  10 82.9240 700.862   1
   3   4  10 277.928 514.244   2
   3  -4  10 757.592 715.512   3
   3   4  11 30563.8 3607.26   1
   3  -4  11 26078.2 3698.29   3
   3   4  12 11.4930 400.756   1
   3  -4  12 26.4908 481.751   3
   3   4  13 11480.8 2203.38   1
  -3   5  13-1107.82 1166.18   4
  -3   5  12 19355.2 3943.71   4
  -3   5  11-100.934 727.087   4
  -3   5  10 10524.5 2764.50   4
   3   5  -9 2059.62 1111.02   1
  -3   5   9 1710.89 1107.98   4
   3   5  -9 2277.36 935.055   2
   3   5  -8 22983.4 3082.11   2
  -3   5   8 30130.5 4319.80   4
   3   5  -8 33930.6 4361.00   1
   3   5  -7-778.318 824.838   1
   3   5  -7 973.651 712.515   2
  -3   5   7 201.591 579.003   4
   3   5  -6 29669.6 3687.22   2
  -3   5   6 31934.8 4085.89   4
   3   5  -6 33506.4 4281.14   1
   3   5  -5-854.491 791.170   2
  -3   5   5 961.072 731.574   4
   3   5  -5 222.136 638.774   1
   3   5  -4 31694.3 3955.11   2
  -3   5   4 34809.3 3963.95   4
   3   5  -4 31425.5 4086.80   1
   3   5  -3 138.256 514.693   2
   3   5  -3-584.191 756.134   1
  -3   5   3-719.210 623.693   4
   3   5  -2 19069.4 3134.85   1
   3   5  -2 15719.4 2810.05   2
  -3   5   2 14313.6 2315.83   4
   3   5  -1-743.346 781.192   2
  -3   5   1 80.8394 368.322   4
   3   5  -1 1162.96 986.537   1
   3   5   0 45290.5 4908.79   2
  -3   5   0 44090.6 3795.54   4
   3   5   0 46417.7 4972.83   1
   3   5   1 591.278 724.107   2
   3   5   1-872.826 806.294   1
  -3   5  -1 189.334 321.236   4
   3   5   2 38983.4 4547.50   2
  -3   5  -2 44945.6 3418.73   4
   3   5   2 46967.4 4963.04   1
   3   5   3 9872.49 2296.71   2
   3   5   3 13909.7 2619.52   1
   3  -5   3 10802.7 2561.45   1
  -3   5  -3 11917.8 1565.72   4
   3   5   4 34495.5 4254.84   2
   3   5   4 42267.0 4670.79   1
   3  -5   4 40717.4 5017.61   1
   3   5   5-181.083 535.670   1
   3  -5   5-1364.85 1134.77   1
   3  -5   6 20301.9 3542.71   1
   3  -5   6 20731.8 2703.98   3
   3   5   6 24722.3 3488.67   1
   3   5   6 20121.3 3178.89   2
   3   5   7 509.112 630.637   1
   3  -5   7 851.435 873.934   1
   3  -5   7 977.543 783.039   3
   3   5   7 903.390 748.771   2
   3   5   8 34045.2 4071.41   2
   3   5   8 39426.0 4379.60   1
   3  -5   8 42583.5 5065.71   1
   3  -5   8 36984.9 3976.84   3
   3  -5   9 831.224 495.285   1
   3   5   9 1936.80 1082.59   1
   3   5   9 1134.55 796.414   2
   3  -5   9 2279.68 1104.47   3
   3   5  10 23628.6 3235.74   1
   3   5  10 24046.6 3250.28   2
   3  -5  10 21781.9 3247.04   3
   3   5  11-1148.34 802.636   1
   3  -5  11 105.211 486.625   3
   3   5  12 7028.76 1734.58   1
   3  -5  12 4551.56 1681.91   3
   3   5  13 2638.62 1129.13   1
  -3   6  13 5652.51 2377.36   4
  -3   6  12 2191.15 1332.76   4
  -3   6  11 12395.8 3112.54   4
  -3   6  10 1149.94 1166.56   4
   3   6  -9 24674.1 2918.23   2
   3   6  -9 21919.9 3365.08   1
  -3   6   9 28970.5 4400.22   4
   3   6  -8-655.394 683.843   1
  -3   6   8-209.900 554.063   4
   3   6  -8 646.385 555.348   2
   3   6  -7 23677.4 3532.34   1
   3   6  -7 22854.7 3067.25   2
  -3   6   7 23557.3 3679.82   4
   3   6  -6 942.384 784.609   1
  -3   6   6 61.4164 505.806   4
   3   6  -6 870.580 722.431   2
   3   6  -5 23816.1 3337.80   2
  -3   6   5 32493.6 4002.60   4
   3   6  -5 32173.9 4072.02   1
   3   6  -4 3182.76 1360.16   2
  -3   6   4 4661.34 1453.73   4
   3   6  -4 4516.63 1594.29   1
   3   6  -3 55785.7 5269.06   2
  -3   6   3 52003.6 4807.59   4
   3   6  -3 51936.5 5255.11   1
   3   6  -2 357.531 711.465   2
  -3   6   2 1316.57 810.257   4
   3   6  -2 908.303 766.981   1
   3   6  -1 42725.0 4662.14   2
  -3   6   1 43653.9 4024.94   4
   3   6  -1 41224.4 4610.52   1
   3   6   0 2390.55 1169.41   2
   3   6   0 1551.01 951.229   1
  -3   6   0 936.320 620.360   4
   3   6   1 33282.9 4148.56   2
  -3   6  -1 36916.7 3391.44   4
   3   6   1 32982.3 4124.53   1
   3   6   2-768.290 784.436   2
   3   6   2 552.681 753.082   1
  -3   6  -2 71.1945 283.429   4
   3   6   3 33438.9 4171.41   2
   3   6   3 37056.6 4318.11   1
   3   6   4 2036.55 1061.84   1
   3  -6   4 3172.98 1472.80   1
   3  -6   4 2892.27 1000.39   3
   3   6   4 3116.28 1264.58   2
   3  -6   5 26148.1 4111.17   1
   3  -6   5 23800.3 2791.70   3
   3   6   5 21601.2 3257.91   1
   3   6   5 25496.1 3542.97   2
   3  -6   6-799.486 912.368   1
   3   6   6 669.809 778.686   1
   3  -6   6 882.842 686.575   3
   3   6   6-838.355 770.775   2
   3   6   7 21849.5 3220.62   1
   3  -6   7 24841.3 3081.93   3
   3   6   7 21505.2 3200.03   2
   3  -6   7 28970.4 4287.46   1
   3   6   8 422.864 677.313   1
   3  -6   8 1133.53 796.557   1
   3  -6   8 492.565 546.198   3
   3   6   9 13554.0 2503.36   1
   3   6   9 17901.9 2807.02   2
   3  -6   9 16782.6 2730.74   3
   3   6  10 2451.31 1070.11   1
   3   6  10 1492.52 782.605   2
   3  -6  10 1097.00 906.223   3
   3   6  11 16427.4 2667.40   1
   3  -6  11 16838.4 2905.95   3
   3   6  12 306.210 493.360   1
  -3   7  12 7061.42 2402.97   4
  -3   7  11 3090.07 1678.09   4
  -3   7  10 7628.28 2215.76   4
  -3   7   9-1006.54 991.950   4
   3   7  -9-191.461 386.461   2
  -3   7   8 17625.3 3319.45   4
   3   7  -8 22009.8 3258.32   1
   3   7  -8 13139.8 2196.66   2
  -3   7   7 2865.55 1350.63   4
   3   7  -7 3354.73 1318.60   1
   3   7  -7 2779.91 1090.13   2
   3   7  -6 33758.6 3769.96   2
  -3   7   6 31414.6 4199.37   4
   3   7  -6 36429.8 4264.34   1
   3   7  -5 156.433 531.042   1
   3   7  -5 1497.48 853.073   2
   3   7  -4 41928.4 4436.75   2
  -3   7   4 46017.2 4717.80   4
   3   7  -4 44924.3 4726.32   1
  -3   7   3 506.065 796.223   4
   3   7  -3 1057.88 763.526   1
   3   7  -3 986.278 709.701   2
   3   7  -2 43380.9 4584.29   2
  -3   7   2 39176.6 4076.64   4
   3   7  -2 37912.4 4342.95   1
   3   7  -1 3180.46 1323.85   1
  -3   7   1 3633.05 1148.83   4
   3  -7  -1 2284.05 566.021   3
   3   7  -1 2319.27 1043.62   2
   3   7   0 57283.1 5425.05   2
  -3   7   0 55190.5 4559.40   4
   3   7   0 51498.3 5171.49   1
   3  -7   0 55763.6 3312.92   3
   3   7   1-294.248 553.253   1
  -3   7  -1 272.866 477.985   4
   3  -7   1 130.250 269.643   3
   3   7   1 474.046 858.226   2
   3   7   2 57137.8 5409.08   2
   3   7   2 59301.2 5490.88   1
   3  -7   2 58507.8 3894.65   3
   3   7   3 8345.19 2049.20   1
   3  -7   3 9993.67 1616.30   3
   3   7   3 7869.90 2035.10   2
   3  -7   4 20763.5 2428.77   3
   3  -7   4 22989.5 3778.45   1
   3   7   4 25846.8 3506.07   2
   3   7   4 20300.3 3212.49   1
   3   7   5 1137.76 844.866   1
   3   7   5 160.337 477.421   2
   3  -7   5-378.781 491.111   3
   3   7   6 13781.6 2487.71   1
   3  -7   6 14670.2 3146.02   1
   3   7   6 11531.7 2311.22   2
   3  -7   6 13133.0 2150.35   3
   3  -7   7-845.706 937.212   1
   3   7   7-1812.29 1038.95   1
   3   7   7-3.15811 659.509   2
   3  -7   7-73.1426 392.836   3
   3   7   8 17492.0 2827.93   1
   3  -7   8 18814.9 3419.04   1
   3   7   8 17869.5 2836.57   2
   3  -7   8 18273.8 2731.78   3
   3   7   9 263.898 528.829   1
   3   7   9 285.746 530.486   2
   3  -7   9 842.816 631.767   3
   3   7  10 4803.54 1503.96   1
   3   7  10 7593.01 1777.19   2
   3  -7  10 7153.90 1879.56   3
   3   7  11 180.037 572.058   1
   3  -7  11-833.902 759.920   3
   3   7  12 3622.61 1304.07   1
  -3   8  12-115.021 551.727   4
  -3   8  11 11808.1 2995.69   4
  -3   8  10 10.1295 587.706   4
  -3   8   9 10689.6 2708.10   4
   3   8  -8 735.430 615.631   1
  -3   8   8 1094.39 891.952   4
   3   8  -8 521.155 334.877   2
   3   8  -7 23849.0 2959.22   2
  -3   8   7 19912.2 3457.38   4
   3   8  -7 26263.3 3441.36   1
   3   8  -6-640.691 661.696   1
  -3   8   6 760.011 974.263   4
   3   8  -6-973.986 712.491   2
   3   8  -5 32288.9 3710.76   2
  -3   8   5 34006.5 4286.04   4
   3   8  -5 38827.3 4264.09   1
   3   8  -4 2340.38 1083.43   1
  -3   8   4 1979.94 1028.29   4
   3   8  -4 1058.34 675.930   2
   3   8  -3 50573.0 4878.22   2
  -3   8   3 48655.9 4827.57   4
   3   8  -3 58350.8 5380.04   1
   3   8  -2 2580.25 1111.24   1
  -3   8   2 1518.89 705.663   4
   3   8  -2 1425.99 945.625   2
   3   8  -1 40422.0 4422.32   2
  -3   8   1 39477.0 4028.86   4
   3   8  -1 35907.5 4180.38   1
   3   8   0-268.954 586.780   1
  -3   8   0-139.014 392.159   4
   3   8   0 322.046 458.426   2
   3  -8   0 109.549 191.612   3
   3   8   1 44511.9 4698.26   2
   3   8   1 44649.8 4704.77   1
   3  -8   1 49402.3 3174.40   3
   3   8   2 2790.17 1143.52   1
   3   8   2 1818.20 1089.24   2
   3  -8   2 2899.25 796.621   3
   3   8   3 51932.2 5074.55   2
   3   8   3 51793.5 5067.03   1
   3  -8   3 49753.9 3696.65   3
   3   8   4 887.680 676.781   1
   3   8   4-580.547 704.823   2
   3  -8   4 349.409 397.137   3
   3  -8   5 10854.9 2800.26   1
   3   8   5 12857.4 2422.03   1
   3   8   5 13711.6 2528.14   2
   3  -8   5 15285.5 2155.94   3
   3  -8   6 978.407 878.769   1
   3   8   6-1285.82 887.417   1
   3   8   6 543.668 672.516   2
   3  -8   6 704.509 582.175   3
   3  -8   7 15408.5 3182.02   1
   3   8   7 13059.4 2398.43   1
   3   8   7 12032.3 2320.32   2
   3  -8   7 15370.1 2401.77   3
   3   8   8 741.612 810.055   1
   3   8   8 633.479 575.763   2
   3  -8   8-5.48079 471.210   3
   3   8   9 8505.24 1916.75   1
   3   8   9 6032.07 1582.63   2
   3  -8   9 6968.66 1725.92   3
   3   8  10 282.726 571.105   1
   3   8  10 344.703 507.276   2
   3  -8  10 599.858 636.803   3
   3   8  11 6329.66 1692.87   1
   3  -8  11 3986.41 1550.43   3
  -3   9  11 1314.71 986.065   4
  -3   9  10 9617.65 2685.60   4
  -3   9   9 693.958 900.431   4
  -3   9   8 12247.0 2894.71   4
   3   9  -8 15755.9 2240.51   2
   3   9  -7 1548.77 842.321   1
  -3   9   7 1831.72 1277.95   4
   3   9  -7 11.6493 406.267   2
   3   9  -6 29191.9 3334.00   2
  -3   9   6 29853.4 4175.62   4
   3   9  -6 26701.9 3471.15   1
   3   9  -5 986.110 755.190   1
  -3   9   5 1423.88 951.410   4
   3   9  -5-440.468 555.458   2
   3   9  -4 33710.1 3808.78   2
  -3   9   4 27136.4 3764.12   4
   3   9  -4 35519.5 4037.87   1
   3   9  -3 1092.25 874.344   1
  -3   9   3 1951.69 1008.82   4
   3   9  -3 1940.86 924.895   2
   3   9  -2 42641.5 4456.59   2
  -3   9   2 39101.2 4269.56   4
   3   9  -2 46089.9 4664.42   1
   3   9  -1 4052.26 1416.34   1
  -3   9   1 1350.83 780.344   4
   3   9  -1 3598.12 1334.85   2
   3   9   0 34245.0 3992.74   2
   3   9   0 34016.9 4022.81   1
   3   9   1 1553.67 938.532   2
   3   9   1 1168.99 901.104   1
   3  -9   1 661.760 382.072   3
   3   9   2 41158.2 4473.76   2
   3   9   2 47850.4 4769.66   1
   3  -9   2 44668.8 3168.00   3
   3   9   3-306.962 572.252   1
   3   9   3 465.959 615.252   2
   3  -9   3 392.417 340.859   3
   3   9   4 10772.5 2242.75   1
   3   9   4 11548.7 2308.90   2
   3  -9   4 10193.9 1674.85   3
   3  -9   5 470.083 840.486   1
   3   9   5-555.136 698.484   1
   3   9   5 758.729 630.608   2
   3  -9   5 1395.05 623.441   3
   3  -9   6 17917.6 3520.80   1
   3   9   6 23792.4 3267.65   1
   3  -9   6 22151.1 2728.29   3
   3   9   6 21104.5 3109.35   2
   3   9   7 1876.01 1007.22   1
   3  -9   7 3159.31 1660.11   1
   3   9   7 4211.56 1361.08   2
   3  -9   7 3373.13 1160.23   3
   3   9   8 18787.1 2895.17   1
   3   9   8 15304.5 2578.07   2
   3  -9   8 18879.6 2766.35   3
   3  -9   9 1274.75 835.974   3
   3   9   9 220.764 564.983   1
   3   9   9 1181.16 795.206   2
   3  -9  10 6000.71 1705.54   3
   3   9  10 7613.00 1826.64   1
   3   9  10 6339.60 1583.21   2
   3  -9  11 930.293 641.006   3
  -3  10  11 11133.0 3053.45   4
  -3  10  10-394.444 668.934   4
  -3  10   9 13170.6 3057.89   4
  -3  10   8 557.628 821.620   4
   3  10  -8 443.863 436.491   2
   3  10  -7 19101.7 2739.89   1
   3  10  -7 17763.5 2440.43   2
  -3  10   7 19838.7 3533.33   4
   3  10  -6-89.0470 397.723   1
  -3  10   6-102.906 579.548   4
   3  10  -6 875.430 717.148   2
   3  10  -5 21341.4 3038.08   1
   3  10  -5 24170.8 3023.62   2
  -3  10   5 20777.5 3394.76   4
   3  10  -4 481.376 539.943   1
  -3  10   4 710.151 731.870   4
   3  10  -4-499.562 560.501   2
   3  10  -3 20326.2 2973.77   1
  -3  10   3 22760.8 3375.21   4
   3  10  -3 20437.9 2950.61   2
   3  10  -2 730.860 685.771   1
  -3  10   2 320.012 548.534   4
   3  10  -2-940.977 761.141   2
  -3  10   1 14731.6 2561.10   4
   3  10  -1 15119.0 2563.48   2
   3  10  -1 16212.8 2674.25   1
   3  10   0 158.921 552.379   2
   3  10   0 689.806 747.076   1
   3  10   1 37501.2 4130.00   2
   3  10   1 33097.1 3881.25   1
   3  10   2 3239.77 1194.38   1
   3  10   2 4546.79 1458.37   2
   3  10   3 25583.6 3411.94   1
   3 -10   3 27502.9 2571.04   3
   3  10   3 21052.5 3130.49   2
   3 -10   4 3712.36 1008.08   3
   3  10   4 1511.92 840.266   1
   3  10   4 3154.51 1242.17   2
   3  10   5 22495.2 3181.90   1
   3 -10   5 18365.4 2384.70   3
   3  10   5 19785.6 2996.34   2
   3 -10   5 15541.2 3220.19   1
   3 -10   6 635.123 544.739   3
   3  10   6-209.771 613.818   1
   3 -10   6 1520.74 1135.62   1
   3  10   6 597.543 678.291   2
   3 -10   7 17229.6 2526.92   3
   3  10   7 17895.0 2777.76   1
   3  10   7 18307.6 2820.46   2
   3 -10   8 449.549 626.476   3
   3  10   8-318.034 576.475   1
   3  10   8-22.9125 433.214   2
   3 -10   9 14308.8 2549.26   3
   3  10   9 19592.8 2929.24   1
   3  10   9 18540.5 2745.08   2
   3 -10  10-80.0524 460.202   3
   3  10  10-197.877 479.492   1
   3  10  10 227.823 472.084   2
   3 -10  11 4779.82 1640.37   3
  -3  11  10 6999.32 2347.50   4
  -3  11   9 149.831 664.008   4
   3  11  -8 19361.6 2366.38   2
  -3  11   8 15773.4 3329.74   4
  -3  11   7-890.864 911.749   4
   3  11  -7 168.324 310.662   2
  -3  11   6 17721.6 3327.86   4
   3  11  -6 15989.7 2362.40   2
   3  11  -6 16440.5 2487.48   1
  -3  11   5 1071.78 891.600   4
   3  11  -5 824.739 674.746   2
   3  11  -5 1322.74 736.215   1
  -3  11   4 13562.4 2796.60   4
   3  11  -4 13567.8 2291.04   2
   3  11  -4 17087.7 2640.10   1
  -3  11   3 1388.21 797.157   4
   3  11  -3 279.477 456.445   2
   3  11  -3 2222.90 992.752   1
  -3  11   2 20146.6 3139.09   4
   3  11  -2 21349.2 2981.11   2
   3  11  -2 16647.7 2661.98   1
   3  11  -1-547.658 578.144   1
   3  11  -1 435.476 636.281   2
   3  11   0 12077.1 2281.25   1
   3  11   0 14188.7 2491.66   2
   3  11   1 116.865 512.796   1
   3  11   1-23.8873 635.563   2
   3  11   2 15217.9 2568.81   1
   3  11   2 10799.1 2210.10   2
   3  11   3 286.020 644.345   1
   3  11   3 1621.25 964.171   2
   3  11   4 27826.8 3505.37   2
   3  11   4 28987.3 3533.12   1
   3 -11   4 26881.3 2736.16   3
   3 -11   5 746.079 543.495   3
   3  11   5 1530.65 858.953   1
   3  11   5 996.430 863.726   2
   3 -11   6 17875.8 3593.89   1
   3  11   6 23937.3 3226.57   1
   3  11   6 22383.1 3121.64   2
   3 -11   6 22917.3 2829.31   3
   3 -11   7 4175.13 1265.37   3
   3  11   7 1144.02 805.479   1
   3  11   7 3520.05 1234.93   2
   3 -11   8 17001.9 2668.08   3
   3  11   8 19990.8 2963.08   1
   3  11   8 19589.8 2836.80   2
   3 -11   9 1939.39 1045.28   3
   3  11   9-703.111 705.298   1
   3  11   9 993.140 880.074   2
   3 -11  10 18331.0 2988.98   3
   3  11  10 14749.7 2415.16   2
   3 -11  11 521.762 719.961   3
  -3  12  10 1155.08 961.551   4
  -3  12   9 8748.97 2630.69   4
  -3  12   8 30.0553 904.921   4
   3  12  -8 552.870 491.327   2
   3  12  -7 18227.2 2405.63   2
  -3  12   7 23358.5 3951.31   4
  -3  12   6 932.720 856.868   4
   3  12  -6 125.414 329.766   2
  -3  12   5 11762.5 2710.19   4
   3  12  -5 14692.6 2315.17   1
   3  12  -5 15865.6 2358.68   2
  -3  12   4 1024.60 922.012   4
   3  12  -4 569.840 570.744   1
   3  12  -4 911.245 767.283   2
  -3  12   3 6946.22 2002.25   4
   3  12  -3 12555.1 2197.72   1
   3  12  -3 7690.80 1723.60   2
  -3  12   2-591.050 648.339   4
   3  12  -2-38.9756 359.901   1
   3  12  -2-51.6544 348.720   2
   3  12  -1 10073.6 2067.10   1
   3  12  -1 14033.9 2389.80   2
   3  12   0 371.674 583.371   1
   3  12   0-301.701 542.213   2
   3  12   1 27778.8 3410.94   1
   3  12   1 19747.3 2935.82   2
   3  12   2-224.278 535.304   1
   3  12   2-1093.71 792.476   2
   3  12   3 15929.2 2573.92   1
   3  12   3 14131.0 2481.05   2
   3  12   4-244.957 494.963   1
   3  12   4 188.505 457.744   2
   3  12   5 15673.3 2585.32   1
   3  12   5 15324.8 2554.07   2
   3  12   6 583.649 672.361   1
   3  12   6 801.838 736.832   2
   3  12   7 24118.1 3189.13   2
   3  12   7 26003.5 3359.34   1
   3 -12   7 21909.8 2906.35   3
   3 -12   8 390.980 543.600   3
   3  12   8 564.557 668.940   1
   3  12   8-484.820 556.783   2
   3 -12   9 15273.7 2678.46   3
   3  12   9 20770.2 2870.60   2
   3 -12  10-228.015 541.274   3
   3  12  10 841.646 669.033   2
  -3  13   9 4356.09 1907.85   4
  -3  13   8 18031.8 3686.57   4
  -3  13   7 6015.64 2117.16   4
   3  13  -7 4753.80 1203.52   2
  -3  13   6 14307.3 3105.16   4
   3  13  -6 9670.17 1777.52   2
  -3  13   5-176.486 482.907   4
   3  13  -5 524.502 535.364   1
   3  13  -5 1007.89 752.903   2
  -3  13   4 11856.3 2697.99   4
   3  13  -4 12879.8 2170.76   1
   3  13  -4 13016.4 2150.68   2
  -3  13   3-1379.28 957.840   4
   3  13  -3-5.18981 366.383   1
   3  13  -3-806.995 614.374   2
   3  13  -2 25799.5 3211.93   2
   3  13  -2 25149.8 3162.48   1
   3  13  -1-424.293 571.815   1
   3  13  -1 363.034 488.845   2
   3  13   0 10571.1 2028.29   1
   3  13   0 14615.8 2402.47   2
   3  13   1 1109.06 820.166   1
   3  13   1 424.455 446.034   2
   3  13   2 11692.0 2188.93   1
   3  13   2 10675.3 2100.59   2
   3  13   3 1036.53 791.566   1
   3  13   3 1889.21 935.968   2
   3  13   4 22691.4 3097.15   2
   3  13   4 24055.9 3191.92   1
   3  13   5-506.483 552.939   1
   3  13   5 696.383 587.109   2
   3  13   6 23902.0 3213.82   1
   3  13   6 19740.9 2869.89   2
   3  13   7 862.609 699.613   1
   3  13   7 69.9597 417.877   2
   3  13   8 5611.35 1537.97   2
   3  13   9-69.4559 609.074   2
  -3  14   8-1178.77 1113.55   4
   3  14  -7 17170.5 2321.20   2
  -3  14   7 22013.7 4020.92   4
  -3  14   6 194.616 975.835   4
   3  14  -6 783.899 510.861   2
   3  14  -5 20394.0 2638.46   2
  -3  14   5 16312.6 3361.34   4
  -3  14   4 688.928 819.830   4
   3  14  -4 550.360 506.844   1
   3  14  -4 901.320 696.104   2
  -3  14   3 15601.0 3050.42   4
   3  14  -3 16114.3 2403.88   1
   3  14  -3 15332.5 2377.99   2
   3  14  -2 75.6684 422.431   1
   3  14  -2 436.350 512.278   2
   3  14  -1 19648.7 2800.45   2
   3  14  -1 22674.2 2964.34   1
   3  14   0 157.909 415.085   1
   3  14   0-168.903 434.146   2
   3  14   1 22093.5 3011.61   2
   3  14   1 20383.8 2864.96   1
   3  14   2 484.753 595.108   1
   3  14   2 966.782 707.668   2
   3  14   3 21135.4 2939.39   1
   3  14   3 16393.8 2615.45   2
   3  14   4 541.448 536.459   1
   3  14   4 1335.09 823.389   2
   3  14   5 7220.86 1764.00   1
   3  14   5 6607.88 1661.68   2
   3  14   6 1898.57 993.594   1
   3  14   6 3124.42 1161.92   2
   3  14   7 11610.3 2175.56   2
  -3  15   7 1383.71 1144.28   4
   3  15  -7 647.255 663.240   2
  -3  15   6 3933.80 1769.24   4
   3  15  -6 4718.30 1296.68   2
  -3  15   5 753.847 858.034   4
   3  15  -5-4.64713 361.478   2
   3  15  -4 19068.8 2624.52   2
  -3  15   4 19628.1 3617.76   4
   3  15  -3 1617.77 802.773   1
   3  15  -3-271.039 465.145   2
   3  15  -2 34012.1 3621.29   2
   3  15  -2 28443.8 3240.21   1
   3  15  -1 1467.86 803.240   1
   3  15  -1 1464.57 784.750   2
   3  15   0 19545.2 2761.57   1
   3  15   0 20228.6 2841.40   2
   3  15   1 799.139 647.402   1
   3  15   1 102.139 402.674   2
   3  15   2 18390.9 2743.24   1
   3  15   2 17381.3 2681.04   2
   3  15   3 1731.37 832.612   1
   3  15   3 893.826 774.436   2
   3  15   4 15257.4 2578.50   1
   3  15   4 16937.5 2668.07   2
   3  15   5-282.443 463.557   1
   3  15   5 63.1649 657.437   2
   3  16  -7 9224.37 1752.94   2
  -3  16   6-1473.25 1149.51   4
   3  16  -6 460.195 495.250   2
  -3  16   5 15253.0 3377.55   4
   3  16  -5 16995.6 2456.94   2
  -3  16   4 848.245 898.112   4
   3  16  -4 430.917 531.450   2
   3  16  -3 14610.2 2187.11   1
   3  16  -3 9308.98 1866.16   2
   3  16  -2 868.524 579.930   1
   3  16  -2 104.951 553.268   2
   3  16  -1 19939.6 2800.16   2
   3  16  -1 13974.1 2295.46   1
   3  16   0 491.694 660.310   1
   3  16   0-541.648 612.417   2
   3  16   1 28672.6 3456.14   2
   3  16   1 26521.6 3260.95   1
   3  16   2 358.541 504.585   1
   3  16   2-1291.70 786.600   2
   3  16   3 15146.2 2550.31   1
   3  16   3 12243.3 2255.49   2
   3  16   4 1328.17 854.168   1
   3  17  -6 4084.19 1268.46   2
   3  17  -5 15.5426 369.180   2
  -3  17   4 8343.40 2598.95   4
   3  17  -4 15747.2 2434.20   2
   3  17  -3-695.738 603.510   2
   3  17  -2 15334.7 2358.50   1
   3  17  -2 18789.2 2760.51   2
   3  17  -1 2385.09 955.270   1
   3  17  -1-159.358 528.955   2
   3  17   0 11557.1 2139.80   1
   3  17   0 11655.7 2190.76   2
   3  17   1 84.0446 385.996   1
   3  17   1 597.227 782.942   2
   3  17   2 8335.81 1894.54   1
   3  17   3 210.879 492.338   1
   3  18  -5 6504.53 1694.86   2
   3  18  -4 328.743 540.407   2
   3  18  -1 6106.67 1588.64   1
   3  18   0 85.0556 324.678   1
   3  18   1 13147.6 2425.49   1
   3  19   0 1987.49 959.202   1
  -4   0  11 1750.47 1343.16   4
  -4   0  10 4644.84 1887.23   4
  -4   0   9-1194.29 1103.84   4
  -4   0   8 19664.5 3578.65   4
  -4   0   7-766.858 828.633   4
  -4   0   6 15051.9 2874.62   4
  -4   0   5-747.618 753.860   4
   4   0  -5-121.610 705.269   1
   4   0  -4 8495.86 2589.00   1
  -4   0   4 12544.8 2335.41   4
   4   0  -3-2034.31 1315.42   1
  -4   0   3 91.1128 566.752   4
   4   0  -2 42284.4 5753.84   1
   4   0  -1 1105.20 1117.94   1
   4   0   0 36408.1 5372.59   1
   4   0   1 158.253 631.533   1
   4   0   2 20550.8 3909.16   1
   4   0   3 1781.56 1277.95   1
   4   0   4 10517.9 2975.58   2
   4   0   4 11469.6 2925.17   1
   4   0   5-398.006 845.729   2
   4   0   5-1286.91 1170.58   1
   4   0   6 15118.0 3432.07   2
   4   0   6 15461.6 3481.10   1
   4   0   7-385.144 709.898   2
   4   0   7-2302.09 1427.47   1
   4   0   8 9773.39 2709.84   2
   4   0   8 6811.59 2316.43   1
   4   0   9-588.323 780.085   1
   4   0   9 1439.07 1160.92   2
   4   0  10 1767.64 1121.02   1
  -4   1  11 8248.31 2607.56   4
  -4  -1  11 8468.82 2619.08   4
  -4   1  10-1061.03 1101.51   4
  -4  -1  10 428.892 788.399   4
   4   1  -9 7072.85 2063.07   2
  -4   1   9 5368.74 2096.63   4
  -4  -1   9 5170.03 1940.43   4
   4   1  -8-2319.65 1324.60   2
  -4   1   8-1233.22 1103.70   4
  -4  -1   8-30.7898 620.995   4
   4   1  -7 17681.7 3817.80   1
  -4   1   7 16603.6 3193.19   4
  -4  -1   7 12144.4 2699.74   4
  -4   1   6-1591.03 1039.21   4
  -4  -1   6-1746.34 1084.92   4
   4   1  -6 219.482 761.100   1
  -4   1   5 20705.3 3209.94   4
  -4  -1   5 17517.6 2889.81   4
   4   1  -5 18660.9 3804.64   1
   4   1  -4 1207.01 1046.36   1
  -4   1   4-542.583 654.677   4
  -4  -1   4-239.360 496.491   4
   4  -1  -3 20295.3 3993.47   1
  -4   1   3 26714.4 3300.15   4
  -4  -1   3 26857.0 3245.25   4
   4   1  -3 21333.8 4059.36   1
   4   1  -2-10.6408 510.649   1
   4  -1  -2-1634.98 1369.41   1
   4  -1  -1 20615.9 3978.45   1
   4   1  -1 28249.6 4663.70   1
   4  -1   0-1193.71 1146.20   1
   4   1   0-1878.06 1277.14   1
   4   1   1 19799.6 3831.70   1
   4  -1   1 19933.6 3961.13   1
   4   1   2 294.693 756.967   1
   4   1   2-1556.93 1300.04   2
   4  -1   2 353.106 816.538   1
   4   1   3 28433.3 4611.16   2
   4  -1   3 28575.1 4721.84   1
   4   1   3 32492.2 4937.62   1
   4   1   4-36.8805 675.637   2
   4   1   4-702.349 968.108   1
   4  -1   4 394.686 844.647   1
   4   1   5 8388.34 2524.23   2
   4   1   5 7136.55 2336.38   1
   4  -1   5 6557.34 2346.54   1
   4   1   6-1066.78 1187.49   2
   4  -1   6 331.717 846.378   2
   4   1   6 589.769 816.456   1
   4  -1   6-1167.42 1143.64   1
   4   1   7 7098.35 2294.41   2
   4  -1   7 6842.34 2373.02   2
   4   1   7 7801.99 2395.66   1
   4  -1   7 10251.1 2910.16   1
   4   1   8 796.515 901.062   2
   4   1   8 1474.56 1232.71   1
   4  -1   8-10.7351 473.249   2
   4  -1   8-1274.04 1209.02   1
   4   1   9 5707.38 2137.88   2
   4  -1   9 7679.11 2566.47   2
   4  -1   9 4705.65 1948.84   1
   4   1   9 8596.11 2445.91   1
   4   1  10 936.228 996.300   1
   4  -1  10 407.876 736.137   1
  -4   2  11-434.232 852.441   4
  -4  -2  11 1105.01 990.028   4
   4   2 -10 5407.71 2124.32   1
  -4   2  10 4891.10 2196.20   4
  -4  -2  10 5687.24 2090.59   4
   4   2  -9 719.770 795.066   2
   4   2  -9-1117.08 1050.38   1
  -4   2   9-169.581 666.473   4
  -4  -2   9-1321.68 1174.13   4
   4   2  -8 21089.1 4251.90   1
   4   2  -8 15923.9 3325.79   2
  -4   2   8 18746.4 3629.81   4
  -4  -2   8 17757.9 3379.85   4
   4   2  -7 2555.37 1399.48   2
   4   2  -7 6195.27 2280.59   1
  -4   2   7 1606.46 1013.23   4
  -4  -2   7 2163.10 1212.84   4
   4   2  -6 14835.0 3281.90   2
   4   2  -6 12398.9 3215.38   1
  -4   2   6 12897.6 2714.39   4
  -4  -2   6 10994.3 2445.26   4
   4   2  -5-666.992 865.450   2
  -4   2   5-1116.39 895.267   4
  -4  -2   5-527.240 670.721   4
   4   2  -5-1666.15 1335.50   1
   4   2  -4 9827.32 2770.20   2
   4   2  -4 8132.78 2584.92   1
  -4   2   4 9144.33 2160.59   4
   4   2  -3-1041.40 1067.94   1
   4   2  -3-5.17866 823.388   2
  -4   2   3-74.3206 601.754   4
   4  -2  -2 33373.5 5039.62   1
   4   2  -2 28706.1 4676.24   2
   4   2  -2 28626.0 4711.77   1
   4   2  -1-319.364 654.544   2
   4   2  -1 719.364 697.028   1
   4  -2  -1 255.700 750.850   1
   4  -2   0 27786.5 4635.33   1
   4   2   0 32645.2 4935.02   2
   4   2   0 27048.5 4523.66   1
   4   2   1 76.5809 622.201   1
   4   2   1-47.2814 681.492   2
   4  -2   1-10.7492 906.624   1
   4   2   2 12563.3 3024.77   2
   4   2   2 12497.9 3025.76   1
   4  -2   2 11380.5 2964.34   1
   4   2   3-954.828 1029.66   2
   4  -2   3-591.716 818.773   1
   4   2   3 1239.92 1080.63   1
   4  -2   4 13575.5 3320.60   1
   4   2   4 9858.64 2695.69   2
   4   2   4 15745.4 3356.50   1
   4   2   5-387.550 838.292   2
   4   2   5 1014.80 1091.51   1
   4  -2   5 1930.14 1313.96   1
   4   2   6 21707.4 4065.33   2
   4   2   6 23478.4 4151.88   1
   4  -2   6 23028.3 4238.63   1
   4   2   7-439.725 800.497   2
   4   2   7 143.024 622.486   1
   4  -2   7-167.768 681.347   2
   4  -2   7 243.305 722.212   1
   4   2   8 10841.6 2786.18   1
   4   2   8 11300.2 2805.55   2
   4  -2   8 12712.9 3089.02   2
   4  -2   8 20786.4 4005.71   1
   4   2   9-990.695 1021.19   2
   4  -2   9-786.289 1054.67   2
   4  -2   9-1002.79 1030.41   1
   4   2   9 808.014 865.186   1
   4   2  10 8280.65 2369.16   1
   4  -2  10 3726.42 1637.97   1
  -4   3  11 5271.05 2093.11   4
   4   3 -10-1262.22 1079.26   1
  -4   3  10-930.343 1079.75   4
   4   3  -9 8911.18 2370.77   2
  -4   3   9 7669.14 2366.64   4
   4   3  -9 10597.5 3108.63   1
   4   3  -8 94.1200 613.153   2
  -4   3   8-985.430 1026.31   4
   4   3  -8-2009.25 1363.09   1
   4   3  -7 16920.2 3406.24   2
   4   3  -7 12776.3 3251.13   1
  -4   3   7 12524.1 2871.94   4
   4   3  -6 97.1062 823.861   2
   4   3  -6-2546.70 1540.84   1
  -4   3   6-632.977 804.179   4
   4   3  -5 13488.4 3082.83   2
   4   3  -5 10203.4 2878.33   1
  -4   3   5 10488.2 2428.36   4
   4   3  -4-212.680 604.955   2
  -4   3   4-1749.23 975.426   4
   4   3  -4 525.517 864.841   1
   4   3  -3 16815.4 3606.46   2
  -4   3   3 13939.3 2491.71   4
   4   3  -3 18366.1 3693.40   1
   4   3  -2-1048.45 1054.19   2
   4   3  -2-1600.95 1180.71   1
   4   3  -1 6432.48 2235.03   2
   4   3  -1 9084.52 2569.61   1
   4  -3  -1 10975.6 2922.05   1
   4   3   0 2052.31 1296.61   1
   4   3   0 840.536 931.968   2
   4  -3   0 224.624 1088.90   1
   4   3   1 20078.8 3867.48   2
   4   3   1 21235.4 3901.07   1
   4  -3   1 24611.7 4371.56   1
   4   3   2 2697.34 1585.12   2
   4  -3   2 295.111 882.683   1
   4   3   2 328.903 753.269   1
   4   3   3 23326.7 4162.74   2
   4   3   3 22012.8 4001.02   1
   4  -3   3 24115.8 4404.83   1
   4   3   4 101.722 647.096   2
   4  -3   4-1445.44 1248.63   1
   4   3   4 737.365 916.358   1
   4   3   5 16624.8 3468.19   2
   4   3   5 11753.5 2815.62   1
   4  -3   5 12910.6 3169.06   1
   4   3   6 45.2017 561.029   2
   4  -3   6 1182.24 1197.33   1
   4   3   7 11325.6 2822.48   2
   4   3   7 15155.7 3265.27   1
   4  -3   7 15998.6 3591.11   1
   4   3   8 1544.49 1189.01   2
   4  -3   8 1874.70 1277.77   2
   4  -3   8-638.408 909.321   1
   4   3   8-1154.83 1060.67   1
   4  -3   9 17341.3 3643.08   2
   4  -3   9 16564.4 3533.93   1
   4   3   9 18957.7 3544.51   1
   4  -3   9 10858.8 2458.18   3
   4   3   9 18306.5 3506.98   2
  -4   4  11 724.174 1107.23   4
  -4   4  10 12153.9 3067.20   4
   4   4  -9 117.182 567.977   2
   4   4  -9-2345.43 1583.45   1
  -4   4   9-1747.39 1265.11   4
   4   4  -8 14655.9 3024.60   2
   4   4  -8 16078.3 3594.10   1
  -4   4   8 13033.7 3069.96   4
   4   4  -7-3164.14 1505.14   2
  -4   4   7-1415.33 1130.17   4
   4   4  -7 93.8576 646.080   1
   4   4  -6 10209.9 2578.60   2
  -4   4   6 7410.72 2194.08   4
   4   4  -6 10243.6 2964.22   1
   4   4  -5 43.5717 744.859   2
  -4   4   5 591.332 707.302   4
   4   4  -5-486.538 872.180   1
   4   4  -4 3155.69 1543.97   2
   4   4  -4 6959.16 2267.72   1
  -4   4   4 8277.53 2061.27   4
   4   4  -3-1944.01 1280.94   2
   4   4  -3-1149.05 1132.95   1
  -4   4   3 38.7943 457.685   4
   4   4  -2 21375.7 3915.83   2
   4   4  -2 14727.1 3329.45   1
   4   4  -1-1223.66 1060.42   2
   4   4  -1-285.917 742.383   1
   4   4   0 17172.8 3589.47   2
   4  -4   0 15978.8 3520.76   1
   4   4   0 19659.8 3695.51   1
   4  -4   1 2859.73 1531.41   1
   4   4   1 1162.36 672.998   1
   4   4   2 11425.1 2872.29   2
   4   4   2 12453.7 2993.78   1
   4  -4   2 12105.8 3117.23   1
   4   4   3-1183.68 1148.42   2
   4  -4   3 849.421 1005.26   1
   4   4   4 14758.4 3256.81   2
   4   4   4 17839.3 3570.71   1
   4  -4   4 11853.3 3127.86   1
   4   4   5 1335.33 1110.99   2
   4  -4   5 1655.73 1348.45   1
   4   4   5 173.850 768.161   1
   4   4   6 21341.7 3853.69   2
   4   4   6 21689.9 3878.05   1
   4  -4   6 23082.5 4341.95   1
   4  -4   7-56.3986 755.186   1
   4   4   7 112.580 980.004   1
   4   4   7 312.224 783.776   2
   4  -4   8 19739.2 4050.64   1
   4   4   8 16655.3 3335.97   1
   4  -4   8 17342.5 2987.19   3
   4   4   8 16210.5 3295.85   2
   4  -4   9 285.963 751.050   2
   4  -4   9-942.995 1063.87   1
   4   4   9-515.065 840.971   1
   4  -4   9 1938.66 1093.16   3
   4   4   9 1258.04 996.539   2
  -4   5  11 6188.49 2360.83   4
  -4   5  10-1839.54 1368.78   4
   4   5  -9 10501.0 2863.18   1
  -4   5   9 8708.06 2544.50   4
   4   5  -8-599.567 752.287   2
  -4   5   8-104.806 640.446   4
   4   5  -7 13388.5 2861.68   2
   4   5  -7 11969.5 3088.36   1
  -4   5   7 8351.66 2446.07   4
   4   5  -6 40.7322 610.848   2
   4   5  -6-1138.80 1080.11   1
  -4   5   6 1764.33 1018.71   4
   4   5  -5 16395.1 3316.51   2
   4   5  -5 21678.3 4012.63   1
  -4   5   5 16146.8 3085.71   4
   4   5  -4-1850.92 1309.62   2
   4   5  -4 1385.42 1117.37   1
  -4   5   4-1402.34 956.256   4
   4   5  -3 16316.6 3394.50   1
   4   5  -3 15395.3 3281.77   2
  -4   5   3 14114.6 2686.53   4
   4   5  -2-508.341 1284.02   2
  -4   5   2 94.1973 601.388   4
   4   5  -2-430.812 738.243   1
   4   5  -1 10126.6 2725.70   2
   4   5  -1 14881.3 3188.83   1
   4   5   0-1680.05 1222.87   2
   4   5   0-184.314 686.210   1
   4   5   1 17265.9 3487.34   2
   4   5   1 14333.8 3158.34   1
   4  -5   1 14311.2 3377.00   1
   4   5   2 354.799 761.741   2
   4  -5   2-628.007 946.488   1
   4   5   2 979.822 1033.03   1
   4   5   3 17929.5 3549.85   2
   4   5   3 14029.7 3112.23   1
   4  -5   3 12174.3 3236.33   1
   4   5   4 3000.51 1532.79   2
   4   5   4 2059.64 1331.28   1
   4  -5   4 2633.06 1562.44   1
   4   5   5 14088.3 3108.44   2
   4   5   5 15386.1 3237.81   1
   4  -5   5 7888.69 2553.71   1
   4   5   6-205.399 747.821   1
   4  -5   6 675.721 638.070   3
   4  -5   6 86.8021 686.253   1
   4   5   6 1546.75 1130.76   2
   4  -5   7 14007.3 3438.00   1
   4   5   7 15976.5 3234.22   1
   4  -5   7 15028.3 2670.18   3
   4   5   7 12050.0 2863.85   2
   4  -5   8-284.418 756.057   1
   4   5   8 1535.62 1120.65   1
   4  -5   8 603.447 638.581   3
   4   5   8 9.12938 413.455   2
   4   5   9 15236.5 3151.64   2
   4  -5   9 15577.4 2854.99   3
  -4   6  10 7916.91 2594.94   4
  -4   6   9-597.907 890.711   4
   4   6  -8 12860.9 3060.16   1
  -4   6   8 13611.3 3200.23   4
   4   6  -8 8999.69 2300.42   2
   4   6  -7 266.034 594.029   2
   4   6  -7-20.4649 612.832   1
  -4   6   7 481.474 794.077   4
   4   6  -6 15276.8 3151.71   2
   4   6  -6 19963.3 3850.12   1
  -4   6   6 20423.9 3634.44   4
   4   6  -5 220.470 655.674   2
  -4   6   5 4.25653 890.188   4
   4   6  -5-757.609 973.560   1
   4   6  -4 15243.3 3157.90   2
  -4   6   4 11177.7 2546.63   4
   4   6  -4 8606.88 2431.04   1
   4   6  -3 504.379 570.615   2
  -4   6   3 865.868 788.578   4
   4   6  -3 357.781 683.086   1
   4   6  -2 20302.5 3745.06   2
  -4   6   2 23302.0 3434.03   4
   4   6  -2 24074.2 4144.16   1
   4   6  -1-101.172 631.827   2
   4   6  -1-956.590 925.467   1
   4   6   0 30843.2 4629.37   2
   4   6   0 24058.2 4085.31   1
   4   6   1 3816.03 1820.88   2
   4   6   1 3170.26 1533.68   1
   4   6   2 14120.1 3155.56   2
   4   6   2 14392.3 3154.02   1
   4  -6   2 18201.0 3841.79   1
   4   6   3-47.9474 510.686   2
   4   6   3 1744.27 1239.01   1
   4  -6   3 1415.85 1301.72   1
   4  -6   4 14350.0 3477.38   1
   4   6   4 13755.4 3172.99   1
   4  -6   4 14984.7 2347.92   3
   4   6   4 8296.74 2424.22   2
   4   6   5 50.4806 566.752   1
   4  -6   5 224.169 417.927   3
   4   6   5-816.803 820.899   2
   4  -6   6 16982.8 3787.53   1
   4   6   6 16258.0 3212.72   1
   4  -6   6 12722.8 2342.30   3
   4   6   6 11311.6 2760.41   2
   4  -6   7 591.303 1099.97   1
   4   6   7 2255.92 1315.30   1
   4  -6   7 2945.68 1212.44   3
   4   6   7 1851.29 1166.35   2
   4  -6   8 10241.2 2907.37   1
   4   6   8 5836.05 1928.52   2
   4  -6   8 12133.9 2411.05   3
   4   6   9-1395.41 1104.13   2
   4  -6   9 100.819 499.348   3
  -4   7  10 129.408 753.012   4
  -4   7   9 7342.51 2391.93   4
  -4   7   8 664.031 899.109   4
   4   7  -8 58.5341 508.884   1
   4   7  -8-637.973 679.477   2
  -4   7   7 13013.4 3076.75   4
   4   7  -7 10745.4 2804.95   1
   4   7  -7 10625.7 2477.99   2
  -4   7   6 344.137 802.771   4
   4   7  -6-126.651 570.571   1
   4   7  -6-548.325 843.273   2
  -4   7   5 20246.3 3599.98   4
   4   7  -5 18492.5 3686.02   1
   4   7  -5 21821.6 3702.28   2
  -4   7   4-948.347 807.117   4
   4   7  -4-759.659 923.876   1
   4   7  -4 4.45725 491.697   2
   4   7  -3 17735.5 3469.44   1
  -4   7   3 19235.5 3306.98   4
   4   7  -3 15075.7 3176.09   2
   4   7  -2-190.557 588.622   2
   4   7  -2-1815.36 1218.31   1
  -4   7   2-755.482 788.853   4
   4   7  -1 16130.9 3311.29   2
   4   7  -1 18739.0 3562.64   1
   4   7   0 1952.72 1184.03   1
   4   7   0 389.424 880.999   2
   4   7   1 28180.7 4320.46   1
   4   7   1 22456.4 3945.81   2
   4   7   2 2124.98 1369.40   1
   4  -7   2-166.664 763.990   1
   4   7   2 1118.45 1067.78   2
   4   7   3 12966.7 2952.94   1
   4  -7   3 7169.88 2358.16   1
   4   7   3 8747.45 2438.12   2
   4   7   4-804.804 781.836   1
   4  -7   4-1493.09 1313.82   1
   4   7   4 1572.03 1123.89   2
   4  -7   5 10546.1 3060.16   1
   4  -7   5 12009.7 2170.01   3
   4   7   5 10819.6 2671.32   1
   4   7   5 10302.5 2602.71   2
   4  -7   6-66.3914 1218.73   1
   4   7   6 1257.58 1065.05   1
   4   7   6-1854.43 1277.70   2
   4  -7   6 1499.69 822.243   3
   4   7   7 7915.20 2234.22   1
   4  -7   7 8765.55 2838.56   1
   4   7   7 7575.37 2248.03   2
   4  -7   7 5386.44 1604.77   3
   4   7   8-1983.52 1263.14   2
   4  -7   8 1298.86 828.383   3
   4  -7   9 7071.53 1928.63   3
  -4   8   9 1142.69 1224.04   4
  -4   8   8 10852.0 3013.35   4
   4   8  -8 7985.68 1955.06   2
   4   8  -7 716.407 882.608   1
  -4   8   7 113.503 594.336   4
   4   8  -7-570.054 769.671   2
   4   8  -6 12869.5 2953.87   1
  -4   8   6 8371.35 2423.65   4
   4   8  -6 16548.7 3024.16   2
   4   8  -5 561.270 786.337   1
  -4   8   5-1321.18 1076.32   4
   4   8  -5 1244.35 1176.22   2
   4   8  -4 18682.2 3617.39   1
  -4   8   4 15421.4 3175.71   4
   4   8  -4 22204.8 3706.66   2
   4   8  -3 561.281 851.983   1
  -4   8   3 445.936 699.787   4
   4   8  -3 1611.66 1055.90   2
   4   8  -2 21638.8 3759.76   1
  -4   8   2 17762.7 3165.03   4
   4   8  -2 17642.3 3368.13   2
   4   8  -1-372.624 882.159   1
   4   8  -1 3011.35 1427.83   2
   4   8   0 26087.1 4243.88   1
   4   8   0 25949.3 4159.77   2
   4   8   1 2056.65 1223.08   1
   4   8   1 1192.96 1030.99   2
   4   8   2 13999.7 3067.69   1
   4   8   2 13475.4 3001.37   2
   4   8   3 808.165 837.650   1
   4  -8   3 367.453 714.816   1
   4   8   3 493.658 850.046   2
   4  -8   4 6602.78 2303.38   1
   4   8   4 7216.80 2246.25   2
   4  -8   5 1080.48 1227.82   1
   4   8   5 2044.04 1348.22   1
   4   8   5-61.5123 639.029   2
   4  -8   6 11205.0 3175.92   1
   4   8   6 13818.6 2962.34   1
   4   8   6 13180.7 2941.95   2
   4  -8   7-473.394 1105.04   1
   4   8   7-221.518 780.933   2
   4   8   8 3695.89 1515.00   2
   4  -8   8 3327.44 1241.36   3
  -4   9   9 7117.76 2421.44   4
  -4   9   8-1051.62 1151.66   4
   4   9  -8 254.705 543.164   2
   4   9  -7 12509.9 2823.93   1
  -4   9   7 10347.7 2844.26   4
   4   9  -7 5735.08 1750.89   2
   4   9  -6 553.122 794.716   1
  -4   9   6 670.054 955.689   4
   4   9  -6-566.828 713.281   2
   4   9  -5 12407.2 2858.11   1
  -4   9   5 15471.8 3279.84   4
   4   9  -5 9747.66 2364.28   2
   4   9  -4 1613.89 1112.40   1
  -4   9   4 327.000 689.315   4
   4   9  -4 821.728 823.325   2
   4   9  -3 6912.90 2154.35   1
  -4   9   3 9339.10 2360.07   4
   4   9  -3 10645.7 2570.73   2
   4   9  -2-188.408 659.468   1
  -4   9   2-109.743 512.136   4
   4   9  -2-701.507 870.136   2
   4   9  -1 22790.8 3833.31   1
   4   9  -1 21358.8 3710.15   2
   4   9   0 679.899 886.270   1
   4   9   0-528.900 747.787   2
   4   9   1 21377.5 3717.69   1
   4   9   1 23013.5 3844.57   2
   4   9   2-711.051 966.110   2
   4   9   2-331.223 614.071   1
   4  -9   3 9294.03 2881.24   1
   4   9   3 13513.9 2855.91   1
   4   9   3 8317.03 2339.56   2
   4  -9   4-41.7589 1052.27   1
   4   9   4-283.504 797.703   1
   4   9   4 309.142 811.599   2
   4  -9   5 8171.54 2851.48   1
   4   9   5 9038.72 2421.29   1
   4   9   5 8596.81 2369.82   2
   4  -9   6 1647.09 1373.56   1
   4   9   6-92.8327 635.425   2
  -4  10   8 5267.51 2160.60   4
  -4  10   7-519.452 768.026   4
   4  10  -7-396.887 574.814   2
   4  10  -6 8703.15 2289.78   1
  -4  10   6 9201.61 2676.01   4
   4  10  -6 6589.66 1868.70   2
   4  10  -5 695.685 770.536   1
  -4  10   5 1673.81 1125.08   4
   4  10  -5 1272.57 931.634   2
   4  10  -4 17876.2 3371.08   1
  -4  10   4 13984.2 3092.11   4
   4  10  -4 13415.1 2780.22   2
   4  10  -3-294.929 651.373   1
   4  10  -3-1448.08 1040.44   2
   4  10  -2 8148.07 2307.41   1
  -4  10   2 7147.50 2110.91   4
   4  10  -2 6647.25 1945.74   2
   4  10  -1 1214.11 985.638   1
   4  10  -1 766.257 749.948   2
   4  10   0 14416.5 3030.08   1
   4  10   0 16437.4 3168.14   2
   4  10   1-556.062 746.555   2
   4  10   1 689.891 713.347   1
   4  10   2 8230.76 2229.22   1
   4  10   2 9707.05 2423.63   2
   4  10   3 1926.01 1209.61   1
   4  10   3 552.556 660.298   2
   4 -10   4 13179.2 3368.47   1
   4  10   4 12305.7 2779.81   1
   4  10   4 9520.39 2463.97   2
   4 -10   5 883.709 1124.18   1
   4  10   5 2464.66 1448.38   2
   4 -10   6 9404.96 3007.74   1
  -4  11   8 680.538 1005.86   4
  -4  11   7 2952.99 1632.74   4
   4  11  -7 7908.81 1908.15   2
  -4  11   6 606.286 920.186   4
   4  11  -6-170.644 532.884   2
   4  11  -5 8000.05 2142.51   1
  -4  11   5 3451.29 1711.61   4
   4  11  -5 6096.16 1794.11   2
   4  11  -4 440.483 609.084   1
  -4  11   4 113.325 623.859   4
   4  11  -4-795.587 824.340   2
   4  11  -3 5536.62 1804.88   1
  -4  11   3 3563.87 1616.92   4
   4  11  -3 4721.68 1569.06   2
  -4  11   2-99.6123 530.298   4
   4  11  -2-35.5940 712.652   2
   4  11  -2 546.926 517.929   1
   4  11  -1 13670.4 2823.00   2
   4  11  -1 12681.5 2753.38   1
   4  11   0 2697.88 1281.74   1
   4  11   0-402.791 713.669   2
   4  11   1 5493.73 1776.79   1
   4  11   1 4719.83 1738.81   2
   4  11   2 1772.96 1136.27   1
   4  11   2 1132.24 1007.96   2
   4  11   3 9830.61 2442.50   1
   4  11   3 9662.03 2470.29   2
   4 -11   4-1123.16 1185.16   1
   4  11   4 1949.06 1149.57   1
   4  11   4-2020.10 1271.76   2
   4 -11   5 10125.6 3106.22   1
  -4  12   7 818.315 920.417   4
   4  12  -7-18.6006 356.712   2
  -4  12   6 7243.77 2433.78   4
   4  12  -6 2856.07 1277.65   2
  -4  12   5 1461.96 1162.78   4
   4  12  -5 513.074 630.949   2
   4  12  -5-310.739 526.293   1
  -4  12   4 9673.28 2698.21   4
   4  12  -4 12363.0 2533.55   2
   4  12  -4 7869.67 2139.88   1
  -4  12   3-1119.36 996.434   4
   4  12  -3 625.947 676.258   2
   4  12  -3 1684.04 1060.53   1
  -4  12   2 6289.22 2070.36   4
   4  12  -2 4988.24 1719.54   1
   4  12  -2 3208.26 1343.43   2
   4  12  -1-1547.13 1031.81   1
   4  12  -1-380.988 608.040   2
   4  12   0 6443.65 1959.07   1
   4  12   0 4559.91 1724.16   2
   4  12   1 661.637 709.753   1
   4  12   1-95.6723 563.624   2
   4  12   2 12591.4 2706.43   1
   4  12   2 10274.4 2463.89   2
   4  12   3-550.243 680.002   1
   4 -12   4 10005.3 2884.79   1
   4  13  -7 6750.61 1667.13   2
  -4  13   6 695.486 746.887   4
   4  13  -6 2156.48 1025.24   2
  -4  13   5 6151.27 2232.64   4
   4  13  -5 3561.25 1434.24   2
  -4  13   4 1247.28 997.458   4
   4  13  -4 811.027 699.934   1
   4  13  -4 351.059 512.203   2
  -4  13   3 9635.99 2698.92   4
   4  13  -3 9240.00 2194.44   1
   4  13  -3 10606.5 2392.28   2
  -4  13   2-2123.48 1269.48   4
   4  13  -2 421.957 671.480   1
   4  13  -2-941.071 775.173   2
   4  13  -1 8140.92 2116.51   1
   4  13  -1 10855.2 2419.83   2
   4  13   0-839.855 858.802   1
   4  13   0 198.100 523.578   2
   4  13   1 10958.1 2476.32   1
   4 -13   4-1540.34 1272.16   1
   4  14  -6 5579.78 1599.06   2
  -4  14   5 842.843 1123.43   4
   4  14  -5-290.903 505.384   2
  -4  14   4 8860.77 2857.04   4
  -4  14   3-1053.15 1016.96   4
   4  14  -3 2126.93 1122.37   1
   4  14  -2 4271.80 1516.02   1
   4  14  -1-1582.80 1043.02   1
   4  14   0 3545.46 1395.43   1
  -4  15   4-1105.32 1104.14   4
  -4  15   3 9196.28 2724.52   4
   4  15  -2 408.527 585.397   1
   4  15  -1 10712.2 2304.86   1
   5   0  -8 526.587 910.961   2
   5   0  -7 10855.5 3146.05   2
   5   0  -5 8444.78 2985.53   1
   5   0  -4-556.207 1026.50   1
   5   0  -3 12115.6 3470.64   1
   5   0  -2-266.271 841.156   1
   5   0  -1 8519.29 2960.62   1
   5   1  -8 6790.75 2509.75   2
   5   1  -7 2121.14 1452.75   2
   5   1  -6 4830.76 2098.68   2
   5   1  -5-1500.59 1427.72   1
   5   1  -5-2948.41 1791.22   2
   5   1  -4 9396.90 3052.25   2
   5   1  -4 14110.8 3731.62   1
   5   1  -3-2200.56 1579.01   2
   5  -1  -3-2852.02 1792.78   1
   5   1  -3-1761.66 1437.32   1
   5  -1  -2 15457.9 3913.32   1
   5   1  -2 10483.0 3209.98   2
   5   1  -2 9477.66 3160.01   1
   5   1  -1 2552.67 1592.33   2
   5   1  -1-136.280 570.038   1
   5  -1  -1 1391.68 1376.12   1
   5   2  -7 2963.29 1726.69   2
   5   2  -6-2523.81 1609.07   2
   5   2  -6 302.755 1016.34   1
   5   2  -5 4206.87 2095.54   2
   5   2  -5 9400.83 3105.74   1
   5   2  -4-2139.40 1614.18   2
   5   2  -4-3221.72 1880.88   1
   5   2  -3 5781.22 2599.96   2
   5   2  -3 5267.23 2341.16   1
   5   2  -2 196.499 672.684   2
   5   2  -2-979.385 1199.29   1
   5   2  -1 8146.66 3002.86   1
   5   2  -1 3850.14 1980.79   2
   5   3  -7 605.224 732.148   2
   5   3  -6 1711.55 1102.62   2
   5   3  -6 8410.65 3054.85   1
   5   3  -5-1749.11 1359.63   2
   5   3  -5-5919.03 2586.07   1
   5   3  -4 8784.58 2914.40   2
   5   3  -4 14657.3 3856.49   1
   5   3  -3-2524.37 1712.19   2
   5   3  -3 267.602 834.797   1
   5   3  -2 6385.73 2588.79   1
   5   3  -2 5443.37 2338.64   2
   5   4  -7 3636.73 1785.87   2
   5   4  -6-1711.10 1284.58   2
   5   4  -6 744.811 913.661   1
   5   4  -5 5919.52 2610.36   2
   5   4  -5 7265.32 2895.21   1
   5   4  -4 1847.84 1472.45   1
   5   4  -4-409.332 1061.44   2
   5   4  -3 4834.66 2265.55   2
   5   4  -3 2049.81 1483.92   1
   5   4  -2 393.001 928.141   1
   5   5  -6 4145.09 2057.46   1
   5   5  -5-2108.86 1568.24   1
   5   5  -4 5338.91 2327.96   1
   0   0   0    0.00    0.00   0

TITL JM-L67AAAA in P2(1)/n
REM P2(1)/n (#14 in standard setting)
CELL 0.71073   4.007932  17.062096  12.951592  90.0000  95.1800  90.0000
ZERR    4.00   0.000260   0.001011   0.000607   0.0000   0.0049   0.0000
LATT  1
SYMM -x+1/2, y+1/2,-z+1/2
SFAC C H N O
UNIT 44.00 40.00 4.00 4.00
TREF
HKLF 4
END
;
_shelx_hkl_checksum              92179
_olex2_submission_special_instructions 'No special instructions were received'
_oxdiff_exptl_absorpt_empirical_details
;
Empirical correction (ABSPACK) includes:
- Absorption correction using spherical harmonics
- Frame scaling
;
_oxdiff_exptl_absorpt_empirical_full_max 1.789
_oxdiff_exptl_absorpt_empirical_full_min 0.559
loop_
_space_group_symop_operation_xyz
'x, y, z'
'-x+1/2, y+1/2, -z+1/2'
'-x, -y, -z'
'x-1/2, -y-1/2, z-1/2'
loop_
_atom_site_label
_atom_site_type_symbol
_atom_site_fract_x
_atom_site_fract_y
_atom_site_fract_z
_atom_site_U_iso_or_equiv
_atom_site_adp_type
_atom_site_occupancy
_atom_site_site_symmetry_order
_atom_site_calc_flag
_atom_site_refinement_flags_posn
_atom_site_refinement_flags_adp
_atom_site_refinement_flags_occupancy
_atom_site_disorder_assembly
_atom_site_disorder_group
Pt1 Pt 0.000000 0.500000 1.000000 0.02728(17) Uani 1 2 d S . P . .
S2 S 0.7169(6) 0.52881(13) 1.35849(15) 0.0418(6) Uani 1 1 d . . . . .
S1 S -0.0236(6) 0.62969(11) 0.95235(15) 0.0415(6) Uani 1 1 d . . . . .
N3 N -0.3546(16) 0.5468(3) 0.7962(4) 0.0316(16) Uani 1 1 d . . . . .
N2 N 0.2628(17) 0.5152(3) 1.1394(5) 0.0284(15) Uani 1 1 d . . . . .
N4 N -0.3155(18) 0.6791(3) 0.7738(4) 0.0396(17) Uani 1 1 d . . . . .
H4 H -0.241555 0.723799 0.796568 0.047 Uiso 1 1 calc R U . . .
C3 C 0.547(2) 0.5977(4) 1.2726(5) 0.0312(18) Uani 1 1 d . . . . .
N1 N 0.6099(19) 0.6709(4) 1.3027(5) 0.0427(19) Uani 1 1 d . . . . .
C1 C 0.879(2) 0.6026(5) 1.4375(6) 0.046(2) Uani 1 1 d . . . . .
H1 H 1.005253 0.594994 1.500606 0.055 Uiso 1 1 calc R U . . .
C4 C 0.357(2) 0.5835(5) 1.1751(5) 0.037(2) Uani 1 1 d . . . . .
H4A H 0.295930 0.626886 1.134180 0.045 Uiso 1 1 calc R U . . .
C2 C 0.799(2) 0.6724(5) 1.3960(5) 0.042(2) Uani 1 1 d . . . . .
H2 H 0.867430 0.719061 1.428379 0.051 Uiso 1 1 calc R U . . .
C5 C -0.249(2) 0.6152(4) 0.8322(5) 0.0328(19) Uani 1 1 d . . . . .
C6 C -0.508(3) 0.6756(5) 0.6730(6) 0.050(3) Uani 1 1 d . . . . .
H6A H -0.382783 0.647719 0.625033 0.076 Uiso 1 1 calc R U . . .
H6B H -0.552861 0.727858 0.647808 0.076 Uiso 1 1 calc R U . . .
H6C H -0.716245 0.649005 0.679641 0.076 Uiso 1 1 calc R U . . .
loop_
_atom_site_aniso_label
_atom_site_aniso_U_11
_atom_site_aniso_U_22
_atom_site_aniso_U_33
_atom_site_aniso_U_23
_atom_site_aniso_U_13
_atom_site_aniso_U_12
Pt1 0.0339(3) 0.0217(3) 0.0256(2) 0.00059(16) -0.00084(17) 0.00055(18)
S2 0.0574(16) 0.0275(11) 0.0381(11) 0.0027(9) -0.0089(10) 0.0062(11)
S1 0.0609(16) 0.0238(11) 0.0369(11) 0.0027(9) -0.0110(10) -0.0024(10)
N3 0.041(4) 0.018(4) 0.034(3) 0.001(3) -0.004(3) 0.005(3)
N2 0.039(4) 0.023(4) 0.023(3) -0.007(2) 0.003(3) -0.001(3)
N4 0.060(5) 0.020(4) 0.037(3) 0.000(3) -0.010(3) 0.002(3)
C3 0.041(5) 0.020(4) 0.032(4) 0.000(3) -0.002(4) 0.001(3)
N1 0.065(6) 0.021(4) 0.040(4) -0.002(3) -0.004(4) -0.001(3)
C1 0.062(7) 0.035(5) 0.038(4) -0.004(4) -0.013(4) 0.008(4)
C4 0.054(6) 0.029(5) 0.027(4) 0.003(3) -0.008(4) 0.001(4)
C2 0.063(7) 0.026(5) 0.035(4) -0.015(4) -0.009(4) -0.004(4)
C5 0.034(5) 0.028(5) 0.038(4) -0.003(3) 0.006(4) 0.002(4)
C6 0.071(7) 0.041(6) 0.037(4) 0.008(4) -0.009(4) -0.005(5)
loop_
_atom_type_symbol
_atom_type_description
_atom_type_scat_dispersion_real
_atom_type_scat_dispersion_imag
_atom_type_scat_source
C C 0.0033 0.0016 'International Tables Vol C Tables 4.2.6.8 and 6.1.1.4'
H H 0.0000 0.0000 'International Tables Vol C Tables 4.2.6.8 and 6.1.1.4'
N N 0.0061 0.0033 'International Tables Vol C Tables 4.2.6.8 and 6.1.1.4'
Pt Pt -1.7033 8.3905 'International Tables Vol C Tables 4.2.6.8 and 6.1.1.4'
S S 0.1246 0.1234 'International Tables Vol C Tables 4.2.6.8 and 6.1.1.4'
loop_
_geom_angle_atom_site_label_1
_geom_angle_atom_site_label_2
_geom_angle_atom_site_label_3
_geom_angle
_geom_angle_site_symmetry_1
_geom_angle_site_symmetry_3
_geom_angle_publ_flag
S1 Pt1 S1 180.0 . 3_567 ?
N2 Pt1 S1 97.02(17) 3_567 3_567 ?
N2 Pt1 S1 97.02(17) . . ?
N2 Pt1 S1 82.98(17) 3_567 . ?
N2 Pt1 S1 82.98(17) . 3_567 ?
N2 Pt1 N2 180.0 3_567 . ?
C1 S2 C3 89.5(4) . . ?
C5 S1 Pt1 96.2(3) . . ?
C5 N3 N2 114.0(6) . 3_567 ?
N3 N2 Pt1 122.1(4) 3_567 . ?
C4 N2 Pt1 122.9(5) . . ?
C4 N2 N3 114.9(6) . 3_567 ?
C5 N4 H4 118.8 . . ?
C5 N4 C6 122.3(6) . . ?
C6 N4 H4 118.8 . . ?
N1 C3 S2 113.6(5) . . ?
N1 C3 C4 119.3(7) . . ?
C4 C3 S2 127.1(6) . . ?
C3 N1 C2 110.7(6) . . ?
S2 C1 H1 124.8 . . ?
C2 C1 S2 110.5(6) . . ?
C2 C1 H1 124.8 . . ?
N2 C4 C3 125.3(7) . . ?
N2 C4 H4A 117.3 . . ?
C3 C4 H4A 117.3 . . ?
N1 C2 H2 122.2 . . ?
C1 C2 N1 115.7(7) . . ?
C1 C2 H2 122.2 . . ?
N3 C5 S1 124.6(6) . . ?
N3 C5 N4 118.8(6) . . ?
N4 C5 S1 116.7(5) . . ?
N4 C6 H6A 109.5 . . ?
N4 C6 H6B 109.5 . . ?
N4 C6 H6C 109.5 . . ?
H6A C6 H6B 109.5 . . ?
H6A C6 H6C 109.5 . . ?
H6B C6 H6C 109.5 . . ?
loop_
_geom_bond_atom_site_label_1
_geom_bond_atom_site_label_2
_geom_bond_distance
_geom_bond_site_symmetry_2
_geom_bond_publ_flag
Pt1 S1 2.2968(19) . ?
Pt1 S1 2.2969(19) 3_567 ?
Pt1 N2 2.023(6) 3_567 ?
Pt1 N2 2.023(6) . ?
S2 C3 1.716(7) . ?
S2 C1 1.713(8) . ?
S1 C5 1.745(8) . ?
N3 N2 1.377(8) 3_567 ?
N3 C5 1.312(9) . ?
N2 C4 1.298(9) . ?
N4 H4 0.8600 . ?
N4 C5 1.341(9) . ?
N4 C6 1.457(9) . ?
C3 N1 1.325(9) . ?
C3 C4 1.435(9) . ?
N1 C2 1.367(9) . ?
C1 H1 0.9300 . ?
C1 C2 1.334(10) . ?
C4 H4A 0.9300 . ?
C2 H2 0.9300 . ?
C6 H6A 0.9600 . ?
C6 H6B 0.9600 . ?
C6 H6C 0.9600 . ?
loop_
_geom_torsion_atom_site_label_1
_geom_torsion_atom_site_label_2
_geom_torsion_atom_site_label_3
_geom_torsion_atom_site_label_4
_geom_torsion
_geom_torsion_site_symmetry_1
_geom_torsion_site_symmetry_2
_geom_torsion_site_symmetry_3
_geom_torsion_site_symmetry_4
_geom_torsion_publ_flag
Pt1 S1 C5 N3 1.3(7) . . . . ?
Pt1 S1 C5 N4 -178.5(6) . . . . ?
Pt1 N2 C4 C3 -179.2(6) . . . . ?
S2 C3 N1 C2 0.2(9) . . . . ?
S2 C3 C4 N2 5.1(13) . . . . ?
S2 C1 C2 N1 0.3(10) . . . . ?
N3 N2 C4 C3 1.0(12) 3_567 . . . ?
N2 N3 C5 S1 -2.0(10) 3_567 . . . ?
N2 N3 C5 N4 177.7(7) 3_567 . . . ?
C3 S2 C1 C2 -0.1(7) . . . . ?
C3 N1 C2 C1 -0.3(11) . . . . ?
N1 C3 C4 N2 -176.1(8) . . . . ?
C1 S2 C3 N1 -0.1(7) . . . . ?
C1 S2 C3 C4 178.8(8) . . . . ?
C4 C3 N1 C2 -178.7(7) . . . . ?
C6 N4 C5 S1 -178.5(6) . . . . ?
C6 N4 C5 N3 1.7(12) . . . . ?
