#------------------------------------------------------------------------------
#$Date: 2022-04-12 02:05:35 +0300 (Tue, 12 Apr 2022) $
#$Revision: 274457 $
#$URL: file:///home/coder/svn-repositories/cod/cif/7/70/99/7709964.cif $
#------------------------------------------------------------------------------
#
# This file is available in the Crystallography Open Database (COD),
# http://www.crystallography.net/
#
# All data on this site have been placed in the public domain by the
# contributors.
#
data_7709964
loop_
_publ_author_name
'Tulewicz, Adam'
'Szejko, Vadim'
'Justyniak, Iwona'
'Wolska, Ma\/lgorzata'
'Lewinski, Janusz'
_publ_section_title
;
 Exploring the reactivity of homoleptic organozincs towards SO2: Synthesis
 and structure of a homologous series of organozinc sulfinates
;
_journal_name_full               'Dalton Transactions'
_journal_paper_doi               10.1039/D2DT00577H
_journal_year                    2022
_chemical_formula_sum            'C32 H36 O6 S2 Zn2'
_chemical_formula_weight         711.47
_space_group_crystal_system      triclinic
_space_group_IT_number           2
_space_group_name_Hall           '-P 1'
_space_group_name_H-M_alt        'P -1'
_atom_sites_solution_hydrogens   geom
_audit_creation_method           SHELXL-2018/3
_audit_update_record
;
2021-10-19 deposited with the CCDC.	2022-04-11 downloaded from the CCDC.
;
_cell_angle_alpha                78.722(5)
_cell_angle_beta                 74.655(5)
_cell_angle_gamma                67.772(5)
_cell_formula_units_Z            1
_cell_length_a                   8.792(5)
_cell_length_b                   9.326(5)
_cell_length_c                   10.669(5)
_cell_measurement_reflns_used    2727
_cell_measurement_temperature    100(2)
_cell_measurement_theta_max      29.6440
_cell_measurement_theta_min      3.8740
_cell_volume                     776.4(7)
_computing_cell_refinement       'CrysAlisPro 1.171.40.84a (Rigaku OD, 2020)'
_computing_data_collection       'CrysAlisPro 1.171.40.84a (Rigaku OD, 2020)'
_computing_data_reduction        'CrysAlisPro 1.171.40.84a (Rigaku OD, 2020)'
_computing_structure_refinement  'SHELXL-2018/3 (Sheldrick, 2018)'
_diffrn_ambient_temperature      100(2)
_diffrn_detector                 'CCD plate'
_diffrn_detector_area_resol_mean 16.2974
_diffrn_measured_fraction_theta_full 0.999
_diffrn_measured_fraction_theta_max 0.853
_diffrn_measurement_device       'four-circle diffractometer'
_diffrn_measurement_device_type  'SuperNova, Dual, Cu at home/near, Eos'
_diffrn_measurement_method       '\w scans'
_diffrn_radiation_type           MoK\a
_diffrn_radiation_wavelength     0.71073
_diffrn_reflns_av_R_equivalents  0.0293
_diffrn_reflns_av_unetI/netI     0.0524
_diffrn_reflns_Laue_measured_fraction_full 0.999
_diffrn_reflns_Laue_measured_fraction_max 0.853
_diffrn_reflns_limit_h_max       11
_diffrn_reflns_limit_h_min       -12
_diffrn_reflns_limit_k_max       12
_diffrn_reflns_limit_k_min       -12
_diffrn_reflns_limit_l_max       15
_diffrn_reflns_limit_l_min       -14
_diffrn_reflns_number            6161
_diffrn_reflns_point_group_measured_fraction_full 0.999
_diffrn_reflns_point_group_measured_fraction_max 0.853
_diffrn_reflns_theta_full        25.242
_diffrn_reflns_theta_max         30.163
_diffrn_reflns_theta_min         2.373
_diffrn_source                   'micro-focus sealed X-ray tube'
_diffrn_source_type              'SuperNova (Mo) X-ray Source'
_exptl_absorpt_coefficient_mu    1.722
_exptl_absorpt_correction_T_max  0.886
_exptl_absorpt_correction_T_min  0.726
_exptl_absorpt_correction_type   multi-scan
_exptl_absorpt_process_details
;
CrysAlisPro 1.171.40.84a (Rigaku Oxford Diffraction, 2020)
Empirical absorption correction using spherical harmonics,
implemented in SCALE3 ABSPACK scaling algorithm.
;
_exptl_crystal_colour            colorless
_exptl_crystal_density_diffrn    1.522
_exptl_crystal_description       plate
_exptl_crystal_F_000             368
_exptl_crystal_size_max          0.21
_exptl_crystal_size_mid          0.16
_exptl_crystal_size_min          0.07
_refine_diff_density_max         0.652
_refine_diff_density_min         -0.495
_refine_diff_density_rms         0.087
_refine_ls_extinction_method     none
_refine_ls_goodness_of_fit_ref   1.050
_refine_ls_hydrogen_treatment    constr
_refine_ls_matrix_type           full
_refine_ls_number_parameters     190
_refine_ls_number_reflns         3931
_refine_ls_number_restraints     0
_refine_ls_restrained_S_all      1.050
_refine_ls_R_factor_all          0.0449
_refine_ls_R_factor_gt           0.0361
_refine_ls_shift/su_max          0.002
_refine_ls_shift/su_mean         0.000
_refine_ls_structure_factor_coef Fsqd
_refine_ls_weighting_details
'w=1/[\s^2^(Fo^2^)+(0.0391P)^2^] where P=(Fo^2^+2Fc^2^)/3'
_refine_ls_weighting_scheme      calc
_refine_ls_wR_factor_gt          0.0826
_refine_ls_wR_factor_ref         0.0872
_reflns_Friedel_coverage         0.000
_reflns_number_gt                3412
_reflns_number_total             3931
_reflns_threshold_expression     'I > 2\s(I)'
_cod_data_source_file            d2dt00577h2.cif
_cod_data_source_block           shelx_CCDC2
_cod_database_code               7709964
_shelx_shelxl_version_number     2018/3
_shelx_space_group_comment
;
The symmetry employed for this shelxl refinement is uniquely defined
by the following loop, which should always be used as a source of
symmetry information in preference to the above space-group names.
They are only intended as comments.
;
_shelx_res_file
;
TITL AT384Znprzes in P1
    shelx.res
    created by SHELXL-2018/3 at 23:16:31 on 18-Oct-2021
CELL  0.71073   8.7920   9.3260  10.6690   78.722   74.655   67.772
ZERR     1.00   0.0050   0.0050   0.0050    0.005    0.005    0.005
LATT   1
SFAC  C    H    O    S    ZN
UNIT  32 36 6 2 2
MERG   2
OMIT     0.00 180.00
FMAP   2
PLAN   25
ACTA
L.S.   8
TEMP  -173.00
WGHT    0.039100
FVAR       4.77715
C1    1    0.120075    0.255476    0.768183    11.00000    0.01379    0.01610 =
         0.01519    0.00212   -0.00210   -0.00703
C2    1    0.003330    0.368422    0.699856    11.00000    0.01913    0.01682 =
         0.01822    0.00085   -0.00425   -0.00710
AFIX  43
H2    2   -0.053841    0.468190    0.730385    11.00000   -1.20000
AFIX   0
C3    1   -0.031932    0.340212    0.589511    11.00000    0.02048    0.02295 =
         0.01794    0.00471   -0.00668   -0.00958
AFIX  43
H3    2   -0.111871    0.419998    0.546236    11.00000   -1.20000
AFIX   0
C4    1    0.049001    0.196268    0.542411    11.00000    0.02563    0.02949 =
         0.01643   -0.00400   -0.00307   -0.01435
AFIX  43
H4    2    0.024507    0.176159    0.467399    11.00000   -1.20000
AFIX   0
C5    1    0.166316    0.081780    0.606151    11.00000    0.02754    0.02032 =
         0.02235   -0.00713   -0.00127   -0.00847
AFIX  43
H5    2    0.223270   -0.017315    0.574353    11.00000   -1.20000
AFIX   0
C6    1    0.201019    0.111212    0.716281    11.00000    0.01783    0.01803 =
         0.01995    0.00178   -0.00448   -0.00479
AFIX  43
H6    2    0.282314    0.031105    0.758104    11.00000   -1.20000
AFIX   0
C7    1   -0.343071    0.378677    1.214182    11.00000    0.01464    0.00987 =
         0.01676    0.00157   -0.00338   -0.00402
C8    1   -0.493113    0.355755    1.221759    11.00000    0.01675    0.01865 =
         0.01904   -0.00091   -0.00673   -0.00707
AFIX  43
H8    2   -0.531599    0.363541    1.144620    11.00000   -1.20000
AFIX   0
C9    1   -0.585548    0.321395    1.343550    11.00000    0.01554    0.01991 =
         0.02695   -0.00105   -0.00295   -0.00784
AFIX  43
H9    2   -0.688155    0.305811    1.349909    11.00000   -1.20000
AFIX   0
C10   1   -0.528995    0.309720    1.455775    11.00000    0.02106    0.01761 =
         0.01834   -0.00063    0.00025   -0.00672
AFIX  43
H10   2   -0.592824    0.285941    1.538768    11.00000   -1.20000
AFIX   0
C11   1   -0.378512    0.332746    1.447532    11.00000    0.02475    0.02087 =
         0.01586    0.00189   -0.00664   -0.00880
AFIX  43
H11   2   -0.340112    0.324782    1.524750    11.00000   -1.20000
AFIX   0
C12   1   -0.284947    0.367387    1.325923    11.00000    0.01636    0.01856 =
         0.01816    0.00034   -0.00549   -0.00746
AFIX  43
H12   2   -0.182402    0.383136    1.319465    11.00000   -1.20000
AFIX   0
C13   1    0.325348    0.095039    1.154633    11.00000    0.02894    0.02119 =
         0.01891    0.00230   -0.01231   -0.01067
AFIX  23
H13A  2    0.244955    0.185332    1.200915    11.00000   -1.20000
H13B  2    0.437779    0.105361    1.130080    11.00000   -1.20000
AFIX   0
C14   1    0.331138   -0.056503    1.241193    11.00000    0.05272    0.03081 =
         0.02590    0.01421   -0.02099   -0.02543
AFIX  23
H14A  2    0.440915   -0.107658    1.267455    11.00000   -1.20000
H14B  2    0.240826   -0.037181    1.320877    11.00000   -1.20000
AFIX   0
C15   1    0.305763   -0.156595    1.157926    11.00000    0.02820    0.01469 =
         0.02164    0.00565   -0.00473   -0.00934
AFIX  23
H15A  2    0.414348   -0.220907    1.107691    11.00000   -1.20000
H15B  2    0.245190   -0.225465    1.211980    11.00000   -1.20000
AFIX   0
C16   1    0.201847   -0.036950    1.069301    11.00000    0.03440    0.02274 =
         0.02780    0.00663   -0.01492   -0.01920
AFIX  23
H16A  2    0.212034   -0.080416    0.988691    11.00000   -1.20000
H16B  2    0.081951    0.001032    1.113738    11.00000   -1.20000
AFIX   0
O1    3   -0.048872    0.358536    1.079254    11.00000    0.01297    0.01632 =
         0.01838    0.00140   -0.00346   -0.00322
O2    3   -0.284612    0.593038    1.029333    11.00000    0.01615    0.01367 =
         0.02166    0.00282   -0.00653   -0.00536
O3    3    0.271585    0.088003    1.039400    11.00000    0.01830    0.01382 =
         0.01621    0.00185   -0.00707   -0.00581
S1    4   -0.226504    0.415400    1.054021    11.00000    0.01492    0.01395 =
         0.01443    0.00061   -0.00418   -0.00638
ZN1   5    0.153932    0.294198    0.931154    11.00000    0.01465    0.01337 =
         0.01442    0.00137   -0.00430   -0.00418
HKLF    4




REM  AT384Znprzes in P1
REM wR2 = 0.0872, GooF = S = 1.050, Restrained GooF = 1.050 for all data
REM R1 = 0.0361 for 3412 Fo > 4sig(Fo) and 0.0449 for all 3931 data
REM 190 parameters refined using 0 restraints

END

WGHT      0.0390      0.0000

REM Highest difference peak  0.652,  deepest hole -0.495,  1-sigma level  0.087
Q1    1   0.1052  0.2869  0.8584  11.00000  0.05    0.65
Q2    1   0.2002  0.3021  0.9997  11.00000  0.05    0.54
Q3    1   0.1957  0.2377  0.8297  11.00000  0.05    0.47
Q4    1   0.0763  0.2216  0.9652  11.00000  0.05    0.45
Q5    1  -0.2462  0.6360  1.1028  11.00000  0.05    0.44
Q6    1  -0.1420  0.4058  1.1037  11.00000  0.05    0.41
Q7    1   0.0189  0.2922  0.9798  11.00000  0.05    0.41
Q8    1  -0.5473  0.3007  1.3954  11.00000  0.05    0.41
Q9    1  -0.2546  0.4081  0.9856  11.00000  0.05    0.40
Q10   1  -0.0050  0.3418  0.6398  11.00000  0.05    0.40
Q11   1  -0.3759  0.6239  1.0662  11.00000  0.05    0.39
Q12   1   0.2962  0.0966  1.0997  11.00000  0.05    0.37
Q13   1  -0.4192  0.3599  1.2399  11.00000  0.05    0.36
Q14   1   0.0278  0.3794  0.9342  11.00000  0.05    0.36
Q15   1   0.1668  0.1065  0.6712  11.00000  0.05    0.35
Q16   1   0.0818  0.3112  0.7227  11.00000  0.05    0.35
Q17   1   0.0244  0.3027  0.7791  11.00000  0.05    0.34
Q18   1  -0.1437  0.4954  1.0206  11.00000  0.05    0.33
Q19   1  -0.1008  0.3717  1.0279  11.00000  0.05    0.32
Q20   1   0.2758  0.2778  0.8810  11.00000  0.05    0.32
Q21   1  -0.0318  0.2618  0.6059  11.00000  0.05    0.32
Q22   1   0.3477 -0.0478  1.3253  11.00000  0.05    0.32
Q23   1  -0.3390  0.3967  1.2650  11.00000  0.05    0.31
Q24   1   0.1540  0.1857  0.7537  11.00000  0.05    0.31
Q25   1  -0.0148  0.4091  1.0537  11.00000  0.05    0.31
;
_shelx_res_checksum              23898
_shelx_hkl_file
;
 -12  -6  -3-304.559 290.801   4
 -12  -6  -2 5861.05 844.338   4
 -12  -5  -4 972.638 343.426   4
 -12  -5  -3-135.733 225.712   4
 -12  -4  -5-204.174 262.780   4
 -12  -4  -4-53.8560 243.088   4
 -12  -4  -3 6484.61 835.523   4
 -12  -3  -5 1104.08 397.149   4
 -12  -3  -4 2585.85 498.362   4
 -11  -8  -4 2747.57 574.569   4
 -11  -8  -3 10484.3 1126.85   4
 -11  -7  -6 1102.40 371.378   4
 -11  -7  -5 3394.04 609.494   4
 -11  -7  -4 2929.18 584.067   4
 -11  -7  -3 13061.2 1217.08   4
 -11  -7  -2 8013.39 958.401   4
 -11  -6  -7 1521.40 423.474   4
 -11  -6  -6 2269.74 521.069   4
 -11  -6  -5 77.1830 212.773   4
 -11  -6  -4 2539.25 517.614   4
 -11  -6  -3 377.289 290.478   4
 -11  -6  -2 383.551 321.945   4
 -11  -6  -1 3170.29 602.238   4
 -11  -5  -7 219.779 232.157   4
 -11  -5  -6 1823.12 456.561   4
 -11  -5  -5 171.593 244.035   4
 -11  -5  -4 1035.44 341.436   4
 -11  -5  -3 14194.4 1159.26   4
 -11  -5  -2 1459.40 417.794   4
 -11  -5  -1 165.202 209.664   4
 -11  -4  -7 18380.0 1285.43   4
 -11  -4  -6 15257.5 1177.10   4
 -11  -4  -5 13466.9 1095.18   4
 -11  -4  -4 23973.2 1464.14   4
 -11  -4  -3 7175.88 829.395   4
 -11  -4  -2 350.458 229.865   4
 -11  -3  -7 11326.8 1000.33   4
 -11  -3  -6 5356.45 688.426   4
 -11  -3  -5 361.940 245.166   4
 -11  -3  -4 230.239 203.386   4
 -11  -3  -3 1046.88 359.452   4
 -11  -3  -2 753.544 303.179   4
 -11  -2  -7 449.759 266.451   4
 -11  -2  -6 369.166 298.167   4
 -11  -2  -5 739.488 296.249   4
 -11  -2  -4-82.7002 205.059   4
 -11  -2  -3 731.433 284.226   4
 -11  -1  -6 5196.11 668.422   4
 -11  -1  -5 399.992 191.159   4
 -11  -1  -4 411.401 285.083   4
 -11   0  -6-74.6156 198.438   4
 -11   0  -5 815.605 303.918   4
 -10  -9  -6-52.7772 248.125   4
 -10  -9  -5 1420.40 433.963   4
 -10  -9  -4 3172.40 613.595   4
 -10  -8  -8 8478.93 950.978   4
 -10  -8  -7 6281.30 827.946   4
 -10  -8  -6 2809.99 554.051   4
 -10  -8  -5 9714.05 1033.60   4
 -10  -8  -4 5414.78 763.998   4
 -10  -8  -3 959.683 389.283   4
 -10  -7  -9 3339.31 586.185   4
 -10  -7  -8 9804.86 970.999   4
 -10  -7  -7 6180.25 782.235   4
 -10  -7  -6 1359.29 386.514   4
 -10  -7  -5-208.568 226.216   4
 -10  -7  -4 1534.13 417.817   4
 -10  -7  -3 4737.11 723.461   4
 -10  -7  -2 7456.56 866.639   4
 -10  -6  -9 2450.95 487.945   4
 -10  -6  -8 233.114 235.624   4
 -10  -6  -7 663.866 301.249   4
 -10  -6  -6 877.692 306.588   4
 -10  -6  -5 1927.05 464.242   4
 -10  -6  -4 2957.27 525.928   4
 -10  -6  -3 2049.98 452.062   4
 -10  -6  -2 422.177 241.855   4
 -10  -6  -1-216.857 214.730   4
 -10  -5  -9 6427.63 786.981   4
 -10  -5  -8 11062.4 978.853   4
 -10  -5  -7 6076.16 730.558   4
 -10  -5  -6 540.941 282.078   4
 -10  -5  -5 1422.36 376.882   4
 -10  -5  -4 32.3187 194.935   4
 -10  -5  -3 11506.8 986.481   4
 -10  -5  -2 8079.58 831.508   4
 -10  -5  -1 14616.5 1145.43   4
 -10  -5   0 12023.2 1037.40   4
 -10  -4  -9 5507.38 704.063   4
 -10  -4  -8 1911.79 418.735   4
 -10  -4  -7 479.921 227.438   4
 -10  -4  -6 11988.8 972.249   4
 -10  -4  -5 2079.69 445.035   4
 -10  -4  -4 15005.3 1074.68   4
 -10  -4  -3 16181.8 1116.26   4
 -10  -4  -2 7539.69 783.390   4
 -10  -4  -1 4712.28 611.521   4
 -10  -4   0 3622.84 566.063   4
 -10  -3  -9 110.757 190.258   4
 -10  -3  -8 1628.12 384.384   4
 -10  -3  -7 1197.56 327.103   4
 -10  -3  -6 2701.39 468.216   4
 -10  -3  -5 13636.6 998.366   4
 -10  -3  -4 11920.0 937.279   4
 -10  -3  -3 7223.67 740.485   4
 -10  -3  -2 4618.22 596.734   4
 -10  -3  -1-541.744 242.007   4
 -10  -2  -9 1036.78 358.901   4
 -10  -2  -8 542.426 273.860   4
 -10  -2  -7-42.4265 186.853   4
 -10  -2  -6 53.0007 158.871   4
 -10  -2  -5 221.514 214.077   4
 -10  -2  -4 4237.09 544.997   4
 -10  -2  -3 6571.49 692.968   4
 -10  -2  -2 2779.51 458.339   4
 -10  -1  -8 1034.23 349.580   4
 -10  -1  -7 3183.22 532.633   4
 -10  -1  -6 16199.3 1103.78   4
 -10  -1  -5 7670.28 749.869   4
 -10  -1  -4 4079.46 541.762   4
 -10  -1  -3 5778.90 626.974   4
 -10  -1  -2 365.316 213.167   4
 -10   0  -8 3749.69 582.616   4
 -10   0  -7 12038.1 988.982   4
 -10   0  -6 14161.5 1034.57   4
 -10   0  -5 6407.75 693.296   4
 -10   0  -4 1744.70 364.864   4
 -10   0  -3-288.455 218.342   4
 -10   1  -7-83.2528 185.819   4
 -10   1  -6 19.7242 176.846   4
 -10   1  -5-166.688 214.624   4
 -10   1  -4 1191.91 309.045   4
 -10   2  -6 4470.72 624.398   4
 -10   2  -5 1228.32 330.523   4
  -9 -10  -7-33.2289 279.764   4
  -9 -10  -6 888.262 369.426   4
  -9  -9  -9 1733.20 477.461   4
  -9  -9  -8 5010.71 742.908   4
  -9  -9  -7 881.933 385.008   4
  -9  -9  -6 20.6013 218.142   4
  -9  -9  -5-348.952 265.572   4
  -9  -9  -4 2072.75 491.622   4
  -9  -8 -10 4502.88 677.531   4
  -9  -8  -9 2656.99 550.470   4
  -9  -8  -8 310.031 200.311   4
  -9  -8  -7 2216.05 465.832   4
  -9  -8  -6 4492.68 660.758   4
  -9  -8  -5 13356.4 1109.76   4
  -9  -8  -4 22645.5 1472.05   4
  -9  -8  -3 14534.0 1203.35   4
  -9  -7 -10 816.593 282.387   4
  -9  -7  -9 1787.60 437.715   4
  -9  -7  -8 4081.72 636.637   4
  -9  -7  -7 1495.65 335.801   4
  -9  -7  -6 11215.8 979.043   4
  -9  -7  -5 6861.67 755.603   4
  -9  -7  -4 2525.66 504.097   4
  -9  -7  -3 8564.86 877.674   4
  -9  -7  -2 2089.37 467.825   4
  -9  -7  -1 3237.50 561.985   4
  -9  -6 -11 3378.37 561.722   4
  -9  -6 -10 676.685 285.612   4
  -9  -6  -9 4585.03 650.588   4
  -9  -6  -8 778.247 293.487   4
  -9  -6  -7 45.2280 163.985   4
  -9  -6  -6-38.7522 166.826   4
  -9  -6  -5 2574.72 466.549   4
  -9  -6  -4 12264.4 989.352   4
  -9  -6  -3 5815.70 690.431   4
  -9  -6  -2 11242.0 962.068   4
  -9  -6  -1 8081.35 845.052   4
  -9  -5 -11 847.621 301.446   4
  -9  -5 -10-307.349 192.486   4
  -9  -5  -9 1659.52 401.041   4
  -9  -5  -8 3848.76 565.783   4
  -9  -5  -7 11587.3 945.809   4
  -9  -5  -6 8951.39 807.907   4
  -9  -5  -5 4663.70 581.837   4
  -9  -5  -4 16646.6 1091.80   4
  -9  -5  -3 3660.19 535.923   4
  -9  -5  -2 346.407 231.174   4
  -9  -5  -1 2692.85 480.810   4
  -9  -5   0 4002.12 570.264   4
  -9  -4 -11 208.079 239.743   4
  -9  -4 -10 6177.87 716.005   4
  -9  -4  -9 22147.8 1294.47   4
  -9  -4  -8 14507.6 1018.42   4
  -9  -4  -7 17150.9 1088.97   4
  -9  -4  -6 9293.15 792.339   4
  -9  -4  -5 21953.4 1216.04   4
  -9  -4  -4 995.854 282.395   4
  -9  -4  -3 539.530 227.687   4
  -9  -4  -2 8072.06 747.171   4
  -9  -4  -1 9700.21 825.045   4
  -9  -4   0 3911.33 540.516   4
  -9  -4   1 15688.9 1068.19   4
  -9  -3 -11 3905.11 595.938   4
  -9  -3 -10 4887.52 643.055   4
  -9  -3  -9 8350.93 804.268   4
  -9  -3  -8 4823.30 593.007   4
  -9  -3  -7 167.622 176.663   4
  -9  -3  -6 266.470 134.907   4
  -9  -3  -5 4907.09 571.074   4
  -9  -3  -4 25581.2 1273.65   4
  -9  -3  -3 861.314 273.874   4
  -9  -3  -2 977.217 292.385   4
  -9  -3  -1 825.527 251.004   4
  -9  -3   0-313.797 187.320   4
  -9  -3   1 1664.33 379.791   4
  -9  -2 -10 1147.89 335.900   4
  -9  -2  -9 2010.30 410.215   4
  -9  -2  -8 1459.70 344.215   4
  -9  -2  -7 3229.43 486.128   4
  -9  -2  -6 53.1340 181.909   4
  -9  -2  -5 928.130 252.810   4
  -9  -2  -4 312.863 190.155   4
  -9  -2  -3 2488.64 402.734   4
  -9  -2  -2 9534.73 755.675   4
  -9  -2  -1 2233.24 389.664   4
  -9  -2   0 5920.61 600.997   4
  -9  -1 -10 10985.9 974.542   4
  -9  -1  -9 9521.26 877.180   4
  -9  -1  -8 3950.91 572.774   4
  -9  -1  -7 436.922 229.799   4
  -9  -1  -6 1918.86 374.422   4
  -9  -1  -5 5069.68 565.827   4
  -9  -1  -4 10667.3 785.147   4
  -9  -1  -3 14748.8 921.269   4
  -9  -1  -2 19369.0 1032.22   4
  -9  -1  -1 6446.63 604.686   4
  -9   0  -9 1482.99 397.358   4
  -9   0  -8 255.790 208.089   4
  -9   0  -7 3617.91 517.036   4
  -9   0  -6 8412.79 751.298   4
  -9   0  -5 4344.64 526.362   4
  -9   0  -4 8621.69 718.684   4
  -9   0  -3 1511.09 313.035   4
  -9   0  -2-197.797 175.394   4
  -9   1  -8 264.279 216.555   4
  -9   1  -7 936.650 311.002   4
  -9   1  -6-121.002 184.449   4
  -9   1  -5 293.968 192.167   4
  -9   1  -4 192.290 177.425   4
  -9   1  -3 4451.23 518.943   4
  -9   1  -2 5667.23 577.854   4
  -9   2  -8 4077.31 607.092   4
  -9   2  -7 7735.55 793.662   4
  -9   2  -6 21130.7 1265.18   4
  -9   2  -5 12178.6 913.708   4
  -9   2  -4 15627.3 1008.99   4
  -9   2  -3 5831.50 604.403   4
  -9   3  -6 17464.5 1176.02   4
  -9   3  -5 4701.88 599.668   4
  -8 -10  -9 1656.55 442.020   4
  -8 -10  -8 662.387 336.965   4
  -8 -10  -7 560.106 329.193   4
  -8 -10  -6 788.021 293.936   4
  -8  -9 -11-323.545 205.850   4
  -8  -9 -10 1057.73 361.017   4
  -8  -9  -9 1352.97 403.906   4
  -8  -9  -8 6300.19 808.345   4
  -8  -9  -7 6666.02 809.903   4
  -8  -9  -6 9026.91 941.073   4
  -8  -9  -5 938.423 326.666   4
  -8  -9  -4 3679.28 614.717   4
  -8  -8 -12 624.416 279.348   4
  -8  -8 -11 2905.33 554.693   4
  -8  -8 -10 12782.2 1099.77   4
  -8  -8  -9 15695.1 1200.05   4
  -8  -8  -8 18304.7 1269.10   4
  -8  -8  -7 10131.1 952.936   4
  -8  -8  -6 5065.02 703.360   4
  -8  -8  -5 399.349 218.437   4
  -8  -8  -4-251.273 273.594   4
  -8  -8  -3 8874.13 891.701   4
  -8  -8   4 523.755 252.236   6
  -8  -8   5 6857.22 824.083   6
  -8  -8   6 5980.30 789.042   6
  -8  -7 -12 937.578 335.314   4
  -8  -7 -11 1280.10 412.752   4
  -8  -7 -10 2622.21 526.347   4
  -8  -7  -9 4926.10 643.052   4
  -8  -7  -8 144.772 221.463   4
  -8  -7  -7 97.8868 172.008   4
  -8  -7  -6 2156.19 446.636   4
  -8  -7  -5 10105.1 890.776   4
  -8  -7  -4 9865.97 881.911   4
  -8  -7  -3 6880.20 744.704   4
  -8  -7  -2 15027.4 1095.47   4
  -8  -7   3 2670.10 439.893   6
  -8  -7   4 1785.10 405.631   6
  -8  -7   5 188.176 176.328   6
  -8  -7   6 3097.31 551.591   6
  -8  -7   7 17.5544 233.132   6
  -8  -6 -12 841.335 352.567   4
  -8  -6 -11-65.3486 232.864   4
  -8  -6 -10 458.823 189.767   4
  -8  -6  -9 4562.19 583.177   4
  -8  -6  -8 2741.51 474.076   4
  -8  -6  -7 92.9393 154.721   4
  -8  -6  -6 4040.84 545.767   4
  -8  -6  -5-187.575 167.075   4
  -8  -6  -4 1329.58 331.999   4
  -8  -6  -3 4289.61 553.120   4
  -8  -6  -2 8810.35 803.475   4
  -8  -6  -1 3911.94 560.018   4
  -8  -6   3 450.825 217.310   6
  -8  -6   4 12563.3 932.956   6
  -8  -6   5 9107.40 849.752   6
  -8  -6   6 1469.10 389.306   6
  -8  -5 -12 7675.01 810.531   4
  -8  -5 -11 9164.04 866.612   4
  -8  -5 -10 24066.6 1339.04   4
  -8  -5  -9 13294.9 963.319   4
  -8  -5  -8 6069.75 651.742   4
  -8  -5  -7 441.957 203.086   4
  -8  -5  -6 934.629 296.291   4
  -8  -5  -5 8844.30 759.240   4
  -8  -5  -4 24398.4 1254.42   4
  -8  -5  -3 36178.8 1529.89   4
  -8  -5  -2 50753.8 1845.94   4
  -8  -5  -1 8320.54 757.095   4
  -8  -5   0 8163.09 750.634   4
  -8  -4 -12 5906.87 732.315   4
  -8  -4 -11 3548.79 539.267   4
  -8  -4 -10 4075.58 549.935   4
  -8  -4  -9-406.257 212.100   4
  -8  -4  -8 2154.24 386.518   4
  -8  -4  -7 17604.0 1044.20   4
  -8  -4  -6 17342.7 1003.79   4
  -8  -4  -5 15997.4 967.316   4
  -8  -4  -4 9238.30 727.651   4
  -8  -4  -3 1855.22 360.847   4
  -8  -4  -2 3220.21 448.219   4
  -8  -4  -1 176.237 158.534   4
  -8  -4   0 1736.28 348.052   4
  -8  -4   1 11000.4 853.210   4
  -8  -3 -12 61.3320 194.847   4
  -8  -3 -11 351.732 247.449   4
  -8  -3 -10 5975.58 676.677   4
  -8  -3  -9 2115.85 392.259   4
  -8  -3  -8 5769.14 608.971   4
  -8  -3  -7 1687.04 346.200   4
  -8  -3  -6 2968.47 428.920   4
  -8  -3  -5 2739.53 405.619   4
  -8  -3  -4 1457.56 282.188   4
  -8  -3  -3 1960.87 337.770   4
  -8  -3  -2 1443.01 312.400   4
  -8  -3  -1 460.680 206.540   4
  -8  -3   0 817.087 250.194   4
  -8  -3   1 1026.28 286.991   4
  -8  -2 -12 1059.46 347.787   4
  -8  -2 -11 1792.96 423.614   4
  -8  -2 -10 2957.01 486.140   4
  -8  -2  -9-78.1472 143.196   4
  -8  -2  -8 2367.94 397.109   4
  -8  -2  -7 11207.3 811.838   4
  -8  -2  -6 380.471 179.236   4
  -8  -2  -5 19322.3 1018.69   4
  -8  -2  -4 22180.5 1071.14   4
  -8  -2  -3 7628.77 621.697   4
  -8  -2  -2 503.935 207.601   4
  -8  -2  -1 3438.06 432.074   4
  -8  -2   0 4339.97 466.474   4
  -8  -2   1 29209.5 1226.90   4
  -8  -1 -11 356.686 269.802   4
  -8  -1 -10 5994.81 698.551   4
  -8  -1  -9 7024.40 740.125   4
  -8  -1  -8 10835.2 851.428   4
  -8  -1  -7 7862.73 698.530   4
  -8  -1  -6 17194.6 983.467   4
  -8  -1  -5 293.591 145.924   4
  -8  -1  -4 600.028 218.370   4
  -8  -1  -3 5082.45 501.964   4
  -8  -1  -2 6934.92 582.076   4
  -8  -1  -1 17801.5 906.927   4
  -8  -1   0 35402.9 1295.13   4
  -8  -1   1 23755.3 1047.61   4
  -8   0 -10 7809.29 817.181   4
  -8   0  -9 1881.83 395.478   4
  -8   0  -8 6597.25 689.805   4
  -8   0  -7 773.965 257.271   4
  -8   0  -6 2011.38 381.532   4
  -8   0  -5 4863.41 520.062   4
  -8   0  -4 13281.7 825.256   4
  -8   0  -3 13242.7 800.941   4
  -8   0  -2 4908.76 490.715   4
  -8   0  -1 1768.35 292.806   4
  -8   0   0 520.952 181.246   4
  -8   0   5 702.078 244.751   5
  -8   0   6 193.069 197.545   5
  -8   1 -10 241.783 221.498   4
  -8   1  -9 467.908 231.643   4
  -8   1  -8 2258.92 394.587   4
  -8   1  -7 15074.5 1008.90   4
  -8   1  -6 1411.39 329.593   4
  -8   1  -5 777.796 268.550   4
  -8   1  -4 3502.59 434.200   4
  -8   1  -3 3450.90 421.799   4
  -8   1  -2 6454.59 554.117   4
  -8   1  -1 15613.9 832.635   4
  -8   1   4 1679.27 373.568   5
  -8   1   5 1527.93 356.412   5
  -8   1   6 4231.44 560.005   5
  -8   1   7 8896.63 832.193   5
  -8   2  -9 4074.11 610.116   4
  -8   2  -8 6656.70 724.801   4
  -8   2  -7 620.266 271.946   4
  -8   2  -6-218.819 182.347   4
  -8   2  -5 7035.10 665.253   4
  -8   2  -4 8107.13 686.640   4
  -8   2  -3 14233.7 865.626   4
  -8   2  -2 9768.63 701.599   4
  -8   2   3 4711.16 581.745   5
  -8   2   4 953.668 305.271   5
  -8   2   5 8994.25 864.164   5
  -8   2   6 6512.23 747.015   5
  -8   3  -8-343.287 279.899   4
  -8   3  -7 2467.18 462.712   4
  -8   3  -6 6198.73 672.745   4
  -8   3  -5 27643.0 1354.27   4
  -8   3  -4 28773.5 1329.05   4
  -8   3  -3 6466.46 610.273   4
  -8   3   3 5406.72 669.000   5
  -8   3   4 1408.44 364.791   5
  -8   3   5 581.290 245.935   5
  -8   4  -7 5835.99 714.881   4
  -8   4  -6-233.296 217.381   4
  -8   4  -5 782.273 272.697   4
  -8   4  -4 446.877 214.219   4
  -8   4   3-318.110 218.384   5
  -8   5  -6 4063.95 600.311   4
  -8   5  -5 7708.96 763.512   4
  -7 -12  -3 7501.41 938.573   6
  -7 -12  -2 6366.43 875.795   6
  -7 -12  -1 6074.03 856.891   6
  -7 -12   0 1528.17 399.290   6
  -7 -12   1-158.039 233.746   6
  -7 -11  -4 5565.67 760.337   6
  -7 -11  -3 14251.9 1192.65   6
  -7 -11  -2 6593.93 817.251   6
  -7 -11  -1 949.005 324.162   6
  -7 -11   0-52.1296 187.981   6
  -7 -11   1 808.810 302.804   6
  -7 -11   2 764.707 321.609   6
  -7 -11   3 2372.95 589.553   6
  -7 -10 -11 45.8342 235.681   4
  -7 -10 -10 989.718 342.979   4
  -7 -10  -9 262.672 270.638   4
  -7 -10  -8 180.159 232.056   4
  -7 -10  -7 1430.88 396.507   4
  -7 -10  -4 287.728 206.750   6
  -7 -10  -3 4207.64 603.280   6
  -7 -10  -2 3858.28 581.037   6
  -7 -10  -1 4950.06 684.973   6
  -7 -10   0 2108.81 462.207   6
  -7 -10   1 2721.94 517.721   6
  -7 -10   2 2041.10 510.957   6
  -7 -10   3-186.082 241.804   6
  -7 -10   4 2141.28 487.858   6
  -7  -9 -12 2781.05 508.167   4
  -7  -9 -11 3329.07 582.012   4
  -7  -9 -10 982.044 351.218   4
  -7  -9  -9 3405.24 587.493   4
  -7  -9  -8 775.418 317.587   4
  -7  -9  -7 7265.17 816.897   4
  -7  -9  -6 11874.6 1038.02   4
  -7  -9  -5 5379.67 702.221   4
  -7  -9  -4 15201.9 1012.29   6
  -7  -9  -3 40110.8 1690.62   6
  -7  -9  -2 4272.61 553.020   6
  -7  -9  -1 187.976 151.132   6
  -7  -9   0 3465.57 521.265   6
  -7  -9   1 947.309 320.691   6
  -7  -9   2 6757.23 762.699   6
  -7  -9   3 14942.5 1169.58   6
  -7  -9   4 8306.30 911.580   6
  -7  -9   5 10406.0 1039.18   6
  -7  -8 -12 2520.48 503.931   4
  -7  -8 -11 1031.98 412.087   4
  -7  -8 -10 669.187 253.021   4
  -7  -8  -9 3047.21 524.662   4
  -7  -8  -8 10567.6 934.069   4
  -7  -8  -7 37561.0 1744.53   4
  -7  -8  -6 26586.2 1459.74   4
  -7  -8  -5 17874.2 1204.09   4
  -7  -8  -4 17158.6 995.532   6
  -7  -8  -4 17048.8 1170.61   4
  -7  -8  -3 1115.01 261.264   6
  -7  -8  -3 778.557 308.679   4
  -7  -8  -2-13.4625 128.428   6
  -7  -8  -1 5088.09 553.736   6
  -7  -8   0 6519.06 659.135   6
  -7  -8   1 26365.5 1361.34   6
  -7  -8   2 20923.1 1249.65   6
  -7  -8   3 14744.7 1101.53   6
  -7  -8   4 6215.62 743.486   6
  -7  -8   5 3749.82 606.818   6
  -7  -8   6 1277.24 381.089   6
  -7  -7 -13 2008.01 447.648   4
  -7  -7 -12 4012.82 600.902   4
  -7  -7 -11 1350.00 375.291   4
  -7  -7 -10 1588.34 376.444   4
  -7  -7  -9 8390.20 816.711   4
  -7  -7  -8 459.446 217.575   4
  -7  -7  -7 8448.98 790.750   4
  -7  -7  -6 11045.0 876.761   4
  -7  -7  -5 176.982 146.848   4
  -7  -7  -4 834.824 269.685   4
  -7  -7  -4 411.589 175.468   6
  -7  -7  -3-80.6233 180.390   4
  -7  -7  -3 166.224 137.364   6
  -7  -7  -2 654.377 184.939   6
  -7  -7  -2 416.139 214.164   4
  -7  -7  -1 4233.31 462.978   6
  -7  -7   0 4798.27 517.053   6
  -7  -7   1 8331.89 706.088   6
  -7  -7   2 41.9538 120.246   6
  -7  -7   3 650.382 233.350   6
  -7  -7   4 1675.23 389.567   6
  -7  -7   5 259.460 167.031   6
  -7  -7   6-203.015 221.239   6
  -7  -7   7-93.2961 160.036   6
  -7  -6 -13 1064.76 341.604   4
  -7  -6 -12 4164.54 585.253   4
  -7  -6 -11 2232.83 438.695   4
  -7  -6 -10 963.643 309.146   4
  -7  -6  -9 855.866 281.844   4
  -7  -6  -8 6580.71 679.889   4
  -7  -6  -7 12149.6 881.962   4
  -7  -6  -6 5736.50 604.770   4
  -7  -6  -5 16255.9 1024.61   4
  -7  -6  -4 5027.02 572.097   4
  -7  -6  -3 12364.4 900.373   4
  -7  -6  -3 12332.6 613.741   6
  -7  -6  -2-48.9804 135.644   4
  -7  -6  -2 67.8153 70.3861   6
  -7  -6  -1 9062.04 591.949   6
  -7  -6  -1 8928.32 776.007   4
  -7  -6   0 13010.7 746.289   6
  -7  -6   1 7590.29 607.068   6
  -7  -6   2 1726.90 329.330   6
  -7  -6   3 22401.2 1183.72   6
  -7  -6   4 312.562 193.331   6
  -7  -6   5 314.711 219.956   6
  -7  -6   6 3636.72 573.105   6
  -7  -6   7 3074.73 560.273   6
  -7  -6   8 4243.07 662.382   6
  -7  -5 -13 49.0265 220.982   4
  -7  -5 -12-150.481 250.951   4
  -7  -5 -11 2937.11 487.950   4
  -7  -5 -10 7516.96 707.201   4
  -7  -5  -9 28389.3 1336.69   4
  -7  -5  -8 17785.8 1026.24   4
  -7  -5  -7 43025.5 1588.65   4
  -7  -5  -6 5549.74 566.444   4
  -7  -5  -5 182.577 145.605   4
  -7  -5  -4 219.611 169.364   4
  -7  -5  -3 9199.08 723.354   4
  -7  -5  -2 47999.4 1084.56   6
  -7  -5  -2 46221.2 1651.63   4
  -7  -5  -1 44982.7 1159.90   6
  -7  -5  -1 43106.7 1622.16   4
  -7  -5   0 38388.5 1566.47   4
  -7  -5   0 40497.2 1197.23   6
  -7  -5   1 21095.0 930.962   6
  -7  -5   2 4493.42 465.627   6
  -7  -5   3 24.4782 108.096   6
  -7  -5   4 13606.6 926.609   6
  -7  -5   5 3341.33 492.589   6
  -7  -5   6 18373.0 1193.62   6
  -7  -5   7 14429.8 1111.60   6
  -7  -4 -13 1050.78 328.922   4
  -7  -4 -12 4541.99 615.206   4
  -7  -4 -11 11380.7 912.443   4
  -7  -4 -10 15363.8 1004.11   4
  -7  -4  -9 7322.03 663.211   4
  -7  -4  -8 2923.52 424.015   4
  -7  -4  -7 10702.5 764.313   4
  -7  -4  -6 15591.4 904.641   4
  -7  -4  -5 2692.47 387.445   4
  -7  -4  -4 2406.73 356.596   4
  -7  -4  -3 14192.7 849.909   4
  -7  -4  -2 4248.09 483.863   4
  -7  -4  -1 3521.02 257.812   6
  -7  -4  -1 4022.97 474.782   4
  -7  -4   0 2406.97 383.612   4
  -7  -4   0 2457.65 260.823   6
  -7  -4   1 3463.61 458.004   4
  -7  -4   1 3109.96 323.688   6
  -7  -4   2 1475.06 261.398   6
  -7  -4   3 8478.81 657.138   6
  -7  -4   4 1217.56 299.424   6
  -7  -3 -13 356.398 220.370   4
  -7  -3 -12 867.073 291.405   4
  -7  -3 -11 2517.03 446.684   4
  -7  -3 -10 134.899 178.140   4
  -7  -3  -9 937.562 275.248   4
  -7  -3  -8 4191.27 476.200   4
  -7  -3  -7 4154.33 475.206   4
  -7  -3  -6 284.830 130.896   4
  -7  -3  -5 16638.9 886.600   4
  -7  -3  -4 956.825 227.814   4
  -7  -3  -3 6490.68 545.661   4
  -7  -3  -2 17403.9 894.290   4
  -7  -3  -1 7540.03 609.141   4
  -7  -3   0 10545.6 717.137   4
  -7  -3   1 3228.08 411.794   4
  -7  -2 -13 4008.66 600.803   4
  -7  -2 -12 867.474 343.548   4
  -7  -2 -11 6443.85 693.814   4
  -7  -2 -10 5825.11 619.959   4
  -7  -2  -9 11290.6 832.174   4
  -7  -2  -8 3573.02 460.490   4
  -7  -2  -7 258.330 187.693   4
  -7  -2  -6 2454.00 358.226   4
  -7  -2  -5 39075.8 1359.26   4
  -7  -2  -4 26045.2 1076.38   4
  -7  -2  -3 35882.7 1247.76   4
  -7  -2  -2 30524.7 1132.74   4
  -7  -2  -1 27111.0 1078.31   4
  -7  -2   0 12661.8 741.326   4
  -7  -2   1 1963.67 318.153   4
  -7  -2   2 30041.0 1191.15   4
  -7  -2   5 42990.7 1366.51   5
  -7  -1 -12 8396.21 855.155   4
  -7  -1 -11 9641.28 880.854   4
  -7  -1 -10 1430.36 330.763   4
  -7  -1  -9 645.632 248.753   4
  -7  -1  -8 7875.48 686.408   4
  -7  -1  -7 1126.30 266.145   4
  -7  -1  -6 13539.4 820.073   4
  -7  -1  -5 75092.3 1933.96   4
  -7  -1  -4 13942.7 778.189   4
  -7  -1  -3 14298.6 766.888   4
  -7  -1  -2 836.453 204.604   4
  -7  -1  -1 3478.22 378.937   4
  -7  -1   0 2848.04 337.545   4
  -7  -1   1 4638.51 430.490   4
  -7  -1   2 19214.7 869.545   4
  -7  -1   4 5520.78 513.783   5
  -7  -1   5 3669.49 433.310   5
  -7  -1   6 3376.13 425.349   5
  -7   0 -12 2878.53 516.203   4
  -7   0 -11-44.5049 175.683   4
  -7   0 -10 1786.65 374.391   4
  -7   0  -9 8678.73 770.656   4
  -7   0  -8 7658.69 693.243   4
  -7   0  -7 2242.12 362.572   4
  -7   0  -6 506.666 195.474   4
  -7   0  -5 666.773 200.258   4
  -7   0  -4 1830.67 300.364   4
  -7   0  -3 13457.3 749.156   4
  -7   0  -2 5746.36 477.102   4
  -7   0  -1 5840.69 473.686   4
  -7   0   0 6876.15 493.292   4
  -7   0   1 2574.82 311.778   4
  -7   0   3 868.575 233.871   5
  -7   0   4 11607.7 776.508   5
  -7   0   5 2385.52 378.422   5
  -7   0   6 850.619 243.912   5
  -7   0   7 616.327 239.712   5
  -7   1 -11 8471.49 853.997   4
  -7   1 -10 314.357 234.629   4
  -7   1  -9 407.210 203.893   4
  -7   1  -8-23.3318 184.325   4
  -7   1  -7 1275.08 298.617   4
  -7   1  -6 14722.0 894.061   4
  -7   1  -5 13973.2 843.740   4
  -7   1  -4 6906.71 563.000   4
  -7   1  -3 12626.2 743.185   4
  -7   1  -2 5596.08 483.880   4
  -7   1  -1 2141.87 294.777   4
  -7   1   0 2119.18 275.383   4
  -7   1   1 13517.0 660.394   4
  -7   1   2 51991.9 1693.46   5
  -7   1   3 3800.26 469.632   5
  -7   1   4 7587.13 682.794   5
  -7   1   5 5524.01 589.116   5
  -7   1   6 499.530 197.200   5
  -7   1   7 1084.62 306.839   5
  -7   1   8 6551.61 704.766   5
  -7   2 -10 10972.1 959.510   4
  -7   2  -9 8231.04 794.510   4
  -7   2  -8 22904.3 1270.17   4
  -7   2  -7 23579.4 1243.26   4
  -7   2  -6 19982.0 1086.18   4
  -7   2  -5 42326.7 1532.75   4
  -7   2  -4 302.736 150.642   4
  -7   2  -3 403.170 151.436   4
  -7   2  -2 3335.98 379.246   4
  -7   2  -1 9403.56 608.181   4
  -7   2   0 15276.2 736.562   4
  -7   2   2 15362.5 953.961   5
  -7   2   3 4330.60 532.577   5
  -7   2   4 412.529 191.538   5
  -7   2   5 906.320 285.685   5
  -7   2   6 1183.66 340.064   5
  -7   2   7 4181.54 588.112   5
  -7   2   8 5058.43 647.497   5
  -7   3  -9 11510.7 980.282   4
  -7   3  -8 5290.90 635.727   4
  -7   3  -7 1002.89 284.871   4
  -7   3  -6 757.883 256.369   4
  -7   3  -5 519.736 228.382   4
  -7   3  -4 5173.53 536.967   4
  -7   3  -3 9462.15 684.817   4
  -7   3  -2 7248.25 580.275   4
  -7   3  -1 2459.81 324.137   4
  -7   3   2 4211.47 551.774   5
  -7   3   3 1337.63 320.728   5
  -7   3   4 8571.40 796.902   5
  -7   3   5 1168.21 338.099   5
  -7   3   6 842.644 316.773   5
  -7   3   7 238.890 222.616   5
  -7   4  -8 207.972 249.075   4
  -7   4  -7-113.292 222.725   4
  -7   4  -6 3975.96 533.817   4
  -7   4  -5 2726.56 425.202   4
  -7   4  -4 57.0390 149.099   4
  -7   4  -3 1479.29 286.905   4
  -7   4  -2 83.0101 118.958   4
  -7   4   2 898.057 309.484   5
  -7   4   3 795.158 274.751   5
  -7   4   4 105.740 168.049   5
  -7   4   5 224.349 250.077   5
  -7   4   6 5815.47 722.599   5
  -7   5  -7 7276.93 799.768   4
  -7   5  -6 311.129 248.918   4
  -7   5  -5-100.374 172.417   4
  -7   5  -4 18418.6 1077.10   4
  -7   5  -3 7546.64 679.247   4
  -7   5   2 1174.00 354.015   5
  -7   5   3 2198.46 472.309   5
  -7   5   4 8408.81 878.641   5
  -7   6  -5 3160.80 504.169   4
  -7   6  -4 5569.43 626.520   4
  -6 -12  -7 12623.9 1207.78   6
  -6 -12  -6 4733.82 761.312   6
  -6 -12  -5 8600.12 986.671   6
  -6 -12  -4 647.250 301.259   6
  -6 -12  -3 101.158 219.910   6
  -6 -12  -2 509.964 359.658   6
  -6 -12  -1 5305.62 832.848   6
  -6 -12   0 13704.5 1299.03   6
  -6 -12   1 4841.42 817.192   6
  -6 -11  -6 196.529 238.740   6
  -6 -11  -5 706.981 313.033   6
  -6 -11  -4 1695.69 429.145   6
  -6 -11  -3 3581.62 618.692   6
  -6 -11  -2 4185.36 657.366   6
  -6 -11  -1 3942.29 659.454   6
  -6 -11   0 3226.79 632.064   6
  -6 -11   1 3270.70 632.161   6
  -6 -11   2 1912.79 493.226   6
  -6 -11   3 942.734 383.983   6
  -6 -10 -10-658.109 375.638   4
  -6 -10  -9 13.6112 212.904   4
  -6 -10  -5 1084.52 298.829   6
  -6 -10  -4 7969.14 827.599   6
  -6 -10  -3 1373.03 372.387   6
  -6 -10  -2 824.155 331.272   6
  -6 -10  -1 3415.74 574.759   6
  -6 -10   0 5828.79 730.963   6
  -6 -10   1 405.164 225.865   6
  -6 -10   2 11762.3 1090.90   6
  -6 -10   3 3299.56 621.310   6
  -6 -10   4-177.774 207.896   6
  -6 -10   5 1623.51 432.974   6
  -6  -9 -11 4358.77 639.131   4
  -6  -9 -10 4699.51 673.566   4
  -6  -9  -9 9432.30 922.955   4
  -6  -9  -8 12644.9 1065.02   4
  -6  -9  -7 11474.3 1004.60   4
  -6  -9  -6 6567.50 772.583   4
  -6  -9  -5 201.822 197.928   6
  -6  -9  -4 2376.15 426.098   6
  -6  -9  -3 17364.4 1129.61   6
  -6  -9  -2 17485.3 1166.72   6
  -6  -9  -1 23616.3 1350.90   6
  -6  -9   0 25948.9 1433.41   6
  -6  -9   1 8549.87 853.690   6
  -6  -9   2 852.474 294.418   6
  -6  -9   3 899.340 336.841   6
  -6  -9   4 808.811 364.855   6
  -6  -9   5 5191.79 738.107   6
  -6  -9   6 13185.6 1208.04   6
  -6  -8 -12 15710.5 1170.07   4
  -6  -8 -11 16138.3 1162.99   4
  -6  -8 -10 14146.8 1066.76   4
  -6  -8  -9 8762.36 828.331   4
  -6  -8  -8 2320.22 459.650   4
  -6  -8  -7 3734.62 560.328   4
  -6  -8  -6 6950.68 742.784   4
  -6  -8  -5 3167.92 491.060   4
  -6  -8  -4 32898.2 1589.15   4
  -6  -8  -4 30192.0 1341.21   6
  -6  -8  -3 25961.9 1260.68   6
  -6  -8  -2 24418.2 1244.53   6
  -6  -8  -1 7587.63 708.105   6
  -6  -8   0 1997.34 381.006   6
  -6  -8   1 327.111 163.157   6
  -6  -8   2 20413.8 1251.81   6
  -6  -8   3 217.706 171.657   6
  -6  -8   4 2764.42 476.326   6
  -6  -8   5 2975.48 528.369   6
  -6  -8   6 717.720 312.260   6
  -6  -8   7 65.8923 240.864   6
  -6  -7 -12 1470.28 360.951   4
  -6  -7 -11 2207.12 434.981   4
  -6  -7 -10 908.518 283.443   4
  -6  -7  -9 1230.62 330.776   4
  -6  -7  -8 8284.83 764.587   4
  -6  -7  -7 3170.23 476.335   4
  -6  -7  -6 4771.42 565.753   4
  -6  -7  -5 33190.5 1482.09   4
  -6  -7  -4 11173.5 848.794   4
  -6  -7  -4 9526.19 696.224   6
  -6  -7  -3 436.700 152.091   4
  -6  -7  -3 253.847 120.627   6
  -6  -7  -2 4779.69 527.734   6
  -6  -7  -2 4719.22 586.193   4
  -6  -7  -1 4239.19 480.726   6
  -6  -7   0 903.498 229.044   6
  -6  -7   1 190.097 130.200   6
  -6  -7   2 8445.15 750.215   6
  -6  -7   3 1450.61 322.734   6
  -6  -7   4 431.416 207.377   6
  -6  -7   5 2252.79 443.236   6
  -6  -7   6 4175.93 622.528   6
  -6  -7   7 1184.53 383.104   6
  -6  -7   8 4318.81 693.420   6
  -6  -6 -13 378.078 248.216   4
  -6  -6 -12 2337.93 420.195   4
  -6  -6 -11 2000.18 395.993   4
  -6  -6 -10 4948.09 579.682   4
  -6  -6  -9 1320.71 309.502   4
  -6  -6  -8 66.1081 135.446   4
  -6  -6  -7 615.102 230.273   4
  -6  -6  -6 27610.6 1257.30   4
  -6  -6  -5 8357.53 695.344   4
  -6  -6  -4 14917.9 929.698   4
  -6  -6  -4 13834.2 727.481   6
  -6  -6  -3 15401.4 758.342   6
  -6  -6  -3 14545.0 922.096   4
  -6  -6  -2 8800.48 720.383   4
  -6  -6  -2 8197.06 579.155   6
  -6  -6  -1 701.754 223.119   4
  -6  -6  -1 837.685 202.490   6
  -6  -6   0 569.302 198.484   6
  -6  -6   1 18003.6 953.338   6
  -6  -6   2 16893.4 961.830   6
  -6  -6   3 18744.6 1074.26   6
  -6  -6   4 30629.4 1451.32   6
  -6  -6   5 11840.4 946.931   6
  -6  -6   6 10184.7 924.343   6
  -6  -6   7 310.410 202.867   6
  -6  -6   8 165.548 174.664   6
  -6  -5 -14 6185.60 702.741   4
  -6  -5 -13 13413.3 1004.80   4
  -6  -5 -12 18823.5 1143.48   4
  -6  -5 -11 11779.6 878.329   4
  -6  -5 -10 1513.50 321.804   4
  -6  -5  -9 614.866 208.469   4
  -6  -5  -8 1202.31 245.211   4
  -6  -5  -7 1838.77 313.776   4
  -6  -5  -6 70265.5 1949.24   4
  -6  -5  -5 37634.3 1386.69   4
  -6  -5  -4 19732.0 990.730   4
  -6  -5  -4 17433.1 678.351   6
  -6  -5  -3 14549.4 868.984   4
  -6  -5  -3 14957.5 619.943   6
  -6  -5  -2 1005.77 165.652   6
  -6  -5  -2 1037.43 265.297   4
  -6  -5  -1 685.609 240.975   4
  -6  -5  -1 953.332 186.099   6
  -6  -5   0 10708.5 772.966   4
  -6  -5   0 11418.6 641.929   6
  -6  -5   1 9602.68 627.047   6
  -6  -5   2 62848.8 1765.13   6
  -6  -5   3 7090.17 613.041   6
  -6  -5   4 144.917 112.058   6
  -6  -5   5 4628.35 582.024   6
  -6  -5   6-176.306 175.349   6
  -6  -5   7 2567.42 481.660   6
  -6  -5   8 8565.76 898.957   6
  -6  -5   9 7643.25 873.601   6
  -6  -4 -14 194.468 224.607   4
  -6  -4 -13 8930.49 827.083   4
  -6  -4 -12 2677.91 443.363   4
  -6  -4 -11 1419.33 311.858   4
  -6  -4 -10 4398.51 516.419   4
  -6  -4  -9 5728.42 565.580   4
  -6  -4  -8 22398.2 1065.41   4
  -6  -4  -7 12964.5 791.666   4
  -6  -4  -6 6597.04 557.530   4
  -6  -4  -5 6397.46 530.585   4
  -6  -4  -4-15.9227 39.1748   6
  -6  -4  -4 101.811 93.2665   4
  -6  -4  -3 5844.75 270.562   6
  -6  -4  -3 5938.12 520.965   4
  -6  -4  -2 17067.5 537.636   6
  -6  -4  -2 15693.8 853.019   4
  -6  -4  -1 7241.71 581.904   4
  -6  -4  -1 7979.11 414.462   6
  -6  -4   0 17199.8 693.427   6
  -6  -4   0 16923.0 907.381   4
  -6  -4   1 7580.47 618.292   4
  -6  -4   1 7233.35 498.704   6
  -6  -4   2 49962.8 1447.53   6
  -6  -4   3 1750.69 284.610   6
  -6  -4   4 5267.65 534.568   6
  -6  -4   5 2833.60 425.398   6
  -6  -4   6 9032.41 803.756   6
  -6  -4   7 1630.11 362.654   6
  -6  -3 -14 797.947 277.162   4
  -6  -3 -13 968.711 287.318   4
  -6  -3 -12 374.238 204.548   4
  -6  -3 -11 1345.95 330.311   4
  -6  -3 -10 533.533 241.902   4
  -6  -3  -9 248.529 173.450   4
  -6  -3  -8 4840.62 490.499   4
  -6  -3  -7 10323.3 691.192   4
  -6  -3  -6 20086.9 935.889   4
  -6  -3  -5 87.3093 97.7006   4
  -6  -3  -4 486.432 165.621   4
  -6  -3  -3 434.533 160.800   4
  -6  -3  -2 2257.35 300.980   4
  -6  -3  -1 11110.3 665.701   4
  -6  -3   0 30731.3 834.972   6
  -6  -3   0 32767.8 1178.05   4
  -6  -3   1 44567.9 1438.97   4
  -6  -3   1 42787.1 1137.77   6
  -6  -3   2 48433.2 1342.42   6
  -6  -3   3 8437.50 599.285   6
  -6  -2 -14 5841.66 725.836   4
  -6  -2 -13 1434.11 376.073   4
  -6  -2 -12 369.124 237.676   4
  -6  -2 -11 1659.48 366.875   4
  -6  -2 -10 20666.2 1120.46   4
  -6  -2  -9 28583.6 1258.72   4
  -6  -2  -8 37736.4 1398.53   4
  -6  -2  -7 3973.90 438.029   4
  -6  -2  -6 65604.5 1727.53   4
  -6  -2  -5 10828.2 661.577   4
  -6  -2  -4 5662.89 464.179   4
  -6  -2  -3 19987.7 858.403   4
  -6  -2  -2 47391.0 1323.88   4
  -6  -2  -1 38807.3 1193.66   4
  -6  -2   0 85556.2 1861.16   4
  -6  -2   1 48327.7 1384.12   4
  -6  -2   2 42679.5 1324.72   4
  -6  -2   4 1089.90 205.689   5
  -6  -2   5 3118.00 345.966   5
  -6  -1 -13 894.319 321.953   4
  -6  -1 -12 195.555 195.821   4
  -6  -1 -11 11629.5 904.956   4
  -6  -1 -10 21371.2 1171.24   4
  -6  -1  -9 16475.0 976.685   4
  -6  -1  -8 581.926 192.059   4
  -6  -1  -7 2076.72 334.955   4
  -6  -1  -6 1954.17 317.684   4
  -6  -1  -5 6743.56 516.550   4
  -6  -1  -4 33433.8 1134.00   4
  -6  -1  -3 32389.0 1073.61   4
  -6  -1  -2 32425.4 1049.89   4
  -6  -1  -1 45440.8 1240.49   4
  -6  -1   0 27094.7 935.872   4
  -6  -1   1 318.045 129.934   4
  -6  -1   2 3866.19 377.473   4
  -6  -1   3 6797.57 508.005   5
  -6  -1   4 25461.4 1007.52   5
  -6  -1   5 1850.44 293.136   5
  -6  -1   6 13119.0 763.967   5
  -6  -1   7 5932.08 538.206   5
  -6   0 -12 5460.54 664.617   4
  -6   0 -11 516.711 260.575   4
  -6   0 -10 102.485 152.150   4
  -6   0  -9-44.0372 140.647   4
  -6   0  -8 918.500 248.568   4
  -6   0  -7 245.545 148.989   4
  -6   0  -6 27562.2 1124.39   4
  -6   0  -5 266.495 152.104   4
  -6   0  -4 4986.03 439.205   4
  -6   0  -3 607.159 163.924   4
  -6   0  -2 143.706 82.1517   4
  -6   0  -1 3505.46 329.149   4
  -6   0   0 19885.5 765.919   4
  -6   0   1 3268.65 305.833   4
  -6   0   2 134.625 83.9735   4
  -6   0   2 190.990 138.705   5
  -6   0   3 3042.76 294.506   4
  -6   0   3 3994.61 436.120   5
  -6   0   4 453.196 171.559   5
  -6   0   5 1887.40 321.854   5
  -6   0   6 1491.41 307.305   5
  -6   0   7 8054.02 671.177   5
  -6   0   8 2699.79 414.417   5
  -6   1 -12 10207.2 939.561   4
  -6   1 -11 15990.5 1121.53   4
  -6   1 -10 14226.9 1005.25   4
  -6   1  -9 10727.1 835.230   4
  -6   1  -8 16130.2 978.098   4
  -6   1  -7 7456.00 622.764   4
  -6   1  -6 2027.55 315.412   4
  -6   1  -5 12691.2 742.304   4
  -6   1  -4 50010.2 1447.58   4
  -6   1  -3 44570.3 1317.10   4
  -6   1  -2 42124.8 1228.93   4
  -6   1  -1 27618.6 945.250   4
  -6   1   0 18426.8 735.136   4
  -6   1   1 2547.35 354.238   5
  -6   1   1 2797.13 275.635   4
  -6   1   2-34.6249 73.9759   4
  -6   1   2 107.155 126.363   5
  -6   1   3 21599.7 1031.57   5
  -6   1   4 18485.3 982.265   5
  -6   1   5 13183.4 848.053   5
  -6   1   6 25343.2 1213.25   5
  -6   1   7 9986.59 788.700   5
  -6   1   8 1133.28 307.311   5
  -6   1   9 1564.51 349.188   5
  -6   2 -11 7364.64 776.414   4
  -6   2 -10 6849.28 726.173   4
  -6   2  -9 3203.34 478.021   4
  -6   2  -8 1401.05 308.557   4
  -6   2  -7 6970.05 646.070   4
  -6   2  -6 5972.55 556.199   4
  -6   2  -5 13620.9 813.031   4
  -6   2  -4 43447.2 1394.69   4
  -6   2  -3 10344.0 634.179   4
  -6   2  -2 7343.10 513.204   4
  -6   2  -1 34.2865 93.7820   4
  -6   2   0 1180.32 199.636   4
  -6   2   1 12641.7 577.468   4
  -6   2   1 12704.6 791.026   5
  -6   2   2 10271.0 728.799   5
  -6   2   3 18725.3 1008.12   5
  -6   2   4 23044.5 1150.27   5
  -6   2   5 1524.68 322.231   5
  -6   2   6 3579.52 492.127   5
  -6   2   7 302.287 173.075   5
  -6   2   8 196.278 198.153   5
  -6   2   9 3427.00 535.511   5
  -6   3 -10 73.1438 200.385   4
  -6   3  -9 436.556 273.927   4
  -6   3  -8 11648.8 899.271   4
  -6   3  -7 7513.65 699.840   4
  -6   3  -6 15405.8 940.537   4
  -6   3  -5 4893.11 506.057   4
  -6   3  -4 881.198 220.879   4
  -6   3  -3 1091.01 247.640   4
  -6   3  -2 17.5298 100.961   4
  -6   3  -1 496.138 151.655   4
  -6   3   0 5038.85 415.344   4
  -6   3   1 1555.04 315.721   5
  -6   3   2 3602.09 467.279   5
  -6   3   3 38.8172 128.391   5
  -6   3   4 1033.32 272.432   5
  -6   3   5 1735.31 349.887   5
  -6   3   6 3687.06 531.092   5
  -6   3   7 1036.01 319.243   5
  -6   3   8 297.986 230.299   5
  -6   3   9-106.321 207.946   5
  -6   4  -9 688.923 270.811   4
  -6   4  -8 773.260 296.818   4
  -6   4  -7 980.791 296.515   4
  -6   4  -6 4153.70 508.829   4
  -6   4  -5 19464.0 1074.32   4
  -6   4  -4 15284.1 904.621   4
  -6   4  -3 1334.14 271.629   4
  -6   4  -2 1816.45 303.416   4
  -6   4  -1 328.936 146.098   4
  -6   4   1 21825.5 1170.16   5
  -6   4   2 14825.4 975.201   5
  -6   4   3 29095.9 1390.55   5
  -6   4   4 14281.0 1004.38   5
  -6   4   5 5490.44 651.302   5
  -6   4   6 3491.88 534.086   5
  -6   4   7 1285.60 325.693   5
  -6   4   8 1046.46 313.870   5
  -6   5  -8 6404.85 741.802   4
  -6   5  -7 10052.4 883.770   4
  -6   5  -6 4555.26 579.325   4
  -6   5  -5 2486.47 421.755   4
  -6   5  -4 1821.69 352.940   4
  -6   5  -3 308.143 179.585   4
  -6   5  -2 3235.17 395.710   4
  -6   5   1 17856.2 1100.41   5
  -6   5   2 8579.24 782.682   5
  -6   5   3 6131.05 676.474   5
  -6   5   4 1331.22 350.354   5
  -6   5   5 1868.56 430.120   5
  -6   5   6 2593.16 486.926   5
  -6   6  -7 3563.10 562.689   4
  -6   6  -6 615.499 292.925   4
  -6   6  -5 1217.78 329.595   4
  -6   6  -4 1325.28 295.764   4
  -6   6  -3 3716.69 460.881   4
  -6   6   1 468.906 219.430   5
  -6   6   2 25.9695 201.962   5
  -6   6   3 344.769 231.209   5
  -6   6   4 458.147 235.589   5
  -6   7  -5 1856.65 420.135   4
  -6   7  -4 696.671 283.187   4
  -6   7   1 9720.91 901.448   5
  -6   7   2 8589.58 852.850   5
  -5 -12  -6 3321.03 621.283   6
  -5 -12  -5 6601.68 904.711   6
  -5 -12  -4 9604.61 1097.01   6
  -5 -12  -3 4266.83 725.723   6
  -5 -12  -2 9866.03 1115.18   6
  -5 -12  -1 1119.97 425.621   6
  -5 -12   0 195.133 221.522   6
  -5 -12   1 8454.12 1067.44   6
  -5 -11  -5 4306.36 694.044   6
  -5 -11  -4 468.159 240.125   6
  -5 -11  -3-223.231 226.910   6
  -5 -11  -2 763.632 307.840   6
  -5 -11  -1 4503.73 704.993   6
  -5 -11   0 62.3365 221.781   6
  -5 -11   1 277.349 268.602   6
  -5 -11   2 453.305 254.396   6
  -5 -11   3 946.522 387.685   6
  -5 -10  -4 8148.35 866.831   6
  -5 -10  -3 10259.5 974.505   6
  -5 -10  -2 12660.2 1088.44   6
  -5 -10  -1 1558.05 376.648   6
  -5 -10   0 336.345 220.639   6
  -5 -10   1 8330.46 928.161   6
  -5 -10   2 233.086 214.679   6
  -5 -10   3 5780.66 789.890   6
  -5 -10   4 23401.6 1610.77   6
  -5 -10   5 6313.90 862.254   6
  -5  -9 -10 549.953 258.048   4
  -5  -9  -9 3556.21 560.662   4
  -5  -9  -8 3107.76 528.897   4
  -5  -9  -7 18231.3 1217.37   4
  -5  -9  -4 25540.0 1395.89   6
  -5  -9  -3 1348.01 347.859   6
  -5  -9  -2-209.724 150.438   6
  -5  -9  -1 8153.76 810.897   6
  -5  -9   0 1496.05 378.307   6
  -5  -9   1 29401.3 1576.78   6
  -5  -9   2 16065.9 1207.07   6
  -5  -9   3 5263.83 695.124   6
  -5  -9   4 5786.88 759.149   6
  -5  -9   5 185.795 185.836   6
  -5  -9   6 94.8240 222.469   6
  -5  -8 -11 1146.83 320.543   4
  -5  -8 -10 15010.7 1059.06   4
  -5  -8  -9 25574.1 1378.55   4
  -5  -8  -8 29110.0 1454.12   4
  -5  -8  -7 5658.60 649.935   4
  -5  -8  -6 9446.09 831.532   4
  -5  -8  -5 7461.75 744.102   4
  -5  -8  -3 19891.4 1127.19   6
  -5  -8  -2 8450.26 742.467   6
  -5  -8  -1 2852.34 448.444   6
  -5  -8   0 3726.30 529.627   6
  -5  -8   1 15708.9 1070.34   6
  -5  -8   2 7750.73 774.144   6
  -5  -8   3 2876.36 489.289   6
  -5  -8   4 492.531 261.244   6
  -5  -8   5 4209.15 624.738   6
  -5  -8   6 571.697 252.073   6
  -5  -8   7 263.981 197.986   6
  -5  -7 -11 1450.96 331.932   4
  -5  -7 -10 6871.01 706.651   4
  -5  -7  -9 679.867 269.288   4
  -5  -7  -8 646.485 246.715   4
  -5  -7  -7 8863.96 745.326   4
  -5  -7  -6 241.700 207.276   4
  -5  -7  -5 467.661 207.748   4
  -5  -7  -4 4288.49 510.935   4
  -5  -7  -3 487.907 186.907   6
  -5  -7  -3 318.768 209.503   4
  -5  -7  -2 124.517 143.356   6
  -5  -7  -1 2422.62 384.299   6
  -5  -7   0 1129.31 281.809   6
  -5  -7   1 36552.4 1507.28   6
  -5  -7   2 5193.67 587.672   6
  -5  -7   3 5609.67 625.185   6
  -5  -7   4 5085.12 641.190   6
  -5  -7   5 272.882 273.759   6
  -5  -7   6 8757.91 873.525   6
  -5  -7   7 6700.98 808.607   6
  -5  -7   8 7415.03 886.796   6
  -5  -6 -12 355.592 248.796   4
  -5  -6 -11 2533.20 435.042   4
  -5  -6 -10 5786.52 594.792   4
  -5  -6  -9 6639.34 616.225   4
  -5  -6  -8 4105.75 479.921   4
  -5  -6  -7 9543.23 712.495   4
  -5  -6  -6 13216.4 837.409   4
  -5  -6  -5-82.0803 134.139   4
  -5  -6  -4 482.923 116.063   1
  -5  -6  -4 534.863 203.333   4
  -5  -6  -3 5098.56 528.479   4
  -5  -6  -3 4444.49 439.877   6
  -5  -6  -2 8558.47 610.277   6
  -5  -6  -2 8134.12 670.598   4
  -5  -6  -1 18710.0 926.690   6
  -5  -6   0 18886.8 954.124   6
  -5  -6   1 24071.8 1126.60   6
  -5  -6   2 536.629 192.578   6
  -5  -6   3 4011.18 488.602   6
  -5  -6   4 667.902 222.920   6
  -5  -6   5 14682.5 1029.50   6
  -5  -6   6 9295.92 865.628   6
  -5  -6   7 14862.4 1148.37   6
  -5  -6   8 13280.2 1133.37   6
  -5  -6   9 8378.24 941.996   6
  -5  -5 -13 362.207 181.406   4
  -5  -5 -12 10504.8 810.380   4
  -5  -5 -11 19676.9 1073.78   4
  -5  -5 -10 37769.0 1446.57   4
  -5  -5  -9 10759.9 744.012   4
  -5  -5  -8 5379.94 512.366   4
  -5  -5  -7 2240.72 333.057   4
  -5  -5  -6 5958.38 529.853   4
  -5  -5  -5 29974.5 1171.64   4
  -5  -5  -4 47686.6 1491.36   4
  -5  -5  -4 44515.3 760.376   1
  -5  -5  -3 100542. 2255.85   4
  -5  -5  -3 101950. 1898.87   6
  -5  -5  -3 99848.5 1533.49   1
  -5  -5  -2 33041.7 1266.29   4
  -5  -5  -2 33251.3 1035.15   6
  -5  -5  -2 31848.3 926.737   1
  -5  -5  -1 10287.3 582.308   6
  -5  -5  -1 8506.23 654.096   4
  -5  -5   0 1454.64 237.848   6
  -5  -5   1 159.793 127.697   6
  -5  -5   2 6030.83 533.640   6
  -5  -5   3 94951.6 2321.34   6
  -5  -5   4 18851.6 1048.17   6
  -5  -5   5 19106.5 1114.54   6
  -5  -5   6 5970.35 663.318   6
  -5  -5   7 9826.69 884.671   6
  -5  -5   8 1221.82 364.784   6
  -5  -5   9 34.8915 196.113   6
  -5  -4 -13 5426.50 614.418   4
  -5  -4 -12 8409.41 731.333   4
  -5  -4 -11 7563.45 656.977   4
  -5  -4 -10 2941.95 403.624   4
  -5  -4  -9 94.0727 134.981   4
  -5  -4  -8 105.659 124.535   4
  -5  -4  -7 5033.56 464.759   4
  -5  -4  -6 912.374 186.188   4
  -5  -4  -5 82.4565 92.4969   4
  -5  -4  -4 30860.7 1100.51   4
  -5  -4  -3 250.901 70.7347   6
  -5  -4  -3 324.425 142.352   4
  -5  -4  -2 4513.95 301.890   6
  -5  -4  -2 3924.64 402.498   4
  -5  -4  -1 27808.6 834.232   6
  -5  -4  -1 27752.7 1078.12   4
  -5  -4   0 17767.8 887.146   4
  -5  -4   0 18421.3 728.923   6
  -5  -4   1 16874.6 762.363   6
  -5  -4   2 16540.4 803.269   6
  -5  -4   3 497.667 169.158   6
  -5  -4   4 300.500 157.775   6
  -5  -4   5 689.389 236.542   6
  -5  -4   6 2786.69 445.716   6
  -5  -4   7 8248.29 793.118   6
  -5  -4   8 9092.97 868.445   6
  -5  -4   9 1655.76 432.263   6
  -5  -3 -14 32.3630 174.791   4
  -5  -3 -13 2456.09 432.861   4
  -5  -3 -12 1930.96 368.322   4
  -5  -3 -11 9415.07 731.410   4
  -5  -3 -10 3578.18 446.317   4
  -5  -3  -9 496.476 197.332   4
  -5  -3  -8 121.953 92.8584   4
  -5  -3  -7 355.239 148.988   4
  -5  -3  -6 90.9520 49.1224   6
  -5  -3  -6 223.552 111.761   4
  -5  -3  -5 25290.4 633.607   6
  -5  -3  -5 27330.3 995.657   4
  -5  -3  -4 29661.1 555.000   6
  -5  -3  -4 31892.1 1059.22   4
  -5  -3  -3 61450.5 1476.66   4
  -5  -3  -3 57785.4 790.499   6
  -5  -3  -2 2993.10 169.462   6
  -5  -3  -2 2740.90 316.715   4
  -5  -3  -1 13960.8 703.281   4
  -5  -3  -1 14438.8 476.166   6
  -5  -3   0 1212.22 167.692   6
  -5  -3   0 1110.45 221.137   4
  -5  -3   1 7951.27 559.321   4
  -5  -3   1 7651.91 466.117   6
  -5  -3   2 13064.7 664.885   6
  -5  -3   3 35199.6 1206.95   6
  -5  -3   4 205.865 109.818   6
  -5  -3   5 18803.8 1015.67   6
  -5  -3   5 19113.4 665.261   5
  -5  -3   6 11222.4 832.012   6
  -5  -3   7 12902.3 949.556   6
  -5  -2 -14 5231.41 648.401   4
  -5  -2 -13 6969.98 736.269   4
  -5  -2 -12 10653.8 845.561   4
  -5  -2 -11 10192.1 802.059   4
  -5  -2 -10 1888.79 347.520   4
  -5  -2  -9 3386.69 410.525   4
  -5  -2  -8 20355.4 952.306   4
  -5  -2  -7 32522.0 1162.78   4
  -5  -2  -6 70742.0 1692.99   4
  -5  -2  -6 66696.1 1281.87   6
  -5  -2  -5 96775.9 1924.03   4
  -5  -2  -5 86960.7 1233.16   6
  -5  -2  -4 54187.0 1371.15   4
  -5  -2  -3 20900.5 802.746   4
  -5  -2  -2 128.452 76.0031   4
  -5  -2  -1 6996.81 451.268   4
  -5  -2   0 22542.5 837.169   4
  -5  -2   1 61553.2 1467.96   4
  -5  -2   2 78991.0 1752.41   4
  -5  -2   3 77223.1 1508.08   5
  -5  -2   4 28614.8 890.772   5
  -5  -2   5 9302.91 533.617   5
  -5  -2   6 1108.49 188.455   5
  -5  -1 -14 12567.3 1035.47   4
  -5  -1 -13 3462.35 523.956   4
  -5  -1 -12 4007.00 533.905   4
  -5  -1 -11 89.6290 161.838   4
  -5  -1 -10 22.9129 142.129   4
  -5  -1  -9 25597.5 1155.25   4
  -5  -1  -8 20137.7 967.364   4
  -5  -1  -7 46108.1 1427.69   4
  -5  -1  -6 67037.3 1342.82   6
  -5  -1  -6 66405.0 1655.49   4
  -5  -1  -5 13230.6 681.321   4
  -5  -1  -5 12204.7 426.534   6
  -5  -1  -4 17196.8 746.286   4
  -5  -1  -3 868.733 180.367   4
  -5  -1  -2 1121.17 190.935   4
  -5  -1  -1 54809.1 1256.23   4
  -5  -1   0 21869.5 757.584   4
  -5  -1   1 16906.5 675.936   4
  -5  -1   2 10694.8 553.549   4
  -5  -1   2 10678.1 561.773   5
  -5  -1   3 14211.5 663.201   5
  -5  -1   4 35.1324 82.7938   5
  -5  -1   5 2770.69 322.092   5
  -5  -1   6 3945.26 397.570   5
  -5  -1   7 6957.74 543.132   5
  -5   0 -13 558.021 249.392   4
  -5   0 -12 1063.01 314.690   4
  -5   0 -11 4614.76 562.221   4
  -5   0 -10 5092.41 553.653   4
  -5   0  -9 339.708 186.906   4
  -5   0  -8 1591.01 294.838   4
  -5   0  -7 62.2034 131.774   4
  -5   0  -6 21525.2 931.525   4
  -5   0  -5 32144.4 1088.37   4
  -5   0  -4 12817.5 646.981   4
  -5   0  -3 1570.91 221.148   4
  -5   0  -2 770.325 167.294   4
  -5   0  -1 10245.1 503.750   4
  -5   0   0 751.430 140.787   4
  -5   0   1 2630.38 248.129   4
  -5   0   1 2546.40 292.808   5
  -5   0   2 9144.94 452.838   4
  -5   0   2 8658.44 541.635   5
  -5   0   3 30029.3 1049.12   5
  -5   0   4 365.729 145.415   5
  -5   0   5 253.842 128.922   5
  -5   0   6 175.109 139.417   5
  -5   0   7 1733.91 318.662   5
  -5   0   8 7493.14 635.160   5
  -5   1 -13 2345.38 489.099   4
  -5   1 -12 3716.26 546.545   4
  -5   1 -11-294.628 181.333   4
  -5   1 -10 5120.23 583.468   4
  -5   1  -9 37189.5 1481.00   4
  -5   1  -8 12414.7 813.277   4
  -5   1  -7 20533.7 991.392   4
  -5   1  -6 21204.4 956.122   4
  -5   1  -5 5830.36 475.298   4
  -5   1  -4 65.2425 101.916   4
  -5   1  -3 10707.5 577.784   4
  -5   1  -2 12376.2 591.495   4
  -5   1  -1 58692.2 1291.26   4
  -5   1   0 37287.2 959.313   4
  -5   1   0 37071.6 1165.22   5
  -5   1   1 48015.7 1349.30   5
  -5   1   1 46090.6 1024.81   4
  -5   1   2 13039.0 499.463   4
  -5   1   2 13527.8 722.169   5
  -5   1   3 1383.76 152.349   4
  -5   1   3 1087.24 223.549   5
  -5   1   4 18242.7 903.197   5
  -5   1   5 8828.19 650.590   5
  -5   1   6 19462.8 997.216   5
  -5   1   7 19127.1 1025.81   5
  -5   1   8 19116.6 1060.58   5
  -5   1   9 9545.30 771.521   5
  -5   2 -12 5546.80 691.461   4
  -5   2 -11 18082.9 1171.70   4
  -5   2 -10 10525.0 863.501   4
  -5   2  -9 34784.9 1500.30   4
  -5   2  -8 38016.6 1493.18   4
  -5   2  -7 24793.8 1143.75   4
  -5   2  -6 8940.65 654.016   4
  -5   2  -5 178.125 156.435   4
  -5   2  -4 3321.83 357.903   4
  -5   2  -3 10728.5 607.544   4
  -5   2  -2 31814.0 996.032   4
  -5   2  -1 58610.5 1321.30   4
  -5   2   0 19405.2 883.440   5
  -5   2   0 19996.8 703.048   4
  -5   2   1 3664.19 278.432   4
  -5   2   1 3470.98 394.907   5
  -5   2   2 63.4498 60.1651   4
  -5   2   2 103.021 124.068   5
  -5   2   3 78.6745 120.471   5
  -5   2   4 2302.58 347.551   5
  -5   2   5 13928.8 872.736   5
  -5   2   6 14047.2 900.913   5
  -5   2   7 7117.47 660.343   5
  -5   2   8 318.618 198.607   5
  -5   2   9 17.2449 154.026   5
  -5   2  10 78.9651 186.825   5
  -5   3 -11 1876.62 400.865   4
  -5   3 -10 977.481 300.919   4
  -5   3  -9 728.206 269.604   4
  -5   3  -8 422.178 219.191   4
  -5   3  -7 3130.11 454.760   4
  -5   3  -6 2116.84 328.531   4
  -5   3  -5 4448.39 458.515   4
  -5   3  -4 400.987 151.549   4
  -5   3  -3 615.884 171.126   4
  -5   3  -2 2139.96 298.734   4
  -5   3  -1 36.1367 88.9846   4
  -5   3   0 7025.86 434.766   4
  -5   3   0 7238.13 569.156   5
  -5   3   1 31541.7 876.735   4
  -5   3   1 31843.7 1228.39   5
  -5   3   2 1055.88 134.347   4
  -5   3   2 1167.91 249.098   5
  -5   3   3 3341.70 428.435   5
  -5   3   4 101.082 139.355   5
  -5   3   5 170.554 168.829   5
  -5   3   6 1940.70 367.669   5
  -5   3   7 2104.55 389.586   5
  -5   3   8 4224.89 564.656   5
  -5   3   9 2256.72 439.342   5
  -5   3  10 940.887 301.571   5
  -5   4 -10 2857.40 486.269   4
  -5   4  -9 9524.78 869.213   4
  -5   4  -8 604.143 233.404   4
  -5   4  -2 30140.4 1109.89   4
  -5   4  -1 13061.8 666.075   4
  -5   4   0 8310.17 509.737   4
  -5   4   0 8181.20 638.246   5
  -5   4   1 1575.40 206.565   4
  -5   4   1 1686.31 309.257   5
  -5   4   2 9376.00 722.281   5
  -5   4   3 10523.3 772.127   5
  -5   4   4 25440.6 1246.53   5
  -5   4   5 23194.3 1246.82   5
  -5   4   6 22836.5 1263.68   5
  -5   4   7 6006.36 689.036   5
  -5   4   8 4139.52 579.823   5
  -5   4   9 676.562 290.509   5
  -5   5  -9 4047.68 590.324   4
  -5   5   0 1301.07 296.145   5
  -5   5   0 1614.22 262.456   4
  -5   5   1 5807.51 588.093   5
  -5   5   2 2906.97 433.739   5
  -5   5   3 19588.8 1119.34   5
  -5   5   4 21455.8 1204.98   5
  -5   5   5 25489.6 1345.89   5
  -5   5   6 5636.08 667.820   5
  -5   5   7 1363.99 370.896   5
  -5   5   8 289.056 210.944   5
  -5   6   0 8470.58 733.286   5
  -5   6   1 8859.02 752.850   5
  -5   6   2 1282.39 323.302   5
  -5   6   3 1083.79 312.108   5
  -5   6   4 978.142 288.922   5
  -5   6   5 38.8512 181.560   5
  -5   6   6 1451.97 360.761   5
  -5   7   0 283.336 181.524   5
  -5   7   1 279.556 221.270   5
  -5   7   2 5908.09 672.518   5
  -5   7   3 4335.29 598.662   5
  -5   7   4 4743.63 611.924   5
  -5   7   5 4589.01 626.253   5
  -5   8   1 15460.2 1094.26   5
  -5   8   2 8325.06 823.576   5
  -4 -12  -5 367.788 290.370   6
  -4 -12  -4 2297.23 542.325   6
  -4 -12  -3 5424.11 845.390   6
  -4 -12  -2 7710.83 989.036   6
  -4 -12  -1 7807.69 1052.94   6
  -4 -12   0 2137.47 562.881   6
  -4 -11  -4 665.188 340.731   6
  -4 -11  -3 3316.36 640.976   6
  -4 -11  -2 844.849 388.641   6
  -4 -11  -1 828.896 352.168   6
  -4 -11   0 670.945 309.698   6
  -4 -11   1 259.231 230.359   6
  -4 -11   2 6.27025 253.022   6
  -4 -11   3 11391.7 1170.56   6
  -4 -10  -3 5897.66 754.244   6
  -4 -10  -2 11888.4 1060.55   6
  -4 -10  -1 14410.8 1179.90   6
  -4 -10   0 10728.6 1026.61   6
  -4 -10   1 6887.67 821.577   6
  -4 -10   2 2128.90 464.417   6
  -4 -10   3 1302.97 392.457   6
  -4 -10   4 21008.2 1521.95   6
  -4 -10   5 6288.51 857.705   6
  -4  -9  -3 27691.9 1476.50   6
  -4  -9  -2 11442.7 961.108   6
  -4  -9  -1 11145.0 959.949   6
  -4  -9   0 3952.54 589.587   6
  -4  -9   1 308.801 226.392   6
  -4  -9   2 7816.77 836.403   6
  -4  -9   3 23388.4 1472.23   6
  -4  -9   4 11640.1 1066.35   6
  -4  -9   5 6502.16 825.952   6
  -4  -9   6 3901.80 658.344   6
  -4  -8 -10 1593.90 354.965   4
  -4  -8  -9 312.004 190.327   4
  -4  -8  -8 2306.19 414.359   4
  -4  -8  -7 5149.32 620.710   4
  -4  -8  -6 1290.42 311.112   4
  -4  -8  -2 344.611 219.508   6
  -4  -8  -1 2646.10 441.474   6
  -4  -8   0 3850.25 522.143   6
  -4  -8   1 2356.44 430.831   6
  -4  -8   2 789.458 257.546   6
  -4  -8   3 963.604 302.883   6
  -4  -8   4 1436.24 389.579   6
  -4  -8   5 1849.60 423.231   6
  -4  -8   6 2734.55 515.544   6
  -4  -8   7-71.6887 193.593   6
  -4  -8   8 1006.77 330.105   6
  -4  -7 -10 1307.82 312.454   4
  -4  -7  -9 5122.64 567.518   4
  -4  -7  -8 8872.55 728.314   4
  -4  -7  -7 59.0002 165.199   4
  -4  -7  -6 2174.56 377.762   4
  -4  -7  -5 115.168 149.754   4
  -4  -7  -4 17683.2 1018.15   4
  -4  -7  -2 10462.7 774.786   6
  -4  -7  -1 2700.02 402.866   6
  -4  -7   0 87.0667 127.746   6
  -4  -7   1 3369.01 455.727   6
  -4  -7   2 27301.5 1335.47   6
  -4  -7   3 6370.30 660.638   6
  -4  -7   4 17695.3 1143.47   6
  -4  -7   5 13949.3 1052.25   6
  -4  -7   6 3165.36 525.810   6
  -4  -7   7 3157.83 546.570   6
  -4  -7   8 73.1513 170.576   6
  -4  -6 -11 5907.65 588.344   4
  -4  -6 -10 432.755 220.736   4
  -4  -6  -9 5563.52 532.945   4
  -4  -6  -8 16293.2 922.790   4
  -4  -6  -7 20575.3 1010.72   4
  -4  -6  -6 15659.6 880.659   4
  -4  -6  -5 64819.2 1826.18   4
  -4  -6  -4 19047.1 971.709   4
  -4  -6  -3 2392.72 354.731   4
  -4  -6  -2 23952.2 1040.12   6
  -4  -6  -2 25115.6 1135.40   4
  -4  -6  -1 8672.93 627.513   6
  -4  -6   0 32901.5 1268.89   6
  -4  -6   1 77168.9 2047.22   6
  -4  -6   2 83975.3 2222.85   6
  -4  -6   3 61338.3 1955.50   6
  -4  -6   4 22682.4 1215.59   6
  -4  -6   5 3041.88 471.039   6
  -4  -6   6-87.6410 147.496   6
  -4  -6   7 542.538 246.876   6
  -4  -6   8 18457.5 1305.22   6
  -4  -6   9 16648.3 1309.91   6
  -4  -5 -12 267.484 149.879   4
  -4  -5 -11 630.147 222.208   4
  -4  -5 -10 10313.0 707.628   4
  -4  -5  -9 14617.8 822.365   4
  -4  -5  -8 11420.6 708.098   4
  -4  -5  -7 12840.5 740.258   4
  -4  -5  -6 9564.86 629.544   4
  -4  -5  -5 1007.35 215.947   4
  -4  -5  -4 6119.19 499.420   4
  -4  -5  -3 16587.6 826.848   4
  -4  -5  -3 15799.3 616.620   1
  -4  -5  -2 33656.1 980.055   1
  -4  -5  -2 34511.3 1220.80   4
  -4  -5  -2 32462.6 1084.40   6
  -4  -5  -1 22779.1 1003.39   4
  -4  -5  -1 21591.2 893.476   6
  -4  -5   0 13458.9 714.535   6
  -4  -5   1 3024.20 360.686   6
  -4  -5   2 13.3613 89.6959   6
  -4  -5   3-50.3337 104.678   6
  -4  -5   4 2464.23 369.749   6
  -4  -5   5 5447.81 592.111   6
  -4  -5   6 8784.38 787.778   6
  -4  -5   7 6223.15 692.773   6
  -4  -5   8 2449.49 496.198   6
  -4  -5   9 437.981 281.850   6
  -4  -5  10 316.824 255.999   6
  -4  -4 -12 1316.95 305.254   4
  -4  -4 -11 6922.47 586.906   4
  -4  -4 -10 750.756 197.322   4
  -4  -4  -9 4907.61 468.673   4
  -4  -4  -9 4677.55 424.132   1
  -4  -4  -8 8681.38 590.909   4
  -4  -4  -8 8579.85 506.577   1
  -4  -4  -7 1424.18 229.777   4
  -4  -4  -7 1091.62 160.543   1
  -4  -4  -6 22779.7 904.132   4
  -4  -4  -5 19253.0 814.271   4
  -4  -4  -4 37021.6 1155.24   4
  -4  -4  -3 14670.9 711.552   4
  -4  -4  -3 14860.7 427.678   1
  -4  -4  -2 1728.33 177.905   1
  -4  -4  -2 2065.82 224.184   6
  -4  -4  -2 2172.26 280.529   4
  -4  -4  -1 23986.8 946.136   4
  -4  -4  -1 23931.6 807.518   6
  -4  -4  -1 22668.9 760.631   1
  -4  -4   0 938.642 213.144   4
  -4  -4   0 974.405 180.292   6
  -4  -4   1 717.125 167.243   6
  -4  -4   2 41737.3 1301.91   6
  -4  -4   3 6939.29 555.453   6
  -4  -4   4 10434.0 728.573   6
  -4  -4   5 6567.89 616.816   6
  -4  -4   6-25.4257 122.638   6
  -4  -4   7 2102.69 399.218   6
  -4  -4   8 9972.45 894.319   6
  -4  -4   9 2325.82 475.628   6
  -4  -4  10 1974.05 464.871   6
  -4  -3 -13 60.0879 167.483   4
  -4  -3 -12 223.216 154.478   4
  -4  -3 -11 265.536 173.194   4
  -4  -3 -10 13851.8 802.561   4
  -4  -3  -9 11873.0 709.488   4
  -4  -3  -9 11911.4 686.876   1
  -4  -3  -8 18312.2 834.606   4
  -4  -3  -8 16757.9 716.637   1
  -4  -3  -7 24190.1 741.128   1
  -4  -3  -7 25864.9 953.001   4
  -4  -3  -6 308.986 70.5691   1
  -4  -3  -6 277.668 121.040   4
  -4  -3  -5 229.699 103.999   4
  -4  -3  -4-17.8599 80.0225   4
  -4  -3  -3 23079.3 819.069   4
  -4  -3  -2 58187.9 1365.38   4
  -4  -3  -2 59879.4 1026.63   6
  -4  -3  -1 44717.7 1202.18   4
  -4  -3  -1 46124.4 939.476   6
  -4  -3   0 36807.9 1112.79   4
  -4  -3   0 36892.1 918.505   6
  -4  -3   1 131660. 2109.88   6
  -4  -3   1 135876. 2378.92   4
  -4  -3   2 66965.7 1531.92   6
  -4  -3   3 208.337 122.100   6
  -4  -3   4 159.471 57.4972   5
  -4  -3   4 184.475 112.330   6
  -4  -3   5 13338.8 832.810   6
  -4  -3   5 14455.1 503.781   5
  -4  -3   6 15681.7 955.363   6
  -4  -3   6 15461.0 561.891   5
  -4  -3   7 17362.3 1062.49   6
  -4  -3   8 21459.6 1269.42   6
  -4  -2 -14 565.947 279.242   4
  -4  -2 -13 6628.78 665.835   4
  -4  -2 -12 20269.3 1111.03   4
  -4  -2 -11 35270.2 1397.08   4
  -4  -2 -10 41785.4 1451.13   4
  -4  -2  -9 46193.2 1450.71   4
  -4  -2  -8 11335.6 671.338   4
  -4  -2  -7 1740.45 255.946   4
  -4  -2  -6 793.079 186.748   4
  -4  -2  -5 14958.2 666.982   4
  -4  -2  -5 14075.5 506.498   6
  -4  -2  -4 85445.2 1631.72   4
  -4  -2  -4 85820.6 1170.50   6
  -4  -2  -3 88994.5 1635.63   4
  -4  -2  -2 95695.8 1675.96   4
  -4  -2  -1 46069.1 714.119   6
  -4  -2  -1 44169.2 1079.12   4
  -4  -2   0 6351.88 408.141   4
  -4  -2   0 6621.59 313.985   6
  -4  -2   1 19352.0 652.485   6
  -4  -2   1 20018.5 747.697   4
  -4  -2   2 31033.0 942.622   6
  -4  -2   2 30956.0 760.482   5
  -4  -2   3 4110.93 370.694   6
  -4  -2   3 4029.11 273.875   5
  -4  -2   4 14403.1 776.130   6
  -4  -2   4 15510.0 574.457   5
  -4  -2   5 11190.5 742.890   6
  -4  -2   5 12264.3 540.348   5
  -4  -2   6 15415.9 642.122   5
  -4  -2   6 12813.2 851.591   6
  -4  -2   7 3046.01 311.955   5
  -4  -1 -14 3623.50 552.418   4
  -4  -1 -13 2599.14 445.887   4
  -4  -1 -12 19983.4 1130.53   4
  -4  -1 -11 13407.3 876.975   4
  -4  -1 -10 1792.22 310.887   4
  -4  -1  -9 690.627 221.488   4
  -4  -1  -8 3207.17 366.847   4
  -4  -1  -7 15716.9 764.099   4
  -4  -1  -6 50060.4 1327.27   4
  -4  -1  -5 43177.8 967.486   6
  -4  -1  -5 42108.4 1151.33   4
  -4  -1  -4 43343.9 1111.53   4
  -4  -1  -4 42847.2 789.295   6
  -4  -1  -3 9337.52 477.465   4
  -4  -1  -2 19501.8 664.907   4
  -4  -1  -1 16276.4 589.762   4
  -4  -1   0 20720.5 662.044   4
  -4  -1   1 41846.0 985.418   4
  -4  -1   1 40963.4 970.146   5
  -4  -1   2 26551.1 800.340   4
  -4  -1   2 25895.1 780.485   5
  -4  -1   3 4753.39 342.973   5
  -4  -1   4 1259.44 191.132   5
  -4  -1   5 255.018 115.603   5
  -4  -1   6 171.306 96.1593   5
  -4  -1   7 5923.44 464.008   5
  -4  -1   8 5841.60 478.894   5
  -4   0 -14 1236.53 340.757   4
  -4   0 -13 180.735 186.906   4
  -4   0 -12 414.355 222.505   4
  -4   0 -11 1108.23 292.480   4
  -4   0 -10 7615.49 655.263   4
  -4   0  -9 735.892 214.985   4
  -4   0  -8 8984.49 629.922   4
  -4   0  -7 10744.2 650.126   4
  -4   0  -6 259.660 131.786   4
  -4   0  -5 2733.89 294.025   4
  -4   0  -5 2260.18 241.013   6
  -4   0  -4 234.944 76.6922   6
  -4   0  -4 433.789 127.926   4
  -4   0  -3 443.169 125.350   4
  -4   0  -2 7628.83 411.651   4
  -4   0  -1 6995.37 374.358   4
  -4   0   0 1257.42 155.654   4
  -4   0   1 5541.72 375.744   5
  -4   0   1 5915.74 314.858   4
  -4   0   2 15654.0 524.458   4
  -4   0   2 13928.4 621.920   5
  -4   0   3 25589.3 883.018   5
  -4   0   4 18866.4 786.322   5
  -4   0   5 11704.7 643.970   5
  -4   0   6 20666.3 900.151   5
  -4   0   7 4394.16 428.616   5
  -4   0   8 5198.75 485.400   5
  -4   0   9 1465.21 266.159   5
  -4   1 -13 14861.6 1081.23   4
  -4   1 -12 27325.3 1407.62   4
  -4   1 -11 8033.77 726.377   4
  -4   1 -10 10753.1 795.668   4
  -4   1  -9 742.521 239.804   4
  -4   1  -8 454.901 188.799   4
  -4   1  -7 10854.0 675.595   4
  -4   1  -6 54808.1 1487.52   4
  -4   1  -5 80787.9 1759.06   4
  -4   1  -4 73239.5 1567.60   4
  -4   1  -3 17396.1 682.519   4
  -4   1  -2 34299.9 921.379   4
  -4   1  -1 4227.70 295.265   4
  -4   1   0 48450.1 1081.41   2
  -4   1   0 45703.6 1194.18   5
  -4   1   0 48011.3 989.648   4
  -4   1   1 6489.40 315.018   4
  -4   1   1 6521.94 438.823   5
  -4   1   2 34249.2 715.700   4
  -4   1   2 35890.8 1080.47   5
  -4   1   3 52570.8 1388.64   5
  -4   1   4 13304.5 710.318   5
  -4   1   5 17946.5 858.167   5
  -4   1   6 1767.92 283.520   5
  -4   1   7 2695.79 371.321   5
  -4   1   8 14293.4 859.502   5
  -4   1   9 9879.64 743.093   5
  -4   1  10 5106.88 559.556   5
  -4   2 -13 6196.48 712.143   4
  -4   2 -12 7710.96 768.308   4
  -4   2 -11 1098.24 319.090   4
  -4   2 -10 2447.76 397.937   4
  -4   2  -9 6538.88 611.516   4
  -4   2  -8 16864.6 933.005   4
  -4   2  -7 47084.5 1516.19   4
  -4   2  -3 3439.78 322.779   4
  -4   2  -2 15543.2 647.261   4
  -4   2  -1 25754.9 770.740   4
  -4   2   0 63664.3 1203.25   4
  -4   2   0 65107.9 1527.33   5
  -4   2   0 61645.0 1207.36   2
  -4   2   1 43703.6 895.515   4
  -4   2   1 41669.8 1240.40   5
  -4   2   2 26751.7 609.249   4
  -4   2   2 26553.3 995.708   5
  -4   2   3 3155.05 357.538   5
  -4   2   3 2389.68 141.378   4
  -4   2   4 260.514 137.210   5
  -4   2   5 4026.63 428.856   5
  -4   2   6 11742.8 766.462   5
  -4   2   7 15618.7 908.494   5
  -4   2   8 19639.4 1057.30   5
  -4   2   9-95.1678 150.136   5
  -4   2  10 3683.18 487.682   5
  -4   2  11 1065.20 276.783   5
  -4   3 -12 735.969 294.917   4
  -4   3 -11 217.205 212.275   4
  -4   3 -10 1314.31 347.576   4
  -4   3  -1 5457.41 451.510   5
  -4   3   0 1032.10 148.589   2
  -4   3   0 1056.46 210.288   5
  -4   3   0 1325.74 171.467   4
  -4   3   1 8786.56 415.761   4
  -4   3   1 9320.93 606.753   5
  -4   3   2 13982.7 462.115   4
  -4   3   2 12718.7 725.653   5
  -4   3   3 9162.99 648.346   5
  -4   3   3 8175.17 267.896   4
  -4   3   4 1761.73 314.501   5
  -4   3   5 6912.73 598.278   5
  -4   3   6 341.162 168.602   5
  -4   3   7 1325.15 280.952   5
  -4   3   8 3447.87 490.679   5
  -4   3   9 5452.79 607.576   5
  -4   3  10 3466.04 504.465   5
  -4   3  11 3862.12 554.239   5
  -4   4 -11 1785.64 406.672   4
  -4   4  -1 15307.5 796.746   5
  -4   4   0 94404.1 2113.61   5
  -4   4   1 30080.8 1177.64   5
  -4   4   2 24669.9 1080.51   5
  -4   4   2 25248.5 694.192   4
  -4   4   3 21788.7 1048.50   5
  -4   4   4 696.257 240.625   5
  -4   4   5 936.100 242.920   5
  -4   4   6 13829.1 917.596   5
  -4   4   7 15814.1 1013.10   5
  -4   4   8 8210.88 750.314   5
  -4   4   9 3708.02 534.732   5
  -4   4  10 4705.61 601.145   5
  -4   5  -1 67758.2 1833.34   5
  -4   5   0 49321.8 1586.63   5
  -4   5   1 1739.96 303.082   5
  -4   5   2 993.767 248.041   5
  -4   5   3 632.596 192.839   5
  -4   5   4 10754.7 812.656   5
  -4   5   5 26511.4 1297.86   5
  -4   5   6 10628.0 845.441   5
  -4   5   7 8974.88 810.323   5
  -4   5   8 13421.3 1002.20   5
  -4   5   9 744.551 266.122   5
  -4   6  -1 562.228 197.508   5
  -4   6   0 1839.87 324.504   5
  -4   6   1 239.679 168.635   5
  -4   6   2 2501.42 398.584   5
  -4   6   3 457.890 221.186   5
  -4   6   4 431.258 198.347   5
  -4   6   5 370.753 233.576   5
  -4   6   6 726.757 236.387   5
  -4   6   7 74.1700 200.479   5
  -4   6   8 157.592 189.910   5
  -4   7   0 10852.1 807.010   5
  -4   7   1 1946.40 358.619   5
  -4   7   2 123.387 130.696   5
  -4   7   3 2271.69 416.431   5
  -4   7   4 9476.34 834.970   5
  -4   7   5 8796.26 825.153   5
  -4   7   6 6047.00 701.849   5
  -4   7   7 6651.08 754.613   5
  -4   8   0 893.276 278.183   5
  -4   8   1 4517.36 554.633   5
  -4   8   2 6057.91 670.988   5
  -4   8   3 2470.56 446.970   5
  -4   8   4 11632.0 953.006   5
  -4   8   5 9191.82 870.166   5
  -4   9   1 1735.67 369.650   5
  -4   9   2 735.968 269.826   5
  -3 -12  -4 4842.10 825.050   6
  -3 -12  -3 2603.95 593.877   6
  -3 -12  -2 718.143 367.864   6
  -3 -12  -1 2651.16 613.689   6
  -3 -12   0 6238.90 927.466   6
  -3 -11  -3-38.2699 229.628   6
  -3 -11  -2 4334.06 709.065   6
  -3 -11  -1-70.5128 241.512   6
  -3 -11   0 29.1999 203.756   6
  -3 -11   1 4473.38 743.854   6
  -3 -11   2 1264.65 436.110   6
  -3 -11   3 813.082 376.190   6
  -3 -10  -3 8.59392 165.081   6
  -3 -10  -2 6173.20 771.597   6
  -3 -10  -1 10416.8 1016.97   6
  -3 -10   0 18374.8 1364.58   6
  -3 -10   1 13373.4 1174.58   6
  -3 -10   2 11364.9 1091.06   6
  -3 -10   3 13765.2 1210.27   6
  -3 -10   4 51.5595 214.927   6
  -3 -10   5 2083.77 512.348   6
  -3  -9  -2 35997.6 1726.53   6
  -3  -9  -1 9328.82 901.722   6
  -3  -9   0 8613.44 862.106   6
  -3  -9   1 3772.03 583.925   6
  -3  -9   2 9263.76 902.454   6
  -3  -9   3 705.102 353.730   6
  -3  -9   4 5992.37 759.747   6
  -3  -9   5 5284.16 735.173   6
  -3  -9   6 11588.5 1098.32   6
  -3  -9   7 6947.37 887.120   6
  -3  -8  -2 778.147 259.311   6
  -3  -8  -1 112.872 168.572   6
  -3  -8   0 218.548 142.044   6
  -3  -8   1 213.694 199.987   6
  -3  -8   2 1462.32 355.155   6
  -3  -8   3 5139.42 635.317   6
  -3  -8   4 570.514 216.285   6
  -3  -8   5 1276.32 345.993   6
  -3  -8   6 958.515 317.531   6
  -3  -8   7 1596.02 405.889   6
  -3  -8   8 4464.18 700.259   6
  -3  -7  -9 5879.72 586.370   4
  -3  -7  -8 17707.1 1000.31   4
  -3  -7  -7 1565.57 322.524   4
  -3  -7  -6 285.915 126.700   4
  -3  -7  -1 14512.8 921.843   6
  -3  -7   0 62787.6 1990.48   6
  -3  -7   1 27039.4 1309.99   6
  -3  -7   2 707.918 235.453   6
  -3  -7   3 3586.86 499.771   6
  -3  -7   4 19464.5 1191.45   6
  -3  -7   5 43205.9 1851.74   6
  -3  -7   6 20138.8 1292.32   6
  -3  -7   7 21209.4 1374.97   6
  -3  -7   8 12275.2 1086.76   6
  -3  -7   9 1708.53 453.307   6
  -3  -6 -10 13010.8 816.191   4
  -3  -6  -9 9124.85 682.246   4
  -3  -6  -8 81.3745 166.199   4
  -3  -6  -7-176.644 140.158   4
  -3  -6  -6 22.8370 106.870   4
  -3  -6  -5 44745.8 1463.29   4
  -3  -6  -4 24128.7 1065.80   4
  -3  -6  -1 11045.0 721.825   6
  -3  -6   0 6210.36 556.584   6
  -3  -6   1 9569.53 700.593   6
  -3  -6   2 13441.2 852.143   6
  -3  -6   3 25001.1 1211.81   6
  -3  -6   4 51682.2 1847.40   6
  -3  -6   5 29486.8 1429.75   6
  -3  -6   6 11656.7 926.520   6
  -3  -6   7 4617.87 628.047   6
  -3  -6   8 2607.60 488.739   6
  -3  -6   9 244.846 258.670   6
  -3  -6  10 6393.95 839.108   6
  -3  -5 -11 5361.89 514.608   4
  -3  -5 -10 601.707 177.216   4
  -3  -5  -9 32.8817 104.088   4
  -3  -5  -8 21268.8 933.511   4
  -3  -5  -7 14414.5 752.177   4
  -3  -5  -6 22865.8 936.318   4
  -3  -5  -5 36672.5 1198.29   4
  -3  -5  -4 18082.6 833.196   4
  -3  -5  -3 7327.79 533.244   4
  -3  -5  -2 7652.84 562.001   4
  -3  -5  -1 233.731 88.6728   6
  -3  -5   0 21536.0 937.501   6
  -3  -5   1 11421.7 688.900   6
  -3  -5   2 25087.3 1075.93   6
  -3  -5   3 39128.9 1433.12   6
  -3  -5   4 8200.49 673.511   6
  -3  -5   5 462.416 222.351   6
  -3  -5   6 7264.67 700.221   6
  -3  -5   7-109.548 120.310   6
  -3  -5   8-42.8400 125.977   6
  -3  -5   9 888.497 306.359   6
  -3  -5  10 6.28694 187.856   6
  -3  -4 -11 3977.64 422.294   4
  -3  -4 -11 3515.79 482.509   1
  -3  -4 -10 9474.69 622.852   4
  -3  -4 -10 9398.53 718.119   1
  -3  -4  -9 3064.54 344.419   4
  -3  -4  -8 2511.38 290.905   4
  -3  -4  -7 978.809 185.703   4
  -3  -4  -6 4944.52 389.214   4
  -3  -4  -5 893.288 179.381   4
  -3  -4  -4 12318.8 612.988   4
  -3  -4  -3 103104. 1949.22   4
  -3  -4  -2 57348.9 1411.87   4
  -3  -4  -1 25771.6 948.309   4
  -3  -4  -1 25870.0 837.507   1
  -3  -4  -1 24645.7 830.677   6
  -3  -4   0 30541.6 980.901   6
  -3  -4   1 2599.53 301.814   6
  -3  -4   2 36498.8 1208.58   6
  -3  -4   3 41729.2 1370.29   6
  -3  -4   4 34356.3 1299.88   6
  -3  -4   5 15049.5 907.704   6
  -3  -4   6 4355.26 524.684   6
  -3  -4   7 7742.44 722.577   6
  -3  -4   8 1453.89 346.975   6
  -3  -4   9 4621.54 627.653   6
  -3  -4  10 10017.8 958.197   6
  -3  -4  11 6154.88 797.252   6
  -3  -3 -12 7643.92 623.076   4
  -3  -3 -11 5694.75 624.536   1
  -3  -3 -11 5913.49 517.285   4
  -3  -3 -10 201.807 120.241   4
  -3  -3 -10-55.2186 111.895   1
  -3  -3  -9 1142.37 220.630   4
  -3  -3  -8 4857.56 436.334   1
  -3  -3  -8 4726.78 395.200   4
  -3  -3  -7 11973.2 605.522   4
  -3  -3  -7 11897.1 610.415   1
  -3  -3  -6 36207.8 943.649   1
  -3  -3  -6 35345.0 1020.67   4
  -3  -3  -5 106830. 1845.17   4
  -3  -3  -4 125936. 1999.94   4
  -3  -3  -3 22761.3 754.418   4
  -3  -3  -2 12362.9 382.098   1
  -3  -3  -2 13491.3 582.264   4
  -3  -3  -1 19669.5 722.386   4
  -3  -3  -1 18000.5 597.852   6
  -3  -3  -1 18509.1 575.364   1
  -3  -3   0 505.939 132.163   1
  -3  -3   0 807.659 151.441   6
  -3  -3   0 1013.31 203.791   4
  -3  -3   1 43533.3 1111.13   6
  -3  -3   2 114016. 2060.83   6
  -3  -3   3 6398.01 486.773   6
  -3  -3   4 19178.8 904.550   6
  -3  -3   4 17732.8 431.348   5
  -3  -3   5 14057.7 835.197   6
  -3  -3   5 15102.6 452.030   5
  -3  -3   6 2175.10 363.377   6
  -3  -3   6 2022.28 186.792   5
  -3  -3   7 13166.8 916.774   6
  -3  -3   8 13339.1 973.205   6
  -3  -3   9 19877.1 1256.74   6
  -3  -3  10 17721.7 1245.21   6
  -3  -2 -13 3431.31 462.605   4
  -3  -2 -12 903.448 243.292   4
  -3  -2 -11 12099.2 909.818   1
  -3  -2 -11 11752.3 758.990   4
  -3  -2 -10 18513.9 1037.71   1
  -3  -2 -10 16699.9 853.029   4
  -3  -2  -9 23943.8 969.633   4
  -3  -2  -8 60865.8 1509.89   4
  -3  -2  -7 55711.3 1398.95   1
  -3  -2  -7 56210.9 1368.25   4
  -3  -2  -6 11115.7 520.915   1
  -3  -2  -6 10900.1 547.033   4
  -3  -2  -5 39735.4 1021.89   4
  -3  -2  -5 38912.6 835.521   1
  -3  -2  -4 7507.11 406.429   4
  -3  -2  -4 7584.04 341.382   6
  -3  -2  -3 23352.3 711.304   4
  -3  -2  -2 2558.29 227.668   4
  -3  -2  -1 32503.7 835.432   4
  -3  -2  -1 32897.3 614.235   6
  -3  -2   0 54371.0 963.836   6
  -3  -2   0 53642.2 1139.94   4
  -3  -2   1 107214. 1658.31   6
  -3  -2   1 107149. 1819.96   4
  -3  -2   2 198.190 60.0581   5
  -3  -2   2 276.457 100.869   6
  -3  -2   3 15467.8 700.525   6
  -3  -2   3 14364.6 448.161   5
  -3  -2   4 874.740 121.769   5
  -3  -2   4 806.237 198.663   6
  -3  -2   5 938.878 132.773   5
  -3  -2   5 867.784 215.857   6
  -3  -2   6 5344.32 525.006   6
  -3  -2   6 5718.41 361.017   5
  -3  -2   7 14750.4 945.372   6
  -3  -2   7 15548.6 641.036   5
  -3  -2   8 445.805 133.466   5
  -3  -2   8 216.338 201.588   6
  -3  -1 -13 456.307 247.295   4
  -3  -1 -12 2274.60 452.088   1
  -3  -1 -12 2897.23 419.991   4
  -3  -1 -11 8145.78 647.226   4
  -3  -1 -11 7941.00 773.500   1
  -3  -1 -10 11974.6 867.995   1
  -3  -1 -10 11196.0 718.761   4
  -3  -1  -9 15382.9 908.657   1
  -3  -1  -9 16084.5 813.518   4
  -3  -1  -8 22143.2 901.367   4
  -3  -1  -7 20411.0 816.407   4
  -3  -1  -7 20713.7 878.164   1
  -3  -1  -6 624.479 151.758   4
  -3  -1  -5 158.593 66.1979   4
  -3  -1  -5 159.823 80.9715   6
  -3  -1  -4 7271.27 337.601   6
  -3  -1  -4 6888.05 385.872   4
  -3  -1  -3 26065.2 734.498   4
  -3  -1  -3 26997.8 521.748   6
  -3  -1  -2 12632.1 477.736   4
  -3  -1  -1 6803.08 332.633   4
  -3  -1  -1 7108.88 393.373   2
  -3  -1   0 8115.95 358.840   4
  -3  -1   1 24987.5 680.627   4
  -3  -1   1 25203.7 628.090   5
  -3  -1   1 25462.9 654.549   6
  -3  -1   2 26834.5 786.477   6
  -3  -1   2 26454.0 671.456   5
  -3  -1   3 363.549 90.6627   5
  -3  -1   3 171.866 86.1550   6
  -3  -1   4 15628.3 744.779   6
  -3  -1   4 16091.1 589.182   5
  -3  -1   5 4762.15 340.031   5
  -3  -1   6 31.1136 62.0683   5
  -3  -1   7 6765.50 459.946   5
  -3  -1   8 6162.80 460.528   5
  -3  -1   9 15772.8 780.244   5
  -3   0 -14 190.506 167.585   4
  -3   0 -13 2435.79 412.575   4
  -3   0 -12 1048.65 287.782   4
  -3   0 -11 526.438 200.515   4
  -3   0 -10 79.1352 151.868   4
  -3   0  -9 8969.84 631.928   4
  -3   0  -8 4469.46 421.226   4
  -3   0  -7 32302.0 1079.45   4
  -3   0  -6 43056.3 1176.23   4
  -3   0  -5 27489.6 876.844   4
  -3   0  -4 2420.57 221.828   6
  -3   0  -4 2433.87 239.358   4
  -3   0  -3 5956.37 348.684   4
  -3   0  -3 5338.06 273.778   6
  -3   0  -2 1341.19 160.802   4
  -3   0  -1 37649.7 881.578   2
  -3   0  -1 36061.5 784.503   4
  -3   0   0 9080.59 346.500   4
  -3   0   0 9267.52 415.817   2
  -3   0   0 9133.72 412.792   5
  -3   0   1 31887.6 652.702   4
  -3   0   1 31267.6 795.844   5
  -3   0   2 59451.9 986.407   4
  -3   0   2 61617.1 1217.68   5
  -3   0   3 7876.13 428.963   5
  -3   0   4 5594.46 384.563   5
  -3   0   5 2110.16 253.381   5
  -3   0   6 34789.6 1084.11   5
  -3   0   7 39815.2 1220.30   5
  -3   0   8 21035.7 916.959   5
  -3   0   9 12909.3 749.939   5
  -3   0  10 3683.09 421.144   5
  -3   1 -14 934.919 280.710   4
  -3   1 -13 500.600 244.698   4
  -3   1 -12 4905.27 565.799   4
  -3   1 -11 23765.5 1198.48   4
  -3   1 -10 51252.0 1687.44   4
  -3   1  -9 8854.56 655.043   4
  -3   1  -8 6676.75 538.512   4
  -3   1  -2 49276.8 1037.53   4
  -3   1  -1 55761.0 1081.70   2
  -3   1  -1 55939.8 1036.82   4
  -3   1   0 10518.2 487.681   5
  -3   1   0 11242.8 421.990   2
  -3   1   0 10961.8 387.552   4
  -3   1   1 1141.44 174.267   5
  -3   1   1 1222.30 118.825   4
  -3   1   2 24363.0 804.827   5
  -3   1   2 23715.7 471.421   4
  -3   1   3 82292.8 1622.56   5
  -3   1   4 65673.6 1497.79   5
  -3   1   5 39749.7 1188.58   5
  -3   1   6 29691.7 1065.55   5
  -3   1   7 28486.8 1084.19   5
  -3   1   8 3081.89 372.189   5
  -3   1   9 147.622 131.170   5
  -3   1  10 2683.24 372.852   5
  -3   1  11 3482.04 459.680   5
  -3   2 -13 13548.7 1031.49   4
  -3   2 -12 11323.0 891.659   4
  -3   2 -11 20880.6 1158.26   4
  -3   2 -10 6823.28 642.586   4
  -3   2  -1 4477.53 338.078   5
  -3   2   0 6280.25 299.244   2
  -3   2   0 6152.35 405.999   5
  -3   2   1 21368.1 528.768   4
  -3   2   1 21506.2 784.930   5
  -3   2   2 41677.5 676.468   4
  -3   2   2 40965.2 1143.75   5
  -3   2   3 421.645 144.069   5
  -3   2   4 5122.98 433.361   5
  -3   2   5 7769.94 554.622   5
  -3   2   6 2409.89 333.272   5
  -3   2   7 2350.51 340.037   5
  -3   2   8 10736.7 725.613   5
  -3   2   9 657.274 195.891   5
  -3   2  10 1361.43 295.636   5
  -3   2  11 1683.15 342.191   5
  -3   2  12 65.3137 146.253   5
  -3   3 -12 616.259 262.845   4
  -3   3  -1 34699.7 1051.22   5
  -3   3   0 26842.3 931.830   5
  -3   3   1 7936.33 268.317   2
  -3   3   1 8076.70 513.589   5
  -3   3   2 4251.09 222.995   4
  -3   3   2 4259.26 392.353   5
  -3   3   3 7918.90 233.359   4
  -3   3   3 7386.59 537.535   5
  -3   3   4 4422.61 427.138   5
  -3   3   5 6970.07 556.092   5
  -3   3   6 17384.8 914.078   5
  -3   3   7 13522.3 833.348   5
  -3   3   8 425.004 184.494   5
  -3   3   9 750.197 209.764   5
  -3   3  10 848.357 275.130   5
  -3   3  11 5580.15 626.198   5
  -3   3  12 2565.50 454.039   5
  -3   4  -1 292.371 117.960   5
  -3   4   0 32004.2 1089.39   5
  -3   4   1 47168.6 716.235   2
  -3   4   1 51005.4 1422.75   5
  -3   4   2 46179.5 1402.38   5
  -3   4   3 40632.1 1341.86   5
  -3   4   4 48261.9 1514.19   5
  -3   4   5 13691.2 817.533   5
  -3   4   6 3634.96 438.906   5
  -3   4   7 435.754 165.298   5
  -3   4   8 3887.97 489.874   5
  -3   4   9 6443.97 644.374   5
  -3   4  10 9303.95 808.321   5
  -3   4  11 10853.2 903.270   5
  -3   5  -1 15657.6 787.704   5
  -3   5   0 44823.4 1392.36   5
  -3   5   1 9038.35 625.051   5
  -3   5   2 26532.2 1112.19   5
  -3   5   3 8498.16 644.977   5
  -3   5   4 13772.3 843.380   5
  -3   5   5 122.079 151.052   5
  -3   5   6 5612.36 590.668   5
  -3   5   7 2490.40 392.777   5
  -3   5   8 5079.10 592.484   5
  -3   5   9 1440.64 339.468   5
  -3   5  10 176.459 233.569   5
  -3   6  -1 15937.6 849.945   5
  -3   6   0 111.967 147.366   5
  -3   6   1 185.898 133.991   5
  -3   6   2-164.898 152.780   5
  -3   6   3 2243.99 366.991   5
  -3   6   4 3381.54 442.693   5
  -3   6   5 1092.36 280.947   5
  -3   6   6 532.777 192.695   5
  -3   6   7 174.621 186.430   5
  -3   6   8 141.410 204.124   5
  -3   6   9 2308.31 439.749   5
  -3   7  -1 15076.7 870.096   5
  -3   7   0 17251.3 949.702   5
  -3   7   1 4222.44 489.527   5
  -3   7   2 6362.57 598.704   5
  -3   7   3 3303.33 458.377   5
  -3   7   4 2067.53 381.294   5
  -3   7   5 7392.59 695.331   5
  -3   7   6 8566.78 779.533   5
  -3   7   7 10165.2 895.055   5
  -3   7   8 13944.1 1057.40   5
  -3   8  -1 18457.4 1015.19   5
  -3   8   0 24956.9 1207.43   5
  -3   8   1 9628.67 759.518   5
  -3   8   2 2654.61 408.993   5
  -3   8   3 17.3877 148.110   5
  -3   8   4 3658.38 518.026   5
  -3   8   5 9333.49 834.887   5
  -3   8   6 15294.3 1104.02   5
  -3   8   7 3166.66 534.804   5
  -3   9   0 21.6291 125.449   5
  -3   9   1 2991.28 460.619   5
  -3   9   2 2337.59 414.506   5
  -3   9   3 1552.21 351.781   5
  -3   9   4 718.846 234.895   5
  -3   9   5 10.8504 173.154   5
  -3  10   0 2629.21 428.333   5
  -3  10   1 466.198 205.111   5
  -3  10   2 206.342 217.125   5
  -2 -11  -3 1852.12 486.846   6
  -2 -11  -2 2074.71 536.402   6
  -2 -11  -1 1388.88 428.719   6
  -2 -11   0 558.313 288.882   6
  -2 -11   1 575.944 377.900   6
  -2 -11   2 583.323 322.733   6
  -2 -11   3 34.8849 207.906   6
  -2 -10  -2 2849.28 565.214   6
  -2 -10  -1 662.812 317.167   6
  -2 -10   0 183.166 212.956   6
  -2 -10   1 5732.35 779.807   6
  -2 -10   2 12957.5 1178.47   6
  -2 -10   3 29946.5 1801.44   6
  -2 -10   4 9840.04 1040.82   6
  -2 -10   5 6100.54 834.386   6
  -2  -9  -2-184.120 189.018   6
  -2  -9  -1 3446.01 570.352   6
  -2  -9   0 11194.7 1005.58   6
  -2  -9   1 11895.8 1045.41   6
  -2  -9   2 41403.8 1958.73   6
  -2  -9   3 12209.8 1067.03   6
  -2  -9   4-32.0618 194.100   6
  -2  -9   5 3495.93 607.096   6
  -2  -9   6 2352.73 500.910   6
  -2  -9   7 5201.23 762.037   6
  -2  -8  -1 4566.78 590.779   6
  -2  -8   0 853.597 285.817   6
  -2  -8   1 3227.60 504.675   6
  -2  -8   2 3680.58 544.258   6
  -2  -8   3 17874.1 1194.47   6
  -2  -8   4 8879.16 857.553   6
  -2  -8   5 4609.67 654.279   6
  -2  -8   6 1294.23 372.959   6
  -2  -8   7 2552.10 532.691   6
  -2  -8   8 150.316 194.971   6
  -2  -7  -1 29961.7 1354.75   6
  -2  -7   0 32106.2 1412.26   6
  -2  -7   1 34438.6 1489.60   6
  -2  -7   2 34344.2 1511.11   6
  -2  -7   3 5458.78 607.752   6
  -2  -7   4 1185.59 303.827   6
  -2  -7   5 136.327 152.186   6
  -2  -7   6 3784.99 552.295   6
  -2  -7   7 3931.45 572.133   6
  -2  -7   8 12412.9 1070.91   6
  -2  -7   9 19767.5 1410.91   6
  -2  -6  -9 39621.6 1344.20   4
  -2  -6  -8 41956.5 1379.83   4
  -2  -6  -7 6364.90 525.562   4
  -2  -6  -6 55142.8 1581.58   4
  -2  -6  -5 9797.30 641.623   4
  -2  -6   0 125283. 2675.80   6
  -2  -6   1 70374.3 1965.39   6
  -2  -6   2 65942.7 1942.45   6
  -2  -6   3 8012.57 680.982   6
  -2  -6   4 3162.41 439.693   6
  -2  -6   5 2224.96 387.993   6
  -2  -6   6 10733.8 881.641   6
  -2  -6   7 30076.6 1545.65   6
  -2  -6   8 12057.7 1004.47   6
  -2  -6   9 7936.01 861.662   6
  -2  -6  10 545.193 281.914   6
  -2  -5 -10 5781.57 484.099   4
  -2  -5  -9 6145.42 497.807   4
  -2  -5  -8 47.6827 104.229   4
  -2  -5  -7 5011.23 426.373   4
  -2  -5  -6 2120.28 268.287   4
  -2  -5  -5 11608.5 637.194   4
  -2  -5  -4 31217.0 1064.82   4
  -2  -5  -3 25777.5 968.246   4
  -2  -5   0 379.362 132.638   6
  -2  -5   1 17951.5 875.337   6
  -2  -5   2 801.292 207.442   6
  -2  -5   3 2859.00 374.971   6
  -2  -5   4 17635.6 982.164   6
  -2  -5   5 639.868 212.659   6
  -2  -5   6 6431.02 647.285   6
  -2  -5   7 1002.76 293.423   6
  -2  -5   8 740.119 256.239   6
  -2  -5   9 7176.58 788.526   6
  -2  -5  10 1070.81 342.864   6
  -2  -5  11-128.247 180.471   6
  -2  -4 -12 323.787 161.399   1
  -2  -4 -11 381.789 201.563   1
  -2  -4 -10 4215.62 386.025   4
  -2  -4 -10 3703.80 491.150   1
  -2  -4  -9 4160.64 373.227   4
  -2  -4  -8 14350.5 662.985   4
  -2  -4  -7 23600.2 830.983   4
  -2  -4  -6 79192.3 1590.79   4
  -2  -4  -5 2352.89 258.017   4
  -2  -4  -4 7211.08 447.170   4
  -2  -4  -3 16806.9 700.095   4
  -2  -4  -2 11868.5 598.600   4
  -2  -4   0 18131.5 748.456   6
  -2  -4   1 3122.08 332.025   6
  -2  -4   2 1083.02 208.523   6
  -2  -4   3 4641.65 438.295   6
  -2  -4   4 7532.97 591.216   6
  -2  -4   5 11972.5 244.980   5
  -2  -4   5 14992.0 876.322   6
  -2  -4   6 34072.5 1419.45   6
  -2  -4   6 32184.5 584.425   5
  -2  -4   7 19804.6 1147.91   6
  -2  -4   8 5219.18 620.541   6
  -2  -4   9 1629.16 400.556   6
  -2  -4  10 6969.33 786.034   6
  -2  -4  11 2081.38 480.444   6
  -2  -3 -12 7956.66 805.501   1
  -2  -3 -11 19338.1 878.852   4
  -2  -3 -11 19745.8 1186.19   1
  -2  -3 -10 20950.1 862.557   4
  -2  -3 -10 20986.5 1144.01   1
  -2  -3  -9 19442.2 786.311   4
  -2  -3  -9 20602.8 1056.60   1
  -2  -3  -8 13632.3 627.187   4
  -2  -3  -7 1092.79 172.421   4
  -2  -3  -6 7429.95 420.836   4
  -2  -3  -5 11985.4 513.842   4
  -2  -3  -4 106285. 1691.08   4
  -2  -3  -3 47642.9 1055.32   4
  -2  -3  -2 99137.9 1656.94   4
  -2  -3  -2 100051. 1657.31   2
  -2  -3  -1 94105.5 1648.73   4
  -2  -3   0 70953.0 1397.46   1
  -2  -3   0 68455.9 1341.13   6
  -2  -3   1 21010.6 747.214   6
  -2  -3   2 2815.30 296.859   6
  -2  -3   3 56763.4 1469.57   6
  -2  -3   4 103726. 1155.07   5
  -2  -3   4 106879. 2197.85   6
  -2  -3   5 32755.7 1247.84   6
  -2  -3   5 32247.9 629.981   5
  -2  -3   6 42715.8 1517.70   6
  -2  -3   6 41385.2 826.358   5
  -2  -3   7 10863.9 810.878   6
  -2  -3   7 11381.6 452.035   5
  -2  -3   8 2393.82 423.624   6
  -2  -3   9 406.944 201.626   6
  -2  -3  10 1406.32 365.779   6
  -2  -3  11 8263.39 874.337   6
  -2  -2 -13 9205.85 943.560   1
  -2  -2 -12 19992.2 1311.73   1
  -2  -2 -12 21751.3 1015.37   4
  -2  -2 -11 12280.5 966.347   1
  -2  -2 -11 12120.9 720.664   4
  -2  -2 -10 10187.5 817.435   1
  -2  -2 -10 11592.0 663.258   4
  -2  -2  -9 8432.07 534.742   4
  -2  -2  -9 10297.6 752.374   1
  -2  -2  -8 2395.85 269.828   4
  -2  -2  -7 9537.28 497.021   4
  -2  -2  -7 9860.80 613.379   1
  -2  -2  -6 4259.72 314.549   4
  -2  -2  -6 4406.54 372.932   1
  -2  -2  -5 18056.8 614.538   4
  -2  -2  -4 81171.4 1340.40   4
  -2  -2  -3 30205.9 800.704   2
  -2  -2  -3 30596.2 731.587   4
  -2  -2  -2 11035.4 414.891   4
  -2  -2  -2 11209.2 455.442   2
  -2  -2  -1 4683.20 218.138   1
  -2  -2  -1 5216.55 297.009   4
  -2  -2   0 43435.5 956.030   4
  -2  -2   0 43077.4 842.924   6
  -2  -2   0 44817.6 899.349   1
  -2  -2   1 102583. 1612.00   6
  -2  -2   1 105390. 1730.30   1
  -2  -2   2 231.033 40.8218   5
  -2  -2   2 122.044 66.0334   6
  -2  -2   3 72.3767 38.3715   5
  -2  -2   3 196.589 103.134   6
  -2  -2   4 21041.0 512.278   5
  -2  -2   4 20368.0 856.284   6
  -2  -2   5-24.9167 81.1281   6
  -2  -2   5 25.0835 43.9057   5
  -2  -2   6 64.0226 62.8451   5
  -2  -2   6 199.188 129.245   6
  -2  -2   7 4474.39 507.500   6
  -2  -2   7 4219.97 308.187   5
  -2  -2   8 3384.99 301.678   5
  -2  -2   8 3002.97 447.789   6
  -2  -2   9 7125.23 712.048   6
  -2  -1 -13 4984.62 718.900   1
  -2  -1 -12 166.956 165.648   4
  -2  -1 -12 106.424 143.885   1
  -2  -1 -11 1825.40 304.378   4
  -2  -1 -11 2012.29 414.145   1
  -2  -1 -10 9445.59 815.559   1
  -2  -1 -10 10773.7 670.291   4
  -2  -1  -9 12558.4 859.772   1
  -2  -1  -9 10557.5 621.170   4
  -2  -1  -8 32752.7 1041.27   4
  -2  -1  -7 12116.3 712.824   1
  -2  -1  -7 11160.9 560.398   4
  -2  -1  -6 22739.7 874.209   1
  -2  -1  -6 23727.3 764.325   4
  -2  -1  -5 395.046 100.765   4
  -2  -1  -5 411.327 117.260   1
  -2  -1  -4 51129.9 1047.34   6
  -2  -1  -4 52348.3 1029.50   4
  -2  -1  -4 52221.2 1024.94   1
  -2  -1  -3 3015.15 175.506   1
  -2  -1  -3 3283.68 195.242   6
  -2  -1  -3 3168.45 222.453   4
  -2  -1  -2 13943.3 480.334   2
  -2  -1  -2 14429.8 298.819   6
  -2  -1  -2 14697.7 445.206   4
  -2  -1  -1 428.960 82.3349   4
  -2  -1  -1 496.844 97.3446   2
  -2  -1   0 170766. 1760.42   6
  -2  -1   0 170063. 1945.93   4
  -2  -1   1 7765.95 343.135   4
  -2  -1   1 8256.85 338.506   6
  -2  -1   1 8314.61 272.516   5
  -2  -1   2 75681.8 1342.61   6
  -2  -1   2 74443.3 1051.26   5
  -2  -1   3 48753.5 1173.01   6
  -2  -1   3 48852.5 871.469   5
  -2  -1   4 21117.2 828.744   6
  -2  -1   4 21866.2 605.621   5
  -2  -1   5 15772.3 777.929   6
  -2  -1   5 15515.8 555.723   5
  -2  -1   6 38439.2 966.645   5
  -2  -1   6 38016.1 1339.89   6
  -2  -1   7 1685.27 215.508   5
  -2  -1   7 1124.02 272.745   6
  -2  -1   8 562.472 141.029   5
  -2  -1   9 631.390 173.690   5
  -2  -1  10 9900.94 608.628   5
  -2   0 -13 961.594 278.269   4
  -2   0 -13 561.146 261.707   1
  -2   0 -12 11572.8 807.499   4
  -2   0 -12 11948.0 1069.05   1
  -2   0 -11 3429.53 422.578   4
  -2   0 -11 3289.51 554.705   1
  -2   0 -10 1453.31 259.890   4
  -2   0 -10 1593.66 354.284   1
  -2   0  -9 11219.0 664.665   4
  -2   0  -9 9876.15 799.352   1
  -2   0  -8 5134.92 428.839   4
  -2   0  -8 4811.58 507.923   1
  -2   0  -7 11595.4 596.860   4
  -2   0  -6 13887.9 734.477   1
  -2   0  -6 13009.4 595.142   4
  -2   0  -5 19831.9 685.144   4
  -2   0  -5 18878.6 765.122   1
  -2   0  -4 42214.7 1001.20   6
  -2   0  -4 42436.5 952.940   4
  -2   0  -3 1018.42 137.131   4
  -2   0  -3 894.182 124.450   6
  -2   0  -2 7959.98 322.617   4
  -2   0  -2 7820.63 276.373   6
  -2   0  -1 20732.0 532.481   2
  -2   0  -1 19755.9 479.873   4
  -2   0   0 82449.3 1057.02   4
  -2   0   0 85084.4 1185.70   5
  -2   0   0 84271.7 1190.07   2
  -2   0   1 411748. 3704.82   4
  -2   0   1 412566. 3996.11   5
  -2   0   2 105760. 1491.25   5
  -2   0   3 148927. 1975.20   5
  -2   0   4 63668.0 1225.35   5
  -2   0   5 18855.0 675.761   5
  -2   0   6 4892.95 363.701   5
  -2   0   7 6106.08 430.912   5
  -2   0   8 9942.16 584.467   5
  -2   0   9 27225.9 1027.74   5
  -2   0  10 34454.1 1223.23   5
  -2   0  11 23999.3 1068.36   5
  -2   1 -13 6608.66 664.544   4
  -2   1 -12 232.399 152.067   4
  -2   1 -11 218.800 157.253   4
  -2   1 -10 5617.71 539.083   4
  -2   1  -3 1684.88 191.045   6
  -2   1   0 26200.5 530.299   2
  -2   1   0 24064.2 508.576   4
  -2   1   0 24278.5 650.147   5
  -2   1   1 3980.00 164.642   4
  -2   1   1 4245.10 277.794   5
  -2   1   2 14622.3 542.345   5
  -2   1   3 4896.94 330.358   5
  -2   1   4 25455.2 806.059   5
  -2   1   5 4181.29 342.137   5
  -2   1   6 11859.0 612.324   5
  -2   1   7 15378.1 729.411   5
  -2   1   8 14492.0 743.754   5
  -2   1   9 5423.80 483.401   5
  -2   1  10 3986.74 438.512   5
  -2   1  11 971.722 237.535   5
  -2   1  12-42.5129 128.349   5
  -2   2 -14 1650.82 386.570   4
  -2   2 -13 459.639 249.282   4
  -2   2 -12 2559.51 403.371   4
  -2   2 -11 10026.9 772.245   4
  -2   2  -1 14763.9 536.987   5
  -2   2   0 28824.4 789.803   5
  -2   2   1 1132.98 170.004   5
  -2   2   1 971.570 75.8152   2
  -2   2   2 23348.8 755.580   5
  -2   2   3 47802.0 1170.82   5
  -2   2   4 5880.06 419.256   5
  -2   2   5 23476.6 881.877   5
  -2   2   6 13886.5 704.612   5
  -2   2   7 4143.37 407.704   5
  -2   2   8 2807.11 358.878   5
  -2   2   9 312.764 151.383   5
  -2   2  10 1066.34 238.853   5
  -2   2  11 2207.16 358.164   5
  -2   2  12 154.232 135.259   5
  -2   3 -13 14.9104 218.965   4
  -2   3  -1 78550.6 1477.63   5
  -2   3   0 20476.3 730.449   5
  -2   3   1 69943.7 1452.43   5
  -2   3   2 57509.8 1341.83   5
  -2   3   3 5040.83 216.642   4
  -2   3   3 5813.69 432.522   5
  -2   3   4 5043.48 421.957   5
  -2   3   5 8016.38 550.944   5
  -2   3   6 7132.78 534.274   5
  -2   3   7 49943.8 1506.34   5
  -2   3   8 24906.2 1090.61   5
  -2   3   9 9359.36 693.309   5
  -2   3  10 14055.9 882.852   5
  -2   3  11 488.321 209.008   5
  -2   3  12 1376.71 321.458   5
  -2   3  13 2482.73 435.096   5
  -2   4  -1 68474.9 1470.06   5
  -2   4   0 31881.3 990.267   5
  -2   4   1 3905.94 352.359   5
  -2   4   2 2450.09 297.975   5
  -2   4   3 209.868 88.6786   5
  -2   4   3 99.5294 60.6745   4
  -2   4   4 2128.93 293.044   5
  -2   4   4 2109.81 128.239   4
  -2   4   5 40973.8 1337.83   5
  -2   4   6 20372.4 966.142   5
  -2   4   7 8043.48 632.696   5
  -2   4   8 658.413 201.232   5
  -2   4   9 1710.12 320.895   5
  -2   4  10 327.399 186.148   5
  -2   4  11 1192.33 296.758   5
  -2   4  12 2594.61 438.754   5
  -2   5  -1 9907.08 572.252   5
  -2   5   0 628.597 158.276   5
  -2   5   1 18036.7 818.430   5
  -2   5   2 17931.9 835.303   5
  -2   5   3 19996.5 909.478   5
  -2   5   4 9147.68 641.631   5
  -2   5   5 3495.48 430.297   5
  -2   5   6 752.319 214.177   5
  -2   5   7-103.193 128.659   5
  -2   5   8 10.5736 132.865   5
  -2   5   9 1817.94 331.200   5
  -2   5  10 756.048 246.549   5
  -2   5  11 1847.76 393.172   5
  -2   6  -1 21628.0 913.801   5
  -2   6   0 1806.86 280.158   5
  -2   6   1 103.717 125.951   5
  -2   6   2 2656.62 345.958   5
  -2   6   3 1092.29 226.339   5
  -2   6   4 5459.45 529.165   5
  -2   6   5 18236.0 992.358   5
  -2   6   6 2131.80 362.819   5
  -2   6   7 5164.11 570.528   5
  -2   6   8 2513.38 404.800   5
  -2   6   9 432.793 211.872   5
  -2   6  10 723.210 255.131   5
  -2   7  -1 3825.09 403.888   5
  -2   7   0 5810.37 511.137   5
  -2   7   1 13581.0 789.839   5
  -2   7   2 11988.3 770.230   5
  -2   7   3 21127.3 1051.31   5
  -2   7   4 19819.7 1049.28   5
  -2   7   5 9513.15 754.532   5
  -2   7   6 724.038 235.020   5
  -2   7   7-46.1942 141.428   5
  -2   7   8 3824.97 536.966   5
  -2   7   9 4101.80 563.617   5
  -2   8  -1 14951.2 854.587   5
  -2   8   0 11414.8 752.329   5
  -2   8   1 30928.1 1281.23   5
  -2   8   2 4527.22 498.864   5
  -2   8   3 3375.81 464.406   5
  -2   8   4 782.572 233.231   5
  -2   8   5 251.100 196.047   5
  -2   8   6 825.459 300.202   5
  -2   8   7 6680.83 717.538   5
  -2   8   8 8721.78 840.593   5
  -2   9  -1 1199.31 254.138   5
  -2   9   0-150.052 155.781   5
  -2   9   1 158.627 150.282   5
  -2   9   2 2538.80 402.516   5
  -2   9   3 303.905 189.822   5
  -2   9   4 885.565 285.814   5
  -2   9   5 2922.94 481.353   5
  -2   9   6 303.655 203.558   5
  -2   9   7-77.4311 210.025   5
  -2  10   0 16196.8 989.526   5
  -2  10   1 14536.9 952.971   5
  -2  10   2 2033.00 372.821   5
  -2  10   3 8513.04 767.450   5
  -2  10   4 2657.18 464.840   5
  -2  10   5 729.473 263.130   5
  -2  11   2 1216.15 312.513   5
  -1 -11  -3-16.9007 246.329   6
  -1 -11  -2 1193.55 399.581   6
  -1 -11  -1 4154.63 725.579   6
  -1 -11   0 4375.94 734.335   6
  -1 -11   1 14505.6 1352.25   6
  -1 -11   2 2796.21 616.637   6
  -1 -10  -2 22043.0 1509.86   6
  -1 -10  -1 14468.4 1224.18   6
  -1 -10   0 8139.41 921.898   6
  -1 -10   1 5998.94 820.457   6
  -1 -10   2 2780.68 590.222   6
  -1 -10   3 4305.00 696.011   6
  -1 -10   4 4008.89 668.003   6
  -1 -10   5 9965.66 1071.19   6
  -1  -9  -1 193.240 247.517   6
  -1  -9   0 4324.93 636.574   6
  -1  -9   1 1679.94 412.265   6
  -1  -9   2 6684.37 824.742   6
  -1  -9   3 22269.5 1460.26   6
  -1  -9   4 5344.83 721.815   6
  -1  -9   5 3822.63 612.777   6
  -1  -9   6 2356.90 505.434   6
  -1  -9   7 1614.00 438.679   6
  -1  -8  -1 2280.81 459.886   6
  -1  -8   0 166.171 197.786   6
  -1  -8   1 3875.83 577.935   6
  -1  -8   2 4818.41 637.330   6
  -1  -8   3 4785.60 615.922   6
  -1  -8   4 24.8447 181.732   6
  -1  -8   5 1316.56 348.493   6
  -1  -8   6 3697.08 581.417   6
  -1  -8   7 9358.36 961.767   6
  -1  -8   8 6348.12 796.151   6
  -1  -7   0 3425.39 477.514   6
  -1  -7   1 325.795 201.295   6
  -1  -7   2 21770.2 1213.84   6
  -1  -7   3 55353.3 1977.74   6
  -1  -7   4 20833.1 1224.96   6
  -1  -7   5 28900.9 1489.47   6
  -1  -7   6 14863.0 1096.80   6
  -1  -7   7 3853.34 579.929   6
  -1  -7   8 439.916 224.832   6
  -1  -7   9 565.148 239.380   6
  -1  -6   0 53941.0 1716.82   6
  -1  -6   1 58820.3 1808.13   6
  -1  -6   2 29206.7 704.717   5
  -1  -6   2 32883.6 1353.12   6
  -1  -6   3 44705.4 1634.84   6
  -1  -6   4 14260.7 932.328   6
  -1  -6   5 87.1940 197.753   6
  -1  -6   6 477.400 212.373   6
  -1  -6   7 7494.86 766.825   6
  -1  -6   8 7085.45 763.359   6
  -1  -6   9 7240.63 799.771   6
  -1  -6  10 4694.63 701.093   6
  -1  -5 -13 100.688 276.190   1
  -1  -5  -8 7270.71 481.874   4
  -1  -5  -7 20778.0 815.790   4
  -1  -5  -6 16716.7 728.150   4
  -1  -5  -5 2223.22 267.785   4
  -1  -5   0 9167.85 623.299   6
  -1  -5   1 5632.36 285.575   5
  -1  -5   1 5741.86 502.752   6
  -1  -5   2 4811.58 467.677   6
  -1  -5   2 4494.69 226.063   5
  -1  -5   3 92.6037 36.3553   5
  -1  -5   3 111.104 102.962   6
  -1  -5   4 976.857 92.2019   5
  -1  -5   4 1077.36 231.962   6
  -1  -5   5 223.760 142.763   6
  -1  -5   6 94.7936 121.393   6
  -1  -5   7 186.338 127.731   6
  -1  -5   8 18.9947 156.979   6
  -1  -5   9 3171.35 518.042   6
  -1  -5  10 6102.67 746.291   6
  -1  -5  11 341.253 234.810   6
  -1  -4 -13 1220.57 343.368   1
  -1  -4 -12 4147.17 612.649   1
  -1  -4  -9 17314.6 707.326   4
  -1  -4  -8 12874.2 592.559   4
  -1  -4  -7 8163.00 454.913   4
  -1  -4  -6 21275.9 735.904   4
  -1  -4  -5 25380.3 801.003   4
  -1  -4  -4 21593.8 744.060   4
  -1  -4  -4 19933.1 635.623   2
  -1  -4  -3 4178.00 335.446   4
  -1  -4  -1 4609.12 278.914   5
  -1  -4   0 29767.8 650.521   5
  -1  -4   0 31734.7 1020.46   6
  -1  -4   1 51745.8 806.539   5
  -1  -4   1 54691.9 1401.05   6
  -1  -4   2 63142.8 1591.33   6
  -1  -4   2 62044.4 829.823   5
  -1  -4   3 88197.3 1991.20   6
  -1  -4   3 87845.3 1039.08   5
  -1  -4   4 2761.82 154.253   5
  -1  -4   4 3083.34 385.260   6
  -1  -4   5 2065.37 148.709   5
  -1  -4   5 2291.45 342.042   6
  -1  -4   6 629.495 184.576   6
  -1  -4   7 3512.90 465.626   6
  -1  -4   8 15176.9 1025.06   6
  -1  -4   9 33072.2 1616.66   6
  -1  -4  10 7327.66 794.291   6
  -1  -4  11 9958.83 960.560   6
  -1  -3 -13 2755.60 556.909   1
  -1  -3 -12 2361.45 486.568   1
  -1  -3 -11 2106.96 412.718   1
  -1  -3 -10 1793.36 237.724   4
  -1  -3 -10 2327.81 426.114   1
  -1  -3  -9 37750.0 1031.69   4
  -1  -3  -8 30202.2 865.955   4
  -1  -3  -7 50399.7 1093.18   4
  -1  -3  -6 56744.8 1124.56   4
  -1  -3  -5 53250.2 1053.41   4
  -1  -3  -4 11248.2 452.862   2
  -1  -3  -4 12738.2 479.414   4
  -1  -3  -3 16375.7 557.168   4
  -1  -3  -3 15981.6 510.137   2
  -1  -3  -2 33584.7 860.676   4
  -1  -3   0 60503.9 838.346   5
  -1  -3   0 61020.3 1270.14   6
  -1  -3   1 68596.3 793.176   5
  -1  -3   1 67436.5 1398.00   6
  -1  -3   2 2420.14 271.797   6
  -1  -3   2 2318.11 94.8054   5
  -1  -3   3 4001.92 369.809   6
  -1  -3   3 3589.45 143.617   5
  -1  -3   4 6685.58 505.599   6
  -1  -3   5 16202.6 844.218   6
  -1  -3   6 53253.9 1664.68   6
  -1  -3   7 60839.2 1102.24   5
  -1  -3   7 59241.4 1885.63   6
  -1  -3   8 37251.1 909.046   5
  -1  -3   8 38009.2 1576.03   6
  -1  -3   9 8055.77 765.709   6
  -1  -3  10 1160.01 315.183   6
  -1  -3  11 1799.67 409.373   6
  -1  -3  12 7593.78 870.188   6
  -1  -2 -14 421.457 211.280   1
  -1  -2 -13 1068.99 344.680   1
  -1  -2 -12 11470.0 1030.74   1
  -1  -2 -11 23938.0 946.059   4
  -1  -2 -11 23323.5 1367.26   1
  -1  -2 -10 5965.89 663.885   1
  -1  -2 -10 4987.90 409.574   4
  -1  -2  -9 21669.6 790.416   4
  -1  -2  -9 20302.3 1110.34   1
  -1  -2  -8 34256.6 952.858   4
  -1  -2  -8 35174.3 1365.05   1
  -1  -2  -7 1955.43 211.184   4
  -1  -2  -6 2126.01 202.538   4
  -1  -2  -5 32294.5 748.933   4
  -1  -2  -4 17543.5 499.657   4
  -1  -2  -3 8926.25 332.952   4
  -1  -2  -2 8805.82 333.387   4
  -1  -2  -2 8115.79 317.042   2
  -1  -2  -1 110374. 1510.36   4
  -1  -2   0 73811.6 1174.06   6
  -1  -2   1 42827.2 1002.39   1
  -1  -2   1 41422.0 913.992   6
  -1  -2   2 4297.94 342.288   1
  -1  -2   2 3734.97 295.592   6
  -1  -2   3 939.792 169.710   6
  -1  -2   4 1921.30 255.137   6
  -1  -2   5 32303.8 1142.41   6
  -1  -2   6 12207.9 439.460   5
  -1  -2   6 11997.3 747.373   6
  -1  -2   7 1843.20 187.168   5
  -1  -2   7 1529.78 302.024   6
  -1  -2   8 666.309 137.747   5
  -1  -2   8 550.322 228.639   6
  -1  -2   9 941.631 172.479   5
  -1  -2   9 496.007 202.831   6
  -1  -2  10 345.670 199.498   6
  -1  -1 -14 1200.60 373.503   1
  -1  -1 -13 3248.36 627.822   1
  -1  -1 -12 1639.14 413.863   1
  -1  -1 -11 224.028 112.758   4
  -1  -1 -11 1027.01 331.945   1
  -1  -1 -10-35.2919 91.1660   4
  -1  -1 -10 207.277 122.816   1
  -1  -1  -9 5717.25 602.873   1
  -1  -1  -9 6323.02 451.344   4
  -1  -1  -8 528.203 137.564   4
  -1  -1  -8 364.935 156.014   1
  -1  -1  -7 548.699 132.817   4
  -1  -1  -6 239.423 78.8801   4
  -1  -1  -6 316.461 139.505   1
  -1  -1  -5 7190.03 346.766   4
  -1  -1  -5 7503.74 481.232   1
  -1  -1  -4 35803.9 744.557   4
  -1  -1  -3 46212.2 885.613   6
  -1  -1  -3 45125.6 779.724   4
  -1  -1  -2 274175. 2653.34   4
  -1  -1  -1 53756.7 754.659   4
  -1  -1  -1 54339.1 800.992   2
  -1  -1   0 52703.5 759.395   1
  -1  -1   0 52699.1 792.787   4
  -1  -1   0 50610.9 719.575   6
  -1  -1   1 123532. 1550.09   6
  -1  -1   1 123972. 1652.26   1
  -1  -1   2 55523.1 1066.96   6
  -1  -1   2 56801.9 710.302   5
  -1  -1   3 2677.34 152.953   5
  -1  -1   3 3000.53 157.741   3
  -1  -1   3 3120.85 271.602   6
  -1  -1   4 47557.2 829.139   5
  -1  -1   4 48446.9 802.717   3
  -1  -1   4 45735.1 1219.88   6
  -1  -1   5 21636.9 589.926   5
  -1  -1   5 21585.1 557.684   3
  -1  -1   5 20945.2 889.838   6
  -1  -1   6 61834.7 1164.59   5
  -1  -1   6 62109.2 1106.99   3
  -1  -1   6 63207.0 1707.32   6
  -1  -1   7 29455.0 830.481   5
  -1  -1   7 28877.9 1208.17   6
  -1  -1   8 20283.8 734.918   5
  -1  -1   8 21168.6 1088.66   6
  -1  -1   9 22739.7 833.230   5
  -1  -1  10 1121.71 201.737   5
  -1   0 -14 446.997 306.898   1
  -1   0 -13 859.353 329.777   1
  -1   0 -12 2730.45 378.591   4
  -1   0 -12 2384.28 500.001   1
  -1   0 -11 4907.18 654.634   1
  -1   0 -11 4136.73 443.052   4
  -1   0 -10 3056.62 355.687   4
  -1   0 -10 3145.94 502.072   1
  -1   0  -9 47379.6 1826.26   1
  -1   0  -9 49009.0 1367.98   4
  -1   0  -8 22176.5 1151.92   1
  -1   0  -8 25207.0 899.388   4
  -1   0  -6 1649.14 271.886   1
  -1   0  -5 29065.8 1005.43   1
  -1   0  -4 58749.2 1304.46   1
  -1   0  -3 148151. 2007.31   1
  -1   0  -3 148615. 1937.57   6
  -1   0  -2 60662.6 914.204   6
  -1   0  -2 59920.0 957.762   1
  -1   0  -1 98298.4 1097.96   4
  -1   0   1 387.867 58.1612   5
  -1   0   1 374.467 60.9575   3
  -1   0   2 10012.6 333.401   3
  -1   0   2 10331.0 322.389   5
  -1   0   3 12105.8 394.659   5
  -1   0   3 12349.9 412.059   3
  -1   0   3 11346.5 492.473   6
  -1   0   4 102238. 1472.06   5
  -1   0   4 101265. 1491.94   3
  -1   0   4 98471.0 1803.20   6
  -1   0   5 161175. 2129.95   5
  -1   0   6 90151.3 1558.97   5
  -1   0   7 16322.6 651.689   5
  -1   0   8 3973.37 342.418   5
  -1   0   9 125.162 88.5367   5
  -1   0  10 6958.98 514.733   5
  -1   0  11 2691.90 340.185   5
  -1   1 -13 11251.8 1178.79   1
  -1   1 -12 12864.6 1168.68   1
  -1   1 -12 12762.0 852.910   4
  -1   1 -11 22208.2 1478.35   1
  -1   1 -11 22547.6 1075.84   4
  -1   1 -10 233.177 184.437   1
  -1   1  -9-42.5279 128.295   1
  -1   1  -8 90.3169 107.110   1
  -1   1  -7 60842.6 1867.37   1
  -1   1  -5 102510. 2133.84   1
  -1   1  -4 32120.8 1031.77   1
  -1   1  -3 56555.1 1171.52   6
  -1   1  -2 13468.2 471.203   6
  -1   1   0 20434.8 482.440   3
  -1   1   0 20685.2 476.231   5
  -1   1   1 219366. 2413.72   3
  -1   1   1 221382. 2348.83   5
  -1   1   2 111198. 1563.96   3
  -1   1   2 108998. 1490.20   5
  -1   1   3 108441. 1640.67   3
  -1   1   3 107063. 1565.49   5
  -1   1   4 49525.2 1040.43   5
  -1   1   5 81443.6 1474.73   5
  -1   1   6 10275.1 514.346   5
  -1   1   7 5308.10 390.259   5
  -1   1   8 2860.62 311.349   5
  -1   1   9 740.724 162.896   5
  -1   1  10 1542.88 265.076   5
  -1   1  11 4329.39 444.621   5
  -1   1  12 8948.28 675.839   5
  -1   2 -13 5068.57 589.408   4
  -1   2 -12 4765.15 547.491   4
  -1   2  -2 81731.1 1480.92   6
  -1   2  -1 21924.8 552.785   5
  -1   2   0 960.691 123.845   5
  -1   2   0 908.237 124.019   3
  -1   2   1 70697.3 1233.73   3
  -1   2   1 70449.0 1189.98   5
  -1   2   2 19004.6 404.041   4
  -1   2   2 20013.3 615.339   5
  -1   2   3 21061.0 674.133   5
  -1   2   4 22214.6 734.961   5
  -1   2   5 21060.2 758.878   5
  -1   2   6 14569.6 659.477   5
  -1   2   7 5655.91 430.784   5
  -1   2   8 27.6827 91.1831   5
  -1   2   9-26.5563 101.767   5
  -1   2  10 4612.35 461.258   5
  -1   2  11 6359.58 568.229   5
  -1   2  12 9970.72 749.351   5
  -1   2  13 3104.70 458.668   5
  -1   3 -13 3666.67 533.407   4
  -1   3  -1 34165.6 812.398   3
  -1   3  -1 36866.7 831.672   5
  -1   3   0 20248.4 632.152   5
  -1   3   1 1864.44 198.516   5
  -1   3   2 41225.6 1002.59   5
  -1   3   3 24768.7 527.308   4
  -1   3   3 25601.5 815.531   5
  -1   3   4 59019.0 729.009   4
  -1   3   4 60693.2 1367.43   5
  -1   3   5 23794.2 874.219   5
  -1   3   6 2088.67 284.793   5
  -1   3   7 5519.50 464.968   5
  -1   3   8 17379.2 847.601   5
  -1   3   9 10.8703 107.090   5
  -1   3  10 26677.3 1156.54   5
  -1   3  11 13572.8 867.791   5
  -1   3  12 7656.21 693.795   5
  -1   3  13 215.808 167.560   5
  -1   4  -1 14357.2 561.186   5
  -1   4   0 90591.6 1608.11   5
  -1   4   1 147530. 2222.33   5
  -1   4   2 4283.95 152.268   2
  -1   4   2 4097.77 340.647   5
  -1   4   3 15940.9 550.059   4
  -1   4   3 15206.0 677.180   5
  -1   4   4 6431.28 276.924   4
  -1   4   4 6336.54 455.159   5
  -1   4   5 2784.73 313.249   5
  -1   4   5 2433.10 137.349   4
  -1   4   6 1223.62 213.307   5
  -1   4   7 15108.3 803.542   5
  -1   4   8 12755.7 772.202   5
  -1   4   9 17827.0 952.232   5
  -1   4  10 10296.9 757.111   5
  -1   4  11 3267.47 452.581   5
  -1   4  12 568.807 239.056   5
  -1   4  13 121.050 147.067   5
  -1   5  -1 8848.68 484.667   5
  -1   5   0 656.750 154.348   5
  -1   5   1 21909.5 817.073   5
  -1   5   2 7181.62 268.821   2
  -1   5   2 7897.42 504.278   5
  -1   5   3 836.877 175.522   5
  -1   5   4 5783.61 349.426   4
  -1   5   4 6704.92 506.940   5
  -1   5   5 2733.71 336.869   5
  -1   5   6 4542.23 450.944   5
  -1   5   7 566.849 184.593   5
  -1   5   8 599.996 204.114   5
  -1   5   9 490.385 222.899   5
  -1   5  10 15806.5 975.210   5
  -1   5  11 1502.13 324.355   5
  -1   5  12 2128.56 418.393   5
  -1   6  -1 11002.4 590.405   5
  -1   6   0 49482.1 1315.78   5
  -1   6   1 5810.37 451.710   5
  -1   6   2 7113.82 315.104   2
  -1   6   2 7723.68 533.298   5
  -1   6   3 14832.1 772.110   5
  -1   6   4 3370.69 382.010   5
  -1   6   5 841.581 208.454   5
  -1   6   6 11418.6 758.277   5
  -1   6   7 18770.8 1003.68   5
  -1   6   8 17055.7 990.502   5
  -1   6   9 3554.19 479.229   5
  -1   6  10 7762.83 722.126   5
  -1   6  11 3461.94 517.094   5
  -1   7  -1 23068.4 929.857   5
  -1   7   0 2887.37 334.344   5
  -1   7   1 3990.79 407.070   5
  -1   7   2 9288.44 643.052   5
  -1   7   3 921.426 222.310   5
  -1   7   4 16082.7 887.223   5
  -1   7   5 18986.9 995.440   5
  -1   7   6 23657.9 1157.39   5
  -1   7   7 22658.6 1168.11   5
  -1   7   8 11425.6 852.869   5
  -1   7   9 23.1203 142.096   5
  -1   7  10 118.820 177.762   5
  -1   8  -1 158.575 89.0176   5
  -1   8   0 215.988 142.617   5
  -1   8   1 3454.94 404.704   5
  -1   8   2 10251.5 707.032   5
  -1   8   3 20036.3 1013.03   5
  -1   8   4 14607.8 887.096   5
  -1   8   5 1346.94 294.703   5
  -1   8   6 1508.14 323.717   5
  -1   8   7-6.44081 178.216   5
  -1   8   8 231.425 186.057   5
  -1   8   9-149.611 174.815   5
  -1   9  -1 6109.38 535.062   5
  -1   9   0 15228.2 858.263   5
  -1   9   1 1965.49 322.626   5
  -1   9   2 1753.26 303.988   5
  -1   9   3 2694.23 410.247   5
  -1   9   4 2476.81 403.609   5
  -1   9   5 2324.19 403.576   5
  -1   9   6 6420.60 678.341   5
  -1   9   7 2003.40 416.046   5
  -1   9   8 2346.23 454.108   5
  -1  10   0 347.705 144.561   5
  -1  10   1 5077.57 551.762   5
  -1  10   2 15058.0 945.102   5
  -1  10   3 6927.43 674.833   5
  -1  10   4 7796.50 730.544   5
  -1  10   5 9185.16 809.409   5
  -1  10   6 1971.11 383.238   5
  -1  11   2 15786.4 1018.16   5
  -1  11   3 7537.31 728.004   5
  -1  11   4 3058.18 483.810   5
   0 -11  -2 125.334 276.664   6
   0 -11  -1 177.875 234.241   6
   0 -11   0 482.682 339.530   6
   0 -11   1 1271.47 450.548   6
   0 -10  -2 8579.89 971.184   6
   0 -10  -1 5795.31 794.390   6
   0 -10   0 11662.8 1142.79   6
   0 -10   1 14227.3 1258.42   6
   0 -10   2 14197.2 1276.34   6
   0 -10   3 11328.4 1153.21   6
   0 -10   4 930.016 353.655   6
   0 -10   5 135.201 220.770   6
   0  -9  -1 11256.9 1015.87   6
   0  -9   0 4636.60 675.851   6
   0  -9   1 5668.43 759.488   6
   0  -9   2 7.35106 169.409   6
   0  -9   3 701.481 303.766   6
   0  -9   4 598.990 280.205   6
   0  -9   5 2276.69 499.032   6
   0  -9   6 3628.08 622.595   6
   0  -9   7 997.100 331.829   6
   0  -8   0 6897.82 752.992   6
   0  -8   1 12894.7 1020.67   6
   0  -8   2 61591.7 2303.00   6
   0  -8   3 10031.3 935.634   6
   0  -8   4 2547.71 461.003   6
   0  -8   5 667.654 306.311   6
   0  -8   6-128.471 208.561   6
   0  -8   7 691.751 299.719   6
   0  -8   8 7294.04 868.616   6
   0  -7   0 6336.10 663.903   6
   0  -7   1 19134.1 1143.88   6
   0  -7   2 349.395 148.947   6
   0  -7   3 3097.39 484.184   6
   0  -7   4 5367.06 625.573   6
   0  -7   5 13729.4 1023.26   6
   0  -7   6 17975.2 1211.97   6
   0  -7   7 11839.7 1017.06   6
   0  -7   8 8306.35 864.652   6
   0  -7   9 5207.72 715.754   6
   0  -6   1 2907.56 406.410   6
   0  -6   2 11505.4 813.028   6
   0  -6   3 1336.98 298.323   6
   0  -6   4 7028.08 657.744   6
   0  -6   5 2826.76 429.211   6
   0  -6   6 10151.9 842.217   6
   0  -6   7 681.508 223.317   6
   0  -6   8 3105.34 516.674   6
   0  -6   9 691.838 231.904   6
   0  -6  10 757.486 284.475   6
   0  -5 -13 1879.35 505.284   1
   0  -5  -6 16177.9 568.654   2
   0  -5   1 21923.8 992.354   6
   0  -5   2 6873.96 569.080   6
   0  -5   3 113.830 120.939   6
   0  -5   4 2863.69 378.986   6
   0  -5   5-67.9767 116.660   6
   0  -5   6 3964.50 501.093   6
   0  -5   7 6880.50 681.950   6
   0  -5   8 23487.3 1318.04   6
   0  -5   9 3337.09 512.657   6
   0  -5  10 248.134 226.327   6
   0  -5  11-59.5006 203.387   6
   0  -4 -14 2281.18 520.450   1
   0  -4 -13 431.500 210.316   1
   0  -4 -12 5032.14 733.049   1
   0  -4  -8 677.443 130.467   4
   0  -4  -7 14462.5 542.075   4
   0  -4  -6 6094.02 349.049   4
   0  -4  -5 15347.7 500.687   2
   0  -4   1 7024.29 505.205   6
   0  -4   1 6358.60 316.815   5
   0  -4   2 12854.3 694.863   6
   0  -4   2 11481.3 420.354   5
   0  -4   3 35091.6 1208.82   6
   0  -4   3 36031.7 776.196   5
   0  -4   4 55131.3 1607.28   6
   0  -4   4 54840.3 1005.73   5
   0  -4   5 37842.4 1394.01   6
   0  -4   6 42754.8 1544.93   6
   0  -4   7 183.658 143.310   6
   0  -4   8 503.668 227.675   6
   0  -4   9 13972.7 1024.21   6
   0  -4  10 8030.10 818.015   6
   0  -4  11 15751.6 1197.38   6
   0  -4  12 17325.8 1310.39   6
   0  -3 -14 5759.36 846.381   1
   0  -3 -13 14849.7 1277.13   1
   0  -3 -12 14791.3 1198.68   1
   0  -3 -11 8551.52 867.722   1
   0  -3  -9 1095.73 151.010   4
   0  -3  -8 8054.15 389.385   4
   0  -3  -7 66146.5 1160.20   4
   0  -3  -6 107599. 1534.70   4
   0  -3  -5 70517.9 1144.46   4
   0  -3  -4 34682.0 715.878   2
   0  -3  -4 37313.9 782.401   4
   0  -3  -3 8593.55 297.439   2
   0  -3  -1 17.8004 38.6823   5
   0  -3   0 212381. 2348.31   5
   0  -3   1 53500.1 1227.17   6
   0  -3   1 49157.5 840.693   5
   0  -3   2 177548. 2675.80   6
   0  -3   2 178430. 1972.35   5
   0  -3   3 109882. 2062.77   6
   0  -3   3 108280. 1395.83   5
   0  -3   4 23601.3 955.780   6
   0  -3   5 7017.13 549.539   6
   0  -3   6 766.754 209.138   6
   0  -3   7 8368.55 674.997   6
   0  -3   8 32144.6 1419.70   6
   0  -3   9 2540.81 442.072   6
   0  -3  10 5224.99 640.874   6
   0  -3  11 11828.0 1016.42   6
   0  -3  12 4077.40 621.906   6
   0  -2 -14 2860.72 616.549   1
   0  -2 -13 7400.98 896.869   1
   0  -2 -12 1381.25 380.003   1
   0  -2 -11 1519.22 376.372   1
   0  -2 -10 1246.83 337.520   1
   0  -2  -9 290.341 108.845   4
   0  -2  -9-7.13924 135.107   1
   0  -2  -8 563.224 109.147   4
   0  -2  -7 12732.2 470.641   4
   0  -2  -6 6572.17 302.611   4
   0  -2  -5 9429.38 330.319   4
   0  -2  -4 1543.43 121.250   4
   0  -2  -3 93.9364 48.1537   4
   0  -2  -2 27212.9 591.354   4
   0  -2  -2 28586.3 481.092   2
   0  -2  -1 66510.3 993.605   5
   0  -2   0 42128.2 673.130   5
   0  -2   1 33031.3 808.688   6
   0  -2   1 32509.9 544.619   5
   0  -2   2 173.136 99.3697   1
   0  -2   2 149.013 84.8066   6
   0  -2   3 24620.9 831.529   6
   0  -2   4 16227.4 734.056   6
   0  -2   5 7801.64 537.284   6
   0  -2   6 13257.5 329.817   3
   0  -2   6 13937.0 780.057   6
   0  -2   7 9308.74 307.653   3
   0  -2   7 10647.2 736.491   6
   0  -2   8 29467.5 1316.51   6
   0  -2   9 475.670 196.132   6
   0  -2  10 171.238 125.980   5
   0  -2  10-49.4393 150.850   6
   0  -2  11 1357.28 348.106   6
   0  -1 -14-176.550 285.055   1
   0  -1 -13-396.463 331.277   1
   0  -1 -12 2742.90 539.387   1
   0  -1 -11 298.407 219.090   1
   0  -1 -10 6098.37 434.382   4
   0  -1 -10 5470.73 661.350   1
   0  -1  -9 6396.41 424.476   4
   0  -1  -9 6238.04 651.858   1
   0  -1  -8 22151.7 740.540   4
   0  -1  -8 22056.1 1139.24   1
   0  -1  -7 3942.27 280.662   4
   0  -1  -7 3731.97 439.368   1
   0  -1  -6 7648.72 353.151   4
   0  -1  -5 38267.7 756.925   4
   0  -1  -4 8842.39 293.440   4
   0  -1  -3 271.721 51.5606   4
   0  -1  -2 1270.58 78.8356   4
   0  -1  -1-4.89405 21.0890   4
   0  -1   0 33094.1 449.738   5
   0  -1   1 32571.2 637.709   6
   0  -1   2 66754.6 1233.67   1
   0  -1   2 65919.9 1149.05   6
   0  -1   3 52616.5 1120.23   6
   0  -1   3 52381.0 1208.65   1
   0  -1   4 25828.1 858.618   6
   0  -1   5 10189.6 590.546   6
   0  -1   6 929.200 222.271   6
   0  -1   7 26953.1 706.862   3
   0  -1   7 27134.0 1147.68   6
   0  -1   8 8019.67 662.855   6
   0  -1   9 7504.27 465.715   5
   0  -1   9 6519.05 638.263   6
   0  -1  10 14870.2 703.079   5
   0  -1  11 6583.74 499.401   5
   0   0 -14 3014.74 630.478   1
   0   0 -13 10023.8 1078.61   1
   0   0 -12-129.498 206.271   1
   0   0 -11 3665.25 589.941   1
   0   0 -11 4886.82 450.133   4
   0   0 -10 20463.4 1311.37   1
   0   0 -10 21622.7 887.937   4
   0   0  -9 15844.9 1081.24   1
   0   0  -9 18875.0 798.745   4
   0   0  -8 74552.6 2219.62   1
   0   0  -7 53426.8 1724.92   1
   0   0  -5 9447.69 592.602   1
   0   0  -4 9606.55 545.093   1
   0   0  -3 28913.7 819.685   1
   0   0  -2 74520.9 1176.67   1
   0   0   2 71661.1 1077.10   6
   0   0   3 26616.6 726.921   6
   0   0   4 8624.72 471.225   6
   0   0   5 9311.79 545.396   6
   0   0   6 55581.2 1504.40   6
   0   0   8 65361.7 1406.24   5
   0   0   9 16062.6 710.633   5
   0   0  10 18967.3 829.664   5
   0   0  11 3980.33 406.575   5
   0   0  12 241.441 135.490   5
   0   1 -13 451.897 261.220   1
   0   1 -12 6829.60 878.041   1
   0   1 -11 7685.89 876.485   1
   0   1 -11 9621.52 664.116   4
   0   1 -10 18114.1 1265.77   1
   0   1  -9 8963.17 834.982   1
   0   1  -8 9237.26 795.851   1
   0   1  -7 32811.7 1394.12   1
   0   1  -5 9956.00 638.924   1
   0   1  -4 26871.0 969.439   1
   0   1  -3 54415.6 1263.18   1
   0   1  -3 54638.6 1185.55   6
   0   1   1 3.29894 22.0761   5
   0   1   1 7.78203 22.3545   4
   0   1   2 1152.07 109.317   5
   0   1   2 1240.20 76.9689   4
   0   1   3 228.548 60.9981   5
   0   1   4 8238.52 362.779   5
   0   1   5 38299.5 886.843   5
   0   1   6 6883.57 391.401   5
   0   1   7 3632.52 312.047   5
   0   1   8 20131.7 783.477   5
   0   1   9 6178.97 459.101   5
   0   1  10 5219.84 452.384   5
   0   1  11 474.746 166.982   5
   0   1  12 2313.05 337.146   5
   0   1  13 69.4000 121.928   5
   0   2 -13 2211.38 581.431   1
   0   2 -12 997.421 366.099   1
   0   2 -11 1325.14 492.042   1
   0   2 -10-18.6077 159.304   1
   0   2  -9 1272.23 356.660   1
   0   2  -8 34564.4 1612.98   1
   0   2  -7 13855.8 939.996   1
   0   2  -6 17638.2 990.739   1
   0   2  -4 17221.0 835.303   1
   0   2  -1 31667.1 510.637   3
   0   2  -1 32870.5 531.405   5
   0   2   0 44720.7 753.952   3
   0   2   0 45130.4 703.660   5
   0   2   1 69478.0 1016.18   5
   0   2   2 29201.0 657.364   5
   0   2   2 28737.1 547.914   4
   0   2   3 58.7708 63.2083   5
   0   2   3 134.119 35.0299   4
   0   2   4 1272.62 160.869   5
   0   2   4 1418.36 113.272   4
   0   2   5 8956.22 450.461   5
   0   2   6 6525.44 408.766   5
   0   2   7 11880.5 593.126   5
   0   2   8 636.604 171.384   5
   0   2   9 364.847 158.853   5
   0   2  10 1871.86 282.364   5
   0   2  11 1394.49 266.915   5
   0   2  12 2104.92 341.861   5
   0   2  13 7680.28 669.848   5
   0   2  14 2850.55 429.331   5
   0   3  -2 172420. 1779.89   3
   0   3  -1 50080.2 841.751   3
   0   3  -1 51296.3 846.957   5
   0   3   0 220367. 2526.41   3
   0   3   0 223105. 2433.70   5
   0   3   1 153.767 63.9971   5
   0   3   2 34706.0 793.418   4
   0   3   2 34617.2 813.533   5
   0   3   2 34088.7 600.293   2
   0   3   3 8728.53 324.479   4
   0   3   3 8555.41 417.526   5
   0   3   4 35926.2 945.510   5
   0   3   4 36967.5 674.320   4
   0   3   5 65520.1 1392.64   5
   0   3   5 65188.0 971.145   4
   0   3   6 98428.9 1854.59   5
   0   3   7 60907.4 1479.42   5
   0   3   8 7779.01 540.450   5
   0   3   9 730.767 181.935   5
   0   3  10 788.166 207.809   5
   0   3  11 7655.25 628.955   5
   0   3  12 16990.3 980.479   5
   0   3  13 14157.0 933.946   5
   0   3  14 6261.92 667.118   5
   0   4  -2 11789.5 385.106   3
   0   4  -1 6508.90 330.184   3
   0   4  -1 6816.93 327.151   5
   0   4   0 55934.0 1066.29   5
   0   4   1 3045.46 241.925   5
   0   4   2 32546.7 678.570   2
   0   4   2 31905.4 857.097   5
   0   4   3 5529.70 328.665   4
   0   4   3 5838.94 382.387   5
   0   4   4 46784.6 908.152   4
   0   4   4 47655.0 1186.15   5
   0   4   5 15308.1 466.328   4
   0   4   5 15119.2 687.297   5
   0   4   6 5880.67 278.893   4
   0   4   6 6137.42 455.135   5
   0   4   7 13716.6 717.501   5
   0   4   8 767.447 184.335   5
   0   4   9 12276.8 746.365   5
   0   4  10 11976.5 772.643   5
   0   4  11 1654.95 308.164   5
   0   4  12 4059.67 498.027   5
   0   4  13 512.957 200.417   5
   0   5  -2 5769.40 327.530   3
   0   5  -1 22826.4 694.906   5
   0   5   0 19329.2 662.820   5
   0   5   1 3208.10 283.390   5
   0   5   2 1834.62 230.371   5
   0   5   2 1924.75 182.639   2
   0   5   3 268.608 107.978   5
   0   5   3 253.571 67.8046   2
   0   5   4 5591.52 429.524   5
   0   5   5 15746.6 748.354   5
   0   5   6 17850.5 834.559   5
   0   5   7 900.616 210.290   5
   0   5   8 4014.76 434.120   5
   0   5   9 1869.89 323.560   5
   0   5  10 379.576 177.372   5
   0   5  11 3594.79 477.364   5
   0   5  12 4014.63 538.930   5
   0   5  13 1511.50 362.871   5
   0   6  -1 2632.13 264.072   5
   0   6   0 3264.65 299.044   5
   0   6   1 54898.7 1309.84   5
   0   6   2 37145.6 922.001   2
   0   6   2 35494.4 1078.73   5
   0   6   3 31322.0 739.385   2
   0   6   3 32450.8 1062.68   5
   0   6   4 40573.3 1250.96   5
   0   6   5 18025.8 854.863   5
   0   6   6 6093.90 522.737   5
   0   6   7 963.725 242.061   5
   0   6   8 1768.38 319.862   5
   0   6   9 28313.4 1268.74   5
   0   6  10 9828.02 776.481   5
   0   6  11 17844.5 1087.28   5
   0   6  12 9605.54 826.012   5
   0   7  -1 18960.7 756.916   5
   0   7   0 6504.39 450.611   5
   0   7   1 42416.2 1228.14   5
   0   7   2 63660.8 1343.75   2
   0   7   2 65306.4 1593.86   5
   0   7   3 17189.6 818.900   5
   0   7   3 15152.5 543.836   2
   0   7   4 3780.23 402.869   5
   0   7   5 475.034 169.634   5
   0   7   6 106.651 145.032   5
   0   7   7 5702.61 553.944   5
   0   7   8 7106.01 650.471   5
   0   7   9 16935.5 1028.21   5
   0   7  10 11320.5 865.459   5
   0   7  11 2173.48 400.878   5
   0   8  -1 12816.4 666.836   5
   0   8   0 7440.72 519.490   5
   0   8   1 192.582 96.8626   5
   0   8   2 430.739 148.463   5
   0   8   3 2574.59 348.305   5
   0   8   4 7238.96 593.137   5
   0   8   5 3981.36 456.398   5
   0   8   6 6902.52 626.866   5
   0   8   7 6416.83 622.446   5
   0   8   8 190.299 192.441   5
   0   8   9 1294.42 311.366   5
   0   8  10 2130.75 411.690   5
   0   9  -1 5958.13 474.892   5
   0   9   0 5024.32 464.883   5
   0   9   1 11277.0 698.770   5
   0   9   2 3016.79 384.870   5
   0   9   3 2738.05 378.936   5
   0   9   4 907.679 244.540   5
   0   9   5 80.0595 133.878   5
   0   9   6 579.012 243.400   5
   0   9   7 10762.8 861.929   5
   0   9   8 8478.34 789.422   5
   0   9   9 6412.63 704.985   5
   0  10   1 5783.67 528.308   5
   0  10   2 8973.29 691.907   5
   0  10   3-52.2138 111.934   5
   0  10   4 1193.25 275.627   5
   0  10   5 6775.36 666.846   5
   0  10   6 2643.29 435.022   5
   0  10   7 5230.42 627.634   5
   0  11   3 4646.93 556.809   5
   0  11   4 10365.8 833.688   5
   0  11   5 6172.29 667.476   5
   0  11   6 720.100 304.134   5
   1 -10  -1 6809.04 892.720   6
   1 -10   0 412.727 306.776   6
   1 -10   1 1175.36 368.426   6
   1 -10   2 875.722 394.797   6
   1 -10   3 2565.16 557.909   6
   1 -10   4 11303.6 1173.24   6
   1  -9  -1 2227.36 513.111   6
   1  -9   0 14426.8 1199.53   6
   1  -9   1 6374.98 812.724   6
   1  -9   2 4107.88 671.789   6
   1  -9   3 133.779 241.573   6
   1  -9   4-92.6523 209.487   6
   1  -9   5 2057.15 487.786   6
   1  -9   6 1293.80 406.476   6
   1  -8   0 295.195 193.579   6
   1  -8   1-23.0121 153.292   6
   1  -8   2 13758.5 1106.39   6
   1  -8   3 15149.7 1166.04   6
   1  -8   4 12066.3 1033.67   6
   1  -8   5 12147.0 1051.06   6
   1  -8   6 3633.44 590.451   6
   1  -8   7 246.141 209.397   6
   1  -8   8 446.853 243.941   6
   1  -7   1 22544.6 1268.41   6
   1  -7   2 31059.1 1515.09   6
   1  -7   3 4606.09 595.414   6
   1  -7   4 16345.4 1103.39   6
   1  -7   5 4034.81 562.810   6
   1  -7   6 1088.50 345.696   6
   1  -7   7 16585.4 1203.48   6
   1  -7   8 1522.12 418.322   6
   1  -7   9 691.410 292.114   6
   1  -6   1 11052.4 810.996   6
   1  -6   2 1641.31 328.301   6
   1  -6   3 957.955 255.938   6
   1  -6   4 1479.49 310.056   6
   1  -6   5 8341.46 743.606   6
   1  -6   6 3463.97 502.953   6
   1  -6   7 9700.86 860.742   6
   1  -6   8 1194.74 314.010   6
   1  -6   9-133.855 196.112   6
   1  -6  10-200.357 210.327   6
   1  -5   1 9516.30 682.005   6
   1  -5   2 14951.5 864.504   6
   1  -5   3 24231.7 1116.78   6
   1  -5   4 8438.31 673.574   6
   1  -5   5 143.270 139.997   6
   1  -5   6 10859.8 816.696   6
   1  -5   7 27790.6 1366.27   6
   1  -5   8 5536.92 640.380   6
   1  -5   9 24907.1 1407.46   6
   1  -5  10 16323.4 1185.67   6
   1  -5  11 6065.01 771.158   6
   1  -4 -13 438.419 248.671   1
   1  -4  -6 1353.51 138.136   2
   1  -4  -5 2134.18 140.210   2
   1  -4   1 14667.8 744.706   6
   1  -4   2 15201.9 771.799   6
   1  -4   3 8177.87 364.305   3
   1  -4   3 7609.83 559.542   6
   1  -4   4 16270.0 845.823   6
   1  -4   5 12617.7 786.558   6
   1  -4   6 22243.8 1103.81   6
   1  -4   7 45444.5 1666.46   6
   1  -4   8 16719.4 1040.87   6
   1  -4   9 4749.88 594.198   6
   1  -4  10 9099.59 857.649   6
   1  -4  11 874.749 296.243   6
   1  -4  12 216.251 155.328   6
   1  -3 -13 496.837 280.618   1
   1  -3 -12 9732.64 1029.86   1
   1  -3  -7 4379.06 186.811   4
   1  -3  -4 56353.1 786.643   2
   1  -3   0 18547.3 628.250   3
   1  -3   1 35276.3 805.526   3
   1  -3   1 35348.9 1023.93   6
   1  -3   2 59432.2 1006.01   3
   1  -3   2 57942.2 1386.93   6
   1  -3   3 80464.1 1137.50   3
   1  -3   3 77819.6 1705.92   6
   1  -3   4 5097.46 225.927   3
   1  -3   4 4997.90 430.537   6
   1  -3   5 39157.6 645.073   3
   1  -3   5 40627.8 1332.81   6
   1  -3   6 20705.5 409.937   3
   1  -3   6 21466.6 1015.56   6
   1  -3   7 34982.2 1379.13   6
   1  -3   8 235.611 126.212   6
   1  -3   9 10801.2 851.525   6
   1  -3  10 287.600 173.095   6
   1  -3  11 7438.12 805.593   6
   1  -3  12 1972.76 441.996   6
   1  -2 -13 2427.55 563.826   1
   1  -2 -12 8327.14 946.880   1
   1  -2 -11 6945.93 813.331   1
   1  -2 -10 4239.44 617.194   1
   1  -2  -8 85.9241 51.1476   4
   1  -2  -7 5661.36 252.173   4
   1  -2  -6 15582.1 376.680   4
   1  -2  -5 21597.3 396.389   4
   1  -2   0 688.366 107.328   5
   1  -2   0 836.990 123.590   3
   1  -2   1 21331.9 529.041   3
   1  -2   1 21559.9 663.492   6
   1  -2   1 20554.8 556.045   5
   1  -2   2 79123.0 1080.92   3
   1  -2   2 79324.0 1446.88   6
   1  -2   2 75734.4 1171.65   5
   1  -2   3 16817.2 666.547   6
   1  -2   4 22580.6 843.014   6
   1  -2   5 1486.44 238.567   6
   1  -2   6 7062.90 539.550   6
   1  -2   7 16311.0 880.854   6
   1  -2   8 2753.89 398.939   6
   1  -2   9 2917.62 440.460   6
   1  -2  10 5290.18 615.114   6
   1  -2  11 442.932 193.547   6
   1  -2  12 1856.06 423.878   6
   1  -1 -13 1371.72 419.583   1
   1  -1 -12 10955.5 1079.04   1
   1  -1 -11 4280.42 636.838   1
   1  -1 -10 1814.13 418.447   1
   1  -1  -9 822.168 143.633   4
   1  -1  -9 891.875 248.295   1
   1  -1  -8 3054.89 243.511   4
   1  -1  -8 2278.33 396.148   1
   1  -1  -7 5454.76 293.324   4
   1  -1  -6 10543.7 359.431   4
   1  -1  -5 83887.7 1070.60   4
   1  -1  -4 48278.1 637.407   4
   1  -1  -2 111230. 1572.97   3
   1  -1  -2 112208. 1487.56   5
   1  -1   1 170099. 1922.00   6
   1  -1   1 169673. 1833.60   5
   1  -1   2 13736.7 463.628   6
   1  -1   3 54869.1 1230.22   1
   1  -1   3 54503.4 1124.96   6
   1  -1   4 28828.3 870.952   6
   1  -1   5 93152.4 1853.28   6
   1  -1   6 48209.3 1389.11   6
   1  -1   7 52168.4 1554.91   6
   1  -1   8-5.12537 102.831   6
   1  -1   9-47.5306 126.360   6
   1  -1  10 109.703 137.062   6
   1   0 -13 11658.5 1189.32   1
   1   0 -12 12452.3 1182.27   1
   1   0 -11 3455.25 607.599   1
   1   0 -10 7583.58 806.089   1
   1   0 -10 8687.85 527.592   4
   1   0  -9 439.692 142.362   4
   1   0  -9 432.074 211.318   1
   1   0  -8 4220.27 539.035   1
   1   0  -7 17800.6 1023.65   1
   1   0  -6 95885.8 2302.74   1
   1   0  -2 10736.9 318.549   5
   1   0  -2 10899.5 342.360   3
   1   0  -2 11041.5 412.359   6
   1   0  -1 364.793 53.3361   5
   1   0  -1 343.054 61.4623   3
   1   0  -1 315.425 54.0742   6
   1   0   0 28653.3 406.561   4
   1   0   0 29119.6 448.599   2
   1   0   2 60788.9 949.951   1
   1   0   2 59413.6 884.601   6
   1   0   3 144497. 1890.72   6
   1   0   3 147286. 1949.21   1
   1   0   4 55916.5 1178.15   6
   1   0   4 57097.2 1243.08   1
   1   0   5 27298.4 886.565   6
   1   0   6 1745.82 254.103   6
   1   0   7 1371.35 258.565   6
   1   0   8 19508.9 962.862   6
   1   0  11 3653.21 389.617   5
   1   0  12 2846.03 370.707   5
   1   1 -13 1122.76 391.182   1
   1   1 -12 2262.50 545.423   1
   1   1 -11 896.655 345.513   1
   1   1 -10 1605.23 389.902   1
   1   1  -9 26826.2 1491.30   1
   1   1  -8 23144.2 1298.93   1
   1   1  -7 33109.6 1446.00   1
   1   1  -6 72902.4 2027.92   1
   1   1  -2 55039.0 705.318   3
   1   1  -1 129705. 1608.30   6
   1   1   0 50189.0 742.178   1
   1   1   0 50614.8 701.798   6
   1   1   2 270587. 2613.63   4
   1   1   3 44902.9 769.053   4
   1   1  10 205.503 139.512   5
   1   1  11 505.733 194.366   5
   1   1  12 1979.21 318.212   5
   1   1  13 3569.56 444.175   5
   1   2 -13 1493.75 483.127   1
   1   2 -12 2039.43 509.581   1
   1   2 -11 1283.02 408.683   1
   1   2 -10 536.783 284.119   1
   1   2  -9 520.166 256.244   1
   1   2  -8 652.963 263.508   1
   1   2  -7 2018.29 366.094   1
   1   2  -6 14820.6 933.029   1
   1   2  -1 44705.3 949.380   6
   1   2   0 75784.4 810.836   5
   1   2   1 107044. 1453.37   4
   1   2   1 109547. 1427.72   2
   1   2   2 8323.37 316.042   2
   1   2   2 8131.50 305.945   4
   1   2   3 8019.83 311.908   4
   1   2   4 17069.8 483.910   4
   1   2   9 20353.5 857.143   5
   1   2  10 4843.67 445.093   5
   1   2  11 21986.1 999.202   5
   1   2  12 10854.3 743.423   5
   1   2  13 1310.02 286.098   5
   1   2  14 225.392 151.731   5
   1   3 -12 9866.76 1153.88   1
   1   3 -11 3537.49 666.573   1
   1   3 -10 2002.65 497.577   1
   1   3  -9 9392.72 967.177   1
   1   3  -8 47539.2 2027.68   1
   1   3  -7 69967.4 2330.36   1
   1   3  -6 58684.7 1985.45   1
   1   3  -1 68871.0 804.877   5
   1   3   0 59881.2 819.262   5
   1   3   1 211579. 2251.34   5
   1   3   1 213905. 2676.08   4
   1   3   2 32095.9 708.201   5
   1   3   2 32455.2 795.492   4
   1   3   2 32709.8 726.934   2
   1   3   3 15371.5 519.152   5
   1   3   3 15314.2 489.937   4
   1   3   4 13054.3 515.884   5
   1   3   4 12106.6 427.517   4
   1   3   5 51571.8 1157.80   5
   1   3   6 52175.7 1240.07   5
   1   3   7 49534.8 1275.30   5
   1   3   8 27147.6 980.862   5
   1   3   9 34877.8 1180.06   5
   1   3  10 1773.32 293.659   5
   1   3  11 2085.67 334.591   5
   1   3  12 2305.29 361.275   5
   1   3  13 2227.12 372.745   5
   1   3  14 7783.84 720.278   5
   1   4  -2 64144.8 904.925   3
   1   4  -1 54817.5 840.431   5
   1   4   0 30205.0 636.763   5
   1   4   1 5081.09 273.005   5
   1   4   2 1339.55 154.986   5
   1   4   2 1321.09 163.907   2
   1   4   3 3537.97 274.630   5
   1   4   3 3453.90 246.550   2
   1   4   4 19883.6 700.053   5
   1   4   5 24297.8 826.342   5
   1   4   6 18758.6 764.163   5
   1   4   7 7626.04 508.846   5
   1   4   8 11941.2 672.553   5
   1   4   9 16809.7 849.333   5
   1   4  10 1173.75 248.996   5
   1   4  11 4000.48 451.291   5
   1   4  12 3791.05 471.304   5
   1   4  13 684.603 223.089   5
   1   4  14 785.491 272.987   5
   1   5  -2 4507.01 251.927   3
   1   5  -1 5734.60 331.403   3
   1   5  -1 6077.23 297.290   5
   1   5   0 8698.23 383.619   5
   1   5   1 30482.7 780.820   5
   1   5   2 4514.60 323.893   2
   1   5   2 4278.23 309.828   5
   1   5   3 544.500 121.872   5
   1   5   3 569.803 120.873   2
   1   5   4 2935.75 291.994   5
   1   5   5 2115.50 256.525   5
   1   5   6 15653.9 741.724   5
   1   5   7 19028.8 854.985   5
   1   5   8 6817.40 543.476   5
   1   5   9 15626.7 854.780   5
   1   5  10 699.187 218.397   5
   1   5  11 2257.96 362.899   5
   1   5  12 587.880 216.693   5
   1   5  13 355.517 215.865   5
   1   6  -3 41914.8 792.986   3
   1   6  -1 58538.3 1131.37   5
   1   6   0 50325.1 1091.36   5
   1   6   1 12151.5 531.441   5
   1   6   2 1022.96 175.496   2
   1   6   2 845.790 162.891   5
   1   6   3 7454.84 413.696   2
   1   6   3 7743.47 477.379   5
   1   6   4 33298.7 874.311   2
   1   6   4 35792.6 1093.18   5
   1   6   5 46483.6 1324.42   5
   1   6   6 52436.7 1480.58   5
   1   6   7 15486.1 821.180   5
   1   6   8 15098.8 842.529   5
   1   6   9 3165.24 414.465   5
   1   6  10 3810.39 474.323   5
   1   6  11 4007.54 508.469   5
   1   6  12 9143.75 781.886   5
   1   7  -1 287.910 100.322   5
   1   7   0 3899.92 320.021   5
   1   7   1 13783.9 620.612   5
   1   7   2 13678.5 643.999   5
   1   7   3 45112.8 1137.76   2
   1   7   3 46485.8 1285.89   5
   1   7   4 49926.9 1150.56   2
   1   7   4 53308.1 1442.77   5
   1   7   5 51883.1 1499.17   5
   1   7   6 8006.00 599.268   5
   1   7   7 5451.99 520.485   5
   1   7   8 243.643 133.653   5
   1   7   9 776.790 247.766   5
   1   7  10 9396.27 769.711   5
   1   7  11 10834.8 855.981   5
   1   7  12 2199.84 431.098   5
   1   8  -1 3590.47 314.171   5
   1   8   0 47.0744 78.6749   5
   1   8   1 2579.91 286.637   5
   1   8   2 2487.97 306.691   5
   1   8   3 4379.05 421.192   5
   1   8   4 773.707 200.254   5
   1   8   5-75.8676 120.221   5
   1   8   6 3683.82 434.979   5
   1   8   7 2531.84 378.958   5
   1   8   8 61.3179 118.332   5
   1   8   9 767.560 229.292   5
   1   8  10-134.982 170.556   5
   1   8  11 290.313 213.885   5
   1   9   0 3968.30 366.795   5
   1   9   1 253.052 121.472   5
   1   9   2 5019.11 453.958   5
   1   9   3 20629.7 957.484   5
   1   9   4 12622.2 780.744   5
   1   9   5 2680.87 375.556   5
   1   9   6 2635.53 395.738   5
   1   9   7 236.032 196.392   5
   1   9   8 1000.24 266.420   5
   1   9   9 444.086 216.185   5
   1   9  10 7283.42 754.588   5
   1  10   1 15413.2 807.928   5
   1  10   2 20501.7 969.236   5
   1  10   3 12450.1 779.255   5
   1  10   4 4387.09 479.716   5
   1  10   5 836.749 205.822   5
   1  10   6 2433.90 399.852   5
   1  10   7 3937.19 528.082   5
   1  10   8 5208.42 623.440   5
   1  11   3-114.714 140.648   5
   1  11   4 552.442 220.075   5
   1  11   5 483.606 211.411   5
   1  11   6 231.655 198.055   5
   1  11   7 183.886 146.763   5
   1  12   5 1748.82 353.938   5
   2 -10  -1 12748.8 1239.56   6
   2 -10   0 15562.8 1369.06   6
   2 -10   1 4741.55 783.073   6
   2 -10   2 1160.84 421.029   6
   2 -10   3 272.314 279.637   6
   2  -9   0 333.348 239.947   6
   2  -9   1 1003.35 374.948   6
   2  -9   2 323.257 301.642   6
   2  -9   3 1822.95 477.164   6
   2  -9   4 119.645 291.870   6
   2  -9   5 1475.71 457.146   6
   2  -9   6 4471.07 762.358   6
   2  -8   0 10416.1 972.456   6
   2  -8   1 16258.0 1201.10   6
   2  -8   2 250.885 236.459   6
   2  -8   3 261.445 222.945   6
   2  -8   4 6158.19 755.582   6
   2  -8   5 7949.31 881.823   6
   2  -8   6 17093.9 1292.75   6
   2  -8   7 7155.48 870.504   6
   2  -8   8 565.388 335.034   6
   2  -7   1 2686.70 490.242   6
   2  -7   2 19187.9 1232.51   6
   2  -7   3 9145.37 858.238   6
   2  -7   4 14823.4 1094.32   6
   2  -7   5 11850.2 991.228   6
   2  -7   6 13636.6 1081.12   6
   2  -7   7 11684.6 1013.34   6
   2  -7   8 132.982 161.383   6
   2  -7   9 474.089 248.221   6
   2  -6   1 21183.4 1165.37   6
   2  -6   2 248.875 201.863   6
   2  -6   3 268.862 112.638   6
   2  -6   4 2811.33 435.658   6
   2  -6   5 2694.89 444.429   6
   2  -6   6 6723.23 706.755   6
   2  -6   7 2108.96 410.296   6
   2  -6   8 1525.40 371.406   6
   2  -6   9 4117.63 592.533   6
   2  -6  10-74.3632 209.486   6
   2  -5   1 10468.6 744.091   6
   2  -5   2 40612.7 1489.28   6
   2  -5   3 17767.7 975.507   6
   2  -5   4 25674.4 801.834   3
   2  -5   4 27782.4 1243.37   6
   2  -5   5 22490.7 691.523   3
   2  -5   5 21040.4 1111.43   6
   2  -5   6 28688.4 1357.76   6
   2  -5   7 3741.67 511.466   6
   2  -5   8 1682.68 363.140   6
   2  -5   9-16.8559 134.945   6
   2  -5  10 9847.08 922.226   6
   2  -5  11 7278.91 828.352   6
   2  -4   2 38443.3 1002.95   3
   2  -4   2 40616.7 1326.11   6
   2  -4   3 38637.0 966.668   3
   2  -4   3 41033.9 1355.70   6
   2  -4   4 18419.8 628.202   3
   2  -4   4 21020.1 976.739   6
   2  -4   5 26775.5 711.430   3
   2  -4   5 26920.0 1158.56   6
   2  -4   6 114.305 64.9047   3
   2  -4   6 1.73393 102.874   6
   2  -4   7 4791.08 531.913   6
   2  -4   8 41461.4 1652.01   6
   2  -4   9 17964.0 1115.59   6
   2  -4  10 15195.5 1084.46   6
   2  -4  11 9731.35 918.255   6
   2  -4  12 6662.28 804.896   6
   2  -3 -12 705.839 362.723   1
   2  -3   0 20319.7 729.362   3
   2  -3   1 75704.8 1429.42   3
   2  -3   2 34949.6 895.039   3
   2  -3   2 35492.3 1098.25   6
   2  -3   3 3012.99 243.332   3
   2  -3   3 3197.46 336.209   6
   2  -3   4 3375.11 249.487   3
   2  -3   4 3520.80 360.113   6
   2  -3   5 12533.2 460.468   3
   2  -3   5 12605.1 721.552   6
   2  -3   6 12233.2 757.825   6
   2  -3   7 3749.60 435.279   6
   2  -3   8 2825.24 409.438   6
   2  -3   9 2116.29 371.670   6
   2  -3  10 1047.20 293.786   6
   2  -3  11 180.564 144.565   6
   2  -3  12 290.798 217.135   6
   2  -3  13 102.614 187.025   6
   2  -2 -12 277.647 289.725   1
   2  -2 -11 1660.45 420.047   1
   2  -2   0 27671.0 801.466   3
   2  -2   1 14020.7 526.027   3
   2  -2   2 136695. 1881.54   3
   2  -2   2 136747. 2065.08   6
   2  -2   3 43186.0 1094.64   6
   2  -2   4 38847.3 1113.64   6
   2  -2   5 31890.3 1079.46   6
   2  -2   6 2869.33 337.044   6
   2  -2   7 639.853 170.204   6
   2  -2   8 37129.8 1419.21   6
   2  -2   9 660.470 206.419   6
   2  -2  10 14450.0 985.181   6
   2  -2  11 7751.92 773.749   6
   2  -2  12 2530.15 475.355   6
   2  -1 -12 249.637 194.716   1
   2  -1 -11 1499.15 440.328   1
   2  -1 -10 4057.50 617.391   1
   2  -1  -9 6914.63 761.988   1
   2  -1  -7 15539.9 408.661   4
   2  -1  -6 12501.3 312.146   4
   2  -1  -5 4188.01 161.049   4
   2  -1  -5 4415.67 134.997   4
   2  -1  -3 5361.84 357.408   3
   2  -1  -2 15070.7 562.553   3
   2  -1  -1 3883.79 165.733   2
   2  -1   2 31802.8 737.618   6
   2  -1   3 1496.41 173.737   6
   2  -1   4 5657.24 370.359   6
   2  -1   5 4056.07 339.026   6
   2  -1   6 26158.8 974.709   6
   2  -1   7 51633.0 1513.17   6
   2  -1   8 24214.8 1108.69   6
   2  -1   9 1338.34 292.803   6
   2  -1  10 4756.80 557.222   6
   2  -1  11-94.9622 155.628   6
   2   0 -12 8032.25 974.259   1
   2   0 -11 28437.7 1739.95   1
   2   0 -10 34216.1 1785.58   1
   2   0  -9 28970.1 1547.58   1
   2   0  -8 10004.9 861.404   1
   2   0  -7 6168.18 634.177   1
   2   0  -4 69087.9 1321.99   3
   2   0  -3 142377. 1646.25   4
   2   0  -3 147143. 1976.93   3
   2   0  -2 103823. 1531.36   3
   2   0  -2 107413. 1616.61   6
   2   0  -2 105578. 1185.95   4
   2   0  -2 105736. 1459.52   5
   2   0  -1 419818. 4134.95   3
   2   0  -1 422901. 4013.83   6
   2   0  -1 419487. 3711.05   4
   2   0  -1 418764. 4039.76   5
   2   0   0 83239.2 1134.29   2
   2   0   0 84310.7 1046.40   4
   2   0   0 84175.5 1190.92   5
   2   0   1 21047.5 480.501   4
   2   0   2 8149.06 269.994   6
   2   0   3 856.560 132.388   1
   2   0   3 797.701 107.688   6
   2   0   4 39531.8 989.797   1
   2   0   4 41905.2 949.377   6
   2   0   5 17813.4 678.430   6
   2   0   6 12011.6 617.492   6
   2   0   7 10507.3 628.660   6
   2   0   8 4243.03 433.513   6
   2   1 -12 2533.47 575.218   1
   2   1 -11 9204.56 1009.07   1
   2   1 -10 10818.2 1041.27   1
   2   1  -9 546.566 244.423   1
   2   1  -8 569.736 225.312   1
   2   1  -7 1725.58 363.303   1
   2   1  -6 40631.7 1556.48   1
   2   1  -4 22221.4 622.926   3
   2   1  -3 49249.3 825.623   5
   2   1  -3 48182.2 896.052   3
   2   1  -2 78271.0 1146.92   3
   2   1  -2 76309.2 1227.94   4
   2   1  -2 79374.4 1401.47   6
   2   1  -2 76628.9 1039.51   5
   2   1  -1 8182.74 319.094   4
   2   1  -1 8801.37 356.565   6
   2   1  -1 8483.67 274.767   5
   2   1   0 174650. 1912.65   4
   2   1   0 173390. 1821.67   6
   2   1   0 170942. 2110.07   2
   2   1   0 173883. 1811.69   5
   2   1   3 3235.25 222.862   4
   2   1  13 5169.76 533.388   5
   2   1  14 4233.94 515.322   5
   2   2 -12 2540.01 584.033   1
   2   2 -11 3450.86 637.170   1
   2   2 -10 2689.44 537.815   1
   2   2  -9 9467.72 938.304   1
   2   2  -8 4520.67 606.165   1
   2   2  -7 5748.26 647.395   1
   2   2  -6-85.9091 104.306   1
   2   2  -4 21990.1 524.253   3
   2   2  -3 126.222 47.5545   3
   2   2  -2 265.952 36.6111   5
   2   2  -2 192.628 110.337   1
   2   2  -1 104812. 1727.77   1
   2   2  -1 103569. 1645.70   4
   2   2  -1 109789. 1659.66   6
   2   2  -1 105194. 1089.59   5
   2   2   0 43791.1 918.922   4
   2   2   0 42178.9 873.462   1
   2   2   0 42688.7 816.164   6
   2   2   2 11035.8 439.782   2
   2   2   3 29761.3 715.685   4
   2   2  12 19972.3 1010.29   5
   2   2  13 10458.0 775.446   5
   2   2  14 12013.2 867.652   5
   2   2  15 698.651 262.878   5
   2   3 -12 11279.5 1252.05   1
   2   3 -11 11949.7 1222.44   1
   2   3 -10 1888.83 474.682   1
   2   3  -9 421.066 251.614   1
   2   3  -8 2859.86 511.842   1
   2   3  -7 13107.9 1018.08   1
   2   3  -6 46534.2 1797.75   1
   2   3  -5 35553.3 1460.85   1
   2   3  -2 2959.03 336.944   1
   2   3   1 89486.6 1566.88   2
   2   3   2 95535.6 1565.41   2
   2   3   3 44497.7 1008.22   2
   2   3  10 21115.3 959.116   5
   2   3  11 19691.8 968.504   5
   2   3  12 7231.19 631.476   5
   2   3  13 930.855 247.710   5
   2   3  14 288.613 178.201   5
   2   4 -11 1737.79 483.618   1
   2   4 -10 8477.26 1007.36   1
   2   4  -9 3569.97 656.049   1
   2   4  -8 6407.92 775.860   1
   2   4  -7 26913.2 1511.27   1
   2   4  -6 40692.5 1763.76   1
   2   4  -5 18585.2 1108.72   1
   2   4  -4 8611.57 706.113   1
   2   4  -1 2972.37 117.479   5
   2   4   0 17228.1 394.460   5
   2   4   1 26802.1 597.161   5
   2   4   2 11366.8 425.863   5
   2   4   2 12364.6 553.036   2
   2   4   3 15586.4 606.438   2
   2   4   8 14544.9 732.825   5
   2   4   9 4755.81 441.798   5
   2   4  10 4138.53 446.217   5
   2   4  11 416.537 170.776   5
   2   4  12 57.5702 144.211   5
   2   4  13 1170.77 282.176   5
   2   4  14 2316.15 420.019   5
   2   5  -1 18679.8 422.168   5
   2   5   0 327.634 64.2877   5
   2   5   1 27049.3 660.690   5
   2   5   2 1400.13 164.843   5
   2   5   2 1393.52 200.305   2
   2   5   3 25973.3 767.979   5
   2   5   3 23853.7 805.706   2
   2   5   4 28404.3 863.678   5
   2   5   4 27274.9 852.405   2
   2   5   5 11122.0 566.974   5
   2   5   6 2324.54 279.567   5
   2   5   7 4550.28 406.923   5
   2   5   8 43.2615 108.945   5
   2   5   9 5678.57 508.253   5
   2   5  10 5802.94 541.908   5
   2   5  11 9596.98 717.793   5
   2   5  12 2292.17 397.558   5
   2   5  13 118.743 150.254   5
   2   6  -3 6810.65 268.351   3
   2   6  -1 69104.5 1074.79   5
   2   6   0 121642. 1676.66   5
   2   6   1 77014.8 1336.51   5
   2   6   2 47864.0 1077.25   5
   2   6   3 35182.4 1042.50   2
   2   6   3 34384.2 958.959   5
   2   6   4 6921.30 446.692   5
   2   6   4 6130.20 424.048   2
   2   6   5 8713.70 533.212   5
   2   6   6 52957.4 1436.47   5
   2   6   7 5534.59 473.218   5
   2   6   8 38473.9 1331.41   5
   2   6   9 38351.4 1387.50   5
   2   6  10 12522.8 816.861   5
   2   6  11 2299.38 381.401   5
   2   6  12 198.758 207.604   5
   2   6  13 239.936 201.801   5
   2   7  -1 34023.6 792.081   5
   2   7   0 29824.5 810.990   5
   2   7   1 27614.2 814.961   5
   2   7   2 13493.0 592.847   5
   2   7   3 1793.71 233.637   5
   2   7   4 2336.24 292.303   5
   2   7   5 17108.1 799.093   5
   2   7   6 14063.4 762.955   5
   2   7   7 3146.27 379.413   5
   2   7   8 10342.6 715.654   5
   2   7   9 1512.32 293.935   5
   2   7  10 700.124 217.366   5
   2   7  11 576.082 210.302   5
   2   7  12 54.8749 145.260   5
   2   8  -1 3464.63 268.262   5
   2   8   0 906.184 155.185   5
   2   8   1 4470.57 349.397   5
   2   8   2 1735.79 237.500   5
   2   8   2 1920.53 284.350   2
   2   8   3 4933.39 428.421   2
   2   8   3 4623.45 391.035   5
   2   8   4 1020.88 207.181   5
   2   8   5-63.0188 96.7966   5
   2   8   6 2189.68 336.177   5
   2   8   7 592.874 200.947   5
   2   8   8 869.938 232.768   5
   2   8   9 92.0122 151.065   5
   2   8  10 1676.38 351.423   5
   2   8  11 266.943 215.643   5
   2   9   1 2799.10 299.908   5
   2   9   2-52.9106 97.1006   5
   2   9   2 170.706 119.440   2
   2   9   3 4583.26 433.336   2
   2   9   3 4622.60 429.320   5
   2   9   4 8039.03 578.871   5
   2   9   5 19861.3 968.518   5
   2   9   6 27421.3 1195.65   5
   2   9   7 11178.9 803.500   5
   2   9   8 6074.33 608.992   5
   2   9   9 2857.08 471.048   5
   2   9  10 1129.08 331.526   5
   2  10   2 3212.94 354.483   5
   2  10   3 14770.9 808.747   5
   2  10   4 5553.26 521.461   5
   2  10   5 9269.67 693.549   5
   2  10   6 6311.19 601.738   5
   2  10   7-105.793 170.588   5
   2  10   8 276.048 179.929   5
   2  10   9-73.9635 175.311   5
   2  11   4 517.685 181.902   5
   2  11   5-97.3739 141.460   5
   2  11   6 110.658 125.443   5
   2  11   7 619.509 263.971   5
   2  11   8 1418.76 341.082   5
   2  12   6 1060.96 271.705   5
   3 -10   0 2720.14 584.765   6
   3 -10   1 1504.96 479.250   6
   3  -9  -1 2184.37 529.758   6
   3  -9   0 331.299 266.525   6
   3  -9   1 1045.73 397.710   6
   3  -9   2 146.117 223.091   6
   3  -9   3 577.146 377.523   6
   3  -9   4 4227.10 728.759   6
   3  -9   5-89.8772 193.958   6
   3  -8   0 24122.4 1505.08   6
   3  -8   1 18134.4 1318.27   6
   3  -8   2 17548.2 1304.06   6
   3  -8   3 6104.53 774.770   6
   3  -8   4 586.285 299.770   6
   3  -8   5-111.604 201.896   6
   3  -8   6 1101.24 355.988   6
   3  -8   7 12894.4 1183.81   6
   3  -8   8 29248.1 1806.82   6
   3  -7   1 15420.0 1122.89   6
   3  -7   2 3161.80 531.859   6
   3  -7   3 116.634 142.184   6
   3  -7   4 3193.74 534.177   6
   3  -7   5 2290.27 456.484   6
   3  -7   6 11679.9 1016.33   6
   3  -7   7 5183.05 679.955   6
   3  -7   8 6682.20 816.876   6
   3  -7   9-61.4597 219.595   6
   3  -6   1 15929.0 1045.50   6
   3  -6   2 1777.17 369.045   6
   3  -6   3 324.260 173.387   6
   3  -6   4 6721.64 691.409   6
   3  -6   5 2187.57 407.510   6
   3  -6   6 459.764 209.528   6
   3  -6   7 4396.01 584.657   6
   3  -6   8 13.1068 200.892   6
   3  -6   9 392.847 204.787   6
   3  -6  10 1567.20 391.246   6
   3  -5  -1 10513.7 702.386   3
   3  -5   0 46575.8 1444.28   3
   3  -5   1 16477.6 808.270   3
   3  -5   2 633.704 168.193   3
   3  -5   2 523.665 180.826   6
   3  -5   3 952.994 182.760   3
   3  -5   3 1244.20 278.277   6
   3  -5   4 8017.12 500.197   3
   3  -5   4 8523.47 708.623   6
   3  -5   5 26403.3 1264.78   6
   3  -5   6 56169.7 1933.85   6
   3  -5   7 31102.2 1461.84   6
   3  -5   8 16458.4 1084.54   6
   3  -5   9 6395.34 708.579   6
   3  -5  10 449.295 210.933   6
   3  -5  11 1669.68 417.328   6
   3  -4  -2 47949.5 1475.58   3
   3  -4  -1 55621.4 1537.36   3
   3  -4   0 30640.6 1071.86   3
   3  -4   1 310.785 98.7824   3
   3  -4   2 3746.99 418.811   6
   3  -4   3 47345.4 1519.98   6
   3  -4   4 55328.0 1660.12   6
   3  -4   5 28149.5 1193.54   6
   3  -4   6 26146.6 810.079   3
   3  -4   6 27968.3 1240.45   6
   3  -4   7 11698.5 826.384   6
   3  -4   8 12802.5 894.567   6
   3  -4   9 19.2156 132.872   6
   3  -4  10 2067.18 407.580   6
   3  -4  11 3552.96 575.720   6
   3  -4  12 6538.85 788.235   6
   3  -3  -3 7695.16 561.301   3
   3  -3  -1 8413.18 530.400   3
   3  -3   2 21084.4 871.528   6
   3  -3   3 1572.52 258.178   6
   3  -3   4 13444.2 592.422   3
   3  -3   4 13723.2 723.997   6
   3  -3   5 1018.53 169.479   3
   3  -3   5 802.460 179.050   6
   3  -3   6 15.8697 118.462   6
   3  -3   7 2114.25 329.276   6
   3  -3   8 2924.13 415.177   6
   3  -3   9 1174.95 285.599   6
   3  -3  10 1151.98 322.520   6
   3  -3  11 313.469 221.636   6
   3  -3  12 302.597 185.915   6
   3  -3  13 3032.13 539.899   6
   3  -2 -12-101.140 338.409   1
   3  -2 -11 1761.66 469.878   1
   3  -2  -4 5849.38 471.963   3
   3  -2  -3 203.389 43.5939   2
   3  -2  -3 498.889 139.008   3
   3  -2   1 4024.68 337.682   3
   3  -2   2 15174.5 620.144   3
   3  -2   2 14891.0 620.826   6
   3  -2   3 30216.8 926.808   6
   3  -2   4 2251.48 260.885   6
   3  -2   5 16971.7 772.347   6
   3  -2   6 24443.0 991.242   6
   3  -2   7 3681.32 403.034   6
   3  -2   8 9530.77 703.859   6
   3  -2   9 4968.75 546.612   6
   3  -2  10 5712.78 626.863   6
   3  -2  11 16548.7 1106.73   6
   3  -2  12 9151.28 857.733   6
   3  -1 -12 4585.63 780.861   1
   3  -1 -11 4100.62 672.118   1
   3  -1 -10 3509.55 621.847   1
   3  -1  -4 67775.3 1552.21   3
   3  -1  -3 80574.5 1630.13   3
   3  -1  -2 24409.0 821.639   3
   3  -1  -2 24271.9 582.427   2
   3  -1  -1 1077.28 117.002   2
   3  -1   2 48286.1 951.424   6
   3  -1   3 38663.6 898.885   6
   3  -1   4 99096.7 1697.64   6
   3  -1   5 16671.8 691.078   6
   3  -1   6 30857.2 1040.30   6
   3  -1   7 1547.80 246.867   6
   3  -1   8 5639.90 519.622   6
   3  -1   9 8144.66 659.505   6
   3  -1  10 42479.7 1645.31   6
   3  -1  11 20024.7 1170.33   6
   3   0 -12 294.346 290.035   1
   3   0 -11 72.5466 179.541   1
   3   0 -10 3952.19 649.694   1
   3   0  -9 13894.0 1119.43   1
   3   0  -8 22607.6 1348.58   1
   3   0  -6 35392.6 799.985   4
   3   0  -5 2547.97 186.298   4
   3   0  -5 2983.47 304.203   3
   3   0  -4 5404.96 384.561   3
   3   0  -4 5455.98 242.334   4
   3   0  -3 8336.93 450.343   3
   3   0  -3 8520.29 285.453   4
   3   0  -2 61512.4 1262.86   3
   3   0  -2 60027.6 884.634   4
   3   0  -1 31579.0 859.395   3
   3   0  -1 31908.1 745.994   6
   3   0  -1 32865.7 632.355   4
   3   0  -1 31856.9 764.395   2
   3   0   0 8929.61 377.659   2
   3   0   0 9369.53 340.584   4
   3   0   1 37572.5 777.711   4
   3   0   2 1210.63 100.924   6
   3   0   3 5952.81 271.931   6
   3   0   4 2676.98 215.520   6
   3   0   4 2508.82 243.453   1
   3   0   5 28653.0 836.750   6
   3   0   6 40912.3 1129.42   6
   3   0   7 28234.8 1015.67   6
   3   0   8 3764.13 408.424   6
   3   0   9 8027.05 648.615   6
   3   1 -12 793.457 359.675   1
   3   1 -11 3684.71 657.555   1
   3   1 -10 13444.0 1196.06   1
   3   1  -9 16166.8 1224.25   1
   3   1  -8 6824.96 739.221   1
   3   1  -7 7399.59 735.238   1
   3   1  -6 73.2237 152.945   1
   3   1  -5 5763.00 383.436   3
   3   1  -5 5394.45 554.858   1
   3   1  -4 16882.0 593.428   4
   3   1  -4 16056.6 604.344   3
   3   1  -3 172.925 79.9694   3
   3   1  -3 105.096 67.8760   4
   3   1  -2 26120.5 736.328   3
   3   1  -2 26299.2 671.690   4
   3   1  -2 27664.9 680.788   5
   3   1  -1 25689.9 678.579   6
   3   1  -1 25009.0 617.232   4
   3   1  -1 25694.1 641.596   5
   3   1   0 8119.69 296.446   6
   3   1   0 8268.44 345.516   4
   3   1   0 7892.70 335.201   5
   3   1   0 7766.27 391.051   2
   3   1   1 5952.90 339.390   2
   3   1   1 7007.81 327.630   4
   3   1   3 24982.4 523.324   1
   3   1   4 6725.78 307.084   1
   3   2 -11 46.0300 206.011   1
   3   2 -10 3569.29 644.607   1
   3   2  -9 1961.33 479.771   1
   3   2  -8 619.403 213.255   1
   3   2  -7 16785.0 1146.42   1
   3   2  -6 6899.76 682.702   1
   3   2  -5 735.350 132.836   3
   3   2  -5 1156.30 270.742   1
   3   2  -4 612.613 188.104   1
   3   2  -4 850.084 131.483   3
   3   2  -3 15205.7 425.727   5
   3   2  -3 14824.8 506.581   3
   3   2  -3 14368.2 774.657   1
   3   2  -2 35.4248 104.928   1
   3   2  -2 110.523 46.5134   5
   3   2  -1 113496. 1748.78   6
   3   2  -1 108915. 1873.83   1
   3   2  -1 107129. 1380.01   5
   3   2   0 54887.5 994.378   6
   3   2   0 54176.3 1226.57   2
   3   2   0 55213.5 1094.67   1
   3   2   1 30158.4 630.470   1
   3   2  14 2257.49 371.042   5
   3   3 -11 7194.30 991.882   1
   3   3 -10 19201.1 1480.57   1
   3   3  -9 24117.3 1575.59   1
   3   3  -8 17931.7 1289.32   1
   3   3  -7 14448.6 1088.70   1
   3   3  -6 2525.91 431.416   1
   3   3  -5 18318.8 1074.01   1
   3   3  -4 20390.7 1050.43   1
   3   3  -4 19503.7 540.636   3
   3   3  -3 6671.82 555.340   1
   3   3  -2 113940. 2248.41   1
   3   3  -2 114032. 1197.37   5
   3   3  -1 40153.2 1140.46   1
   3   3  -1 39533.1 612.580   5
   3   3   0 647.822 137.223   1
   3   3   0 633.841 126.763   6
   3   3   2 11810.5 561.798   2
   3   3   3 20595.9 744.652   2
   3   3  13 12866.3 881.399   5
   3   3  14 2028.64 385.353   5
   3   4 -11 6733.41 955.406   1
   3   4 -10 12096.5 1211.67   1
   3   4  -9 4826.82 737.583   1
   3   4  -8 1720.41 451.024   1
   3   4  -7 8871.02 879.556   1
   3   4  -6 5793.72 662.458   1
   3   4  -5 17521.8 1094.53   1
   3   4  -4 35936.8 666.025   3
   3   4  -4 39140.6 1531.30   1
   3   4  -3 43093.2 1514.12   1
   3   4  -2 40173.4 1359.01   1
   3   4   1 25604.6 931.626   2
   3   4   2 54595.0 1341.44   2
   3   4   3 95691.3 1821.70   2
   3   4  12 938.440 257.060   5
   3   4  13 251.345 167.071   5
   3   4  14 3246.81 488.806   5
   3   5  -9 1856.79 494.169   1
   3   5  -8-96.4769 192.577   1
   3   5  -7 33.1921 155.351   1
   3   5  -6 8170.04 838.772   1
   3   5  -4 6522.11 214.846   3
   3   5  -1 10471.1 224.003   5
   3   5   0 20066.9 451.726   5
   3   5   1 534.229 98.8266   5
   3   5   9 145.532 145.036   5
   3   5  10 882.901 236.615   5
   3   5  11 5080.11 527.243   5
   3   5  12 9163.38 746.031   5
   3   5  13 6214.23 654.631   5
   3   6  -1 8385.50 247.814   5
   3   6   0 6455.27 280.064   5
   3   6   1 10082.7 405.031   5
   3   6   2 44690.4 990.634   5
   3   6   3 32055.3 891.967   5
   3   6   4 24318.2 826.870   5
   3   6   5 43928.1 1199.98   5
   3   6   6 30.5955 88.2896   5
   3   6   7 275.612 120.599   5
   3   6   8 182.402 146.613   5
   3   6   9 8924.84 648.757   5
   3   6  10 13129.7 825.083   5
   3   6  11 7979.76 678.897   5
   3   6  12 4369.26 535.850   5
   3   6  13 4210.75 554.612   5
   3   7  -1 23422.3 512.233   5
   3   7   0 59364.8 1054.17   5
   3   7   1 12589.0 498.168   5
   3   7   2 45797.9 1429.51   2
   3   7   2 46690.2 1078.68   5
   3   7   3 46782.7 1157.63   5
   3   7   3 47258.6 1404.82   2
   3   7   4 25556.6 898.438   5
   3   7   4 24571.4 975.393   2
   3   7   5 25.6372 86.7334   5
   3   7   5 52.4399 116.649   2
   3   7   6 400.816 142.627   5
   3   7   7 1369.92 248.241   5
   3   7   8 16500.0 882.204   5
   3   7   9 4982.33 512.771   5
   3   7  10 8405.15 687.472   5
   3   7  11 71.1011 130.086   5
   3   7  12 379.279 240.371   5
   3   8   0 412.761 93.5157   5
   3   8   1 42.7714 57.8881   5
   3   8   2 905.776 156.678   5
   3   8   2 1045.01 249.529   2
   3   8   3 719.779 157.239   5
   3   8   3 483.537 161.988   2
   3   8   4 9719.05 630.848   2
   3   8   4 9957.46 584.472   5
   3   8   5 7565.35 545.512   2
   3   8   5 7903.76 550.141   5
   3   8   6 705.825 192.672   5
   3   8   7 77.8610 94.4618   5
   3   8   8 2469.67 345.741   5
   3   8   9 9085.59 727.938   5
   3   8  10 8477.79 722.834   5
   3   8  11 3217.62 486.629   5
   3   9   1 7901.51 461.142   5
   3   9   2 32075.4 1294.29   2
   3   9   2 29609.9 968.846   5
   3   9   3 4567.02 467.843   2
   3   9   3 5027.38 409.255   5
   3   9   4 140.335 101.913   5
   3   9   4 149.363 112.139   2
   3   9   5 2514.60 329.228   5
   3   9   5 1928.51 290.625   2
   3   9   6 7495.33 601.088   5
   3   9   7 11735.5 788.414   5
   3   9   8 6397.64 619.825   5
   3   9   9 11574.2 852.820   5
   3   9  10 6861.48 682.293   5
   3   9  11 59.9535 155.326   5
   3  10   2 4620.56 516.884   2
   3  10   3-53.2020 114.948   5
   3  10   3 40.9037 89.4880   2
   3  10   4 1662.34 277.901   5
   3  10   5 7589.88 598.283   5
   3  10   6 18196.6 989.137   5
   3  10   7 9659.34 761.020   5
   3  10   8 6924.67 659.511   5
   3  10   9 4865.84 589.647   5
   3  10  10 1205.38 333.923   5
   3  11   1-93.5685 178.267   2
   3  11   4 842.291 207.943   5
   3  11   5 432.980 167.999   5
   3  11   6 492.391 175.798   5
   3  11   7 1259.64 309.943   5
   3  11   8 20.6114 188.940   5
   3  12   6 5406.94 607.528   5
   3  12   7 3224.10 477.981   5
   4  -9  -1 1858.22 508.198   6
   4  -9   0 954.433 380.732   6
   4  -9   1 59.4971 209.005   6
   4  -9   2 85.3622 191.711   6
   4  -9   3 1860.59 507.419   6
   4  -9   4 3528.00 640.955   6
   4  -8   0 882.267 281.834   6
   4  -8   1 1231.73 397.546   6
   4  -8   2 6088.48 795.920   6
   4  -8   3 26774.2 1674.76   6
   4  -8   4 6965.22 885.721   6
   4  -8   5 3118.50 601.803   6
   4  -8   6 2112.17 494.222   6
   4  -8   7 659.901 340.176   6
   4  -7   1 15053.9 1140.09   6
   4  -7   2 10323.7 958.198   6
   4  -7   3 10872.1 1007.24   6
   4  -7   4 3764.43 593.777   6
   4  -7   5 583.442 216.626   6
   4  -7   6 32.5745 214.186   6
   4  -7   7 508.700 284.418   6
   4  -7   8 7223.27 841.447   6
   4  -7   9 3430.08 594.838   6
   4  -6   0 1714.06 324.802   3
   4  -6   1 448.366 166.913   3
   4  -6   1 246.673 219.136   6
   4  -6   2 4120.99 456.688   3
   4  -6   2 3481.38 512.592   6
   4  -6   3 7609.00 598.210   3
   4  -6   3 6764.74 729.798   6
   4  -6   4 1430.01 252.624   3
   4  -6   4 1538.86 368.104   6
   4  -6   5 7073.37 740.828   6
   4  -6   6 3801.99 547.551   6
   4  -6   7 364.904 228.776   6
   4  -6   8 41.0033 169.395   6
   4  -6   9 1365.77 357.315   6
   4  -6  10 2437.66 522.319   6
   4  -5  -2 1408.97 293.091   3
   4  -5  -1 1490.29 297.633   3
   4  -5   0 51678.6 1652.19   3
   4  -5   1 65164.0 1817.70   3
   4  -5   2 25969.4 1079.82   3
   4  -5   2 26484.0 1272.59   6
   4  -5   3 28544.5 1095.80   3
   4  -5   3 30221.5 1370.19   6
   4  -5   4 2596.83 328.716   3
   4  -5   4 2721.72 432.342   6
   4  -5   5 2461.37 297.683   3
   4  -5   5 2359.09 397.304   6
   4  -5   6 46.9435 124.123   6
   4  -5   7 7567.72 721.969   6
   4  -5   8 11173.9 906.967   6
   4  -5   9 14249.1 1052.01   6
   4  -5  10 9364.79 881.944   6
   4  -5  11 4035.86 606.576   6
   4  -4  -3 22993.0 1120.81   3
   4  -4  -2 27741.9 1189.72   3
   4  -4  -1 31533.7 1228.72   3
   4  -4   0 92981.9 2116.90   3
   4  -4   1 15060.0 791.995   3
   4  -4   2 8386.74 566.508   3
   4  -4   2 8421.78 653.812   6
   4  -4   3 9928.86 603.213   3
   4  -4   3 9389.51 690.101   6
   4  -4   4 929.773 203.826   3
   4  -4   4 925.765 236.529   6
   4  -4   5 13590.0 683.590   3
   4  -4   5 14524.7 859.234   6
   4  -4   6 22941.8 872.625   3
   4  -4   6 24349.2 1171.54   6
   4  -4   7 20511.6 1106.45   6
   4  -4   8 23530.5 1235.36   6
   4  -4   9 6661.10 675.369   6
   4  -4  10 268.524 175.034   6
   4  -4  11 1417.58 358.913   6
   4  -4  12 1321.07 328.584   6
   4  -3  -4 2302.05 359.588   3
   4  -3  -3 10143.6 688.405   3
   4  -3  -2 12937.4 747.474   3
   4  -3  -1 8595.55 598.138   3
   4  -3   0 963.414 189.617   3
   4  -3   1 6241.05 483.504   3
   4  -3   2 266.164 103.283   3
   4  -3   2 276.938 133.832   6
   4  -3   3 195.438 94.6024   3
   4  -3   3 129.477 96.5447   6
   4  -3   4 396.599 128.758   3
   4  -3   4 572.770 165.390   6
   4  -3   5 6155.79 439.021   3
   4  -3   5 6940.30 547.553   6
   4  -3   6 381.214 152.067   6
   4  -3   7 2214.66 337.990   6
   4  -3   8 81.1105 119.430   6
   4  -3   9 678.760 219.112   6
   4  -3  10 933.672 257.828   6
   4  -3  11-23.4978 128.107   6
   4  -3  12 285.267 154.494   6
   4  -2 -11 14.0571 258.070   1
   4  -2  -5 4300.66 458.298   3
   4  -2  -5 4302.93 284.783   2
   4  -2  -4 337.681 81.4193   2
   4  -2  -4 180.586 149.171   3
   4  -2  -3 2467.09 171.621   2
   4  -2  -3 2865.53 339.016   3
   4  -2  -2 26808.2 1028.91   3
   4  -2   0 64585.2 1560.29   3
   4  -2   1 26036.5 934.525   3
   4  -2   2 14939.4 664.946   6
   4  -2   3 2499.31 266.865   6
   4  -2   4 2066.06 252.507   6
   4  -2   5 17554.1 780.748   6
   4  -2   6 14712.4 766.019   6
   4  -2   7 40799.2 1358.47   6
   4  -2   8 15223.5 869.444   6
   4  -2   9 5769.17 578.913   6
   4  -2  10 1569.32 321.221   6
   4  -2  11 931.151 288.030   6
   4  -2  12 6585.07 719.117   6
   4  -1 -11 11105.1 1188.43   1
   4  -1 -10 4981.25 761.772   1
   4  -1  -5 18475.8 886.589   3
   4  -1  -4 15193.2 763.348   3
   4  -1  -3 55111.4 1445.19   3
   4  -1  -3 52844.4 1089.39   2
   4  -1  -2 36053.6 1122.28   3
   4  -1  -2 33699.0 789.950   2
   4  -1   2 31951.4 794.823   6
   4  -1   3 16641.5 575.635   6
   4  -1   4 73852.6 1415.57   6
   4  -1   5 81331.1 1605.06   6
   4  -1   6 53137.3 1361.01   6
   4  -1   7 9657.41 604.999   6
   4  -1   8 36.5640 94.2771   6
   4  -1   9 390.038 174.689   6
   4  -1  10 10873.6 782.398   6
   4  -1  11 7058.83 689.380   6
   4   0 -11 8805.60 1072.99   1
   4   0 -10 3331.20 646.116   1
   4   0  -9 1079.94 364.189   1
   4   0  -8 5068.42 678.961   1
   4   0  -5 11320.6 649.868   3
   4   0  -5 11234.7 344.255   4
   4   0  -4 17718.3 772.955   3
   4   0  -4 18149.3 449.769   4
   4   0  -3 25732.3 907.681   3
   4   0  -3 26440.9 572.264   4
   4   0  -2 14694.3 666.545   3
   4   0  -2 14780.5 441.924   4
   4   0  -2 14812.9 589.721   2
   4   0  -1 6061.39 417.471   3
   4   0  -1 5697.28 287.023   4
   4   0  -1 5369.09 333.702   2
   4   0   0 1152.60 161.271   2
   4   0   2 6385.31 243.335   6
   4   0   3 395.716 75.5632   6
   4   0   4 595.445 107.070   6
   4   0   5 2811.30 243.275   6
   4   0   6 240.227 109.650   6
   4   0   7 10494.0 590.572   6
   4   0   8 7558.44 541.670   6
   4   0   9 492.775 189.227   6
   4   1 -11-398.495 332.631   1
   4   1 -10 736.633 342.157   1
   4   1  -9 545.451 280.447   1
   4   1  -8 6002.04 749.239   1
   4   1  -7 5217.64 642.812   1
   4   1  -6 55.4080 135.014   1
   4   1  -5 162.176 85.0969   3
   4   1  -4 1266.39 193.316   3
   4   1  -3 5178.28 382.338   3
   4   1  -2 26016.5 842.103   3
   4   1  -1 40914.2 951.862   6
   4   1  -1 41350.7 1071.27   2
   4   1   0 20997.1 549.088   6
   4   1   0 19775.6 705.778   2
   4   1   1 16006.6 622.446   2
   4   1   1 16247.5 345.347   6
   4   1   4 40711.4 836.789   1
   4   1   5 42130.7 928.582   1
   4   1   6 47916.5 1122.13   1
   4   2 -11 5249.19 858.411   1
   4   2 -10 2969.62 620.133   1
   4   2  -9-67.8387 215.440   1
   4   2  -8 54.9947 149.676   1
   4   2  -7 2544.91 473.898   1
   4   2  -6 16162.9 1084.13   1
   4   2  -5 12290.0 571.110   3
   4   2  -5 12130.2 866.963   1
   4   2  -4 15441.3 625.024   3
   4   2  -4 15750.2 927.542   1
   4   2  -3 4390.64 329.981   3
   4   2  -3 4272.14 454.852   1
   4   2  -2 33302.1 1159.64   1
   4   2   0 6446.98 324.690   6
   4   2   0 6344.92 429.324   2
   4   2   1 40682.6 675.463   6
   4   2   1 42140.5 1109.17   2
   4   2   2 93175.3 1750.66   2
   4   3 -10 9761.90 1093.23   1
   4   3  -9 11512.5 1111.52   1
   4   3  -8 23599.8 1525.83   1
   4   3  -7 20242.8 1329.20   1
   4   3  -6 18295.1 1193.94   1
   4   3  -5 15090.6 1013.45   1
   4   3  -5 14721.4 579.697   3
   4   3  -4 94.2680 37.4877   5
   4   3  -4 135.073 70.0717   3
   4   3  -4-53.9936 169.084   1
   4   3  -3 247.875 58.7435   5
   4   3  -3 362.024 172.908   1
   4   3  -2 67487.2 1746.61   1
   4   3  -2 68110.3 1066.29   5
   4   3  -1 130180. 2335.42   1
   4   3  -1 133344. 1685.37   5
   4   3   0 35213.2 992.257   1
   4   3   0 34212.4 887.821   6
   4   3   1 41852.2 940.981   1
   4   4 -10 1613.29 460.639   1
   4   4  -9 2376.78 542.882   1
   4   4  -8 13377.0 1190.12   1
   4   4  -7 1876.64 437.933   1
   4   4  -6 265.252 170.640   1
   4   4  -5 8498.07 790.308   1
   4   4  -5 7368.27 366.358   3
   4   4  -4 9275.46 420.005   3
   4   4  -4 11708.5 867.766   1
   4   4  -3 6868.03 609.477   1
   4   4  -2 40538.1 1395.03   1
   4   4  -2 41459.7 621.165   5
   4   4  -1 605.272 82.8214   5
   4   4  -1 588.177 174.679   1
   4   4   0 825.742 166.915   1
   4   4  14 495.645 204.227   5
   4   5 -10 293.604 293.668   1
   4   5  -9 617.920 352.128   1
   4   5  -8 2053.55 487.023   1
   4   5  -7 8804.08 940.200   1
   4   5  -6 10138.7 960.249   1
   4   5  -5 5431.11 673.724   1
   4   5  -4 2182.98 180.153   3
   4   5  -4 2337.61 417.237   1
   4   5  -3 171.315 130.574   1
   4   5  -1 2478.06 133.827   5
   4   5   1 21854.8 963.649   2
   4   5   4 5523.07 457.042   2
   4   5  12 99.4217 158.744   5
   4   5  13 4929.57 575.242   5
   4   6  -1 54221.4 631.552   5
   4   6   0 27870.2 576.269   5
   4   6   1 7764.38 601.944   2
   4   6   2 24685.6 1053.58   2
   4   6   3 2386.93 319.604   2
   4   6   4 17649.0 855.198   2
   4   6   5 57471.6 1586.10   2
   4   6  10 117.481 116.562   5
   4   6  11 5902.38 589.310   5
   4   6  12 1266.94 310.940   5
   4   6  13 3685.68 519.146   5
   4   7   0 142.164 48.8902   5
   4   7   1 2114.49 192.952   5
   4   7   2 10512.8 472.275   5
   4   7   2 10176.3 696.008   2
   4   7   3 10504.3 519.829   5
   4   7   3 10517.0 696.290   2
   4   7   4 16660.5 867.723   2
   4   7   4 17597.8 724.020   5
   4   7   5-34.2091 76.1909   5
   4   7   5 71.7832 156.804   2
   4   7   6 2527.18 312.078   5
   4   7   7 229.405 133.970   5
   4   7   8 8808.15 634.984   5
   4   7   9 4278.07 478.162   5
   4   7  10 1395.64 315.220   5
   4   7  11 1454.27 319.857   5
   4   7  12 1062.78 286.924   5
   4   8   1 2614.59 229.073   5
   4   8   2 268.962 85.0696   5
   4   8   2 281.234 170.783   2
   4   8   3 4962.45 373.898   5
   4   8   3 4054.91 457.084   2
   4   8   4 2138.29 269.601   5
   4   8   4 2101.87 340.084   2
   4   8   5 10345.5 622.199   5
   4   8   5 9444.19 670.671   2
   4   8   6 1186.34 255.622   5
   4   8   7 5336.66 500.737   5
   4   8   8 2715.83 380.966   5
   4   8   9 594.123 202.886   5
   4   8  10 879.205 254.185   5
   4   8  11 5000.97 568.329   5
   4   8  12 2227.67 410.215   5
   4   9   1 9018.60 753.320   2
   4   9   2 11487.6 815.313   2
   4   9   2 10488.6 523.357   5
   4   9   3 23927.7 1152.61   2
   4   9   3 23855.9 869.683   5
   4   9   4 29481.0 1037.06   5
   4   9   4 27909.8 1210.97   2
   4   9   5 17691.2 939.144   2
   4   9   5 17938.6 857.954   5
   4   9   6 3510.42 407.972   5
   4   9   7 430.149 163.375   5
   4   9   8 116.549 126.534   5
   4   9   9 3360.20 459.092   5
   4   9  10 12685.9 903.933   5
   4   9  11 12835.2 955.710   5
   4  10   1 12444.1 928.663   2
   4  10   2 11341.5 845.177   2
   4  10   3 5089.17 552.376   2
   4  10   3 4713.25 407.034   5
   4  10   4 3277.23 362.828   5
   4  10   4 3411.80 436.525   2
   4  10   5 69.0783 127.379   5
   4  10   5 51.0561 120.707   2
   4  10   6 1190.54 251.887   5
   4  10   7 7255.27 634.990   5
   4  10   8 3781.22 491.338   5
   4  10   9 10885.9 844.890   5
   4  10  10 1780.92 353.127   5
   4  11   1 401.170 223.843   2
   4  11   2 256.508 156.169   2
   4  11   3 1702.97 341.650   2
   4  11   5 2969.82 376.164   5
   4  11   6 308.392 161.130   5
   4  11   7 1612.92 332.515   5
   4  11   8 1320.06 323.058   5
   4  11   9 1085.63 321.178   5
   4  12   0 2281.99 456.670   2
   4  12   7 5743.85 605.576   5
   4  12   8 4172.67 547.714   5
   5  -9   0 2980.35 617.311   6
   5  -9   1 2941.15 622.338   6
   5  -9   2 2751.18 571.690   6
   5  -8   0 6052.95 833.983   6
   5  -8   1 1059.39 367.075   6
   5  -8   2-129.332 235.634   6
   5  -8   3 750.704 319.588   6
   5  -8   4 2954.62 583.844   6
   5  -7   1 151.808 186.159   6
   5  -7   2 5991.23 748.438   6
   5  -7   3 5374.06 710.964   6
   5  -7   4 3941.09 618.777   6
   5  -7   5 5953.67 748.231   6
   5  -7   6 478.916 230.076   6
   5  -6   0 8369.28 738.796   3
   5  -6   1 2510.96 408.314   3
   5  -6   1 2008.73 395.515   6
   5  -6   2 2054.05 364.158   3
   5  -6   2 1623.40 363.900   6
   5  -6   3 1.17797 146.065   3
   5  -6   3-220.147 206.017   6
   5  -6   4-42.3404 94.9423   3
   5  -6   4 115.037 169.521   6
   5  -6   5 908.960 299.323   6
   5  -6   6 5064.27 648.019   6
   5  -6   7 9920.82 926.528   6
   5  -5  -2 3170.10 464.875   3
   5  -5  -1 7111.44 673.233   3
   5  -5   0 1016.66 259.360   3
   5  -5   1 12399.1 825.998   3
   5  -5   2 6429.66 578.438   3
   5  -5   2 6516.91 656.416   6
   5  -5   3 17722.8 942.580   3
   5  -5   3 17949.6 1085.05   6
   5  -5   4 24824.3 1086.78   3
   5  -5   4 24838.5 1282.35   6
   5  -5   5 28041.2 1127.07   3
   5  -5   5 28461.7 1368.93   6
   5  -5   6 7573.69 711.134   6
   5  -5   7 3188.63 484.515   6
   5  -5   8 32.8492 124.002   6
   5  -4  -4 29050.7 1388.56   3
   5  -4  -3 9793.48 789.063   3
   5  -4  -2 9145.85 727.474   3
   5  -4  -1 1544.86 304.157   3
   5  -4   0 7575.68 628.618   3
   5  -4   1 13256.4 807.644   3
   5  -4   2 31415.7 1224.47   3
   5  -4   2 28462.4 1234.67   6
   5  -4   3 26674.0 1104.84   3
   5  -4   3 24636.1 1150.25   6
   5  -4   4 14356.0 788.445   3
   5  -4   4 13764.4 859.713   6
   5  -4   5 2368.70 315.974   3
   5  -4   5 2246.02 359.342   6
   5  -4   6 539.548 185.589   3
   5  -4   6 910.600 253.347   6
   5  -4   7 349.653 186.828   6
   5  -4   8 625.888 193.353   6
   5  -4   9 6831.06 687.028   6
   5  -3  -4 166.040 135.002   3
   5  -3  -3 3948.26 464.370   3
   5  -3  -2 945.449 223.259   3
   5  -3  -1 29838.3 1224.15   3
   5  -3   0 7314.69 580.324   3
   5  -3   1-135.195 135.201   3
   5  -3   2 2047.83 295.157   3
   5  -3   2 1526.27 277.066   6
   5  -3   3 596.890 150.712   3
   5  -3   3 617.254 173.686   6
   5  -3   4 235.107 128.783   3
   5  -3   4 330.618 125.499   6
   5  -3   5 3601.95 372.003   3
   5  -3   5 3292.50 382.403   6
   5  -3   6 2011.11 285.415   3
   5  -3   6 2224.81 335.579   6
   5  -3   7 2912.09 333.221   3
   5  -3   7 3048.38 396.960   6
   5  -3   8 306.337 157.794   6
   5  -3   9 888.500 236.707   6
   5  -3  10 428.634 183.946   6
   5  -2  -5 14521.0 900.684   3
   5  -2  -4 2210.83 361.635   3
   5  -2  -3 137.322 117.928   3
   5  -2  -2 6.55758 115.886   3
   5  -2  -1 3970.43 414.522   3
   5  -2   0 19523.6 910.447   3
   5  -2   1 57620.6 1573.30   3
   5  -2   2 32080.0 1134.23   3
   5  -2   2 30283.3 1000.49   6
   5  -2   3 11324.2 654.949   3
   5  -2   3 10616.1 571.845   6
   5  -2   4 3384.88 326.556   6
   5  -2   5 102.173 61.4404   6
   5  -2   6 9482.28 604.064   6
   5  -2   7 21765.8 965.224   6
   5  -2   8 34499.1 1300.19   6
   5  -2   9 31720.5 1330.72   6
   5  -2  10 10209.4 787.576   6
   5  -1 -10 1889.42 551.024   1
   5  -1  -6 21152.0 1067.35   3
   5  -1  -5 9718.77 694.560   3
   5  -1  -5 9078.92 531.876   2
   5  -1  -4 18995.8 931.626   3
   5  -1  -4 18897.3 710.323   2
   5  -1  -3 1319.55 179.830   2
   5  -1  -3 1337.40 247.427   3
   5  -1  -2 13143.1 536.587   2
   5  -1  -2 14629.5 772.900   3
   5  -1  -1 49184.4 1422.87   3
   5  -1   0 37757.1 1216.20   3
   5  -1   1 58682.4 1524.35   3
   5  -1   2 10630.5 473.402   6
   5  -1   3 10047.0 458.117   6
   5  -1   4 74.9106 50.9288   6
   5  -1   5 6264.30 406.467   6
   5  -1   6 21171.5 818.461   6
   5  -1   7 18840.9 832.934   6
   5  -1   8 11460.8 688.472   6
   5  -1   9 35813.8 1332.77   6
   5  -1  10 4193.70 496.158   6
   5  -1  11 213.437 147.579   6
   5   0 -10 1653.10 465.515   1
   5   0  -9 12660.6 1193.80   1
   5   0  -8 9391.67 977.364   1
   5   0  -6 1.26817 97.8621   3
   5   0  -5 268.189 105.952   3
   5   0  -4 200.839 116.950   3
   5   0  -3 31432.7 1112.08   3
   5   0  -3 28862.7 662.086   4
   5   0  -3 29801.6 965.229   2
   5   0  -2 9876.48 600.222   3
   5   0  -2 8387.97 476.248   2
   5   0  -1 2880.60 274.438   2
   5   0  -1 3219.47 346.029   3
   5   0   0 540.138 98.3027   6
   5   0   0 642.495 129.949   2
   5   0   2 645.549 83.9660   6
   5   0   3 1341.76 116.713   6
   5   0   4 12532.7 413.448   6
   5   0   5 34081.2 823.398   6
   5   0   6 21438.9 726.855   6
   5   0   7 72.0062 61.1491   6
   5   0   8 1382.72 232.660   6
   5   1 -10 1069.72 427.562   1
   5   1  -9 22.3230 207.539   1
   5   1  -8 626.495 299.884   1
   5   1  -7 7230.58 808.456   1
   5   1  -6 3264.78 369.690   3
   5   1  -6 3512.80 535.338   1
   5   1  -5 2463.35 314.682   3
   5   1  -4 35.0003 69.2113   3
   5   1  -3 14577.5 712.548   3
   5   1  -2 10443.3 590.024   3
   5   1  -2 10511.0 600.061   2
   5   1  -1 17158.7 727.670   2
   5   1   0 21234.5 793.353   2
   5   1   0 20440.7 598.181   6
   5   1   1 54958.1 1311.00   2
   5   1   1 52215.7 812.759   6
   5   1   5 10916.3 470.745   1
   5   1   6 63663.5 1305.50   1
   5   2 -10 8132.37 1020.61   1
   5   2  -9 4697.74 720.309   1
   5   2  -8 4404.74 676.786   1
   5   2  -7 591.094 280.882   1
   5   2  -6 1044.39 309.160   1
   5   2  -6 1001.37 195.466   3
   5   2  -5 10749.8 607.656   3
   5   2  -5 9846.56 836.981   1
   5   2  -4 28297.6 978.951   3
   5   2  -4 28547.6 1333.97   1
   5   2  -3 75431.6 1627.75   3
   5   2  -3 78860.0 2110.26   1
   5   2  -1 57633.8 1490.20   2
   5   2   0 23157.1 674.101   6
   5   2   0 23743.8 903.623   2
   5   2   1 7440.05 493.118   2
   5   2   1 6408.98 252.839   6
   5   2   2 361.075 127.473   2
   5   3 -10 4645.17 757.897   1
   5   3  -9 1986.73 462.919   1
   5   3  -8 455.994 242.142   1
   5   3  -7 14017.0 1152.99   1
   5   3  -6 12765.7 1027.40   1
   5   3  -6 14053.5 673.243   3
   5   3  -5 19703.7 780.933   3
   5   3  -5 19602.2 1192.90   1
   5   3  -4 338.141 171.486   1
   5   3  -4 60.6982 69.1734   3
   5   3  -3 35829.2 1033.15   3
   5   3  -3 34862.7 1386.13   1
   5   3  -2 14907.5 827.818   1
   5   3  -1 7040.36 522.522   1
   5   3   0 1061.35 196.382   1
   5   3   0 949.559 197.949   2
   5   3   0 857.288 151.373   6
   5   3   1 13909.8 722.758   2
   5   3   1 13712.6 567.478   1
   5   3   2 3159.56 219.626   1
   5   4  -9 2144.08 570.414   1
   5   4  -8 9089.44 988.644   1
   5   4  -7 9452.49 978.173   1
   5   4  -6 3132.08 534.161   1
   5   4  -5 838.677 273.461   1
   5   4  -5 707.307 145.034   3
   5   4  -4 121.337 153.342   1
   5   4  -4 40.9290 73.4537   3
   5   4  -3 585.195 203.627   1
   5   4  -3 362.721 68.1519   5
   5   4  -2 15967.9 891.228   1
   5   4  -2 15880.1 492.517   5
   5   4  -1 17784.3 874.253   1
   5   4  -1 16441.0 527.599   5
   5   4   0 17220.0 775.567   1
   5   4   0 17583.7 893.769   2
   5   4   1 25901.3 851.420   1
   5   4   4 28522.9 1079.31   2
   5   5  -9 321.299 233.617   1
   5   5  -8 1931.28 496.682   1
   5   5  -7 11579.0 1104.61   1
   5   5  -6 6144.36 755.515   1
   5   5  -5 20604.2 1313.33   1
   5   5  -4 19401.6 675.558   3
   5   5  -4 19709.2 1193.84   1
   5   5  -3 99177.9 2599.80   1
   5   5  -2 5611.19 562.602   1
   5   5  -2 5685.03 212.365   5
   5   5  -1 101.380 45.5518   5
   5   5  -1-5.34568 86.3365   1
   5   5   1 9599.28 664.831   2
   5   5   2 29874.5 1174.44   2
   5   5   3 97028.4 2186.23   2
   5   5   4 43614.9 1410.04   2
   5   6  -8 17139.9 1495.03   1
   5   6  -7 17540.9 1399.37   1
   5   6  -6 11773.5 1097.45   1
   5   6  -5 15084.9 1169.67   1
   5   6   1 18325.9 983.625   2
   5   6   2 7887.68 631.677   2
   5   6   3 5070.02 493.021   2
   5   6   4 894.463 228.343   2
   5   6   5 42.0742 141.817   2
   5   6  13 1021.98 294.674   5
   5   7   0 1374.95 121.215   5
   5   7   1 2307.17 199.805   5
   5   7   1 2764.24 397.277   2
   5   7   2 371.845 167.507   2
   5   7   3 385.484 165.095   2
   5   7   4 2846.17 391.293   2
   5   7   5 574.728 193.093   2
   5   7  11 1329.78 294.794   5
   5   7  12 1551.32 322.020   5
   5   8   1 2692.91 421.741   2
   5   8   1 2482.56 212.689   5
   5   8   2 7946.06 427.126   5
   5   8   2 8825.50 725.692   2
   5   8   3 19783.9 738.733   5
   5   8   3 18861.0 1039.37   2
   5   8   4 8346.14 683.713   2
   5   8   4 9176.39 542.712   5
   5   8   5 8109.81 540.589   5
   5   8   5 6953.49 616.673   2
   5   8   6 10514.1 653.399   5
   5   8   7 5218.08 489.997   5
   5   8   8 29656.7 1219.09   5
   5   8   9 24350.7 1150.33   5
   5   8  10 16139.7 979.031   5
   5   8  11 637.827 269.796   5
   5   8  12 516.186 270.930   5
   5   9   1 6366.45 648.521   2
   5   9   2 98.2118 161.401   2
   5   9   3 940.329 177.191   5
   5   9   3 504.366 225.515   2
   5   9   4 24910.1 929.054   5
   5   9   4 23764.0 1190.96   2
   5   9   5 11260.0 666.610   5
   5   9   5 10863.9 783.954   2
   5   9   6 21418.1 971.370   5
   5   9   7 19162.1 969.172   5
   5   9   8 2919.45 408.135   5
   5   9   9 4177.12 504.117   5
   5   9  10 19.8221 138.810   5
   5   9  11-5.59600 139.687   5
   5  10   1 1109.62 291.233   2
   5  10   2 10522.7 859.857   2
   5  10   3 8738.54 763.602   2
   5  10   4 8131.97 554.825   5
   5  10   4 8097.21 716.378   2
   5  10   5 3328.71 387.622   5
   5  10   5 2594.81 420.260   2
   5  10   6 6131.60 540.426   5
   5  10   6 6057.91 611.163   2
   5  10   7 3739.15 448.662   5
   5  10   8 1083.97 267.906   5
   5  10   9 1119.49 291.105   5
   5  10  10 629.719 261.306   5
   5  11   0-41.8654 229.081   2
   5  11   1 3684.77 539.371   2
   5  11   2 211.364 164.925   2
   5  11   3-45.5255 133.393   2
   5  11   4 277.207 164.008   2
   5  11   5 4547.20 546.075   2
   5  11   6 9434.80 703.729   5
   5  11   7 218.929 138.296   5
   5  11   8 2692.07 409.926   5
   5  11   9 1111.40 300.629   5
   5  12   0 39.1184 240.107   2
   5  12   1 606.127 280.647   2
   5  12   2 8409.82 820.345   2
   5  12   8-241.556 214.343   5
   6  -7   0 980.165 355.096   6
   6  -7   1 2678.77 527.725   6
   6  -7   3 356.475 215.968   3
   6  -6  -1 381.745 296.267   3
   6  -6   0 4177.88 558.790   3
   6  -6   1 6692.75 704.647   3
   6  -6   1 5425.36 683.152   6
   6  -6   2 12195.5 913.582   3
   6  -6   2 12314.9 1006.08   6
   6  -6   3 3136.41 450.472   3
   6  -6   4 790.751 251.783   3
   6  -5  -3 6319.02 700.124   3
   6  -5  -2 9072.09 830.982   3
   6  -5  -1 18632.7 1157.02   3
   6  -5   0 21521.3 1209.53   3
   6  -5   1 15527.3 998.374   3
   6  -5   1 13537.9 957.684   6
   6  -5   2 2458.90 386.871   3
   6  -5   2 3087.38 465.269   6
   6  -5   3-22.6948 115.040   3
   6  -5   3 54.7618 139.369   6
   6  -5   4 943.920 234.051   3
   6  -5   4 1110.11 289.071   6
   6  -5   5 1758.81 305.990   3
   6  -4  -4 15169.4 1065.99   3
   6  -4  -3 30229.4 1477.89   3
   6  -4  -2 15670.9 1035.77   3
   6  -4  -1 23706.1 1230.55   3
   6  -4   0 1001.04 258.661   3
   6  -4   1 289.207 179.850   3
   6  -4   2 1382.19 297.246   3
   6  -4   2 1646.67 309.669   6
   6  -4   3 1336.89 283.748   3
   6  -4   3 1126.61 273.053   6
   6  -4   4 12936.1 829.508   3
   6  -4   4 13108.9 857.712   6
   6  -4   5 18945.1 980.531   3
   6  -4   5 17399.0 991.358   6
   6  -4   6 4032.15 437.351   3
   6  -3  -5 1633.84 365.100   3
   6  -3  -4 1125.40 283.161   3
   6  -3  -3-66.9733 160.093   3
   6  -3  -2 3999.18 489.598   3
   6  -3  -1 1097.57 249.503   3
   6  -3   0 4848.77 516.044   3
   6  -3   1 241.113 111.721   3
   6  -3   2 70.7524 96.8740   3
   6  -3   2 353.491 161.211   6
   6  -3   3 524.319 168.108   3
   6  -3   3 749.571 183.616   6
   6  -3   4 401.072 167.784   3
   6  -3   4 703.171 175.628   6
   6  -3   5 4491.62 461.546   3
   6  -3   5 4779.59 462.094   6
   6  -3   6 13799.7 801.795   3
   6  -3   7 6951.12 563.313   3
   6  -2  -5 1715.62 350.076   3
   6  -2  -4 25817.5 1249.01   3
   6  -2  -3 18505.5 1026.55   3
   6  -2  -2 9245.68 703.963   3
   6  -2  -1 12074.3 787.275   3
   6  -2   0 1051.91 241.180   3
   6  -2   1 12.0496 91.5545   3
   6  -2   2 6713.24 567.600   3
   6  -2   2 6656.42 470.466   6
   6  -2   3 10345.4 690.875   3
   6  -2   3 10234.2 573.183   6
   6  -2   4 40912.6 1170.48   6
   6  -2   5 13555.9 685.617   6
   6  -2   6 6034.81 474.458   6
   6  -1  -6 28715.9 1341.36   3
   6  -1  -5 14435.0 910.724   3
   6  -1  -4 18156.2 980.380   3
   6  -1  -3 20557.2 754.360   2
   6  -1  -3 22519.7 1074.19   3
   6  -1  -2 106.111 106.295   3
   6  -1  -1 3046.97 379.214   3
   6  -1   0 16955.7 887.991   3
   6  -1   1 26830.4 1104.62   3
   6  -1   2 37492.9 962.924   6
   6  -1   3 40501.8 970.368   6
   6  -1   4 48650.9 1083.12   6
   6  -1   5 12736.4 561.047   6
   6  -1   6 1935.54 236.600   6
   6  -1   7 6555.11 471.796   6
   6   0  -9 2890.30 612.740   1
   6   0  -8 3527.84 638.486   1
   6   0  -6 1543.09 303.683   3
   6   0  -5 1731.61 264.833   2
   6   0  -5 2642.87 372.499   3
   6   0  -4 356.756 147.716   2
   6   0  -4 167.263 102.116   3
   6   0  -3 4313.36 460.215   3
   6   0  -3 3872.40 368.783   2
   6   0  -2 176.634 82.1231   2
   6   0  -2-53.3627 123.230   3
   6   0  -1 2385.83 329.856   3
   6   0  -1 2277.51 264.205   2
   6   0   0 20422.2 934.934   3
   6   0   1 2625.69 201.331   6
   6   0   2 433.005 76.3941   6
   6   0   3 562.368 71.5069   6
   6   0   4 4605.30 210.481   6
   6   0   5 380.586 74.2943   6
   6   0   6 26491.2 736.293   6
   6   0   7 133.924 68.4433   6
   6   1  -9-514.481 291.513   1
   6   1  -8 3923.24 656.198   1
   6   1  -7 5636.27 759.771   1
   6   1  -6 13650.1 830.553   3
   6   1  -5 1743.65 289.886   3
   6   1  -4 27110.5 1106.35   3
   6   1  -4 27302.1 1118.99   2
   6   1  -3 6810.97 535.761   3
   6   1  -3 6425.31 515.498   2
   6   1  -2 4401.19 430.703   3
   6   1  -2 4556.65 421.414   2
   6   1  -1 555.390 164.085   2
   6   1  -1 506.775 154.813   3
   6   1   0 28444.6 987.846   2
   6   1   0 24317.5 717.290   6
   6   1   1 44636.4 1255.75   2
   6   1   1 38151.2 750.773   6
   6   2  -9 7727.70 1025.82   1
   6   2  -8 14841.2 1270.55   1
   6   2  -7 19304.9 1379.12   1
   6   2  -6 5702.67 503.741   3
   6   2  -6 5643.44 713.625   1
   6   2  -5 2701.03 337.344   3
   6   2  -5 3051.51 513.128   1
   6   2  -4 678.699 171.725   3
   6   2  -4 1389.96 323.443   1
   6   2  -3 1153.25 253.418   2
   6   2  -3 1604.11 242.323   3
   6   2  -2 41461.8 1278.05   3
   6   2  -2 41474.1 1368.44   2
   6   2  -1 46663.6 1415.79   2
   6   2   0 82270.0 1459.26   6
   6   2   0 84178.4 1889.58   2
   6   2   1 36951.8 1190.38   2
   6   2   1 32160.8 643.059   6
   6   2   2 45677.0 1344.72   2
   6   2   5 7886.75 290.388   1
   6   3  -9 9346.49 1084.52   1
   6   3  -8 10400.5 1088.78   1
   6   3  -7 5600.76 765.720   1
   6   3  -6 1377.65 377.763   1
   6   3  -6 2045.43 294.505   3
   6   3  -5 344.338 213.508   1
   6   3  -5 152.872 123.579   3
   6   3  -4 9558.98 587.291   3
   6   3  -4 9783.28 833.443   1
   6   3  -3 8526.10 554.541   3
   6   3  -3 8248.55 705.428   1
   6   3  -2 47240.4 1583.62   2
   6   3  -2 51165.9 1665.17   1
   6   3  -1 44537.9 1435.43   1
   6   3  -1 43878.3 1446.46   2
   6   3   0 29379.2 1059.55   1
   6   3   0 28646.4 1136.39   2
   6   3   1 10433.3 554.497   1
   6   3   1 11121.3 684.538   2
   6   3   2 2385.73 330.770   2
   6   3   2 2265.15 215.334   1
   6   3   3 315.021 72.6133   1
   6   3   3 487.496 176.545   2
   6   4  -9 183.424 259.651   1
   6   4  -8 1689.54 467.054   1
   6   4  -7 1883.71 458.913   1
   6   4  -6 8781.68 903.319   1
   6   4  -5 3577.16 353.850   3
   6   4  -5 3199.93 521.172   1
   6   4  -4 5822.63 442.796   3
   6   4  -4 4712.42 601.386   1
   6   4  -3 2194.08 387.413   1
   6   4  -2 50398.5 1708.06   1
   6   4  -1 7667.50 614.232   1
   6   4  -1 7557.41 629.609   2
   6   4   0 16199.1 803.200   1
   6   4   0 16615.1 911.221   2
   6   4   1 6530.04 452.590   1
   6   4   1 7494.06 587.516   2
   6   4   2 14432.3 567.806   1
   6   4   2 16417.2 867.242   2
   6   4   3 6043.12 525.032   2
   6   4   4-35.4900 85.2305   2
   6   5  -8 11583.7 1182.45   1
   6   5  -7 2350.61 528.123   1
   6   5  -6-203.420 214.589   1
   6   5  -5 4452.21 624.231   1
   6   5  -4 498.131 140.669   3
   6   5  -4 894.102 300.502   1
   6   5  -3 7451.19 714.446   1
   6   5  -2 62460.0 1989.30   1
   6   5  -1 10683.7 744.159   1
   6   5   0 9832.84 655.182   1
   6   5   0 9844.11 729.147   2
   6   5   1 1263.13 271.928   2
   6   5   2 755.374 218.908   2
   6   5   3 13633.2 831.126   2
   6   5   4 18683.6 965.088   2
   6   6  -8-6.36337 276.481   1
   6   6  -7 636.466 294.743   1
   6   6  -6 10216.7 1030.22   1
   6   6  -5 12550.6 1099.02   1
   6   6  -4 33809.0 1709.19   1
   6   6  -3 19640.9 1223.45   1
   6   6  -2 17579.9 1086.21   1
   6   6   0 450.168 176.353   2
   6   6   1 689.581 216.155   2
   6   6   2 6987.43 624.494   2
   6   6   3 13536.2 860.519   2
   6   6   4 14152.7 867.621   2
   6   6   5 9168.41 704.200   2
   6   7   0 806.376 247.393   2
   6   7   1 3632.86 483.268   2
   6   7   2 3804.51 485.265   2
   6   7   3 518.359 183.978   2
   6   7   4 9427.47 741.176   2
   6   7   5 33000.9 1388.45   2
   6   8   0 2076.68 386.579   2
   6   8   1 7186.32 717.047   2
   6   8   2 22371.0 724.627   5
   6   8   2 21203.9 1184.56   2
   6   8   3 22177.8 1185.21   2
   6   8   4 29210.7 1360.93   2
   6   8   5 3079.28 441.788   2
   6   8  11 16426.2 1028.75   5
   6   9   0 22928.9 1347.39   2
   6   9   1 21923.7 1271.64   2
   6   9   2 16335.3 1073.33   2
   6   9   3 16828.0 697.481   5
   6   9   3 16286.2 1052.13   2
   6   9   4 2747.28 306.285   5
   6   9   4 2700.07 423.504   2
   6   9   5 132.643 127.344   5
   6   9   5 214.792 170.294   2
   6   9   6 5348.39 491.796   5
   6   9   6 6499.16 655.345   2
   6   9   7 11634.9 745.726   5
   6   9   8 13412.0 841.892   5
   6   9   9 9689.34 747.942   5
   6   9  10 5544.15 598.434   5
   6   9  11 4357.52 554.263   5
   6  10   0 5569.67 680.207   2
   6  10   1 2010.97 414.875   2
   6  10   2 1352.66 323.730   2
   6  10   3 765.273 236.665   2
   6  10   4 6708.82 695.242   2
   6  10   5 1310.09 234.108   5
   6  10   5 1216.64 310.483   2
   6  10   6 652.528 193.177   5
   6  10   6 1133.84 323.387   2
   6  10   7 313.596 166.294   5
   6  10   8 6995.71 630.964   5
   6  10   9-25.5543 153.498   5
   6  10  10 25.3536 150.646   5
   6  11   0 1718.41 394.707   2
   6  11   1 3414.22 550.611   2
   6  11   2 3396.67 519.478   2
   6  11   3 2959.57 476.639   2
   6  11   4 1470.22 329.120   2
   6  11   5 347.221 185.539   2
   6  11   6 456.363 240.812   2
   6  11   7 3607.53 451.002   5
   6  11   8 2120.87 355.874   5
   6  11   9 5810.99 622.547   5
   6  12   0 11579.9 1050.63   2
   6  12   1 5015.68 693.047   2
   6  12   2 90.1070 189.677   2
   6  12   3-104.005 173.681   2
   6  12   4 166.737 174.685   2
   7  -6  -1 1223.17 359.470   3
   7  -6   0 1690.66 418.078   3
   7  -6   1-99.2327 164.610   3
   7  -6   2 2439.30 422.867   3
   7  -6   3 5793.12 646.010   3
   7  -6   4 4478.38 561.302   3
   7  -5  -3 2291.88 480.857   3
   7  -5  -2 883.202 292.334   3
   7  -5  -1 3307.86 551.328   3
   7  -5   0 5967.30 693.416   3
   7  -5   1 8149.43 775.376   3
   7  -5   2 9375.23 811.610   3
   7  -5   3 6947.36 694.954   3
   7  -5   4 16861.7 1043.23   3
   7  -5   5 143.707 145.843   3
   7  -4  -4-403.379 272.491   3
   7  -4  -3 966.079 320.019   3
   7  -4  -2 1048.11 297.511   3
   7  -4  -1 5526.60 638.204   3
   7  -4   0 3825.68 520.846   3
   7  -4   1 663.631 253.830   3
   7  -4   2 375.471 171.551   3
   7  -4   3 1345.98 290.442   3
   7  -4   4 77.0663 122.923   3
   7  -4   5 3092.99 430.920   3
   7  -4   6 3733.53 450.123   3
   7  -3  -5 1237.34 338.041   3
   7  -3  -4 9457.52 865.267   3
   7  -3  -3 792.627 262.051   3
   7  -3  -2 4420.54 563.049   3
   7  -3  -1 83.7006 125.121   3
   7  -3   0 2065.42 368.432   3
   7  -3   1 2019.63 367.278   3
   7  -3   2 6878.91 647.219   3
   7  -3   3 8214.27 685.275   3
   7  -3   4 5012.49 529.911   3
   7  -3   5 1063.96 253.813   3
   7  -3   6 545.401 207.049   3
   7  -3   7 472.381 171.253   3
   7  -2  -5 1457.20 333.739   3
   7  -2  -4 611.241 221.240   3
   7  -2  -3 4604.11 535.625   3
   7  -2  -2 14374.9 951.082   3
   7  -2  -1 39045.1 1555.45   3
   7  -2   0 15686.4 963.734   3
   7  -2   1 9030.95 717.857   3
   7  -2   2 3671.06 453.537   3
   7  -2   3 226.216 157.888   3
   7  -2   4 299.957 167.264   3
   7  -2   5 40551.0 1497.76   3
   7  -1  -6 409.312 175.908   3
   7  -1  -5 4670.72 556.812   3
   7  -1  -4 7495.14 690.999   3
   7  -1  -3 4081.15 493.155   3
   7  -1  -2 54108.5 1803.85   3
   7  -1  -1 14169.5 893.437   3
   7  -1   0 2576.46 372.589   3
   7  -1   1 2165.90 335.985   3
   7  -1   2 4949.55 509.321   3
   7   0  -8-68.0918 262.107   1
   7   0  -6 868.849 259.255   3
   7   0  -5 3263.06 440.486   3
   7   0  -4 12295.9 836.732   3
   7   0  -3 1304.75 238.243   2
   7   0  -3 1455.52 295.431   3
   7   0  -2 246.155 150.313   3
   7   0  -2 633.532 162.293   2
   7   0  -1 2736.60 372.386   3
   7   0   0 6848.76 592.519   3
   7   1  -8 1399.82 383.063   1
   7   1  -7 1317.18 317.189   3
   7   1  -7 818.846 319.131   1
   7   1  -6 3715.85 472.265   3
   7   1  -5 3543.27 434.163   2
   7   1  -5 3776.19 462.397   3
   7   1  -4 5112.39 523.818   3
   7   1  -4 5765.98 525.756   2
   7   1  -3 26560.5 1165.50   3
   7   1  -3 25767.3 1082.14   2
   7   1  -2 18649.2 961.504   3
   7   1  -2 21214.1 947.350   2
   7   1  -1 4362.82 415.138   2
   7   1  -1 4621.54 476.023   3
   7   1   0 2877.80 338.425   2
   7   2  -8 520.154 232.406   1
   7   2  -7 11507.0 1110.56   1
   7   2  -6 22682.1 1100.77   3
   7   2  -6 20093.7 1409.89   1
   7   2  -5 42615.4 1490.43   3
   7   2  -5 43857.2 1665.17   2
   7   2  -5 41809.9 1933.43   1
   7   2  -4 47781.4 1549.67   3
   7   2  -4 42975.0 1844.75   1
   7   2  -4 45391.7 1618.25   2
   7   2  -3 13267.7 789.013   3
   7   2  -3 13822.1 848.724   2
   7   2  -2 29288.0 1166.80   3
   7   2  -2 28209.9 1182.15   2
   7   2  -1 1678.58 273.746   2
   7   2   0 10994.1 700.441   2
   7   2   1 25146.8 1057.66   2
   7   3  -8 7737.93 992.617   1
   7   3  -7 4793.24 732.669   1
   7   3  -6 10094.2 694.623   3
   7   3  -6 10223.8 999.129   1
   7   3  -5 2017.83 445.256   1
   7   3  -5 2389.47 334.304   3
   7   3  -4 2161.81 433.294   1
   7   3  -4 1911.97 291.902   3
   7   3  -3 3780.55 525.451   1
   7   3  -3 4983.22 462.244   3
   7   3  -3 4754.01 518.981   2
   7   3  -2 306.963 168.352   1
   7   3  -2 632.235 213.341   2
   7   3  -1 2306.01 357.539   2
   7   3  -1 2677.45 378.244   1
   7   3   0 10792.0 697.325   1
   7   3   0 9971.60 696.864   2
   7   3   1 6424.87 545.565   2
   7   3   1 6701.39 500.055   1
   7   3   2 18071.7 931.152   2
   7   3   2 17304.0 709.715   1
   7   3   3 5735.53 334.309   1
   7   3   4 353.560 57.8830   1
   7   4  -8 332.836 280.702   1
   7   4  -7 5292.77 763.001   1
   7   4  -6 2011.57 434.123   1
   7   4  -5 951.242 210.987   3
   7   4  -5 837.437 298.318   1
   7   4  -4 1094.32 207.018   3
   7   4  -4 657.191 207.740   1
   7   4  -3 9643.01 832.659   1
   7   4  -3 10007.0 644.345   3
   7   4  -2 1211.51 264.144   2
   7   4  -2 948.581 223.042   1
   7   4  -1 3000.71 421.292   2
   7   4  -1 2393.21 386.537   1
   7   4   0 2443.63 368.192   2
   7   4   0 2188.81 325.363   1
   7   4   1 3472.31 363.679   1
   7   4   1 3075.00 408.121   2
   7   4   2 3840.09 450.004   2
   7   4   2 4039.40 327.702   1
   7   4   3 14110.3 851.155   2
   7   5  -8 12456.6 1285.02   1
   7   5  -7 16909.5 1429.92   1
   7   5  -6 19300.1 1439.29   1
   7   5  -5 4627.03 680.016   1
   7   5  -4 14640.6 748.353   3
   7   5  -4 14039.1 1100.41   1
   7   5  -3-41.7450 113.509   1
   7   5  -2 5398.69 589.853   1
   7   5  -2 5286.49 605.094   2
   7   5  -1 22371.7 1122.65   1
   7   5  -1 20931.1 1151.25   2
   7   5   0 38966.4 1385.27   1
   7   5   0 37868.9 1531.53   2
   7   5   1 41147.9 1294.05   1
   7   5   1 42505.1 1587.52   2
   7   5   2 44598.2 1609.53   2
   7   5   3 8686.83 691.942   2
   7   5   4 21.5642 96.9521   2
   7   6  -7 2317.09 554.376   1
   7   6  -6 3683.31 653.818   1
   7   6  -5 409.365 263.454   1
   7   6  -4 281.984 236.530   1
   7   6  -3 25287.8 1430.07   1
   7   6  -2 1635.96 361.548   1
   7   6  -1 8495.79 727.527   1
   7   6  -1 7209.42 708.587   2
   7   6   0 12760.4 916.370   2
   7   6   1 8974.59 756.010   2
   7   6   2 148.680 126.339   2
   7   6   3 12149.9 859.039   2
   7   6   4 5370.19 574.484   2
   7   6   5 16449.8 997.028   2
   7   7  -1 6488.33 730.469   2
   7   7   0 5071.80 613.950   2
   7   7   1 4094.73 533.434   2
   7   7   2 103.117 120.300   2
   7   7   3-21.1851 115.866   2
   7   7   4 575.180 200.689   2
   7   7   5 432.218 221.240   2
   7   8  -1 24845.0 1439.86   2
   7   8   0 5646.29 665.551   2
   7   8   1 4515.72 578.948   2
   7   8   2 297.977 197.408   2
   7   8   3 853.992 228.452   2
   7   8   4 16604.1 1076.70   2
   7   8   5 17571.0 1104.44   2
   7   9  -1 411.414 234.241   2
   7   9   0 2605.88 461.208   2
   7   9   1 42.4742 146.534   2
   7   9   2 2952.63 483.893   2
   7   9   3 34030.5 1599.29   2
   7   9   4 13911.9 1013.76   2
   7   9   5 5930.78 673.906   2
   7   9   6 12153.0 941.451   2
   7   9  10 2033.56 369.783   5
   7   9  11 3538.93 507.407   5
   7  10  -1 2058.36 448.310   2
   7  10   0 1646.54 413.813   2
   7  10   1 4616.61 649.644   2
   7  10   2 3074.21 516.857   2
   7  10   3 4319.01 603.370   2
   7  10   4 430.886 265.113   2
   7  10   5 1059.70 298.125   2
   7  10   6 1045.92 229.827   5
   7  10   6 903.829 307.449   2
   7  10   7 2192.88 351.652   5
   7  10   8 410.607 218.883   5
   7  10   9 179.987 189.405   5
   7  10  10 1311.74 321.119   5
   7  11  -1 605.179 254.785   2
   7  11   0 460.945 267.718   2
   7  11   1 868.414 334.586   2
   7  11   2 4800.09 651.635   2
   7  11   3 11932.4 1009.36   2
   7  11   4 5611.28 688.903   2
   7  11   5 6707.16 746.274   2
   7  11   6 3786.49 561.052   2
   7  11   8 2757.88 418.167   5
   7  11   9 5532.76 610.795   5
   7  12   1 6188.48 788.911   2
   7  12   2 4511.35 667.119   2
   7  12   3 6436.76 745.636   2
   7  12   4 497.461 217.896   2
   7  12   5-227.327 216.014   2
   7  12   6 701.427 347.875   2
   8  -5   0 2739.35 516.408   3
   8  -5   1 175.189 163.317   3
   8  -5   2 3183.45 513.106   3
   8  -5   3 643.405 274.581   3
   8  -5   4 71.5599 152.452   3
   8  -5   5 6156.89 664.425   3
   8  -4  -2 342.236 221.156   3
   8  -4  -1 1237.47 349.007   3
   8  -4   0 997.144 297.247   3
   8  -4   1 3821.41 575.635   3
   8  -4   2 323.078 166.063   3
   8  -4   3 650.415 234.859   3
   8  -4   4 406.563 210.633   3
   8  -4   5 776.093 236.137   3
   8  -4   6 315.661 235.344   3
   8  -3  -4 1728.32 405.813   3
   8  -3  -3 5922.82 713.831   3
   8  -3  -2 5295.11 641.189   3
   8  -3  -1 2615.07 454.916   3
   8  -3   0 1489.38 348.340   3
   8  -3   1 1440.14 345.690   3
   8  -3   2 5491.47 623.404   3
   8  -3   3 6127.88 646.174   3
   8  -3   4 26708.7 1340.66   3
   8  -3   5 27635.7 1347.73   3
   8  -3   6 5555.90 597.176   3
   8  -3   7 2260.32 365.192   3
   8  -2  -5 10489.1 947.456   3
   8  -2  -4 679.682 244.587   3
   8  -2  -3 4494.83 591.420   3
   8  -2  -2 3838.38 523.422   3
   8  -2  -1 7975.76 752.926   3
   8  -2   0 8347.06 757.462   3
   8  -2   1 11976.7 897.342   3
   8  -2   2 9793.54 801.027   3
   8  -2   3 13204.2 922.333   3
   8  -2   4 7142.12 674.534   3
   8  -2   5 8023.77 712.779   3
   8  -2   6 137.429 118.844   3
   8  -2   7 1295.08 305.453   3
   8  -1  -6 4050.67 581.420   3
   8  -1  -5 1021.67 290.479   3
   8  -1  -4 2697.52 451.674   3
   8  -1  -3 1967.59 385.742   3
   8  -1  -2 9758.37 807.897   3
   8  -1  -1 12859.3 915.520   3
   8  -1   0 4683.42 561.332   3
   8  -1   1 16803.9 1018.72   3
   8  -1   2 6385.77 624.831   3
   8  -1   3 3267.86 453.611   3
   8   0  -6-187.330 153.149   3
   8   0  -5 1237.93 333.548   3
   8   0  -4 937.431 287.352   3
   8   0  -3 5088.65 582.800   3
   8   0  -2 1595.22 329.793   3
   8   0  -1 192.064 113.030   3
   8   0   0 211.091 152.056   3
   8   0   1 1476.09 305.212   3
   8   1  -7 14358.0 1030.52   3
   8   1  -7 11936.7 1186.75   1
   8   1  -6 1337.09 323.445   3
   8   1  -6 1627.78 482.867   1
   8   1  -5 2153.10 369.961   3
   8   1  -4 261.499 152.857   3
   8   1  -3 1211.51 253.191   2
   8   1  -3 970.481 250.959   3
   8   1  -2 5048.81 485.210   2
   8   1  -2 5626.38 571.342   3
   8   1  -1 22042.9 1004.23   2
   8   1  -1 23241.9 1154.55   3
   8   1   0 35280.9 1427.81   3
   8   2  -7-34.1155 237.080   1
   8   2  -6-4.01603 195.622   1
   8   2  -6 90.2889 150.704   3
   8   2  -5 3290.55 459.211   2
   8   2  -5 3710.21 475.271   3
   8   2  -5 3223.53 591.467   1
   8   2  -4 15782.7 948.652   3
   8   2  -4 14246.5 1110.33   1
   8   2  -4 16700.2 1002.33   2
   8   2  -3 18302.6 1014.15   3
   8   2  -3 20694.9 1078.28   2
   8   2  -2 14360.2 881.414   3
   8   2  -2 13601.4 850.324   2
   8   2  -1 27212.2 1188.26   2
   8   2  -1 27244.7 1224.23   3
   8   2   0 4540.08 476.588   2
   8   2   1 3164.20 398.641   2
   8   3  -7 210.907 181.681   1
   8   3  -6 393.204 185.251   2
   8   3  -6 610.916 333.885   1
   8   3  -5 5358.87 718.667   1
   8   3  -5 5006.85 523.336   3
   8   3  -5 6047.71 685.223   2
   8   3  -4 7655.90 638.179   3
   8   3  -4 7815.57 736.776   2
   8   3  -4 7039.83 772.315   1
   8   3  -3 12980.5 819.495   3
   8   3  -3 10982.2 915.885   1
   8   3  -3 13188.8 913.365   2
   8   3  -2 6317.64 576.087   3
   8   3  -2 5920.38 648.519   1
   8   3  -2 6325.18 610.040   2
   8   3  -1 933.024 232.129   2
   8   3  -1 657.368 210.565   1
   8   3   0 633.590 234.537   2
   8   3   0 594.375 181.586   1
   8   3   1 100.231 131.767   2
   8   3   1 335.908 159.566   1
   8   3   2 1829.74 319.904   2
   8   3   2 1492.83 251.930   1
   8   4  -7 778.737 324.316   1
   8   4  -6 235.784 197.839   1
   8   4  -5 953.923 295.550   2
   8   4  -5 842.878 338.286   1
   8   4  -4 1179.06 309.210   2
   8   4  -4 1916.83 323.376   3
   8   4  -4 2040.55 462.505   1
   8   4  -3 12689.4 787.773   3
   8   4  -3 11477.8 893.031   2
   8   4  -3 10300.3 896.976   1
   8   4  -2 8258.49 759.204   2
   8   4  -2 9012.39 790.324   1
   8   4  -1 10026.0 794.322   2
   8   4  -1 10040.2 787.512   1
   8   4   0 2073.10 358.477   2
   8   4   0 2033.08 329.248   1
   8   4   1-175.138 126.173   2
   8   4   1 346.848 143.258   1
   8   4   2 3528.89 453.277   2
   8   4   2 3341.87 338.257   1
   8   4   3 1800.79 331.810   2
   8   5  -7 1307.17 490.436   1
   8   5  -6 9635.56 1046.73   1
   8   5  -5 10952.6 1081.71   1
   8   5  -4 16748.4 1236.97   1
   8   5  -4 15666.9 1161.74   2
   8   5  -3 13561.4 799.285   3
   8   5  -3 13276.8 1047.03   1
   8   5  -3 15798.6 1100.52   2
   8   5  -2 312.059 152.522   1
   8   5  -2 520.424 197.233   2
   8   5  -1-166.460 145.704   1
   8   5  -1-59.6258 133.401   2
   8   5   0 6678.03 589.794   1
   8   5   0 7021.20 692.835   2
   8   5   1 8762.64 614.244   1
   8   5   1 8511.90 732.549   2
   8   5   2 47247.7 1736.34   2
   8   5   3 34844.4 1480.49   2
   8   5   4 22679.0 1184.60   2
   8   6  -6 1513.85 506.513   1
   8   6  -5 10807.9 1075.53   1
   8   6  -4 14081.4 1171.71   1
   8   6  -3 342.375 218.624   1
   8   6  -3 71.7017 166.767   2
   8   6  -2 67.2270 151.104   2
   8   6  -2-188.102 168.986   1
   8   6  -1 1620.43 352.553   2
   8   6  -1 1898.92 352.482   1
   8   6   0 2793.99 463.619   2
   8   6   0 2968.94 417.962   1
   8   6   1 4136.63 542.606   2
   8   6   2 8356.68 765.850   2
   8   6   3 4308.98 539.947   2
   8   6   4 1225.26 320.608   2
   8   7  -6 3963.96 716.978   1
   8   7  -5 725.840 272.398   1
   8   7  -4 1771.00 466.521   1
   8   7  -3 2468.82 486.540   2
   8   7  -2-255.411 225.130   2
   8   7  -1 890.369 283.567   2
   8   7   0 335.494 186.392   2
   8   7   1 410.279 215.987   2
   8   7   2 13240.4 975.012   2
   8   7   3 5457.88 630.630   2
   8   7   4 9114.92 808.497   2
   8   7   5 10009.6 845.619   2
   8   8  -2 2042.58 465.501   2
   8   8  -1 11209.2 990.651   2
   8   8   0 15349.5 1137.05   2
   8   8   1 28605.4 1529.96   2
   8   8   2 35911.5 1686.84   2
   8   8   3 8861.92 822.211   2
   8   8   4 248.943 211.924   2
   8   8   5 575.443 228.276   2
   8   9  -2 13226.4 1149.83   2
   8   9  -1 13723.2 1145.46   2
   8   9   0 19358.3 1320.09   2
   8   9   1 5617.72 712.093   2
   8   9   2 5471.45 689.903   2
   8   9   3 632.298 262.129   2
   8   9   4 2634.21 481.930   2
   8   9   5 1096.33 330.637   2
   8   9   6 9567.92 868.849   2
   8  10  -1 304.274 248.373   2
   8  10   0 97.0107 202.246   2
   8  10   1 559.279 260.919   2
   8  10   2 1622.03 391.241   2
   8  10   3 1655.20 403.255   2
   8  10   4 1184.15 353.651   2
   8  10   5-310.562 187.567   2
   8  10   6 959.444 324.846   2
   8  10   7 1003.10 246.238   5
   8  10   8 880.461 283.002   5
   8  10   9 1921.91 371.014   5
   8  10  10 258.934 216.948   5
   8  11   1 516.780 283.296   2
   8  11   2 1716.26 432.549   2
   8  11   3 2543.75 481.501   2
   8  11   4 4462.77 652.967   2
   8  11   5 330.806 273.677   2
   8  11   6 5595.19 741.469   2
   8  11   9 464.966 203.836   5
   8  12   5 8571.86 900.708   2
   8  12   6 7349.47 853.989   2
   9  -4   4 1742.79 381.865   3
   9  -4   5 197.527 191.465   3
   9  -3   0 11619.3 994.024   3
   9  -3   1 3457.34 542.921   3
   9  -3   2 463.274 258.340   3
   9  -3   3 126.707 166.172   3
   9  -3   4 1276.56 307.161   3
   9  -3   5 3338.02 513.542   3
   9  -3   6 16532.7 1111.55   3
   9  -3   7 5282.52 637.013   3
   9  -2  -2 17121.7 1203.69   3
   9  -2  -1 4690.02 632.306   3
   9  -2   0 4851.92 623.808   3
   9  -2   1 287.249 183.335   3
   9  -2   2 1088.89 336.490   3
   9  -2   3 5731.83 663.122   3
   9  -2   4 15131.6 1048.86   3
   9  -2   5 13460.0 987.643   3
   9  -2   6 20210.2 1204.73   3
   9  -2   7 6725.27 698.148   3
   9  -2   8 3808.38 515.483   3
   9  -1  -4 454.423 196.436   3
   9  -1  -3 8364.51 818.368   3
   9  -1  -2 269.665 134.970   3
   9  -1  -1 2914.30 474.141   3
   9  -1   0 1386.97 344.173   3
   9  -1   1 879.114 270.748   3
   9  -1   2 4262.43 558.875   3
   9  -1   3 4041.81 537.827   3
   9  -1   4 158.119 166.005   3
   9  -1   5 207.472 164.769   3
   9   0  -5 49.3008 147.158   3
   9   0  -4 687.010 223.094   3
   9   0  -3 4388.98 575.746   3
   9   0  -2 17576.5 1133.21   3
   9   0  -1 5119.52 608.223   3
   9   0   0 3085.51 478.128   3
   9   0   1-0.36626 133.763   3
   9   0   2-49.5347 190.232   3
   9   1  -6 7645.23 780.106   3
   9   1  -6 5367.92 814.408   1
   9   1  -5 7232.76 729.283   3
   9   1  -4 4123.38 542.977   3
   9   1  -3 6461.15 680.115   3
   9   1  -2 348.177 177.290   3
   9   1  -1 675.529 243.953   3
   9   1   0 1734.97 341.202   3
   9   1   1 7185.86 689.881   3
   9   2  -6 8292.21 780.234   3
   9   2  -6 9807.09 1068.93   1
   9   2  -5 13592.8 965.102   3
   9   2  -5 12349.6 1136.07   1
   9   2  -4 1151.22 302.167   3
   9   2  -4 622.858 271.251   1
   9   2  -3-120.601 129.457   3
   9   2  -2 416.099 206.398   3
   9   2  -2 368.748 142.584   2
   9   2  -1 9031.97 724.587   2
   9   2  -1 10172.6 800.897   3
   9   2   0 5391.48 556.059   2
   9   2   0 6412.96 633.002   3
   9   3  -6-52.7441 203.466   1
   9   3  -5 1158.98 350.362   1
   9   3  -5 454.737 166.428   3
   9   3  -4 3001.89 538.821   1
   9   3  -4 4317.86 591.873   2
   9   3  -4 3720.73 482.137   3
   9   3  -3 2683.49 478.618   1
   9   3  -3 2650.90 435.620   2
   9   3  -3 2672.24 396.010   3
   9   3  -2 2300.47 394.821   2
   9   3  -2 2145.56 363.382   3
   9   3  -2 2255.04 413.113   1
   9   3  -1 1703.81 329.909   3
   9   3  -1 1193.77 294.527   2
   9   3  -1 1774.79 354.723   1
   9   3   0-125.593 117.510   2
   9   3   0-175.625 126.511   1
   9   3   1 821.502 253.225   2
   9   4  -6 2015.05 493.628   1
   9   4  -5-95.8723 192.044   2
   9   4  -5-293.210 324.974   1
   9   4  -4 1143.25 276.186   2
   9   4  -4 1311.55 282.879   3
   9   4  -4 727.597 292.747   1
   9   4  -3 407.021 183.785   2
   9   4  -3 615.766 222.237   3
   9   4  -2 4444.90 522.494   3
   9   4  -2 3393.19 500.976   2
   9   4  -2 3625.20 542.043   1
   9   4  -1 14971.3 1010.66   1
   9   4  -1 15045.9 1017.02   2
   9   4   0 4068.71 535.472   2
   9   4   0 4270.65 509.833   1
   9   4   1 8896.00 755.094   2
   9   4   2 8677.19 741.518   2
   9   5  -6-340.968 199.205   2
   9   5  -6-407.237 313.298   1
   9   5  -5-375.475 296.650   1
   9   5  -5 36.4558 231.033   2
   9   5  -4 6746.66 799.955   1
   9   5  -4 6755.74 773.645   2
   9   5  -3 13850.1 1120.97   1
   9   5  -3 13709.5 871.352   3
   9   5  -3 13988.5 1074.90   2
   9   5  -2 12217.5 994.349   1
   9   5  -2 12132.3 978.543   2
   9   5  -1 17101.9 1092.47   1
   9   5  -1 14709.6 1052.32   2
   9   5   0 4180.89 556.886   2
   9   5   1 2457.25 418.772   2
   9   5   2 273.656 148.658   2
   9   5   3 3692.13 510.545   2
   9   6  -5 311.024 193.119   2
   9   6  -5-112.872 218.448   1
   9   6  -4 10601.7 1053.53   1
   9   6  -4 10373.6 985.164   2
   9   6  -3 3940.29 643.767   2
   9   6  -3 2656.65 494.348   1
   9   6  -2 432.309 185.559   2
   9   6  -2 349.620 138.982   1
   9   6  -1 1271.12 345.897   2
   9   6   0 709.336 259.170   2
   9   6   1 5945.84 667.482   2
   9   6   2 12800.7 977.344   2
   9   6   3 5755.72 657.822   2
   9   6   4 10294.0 866.670   2
   9   7  -5 39.5074 178.499   1
   9   7  -4 2163.23 508.562   1
   9   7  -4 1169.72 372.841   2
   9   7  -3 1748.57 443.136   2
   9   7  -3 2877.42 568.686   1
   9   7  -2 4861.05 669.336   2
   9   7  -1 7358.93 828.980   2
   9   7   0 1923.22 427.774   2
   9   7   1 2178.71 423.885   2
   9   7   2 1253.09 352.767   2
   9   7   3 8705.62 828.890   2
   9   7   4 2201.05 443.597   2
   9   7   5 6981.95 749.220   2
   9   8  -3 10063.7 1020.14   2
   9   8  -2 4973.33 716.298   2
   9   8  -1 889.047 335.598   2
   9   8   0 880.558 332.575   2
   9   8   1 7496.21 811.321   2
   9   8   2 8101.98 828.766   2
   9   8   3 13396.3 1063.34   2
   9   8   4 24218.1 1437.10   2
   9   8   5 11818.2 988.408   2
   9   9  -1-40.5568 243.398   2
   9   9   0 658.970 287.779   2
   9   9   1 7555.38 844.511   2
   9   9   2 7464.69 825.476   2
   9   9   3 4792.75 661.684   2
   9   9   4 2756.82 513.591   2
   9   9   5-118.412 187.291   2
   9  10   1 311.836 252.445   2
   9  10   2-388.833 272.400   2
   9  10   3 2811.81 537.035   2
   9  10   4 613.460 296.620   2
   9  10   5 645.835 272.528   2
   9  10   6 1487.82 428.585   2
  10  -1   0 560.438 289.275   3
  10  -1   1 81.1148 206.954   3
  10  -1   2 761.440 284.317   3
  10  -1   3 854.499 255.204   3
  10  -1   4 828.855 283.295   3
  10  -1   5 306.852 239.099   3
  10  -1   6 198.723 170.837   3
  10  -1   7 142.027 244.964   3
  10  -1   8 1251.46 335.679   3
  10   0  -2 10174.5 923.668   3
  10   0  -1 2327.70 454.524   3
  10   0   0 3576.65 528.151   3
  10   0   1 6420.03 714.980   3
  10   0   2 2165.55 422.633   3
  10   0   3 205.532 181.394   3
  10   0   4 1332.64 362.040   3
  10   1  -3 7034.79 746.777   3
  10   1  -2 13421.6 1035.84   3
  10   1  -1 10897.6 920.470   3
  10   1   0 3295.91 513.310   3
  10   1   1 2596.90 465.271   3
  10   1   2 326.508 206.508   3
  10   2  -5 2756.70 469.382   3
  10   2  -4 5007.07 625.273   3
  10   2  -4 5101.23 744.707   1
  10   2  -3 2253.43 420.799   3
  10   2  -3 2465.13 492.797   1
  10   2  -2-60.2582 187.814   3
  10   2  -1 453.960 179.473   3
  10   2   0 821.016 299.634   3
  10   2   1 845.494 262.822   3
  10   3  -5-263.224 186.832   1
  10   3  -4-203.573 245.789   1
  10   3  -4-48.6205 131.700   3
  10   3  -3-242.845 187.730   1
  10   3  -3-31.4840 138.606   3
  10   3  -2 4791.80 584.387   3
  10   3  -2 4562.28 560.630   2
  10   3  -1 1278.61 307.388   3
  10   3  -1 2348.24 412.622   2
  10   3   0 319.809 203.772   3
  10   3   0 444.642 229.624   2
  10   4  -5 4300.72 690.834   1
  10   4  -4 4732.94 578.931   3
  10   4  -4 4940.27 691.458   1
  10   4  -3 1327.84 350.315   2
  10   4  -3 1040.96 284.831   3
  10   4  -2 5312.84 650.396   2
  10   4  -2 4310.44 555.129   3
  10   4  -1 52.1612 119.418   3
  10   4  -1 325.588 194.607   2
  10   4   0 3038.74 474.130   2
  10   4   1 3947.57 528.320   2
  10   5  -5 2591.93 544.308   1
  10   5  -5 2173.38 500.442   2
  10   5  -4 436.150 243.428   2
  10   5  -3 453.818 240.636   2
  10   5  -3 415.292 158.284   3
  10   5  -2 5278.51 598.438   3
  10   5  -2 4721.48 630.831   2
  10   5  -1 5162.08 678.283   2
  10   5   0 11100.0 945.964   2
  10   5   1 14947.6 1081.77   2
  10   5   2 9073.51 830.930   2
  10   6  -4 2222.35 497.406   2
  10   6  -3 2061.80 473.380   2
  10   6  -2 7340.75 676.499   3
  10   6  -2 7678.02 859.075   2
  10   6  -1-121.845 241.022   2
  10   6   0-1.36824 141.283   2
  10   6   1 279.535 194.203   2
  10   6   2 1195.91 345.824   2
  10   6   3 1978.95 438.549   2
  10   7  -2 1429.88 448.622   2
  10   7  -1 2692.07 491.683   2
  10   7   0 4750.43 671.718   2
  10   7   1 7627.26 834.732   2
  10   7   2 6307.42 742.412   2
  10   7   3 4381.01 617.213   2
  10   7   4 1749.09 412.719   2
  10   8  -1 3427.66 611.685   2
  10   8   0 12826.0 1133.26   2
  10   8   1 6474.53 787.662   2
  10   8   2 211.329 171.523   2
  10   8   3 702.819 274.151   2
  10   8   4 4653.31 660.782   2
  10   8   5 9709.78 946.244   2
  10   9   1-63.6170 184.516   2
  10   9   2 663.914 302.199   2
  10   9   3 1048.74 370.369   2
  10   9   4 2324.98 484.943   2
  10   9   5 1756.02 458.536   2
  11   2   0 231.830 234.407   3
  11   2   1-133.715 150.335   3
  11   2   2 28.2698 178.057   3
  11   3  -1 7146.53 761.296   3
  11   3   0 3651.95 560.843   3
  11   3   1 3203.79 521.018   3
  11   4  -3 6749.71 728.528   3
  11   4  -2 8309.10 817.162   3
  11   4  -1 6622.10 757.610   2
  11   4  -1 6594.83 737.298   3
  11   4   0 5564.02 671.514   3
  11   4   0 4903.31 645.905   2
  11   5  -3 6262.04 781.825   2
  11   5  -2 1056.21 371.732   2
  11   5  -2 1922.61 360.786   3
  11   5  -1 215.181 185.200   3
  11   5  -1-93.9214 168.632   2
  11   5   0 286.075 188.966   2
  11   5   1 688.575 276.871   2
  11   6  -1 2066.22 417.979   2
  11   6   0 1257.05 316.278   2
  11   6   1 2045.84 440.403   2
  11   6   2 309.303 259.891   2
  11   7   1 1921.03 446.820   2
  11   7   2 7369.32 843.458   2
  11   7   3 14154.6 1156.75   2
   0   0   0    0.00    0.00   0

TITL AT384Znprzes in P1
REM P1 (#1 in standard setting)
CELL 0.71073   8.792256   9.326173  10.668542  78.7220  74.6553  67.7719
ZERR    1.00   0.000385   0.000539   0.000512   0.0044   0.0040   0.0047
LATT -1
SFAC C H O S Zn
UNIT 40.00 30.00 4.00 2.00 2.00
TREF
HKLF 4
END
;
_shelx_hkl_checksum              68740
loop_
_space_group_symop_operation_xyz
'x, y, z'
'-x, -y, -z'
loop_
_atom_site_label
_atom_site_type_symbol
_atom_site_fract_x
_atom_site_fract_y
_atom_site_fract_z
_atom_site_U_iso_or_equiv
_atom_site_adp_type
_atom_site_occupancy
_atom_site_site_symmetry_order
_atom_site_calc_flag
_atom_site_refinement_flags_posn
_atom_site_refinement_flags_adp
_atom_site_refinement_flags_occupancy
_atom_site_disorder_assembly
_atom_site_disorder_group
C1 C 0.1201(3) 0.2555(3) 0.7682(2) 0.0152(4) Uani 1 1 d . . . . .
C2 C 0.0033(3) 0.3684(3) 0.6999(2) 0.0181(5) Uani 1 1 d . . . . .
H2 H -0.053841 0.468190 0.730385 0.022 Uiso 1 1 calc R U . . .
C3 C -0.0319(3) 0.3402(3) 0.5895(2) 0.0203(5) Uani 1 1 d . . . . .
H3 H -0.111871 0.419998 0.546236 0.024 Uiso 1 1 calc R U . . .
C4 C 0.0490(3) 0.1963(3) 0.5424(2) 0.0224(5) Uani 1 1 d . . . . .
H4 H 0.024507 0.176159 0.467399 0.027 Uiso 1 1 calc R U . . .
C5 C 0.1663(3) 0.0818(3) 0.6062(2) 0.0234(5) Uani 1 1 d . . . . .
H5 H 0.223270 -0.017315 0.574353 0.028 Uiso 1 1 calc R U . . .
C6 C 0.2010(3) 0.1112(3) 0.7163(2) 0.0195(5) Uani 1 1 d . . . . .
H6 H 0.282314 0.031105 0.758104 0.023 Uiso 1 1 calc R U . . .
C7 C -0.3431(3) 0.3787(2) 1.2142(2) 0.0142(4) Uani 1 1 d . . . . .
C8 C -0.4931(3) 0.3558(3) 1.2218(2) 0.0174(5) Uani 1 1 d . . . . .
H8 H -0.531599 0.363541 1.144620 0.021 Uiso 1 1 calc R U . . .
C9 C -0.5855(3) 0.3214(3) 1.3435(2) 0.0208(5) Uani 1 1 d . . . . .
H9 H -0.688155 0.305811 1.349909 0.025 Uiso 1 1 calc R U . . .
C10 C -0.5290(3) 0.3097(3) 1.4558(2) 0.0201(5) Uani 1 1 d . . . . .
H10 H -0.592824 0.285941 1.538768 0.024 Uiso 1 1 calc R U . . .
C11 C -0.3785(3) 0.3327(3) 1.4475(2) 0.0203(5) Uani 1 1 d . . . . .
H11 H -0.340112 0.324782 1.524750 0.024 Uiso 1 1 calc R U . . .
C12 C -0.2849(3) 0.3674(3) 1.3259(2) 0.0172(5) Uani 1 1 d . . . . .
H12 H -0.182402 0.383136 1.319465 0.021 Uiso 1 1 calc R U . . .
C13 C 0.3253(3) 0.0950(3) 1.1546(2) 0.0216(5) Uani 1 1 d . . . . .
H13A H 0.244955 0.185332 1.200915 0.026 Uiso 1 1 calc R U . . .
H13B H 0.437779 0.105361 1.130080 0.026 Uiso 1 1 calc R U . . .
C14 C 0.3311(4) -0.0565(3) 1.2412(3) 0.0331(6) Uani 1 1 d . . . . .
H14A H 0.440915 -0.107658 1.267455 0.040 Uiso 1 1 calc R U . . .
H14B H 0.240826 -0.037181 1.320877 0.040 Uiso 1 1 calc R U . . .
C15 C 0.3058(3) -0.1566(3) 1.1579(2) 0.0221(5) Uani 1 1 d . . . . .
H15A H 0.414348 -0.220907 1.107691 0.027 Uiso 1 1 calc R U . . .
H15B H 0.245190 -0.225465 1.211980 0.027 Uiso 1 1 calc R U . . .
C16 C 0.2018(3) -0.0370(3) 1.0693(3) 0.0252(5) Uani 1 1 d . . . . .
H16A H 0.212034 -0.080416 0.988691 0.030 Uiso 1 1 calc R U . . .
H16B H 0.081951 0.001032 1.113738 0.030 Uiso 1 1 calc R U . . .
O1 O -0.04887(17) 0.35854(18) 1.07925(15) 0.0169(3) Uani 1 1 d . . . . .
O2 O -0.28461(18) 0.59304(18) 1.02933(15) 0.0173(3) Uani 1 1 d . . . . .
O3 O 0.27159(18) 0.08800(18) 1.03940(15) 0.0158(3) Uani 1 1 d . . . . .
S1 S -0.22650(6) 0.41540(6) 1.05402(5) 0.01410(12) Uani 1 1 d . . . . .
Zn1 Zn 0.15393(3) 0.29420(3) 0.93115(2) 0.01451(9) Uani 1 1 d . . . . .
loop_
_atom_site_aniso_label
_atom_site_aniso_U_11
_atom_site_aniso_U_22
_atom_site_aniso_U_33
_atom_site_aniso_U_23
_atom_site_aniso_U_13
_atom_site_aniso_U_12
C1 0.0138(10) 0.0161(11) 0.0152(10) 0.0021(9) -0.0021(8) -0.0070(8)
C2 0.0191(10) 0.0168(11) 0.0182(11) 0.0009(9) -0.0042(9) -0.0071(9)
C3 0.0205(11) 0.0230(12) 0.0179(11) 0.0047(10) -0.0067(9) -0.0096(10)
C4 0.0256(12) 0.0295(14) 0.0164(11) -0.0040(10) -0.0031(9) -0.0143(11)
C5 0.0275(12) 0.0203(12) 0.0223(12) -0.0071(10) -0.0013(10) -0.0085(10)
C6 0.0178(10) 0.0180(12) 0.0200(12) 0.0018(10) -0.0045(9) -0.0048(9)
C7 0.0146(10) 0.0099(10) 0.0168(11) 0.0016(9) -0.0034(8) -0.0040(8)
C8 0.0168(10) 0.0186(12) 0.0190(11) -0.0009(9) -0.0067(9) -0.0071(9)
C9 0.0155(10) 0.0199(12) 0.0269(13) -0.0011(10) -0.0029(9) -0.0078(9)
C10 0.0211(11) 0.0176(12) 0.0183(11) -0.0006(10) 0.0003(9) -0.0067(9)
C11 0.0247(11) 0.0209(12) 0.0159(11) 0.0019(10) -0.0066(9) -0.0088(10)
C12 0.0164(10) 0.0186(11) 0.0182(11) 0.0003(9) -0.0055(9) -0.0075(9)
C13 0.0289(12) 0.0212(12) 0.0189(12) 0.0023(10) -0.0123(10) -0.0107(10)
C14 0.0527(17) 0.0308(15) 0.0259(14) 0.0142(12) -0.0210(13) -0.0254(13)
C15 0.0282(12) 0.0147(12) 0.0216(12) 0.0057(10) -0.0047(10) -0.0093(10)
C16 0.0344(13) 0.0227(13) 0.0278(13) 0.0066(11) -0.0149(11) -0.0192(11)
O1 0.0130(7) 0.0163(8) 0.0184(8) 0.0014(7) -0.0035(6) -0.0032(6)
O2 0.0162(7) 0.0137(8) 0.0217(8) 0.0028(7) -0.0065(6) -0.0054(6)
O3 0.0183(7) 0.0138(8) 0.0162(8) 0.0018(6) -0.0071(6) -0.0058(6)
S1 0.0149(2) 0.0139(3) 0.0144(3) 0.0006(2) -0.0042(2) -0.0064(2)
Zn1 0.01465(13) 0.01337(14) 0.01442(14) 0.00137(10) -0.00430(10) -0.00418(10)
loop_
_atom_type_symbol
_atom_type_description
_atom_type_scat_dispersion_real
_atom_type_scat_dispersion_imag
_atom_type_scat_source
C C 0.0033 0.0016 'International Tables Vol C Tables 4.2.6.8 and 6.1.1.4'
H H 0.0000 0.0000 'International Tables Vol C Tables 4.2.6.8 and 6.1.1.4'
O O 0.0106 0.0060 'International Tables Vol C Tables 4.2.6.8 and 6.1.1.4'
S S 0.1246 0.1234 'International Tables Vol C Tables 4.2.6.8 and 6.1.1.4'
Zn Zn 0.2839 1.4301 'International Tables Vol C Tables 4.2.6.8 and 6.1.1.4'
loop_
_geom_angle_atom_site_label_1
_geom_angle_atom_site_label_2
_geom_angle_atom_site_label_3
_geom_angle
_geom_angle_site_symmetry_1
_geom_angle_site_symmetry_3
_geom_angle_publ_flag
C2 C1 C6 115.4(2) . . ?
C2 C1 Zn1 121.47(17) . . ?
C6 C1 Zn1 123.02(17) . . ?
C3 C2 C1 122.7(2) . . ?
C4 C3 C2 120.2(2) . . ?
C3 C4 C5 119.1(2) . . ?
C4 C5 C6 120.3(2) . . ?
C5 C6 C1 122.4(2) . . ?
C12 C7 C8 121.2(2) . . ?
C12 C7 S1 122.05(16) . . ?
C8 C7 S1 116.75(17) . . ?
C9 C8 C7 119.1(2) . . ?
C10 C9 C8 120.3(2) . . ?
C9 C10 C11 120.3(2) . . ?
C12 C11 C10 119.8(2) . . ?
C7 C12 C11 119.3(2) . . ?
O3 C13 C14 106.32(19) . . ?
C15 C14 C13 105.1(2) . . ?
C16 C15 C14 102.2(2) . . ?
O3 C16 C15 104.20(19) . . ?
S1 O1 Zn1 120.52(10) . . ?
S1 O2 Zn1 119.74(9) . 2_567 ?
C13 O3 C16 107.43(17) . . ?
C13 O3 Zn1 119.66(13) . . ?
C16 O3 Zn1 119.11(14) . . ?
O1 S1 O2 107.37(9) . . ?
O1 S1 C7 100.93(10) . . ?
O2 S1 C7 103.94(9) . . ?
C1 Zn1 O2 133.46(8) . 2_567 ?
C1 Zn1 O1 118.20(8) . . ?
O2 Zn1 O1 97.77(7) 2_567 . ?
C1 Zn1 O3 112.11(8) . . ?
O2 Zn1 O3 93.12(7) 2_567 . ?
O1 Zn1 O3 92.88(7) . . ?
loop_
_geom_bond_atom_site_label_1
_geom_bond_atom_site_label_2
_geom_bond_distance
_geom_bond_site_symmetry_2
_geom_bond_publ_flag
C1 C2 1.404(3) . ?
C1 C6 1.408(3) . ?
C1 Zn1 1.960(2) . ?
C2 C3 1.388(3) . ?
C3 C4 1.383(3) . ?
C4 C5 1.386(3) . ?
C5 C6 1.389(3) . ?
C7 C12 1.388(3) . ?
C7 C8 1.394(3) . ?
C7 S1 1.788(2) . ?
C8 C9 1.388(3) . ?
C9 C10 1.384(3) . ?
C10 C11 1.397(3) . ?
C11 C12 1.392(3) . ?
C13 O3 1.450(3) . ?
C13 C14 1.521(4) . ?
C14 C15 1.516(4) . ?
C15 C16 1.499(3) . ?
C16 O3 1.459(3) . ?
O1 S1 1.5273(17) . ?
O1 Zn1 2.0264(16) . ?
O2 S1 1.5281(18) . ?
O2 Zn1 1.9869(17) 2_567 ?
O3 Zn1 2.0881(17) . ?
