#------------------------------------------------------------------------------
#$Date: 2022-02-11 01:47:28 +0200 (Fri, 11 Feb 2022) $
#$Revision: 272904 $
#$URL: file:///home/coder/svn-repositories/cod/cif/7/70/94/7709455.cif $
#------------------------------------------------------------------------------
#
# This file is available in the Crystallography Open Database (COD),
# http://www.crystallography.net/
#
# All data on this site have been placed in the public domain by the
# contributors.
#
data_7709455
loop_
_publ_author_name
'Bai, Shuo'
'Yang, Daqing'
'Zhang, Bingbing'
'Li, Ling'
'Wang, Ying'
_publ_section_title
;
 Two Lead Borate-nitrates with Anion-Centered [OPb4] Tetrahedra and Two
 Types of \p-Conjugated Planar Units Showing Large Birefringence
;
_journal_name_full               'Dalton Transactions'
_journal_paper_doi               10.1039/D2DT00183G
_journal_year                    2022
_chemical_formula_moiety         '0.5(B4 F2 N2 O22 Pb12)'
_chemical_formula_sum            'B2 F N O11 Pb6'
_chemical_formula_weight         1473.77
_space_group_crystal_system      monoclinic
_space_group_IT_number           11
_space_group_name_Hall           '-P 2yb'
_space_group_name_H-M_alt        'P 1 21/m 1'
_audit_creation_date             2021-05-07
_audit_creation_method
;
Olex2 1.2
(compiled 2018.05.29 svn.r3508 for OlexSys, GUI svn.r5506)
;
_audit_update_record
;
2021-10-11 deposited with the CCDC.	2022-02-10 downloaded from the CCDC.
;
_cell_angle_alpha                90
_cell_angle_beta                 101.704(4)
_cell_angle_gamma                90
_cell_formula_units_Z            2
_cell_length_a                   6.8025(7)
_cell_length_b                   11.5092(9)
_cell_length_c                   8.8989(9)
_cell_measurement_reflns_used    8596
_cell_measurement_temperature    273(2)
_cell_measurement_theta_max      27.48
_cell_measurement_theta_min      3.53
_cell_volume                     682.22(11)
_computing_cell_refinement       'SAINT V8.38A (?, 2016)'
_computing_data_reduction        'SAINT V8.38A (?, 2016)'
_computing_molecular_graphics    'Olex2 (Dolomanov et al., 2009)'
_computing_publication_material  'Olex2 (Dolomanov et al., 2009)'
_computing_structure_refinement  'ShelXL (Sheldrick, 2015)'
_diffrn_ambient_temperature      273.15
_diffrn_measured_fraction_theta_full 1.000
_diffrn_measured_fraction_theta_max 1.000
_diffrn_measurement_device_type  'CCD area detector'
_diffrn_measurement_method       'phi and omega scans'
_diffrn_radiation_monochromator  graphite
_diffrn_radiation_type           MoK\a
_diffrn_radiation_wavelength     0.71073
_diffrn_reflns_av_R_equivalents  0.0663
_diffrn_reflns_av_unetI/netI     0.0277
_diffrn_reflns_Laue_measured_fraction_full 1.000
_diffrn_reflns_Laue_measured_fraction_max 1.000
_diffrn_reflns_limit_h_max       8
_diffrn_reflns_limit_h_min       -8
_diffrn_reflns_limit_k_max       14
_diffrn_reflns_limit_k_min       -14
_diffrn_reflns_limit_l_max       11
_diffrn_reflns_limit_l_min       -11
_diffrn_reflns_number            19582
_diffrn_reflns_point_group_measured_fraction_full 1.000
_diffrn_reflns_point_group_measured_fraction_max 1.000
_diffrn_reflns_theta_full        25.242
_diffrn_reflns_theta_max         27.509
_diffrn_reflns_theta_min         2.337
_exptl_absorpt_coefficient_mu    73.830
_exptl_absorpt_correction_T_max  0.0481
_exptl_absorpt_correction_T_min  0.0007
_exptl_absorpt_correction_type   numerical
_exptl_absorpt_process_details
'SADABS-2016/2 (Bruker,2016/2) was used for absorption correction. wR2(int) was 0.1015 before and 0.0698 after correction. The Ratio of minimum to maximum transmission is 0.0146. The \l/2 correction factor is Not present.'
_exptl_crystal_colour            colourless
_exptl_crystal_colour_primary    colourless
_exptl_crystal_density_diffrn    7.174
_exptl_crystal_description       block
_exptl_crystal_F_000             1212
_exptl_crystal_size_max          0.215
_exptl_crystal_size_mid          0.148
_exptl_crystal_size_min          0.04
_refine_diff_density_max         1.811
_refine_diff_density_min         -1.526
_refine_diff_density_rms         0.340
_refine_ls_extinction_method     none
_refine_ls_goodness_of_fit_ref   1.091
_refine_ls_hydrogen_treatment    undef
_refine_ls_matrix_type           full
_refine_ls_number_parameters     106
_refine_ls_number_reflns         1645
_refine_ls_number_restraints     6
_refine_ls_restrained_S_all      1.091
_refine_ls_R_factor_all          0.0286
_refine_ls_R_factor_gt           0.0231
_refine_ls_shift/su_max          0.001
_refine_ls_shift/su_mean         0.000
_refine_ls_structure_factor_coef Fsqd
_refine_ls_weighting_details
'w=1/[\s^2^(Fo^2^)+(0.0298P)^2^] where P=(Fo^2^+2Fc^2^)/3'
_refine_ls_weighting_scheme      calc
_refine_ls_wR_factor_gt          0.0553
_refine_ls_wR_factor_ref         0.0570
_reflns_Friedel_coverage         0.000
_reflns_number_gt                1462
_reflns_number_total             1645
_reflns_threshold_expression     'I > 2\s(I)'
_cod_data_source_file            d2dt00183g2.cif
_cod_data_source_block           ww
_cod_database_code               7709455
_shelx_shelxl_version_number     2018/3
_shelx_space_group_comment
;
The symmetry employed for this shelxl refinement is uniquely defined
by the following loop, which should always be used as a source of
symmetry information in preference to the above space-group names.
They are only intended as comments.
;
_shelx_estimated_absorpt_t_max   0.156
_shelx_estimated_absorpt_t_min   0.022
_olex2_refinement_description
;
1. Uiso/Uaniso restraints and constraints
Uanis(O2) \\sim Ueq: with sigma of 0.005 and sigma for terminal atoms of 0.01
;
_shelx_res_file
;
TITL WW in P2(1)/m
    ww.res
    created by SHELXL-2018/3 at 21:56:09 on 07-May-2021
CELL 0.71073 6.8025 11.5092 8.8989 90 101.704 90
ZERR 2 0.0007 0.0009 0.0009 0 0.004 0
LATT 1
SYMM -X,0.5+Y,-Z
SFAC B F N O Pb
UNIT 4 2 2 22 12
ISOR 0.005 0.01 O2

L.S. 4 0 0
PLAN  20
SIZE 0.04 0.148 0.215
TEMP 0
list 4
fmap 2 53
acta
REM <olex2.extras>
REM <HklSrc "%.\\WW.hkl">
REM </olex2.extras>

WGHT    0.029800
FVAR       0.04608
PB1   5    0.058533    0.250000    0.416554    10.50000    0.02514    0.02509 =
         0.02918    0.00000    0.00383    0.00000
PB2   5    0.435384    0.093406    0.204679    11.00000    0.03046    0.02363 =
         0.02906   -0.00287    0.00742   -0.00084
PB3   5    0.606259    0.250000    0.595303    10.50000    0.02653    0.02440 =
         0.03239    0.00000    0.00869    0.00000
PB4   5    1.089488    0.406911    0.797354    11.00000    0.02945    0.02401 =
         0.02872   -0.00246    0.00307   -0.00060
N1    3    0.749379    0.250000    0.010537    10.50000    0.04052    0.04509 =
         0.03898    0.00000    0.01570    0.00000
B1    1    0.745513   -0.001484    0.503766    11.00000    0.02248    0.03048 =
         0.03841   -0.00279    0.00662   -0.00062
F1    2    1.280492    0.250000    0.956821    10.50000    0.07709    0.03582 =
         0.10102    0.00000   -0.03704    0.00000
O1    4    0.762173    0.344908   -0.054904    11.00000    0.12085    0.02567 =
         0.06905    0.00540    0.05290   -0.00217
O2    4    0.715430    0.250000    0.145410    10.50000    0.04130    0.05351 =
         0.03507    0.00000    0.00583    0.00000
O3    4    0.675158    0.099234    0.430136    11.00000    0.03743    0.02544 =
         0.03395    0.00052    0.00134    0.00351
O4    4    0.772913   -0.099087    0.422609    11.00000    0.04265    0.02152 =
         0.03501    0.00130    0.01361    0.00521
O5    4    0.792539   -0.002586    0.663447    11.00000    0.04600    0.03349 =
         0.03042   -0.00154    0.00684   -0.01332
O6    4    0.354482    0.250000    0.311259    10.50000    0.02693    0.02249 =
         0.04586    0.00000    0.01618    0.00000
O7    4    0.958590    0.250000    0.679963    10.50000    0.02371    0.01589 =
         0.02929    0.00000   -0.00431    0.00000
HKLF 4




REM  WW in P2(1)/m
REM wR2 = 0.0570, GooF = S = 1.091, Restrained GooF = 1.091 for all data
REM R1 = 0.0231 for 1462 Fo > 4sig(Fo) and 0.0286 for all 1645 data
REM 106 parameters refined using 6 restraints

END

WGHT      0.0298      0.0000

REM Highest difference peak  1.811,  deepest hole -1.526,  1-sigma level  0.340
Q1    1   1.1164  0.2500  0.6002  10.50000  0.05    1.81
Q2    1   0.1742  0.2500  0.3985  10.50000  0.05    1.79
Q3    1   0.2913  0.0951  0.1031  11.00000  0.05    1.68
Q4    1   0.4812  0.2500  0.3987  10.50000  0.05    1.57
Q5    1   0.3263  0.2500  0.4174  10.50000  0.05    1.44
Q6    1   1.2326  0.4065  0.8977  11.00000  0.05    1.42
Q7    1   0.7408  0.2500  0.6826  10.50000  0.05    1.38
Q8    1   0.1932  0.2500  0.4870  10.50000  0.05    1.31
Q9    1   0.9539  0.4113  0.6911  11.00000  0.05    1.25
Q10   1   1.2364  0.2500  0.6811  10.50000  0.05    1.16
Q11   1   1.1654  0.3972  0.9952  11.00000  0.05    1.15
Q12   1   0.2966  0.0821  0.2077  11.00000  0.05    1.14
Q13   1   0.4627  0.2500  0.4951  10.50000  0.05    1.13
Q14   1   0.5531  0.2500  0.6993  10.50000  0.05    1.12
Q15   1   0.6445  0.0862  0.3077  11.00000  0.05    1.07
Q16   1   0.2337  0.2983  0.4153  11.00000  0.05    1.02
Q17   1   0.3524  0.0942  0.0052  11.00000  0.05    1.00
Q18   1   0.5748  0.1142  0.1986  11.00000  0.05    0.98
Q19   1   0.4849  0.2817  0.6009  11.00000  0.05    0.95
Q20   1   0.7938  0.1987  0.6040  11.00000  0.05    0.94
;
_shelx_res_checksum              98258
_shelx_hkl_file
;
  -1   0   0    0.05    0.04
  -1   0   0    0.08    0.06
  -1   0   0    0.13    0.06
  -1   0   0    0.35    0.09
   1   0   0    0.13    0.06
   1   0   0    0.10    0.06
   1   0   0    0.14    0.07
   1   0   0    0.14    0.06
  -2   0   0  209.61   12.48
  -2   0   0  199.65   12.49
   2   0   0  202.78   12.50
   2   0   0  200.30   12.47
   2   0   0  202.39   12.52
   2   0   0  200.37   12.54
  -3   0   0    0.39    0.22
  -3   0   0    0.74    0.24
  -3   0   0    0.47    0.23
  -3   0   0    0.84    0.23
   3   0   0    0.64    0.22
   3   0   0    1.08    0.31
   3   0   0    0.95    0.29
   3   0   0    0.72    0.22
  -4   0   0   61.66    4.00
  -4   0   0   59.61    4.12
  -4   0   0   57.30    3.97
  -4   0   0   58.05    4.02
   4   0   0   62.09    4.10
   4   0   0   60.48    4.03
   4   0   0   63.84    3.98
   4   0   0   60.24    4.07
  -5   0   0    0.60    0.28
  -5   0   0    0.51    0.28
  -5   0   0    1.11    0.38
  -5   0   0    1.13    0.34
   5   0   0    0.80    0.31
   5   0   0    0.49    0.28
   5   0   0    0.89    0.39
   5   0   0    0.70    0.39
  -6   0   0  177.74   11.87
  -6   0   0  184.49   11.52
  -6   0   0  181.68   11.57
  -6   0   0  185.88   11.52
   6   0   0  178.33   11.64
   6   0   0  186.31   11.59
   6   0   0  178.60   11.46
  -7   0   0    1.31    0.54
  -7   0   0    1.44    0.59
  -7   0   0    1.06    0.44
  -7   0   0    1.39    0.54
   7   0   0    0.34    0.34
   7   0   0    1.67    0.56
   7   0   0    0.82    0.48
  -8   0   0   23.83    2.10
  -8   0   0   20.79    2.07
  -8   0   0   22.53    1.95
  -8   0   0   20.59    1.97
   8   0   0   18.99    2.02
   8   0   0   26.46    2.15
   8   0   0   23.08    2.19
   8  -1   0    9.20    1.29
   8  -1   0    6.36    1.16
  -8   1   0    9.00    1.17
  -8   1   0   10.78    1.33
  -8   1   0    8.65    1.24
  -8   1   0   11.04    1.36
   7  -1   0    4.53    0.82
   7  -1   0    6.35    0.90
   7  -1   0    5.77    0.99
   7  -1   0    5.19    0.91
  -7   1   0    5.60    0.88
  -7   1   0    5.24    0.93
  -7   1   0    6.47    0.92
  -7   1   0    7.18    1.08
   6  -1   0    6.43    0.87
   6  -1   0    4.97    0.90
   6  -1   0    3.90    0.70
   6  -1   0    4.48    0.77
  -6   1   0    6.11    0.85
  -6   1   0    8.18    1.10
  -6   1   0    7.27    0.93
  -6   1   0    5.12    1.10
   5  -1   0   72.24    4.89
   5  -1   0   72.88    4.96
   5  -1   0   74.44    5.01
   5  -1   0   79.44    5.06
  -5   1   0   76.62    4.95
  -5   1   0   73.33    4.98
  -5   1   0   71.18    5.05
  -5   1   0   77.33    4.93
   4  -1   0   23.58    1.76
   4  -1   0   23.23    1.73
   4  -1   0   24.70    1.84
   4  -1   0   21.15    1.78
  -4   1   0   23.77    1.86
  -4   1   0   24.05    1.80
  -4   1   0   25.19    1.77
  -4   1   0   22.85    1.74
   3  -1   0  123.84    7.89
   3  -1   0  128.76    7.81
   3  -1   0  119.32    7.81
  -3   1   0  127.34    7.82
  -3   1   0  126.09    7.92
  -3   1   0  119.43    7.81
  -3   1   0  125.78    7.86
   2  -1   0  118.60    7.35
   2  -1   0  117.69    7.37
   2  -1   0  116.34    7.39
   2  -1   0  113.91    7.33
  -2   1   0  115.52    7.34
  -2   1   0  119.58    7.37
  -2   1   0  120.85    7.34
  -2   1   0  120.13    7.41
   1  -1   0   18.49    1.20
   1  -1   0   17.91    1.19
   1  -1   0   18.69    1.19
   1  -1   0   17.45    1.20
  -1   1   0   18.30    1.19
  -1   1   0   16.84    1.21
  -1   1   0   18.77    1.19
  -1   1   0   17.16    1.20
  -1  -1   0   18.57    1.22
  -1  -1   0   19.15    1.21
  -1  -1   0   16.91    1.16
  -1  -1   0   17.31    1.20
   1   1   0   18.06    1.16
   1   1   0   17.95    1.21
   1   1   0   17.79    1.24
  -2  -1   0  118.67    7.40
  -2  -1   0  112.89    7.31
  -2  -1   0  116.08    7.34
  -2  -1   0  119.07    7.37
   2   1   0  121.26    7.31
   2   1   0  118.79    7.39
   2   1   0  115.20    7.36
   2   1   0  120.09    7.39
  -3  -1   0  132.13    7.95
  -3  -1   0  124.89    7.99
  -3  -1   0  120.42    8.08
  -3  -1   0  127.91    8.06
   3   1   0  126.82    8.04
   3   1   0  124.77    7.92
   3   1   0  128.98    8.04
   3   1   0  127.61    8.00
  -4  -1   0   21.53    1.73
  -4  -1   0   25.22    1.75
  -4  -1   0   25.88    1.90
  -4  -1   0   23.41    1.79
   4   1   0   22.28    1.78
   4   1   0   22.78    1.84
   4   1   0   24.63    1.73
  -5  -1   0   77.24    4.86
  -5  -1   0   77.63    4.88
  -5  -1   0   71.05    4.99
  -5  -1   0   76.02    4.92
   5   1   0   72.22    4.82
   5   1   0   68.70    4.97
   5   1   0   72.74    4.96
   5   1   0   72.41    4.92
  -6  -1   0    5.52    0.81
  -6  -1   0    6.77    1.33
  -6  -1   0    6.90    1.00
  -6  -1   0    5.08    0.78
   6   1   0    4.91    0.82
   6   1   0    4.86    0.79
   6   1   0    6.69    0.78
  -7  -1   0    5.74    1.01
  -7  -1   0    6.44    0.92
  -7  -1   0    6.09    0.93
  -7  -1   0    6.34    0.89
   7   1   0    4.87    0.89
   7   1   0    5.31    1.02
   7   1   0    6.28    0.99
  -8  -1   0    8.41    1.36
  -8  -1   0   10.06    1.28
  -8  -1   0   10.32    1.35
  -8  -1   0    9.66    1.18
   8   1   0    6.58    1.19
   8   1   0    8.33    1.30
   8   1   0   10.00    1.16
   8  -2   0    0.63    0.50
   8  -2   0   -0.05    0.55
  -8   2   0    0.45    0.51
  -8   2   0    0.65    0.63
  -8   2   0    0.49    0.47
   7  -2   0    3.52    0.83
   7  -2   0    4.08    0.75
   7  -2   0    4.09    0.78
   7  -2   0    2.96    0.65
  -7   2   0    3.59    0.68
  -7   2   0    5.84    0.99
  -7   2   0    4.80    0.85
  -7   2   0    4.06    0.85
   6  -2   0   -0.25    0.30
   6  -2   0   -0.20    0.27
   6  -2   0    0.13    0.35
   6  -2   0    0.29    0.34
  -6   2   0   -0.02    0.29
  -6   2   0   -0.01    0.31
  -6   2   0    0.18    0.32
  -6   2   0   -0.04    0.31
   5  -2   0   13.13    1.15
   5  -2   0   13.79    1.22
   5  -2   0   10.52    1.08
   5  -2   0   12.42    1.19
  -5   2   0   13.53    1.19
  -5   2   0   10.96    1.08
  -5   2   0   11.69    1.20
  -5   2   0   12.48    1.14
   4  -2   0    1.82    0.46
   4  -2   0    1.99    0.43
   4  -2   0    1.53    0.35
   4  -2   0    2.48    0.54
  -4   2   0    1.25    0.39
  -4   2   0    2.16    0.43
  -4   2   0    2.04    0.42
  -4   2   0    2.00    0.43
   3  -2   0   58.37    4.02
   3  -2   0   61.06    4.02
   3  -2   0   61.41    3.97
   3  -2   0   60.03    3.98
  -3   2   0   62.19    3.98
  -3   2   0   63.94    3.99
  -3   2   0   61.48    4.01
  -3   2   0   60.05    4.06
   2  -2   0    1.35    0.26
   2  -2   0    1.32    0.26
   2  -2   0    0.89    0.20
   2  -2   0    1.66    0.29
  -2   2   0    2.17    0.33
  -2   2   0    1.39    0.24
  -2   2   0    1.91    0.33
  -2   2   0    1.28    0.24
   1  -2   0    1.57    0.19
   1  -2   0    1.34    0.20
   1  -2   0    1.68    0.20
   1  -2   0    1.14    0.20
  -1   2   0    1.59    0.19
  -1   2   0    1.37    0.24
  -1   2   0    1.38    0.19
  -1   2   0    1.67    0.20
   0  -2   0   18.91    1.28
   0  -2   0   19.71    1.24
   0  -2   0   18.73    1.26
   0  -2   0   20.14    1.30
   0  -2   0   18.40    1.28
   0   2   0   23.13    1.79
   0   2   0   22.31    1.75
   0   2   0   20.39    1.26
   0   2   0   21.88    1.41
  -1  -2   0    1.63    0.29
  -1  -2   0    1.13    0.20
  -1  -2   0    1.77    0.18
  -1  -2   0    1.67    0.32
   1   2   0    1.53    0.16
   1   2   0    1.99    0.21
   1   2   0    1.57    0.40
  -2  -2   0    1.31    0.24
  -2  -2   0    1.70    0.34
  -2  -2   0    1.83    0.31
  -2  -2   0    1.57    0.30
   2   2   0    1.91    0.27
   2   2   0    3.08    0.46
   2   2   0    2.23    0.39
   2   2   0    1.53    0.30
  -3  -2   0   56.53    3.95
  -3  -2   0   61.55    3.94
  -3  -2   0   61.52    4.03
  -3  -2   0   60.15    3.91
   3   2   0   60.42    4.01
   3   2   0   62.47    4.01
   3   2   0   61.00    3.88
   3   2   0   59.74    4.07
  -4  -2   0    1.72    0.39
  -4  -2   0    2.52    0.51
  -4  -2   0    1.26    0.33
  -4  -2   0    2.06    0.51
   4   2   0    1.09    0.32
   4   2   0    2.35    0.39
   4   2   0    1.14    0.40
   4   2   0    1.64    0.57
  -5  -2   0   12.45    1.10
  -5  -2   0   11.51    1.15
  -5  -2   0   11.73    1.20
  -5  -2   0   12.40    1.10
   5   2   0   11.84    1.05
   5   2   0   12.63    1.21
   5   2   0   12.27    1.22
   5   2   0   11.48    1.25
  -6  -2   0   -0.08    0.36
  -6  -2   0    0.55    0.33
  -6  -2   0    0.26    0.33
   6   2   0   -0.04    0.27
   6   2   0    0.00    0.31
   6   2   0    0.19    0.41
   6   2   0    1.03    0.58
  -7  -2   0    4.38    0.96
  -7  -2   0    5.59    0.87
  -7  -2   0    4.75    0.84
  -7  -2   0    6.09    0.90
   7   2   0    4.31    0.82
   7   2   0    5.07    0.98
   7   2   0    4.25    0.96
   7   2   0    5.22    0.78
  -8  -2   0    0.89    0.59
  -8  -2   0    0.70    0.60
  -8  -2   0    0.23    0.48
  -8  -2   0    1.22    0.72
   8   2   0    0.42    0.74
   8   2   0    0.85    0.70
   8   2   0    0.28    0.49
   8  -3   0    1.55    0.62
   8  -3   0    1.87    0.69
  -8   3   0    2.39    0.77
  -8   3   0    1.62    0.66
  -8   3   0    1.83    0.62
   7  -3   0   27.50    2.25
   7  -3   0   29.36    2.32
   7  -3   0   30.60    2.43
   7  -3   0   28.71    2.37
  -7   3   0   28.02    2.31
  -7   3   0   29.29    2.26
  -7   3   0   26.97    2.41
  -7   3   0   33.24    2.65
   6  -3   0   21.41    1.77
   6  -3   0   20.38    1.70
   6  -3   0   20.18    1.66
   6  -3   0   19.25    1.74
  -6   3   0   21.04    1.92
  -6   3   0   18.52    1.73
  -6   3   0   21.31    1.68
  -6   3   0   19.76    1.69
   5  -3   0   22.83    1.84
   5  -3   0   23.78    1.79
   5  -3   0   23.01    1.84
   5  -3   0   23.46    1.80
  -5   3   0   21.94    1.75
  -5   3   0   22.06    1.78
  -5   3   0   22.27    1.83
  -5   3   0   23.00    1.90
   4  -3   0   71.78    4.67
   4  -3   0   67.97    4.64
   4  -3   0   66.28    4.58
   4  -3   0   71.32    4.60
  -4   3   0   69.47    4.70
  -4   3   0   72.14    4.66
  -4   3   0   71.41    4.61
  -4   3   0   69.95    4.59
   3  -3   0  311.24   19.46
   3  -3   0  309.50   19.41
   3  -3   0  318.69   19.46
   3  -3   0  301.15   19.40
  -3   3   0  298.68   19.48
  -3   3   0  325.23   19.45
  -3   3   0  327.72   19.43
  -3   3   0  326.38   19.42
   2  -3   0   31.37    2.06
   2  -3   0   29.65    2.04
   2  -3   0   31.11    2.07
   2  -3   0   30.17    2.04
  -2   3   0   30.69    2.04
  -2   3   0   29.78    2.06
  -2   3   0   29.73    2.08
  -2   3   0   29.31    2.03
   1  -3   0  176.57   10.55
   1  -3   0  162.57   10.51
   1  -3   0  166.11   10.52
   1  -3   0  177.68   10.53
  -1   3   0  180.79   10.52
  -1   3   0  168.50   10.53
  -1   3   0  161.27   10.54
  -1   3   0  174.62   10.55
   0  -3   0    0.21    0.08
   0  -3   0    0.75    0.39
   0  -3   0    0.34    0.13
   0  -3   0    0.11    0.07
   0  -3   0    0.32    0.12
   0  -3   0    0.29    0.08
   0   3   0    0.39    0.39
   0   3   0    0.19    0.16
   0   3   0    0.14    0.35
  -1  -3   0  166.12   10.27
  -1  -3   0  181.15   10.57
  -1  -3   0  184.90   10.52
  -1  -3   0  163.27   10.25
   1   3   0  149.37   10.78
   1   3   0  164.35   10.26
   1   3   0  152.42   10.97
   1   3   0  170.09   10.20
  -2  -3   0   29.21    2.03
  -2  -3   0   32.15    2.12
  -2  -3   0   33.01    2.16
  -2  -3   0   33.36    2.13
   2   3   0   29.25    1.99
   2   3   0   32.00    2.40
   2   3   0   28.53    2.08
  -3  -3   0  304.63   19.23
  -3  -3   0  301.42   19.28
  -3  -3   0  304.58   19.16
  -3  -3   0  298.01   19.19
   3   3   0  332.90   19.48
   3   3   0  305.55   19.11
   3   3   0  349.50   19.42
   3   3   0  297.62   19.24
  -4  -3   0   74.86    4.77
  -4  -3   0   67.63    4.66
  -4  -3   0   70.60    4.70
  -4  -3   0   72.40    4.84
   4   3   0   70.55    4.78
   4   3   0   76.06    4.97
   4   3   0   72.56    4.62
   4   3   0   72.02    4.87
  -5  -3   0   24.95    1.83
  -5  -3   0   22.38    1.85
  -5  -3   0   22.83    1.93
  -5  -3   0   23.86    1.80
   5   3   0   21.71    1.95
   5   3   0   24.59    1.92
   5   3   0   22.45    1.72
   5   3   0   26.09    2.12
  -6  -3   0   21.17    1.88
  -6  -3   0   19.88    1.67
  -6  -3   0   19.95    1.65
  -6  -3   0   20.17    1.72
   6   3   0   20.29    1.87
   6   3   0   19.58    1.93
   6   3   0   19.75    1.57
   6   3   0   19.47    1.74
  -7  -3   0   31.37    2.51
  -7  -3   0   29.77    2.29
  -7  -3   0   27.54    2.35
  -7  -3   0   30.91    2.31
   7   3   0   27.75    2.37
   7   3   0   29.67    2.19
   7   3   0   28.77    2.62
   7   3   0   28.39    2.73
  -8  -3   0    2.02    0.73
  -8  -3   0    2.09    0.73
  -8  -3   0    2.36    0.70
  -8  -3   0    2.52    0.64
   8   3   0    2.39    0.80
   8   3   0    3.30    0.98
   8  -4   0    3.09    0.74
   8  -4   0    5.03    0.95
  -8   4   0    3.74    0.93
  -8   4   0    3.78    0.94
   7  -4   0    4.36    0.90
   7  -4   0    6.64    0.91
   7  -4   0    5.85    0.84
   7  -4   0    4.32    0.80
  -7   4   0    4.56    0.85
  -7   4   0    5.08    0.85
  -7   4   0    6.60    0.92
  -7   4   0    4.57    0.84
   6  -4   0    7.23    0.92
   6  -4   0    7.05    0.88
   6  -4   0    6.69    0.90
  -6   4   0    6.75    1.01
  -6   4   0    8.43    1.47
  -6   4   0    6.11    0.82
  -6   4   0    6.15    0.90
   5  -4   0   22.47    1.81
   5  -4   0   22.77    1.76
   5  -4   0   23.70    1.78
   5  -4   0   21.12    1.80
  -5   4   0   23.81    1.82
  -5   4   0   22.04    1.82
  -5   4   0   21.77    1.88
  -5   4   0   22.13    1.74
   4  -4   0    1.23    0.36
   4  -4   0    0.89    0.29
   4  -4   0    0.62    0.27
  -4   4   0    0.65    0.30
  -4   4   0    2.49    0.58
  -4   4   0    1.38    0.35
   3  -4   0   54.03    3.51
   3  -4   0   53.64    3.53
   3  -4   0   49.86    3.52
   3  -4   0   51.91    3.50
  -3   4   0   54.93    3.52
  -3   4   0   54.48    3.56
  -3   4   0   50.52    3.57
  -3   4   0   54.84    3.51
   2  -4   0   12.79    0.93
   2  -4   0   11.67    0.93
   2  -4   0   11.04    0.91
   2  -4   0   11.13    0.94
  -2   4   0   12.32    0.92
  -2   4   0   11.92    0.95
  -2   4   0   11.09    0.95
  -2   4   0   11.93    0.93
   1  -4   0    4.09    0.35
   1  -4   0    4.37    0.41
   1  -4   0    3.83    0.38
   1  -4   0    4.18    0.41
  -1   4   0    4.05    0.40
  -1   4   0    4.50    0.43
  -1   4   0    3.66    0.37
   0  -4   0   15.91    1.27
   0  -4   0   12.98    0.95
   0  -4   0   10.50    0.84
   0  -4   0   11.03    0.89
   0  -4   0   11.01    0.83
   0   4   0   12.88    0.90
   0   4   0   15.38    1.87
   0   4   0   12.85    1.80
   0   4   0   11.24    0.78
  -1  -4   0    4.51    0.45
  -1  -4   0    5.51    1.86
  -1  -4   0    3.49    0.74
  -1  -4   0    2.74    1.39
  -1  -4   0    3.40    0.35
  -1  -4   0    4.31    0.88
   1   4   0    6.12    0.60
   1   4   0    3.92    0.35
   1   4   0    5.02    0.73
  -2  -4   0   11.10    0.88
  -2  -4   0   11.33    0.93
  -2  -4   0   12.57    1.04
  -2  -4   0   12.92    1.01
   2   4   0   11.03    0.90
   2   4   0   11.60    1.37
   2   4   0   11.03    1.68
  -3  -4   0   54.70    3.68
  -3  -4   0   54.50    3.66
  -3  -4   0   53.49    3.56
  -3  -4   0   54.23    3.62
   3   4   0   52.96    3.63
   3   4   0   54.33    3.49
   3   4   0   61.79    4.14
  -4  -4   0    0.76    0.30
  -4  -4   0    1.52    0.42
  -4  -4   0    0.78    0.32
  -4  -4   0    0.93    0.29
   4   4   0    1.17    0.53
   4   4   0    0.43    0.39
   4   4   0    1.55    0.44
   4   4   0    0.66    0.23
  -5  -4   0   22.21    1.73
  -5  -4   0   24.92    1.92
  -5  -4   0   19.81    1.77
  -5  -4   0   22.11    1.74
   5   4   0   23.01    2.00
   5   4   0   23.27    1.65
   5   4   0   22.96    1.83
   5   4   0   21.38    2.09
  -6  -4   0    7.98    0.91
  -6  -4   0    6.99    1.01
  -6  -4   0    6.52    0.86
  -6  -4   0    7.84    0.98
   6   4   0    6.70    0.79
   6   4   0   10.97    1.68
   6   4   0    6.07    1.12
  -7  -4   0    6.41    1.13
  -7  -4   0    5.86    0.88
  -7  -4   0    5.58    0.91
  -7  -4   0    7.09    0.97
   7   4   0    7.14    1.44
   7   4   0    6.45    0.99
   7   4   0    5.29    1.19
   7   4   0    6.68    0.84
  -8  -4   0    4.36    1.32
  -8  -4   0    3.54    0.82
  -8  -4   0    3.63    0.87
  -8  -4   0    2.86    0.77
   8   4   0    4.74    1.24
   8  -5   0    2.22    0.75
   8  -5   0    3.44    0.78
  -8   5   0    3.20    0.99
  -8   5   0    3.54    0.76
  -8   5   0    3.50    0.92
   7  -5   0    8.62    1.06
   7  -5   0    7.28    1.03
   7  -5   0    8.10    1.08
  -7   5   0    9.67    1.04
  -7   5   0    8.99    1.13
  -7   5   0    8.98    1.19
  -7   5   0    6.05    0.97
   6  -5   0    0.46    0.40
   6  -5   0    0.57    0.41
   6  -5   0    0.76    0.42
  -6   5   0    0.58    0.38
  -6   5   0    0.53    0.40
  -6   5   0    0.60    0.43
   5  -5   0   24.38    1.91
   5  -5   0   23.82    1.95
   5  -5   0   23.94    1.89
   5  -5   0   24.52    1.94
  -5   5   0   24.95    1.93
  -5   5   0   25.85    1.89
  -5   5   0   24.86    2.03
  -5   5   0   25.06    1.98
   4  -5   0   23.93    1.82
   4  -5   0   23.40    1.85
   4  -5   0   24.82    1.85
   4  -5   0   23.52    1.80
  -4   5   0   26.58    1.87
  -4   5   0   23.77    1.80
  -4   5   0   23.92    1.87
  -4   5   0   23.71    1.91
   3  -5   0    9.82    0.91
   3  -5   0   11.46    0.93
   3  -5   0    9.23    0.87
   3  -5   0    9.97    0.88
  -3   5   0    9.88    0.90
  -3   5   0   10.72    0.95
  -3   5   0    9.07    0.93
  -3   5   0   10.75    0.89
   2  -5   0   69.19    4.42
   2  -5   0   68.91    4.47
   2  -5   0   68.45    4.44
   2  -5   0   68.44    4.45
  -2   5   0   68.52    4.49
  -2   5   0   67.67    4.51
  -2   5   0   70.72    4.44
  -2   5   0   72.85    4.47
   1  -5   0    3.06    0.28
   1  -5   0    3.33    0.36
   1  -5   0    2.17    0.30
   1  -5   0    2.52    0.33
  -1   5   0    3.37    0.64
  -1   5   0    3.12    0.32
  -1   5   0    2.62    0.34
  -1   5   0    2.76    0.37
   0  -5   0    0.14    0.10
   0  -5   0    0.11    0.09
   0  -5   0    0.15    0.18
   0  -5   0    0.13    0.15
   0  -5   0    0.04    0.29
   0  -5   0    0.25    0.12
   0   5   0    0.01    0.70
   0   5   0    0.16    0.74
   0   5   0    0.17    0.08
   0   5   0    0.10    0.14
  -1  -5   0    3.97    0.60
  -1  -5   0    2.63    0.29
  -1  -5   0    2.58    0.78
  -1  -5   0    2.46    1.10
  -1  -5   0    3.00    1.06
  -1  -5   0    2.91    0.92
   1   5   0    3.44    0.51
   1   5   0    3.17    0.46
   1   5   0    2.74    0.29
  -2  -5   0   69.85    4.55
  -2  -5   0   72.48    4.55
  -2  -5   0   78.99    4.71
  -2  -5   0   78.29    7.18
  -2  -5   0   79.64    7.08
  -2  -5   0   76.17    4.74
   2   5   0   58.01    5.31
   2   5   0   68.11    4.52
   2   5   0   65.14    4.38
  -3  -5   0   12.16    1.02
  -3  -5   0    9.93    0.91
  -3  -5   0    8.30    0.88
  -3  -5   0   10.64    0.88
   3   5   0   10.94    1.77
   3   5   0    9.49    0.87
   3   5   0   10.87    1.55
   3   5   0    9.88    0.74
  -4  -5   0   24.66    1.97
  -4  -5   0   25.53    1.93
  -4  -5   0   27.42    1.89
  -4  -5   0   26.52    1.90
   4   5   0   25.02    1.92
   4   5   0   24.48    1.73
   4   5   0   24.74    2.44
  -5  -5   0   23.78    1.93
  -5  -5   0   24.20    1.87
  -5  -5   0   23.96    1.81
  -5  -5   0   22.66    1.80
   5   5   0   23.99    1.68
   5   5   0   22.82    2.21
   5   5   0   24.07    2.34
   5   5   0   22.32    1.86
  -6  -5   0    0.55    0.49
  -6  -5   0    0.74    0.49
  -6  -5   0    0.61    0.35
   6   5   0    0.38    0.64
   6   5   0    1.00    0.32
   6   5   0    0.60    0.35
   6   5   0    1.30    0.73
  -7  -5   0    9.80    1.14
  -7  -5   0    8.78    1.33
  -7  -5   0    8.67    1.18
  -7  -5   0    8.69    1.11
   7   5   0    9.63    1.57
   7   5   0    8.65    0.94
   7   5   0   11.68    1.82
   7   5   0    9.05    1.20
  -8  -5   0    3.41    1.13
  -8  -5   0    2.02    0.71
  -8  -5   0    3.82    0.86
  -8  -5   0    2.62    0.84
   8   5   0    1.67    1.05
   8   5   0    2.50    0.60
   8   5   0    2.14    1.12
   7  -6   0    1.07    0.52
   7  -6   0    0.59    0.48
   7  -6   0    1.29    0.51
  -7   6   0    1.42    0.54
  -7   6   0    1.27    0.64
  -7   6   0    0.37    0.61
   6  -6   0   99.97    6.58
   6  -6   0   98.73    6.62
   6  -6   0   98.53    6.64
   6  -6   0   93.58    6.56
  -6   6   0  104.62    6.57
  -6   6   0  102.49    6.63
  -6   6   0  106.36    6.73
   5  -6   0    2.08    0.48
   5  -6   0    0.46    0.29
   5  -6   0    1.41    0.45
  -5   6   0    0.77    0.33
  -5   6   0    2.03    0.49
  -5   6   0    0.48    0.41
   4  -6   0   50.19    3.45
   4  -6   0   50.68    3.45
   4  -6   0   51.78    3.50
   4  -6   0   53.80    3.46
  -4   6   0   47.21    3.53
  -4   6   0   51.26    3.42
  -4   6   0   51.20    3.47
  -4   6   0   49.75    3.51
   3  -6   0    2.67    0.43
   3  -6   0    2.11    0.40
   3  -6   0    2.28    0.46
   3  -6   0    2.46    0.46
  -3   6   0    2.01    0.41
  -3   6   0    1.73    0.39
  -3   6   0    2.32    0.48
  -3   6   0    1.75    0.37
   2  -6   0  208.67   12.33
   2  -6   0  198.97   12.29
   2  -6   0  198.58   12.30
   2  -6   0  188.10   12.23
  -2   6   0  197.87   12.31
  -2   6   0  197.06   12.35
   1  -6   0    0.20    0.16
   1  -6   0    0.42    0.19
   1  -6   0    0.23    0.13
   1  -6   0    0.12    0.08
  -1   6   0    0.12    0.15
  -1   6   0    0.17    0.16
  -1   6   0    0.32    0.14
  -1   6   0   -0.05    0.55
   0  -6   0 1000.00   55.14
   0  -6   0  960.75   55.04
   0  -6   0  953.27   54.96
   0  -6   0  931.88   54.79
   0   6   0  773.56   56.80
   0   6   0  754.77   56.62
  -1  -6   0    0.12    0.75
  -1  -6   0    0.28    0.12
  -1  -6   0   -0.12    0.42
  -1  -6   0    0.51    0.63
  -1  -6   0    0.19    0.61
  -1  -6   0    0.83    0.71
   1   6   0    0.57    0.91
   1   6   0    0.24    0.16
   1   6   0    0.29    0.13
  -2  -6   0  207.90   12.03
  -2  -6   0  176.47   14.78
  -2  -6   0  210.74   11.96
  -2  -6   0  183.50   11.74
  -2  -6   0  196.54   11.81
  -2  -6   0  167.62   14.88
   2   6   0  179.89   12.08
   2   6   0  186.03   12.24
   2   6   0  182.28   11.70
  -3  -6   0    2.14    1.99
  -3  -6   0    2.95    0.52
  -3  -6   0    1.84    0.40
  -3  -6   0    1.90    0.51
  -3  -6   0    1.14    0.37
   3   6   0    0.90    0.91
   3   6   0    1.77    0.36
   3   6   0    2.24    1.06
  -4  -6   0   51.62    3.46
  -4  -6   0   51.71    3.50
  -4  -6   0   51.58    3.45
  -4  -6   0   52.91    3.56
   4   6   0   51.16    3.25
   4   6   0   46.75    4.15
   4   6   0   49.41    4.38
   4   6   0   50.45    3.48
  -5  -6   0    0.59    0.35
  -5  -6   0    1.02    0.46
  -5  -6   0    1.15    0.38
  -5  -6   0    1.49    0.46
   5   6   0    1.22    0.45
   5   6   0    0.32    0.98
   5   6   0    1.09    0.27
  -6  -6   0  104.01    6.48
  -6  -6   0  107.61    6.70
  -6  -6   0   99.23    6.56
  -6  -6   0   98.25    6.51
   6   6   0   97.02    7.20
   6   6   0   96.43    6.26
   6   6   0   89.58    6.95
  -7  -6   0    1.17    0.61
  -7  -6   0    0.50    0.48
  -7  -6   0    0.36    0.46
  -7  -6   0    0.68    0.55
   7   6   0   -0.32    0.84
   7   6   0    0.53    0.92
   7   6   0    0.57    0.45
   7   6   0    0.78    0.36
   7  -7   0    1.97    0.59
   7  -7   0    1.40    0.52
   7  -7   0    1.90    0.65
  -7   7   0    2.20    0.79
  -7   7   0    1.69    0.56
   6  -7   0    6.55    0.93
   6  -7   0    6.48    1.00
   6  -7   0    7.27    0.88
   6  -7   0    6.30    0.90
  -6   7   0    7.75    1.43
  -6   7   0    7.67    1.51
  -6   7   0    6.24    0.97
  -6   7   0    7.46    0.93
   5  -7   0   67.82    4.74
   5  -7   0   72.40    4.76
   5  -7   0   75.26    4.83
  -5   7   0   67.79    4.70
  -5   7   0   74.88    4.80
  -5   7   0   69.01    4.91
   4  -7   0    7.94    0.86
   4  -7   0    8.93    0.93
   4  -7   0    8.39    0.86
   4  -7   0    9.47    0.95
  -4   7   0    8.61    1.00
  -4   7   0    9.06    0.93
  -4   7   0    9.70    0.89
  -4   7   0    9.53    0.97
   3  -7   0  120.55    7.76
   3  -7   0  121.84    7.85
   3  -7   0  125.99    7.82
   3  -7   0  125.25    8.31
  -3   7   0  123.13    7.89
  -3   7   0  127.47    7.79
  -3   7   0  120.34    7.84
   2  -7   0   69.35    4.34
   2  -7   0   67.63    4.33
   2  -7   0   63.10    4.21
   2  -7   0   63.66    4.29
  -2   7   0   66.32    4.36
  -2   7   0   68.90    4.39
  -2   7   0   67.84    4.28
   1  -7   0   37.26    2.56
   1  -7   0   39.56    2.61
   1  -7   0   39.27    2.60
   1  -7   0   40.06    2.67
  -1   7   0   40.85    3.85
  -1   7   0   32.84    3.31
  -1   7   0   40.26    2.70
  -1   7   0   39.62    2.51
  -1   7   0   37.97    2.66
  -1   7   0   41.84    3.79
   0  -7   0    0.29    0.16
   0  -7   0    0.07    0.14
   0  -7   0    0.15    0.12
   0  -7   0    0.05    0.28
   0  -7   0    0.37    0.27
   0   7   0    0.62    1.38
   0   7   0   -1.82    1.19
  -1  -7   0   33.27    3.45
  -1  -7   0   40.52    2.59
  -1  -7   0   39.49    2.60
  -1  -7   0   45.33    3.59
  -1  -7   0   35.66    2.46
   1   7   0   37.96    4.38
  -2  -7   0   63.37    6.39
  -2  -7   0   62.95    4.29
  -2  -7   0   68.94    4.55
  -2  -7   0   71.17    4.55
  -2  -7   0   58.74    6.10
  -2  -7   0   73.31    4.65
   2   7   0   62.55    4.26
   2   7   0   69.70    4.59
   2   7   0   69.42    4.50
  -3  -7   0  139.99   12.10
  -3  -7   0  117.99    7.79
  -3  -7   0  135.65    7.97
  -3  -7   0  102.14   11.04
  -3  -7   0  130.85    7.85
  -3  -7   0  130.13    7.84
   3   7   0  120.03    7.74
   3   7   0   97.65    8.63
  -4  -7   0    8.17    0.87
  -4  -7   0    9.94    0.97
  -4  -7   0    9.05    0.96
  -4  -7   0    8.02    3.25
  -4  -7   0    9.72    0.96
   4   7   0   10.42    2.13
   4   7   0    8.37    0.88
   4   7   0    5.95    1.73
  -5  -7   0   70.00    4.63
  -5  -7   0   71.27    4.64
  -5  -7   0   73.50    4.60
  -5  -7   0   69.00    4.71
   5   7   0   65.98    5.56
   5   7   0   66.79    4.32
   5   7   0   67.08    5.85
   5   7   0   66.85    4.63
  -6  -7   0    8.41    0.96
  -6  -7   0    7.98    1.04
  -6  -7   0    7.65    1.02
  -6  -7   0    7.78    1.00
   6   7   0    7.03    1.71
   6   7   0    6.98    0.68
  -7  -7   0    1.40    0.65
  -7  -7   0    2.10    0.58
  -7  -7   0    1.58    0.61
   7   7   0    1.57    0.38
   7   7   0    1.56    0.77
   7   7   0    2.47    1.54
   7  -8   0    1.84    0.63
   7  -8   0    1.46    0.55
   7  -8   0    1.51    0.57
  -7   8   0    1.58    0.69
  -7   8   0    1.90    0.60
   6  -8   0    5.92    0.86
   6  -8   0    7.01    1.02
   6  -8   0    6.72    0.91
  -6   8   0    5.97    1.03
  -6   8   0    5.91    0.82
  -6   8   0    5.11    0.88
   5  -8   0    4.23    0.72
   5  -8   0    4.80    0.75
   5  -8   0    5.18    0.80
   5  -8   0    3.65    0.64
  -5   8   0    4.80    0.78
  -5   8   0    3.27    0.73
  -5   8   0    4.64    0.68
   4  -8   0    2.97    0.52
   4  -8   0    2.74    0.50
   4  -8   0    3.51    0.86
   4  -8   0    1.90    0.47
  -4   8   0    2.34    0.59
  -4   8   0    2.95    0.51
  -4   8   0    3.44    0.60
   3  -8   0   10.16    0.96
   3  -8   0   12.11    1.05
   3  -8   0   11.10    1.02
   3  -8   0   10.36    0.91
  -3   8   0   11.15    1.04
  -3   8   0   12.07    1.09
  -3   8   0   11.73    0.96
   2  -8   0    5.16    0.57
   2  -8   0    5.16    0.62
   2  -8   0    4.83    0.47
   2  -8   0    6.14    0.63
  -2   8   0    8.08    1.35
  -2   8   0    5.32    0.56
  -2   8   0    6.91    0.72
  -2   8   0    4.85    0.62
   1  -8   0    0.43    0.19
   1  -8   0    0.62    0.23
   1  -8   0    0.47    0.23
   1  -8   0    0.75    0.28
  -1   8   0    0.28    0.50
  -1   8   0    0.33    0.76
  -1   8   0    0.81    0.18
  -1   8   0   -0.46    0.82
   0  -8   0  109.28    6.99
   0  -8   0  112.03    7.12
   0  -8   0  104.71    6.71
   0  -8   0  108.84    6.73
   0  -8   0  101.67    6.68
  -1  -8   0    0.13    0.12
  -1  -8   0    0.34    0.20
  -1  -8   0    0.61    0.81
  -1  -8   0    0.47    1.39
  -1  -8   0    0.30    0.95
  -1  -8   0    0.47    0.20
   1   8   0   -0.15    1.22
  -2  -8   0    5.62    1.60
  -2  -8   0    4.98    0.83
  -2  -8   0    5.66    1.71
  -2  -8   0    5.09    0.55
  -2  -8   0    4.09    0.84
  -2  -8   0    5.41    1.03
   2   8   0    6.58    0.70
   2   8   0    6.89    0.75
   2   8   0    6.18    0.58
  -3  -8   0    9.87    0.95
  -3  -8   0    9.01    3.19
  -3  -8   0    9.34    3.43
  -3  -8   0   12.35    1.08
  -3  -8   0   13.43    1.26
  -3  -8   0   10.82    1.10
   3   8   0   10.61    1.59
   3   8   0   10.30    1.41
   3   8   0   10.52    0.93
  -4  -8   0    2.65    0.54
  -4  -8   0    3.33    0.64
  -4  -8   0    4.14    0.67
  -4  -8   0    2.83    0.55
  -4  -8   0    3.04    3.25
  -4  -8   0    4.09    3.38
   4   8   0    1.98    1.33
   4   8   0    1.70    1.59
   4   8   0    3.89    0.60
  -5  -8   0    4.18    0.74
  -5  -8   0    3.85    0.65
  -5  -8   0    3.84    0.70
  -5  -8   0    4.18    0.73
  -5  -8   0   -1.22    3.65
   5   8   0    4.24    0.66
   5   8   0    6.30    1.99
   5   8   0    3.97    1.77
  -6  -8   0    6.15    0.94
  -6  -8   0    7.26    0.92
  -6  -8   0    8.02    1.04
  -6  -8   0    7.00    0.98
   6   8   0    8.10    1.93
   6   8   0    6.98    2.13
  -7  -8   0    1.37    0.57
  -7  -8   0    1.31    0.65
  -7  -8   0    0.96    0.60
  -7  -8   0    2.30    0.68
   7   8   0   -0.03    1.45
   7   8   0    0.44    1.80
   6  -9   0    6.54    0.92
   6  -9   0    5.18    0.84
   6  -9   0    7.36    0.93
  -6   9   0    8.85    0.96
   5  -9   0    5.78    0.78
   5  -9   0    5.70    0.87
   5  -9   0    6.67    0.94
   5  -9   0    7.09    0.84
  -5   9   0    6.45    0.79
  -5   9   0    6.67    1.07
  -5   9   0    5.90    0.90
   4  -9   0   25.69    1.91
   4  -9   0   25.06    1.86
   4  -9   0   22.19    1.88
   4  -9   0   22.88    1.76
  -4   9   0   24.99    1.91
  -4   9   0   24.89    1.80
   3  -9   0   90.46    5.99
   3  -9   0   91.11    5.98
   3  -9   0   90.90    5.84
   3  -9   0   92.46    6.00
  -3   9   0   91.11    6.40
  -3   9   0   94.88    5.89
  -3   9   0   96.41    6.08
   2  -9   0   17.70    1.36
   2  -9   0   15.03    1.28
   2  -9   0   16.83    1.28
   2  -9   0   15.54    1.17
  -2   9   0   20.08    2.71
  -2   9   0   18.25    2.67
  -2   9   0   19.46    2.74
  -2   9   0   16.03    1.37
  -2   9   0   17.36    1.42
   1  -9   0   47.30    3.19
   1  -9   0   45.24    3.14
   1  -9   0   53.05    3.36
   1  -9   0   47.24    3.39
   1  -9   0   49.29    3.18
  -1   9   0   53.06    5.27
  -1   9   0   41.69    4.88
   0  -9   0   -0.98    0.40
   0  -9   0    0.06    0.14
   0  -9   0    0.16    0.15
   0  -9   0    0.10    0.40
   0   9   0    0.27    2.27
   0   9   0   -0.12    2.09
  -1  -9   0   45.67    3.02
  -1  -9   0   44.96    3.00
  -1  -9   0   51.29    3.99
   1   9   0   43.57    5.05
  -2  -9   0   15.79    2.18
  -2  -9   0   17.15    2.41
  -2  -9   0   15.80    1.60
  -2  -9   0   16.84    1.53
  -2  -9   0   12.95    1.13
  -2  -9   0   16.62    2.33
   2   9   0   17.72    1.23
  -3  -9   0   99.77    6.12
  -3  -9   0   88.69    7.95
  -3  -9   0   84.05    8.03
  -3  -9   0   86.77    5.95
  -3  -9   0   89.68    6.30
  -3  -9   0   97.16    6.06
   3   9   0   92.73    5.94
   3   9   0  101.28    6.17
   3   9   0   92.11    6.23
  -4  -9   0   24.84    1.81
  -4  -9   0   25.99    2.10
  -4  -9   0   25.02    5.29
  -4  -9   0   26.21    1.88
  -4  -9   0   24.59    1.85
  -4  -9   0   22.69    5.77
   4   9   0   22.03    1.77
   4   9   0   19.59    2.28
   4   9   0   17.77    2.36
  -5  -9   0    6.38    4.20
  -5  -9   0    5.23    0.86
  -5  -9   0    6.75    0.90
  -5  -9   0    7.03    1.02
  -5  -9   0    7.05    0.82
  -5  -9   0    6.51    3.98
   5   9   0    4.36    2.05
   5   9   0   -0.06    1.65
   5   9   0    6.43    0.83
  -6  -9   0    8.00    5.77
  -6  -9   0    6.57    0.90
  -6  -9   0    8.37    1.10
  -6  -9   0    6.35    5.30
  -6  -9   0    8.22    1.03
  -6  -9   0    8.35    1.13
   6   9   0    1.39    1.90
   6   9   0    8.15    1.06
   6   9   0    5.03    2.09
   6 -10   0    9.31    1.17
   6 -10   0   10.02    1.11
   6 -10   0    9.96    1.12
  -6  10   0    8.92    1.08
   5 -10   0    8.74    0.97
   5 -10   0    7.28    1.05
   5 -10   0    9.20    0.94
   5 -10   0    8.56    1.06
  -5  10   0   10.81    1.02
   4 -10   0    0.94    0.43
   4 -10   0    1.53    0.43
   4 -10   0    1.66    0.36
   4 -10   0    0.75    0.36
  -4  10   0    1.17    0.38
  -4  10   0    1.09    0.47
  -4  10   0    1.32    0.50
   3 -10   0   23.36    1.63
   3 -10   0   25.51    1.83
   3 -10   0   23.50    1.77
   3 -10   0   22.18    1.82
  -3  10   0   21.95    2.63
  -3  10   0   22.40    1.92
  -3  10   0   25.96    1.72
   2 -10   0    8.52    0.80
   2 -10   0    8.25    0.91
   2 -10   0    7.94    0.82
   2 -10   0    5.87    0.76
  -2  10   0    7.79    0.66
  -2  10   0    4.79    1.37
  -2  10   0    7.49    2.13
  -2  10   0    8.29    2.31
  -2  10   0    7.10    0.93
   1 -10   0    0.64    0.43
   1 -10   0    1.66    0.37
   1 -10   0    1.76    0.40
   1 -10   0    1.32    0.45
   1 -10   0    1.16    0.29
  -1  10   0    0.90    1.49
  -1  10   0    0.54    1.47
   0 -10   0   33.14    2.23
   0 -10   0   35.25    2.27
   0 -10   0   29.95    2.67
   0 -10   0   33.95    2.86
   0  10   0   39.52    7.33
   0  10   0   26.94    6.67
  -1 -10   0    0.88    0.24
  -1 -10   0    1.17    1.02
  -1 -10   0    0.15    0.82
  -1 -10   0    1.63    0.33
  -1 -10   0    1.15    0.77
   1  10   0    1.66    1.53
  -2 -10   0    8.41    0.78
  -2 -10   0    6.72    1.97
  -2 -10   0    8.99    1.11
  -2 -10   0    8.60    1.24
  -2 -10   0    7.46    0.69
  -2 -10   0    7.95    0.76
  -3 -10   0   21.64    2.56
  -3 -10   0   21.83    3.15
  -3 -10   0   27.85    1.97
  -3 -10   0   25.29    3.37
  -3 -10   0   24.99    1.85
  -3 -10   0   24.19    1.97
   3  10   0   28.07    1.99
   3  10   0   23.09    1.84
   3  10   0   27.77    1.91
  -4 -10   0    1.79    0.47
  -4 -10   0    1.96    2.18
  -4 -10   0    1.39    0.82
  -4 -10   0   -0.98    2.22
  -4 -10   0    0.52    0.36
   4  10   0    0.93    0.38
   4  10   0    0.72    0.64
   4  10   0    0.50    0.67
  -5 -10   0   10.59    1.09
  -5 -10   0   10.52    1.12
  -5 -10   0   10.10    1.01
  -5 -10   0    8.97    1.36
  -5 -10   0    9.50    4.65
   5  10   0    6.20    1.52
   5  10   0    9.71    1.06
   5  10   0    6.61    1.68
  -6 -10   0    8.62    1.16
  -6 -10   0    8.71    5.23
  -6 -10   0    8.82    1.05
  -6 -10   0   14.35    6.01
  -6 -10   0    8.82    1.38
  -6 -10   0   11.91    1.19
   6  10   0    3.65    2.19
   6  10   0    8.64    1.14
   6  10   0    4.27    2.02
   5 -11   0    0.89    0.45
   5 -11   0    1.01    0.41
   5 -11   0    1.76    0.45
  -5  11   0    1.46    0.50
   4 -11   0   12.57    1.19
   4 -11   0   12.33    1.13
   4 -11   0   11.90    0.99
   4 -11   0   11.45    1.23
  -4  11   0   10.70    1.30
  -4  11   0   12.54    1.08
  -4  11   0   11.60    2.01
   3 -11   0    1.75    0.44
   3 -11   0    1.91    0.29
   3 -11   0    1.37    0.47
   3 -11   0    1.65    0.39
  -3  11   0    1.80    1.43
  -3  11   0    2.00    0.60
  -3  11   0   -0.33    1.51
  -3  11   0    1.94    0.67
  -3  11   0    1.36    1.40
  -3  11   0    2.19    0.40
   2 -11   0   17.09    1.58
   2 -11   0   15.20    1.30
   2 -11   0   15.80    1.36
   2 -11   0   17.32    1.29
   2 -11   0   15.92    1.47
  -2  11   0   14.23    3.35
   1 -11   0    3.77    0.50
   1 -11   0    4.12    0.60
   1 -11   0    3.81    0.76
   1 -11   0    3.11    0.80
   1 -11   0    3.99    0.55
  -1  11   0    2.42    2.15
  -1  11   0    0.95    2.34
   0 -11   0    0.08    0.19
   0 -11   0   -0.37    0.80
   0 -11   0    0.14    0.17
   0 -11   0    0.56    0.65
   0  11   0   -3.23    2.56
   0  11   0    0.00    2.87
  -1 -11   0    3.38    0.48
  -1 -11   0    1.93    0.94
  -1 -11   0    3.52    0.42
  -1 -11   0    3.55    1.24
  -2 -11   0   16.53    1.64
  -2 -11   0   14.20    1.15
  -2 -11   0   12.86    1.69
  -2 -11   0   16.05    1.19
  -2 -11   0   16.58    2.97
  -3 -11   0    1.00    1.33
  -3 -11   0    1.38    0.45
  -3 -11   0    1.60    0.55
  -3 -11   0    2.25    0.44
  -4 -11   0   11.88    1.13
  -4 -11   0    9.68    1.72
  -4 -11   0   11.51    2.52
  -4 -11   0    9.27    1.45
  -4 -11   0   11.20    1.16
  -4 -11   0    9.88    2.52
   4  11   0   13.84    1.34
   4  11   0   11.81    1.15
   4  11   0   13.67    1.27
  -5 -11   0   -0.20    1.03
  -5 -11   0    0.76    0.50
  -5 -11   0    0.85    0.46
  -5 -11   0    0.93    2.96
  -5 -11   0    0.19    2.64
   5  11   0    2.36    0.96
   5  11   0    0.73    0.52
   5  11   0    2.18    0.88
   5 -12   0    0.36    0.42
   5 -12   0   -0.01    0.39
   5 -12   0   -0.13    0.63
  -5  12   0    0.08    0.41
  -5  12   0    0.43    1.68
   4 -12   0    8.80    0.77
   4 -12   0    8.31    1.08
   4 -12   0   10.70    0.99
   4 -12   0    7.64    1.01
  -4  12   0    8.53    0.90
  -4  12   0    9.03    2.71
  -4  12   0    9.66    2.77
   3 -12   0    0.29    0.47
   3 -12   0   -0.13    0.41
   3 -12   0    0.50    0.32
   3 -12   0    0.29    0.28
  -3  12   0    0.17    1.37
  -3  12   0    1.24    1.72
  -3  12   0   -0.18    1.05
   2 -12   0   28.52    2.57
   2 -12   0   35.12    2.31
   2 -12   0   31.06    2.23
   2 -12   0   32.13    2.52
   2 -12   0   33.77    2.38
  -2  12   0   29.67    4.84
  -2  12   0   28.41    4.76
   1 -12   0    0.16    0.21
   1 -12   0    0.47    0.62
   1 -12   0    0.00    0.22
   1 -12   0   -0.03    0.55
  -1  12   0   -0.98    2.44
  -1  12   0   -2.75    2.59
   0 -12   0  151.54   11.26
   0 -12   0  184.23   10.41
   0 -12   0  187.43   10.45
   0 -12   0  139.95   11.01
   0  12   0  169.75   14.52
   0  12   0  157.54   14.14
  -1 -12   0   -0.57    0.87
  -1 -12   0   -0.34    0.92
  -1 -12   0    0.31    0.21
  -1 -12   0   -0.12    0.18
  -2 -12   0   31.66    2.41
  -2 -12   0   29.40    2.45
  -2 -12   0   29.49    2.05
  -2 -12   0   33.58    3.34
  -2 -12   0   29.53    2.06
  -3 -12   0    0.41    0.42
  -3 -12   0    0.02    0.35
  -3 -12   0    0.37    0.30
  -3 -12   0    0.69    1.86
  -3 -12   0    0.63    0.46
  -4 -12   0    7.79    1.00
  -4 -12   0    8.72    1.00
  -4 -12   0   12.36    2.35
  -4 -12   0    4.94    2.03
  -4 -12   0   10.45    2.30
  -4 -12   0    9.59    0.96
   4  12   0    8.70    0.94
  -5 -12   0   -1.03    1.40
  -5 -12   0    0.04    0.48
  -5 -12   0   -2.72    1.95
  -5 -12   0   -0.23    0.41
  -5 -12   0    4.02    2.26
  -5 -12   0   -0.46    0.46
   5  12   0   -0.01    0.53
   4 -13   0    1.01    0.64
   4 -13   0    0.90    0.70
   4 -13   0    2.23    0.52
  -4  13   0    2.34    1.87
  -4  13   0    2.16    1.98
  -4  13   0    2.26    0.45
   3 -13   0   45.96    3.25
   3 -13   0   45.11    3.13
   3 -13   0   44.96    3.35
   3 -13   0   47.98    3.09
   3 -13   0   40.49    3.44
  -3  13   0   46.80    5.88
  -3  13   0   39.64    5.75
   2 -13   0   17.71    1.78
   2 -13   0   16.78    1.34
   2 -13   0   16.40    1.51
   2 -13   0   22.97    2.03
   2 -13   0   15.98    1.38
  -2  13   0   15.23    4.07
  -2  13   0   10.10    3.58
   1 -13   0   11.77    1.05
   1 -13   0   13.95    1.63
   1 -13   0   12.37    1.02
   1 -13   0   15.35    1.97
  -1  13   0    9.35    4.40
  -1  13   0    6.17    3.92
   0 -13   0   -0.38    1.39
   0 -13   0    0.52    1.36
   0 -13   0    0.21    0.24
   0 -13   0   -0.14    0.24
   0  13   0    2.60    2.74
   0  13   0    0.05    2.72
  -1 -13   0   11.24    0.89
  -1 -13   0   11.43    0.93
  -1 -13   0    8.25    1.47
  -1 -13   0   10.40    1.74
  -2 -13   0   16.38    1.56
  -2 -13   0   15.35    1.21
  -2 -13   0   15.73    2.22
  -2 -13   0   16.32    1.21
  -2 -13   0   18.15    1.67
  -3 -13   0   37.56    5.17
  -3 -13   0   48.23    3.15
  -3 -13   0   46.73    3.13
  -3 -13   0   49.62    3.25
  -3 -13   0   48.37    3.27
  -4 -13   0    2.18    0.55
  -4 -13   0    3.13    2.45
  -4 -13   0    2.17    0.50
  -4 -13   0    1.51    0.49
   3 -14   0   -0.91    0.90
   3 -14   0   -0.14    0.74
   3 -14   0    1.21    0.43
  -3  14   0    1.76    2.99
  -3  14   0    1.79    3.03
   2 -14   0    9.99    1.02
   2 -14   0   11.10    1.04
   2 -14   0    8.61    1.55
   2 -14   0   10.21    1.46
  -2  14   0    5.01    3.67
  -2  14   0    9.27    4.30
   1 -14   0    0.24    0.28
   1 -14   0   -1.11    1.06
   1 -14   0    0.04    0.28
  -1  14   0    2.69    4.28
  -1  14   0   -4.91    4.31
   0 -14   0   47.77    3.10
   0 -14   0   47.25    3.06
   0  14   0   47.92    6.38
   0  14   0   38.74    6.26
  -1 -14   0    0.69    0.84
  -1 -14   0   -0.15    0.25
  -1 -14   0   -0.32    0.87
  -1 -14   0    0.00    0.23
  -2 -14   0    9.90    1.26
  -2 -14   0    9.08    0.78
  -2 -14   0    8.57    0.79
  -2 -14   0    8.58    1.09
  -3 -14   0    0.90    0.46
  -3 -14   0    1.60    0.55
  -3 -14   0    1.69    0.37
  -3 -14   0   -0.50    1.62
  -3 -14   1    0.10    0.18
  -3 -14   1    0.25    0.15
  -3 -14   1    0.14    1.32
  -2 -14   1   12.24    0.85
  -1 -14   1    0.38    0.23
  -1 -14   1    0.34    0.20
  -1 -14   1   -0.28    0.50
  -1 -14   1    1.00    0.58
   0  14  -1   -0.74    3.22
   0  14  -1    8.74    4.03
   0 -14   1    4.83    0.58
   0 -14   1    4.77    0.52
   0 -14   1    2.49    1.34
   0 -14   1    3.34    1.19
  -1  14  -1    1.84    3.50
  -1  14  -1    0.26    3.69
   1 -14   1    0.32    0.90
   1 -14   1    1.00    0.97
   1 -14   1    1.15    0.37
   1 -14   1    1.00    0.31
  -2  14  -1   -1.48    2.89
  -2  14  -1    0.83    3.53
   2 -14   1    1.99    0.50
   2 -14   1    2.14    0.96
   2 -14   1    1.72    0.45
  -4 -13   1   15.24    3.27
  -4 -13   1   20.09    1.35
  -4 -13   1   18.50    1.57
  -4 -13   1   18.76    1.34
  -4 -13   1   19.91    1.34
  -3 -13   1    9.47    0.87
  -3 -13   1    8.20    0.71
  -3 -13   1    9.33    0.74
  -3 -13   1    8.26    0.68
  -3 -13   1    9.95    2.24
  -3 -13   1    9.14    0.67
  -2 -13   1   16.74    1.13
  -2 -13   1   15.72    1.13
  -2 -13   1   17.11    1.24
  -2 -13   1   16.98    1.26
  -1 -13   1   46.93    3.30
  -1 -13   1   45.56    3.37
  -1 -13   1   47.75    2.99
  -1 -13   1   46.85    3.00
   0  13  -1    1.54    3.52
   0  13  -1   -1.99    3.04
   0 -13   1    0.22    0.21
   0 -13   1    0.76    1.10
   0 -13   1    0.17    0.23
   0 -13   1   -0.02    0.94
  -1  13  -1    7.45    3.83
  -1  13  -1    6.35    4.09
   1 -13   1   16.40    1.24
   1 -13   1   13.95    1.68
   1 -13   1   17.05    1.40
   1 -13   1   14.10    1.83
   1 -13   1   16.45    1.20
  -2  13  -1    0.49    2.68
  -2  13  -1    2.60    2.61
   2 -13   1    1.54    0.42
   2 -13   1    1.52    0.78
   2 -13   1    1.51    0.53
   2 -13   1    1.79    0.40
   2 -13   1    1.55    0.66
  -3  13  -1    2.82    2.25
  -3  13  -1    1.38    2.72
   3 -13   1    1.31    0.57
   3 -13   1    1.05    0.64
   3 -13   1    1.97    0.56
   3 -13   1    1.85    0.49
  -4  13  -1   -1.66    2.26
  -4  13  -1   -0.69    1.91
   4 -13   1    0.39    0.28
   4 -13   1    0.30    0.39
   4 -13   1    0.04    0.50
  -5 -12   1    0.20    0.34
  -5 -12   1    0.43    2.86
  -5 -12   1    0.25    0.47
  -5 -12   1    0.87    3.31
  -5 -12   1    0.59    0.31
  -5 -12   1    0.25    1.51
  -4 -12   1   13.57    3.23
  -4 -12   1    6.83    1.88
  -4 -12   1   12.52    1.00
  -4 -12   1   13.41    1.03
  -4 -12   1   16.97    3.37
  -4 -12   1   12.44    1.04
  -4 -12   1   14.92    1.24
  -4 -12   1   12.74    1.05
  -3 -12   1    0.15    0.18
  -3 -12   1    0.01    0.23
  -3 -12   1    0.01    0.23
  -3 -12   1   -0.16    0.29
  -3 -12   1    0.16    0.17
  -3 -12   1   -0.30    2.01
  -2 -12   1   47.94    2.99
  -2 -12   1   46.31    3.69
  -2 -12   1   48.71    3.01
  -2 -12   1   41.56    2.87
  -2 -12   1   43.64    2.87
  -1 -12   1    0.46    0.19
  -1 -12   1    0.57    0.56
  -1 -12   1    0.16    0.63
  -1 -12   1    0.22    0.18
   0  12  -1   15.58    5.44
   0  12  -1    6.06    3.67
   0 -12   1    3.58    1.08
   0 -12   1    1.91    1.13
   0 -12   1    5.56    0.56
   0 -12   1    5.71    0.53
  -1  12  -1    3.37    2.97
  -1  12  -1    4.06    2.96
   1 -12   1    1.88    0.40
   1 -12   1    1.63    0.63
   1 -12   1    2.06    0.49
   1 -12   1    0.99    0.62
   1 -12   1    2.10    0.36
  -2  12  -1   25.05    5.03
  -2  12  -1   21.64    4.43
   2 -12   1   24.09    1.84
   2 -12   1   26.18    1.93
   2 -12   1   21.45    1.98
   2 -12   1   27.10    1.82
   2 -12   1   25.90    2.14
  -3  12  -1   11.90    2.98
  -3  12  -1   13.81    3.27
  -3  12  -1   12.43    1.49
   3 -12   1   12.87    1.30
   3 -12   1   14.43    1.01
   3 -12   1   12.06    1.21
   3 -12   1   15.65    1.22
  -4  12  -1   24.18    4.18
  -4  12  -1   22.74    1.67
  -4  12  -1   20.42    2.57
  -4  12  -1   21.27    3.99
   4 -12   1   24.23    1.80
   4 -12   1   24.94    1.86
   4 -12   1   19.30    1.87
   4 -12   1   22.72    1.65
   5  11  -1    0.34    0.45
   5  11  -1   -0.37    0.52
  -5 -11   1   -0.08    0.31
  -5 -11   1   -0.24    0.37
  -5 -11   1    0.24    0.28
  -5 -11   1   -4.25    3.93
  -5 -11   1    1.09    0.85
  -5 -11   1    2.06    3.80
  -4 -11   1    5.98    3.27
  -4 -11   1   12.99    0.96
  -4 -11   1    9.11    1.57
  -4 -11   1   11.13    1.09
  -4 -11   1   12.78    3.58
  -4 -11   1   11.99    0.98
  -3 -11   1    1.16    1.24
  -3 -11   1    0.08    0.25
  -3 -11   1    0.39    0.25
  -3 -11   1    1.01    0.30
  -3 -11   1    0.93    1.52
  -3 -11   1    0.37    0.21
  -3 -11   1    0.32    0.20
  -2 -11   1   13.58    1.05
  -2 -11   1   16.18    2.33
  -2 -11   1   15.98    1.17
  -2 -11   1   16.75    1.22
  -2 -11   1   12.72    1.01
   1  11  -1   16.86    4.10
  -1 -11   1   11.84    1.61
  -1 -11   1   12.90    1.43
  -1 -11   1   14.49    0.99
  -1 -11   1   14.01    1.01
   0  11  -1   -0.83    2.39
   0  11  -1    1.53    2.67
   0 -11   1    0.45    0.28
   0 -11   1    0.29    0.19
   0 -11   1    1.16    0.72
   0 -11   1   -0.01    0.19
  -1  11  -1   12.42    3.68
  -1  11  -1   11.20    3.46
   1 -11   1   14.63    1.13
   1 -11   1   16.14    1.24
   1 -11   1   14.91    1.17
   1 -11   1   15.70    1.41
   1 -11   1   14.21    1.49
  -2  11  -1   11.12    2.99
  -2  11  -1    8.33    2.57
  -2  11  -1   10.09    1.10
   2 -11   1   10.36    0.91
   2 -11   1   11.22    1.11
   2 -11   1    9.49    0.99
   2 -11   1   10.78    1.09
  -3  11  -1    1.00    0.45
  -3  11  -1    0.09    0.27
  -3  11  -1    0.48    1.32
  -3  11  -1    0.59    0.45
  -3  11  -1   -0.95    1.03
  -3  11  -1    1.38    1.30
   3 -11   1    0.43    0.29
   3 -11   1    0.14    0.35
   3 -11   1    0.18    0.27
   3 -11   1   -0.08    0.20
  -4  11  -1    6.07    2.29
  -4  11  -1    2.39    1.31
  -4  11  -1    3.60    0.85
  -4  11  -1    6.61    2.21
  -4  11  -1    3.19    0.53
   4 -11   1    3.27    0.59
   4 -11   1    3.71    0.67
   4 -11   1    3.99    0.58
   4 -11   1    4.69    0.83
  -5  11  -1   14.87    1.31
   5 -11   1   14.78    1.31
   5 -11   1   13.15    1.53
   5 -11   1   14.55    1.43
   6  10  -1   32.50    2.56
   6  10  -1   25.18    3.21
   6  10  -1   27.40    3.40
  -6 -10   1   20.18    7.29
  -6 -10   1   34.47    2.60
  -6 -10   1   21.13    8.22
  -6 -10   1   36.55    2.40
  -6 -10   1   36.73    2.40
  -6 -10   1   33.04    2.70
   5  10  -1    5.06    1.00
   5  10  -1    3.11    0.67
  -5 -10   1    3.84    0.83
  -5 -10   1    4.00    0.55
  -5 -10   1    0.85    4.96
  -5 -10   1    4.19    0.61
  -5 -10   1    3.68    0.65
  -5 -10   1   -0.09    4.77
   4  10  -1  139.91    7.96
   4  10  -1  136.58    8.03
   4  10  -1  128.89    8.09
  -4 -10   1  102.62   12.58
  -4 -10   1  122.83    7.87
  -4 -10   1  121.60    7.85
  -4 -10   1  107.72   11.81
  -4 -10   1  118.37    8.02
  -4 -10   1  128.54    8.23
  -3 -10   1    3.35    2.18
  -3 -10   1    3.59    0.94
  -3 -10   1    2.57    0.41
  -3 -10   1    3.24    0.47
  -3 -10   1    2.62    0.48
  -3 -10   1    2.54    1.93
  -2 -10   1    4.53    0.51
  -2 -10   1    4.56    1.70
  -2 -10   1    5.26    0.68
  -2 -10   1    8.91    2.16
  -2 -10   1    6.15    0.66
  -2 -10   1    4.11    0.44
  -2 -10   1    4.67    0.44
  -2 -10   1    6.81    1.89
   1  10  -1    4.43    2.64
  -1 -10   1    3.90    0.41
  -1 -10   1    2.83    0.81
  -1 -10   1    4.46    0.88
  -1 -10   1    4.47    0.40
   0  10  -1   45.29    8.33
   0  10  -1   43.17    7.32
   0 -10   1   58.81    3.65
   0 -10   1   60.78    3.64
   0 -10   1   51.96    3.96
   0 -10   1   60.38    3.72
   0 -10   1   56.45    4.12
  -1  10  -1   10.13    2.95
  -1  10  -1    9.29    2.74
   1 -10   1   10.76    1.08
   1 -10   1   10.62    0.92
   1 -10   1    9.70    0.83
   1 -10   1    9.47    0.86
   1 -10   1   10.83    1.03
  -2  10  -1  155.79   13.12
  -2  10  -1  178.00   10.59
  -2  10  -1  158.25   12.58
  -2  10  -1  172.97   10.62
   2 -10   1  161.24   10.34
   2 -10   1  171.91   10.49
   2 -10   1  166.47   10.51
   2 -10   1  169.30   10.45
  -3  10  -1   18.63    1.33
  -3  10  -1   19.39    2.97
  -3  10  -1   20.81    3.04
  -3  10  -1   16.79    1.57
  -3  10  -1   18.53    2.27
   3 -10   1   17.08    1.33
   3 -10   1   17.67    1.47
   3 -10   1   18.11    1.45
   3 -10   1   16.67    1.39
  -4  10  -1   25.14    2.04
  -4  10  -1   26.05    1.83
  -4  10  -1   22.56    1.96
   4 -10   1   23.49    1.95
   4 -10   1   24.00    1.84
   4 -10   1   25.65    1.96
   4 -10   1   26.56    1.91
  -5  10  -1    0.78    0.42
   5 -10   1   -0.14    0.45
   5 -10   1    0.44    0.36
   5 -10   1    0.67    0.39
   5 -10   1    0.38    0.39
  -6  10  -1    0.59    0.51
   6 -10   1    0.34    0.47
   6 -10   1    1.01    0.57
   6 -10   1    0.28    0.50
   7   9  -1    1.73    2.43
   7   9  -1    6.97    2.76
  -7  -9   1    6.26    6.98
  -7  -9   1    8.07    1.03
  -7  -9   1    7.93    6.32
  -7  -9   1    9.85    1.38
  -7  -9   1   11.08    1.36
  -7  -9   1    9.43    1.12
   6   9  -1    0.71    0.55
   6   9  -1    2.53    2.06
   6   9  -1    1.60    2.11
  -6  -9   1    2.52    0.62
  -6  -9   1    1.32    0.43
  -6  -9   1    1.99    0.51
  -6  -9   1    0.25    4.98
  -6  -9   1   -3.25    5.56
  -6  -9   1    1.69    0.53
   5   9  -1    9.82    1.01
   5   9  -1   10.39    1.95
   5   9  -1    6.67    1.64
  -5  -9   1    9.13    6.15
  -5  -9   1    8.42    1.01
  -5  -9   1    8.13    1.07
  -5  -9   1    7.37    1.13
  -5  -9   1   10.79    0.88
  -5  -9   1   -1.64    4.59
   4   9  -1    5.19    0.75
   4   9  -1    4.19    0.83
  -4  -9   1    4.44    0.59
  -4  -9   1    1.72    4.49
  -4  -9   1    2.37    4.08
  -4  -9   1    5.33    0.70
  -4  -9   1    5.02    0.58
  -4  -9   1    5.69    0.83
   3   9  -1   15.14    1.26
   3   9  -1   15.29    1.13
  -3  -9   1   15.74    1.15
  -3  -9   1   13.38    1.47
  -3  -9   1   13.99    3.90
  -3  -9   1   14.06    1.21
  -3  -9   1   15.38    4.82
  -2  -9   1   14.41    1.14
  -2  -9   1   14.67    1.08
  -2  -9   1   20.66    3.50
  -2  -9   1   14.40    1.81
  -2  -9   1   16.81    1.26
  -2  -9   1   22.38    3.55
  -2  -9   1   15.26    1.09
   1   9  -1  215.72   16.18
  -1  -9   1  200.07   12.50
  -1  -9   1  204.16   12.50
  -1  -9   1  199.89   12.48
   0   9  -1    0.28    1.83
   0   9  -1    0.69    2.14
   0  -9   1    0.13    0.15
   0  -9   1    0.12    0.39
   0  -9   1   -0.18    0.33
   0  -9   1    0.17    0.17
   0  -9   1   -0.10    0.13
  -1   9  -1  147.79   11.74
  -1   9  -1  142.90   11.52
   1  -9   1  150.30    9.33
   1  -9   1  147.41    9.21
   1  -9   1  148.37    9.23
   1  -9   1  149.63    9.26
  -2   9  -1   29.54    3.59
  -2   9  -1   26.70    2.60
  -2   9  -1   31.02    2.15
  -2   9  -1   29.91    2.19
  -2   9  -1   29.00    1.96
  -2   9  -1   27.72    3.48
   2  -9   1   33.29    2.13
   2  -9   1   27.03    1.99
   2  -9   1   29.81    2.11
   2  -9   1   31.55    2.08
  -3   9  -1    3.31    0.59
  -3   9  -1    3.37    0.49
   3  -9   1    3.43    0.51
   3  -9   1    1.67    0.43
   3  -9   1    3.49    0.53
   3  -9   1    2.18    0.49
  -4   9  -1   18.54    1.56
  -4   9  -1   17.94    1.42
   4  -9   1   18.04    1.46
   4  -9   1   15.74    1.48
   4  -9   1   18.62    1.45
   4  -9   1   17.73    1.52
  -5   9  -1   84.71    5.86
  -5   9  -1   82.43    5.79
  -5   9  -1   90.88    5.68
   5  -9   1   83.73    5.75
   5  -9   1   92.17    5.75
   5  -9   1   86.62    5.79
   5  -9   1   87.56    5.72
  -6   9  -1   -0.09    0.40
   6  -9   1   -0.13    0.43
   6  -9   1    0.63    0.47
   6  -9   1    0.38    0.51
   7   8  -1    1.78    1.61
   7   8  -1   -2.37    1.65
  -7  -8   1    1.08    0.61
  -7  -8   1    0.55    0.51
  -7  -8   1    0.48    0.52
  -7  -8   1    1.40    0.48
   6   8  -1   13.93    2.67
   6   8  -1   11.97    2.77
  -6  -8   1   16.76    5.16
  -6  -8   1   20.01    1.56
  -6  -8   1   21.22    1.52
  -6  -8   1   15.44    2.07
  -6  -8   1   19.18    1.70
   5   8  -1    0.12    0.31
   5   8  -1    0.38    1.52
   5   8  -1   -0.01    1.61
  -5  -8   1    0.85    0.37
  -5  -8   1    0.38    0.28
  -5  -8   1    0.41    0.32
  -5  -8   1    1.77    2.93
  -5  -8   1    2.70    3.52
  -5  -8   1    0.65    0.36
   4   8  -1    3.79    1.37
   4   8  -1    7.41    1.45
   4   8  -1    7.06    0.78
  -4  -8   1    7.15    0.81
  -4  -8   1    7.48    0.70
  -4  -8   1    7.81    0.84
  -4  -8   1    7.06    4.55
  -4  -8   1    6.16    3.90
  -4  -8   1    7.70    0.75
   3   8  -1    2.22    0.47
   3   8  -1    1.58    0.45
  -3  -8   1    1.81    0.47
  -3  -8   1    1.66    0.39
  -3  -8   1    1.40    0.32
  -3  -8   1   -0.60    3.01
  -3  -8   1    4.16    3.46
  -3  -8   1    1.52    0.32
  -2  -8   1   11.12    1.21
  -2  -8   1   10.84    2.72
  -2  -8   1   12.87    1.01
  -2  -8   1   10.54    0.92
  -2  -8   1   13.90    3.33
  -2  -8   1   12.43    0.97
   1   8  -1    3.54    2.30
   1   8  -1    3.64    2.36
  -1  -8   1    2.68    0.30
  -1  -8   1    4.15    1.11
  -1  -8   1    3.02    0.85
  -1  -8   1    3.28    0.31
  -1  -8   1    2.66    0.33
  -1  -8   1    2.59    0.69
  -1  -8   1    3.37    1.34
  -1  -8   1    5.08    1.45
   0   8  -1   54.35    6.61
   0  -8   1   55.29    3.54
   0  -8   1   56.86    3.82
   0  -8   1   56.38    3.58
   0  -8   1   53.80    3.50
   0  -8   1   57.09    3.75
   0  -8   1   57.16    3.56
  -1   8  -1    6.86    2.19
  -1   8  -1   12.65    1.00
  -1   8  -1   11.09    0.96
  -1   8  -1   10.60    2.46
   1  -8   1   12.31    0.92
   1  -8   1   10.77    0.84
   1  -8   1   10.70    0.87
   1  -8   1   11.05    0.91
  -2   8  -1   11.92    2.49
  -2   8  -1    5.84    0.71
  -2   8  -1    7.15    0.72
  -2   8  -1    6.94    1.81
  -2   8  -1    8.82    1.28
  -2   8  -1    6.46    0.61
   2  -8   1    5.98    0.69
   2  -8   1    7.67    0.68
   2  -8   1    6.98    0.70
   2  -8   1    6.60    0.63
  -3   8  -1   33.21    2.29
  -3   8  -1   33.16    2.38
  -3   8  -1   36.30    2.46
   3  -8   1   32.08    2.33
   3  -8   1   32.46    2.37
   3  -8   1   30.88    2.31
   3  -8   1   35.47    2.40
  -4   8  -1    0.65    0.30
  -4   8  -1    0.69    0.39
  -4   8  -1    0.59    0.38
   4  -8   1    0.95    0.35
   4  -8   1    1.12    0.36
   4  -8   1    0.41    0.28
   4  -8   1    0.57    0.35
  -5   8  -1    3.69    0.70
  -5   8  -1    5.46    0.74
   5  -8   1    6.13    0.75
   5  -8   1    4.45    0.82
   5  -8   1    6.20    0.86
   5  -8   1    4.51    0.79
  -6   8  -1    0.02    0.84
  -6   8  -1    0.50    0.39
   6  -8   1    0.35    0.36
   6  -8   1    0.47    0.41
   6  -8   1   -0.12    0.39
  -7   8  -1    2.63    0.69
   7  -8   1    2.60    0.68
   7  -8   1    3.80    0.82
   7   7  -1   28.81    3.54
   7   7  -1   34.21    2.74
   7   7  -1   27.97    3.30
  -7  -7   1   39.38    2.77
  -7  -7   1   40.06    2.70
  -7  -7   1   38.24    2.87
  -7  -7   1   35.86    2.59
   6   7  -1    3.32    1.33
   6   7  -1    3.35    1.51
  -6  -7   1    5.43    0.69
  -6  -7   1    4.48    0.74
  -6  -7   1    5.45    0.79
  -6  -7   1    6.23    1.00
   5   7  -1   21.00    2.70
   5   7  -1   21.04    3.05
   5   7  -1   23.96    1.95
  -5  -7   1   25.82    1.84
  -5  -7   1   26.00    2.04
  -5  -7   1   26.65    1.93
  -5  -7   1   27.28    1.90
   4   7  -1   65.16    4.36
  -4  -7   1   66.29    4.30
  -4  -7   1   66.53    4.24
  -4  -7   1   64.10    4.27
  -4  -7   1   66.86    4.42
   3   7  -1   20.37    1.87
   3   7  -1   20.39    1.54
  -3  -7   1   20.45    1.46
  -3  -7   1   21.08    1.45
  -3  -7   1   19.30    1.50
  -3  -7   1   16.42    4.98
  -3  -7   1   20.92    1.56
  -3  -7   1   23.35    5.73
   2   7  -1   69.37    4.40
   2   7  -1   67.95    4.26
  -2  -7   1   71.65    4.33
  -2  -7   1   58.45    7.37
  -2  -7   1   70.46    4.37
  -2  -7   1   61.53    4.33
  -2  -7   1   71.27    4.35
  -2  -7   1   58.66    7.13
   1   7  -1  163.01   12.20
  -1  -7   1  112.65    8.96
  -1  -7   1  141.76   10.19
  -1  -7   1  119.13    8.91
  -1  -7   1  154.48   10.22
  -1  -7   1  140.79    8.43
  -1  -7   1  135.21    8.41
  -1  -7   1  142.04    8.47
   0   7  -1   -0.90    1.43
   0   7  -1    0.79    1.52
   0  -7   1    0.12    0.19
   0  -7   1    0.12    0.11
   0  -7   1    0.04    0.10
   0  -7   1    0.28    0.15
   0  -7   1   -0.18    0.20
   0  -7   1    0.20    0.13
  -1   7  -1   36.90    3.76
  -1   7  -1   36.38    2.38
  -1   7  -1   35.97    3.79
  -1   7  -1   35.12    2.40
   1  -7   1   34.01    2.35
   1  -7   1   37.01    2.37
   1  -7   1   33.89    2.35
   1  -7   1   35.32    2.34
  -2   7  -1    9.19    0.88
  -2   7  -1   10.60    0.92
  -2   7  -1   10.46    0.81
   2  -7   1   10.44    0.84
   2  -7   1    9.92    0.87
   2  -7   1   10.31    0.88
   2  -7   1    7.94    0.81
  -3   7  -1    5.82    0.76
  -3   7  -1    8.34    0.79
  -3   7  -1    7.30    0.71
   3  -7   1    7.38    0.77
   3  -7   1    7.46    1.20
   3  -7   1    6.07    0.71
   3  -7   1    6.11    0.69
  -4   7  -1    0.47    0.33
  -4   7  -1    0.19    0.32
  -4   7  -1    0.34    0.26
   4  -7   1    0.04    0.24
   4  -7   1    0.16    0.25
   4  -7   1   -0.10    0.28
   4  -7   1    0.50    0.31
  -5   7  -1    4.07    0.76
  -5   7  -1    5.30    0.75
   5  -7   1    4.77    0.72
   5  -7   1    6.64    0.98
   5  -7   1    3.89    0.68
   5  -7   1    4.19    0.69
  -6   7  -1    0.25    0.36
  -6   7  -1   -0.32    0.44
  -6   7  -1    0.70    0.53
   6  -7   1    0.41    0.38
   6  -7   1    0.08    0.43
   6  -7   1    0.33    0.41
   6  -7   1   -0.17    0.38
  -7   7  -1    1.24    0.54
   7  -7   1    0.92    0.53
   7  -7   1    0.99    1.13
   8   6  -1    8.73    1.75
   8   6  -1    8.79    1.88
   8   6  -1   10.32    1.03
  -8  -6   1   10.85    1.58
  -8  -6   1   14.14    1.59
  -8  -6   1   10.35    1.37
  -8  -6   1   14.87    1.42
   7   6  -1   21.39    1.88
   7   6  -1   21.00    1.52
   7   6  -1   19.19    2.44
  -7  -6   1   21.49    1.80
  -7  -6   1   23.57    1.76
  -7  -6   1   21.36    1.94
  -7  -6   1   20.38    1.80
   6   6  -1   -0.96    0.67
   6   6  -1    1.06    0.73
   6   6  -1    0.97    0.61
   6   6  -1   -0.02    0.19
  -6  -6   1    0.39    0.31
  -6  -6   1    0.54    0.34
  -6  -6   1    0.31    0.39
  -6  -6   1    0.58    0.38
   5   6  -1    1.36    0.40
   5   6  -1    1.26    0.80
   5   6  -1    1.92    0.95
  -5  -6   1    1.83    0.52
  -5  -6   1    1.64    0.41
  -5  -6   1    1.26    0.34
  -5  -6   1    1.64    0.40
   4   6  -1   63.70    5.25
   4   6  -1   66.47    5.19
   4   6  -1   66.80    4.51
  -4  -6   1   74.46    4.54
  -4  -6   1   67.75    4.39
  -4  -6   1   69.93    4.58
  -4  -6   1   66.33    4.42
   3   6  -1    1.15    0.94
   3   6  -1    0.85    0.80
   3   6  -1    0.30    0.18
  -3  -6   1   -0.01    1.70
  -3  -6   1    0.19    0.16
  -3  -6   1    0.33    0.21
  -3  -6   1   -0.01    0.16
  -3  -6   1    3.20    1.91
  -3  -6   1    0.27    0.20
   2   6  -1  245.01   15.83
   2   6  -1  266.51   15.84
  -2  -6   1  257.73   15.77
  -2  -6   1  276.90   20.63
  -2  -6   1  240.58   15.82
  -2  -6   1  244.79   15.74
  -2  -6   1  289.58   21.10
  -2  -6   1  258.67   15.78
   1   6  -1   -0.18    1.39
   1   6  -1    0.28    1.25
  -1  -6   1    0.49    0.12
  -1  -6   1    0.41    0.15
  -1  -6   1    0.76    0.15
  -1  -6   1    0.99    0.33
  -1  -6   1    0.55    0.14
  -1  -6   1   -0.11    0.92
  -1  -6   1    0.53    0.91
  -1  -6   1    0.05    0.37
  -1  -6   1    0.33    0.34
   0   6  -1   10.72    2.73
   0   6  -1   10.58    2.91
   0  -6   1   14.29    0.98
   0  -6   1   14.10    1.01
   0  -6   1   13.77    1.04
   0  -6   1   13.88    0.97
   0  -6   1   14.81    0.97
  -1   6  -1    0.73    0.81
  -1   6  -1    1.30    0.21
  -1   6  -1    1.11    0.27
  -1   6  -1    1.39    0.65
  -1   6  -1    1.61    0.92
  -1   6  -1    1.06    0.23
   1  -6   1    0.90    0.21
   1  -6   1    0.96    0.23
   1  -6   1    1.04    0.25
   1  -6   1    1.51    0.30
  -2   6  -1  166.73   10.18
  -2   6  -1  164.76   10.08
  -2   6  -1  164.74   10.14
   2  -6   1  155.50   10.10
   2  -6   1  151.37   10.14
   2  -6   1  168.91   10.14
   2  -6   1  165.38   10.15
  -3   6  -1   68.39    4.48
  -3   6  -1   69.75    4.43
  -3   6  -1   69.41    4.53
   3  -6   1   67.26    4.50
   3  -6   1   65.94    4.45
   3  -6   1   69.01    4.48
   3  -6   1   68.79    4.51
  -4   6  -1  116.84    7.15
  -4   6  -1  112.68    7.02
  -4   6  -1  112.46    7.08
  -4   6  -1  105.22    7.25
   4  -6   1  102.43    7.07
   4  -6   1  111.31    7.07
   4  -6   1  105.53    7.08
   4  -6   1  111.78    7.05
  -5   6  -1   41.16    2.73
  -5   6  -1   33.63    2.87
  -5   6  -1   39.20    2.78
   5  -6   1   39.54    2.76
   5  -6   1   35.48    2.70
   5  -6   1   38.96    2.81
   5  -6   1   36.41    2.77
  -6   6  -1    0.13    0.38
  -6   6  -1    0.07    0.48
  -6   6  -1    0.05    0.32
  -6   6  -1    0.65    0.48
   6  -6   1   -0.48    0.30
   6  -6   1    0.23    0.36
   6  -6   1    0.06    0.39
   6  -6   1    0.17    0.34
  -7   6  -1    0.41    0.67
  -7   6  -1    1.71    0.56
  -7   6  -1    1.06    0.69
   7  -6   1    0.97    0.55
   7  -6   1    0.74    0.50
   7  -6   1    0.63    0.58
   8   5  -1    5.05    0.70
   8   5  -1    5.08    1.30
   8   5  -1    6.28    1.55
  -8  -5   1    7.50    1.04
  -8  -5   1    5.40    0.86
  -8  -5   1    6.18    0.91
  -8  -5   1    3.57    1.03
   7   5  -1   12.11    1.50
   7   5  -1   10.34    1.56
   7   5  -1    7.55    0.99
   7   5  -1    9.86    1.20
  -7  -5   1    9.10    1.18
  -7  -5   1   11.43    1.17
  -7  -5   1   11.92    1.27
  -7  -5   1   10.41    1.13
   6   5  -1    0.86    0.27
   6   5  -1    0.72    0.62
   6   5  -1    1.21    0.75
   6   5  -1    0.29    0.33
  -6  -5   1    0.66    0.35
  -6  -5   1    0.94    0.38
  -6  -5   1    1.11    0.37
  -6  -5   1    1.01    0.45
   5   5  -1    3.16    0.90
   5   5  -1    4.58    0.72
   5   5  -1    4.58    0.47
  -5  -5   1    4.58    0.57
  -5  -5   1    4.72    0.67
  -5  -5   1    3.67    0.59
  -5  -5   1    5.70    0.91
   4   5  -1   53.48    3.55
   4   5  -1   53.85    3.80
   4   5  -1   58.70    4.12
   4   5  -1   65.54    4.29
  -4  -5   1   56.83    3.73
  -4  -5   1   58.36    3.88
  -4  -5   1   56.15    3.69
  -4  -5   1   55.37    3.70
   3   5  -1    1.70    0.72
   3   5  -1    1.54    0.37
   3   5  -1    2.94    0.79
  -3  -5   1    1.33    0.28
  -3  -5   1    1.30    0.26
  -3  -5   1    1.63    0.38
  -3  -5   1    1.27    0.28
   2   5  -1   54.78    3.67
   2   5  -1   54.41    4.00
  -2  -5   1   58.00    3.61
  -2  -5   1   73.77    6.77
  -2  -5   1   58.72    6.46
  -2  -5   1   55.21    3.68
  -2  -5   1   57.52    3.59
  -2  -5   1   54.71    3.55
   1   5  -1    3.27    1.69
  -1  -5   1    3.52    0.32
  -1  -5   1    4.15    0.55
  -1  -5   1    3.70    1.69
  -1  -5   1    2.95    0.57
  -1  -5   1    3.84    0.37
  -1  -5   1    3.04    1.63
   0   5  -1    0.66    0.96
   0   5  -1    0.53    0.86
   0  -5   1    0.41    0.13
  -1   5  -1    5.96    0.51
  -1   5  -1    8.72    1.43
  -1   5  -1    6.17    0.57
  -1   5  -1    6.70    0.56
  -1   5  -1    9.42    1.71
   1  -5   1    5.32    0.59
   1  -5   1    6.98    0.56
   1  -5   1    6.52    0.54
   1  -5   1    6.60    0.58
  -2   5  -1   31.31    2.08
  -2   5  -1   30.70    2.11
  -2   5  -1   31.49    2.05
   2  -5   1   29.52    2.07
   2  -5   1   29.30    2.06
   2  -5   1   31.22    2.11
   2  -5   1   28.18    2.11
  -3   5  -1   -0.27    0.18
  -3   5  -1    0.35    0.20
  -3   5  -1    0.18    0.22
  -3   5  -1    0.13    0.21
   3  -5   1   -0.06    0.20
   3  -5   1    0.00    0.19
   3  -5   1   -0.16    0.14
   3  -5   1    0.10    0.18
  -4   5  -1    3.11    0.71
  -4   5  -1    3.45    0.61
  -4   5  -1    3.45    0.60
  -4   5  -1    4.22    0.60
   4  -5   1    2.33    0.46
   4  -5   1    3.45    0.62
   4  -5   1    3.11    0.55
   4  -5   1    3.32    0.61
  -5   5  -1    8.40    1.00
  -5   5  -1   10.02    0.96
  -5   5  -1    8.44    1.03
  -5   5  -1    8.46    1.08
   5  -5   1    8.14    0.95
   5  -5   1    9.75    0.97
   5  -5   1    8.10    0.99
   5  -5   1    9.53    1.03
  -6   5  -1   -0.01    0.32
  -6   5  -1   -0.02    0.41
  -6   5  -1    0.20    0.38
   6  -5   1   -0.06    0.32
   6  -5   1    0.03    0.32
  -7   5  -1    4.70    0.92
  -7   5  -1    3.58    0.86
  -7   5  -1    3.62    0.74
   7  -5   1    4.16    0.81
   7  -5   1    7.61    1.18
   7  -5   1    5.33    1.02
   8   4  -1   -0.32    0.39
   8   4  -1   -0.19    0.74
   8   4  -1   -0.06    0.69
  -8  -4   1   -0.32    0.48
  -8  -4   1    0.29    0.45
  -8  -4   1   -0.51    0.44
  -8  -4   1   -0.07    0.54
   7   4  -1    2.81    0.50
   7   4  -1    4.58    1.08
   7   4  -1    1.92    0.54
   7   4  -1    0.87    0.71
  -7  -4   1    2.46    0.60
  -7  -4   1    3.64    0.65
  -7  -4   1    2.87    0.78
  -7  -4   1    2.82    0.61
   6   4  -1   90.47    5.77
   6   4  -1   87.05    5.84
   6   4  -1   84.91    5.34
   6   4  -1   84.30    5.60
  -6  -4   1   84.38    5.45
  -6  -4   1   70.31    5.72
  -6  -4   1   82.46    5.49
  -6  -4   1   84.11    5.47
   5   4  -1   10.17    0.81
   5   4  -1    8.16    0.93
   5   4  -1    8.51    1.17
   5   4  -1    8.34    1.09
  -5  -4   1    9.64    0.90
  -5  -4   1    9.77    0.93
  -5  -4   1   10.27    0.90
  -5  -4   1    9.00    1.01
   4   4  -1  192.14   11.68
   4   4  -1  197.42   11.87
   4   4  -1  188.52   11.44
  -4  -4   1  189.00   11.72
  -4  -4   1  179.63   11.56
  -4  -4   1  177.93   11.53
  -4  -4   1  176.05   11.53
   3   4  -1    8.67    0.79
   3   4  -1    9.18    1.01
   3   4  -1    9.93    0.98
   3   4  -1    7.98    0.60
  -3  -4   1    9.18    0.82
  -3  -4   1    7.76    0.71
  -3  -4   1    7.37    0.67
  -3  -4   1    8.19    0.69
   2   4  -1    8.86    0.76
   2   4  -1   10.01    1.04
  -2  -4   1    9.56    0.69
  -2  -4   1    9.06    0.70
  -2  -4   1    9.40    0.67
  -2  -4   1    8.75    0.77
  -2  -4   1   10.48    2.39
   1   4  -1   16.44    1.09
   1   4  -1   19.11    2.74
  -1  -4   1   14.06    3.54
  -1  -4   1   18.74    1.20
  -1  -4   1   15.00    1.18
  -1  -4   1   13.72    3.80
  -1  -4   1   19.45    1.19
   0   4  -1  201.36   13.25
   0   4  -1  204.33   15.02
   0   4  -1  212.47   15.21
   0   4  -1  204.22   13.25
   0  -4   1  211.13   13.24
   0  -4   1  244.63   14.46
   0  -4   1  250.06   14.55
   0  -4   1  218.48   13.25
   0  -4   1  211.16   13.23
  -1   4  -1   45.91    3.03
  -1   4  -1   48.27    3.01
  -1   4  -1   47.51    3.05
   1  -4   1   47.57    3.06
   1  -4   1   49.85    3.05
   1  -4   1   46.42    3.03
   1  -4   1   46.07    3.14
  -2   4  -1  308.63   18.44
  -2   4  -1  300.67   18.46
  -2   4  -1  295.61   18.49
   2  -4   1  295.04   18.54
   2  -4   1  305.19   18.46
   2  -4   1  304.58   18.49
   2  -4   1  289.25   18.45
  -3   4  -1   47.43    2.99
  -3   4  -1   43.54    3.03
  -3   4  -1   44.54    3.00
  -3   4  -1   43.86    3.15
   3  -4   1   42.58    2.98
   3  -4   1   42.95    2.98
   3  -4   1   45.00    3.08
   3  -4   1   44.50    3.03
  -4   4  -1   37.67    2.75
  -4   4  -1   35.11    2.81
  -4   4  -1   39.35    2.68
  -4   4  -1   41.18    2.73
   4  -4   1   36.42    2.72
   4  -4   1   37.35    2.69
   4  -4   1   38.24    2.69
   4  -4   1   41.36    2.80
  -5   4  -1    0.33    0.35
  -5   4  -1    0.22    0.23
  -5   4  -1    0.46    0.28
  -5   4  -1   -0.03    0.31
   5  -4   1    0.32    0.31
   5  -4   1    0.21    0.26
   5  -4   1    0.32    0.30
   5  -4   1   -0.10    0.25
  -6   4  -1    0.75    0.50
  -6   4  -1    0.67    0.36
  -6   4  -1    0.75    0.50
  -6   4  -1    0.14    0.38
   6  -4   1    0.08    0.36
   6  -4   1    0.44    0.42
   6  -4   1    0.40    0.47
  -7   4  -1   15.77    1.80
  -7   4  -1   17.46    1.83
  -7   4  -1   18.99    1.81
  -7   4  -1   19.35    1.68
   7  -4   1   20.24    1.76
   7  -4   1   19.57    1.80
   7  -4   1   19.19    1.78
  -8   4  -1    6.06    1.14
  -8   4  -1    6.15    1.59
  -8   4  -1    6.31    0.99
   8  -4   1    6.74    1.09
   8   3  -1    0.54    0.80
  -8  -3   1    1.17    0.64
  -8  -3   1    0.52    0.53
  -8  -3   1    0.44    0.52
  -8  -3   1    1.24    0.54
   7   3  -1   27.73    1.98
   7   3  -1   26.30    2.18
   7   3  -1   27.28    2.42
   7   3  -1   27.89    2.34
  -7  -3   1   24.33    2.03
  -7  -3   1   26.07    2.07
  -7  -3   1   25.86    2.24
  -7  -3   1   25.94    2.10
   6   3  -1    7.01    0.96
   6   3  -1    4.21    0.82
   6   3  -1    6.14    1.09
   6   3  -1    5.38    0.90
  -6  -3   1    5.46    0.72
  -6  -3   1    6.44    0.77
  -6  -3   1    6.15    0.81
  -6  -3   1    4.83    1.21
   5   3  -1   31.59    2.51
   5   3  -1   32.52    2.55
   5   3  -1   34.91    2.34
   5   3  -1   35.20    2.65
  -5  -3   1   34.95    2.45
  -5  -3   1   34.79    2.41
  -5  -3   1   35.20    2.60
  -5  -3   1   35.22    2.43
   4   3  -1   10.93    1.08
   4   3  -1   12.03    1.08
   4   3  -1   12.18    0.92
   4   3  -1   12.24    1.15
  -4  -3   1   11.68    0.97
  -4  -3   1   11.13    0.96
  -4  -3   1   12.89    1.12
  -4  -3   1   10.68    0.98
   3   3  -1   59.84    3.97
   3   3  -1   57.81    3.80
   3   3  -1   63.92    4.05
  -3  -3   1   59.59    3.86
  -3  -3   1   63.22    4.02
  -3  -3   1   59.01    3.86
   2   3  -1   27.83    1.80
   2   3  -1   27.07    1.83
   2   3  -1   24.66    1.75
  -2  -3   1   25.42    1.66
  -2  -3   1   25.81    1.69
  -2  -3   1   24.17    1.77
  -2  -3   1   24.27    1.66
   1   3  -1  778.98   48.74
   1   3  -1  778.03   48.71
  -1  -3   1  691.18   48.62
  -1  -3   1  861.58   51.06
  -1  -3   1  909.37   51.33
   0   3  -1    0.07    0.05
   0   3  -1    3.13    1.41
   0   3  -1   -0.13    0.54
   0  -3   1    0.20    0.46
   0  -3   1   -0.36    0.36
   0  -3   1    0.11    0.06
   0  -3   1    0.25    0.07
   0  -3   1    0.22    0.08
  -1   3  -1  497.76   30.56
  -1   3  -1  519.82   30.55
   1  -3   1  469.75   30.55
   1  -3   1  519.96   30.58
   1  -3   1  494.77   30.70
  -2   3  -1   86.35    5.38
  -2   3  -1   79.12    5.39
  -2   3  -1   86.64    5.36
  -2   3  -1   84.68    5.53
   2  -3   1   86.04    5.41
   2  -3   1   83.38    5.37
   2  -3   1   87.08    5.47
  -3   3  -1   15.12    1.30
  -3   3  -1   14.28    1.22
  -3   3  -1   14.74    1.19
  -3   3  -1   15.05    1.16
   3  -3   1   14.36    1.25
   3  -3   1   13.32    1.14
   3  -3   1   15.98    1.23
   3  -3   1   14.21    1.17
  -4   3  -1   49.61    3.67
  -4   3  -1   53.79    3.54
  -4   3  -1   50.71    3.61
  -4   3  -1   54.17    3.58
   4  -3   1   50.39    3.54
   4  -3   1   56.41    3.80
   4  -3   1   53.95    3.66
   4  -3   1   51.20    3.60
  -5   3  -1  234.59   15.09
  -5   3  -1  243.62   15.01
  -5   3  -1  249.33   14.92
   5  -3   1  229.66   14.98
   5  -3   1  237.45   14.94
   5  -3   1  239.14   15.05
   5  -3   1  234.45   14.90
  -6   3  -1   -0.05    0.37
  -6   3  -1    0.37    0.31
  -6   3  -1    0.47    0.37
  -6   3  -1    0.24    0.42
   6  -3   1    0.16    0.35
   6  -3   1    0.11    0.33
   6  -3   1    0.26    0.34
  -7   3  -1   90.59    6.27
  -7   3  -1   96.04    6.14
  -7   3  -1   90.50    6.35
  -7   3  -1   94.39    6.22
   7  -3   1   94.22    6.22
   7  -3   1   90.73    6.26
   7  -3   1   84.59    6.09
   7  -3   1   95.01    6.29
  -8   3  -1    6.00    0.96
  -8   3  -1    5.80    1.08
   8  -3   1    5.46    1.00
   8  -3   1    6.43    1.18
   8   2  -1    0.57    0.86
   8   2  -1    1.79    0.76
   8   2  -1    1.23    0.51
  -8  -2   1    0.80    0.51
  -8  -2   1    1.07    0.55
  -8  -2   1    0.71    0.57
  -8  -2   1    0.76    0.62
   7   2  -1    0.84    0.37
   7   2  -1    0.18    0.46
   7   2  -1   -0.03    0.39
   7   2  -1    0.49    0.47
  -7  -2   1    0.26    0.39
  -7  -2   1    0.52    0.43
  -7  -2   1    0.55    0.39
  -7  -2   1    0.64    0.45
   6   2  -1   51.47    3.69
   6   2  -1   55.65    3.90
   6   2  -1   59.32    4.02
  -6  -2   1   56.61    3.83
  -6  -2   1   55.36    3.78
  -6  -2   1   55.17    3.77
  -6  -2   1   57.18    3.99
   5   2  -1    4.61    0.55
   5   2  -1    5.40    0.87
   5   2  -1    3.24    0.61
   5   2  -1    6.67    0.95
  -5  -2   1    4.00    0.59
  -5  -2   1    4.89    0.64
  -5  -2   1    3.60    0.56
  -5  -2   1    3.56    0.69
   4   2  -1  145.09    8.70
   4   2  -1  138.41    8.81
   4   2  -1  137.57    8.85
  -4  -2   1  139.21    8.90
  -4  -2   1  142.09    8.75
  -4  -2   1  135.08    8.76
  -4  -2   1  137.13    8.73
   3   2  -1    8.62    0.78
   3   2  -1    8.03    0.74
   3   2  -1    8.64    0.67
   3   2  -1    8.62    0.79
  -3  -2   1    7.65    0.68
  -3  -2   1    8.62    0.81
  -3  -2   1    7.73    0.69
  -3  -2   1    8.57    0.72
   2   2  -1   17.60    1.25
   2   2  -1   17.32    1.28
   2   2  -1   17.80    1.16
  -2  -2   1   17.65    1.21
  -2  -2   1   17.47    1.19
  -2  -2   1   17.46    1.19
  -2  -2   1   18.17    1.30
   1   2  -1    5.29    0.51
   1   2  -1    6.15    0.41
  -1  -2   1    5.33    0.38
  -1  -2   1    5.62    0.39
  -1  -2   1    5.65    0.47
   0   2  -1  123.34    8.94
   0   2  -1  121.87    7.57
   0  -2   1  122.95    8.60
   0  -2   1  122.58    7.58
   0  -2   1  127.35    8.69
   0  -2   1  125.27    7.57
  -1   2  -1   22.14    1.48
  -1   2  -1   21.13    1.46
  -1   2  -1   22.30    1.46
   1  -2   1   21.87    1.46
   1  -2   1   22.77    1.49
   1  -2   1   21.18    1.46
   1  -2   1   21.75    1.59
  -2   2  -1  195.73   12.18
  -2   2  -1  201.67   12.24
  -2   2  -1  203.87   12.34
  -2   2  -1  197.86   12.20
   2  -2   1  201.70   12.31
   2  -2   1  195.70   12.19
   2  -2   1  185.09   12.18
   2  -2   1  195.34   12.23
  -3   2  -1   84.12    5.36
  -3   2  -1   84.88    5.29
  -3   2  -1   84.41    5.44
  -3   2  -1   82.56    5.31
   3  -2   1   81.83    5.31
   3  -2   1   79.09    5.28
   3  -2   1   79.65    5.34
  -4   2  -1    6.72    0.84
  -4   2  -1    7.97    0.87
  -4   2  -1    7.53    0.80
  -4   2  -1    7.84    0.78
   4  -2   1    7.69    0.85
   4  -2   1    7.46    0.84
   4  -2   1    6.37    0.74
   4  -2   1    6.92    0.78
  -5   2  -1    1.88    0.49
  -5   2  -1    1.87    0.44
  -5   2  -1    2.27    0.52
  -5   2  -1    2.85    0.67
   5  -2   1    3.07    0.68
   5  -2   1    2.43    0.60
   5  -2   1    2.23    0.54
   5  -2   1    2.31    0.51
  -6   2  -1    0.15    0.36
  -6   2  -1    0.38    0.40
  -6   2  -1    0.18    0.37
  -6   2  -1   -0.14    0.27
   6  -2   1    0.39    0.36
   6  -2   1    0.36    0.35
   6  -2   1    0.16    0.32
   6  -2   1    0.33    0.34
  -7   2  -1   12.25    1.49
  -7   2  -1   11.10    1.41
  -7   2  -1   12.91    1.48
  -7   2  -1   13.39    1.33
   7  -2   1   11.56    1.30
   7  -2   1   15.29    1.54
   7  -2   1   15.16    1.46
   7  -2   1   13.17    1.47
  -8   2  -1    3.60    1.46
  -8   2  -1    2.57    0.87
   8  -2   1    2.30    0.74
   8  -2   1    2.89    0.79
   8   1  -1   15.39    1.67
   8   1  -1   11.89    1.28
   8   1  -1   14.21    1.59
  -8  -1   1   13.17    1.50
  -8  -1   1   12.66    1.36
  -8  -1   1   13.66    1.41
  -8  -1   1   11.13    1.41
   7   1  -1   34.96    2.74
   7   1  -1   34.61    2.57
   7   1  -1   36.68    2.86
  -7  -1   1   37.76    2.67
  -7  -1   1   32.12    2.66
  -7  -1   1   36.89    2.66
  -7  -1   1   38.73    2.87
   6   1  -1    4.68    0.67
   6   1  -1    6.33    1.00
   6   1  -1    3.81    0.74
  -6  -1   1    5.07    0.80
  -6  -1   1    6.50    1.00
  -6  -1   1    5.75    0.72
  -6  -1   1    5.08    0.73
   5   1  -1   28.39    1.97
   5   1  -1   26.89    2.06
   5   1  -1   27.20    2.10
   5   1  -1   26.79    2.11
  -5  -1   1   29.15    2.01
  -5  -1   1   27.96    2.04
  -5  -1   1   24.47    2.11
  -5  -1   1   27.28    2.01
   4   1  -1   99.13    6.27
   4   1  -1   98.65    6.29
   4   1  -1   91.15    6.19
   4   1  -1   99.87    6.14
  -4  -1   1   93.78    6.16
  -4  -1   1   94.87    6.30
  -4  -1   1   98.17    6.21
  -4  -1   1   98.97    6.18
   3   1  -1   22.87    1.70
   3   1  -1   22.55    1.67
   3   1  -1   24.22    1.74
   3   1  -1   25.56    1.65
  -3  -1   1   22.91    1.65
  -3  -1   1   25.58    1.78
  -3  -1   1   22.99    1.68
  -3  -1   1   24.24    1.67
   2   1  -1  120.46    7.73
   2   1  -1  122.24    7.75
   2   1  -1  122.67    7.79
   2   1  -1  128.29    7.70
  -2  -1   1  125.93    7.72
  -2  -1   1  129.42    7.82
  -2  -1   1  126.11    7.72
  -2  -1   1  122.71    7.73
   1   1  -1   80.17    5.46
   1   1  -1   88.87    5.35
  -1  -1   1   89.59    5.35
  -1  -1   1   87.24    5.42
  -1  -1   1   87.21    5.34
  -1  -1   1   87.84    5.34
   0   1  -1    0.27    0.10
   0   1  -1    0.34    0.13
   0   1  -1    0.37    0.45
   0   1  -1    0.05    0.08
   0   1  -1    0.53    0.52
   0  -1   1    0.35    0.53
   0  -1   1    0.22    0.47
   0  -1   1    0.05    0.08
   0  -1   1    0.29    0.12
   0  -1   1    0.51    0.30
  -1   1  -1   29.74    2.03
  -1   1  -1   29.01    2.12
  -1   1  -1   29.73    2.00
  -1   1  -1   32.71    2.03
   1  -1   1   31.20    2.04
   1  -1   1   32.65    2.02
   1  -1   1   29.96    2.00
   1  -1   1   30.47    2.11
  -2   1  -1   32.61    2.22
  -2   1  -1   31.13    2.18
  -2   1  -1   31.83    2.28
   2  -1   1   32.82    2.25
   2  -1   1   33.95    2.30
   2  -1   1   33.78    2.20
  -3   1  -1    8.67    0.82
  -3   1  -1    9.08    0.79
  -3   1  -1    9.90    0.90
  -3   1  -1    8.53    0.89
   3  -1   1    8.59    0.81
   3  -1   1    9.42    0.89
   3  -1   1    7.49    0.76
   3  -1   1    8.19    0.85
  -4   1  -1    0.35    0.29
  -4   1  -1    0.38    0.29
  -4   1  -1   -0.02    0.23
  -4   1  -1    0.46    0.25
   4  -1   1    0.61    0.29
   4  -1   1    0.04    0.20
   4  -1   1    0.69    0.28
   4  -1   1    0.31    0.23
  -5   1  -1    0.27    0.32
  -5   1  -1    0.23    0.34
  -5   1  -1    0.76    0.34
  -5   1  -1    0.03    0.23
   5  -1   1    0.14    0.22
   5  -1   1    0.24    0.23
   5  -1   1   -0.12    0.24
   5  -1   1    0.28    0.33
  -6   1  -1   -0.14    0.33
  -6   1  -1   -0.17    0.36
  -6   1  -1   -0.21    0.33
  -6   1  -1    0.01    0.26
   6  -1   1   -0.01    0.31
   6  -1   1   -0.05    0.35
   6  -1   1    0.38    0.39
   6  -1   1    0.03    0.35
  -7   1  -1    0.09    0.48
  -7   1  -1   -0.18    0.37
  -7   1  -1    0.35    0.48
  -7   1  -1    0.11    0.35
   7  -1   1    0.04    0.42
   7  -1   1    0.02    0.50
   7  -1   1    0.36    0.43
   7  -1   1    0.38    0.50
  -8   1  -1    3.33    1.07
  -8   1  -1    4.26    0.98
   8  -1   1    7.62    1.39
   8  -1   1    6.87    1.15
   8   0  -1   17.96    1.85
   8   0  -1   19.85    1.80
   8   0  -1   18.90    1.63
  -8   0   1   20.10    1.69
  -8   0   1   15.60    1.63
  -8   0   1   16.55    1.77
  -8   0   1   16.87    2.05
   7   0  -1   35.97    2.77
   7   0  -1   36.76    2.86
   7   0  -1   35.37    2.80
  -7   0   1   35.88    2.70
  -7   0   1   36.68    2.87
  -7   0   1   37.12    2.76
  -7   0   1   38.61    2.72
   6   0  -1    1.30    0.44
   6   0  -1    1.30    0.51
   6   0  -1    1.17    0.38
   6   0  -1    1.16    0.43
  -6   0   1    0.53    0.38
  -6   0   1    1.07    0.36
  -6   0   1    0.89    0.36
  -6   0   1    0.26    0.30
   5   0  -1    3.43    0.65
   5   0  -1    3.95    0.55
   5   0  -1    2.57    0.49
   5   0  -1    3.16    0.56
  -5   0   1    3.13    0.56
  -5   0   1    1.77    0.42
  -5   0   1    3.38    0.55
  -5   0   1    3.80    0.57
   4   0  -1  172.69   10.41
   4   0  -1  163.84   10.48
   4   0  -1  168.97   10.53
   4   0  -1  157.16   10.43
  -4   0   1  160.96   10.45
  -4   0   1  161.78   10.54
  -4   0   1  177.78   10.45
  -4   0   1  169.42   10.42
   3   0  -1    0.80    0.22
   3   0  -1    0.04    0.15
   3   0  -1    0.36    0.20
   3   0  -1    0.04    0.12
  -3   0   1    0.20    0.14
  -3   0   1    0.06    0.12
  -3   0   1    0.21    0.18
   2   0  -1  417.93   24.29
   2   0  -1  384.89   24.29
   2   0  -1  392.87   24.31
  -2   0   1  386.98   24.28
  -2   0   1  396.64   24.30
  -2   0   1  389.06   24.35
  -2   0   1  410.78   24.30
   1   0  -1    0.85    0.13
   1   0  -1    0.72    0.13
   1   0  -1    1.18    0.15
   1   0  -1    1.00    0.15
  -1   0   1    1.24    0.14
  -1   0   1    0.94    0.15
  -1   0   1    0.85    0.14
  -1   0   1    1.05    0.15
   0   0  -1   26.52    2.27
   0   0  -1   30.17    2.75
   0   0  -1   33.26    2.85
   0   0  -1   26.95    2.34
   0   0   1   39.01    3.07
   0   0   1   29.27    2.39
   0   0   1   39.74    3.03
   0   0   1   39.89    2.65
  -1   0  -1   12.16    0.95
  -1   0  -1   10.63    0.82
  -1   0  -1   11.57    0.90
  -1   0  -1   10.66    0.89
   1   0   1   12.01    0.93
   1   0   1   11.45    0.89
   1   0   1   10.79    0.83
  -2   0  -1  319.62   19.29
  -2   0  -1  304.17   19.22
  -2   0  -1  327.77   19.33
  -2   0  -1  306.50   19.33
   2   0   1  311.92   19.33
   2   0   1  323.45   19.29
   2   0   1  307.62   19.22
   2   0   1  301.98   19.32
  -3   0  -1   98.69    6.30
  -3   0  -1  102.22    6.46
  -3   0  -1  100.01    6.41
  -3   0  -1   95.23    6.34
   3   0   1   99.71    6.42
   3   0   1   98.56    6.41
   3   0   1   99.29    6.29
  -4   0  -1  221.68   13.51
  -4   0  -1  207.46   13.30
  -4   0  -1  209.52   13.41
  -4   0  -1  220.71   13.37
   4   0   1  220.42   13.45
   4   0   1  208.11   13.40
   4   0   1  213.94   13.45
   4   0   1  204.03   13.28
  -5   0  -1   68.19    4.93
  -5   0  -1   72.06    4.77
  -5   0  -1   73.42    4.82
   5   0   1   70.02    4.74
   5   0   1   75.67    4.96
   5   0   1   71.38    4.90
   5   0   1   71.32    4.85
  -6   0  -1    0.51    0.37
  -6   0  -1    0.05    0.37
  -6   0  -1    0.41    0.34
  -6   0  -1    0.23    0.40
   6   0   1    0.45    0.40
   6   0   1    0.54    0.45
   6   0   1    0.78    0.36
  -7   0  -1    1.42    0.49
  -7   0  -1    0.95    0.51
  -7   0  -1    1.86    0.62
  -7   0  -1    2.35    0.65
   7   0   1    2.12    0.66
   7   0   1    1.39    0.61
   7   0   1    3.16    0.75
   7   0   1    2.85    0.78
  -8   0  -1   31.20    2.89
  -8   0  -1   21.45    2.13
  -8   0  -1   19.57    2.21
  -8   0  -1   29.99    3.33
   8   0   1   22.41    2.21
   8   0   1   23.78    2.36
   8  -1  -1   13.69    1.52
   8  -1  -1   12.89    1.34
   8  -1  -1   12.76    1.43
  -8   1   1   12.64    1.35
  -8   1   1   11.81    1.44
  -8   1   1   11.37    1.42
  -8   1   1   13.53    1.40
   7  -1  -1   36.72    2.82
   7  -1  -1   38.08    2.93
   7  -1  -1   35.07    2.86
  -7   1   1   36.80    2.75
  -7   1   1   39.23    2.84
  -7   1   1   39.25    2.79
  -7   1   1   38.18    2.93
   6  -1  -1    5.54    0.80
   6  -1  -1    6.13    0.82
   6  -1  -1    6.27    0.91
   6  -1  -1    5.62    0.71
  -6   1   1    5.66    0.98
  -6   1   1    6.19    0.81
  -6   1   1    4.41    0.72
  -6   1   1    3.39    0.62
   5  -1  -1   27.11    2.11
   5  -1  -1   26.60    2.11
   5  -1  -1   29.00    2.04
   5  -1  -1   27.79    2.06
  -5   1   1   27.51    2.16
  -5   1   1   27.96    2.04
  -5   1   1   27.93    2.08
  -5   1   1   27.06    2.04
   4  -1  -1   92.20    6.11
   4  -1  -1   96.05    6.15
   4  -1  -1   91.62    6.06
   4  -1  -1   94.98    6.04
  -4   1   1   95.60    6.09
  -4   1   1   95.66    6.17
  -4   1   1   96.94    6.07
  -4   1   1   93.81    6.05
   3  -1  -1   25.79    1.87
   3  -1  -1   25.78    1.85
   3  -1  -1   24.27    1.80
   3  -1  -1   26.17    1.81
  -3   1   1   26.80    1.84
  -3   1   1   26.73    1.82
  -3   1   1   25.84    1.88
  -3   1   1   26.41    1.83
   2  -1  -1  122.68    7.89
   2  -1  -1  130.33    7.91
   2  -1  -1  127.29    7.87
   2  -1  -1  131.54    7.88
  -2   1   1  128.65    7.88
  -2   1   1  124.36    7.89
  -2   1   1  121.98    7.91
   1  -1  -1   90.41    5.52
   1  -1  -1   89.83    5.52
   1  -1  -1   90.58    5.53
  -1   1   1   85.87    5.51
  -1   1   1   87.96    5.53
  -1   1   1   88.96    5.52
   0  -1  -1    0.03    0.12
   0  -1  -1    0.29    0.42
   0  -1  -1    0.20    0.14
   0   1   1    0.61    0.50
   0   1   1    0.36    0.17
   0   1   1    0.14    0.12
  -1  -1  -1   34.85    2.37
  -1  -1  -1   32.64    2.20
  -1  -1  -1   31.79    2.54
  -1  -1  -1   31.65    2.22
   1   1   1   31.61    2.22
   1   1   1   38.76    2.43
   1   1   1   31.15    2.18
   1   1   1   35.76    2.46
  -2  -1  -1   30.73    2.20
  -2  -1  -1   32.35    2.29
  -2  -1  -1   36.19    2.38
   2   1   1   31.02    2.27
   2   1   1   34.52    2.39
   2   1   1   33.03    2.20
   2   1   1   33.33    2.33
  -3  -1  -1    9.03    0.82
  -3  -1  -1    9.16    0.89
  -3  -1  -1   10.06    0.94
  -3  -1  -1    9.10    0.90
   3   1   1    8.55    0.79
   3   1   1    7.49    0.86
   3   1   1   10.31    1.01
  -4  -1  -1    0.34    0.28
  -4  -1  -1    0.08    0.27
  -4  -1  -1    0.90    0.29
  -4  -1  -1    0.52    0.28
   4   1   1    0.05    0.20
   4   1   1    0.40    0.35
   4   1   1    0.54    0.35
   4   1   1    0.28    0.20
  -5  -1  -1   -0.13    0.29
  -5  -1  -1   -0.04    0.27
  -5  -1  -1    0.02    0.21
  -5  -1  -1    0.26    0.37
   5   1   1    0.33    0.25
   5   1   1    0.61    0.35
   5   1   1    0.07    0.32
   5   1   1    0.34    0.38
  -6  -1  -1    0.53    0.34
  -6  -1  -1    0.29    0.37
  -6  -1  -1    0.09    0.38
  -6  -1  -1    0.51    0.46
   6   1   1    0.54    0.39
   6   1   1   -0.46    0.26
   6   1   1    0.13    0.41
  -7  -1  -1    0.13    0.44
  -7  -1  -1    0.44    0.39
  -7  -1  -1    0.28    0.51
  -7  -1  -1    0.30    0.52
   7   1   1    0.22    0.50
   7   1   1    0.08    0.44
   7   1   1    1.57    0.69
   7   1   1    0.23    0.55
  -8  -1  -1    3.85    0.94
  -8  -1  -1    6.28    1.24
   8   1   1    6.13    1.30
   8   1   1    6.42    1.20
   8  -2  -1    1.34    0.68
   8  -2  -1    0.95    0.57
  -8   2   1    1.45    0.61
  -8   2   1    1.25    0.50
  -8   2   1    0.41    0.49
  -8   2   1    1.23    0.59
   7  -2  -1    1.05    0.47
   7  -2  -1    0.22    0.33
   7  -2  -1    1.21    0.44
   7  -2  -1    0.45    0.39
  -7   2   1    0.90    0.45
  -7   2   1    0.44    0.43
  -7   2   1    0.56    0.34
  -7   2   1    0.18    0.39
   6  -2  -1   59.61    3.92
   6  -2  -1   54.07    3.77
   6  -2  -1   54.72    3.82
   6  -2  -1   54.62    3.88
  -6   2   1   53.08    3.84
  -6   2   1   56.13    3.96
  -6   2   1   53.75    3.94
  -6   2   1   57.69    3.82
   5  -2  -1    2.68    0.57
   5  -2  -1    5.38    0.73
   5  -2  -1    4.83    0.62
   5  -2  -1    3.22    0.67
  -5   2   1    4.60    0.71
  -5   2   1    4.81    0.60
  -5   2   1    4.90    0.67
  -5   2   1    3.91    0.73
   4  -2  -1  142.83    9.10
   4  -2  -1  147.25    9.19
   4  -2  -1  140.60    9.16
  -4   2   1  142.25    9.11
  -4   2   1  154.51    9.14
  -4   2   1  145.40    9.15
  -4   2   1  140.15    9.21
   3  -2  -1    7.80    0.76
   3  -2  -1    8.02    0.77
   3  -2  -1    8.41    0.75
   3  -2  -1    8.13    0.74
  -3   2   1    8.89    0.80
  -3   2   1    8.97    0.75
  -3   2   1    8.30    0.77
  -3   2   1    9.11    0.77
   2  -2  -1   15.74    1.23
   2  -2  -1   19.17    1.27
   2  -2  -1   19.19    1.27
  -2   2   1   18.15    1.28
  -2   2   1   17.40    1.25
  -2   2   1   17.08    1.26
  -2   2   1   16.29    1.24
   1  -2  -1    5.73    0.44
   1  -2  -1    5.99    0.47
   1  -2  -1    5.54    0.46
   1  -2  -1    5.24    0.47
  -1   2   1    5.56    0.44
  -1   2   1    5.74    0.47
  -1   2   1    5.37    0.46
  -1   2   1    5.48    0.48
   0  -2  -1  120.09    7.54
   0  -2  -1  115.62    7.46
   0   2   1  119.91    7.45
   0   2   1  110.73    8.51
   0   2   1  122.85    7.51
  -1  -2  -1   22.81    1.54
  -1  -2  -1   18.87    1.86
  -1  -2  -1   18.25    1.76
  -1  -2  -1   23.36    1.57
   1   2   1   23.49    1.54
   1   2   1   22.52    2.07
   1   2   1   23.63    1.97
   1   2   1   21.75    1.52
  -2  -2  -1  191.64   12.92
  -2  -2  -1  217.02   13.04
  -2  -2  -1  217.35   13.11
  -2  -2  -1  194.85   12.86
   2   2   1  231.82   13.18
   2   2   1  226.08   13.26
   2   2   1  194.01   12.84
   2   2   1  197.41   12.92
  -3  -2  -1   84.42    5.67
  -3  -2  -1   90.27    5.68
  -3  -2  -1   81.50    5.54
  -3  -2  -1   90.38    5.73
   3   2   1   85.15    5.64
   3   2   1   91.58    5.85
   3   2   1   84.83    5.53
   3   2   1   87.84    5.74
  -4  -2  -1    7.61    0.88
  -4  -2  -1    7.22    0.84
  -4  -2  -1    7.40    0.81
  -4  -2  -1    5.37    0.69
   4   2   1    4.91    0.88
   4   2   1    6.83    0.80
   4   2   1    6.80    0.87
   4   2   1    7.23    0.72
  -5  -2  -1    3.04    0.56
  -5  -2  -1    2.22    0.60
  -5  -2  -1    1.65    0.47
  -5  -2  -1    2.42    0.64
   5   2   1    3.59    0.74
   5   2   1    1.78    0.42
   5   2   1    1.56    0.40
   5   2   1    1.33    0.54
  -6  -2  -1    0.12    0.36
  -6  -2  -1    0.37    0.45
  -6  -2  -1    0.48    0.41
  -6  -2  -1    0.37    0.31
   6   2   1   -0.04    0.30
   6   2   1    0.25    0.35
   6   2   1   -0.20    0.41
   6   2   1    0.31    0.31
  -7  -2  -1   14.98    1.38
  -7  -2  -1   11.45    1.42
  -7  -2  -1   11.50    1.48
  -7  -2  -1   13.97    1.43
   7   2   1   12.14    1.45
   7   2   1   13.69    1.55
   7   2   1   13.25    1.87
  -8  -2  -1    1.23    0.80
  -8  -2  -1    1.60    0.70
  -8  -2  -1    2.80    0.81
   8   2   1    1.66    0.83
   8   2   1    2.05    0.89
   8   2   1    0.96    0.71
   8  -3  -1    0.85    0.57
   8  -3  -1    1.05    0.65
  -8   3   1    0.09    0.41
  -8   3   1    2.29    0.71
  -8   3   1   -0.11    0.57
   7  -3  -1   24.73    2.20
   7  -3  -1   25.08    2.11
   7  -3  -1   25.12    2.06
   7  -3  -1   26.51    2.20
  -7   3   1   26.55    2.09
  -7   3   1   27.29    2.11
  -7   3   1   28.35    2.28
  -7   3   1   28.71    2.20
   6  -3  -1    4.41    0.70
   6  -3  -1    4.78    0.73
   6  -3  -1    6.33    0.77
   6  -3  -1    6.32    0.83
  -6   3   1    6.65    0.94
  -6   3   1    6.74    0.85
  -6   3   1    5.56    0.79
   5  -3  -1   32.84    2.46
   5  -3  -1   36.86    2.48
   5  -3  -1   34.18    2.53
   5  -3  -1   35.14    2.53
  -5   3   1   35.35    2.48
  -5   3   1   32.90    2.50
  -5   3   1   31.81    2.55
  -5   3   1   35.81    2.48
   4  -3  -1   12.23    1.05
   4  -3  -1   11.33    1.00
   4  -3  -1   10.75    1.03
   4  -3  -1   11.92    1.01
  -4   3   1   11.63    1.04
  -4   3   1    9.93    1.02
  -4   3   1   11.25    1.00
  -4   3   1   12.27    1.02
   3  -3  -1   61.38    3.82
   3  -3  -1   58.61    3.82
   3  -3  -1   58.94    3.79
  -3   3   1   54.00    3.77
  -3   3   1   57.63    3.82
  -3   3   1   55.49    3.80
  -3   3   1   58.71    3.79
   2  -3  -1   22.38    1.67
   2  -3  -1   24.57    1.67
   2  -3  -1   25.36    1.70
   2  -3  -1   23.31    1.70
  -2   3   1   25.73    1.70
  -2   3   1   24.55    1.68
  -2   3   1   24.98    1.70
   1  -3  -1  772.43   47.96
  -1   3   1  749.34   47.84
   0  -3  -1   -0.10    0.13
   0  -3  -1   -0.02    0.15
   0  -3  -1    0.03    0.49
   0   3   1    0.10    0.13
   0   3   1    0.06    0.08
   0   3   1    0.41    0.19
   0   3   1    0.25    0.41
  -1  -3  -1  389.77   27.84
  -1  -3  -1  483.88   27.18
  -1  -3  -1  489.44   27.30
   1   3   1  383.92   27.77
   1   3   1  456.98   27.15
   1   3   1  373.52   27.96
   1   3   1  507.85   27.20
  -2  -3  -1   94.33    5.90
  -2  -3  -1   92.17    5.82
  -2  -3  -1   83.17    5.58
  -2  -3  -1   82.84    5.61
   2   3   1   85.48    5.59
   2   3   1   91.45    6.06
   2   3   1   92.32    6.21
   2   3   1   84.58    5.53
  -3  -3  -1   13.76    1.22
  -3  -3  -1   13.94    1.27
  -3  -3  -1   15.80    1.35
  -3  -3  -1   12.60    1.14
   3   3   1   16.62    1.50
   3   3   1   14.65    1.53
   3   3   1   13.86    1.20
   3   3   1   14.56    1.12
  -4  -3  -1   55.26    3.68
  -4  -3  -1   51.67    3.70
  -4  -3  -1   51.12    3.56
  -4  -3  -1   49.73    3.68
   4   3   1   57.92    3.98
   4   3   1   51.66    3.66
   4   3   1   54.32    3.53
   4   3   1   53.79    3.84
  -5  -3  -1  242.08   15.13
  -5  -3  -1  243.44   15.06
  -5  -3  -1  240.19   14.98
  -5  -3  -1  243.72   15.19
   5   3   1  239.78   15.12
   5   3   1  232.03   15.06
   5   3   1  239.74   15.36
   5   3   1  235.99   15.22
  -6  -3  -1    0.01    0.38
  -6  -3  -1    0.00    0.33
  -6  -3  -1    0.61    0.48
  -6  -3  -1   -0.09    0.28
   6   3   1   -0.24    0.45
   6   3   1    0.63    0.36
   6   3   1   -0.16    0.46
  -7  -3  -1   96.17    6.43
  -7  -3  -1   94.53    6.34
  -7  -3  -1   90.61    6.49
  -7  -3  -1   95.90    6.31
   7   3   1   91.71    6.43
   7   3   1   99.90    6.74
   7   3   1   95.55    6.57
  -8  -3  -1    7.25    1.17
  -8  -3  -1    5.99    1.06
  -8  -3  -1    4.50    0.98
  -8  -3  -1    4.24    0.92
   8   3   1    6.10    0.91
   8   3   1    5.40    1.36
   8   3   1    6.98    1.32
   8  -4  -1    0.09    0.51
   8  -4  -1    0.68    0.52
  -8   4   1   -0.08    0.44
  -8   4   1   -0.64    0.60
  -8   4   1    0.08    0.51
   7  -4  -1    1.92    0.57
   7  -4  -1    2.47    0.56
   7  -4  -1    3.00    0.61
   7  -4  -1    2.19    0.60
  -7   4   1    3.21    0.78
  -7   4   1    2.92    0.61
  -7   4   1    3.89    0.74
  -7   4   1    3.02    0.81
   6  -4  -1   88.67    6.29
   6  -4  -1   81.93    5.59
   6  -4  -1   82.50    5.64
  -6   4   1   79.43    5.70
  -6   4   1   83.60    5.60
  -6   4   1   89.45    5.69
  -6   4   1   89.00    5.61
   5  -4  -1   10.16    0.97
   5  -4  -1   10.21    0.94
   5  -4  -1    8.21    0.94
   5  -4  -1    8.86    0.92
  -5   4   1    7.35    0.90
  -5   4   1    9.29    0.98
  -5   4   1    8.00    0.94
  -5   4   1   10.34    0.95
   4  -4  -1  191.88   12.14
   4  -4  -1  192.28   12.16
   4  -4  -1  194.57   12.33
   4  -4  -1  190.10   12.11
  -4   4   1  205.26   12.13
  -4   4   1  188.96   12.11
  -4   4   1  197.94   12.17
  -4   4   1  188.64   12.19
   3  -4  -1    8.32    0.76
   3  -4  -1    8.44    0.75
   3  -4  -1    7.41    0.73
   3  -4  -1    7.79    0.77
  -3   4   1    8.51    0.77
  -3   4   1    8.45    0.76
  -3   4   1    7.44    0.82
   2  -4  -1    8.73    0.80
   2  -4  -1    9.06    0.79
   2  -4  -1    9.56    0.80
   2  -4  -1    9.51    0.75
  -2   4   1   10.11    0.78
  -2   4   1   10.38    0.81
  -2   4   1    8.91    0.81
   1  -4  -1   16.15    1.04
   1  -4  -1   15.48    1.16
   1  -4  -1   14.64    1.13
   1  -4  -1   17.19    1.15
  -1   4   1   15.04    1.04
  -1   4   1   14.84    1.17
  -1   4   1   16.50    1.38
  -1   4   1   14.70    1.15
  -1   4   1   17.05    1.13
   0  -4  -1  218.08   13.00
   0  -4  -1  214.15   12.77
   0  -4  -1  206.74   12.87
   0   4   1  198.69   12.76
   0   4   1  207.34   13.21
   0   4   1  206.67   12.65
   0   4   1  208.58   13.26
   0   4   1  184.99   13.06
  -1  -4  -1   38.26    4.20
  -1  -4  -1   45.85    3.88
  -1  -4  -1   46.50    3.16
  -1  -4  -1   46.20    3.52
  -1  -4  -1   44.00    2.89
  -1  -4  -1   40.53    3.67
   1   4   1   45.20    2.91
   1   4   1   42.91    2.91
   1   4   1   46.59    3.54
  -2  -4  -1  311.54   18.53
  -2  -4  -1  326.82   18.93
  -2  -4  -1  314.89   18.80
  -2  -4  -1  288.62   18.50
   2   4   1  267.96   19.42
   2   4   1  292.52   18.46
   2   4   1  290.15   19.28
   2   4   1  300.56   18.41
  -3  -4  -1   41.66    3.07
  -3  -4  -1   48.89    3.20
  -3  -4  -1   40.62    3.00
  -3  -4  -1   47.97    3.26
   3   4   1   49.20    3.77
   3   4   1   44.12    3.05
   3   4   1   41.82    2.93
   3   4   1   47.82    3.59
  -4  -4  -1   38.24    2.85
  -4  -4  -1   36.09    2.79
  -4  -4  -1   37.78    2.70
   4   4   1   44.20    3.30
   4   4   1   37.24    2.61
   4   4   1   39.24    3.08
   4   4   1   39.63    2.79
  -5  -4  -1   -0.24    0.32
  -5  -4  -1    0.16    0.32
  -5  -4  -1    0.21    0.30
  -5  -4  -1    0.27    0.30
   5   4   1    0.18    0.27
   5   4   1    0.67    0.65
   5   4   1    0.00    0.47
   5   4   1    0.42    0.27
  -6  -4  -1    0.14    0.33
  -6  -4  -1   -0.08    0.31
  -6  -4  -1   -0.18    0.46
  -6  -4  -1   -0.24    0.41
   6   4   1    0.47    0.36
   6   4   1    0.57    0.62
   6   4   1    0.70    0.58
  -7  -4  -1   19.75    1.78
  -7  -4  -1   20.92    1.92
  -7  -4  -1   19.67    1.95
   7   4   1   17.67    1.81
   7   4   1   20.35    2.24
   7   4   1   19.41    2.09
   7   4   1   18.76    1.64
  -8  -4  -1    7.99    1.20
  -8  -4  -1    7.66    1.32
   8   4   1    8.80    1.53
   8   4   1    8.43    1.54
   8   4   1    7.34    1.04
   8  -5  -1    8.93    1.26
   8  -5  -1    6.05    0.98
  -8   5   1    6.34    1.09
  -8   5   1    5.80    1.13
  -8   5   1    8.03    1.10
   7  -5  -1   10.79    1.14
   7  -5  -1   10.76    1.23
   7  -5  -1    8.53    1.14
   7  -5  -1    8.69    1.11
  -7   5   1   10.60    1.29
  -7   5   1   10.73    1.11
  -7   5   1   10.94    1.20
  -7   5   1   10.35    1.24
   6  -5  -1    1.24    0.41
   6  -5  -1    1.20    0.43
   6  -5  -1    1.29    0.42
  -6   5   1    2.65    0.65
  -6   5   1    1.53    0.49
  -6   5   1    0.88    0.49
  -6   5   1    0.32    0.30
   5  -5  -1    3.25    0.56
   5  -5  -1    3.60    0.60
   5  -5  -1    3.74    0.58
   5  -5  -1    5.04    0.70
  -5   5   1    3.38    0.58
  -5   5   1    3.47    0.65
  -5   5   1    2.94    0.55
  -5   5   1    3.09    0.57
   4  -5  -1   57.72    3.81
   4  -5  -1   55.35    3.84
   4  -5  -1   58.83    3.81
   4  -5  -1   58.69    3.82
  -4   5   1   55.78    3.79
  -4   5   1   55.94    3.85
  -4   5   1   54.91    3.80
  -4   5   1   57.40    3.86
   3  -5  -1    1.52    0.37
   3  -5  -1    0.78    0.24
   3  -5  -1    1.39    0.31
   3  -5  -1    1.01    0.32
  -3   5   1    1.04    0.29
  -3   5   1    1.70    0.35
  -3   5   1    1.19    0.36
   2  -5  -1   54.15    3.61
   2  -5  -1   53.23    3.63
   2  -5  -1   54.98    3.63
   2  -5  -1   57.66    3.55
  -2   5   1   56.96    3.64
  -2   5   1   53.22    3.57
  -2   5   1   56.45    3.61
  -2   5   1   57.26    3.67
   1  -5  -1    3.91    0.42
   1  -5  -1    3.29    0.39
   1  -5  -1    3.18    0.46
   1  -5  -1    2.75    0.36
  -1   5   1    3.27    0.52
  -1   5   1    3.00    0.36
  -1   5   1    3.97    0.82
  -1   5   1    3.23    0.29
   0  -5  -1    0.04    0.14
   0  -5  -1   -0.25    0.45
   0  -5  -1   -0.16    0.11
   0  -5  -1    0.20    0.26
   0  -5  -1    0.01    0.23
   0   5   1    0.50    0.58
   0   5   1   -0.44    0.51
   0   5   1   -0.07    0.33
   0   5   1    0.13    0.11
  -1  -5  -1    5.55    1.40
  -1  -5  -1    7.40    1.13
  -1  -5  -1    7.55    0.98
  -1  -5  -1    5.72    0.55
  -1  -5  -1    5.93    0.94
   1   5   1    9.44    1.32
   1   5   1    5.94    0.58
  -2  -5  -1   34.40    4.78
  -2  -5  -1   33.03    2.29
  -2  -5  -1   29.18    2.11
  -2  -5  -1   27.49    2.41
  -2  -5  -1   31.62    2.58
  -2  -5  -1   34.17    4.17
   2   5   1   28.89    2.06
   2   5   1   29.68    2.02
  -3  -5  -1   -0.04    0.28
  -3  -5  -1    0.21    0.25
  -3  -5  -1    0.21    0.19
  -3  -5  -1    0.05    0.28
   3   5   1   -0.02    0.64
   3   5   1   -0.17    0.68
   3   5   1    0.59    0.22
   3   5   1    0.55    0.27
  -4  -5  -1    3.02    0.54
  -4  -5  -1    2.61    0.60
  -4  -5  -1    2.53    0.59
  -4  -5  -1    3.04    0.63
   4   5   1    2.68    0.92
   4   5   1    3.28    1.19
   4   5   1    2.83    0.46
   4   5   1    2.84    0.54
  -5  -5  -1   10.48    1.12
  -5  -5  -1   10.07    1.06
  -5  -5  -1    7.73    1.08
  -5  -5  -1   10.38    1.02
   5   5   1    9.55    1.54
   5   5   1    8.45    1.59
   5   5   1    8.31    1.01
   5   5   1    9.29    0.88
  -6  -5  -1    0.63    0.44
  -6  -5  -1    0.07    0.34
  -6  -5  -1    0.21    0.31
   6   5   1   -0.02    0.29
   6   5   1   -1.19    0.68
   6   5   1    0.27    0.66
  -7  -5  -1    5.40    0.92
  -7  -5  -1    3.51    0.75
  -7  -5  -1    4.11    0.95
  -7  -5  -1    4.78    0.83
   7   5   1    5.00    0.74
   7   5   1    5.33    0.97
   7   5   1    6.05    1.28
   7   5   1    5.30    1.45
   8  -6  -1   13.32    1.44
   8  -6  -1   13.11    1.53
  -8   6   1   12.90    1.41
  -8   6   1   11.56    1.52
   7  -6  -1   19.46    1.77
   7  -6  -1   22.47    1.90
   7  -6  -1   21.18    1.84
  -7   6   1   20.85    1.77
  -7   6   1   21.73    1.96
   6  -6  -1    0.03    0.30
   6  -6  -1    0.51    0.35
   6  -6  -1    0.71    0.38
  -6   6   1    0.40    0.31
  -6   6   1   -0.04    0.41
  -6   6   1    0.29    0.38
  -6   6   1    0.04    0.32
   5  -6  -1    1.55    0.45
   5  -6  -1    2.04    0.53
   5  -6  -1    1.33    0.38
   5  -6  -1    1.02    0.40
  -5   6   1    1.29    0.46
  -5   6   1    1.97    0.49
  -5   6   1    1.75    0.48
  -5   6   1    1.40    0.39
   4  -6  -1   67.04    4.62
   4  -6  -1   73.76    4.63
   4  -6  -1   70.41    4.56
   4  -6  -1   65.24    4.57
  -4   6   1   70.70    4.58
  -4   6   1   69.76    4.61
  -4   6   1   67.95    4.64
  -4   6   1   71.78    4.67
   3  -6  -1    0.22    0.20
   3  -6  -1    0.22    0.21
   3  -6  -1    0.43    0.27
   3  -6  -1    0.45    0.22
  -3   6   1    0.48    0.26
  -3   6   1    0.03    0.23
  -3   6   1    0.28    0.19
  -3   6   1    0.45    0.28
   2  -6  -1  247.30   14.77
   2  -6  -1  255.14   14.81
   2  -6  -1  238.03   14.66
   2  -6  -1  241.16   14.80
  -2   6   1  236.64   14.83
  -2   6   1  222.88   14.71
  -2   6   1  228.31   14.79
  -2   6   1  240.23   14.75
   1  -6  -1    0.24    0.15
   1  -6  -1    0.25    0.21
   1  -6  -1    0.62    0.20
   1  -6  -1    0.63    0.23
  -1   6   1    0.74    0.68
  -1   6   1    0.84    0.20
  -1   6   1    0.55    0.25
   0  -6  -1   15.19    1.31
   0  -6  -1   13.18    1.35
   0  -6  -1   12.81    1.09
   0  -6  -1   13.52    1.64
   0  -6  -1   14.63    1.10
   0   6   1   12.68    1.24
   0   6   1   13.70    2.44
   0   6   1   14.11    0.99
   0   6   1   13.82    2.60
  -1  -6  -1    1.73    1.03
  -1  -6  -1    1.10    0.76
  -1  -6  -1   -0.53    0.68
   1   6   1    1.14    0.27
   1   6   1    1.33    0.24
   1   6   1    1.61    0.48
   1   6   1    1.23    0.20
  -2  -6  -1  162.54    9.96
  -2  -6  -1  139.56   10.94
  -2  -6  -1  134.53   10.78
  -2  -6  -1  143.73    9.75
  -2  -6  -1  146.38    9.31
  -2  -6  -1  169.93    9.60
   2   6   1  128.17   10.17
   2   6   1  155.12    9.21
   2   6   1  149.57    9.26
  -3  -6  -1   70.96    4.66
  -3  -6  -1   66.85    6.86
  -3  -6  -1   69.84    4.52
  -3  -6  -1   72.90    4.76
  -3  -6  -1   65.96    4.47
   3   6   1   51.80    5.54
   3   6   1   67.15    4.42
   3   6   1   67.36    4.29
  -4  -6  -1  108.04    7.15
  -4  -6  -1  111.93    7.22
  -4  -6  -1  109.02    7.20
  -4  -6  -1  122.93    7.34
   4   6   1  105.34    7.12
   4   6   1  117.98    8.43
   4   6   1  108.54    8.00
   4   6   1  105.13    6.94
  -5  -6  -1   38.42    2.81
  -5  -6  -1   40.19    2.90
  -5  -6  -1   37.03    2.77
  -5  -6  -1   36.54    2.85
   5   6   1   37.65    3.78
   5   6   1   38.77    2.59
   5   6   1   36.91    2.79
   5   6   1   37.36    3.46
  -6  -6  -1    0.22    0.40
  -6  -6  -1    0.12    0.51
  -6  -6  -1    0.42    0.44
  -6  -6  -1    0.04    0.32
   6   6   1    0.32    0.31
   6   6   1   -0.45    0.82
   6   6   1    0.60    1.04
  -7  -6  -1    1.55    0.66
  -7  -6  -1    0.35    0.52
  -7  -6  -1    0.59    0.57
  -7  -6  -1    0.47    0.68
   7   6   1    1.95    1.04
   7   6   1    0.71    1.11
   7   6   1    1.42    0.49
   7  -7  -1   38.54    2.81
   7  -7  -1   37.44    2.80
   7  -7  -1   38.22    2.87
  -7   7   1   37.20    2.76
  -7   7   1   35.67    2.93
  -7   7   1   35.77    2.82
   6  -7  -1    4.99    0.80
   6  -7  -1    3.55    0.67
   6  -7  -1    4.33    0.78
   6  -7  -1    4.36    0.77
  -6   7   1    6.06    0.83
  -6   7   1    5.53    0.85
  -6   7   1    5.44    0.97
  -6   7   1    2.68    0.60
   5  -7  -1   25.84    2.06
   5  -7  -1   28.36    2.11
   5  -7  -1   26.40    2.03
   5  -7  -1   26.85    2.02
  -5   7   1   25.37    2.11
  -5   7   1   29.53    2.05
  -5   7   1   25.62    2.07
   4  -7  -1   67.75    4.43
   4  -7  -1   69.66    4.54
   4  -7  -1   67.41    4.48
   4  -7  -1   68.85    4.52
  -4   7   1   64.35    4.49
  -4   7   1   65.15    4.53
  -4   7   1   68.57    4.57
  -4   7   1   69.92    4.47
   3  -7  -1   22.36    1.63
   3  -7  -1   19.62    1.60
   3  -7  -1   20.76    1.49
   3  -7  -1   20.19    1.57
  -3   7   1   21.35    1.66
  -3   7   1   23.52    1.65
  -3   7   1   19.45    1.55
  -3   7   1   20.75    1.59
   2  -7  -1   63.84    4.25
   2  -7  -1   63.99    4.11
   2  -7  -1   64.21    4.28
   2  -7  -1   69.15    4.30
  -2   7   1   65.37    4.22
  -2   7   1   64.44    4.31
  -2   7   1   70.87    4.73
  -2   7   1   64.38    4.33
   1  -7  -1  151.21    9.38
   1  -7  -1  145.02    9.26
   1  -7  -1  145.57    9.29
   1  -7  -1  147.76    9.45
   1  -7  -1  152.51    9.29
  -1   7   1  156.37   10.71
  -1   7   1  143.89    9.20
   0  -7  -1   -0.08    0.34
   0  -7  -1   -0.11    0.14
   0  -7  -1   -0.17    0.30
   0  -7  -1    0.46    0.46
   0  -7  -1    0.15    0.17
   0   7   1    0.29    1.26
   0   7   1    0.12    0.12
   0   7   1    0.09    0.32
  -1  -7  -1   33.84    3.36
  -1  -7  -1   26.90    3.46
  -1  -7  -1   35.25    3.48
   1   7   1   36.35    2.44
   1   7   1   34.70    2.17
   1   7   1   35.58    2.52
   1   7   1   34.57    2.23
   1   7   1   31.71    2.18
  -2  -7  -1    8.66    1.28
  -2  -7  -1   11.68    1.96
  -2  -7  -1    8.26    1.35
  -2  -7  -1   10.58    1.85
  -2  -7  -1    6.48    1.30
  -2  -7  -1    9.83    0.85
   2   7   1    9.46    0.79
   2   7   1    9.45    0.73
   2   7   1   10.48    1.29
   2   7   1   10.13    0.74
   2   7   1   11.15    1.62
  -3  -7  -1    8.36    1.06
  -3  -7  -1    8.20    2.56
  -3  -7  -1    5.61    0.69
  -3  -7  -1    4.36    2.37
  -3  -7  -1    7.00    1.04
  -3  -7  -1    7.28    1.04
   3   7   1    5.10    0.53
   3   7   1    7.02    1.58
   3   7   1    6.37    1.80
   3   7   1    5.78    0.64
  -4  -7  -1    0.19    0.39
  -4  -7  -1    2.74    2.50
  -4  -7  -1    0.20    0.27
  -4  -7  -1    0.96    0.41
  -4  -7  -1    0.06    0.42
   4   7   1    0.43    0.21
   4   7   1    0.45    0.28
   4   7   1   -0.53    1.17
  -5  -7  -1    6.03    0.98
  -5  -7  -1    4.38    0.79
  -5  -7  -1    8.77    1.17
  -5  -7  -1    5.40    0.83
   5   7   1    3.62    1.48
   5   7   1    3.67    0.65
   5   7   1    7.05    1.93
   5   7   1    5.22    0.61
  -6  -7  -1    0.67    0.49
  -6  -7  -1    0.21    0.51
  -6  -7  -1   -0.22    0.43
  -6  -7  -1   -0.11    0.37
   6   7   1   -0.22    1.05
   6   7   1    0.22    0.30
   6   7   1    0.87    1.17
  -7  -7  -1    1.93    0.66
  -7  -7  -1    0.85    0.66
  -7  -7  -1    1.05    0.64
  -7  -7  -1    0.95    0.57
   7   7   1    0.51    1.16
   7   7   1    1.02    0.46
   7   7   1    0.49    1.40
   7  -8  -1    0.41    0.54
   7  -8  -1    0.14    0.49
   7  -8  -1    0.58    0.47
  -7   8   1    0.91    0.49
  -7   8   1    0.33    0.59
   6  -8  -1   20.19    1.94
   6  -8  -1   19.72    1.67
   6  -8  -1   20.29    1.78
   6  -8  -1   18.13    1.68
  -6   8   1   20.06    1.85
  -6   8   1   21.76    1.69
  -6   8   1   21.89    1.78
   5  -8  -1    0.77    0.39
   5  -8  -1    0.38    0.36
   5  -8  -1    0.37    0.28
   5  -8  -1    0.49    0.34
  -5   8   1    0.60    0.32
  -5   8   1    0.94    0.45
  -5   8   1    0.47    0.40
   4  -8  -1    7.05    0.75
   4  -8  -1    7.41    0.82
   4  -8  -1    8.32    0.89
  -4   8   1    8.42    0.84
  -4   8   1    8.97    0.92
  -4   8   1    8.57    0.96
   3  -8  -1    1.67    0.30
   3  -8  -1    1.13    0.36
   3  -8  -1    1.33    0.36
   3  -8  -1    0.64    0.33
  -3   8   1    1.08    0.36
  -3   8   1    1.22    0.32
  -3   8   1    0.81    0.35
  -3   8   1    1.51    0.40
   2  -8  -1   11.81    0.85
   2  -8  -1   12.81    1.06
   2  -8  -1   13.32    1.14
   2  -8  -1   11.38    1.00
   2  -8  -1   10.60    1.02
  -2   8   1   13.06    1.14
  -2   8   1   12.41    0.98
  -2   8   1   12.25    1.81
  -2   8   1   13.79    1.17
   1  -8  -1    2.21    0.43
   1  -8  -1    4.06    0.66
   1  -8  -1    2.99    0.45
   1  -8  -1    2.69    0.58
   1  -8  -1    3.93    0.50
  -1   8   1    2.71    1.05
  -1   8   1    3.40    0.39
  -1   8   1    2.33    1.25
  -1   8   1    3.24    1.26
   0  -8  -1   50.90    3.93
   0  -8  -1   50.37    3.47
   0  -8  -1   55.23    3.84
   0  -8  -1   54.83    3.51
   0   8   1   54.28    3.35
   0   8   1   46.15    6.19
   0   8   1   46.24    6.15
   0   8   1   55.04    3.47
  -1  -8  -1   12.06    1.05
  -1  -8  -1   13.05    2.31
  -1  -8  -1   10.58    0.99
  -1  -8  -1    6.09    1.70
  -1  -8  -1    5.90    1.59
   1   8   1   11.29    0.83
   1   8   1   11.09    0.96
   1   8   1    9.41    0.72
  -2  -8  -1    6.38    0.69
  -2  -8  -1   10.22    1.54
  -2  -8  -1    7.17    1.32
  -2  -8  -1    7.67    1.42
  -2  -8  -1    8.88    1.47
  -2  -8  -1    5.85    1.17
   2   8   1    9.43    1.38
   2   8   1    8.56    1.05
   2   8   1    6.56    0.62
  -3  -8  -1   32.58    2.54
  -3  -8  -1   37.42    2.72
  -3  -8  -1   33.28    2.27
  -3  -8  -1   35.85    2.68
  -3  -8  -1   28.04    3.93
  -3  -8  -1   26.07    3.79
   3   8   1   25.85    3.03
   3   8   1   26.14    2.83
   3   8   1   30.54    2.02
   3   8   1   32.70    2.20
   3   8   1   30.23    2.01
  -4  -8  -1    0.71    0.34
  -4  -8  -1    0.75    0.46
  -4  -8  -1    1.78    2.02
  -4  -8  -1    0.32    0.41
  -4  -8  -1    0.75    2.31
  -4  -8  -1    0.54    0.53
   4   8   1    0.68    1.07
   4   8   1    0.83    0.22
   4   8   1    0.97    0.33
   4   8   1   -0.05    1.15
  -5  -8  -1    7.09    1.03
  -5  -8  -1    7.27    1.04
  -5  -8  -1    5.43    0.86
  -5  -8  -1    5.47    0.96
  -5  -8  -1    5.85    3.47
   5   8   1    5.57    0.58
   5   8   1    3.38    1.78
   5   8   1    6.30    0.95
  -6  -8  -1   -0.34    0.47
  -6  -8  -1    0.84    0.55
  -6  -8  -1    0.62    0.60
  -6  -8  -1   -0.55    0.38
   6   8   1    0.21    1.41
   6   8   1   -0.01    0.26
   6   8   1    0.12    0.45
  -7  -8  -1    3.16    0.78
  -7  -8  -1    2.58    0.90
  -7  -8  -1    2.30    0.75
  -7  -8  -1    2.24    0.83
   7   8   1    3.81    0.55
   7   8   1    3.33    1.66
   7   8   1    3.79    1.84
   7  -9  -1    8.10    1.06
   7  -9  -1    9.93    1.12
   7  -9  -1    5.72    0.94
  -7   9   1    7.83    1.02
  -7   9   1    7.57    1.32
   6  -9  -1    1.31    0.45
   6  -9  -1    1.05    0.48
   6  -9  -1    1.45    0.49
  -6   9   1    0.89    0.53
  -6   9   1    1.05    0.42
   5  -9  -1   10.35    1.08
   5  -9  -1    9.22    1.05
   5  -9  -1    9.08    0.92
   5  -9  -1    9.30    1.00
  -5   9   1    9.80    1.14
  -5   9   1    8.64    1.09
  -5   9   1    8.29    1.10
  -5   9   1   10.60    1.15
   4  -9  -1    5.13    0.73
   4  -9  -1    4.79    0.79
   4  -9  -1    4.59    0.57
   4  -9  -1    5.11    0.65
  -4   9   1    4.83    0.78
  -4   9   1    4.35    0.64
   3  -9  -1   13.92    1.20
   3  -9  -1   14.58    1.25
   3  -9  -1   15.33    1.07
   3  -9  -1   14.52    1.26
  -3   9   1   13.89    1.81
  -3   9   1   14.24    1.32
  -3   9   1   15.35    1.19
  -3   9   1   13.11    1.27
   2  -9  -1   16.24    1.32
   2  -9  -1   14.13    1.23
   2  -9  -1   16.66    1.30
   2  -9  -1   17.89    1.40
  -2   9   1   15.98    1.20
  -2   9   1   15.29    1.38
  -2   9   1   15.98    2.63
   1  -9  -1  212.87   13.13
   1  -9  -1  198.61   13.07
   1  -9  -1  227.70   13.46
   1  -9  -1  233.10   13.37
  -1   9   1  211.34   15.00
  -1   9   1  193.44   13.39
  -1   9   1  197.53   14.75
  -1   9   1  211.44   12.99
   0  -9  -1    0.24    0.19
   0  -9  -1    0.32    0.50
   0  -9  -1   -0.10    0.16
   0  -9  -1   -0.07    0.49
   0   9   1    1.19    1.94
   0   9   1    0.09    2.19
   0   9   1   -0.01    0.21
   0   9   1    0.12    0.12
  -1  -9  -1  140.24    9.01
  -1  -9  -1  124.29   10.23
  -1  -9  -1  160.31   10.42
  -1  -9  -1  146.46    9.05
  -2  -9  -1   23.49    2.54
  -2  -9  -1   21.69    3.14
  -2  -9  -1   29.13    2.78
   2   9   1   34.13    2.37
   2   9   1   29.63    1.95
   2   9   1   29.05    2.33
  -3  -9  -1    3.04    0.86
  -3  -9  -1    4.52    1.46
  -3  -9  -1    4.41    0.67
  -3  -9  -1    2.64    0.96
  -3  -9  -1    3.17    0.78
  -3  -9  -1    1.98    1.17
   3   9   1    3.75    1.02
   3   9   1    3.34    0.52
   3   9   1    2.32    0.88
  -4  -9  -1   12.69    3.39
  -4  -9  -1   19.37    1.68
  -4  -9  -1   15.47    1.82
  -4  -9  -1   19.04    1.58
  -4  -9  -1   18.19    3.49
  -4  -9  -1   16.11    1.42
   4   9   1   11.83    2.35
   4   9   1   16.36    1.35
   4   9   1    9.71    2.07
  -5  -9  -1   85.32    8.69
  -5  -9  -1   90.44    5.73
  -5  -9  -1   82.50    5.66
  -5  -9  -1  105.01    9.92
  -5  -9  -1   90.30    5.65
   5   9   1   65.44    6.40
   5   9   1   80.19    7.32
   5   9   1   81.35    5.57
  -6  -9  -1    1.69    3.63
  -6  -9  -1    0.01    0.58
  -6  -9  -1    2.27    4.36
  -6  -9  -1   -0.15    0.50
  -6  -9  -1   -0.44    0.69
   6   9   1    2.62    1.71
   6   9   1   -0.20    0.54
   6   9   1    1.26    1.53
   6 -10  -1   34.75    2.56
   6 -10  -1   28.38    2.83
   6 -10  -1   33.92    2.45
  -6  10   1   35.36    2.50
   5 -10  -1    2.69    0.61
   5 -10  -1    3.49    0.63
   5 -10  -1    3.88    0.68
   5 -10  -1    4.70    0.79
  -5  10   1    2.93    0.72
  -5  10   1    4.77    0.68
   4 -10  -1  123.70    7.80
   4 -10  -1  121.39    7.83
   4 -10  -1  120.62    7.84
   4 -10  -1  121.74    7.64
  -4  10   1  120.08    7.88
  -4  10   1  122.12    7.93
  -4  10   1  122.45    7.73
   3 -10  -1    2.64    0.56
   3 -10  -1    2.59    0.35
   3 -10  -1    3.07    0.52
   3 -10  -1    3.48    0.62
  -3  10   1    2.77    0.48
  -3  10   1    3.49    1.26
   2 -10  -1    7.73    0.88
   2 -10  -1    4.65    0.68
   2 -10  -1    8.48    1.18
   2 -10  -1    5.80    0.78
   2 -10  -1    4.25    0.64
  -2  10   1    6.81    2.00
  -2  10   1    5.16    1.87
  -2  10   1    6.07    0.60
  -2  10   1    5.55    1.89
   1 -10  -1    4.44    0.57
   1 -10  -1    4.37    0.80
   1 -10  -1    6.30    1.10
   1 -10  -1    4.45    0.53
  -1  10   1    1.24    1.54
  -1  10   1    3.98    0.73
  -1  10   1    4.39    1.87
  -1  10   1    3.91    0.43
   0 -10  -1   52.62    3.60
   0 -10  -1   54.71    4.16
   0 -10  -1   55.25    4.36
   0 -10  -1   57.59    3.66
   0  10   1   53.77    6.99
   0  10   1   55.86    7.02
  -1 -10  -1   10.23    1.95
  -1 -10  -1    8.76    2.27
  -1 -10  -1    7.45    1.89
  -1 -10  -1    8.80    0.88
  -1 -10  -1    9.20    0.86
  -2 -10  -1  167.22   11.68
  -2 -10  -1  165.66   10.35
  -2 -10  -1  148.48   10.77
  -2 -10  -1  148.25   10.65
   2  10   1  178.96   10.27
  -3 -10  -1   13.55    2.17
  -3 -10  -1   15.15    1.35
  -3 -10  -1   16.92    1.70
  -3 -10  -1   18.18    1.85
   3  10   1   17.66    1.78
   3  10   1   17.39    1.67
   3  10   1   17.23    1.30
  -4 -10  -1   22.86    3.44
  -4 -10  -1   23.49    1.90
  -4 -10  -1   22.11    3.18
  -4 -10  -1   24.40    2.53
  -4 -10  -1   26.40    2.03
  -4 -10  -1   26.29    2.10
   4  10   1   18.76    2.52
   4  10   1   22.96    2.44
   4  10   1   23.38    1.80
  -5 -10  -1    0.59    2.41
  -5 -10  -1    0.18    0.49
  -5 -10  -1    0.19    0.48
  -5 -10  -1    0.74    0.57
  -5 -10  -1    4.30    3.41
  -5 -10  -1   -0.57    0.84
   5  10   1    0.21    0.40
   5  10   1    1.14    1.36
   5  10   1    1.58    1.50
  -6 -10  -1    4.40    4.03
  -6 -10  -1    0.00    0.53
  -6 -10  -1   -0.16    0.92
  -6 -10  -1   -0.07    0.62
  -6 -10  -1    0.09    0.56
   6  10   1   -2.48    1.67
   6  10   1    0.64    1.71
   6  10   1   -1.06    1.05
   5 -11  -1    0.45    0.47
   5 -11  -1    0.05    0.34
   5 -11  -1   -0.08    0.30
  -5  11   1    0.07    0.34
   4 -11  -1   12.45    1.13
   4 -11  -1   12.20    0.97
   4 -11  -1   12.40    1.20
   4 -11  -1   12.50    1.23
  -4  11   1   12.90    1.10
  -4  11   1   11.03    1.41
  -4  11   1   10.25    1.29
  -4  11   1   12.98    2.17
   3 -11  -1    0.91    0.45
   3 -11  -1    0.22    0.42
   3 -11  -1   -0.13    0.25
   3 -11  -1    0.21    0.26
  -3  11   1    0.14    1.22
  -3  11   1    0.33    0.26
  -3  11   1    0.84    1.90
  -3  11   1    0.48    0.48
   2 -11  -1   14.38    1.20
   2 -11  -1   15.11    1.46
   2 -11  -1   13.67    1.22
   2 -11  -1   14.37    1.55
   2 -11  -1   15.45    1.31
  -2  11   1   15.35    1.10
  -2  11   1   16.11    3.20
  -2  11   1   11.16    1.72
  -2  11   1   14.22    3.11
   1 -11  -1   14.38    1.16
   1 -11  -1   14.81    1.20
   1 -11  -1   16.13    1.55
   1 -11  -1   14.93    1.67
  -1  11   1    8.35    3.22
  -1  11   1    8.92    3.13
   0 -11  -1    0.04    0.19
   0 -11  -1   -0.02    0.87
   0 -11  -1    0.44    0.76
   0 -11  -1    0.15    0.21
   0  11   1    1.68    2.19
   0  11   1    0.26    2.05
  -1 -11  -1   13.96    1.20
  -1 -11  -1   14.51    2.60
  -1 -11  -1   11.93    2.12
  -1 -11  -1   17.65    2.13
  -1 -11  -1   14.53    1.20
  -2 -11  -1    9.70    1.00
  -2 -11  -1    9.09    1.62
  -2 -11  -1   10.22    2.09
  -2 -11  -1   10.26    1.00
  -2 -11  -1    7.05    1.35
  -3 -11  -1   -0.35    0.56
  -3 -11  -1    0.58    0.76
  -3 -11  -1    0.19    1.41
   3  11   1    0.10    0.45
   3  11   1    0.30    0.28
  -4 -11  -1    2.99    0.72
  -4 -11  -1    2.77    0.61
  -4 -11  -1    2.67    1.35
  -4 -11  -1    3.40    0.78
  -4 -11  -1    3.61    1.27
  -4 -11  -1    2.14    1.56
   4  11   1    3.60    0.59
   4  11   1    3.20    1.09
   4  11   1    2.41    0.93
  -5 -11  -1   12.94    1.97
  -5 -11  -1   14.49    1.45
  -5 -11  -1   13.53    2.61
  -5 -11  -1   14.69    1.55
  -5 -11  -1   14.64    1.43
   5  11   1   11.32    1.92
   5  11   1   14.46    2.28
   5  11   1   14.67    1.37
   5 -12  -1   -0.27    0.36
   5 -12  -1    0.16    0.43
   5 -12  -1    0.37    0.36
  -5  12   1    0.06    0.41
   4 -12  -1   11.48    1.46
   4 -12  -1   12.85    1.24
   4 -12  -1   11.90    1.39
   4 -12  -1   11.73    1.15
  -4  12   1   12.94    1.12
  -4  12   1   10.89    2.78
   3 -12  -1    0.02    0.28
   3 -12  -1    0.45    0.51
   3 -12  -1   -0.02    0.30
   3 -12  -1   -0.46    0.57
  -3  12   1    0.54    1.57
  -3  12   1    2.06    1.75
  -3  12   1    0.04    0.26
   2 -12  -1   41.79    3.02
   2 -12  -1   43.43    2.99
   2 -12  -1   53.30    3.41
   2 -12  -1   46.78    3.49
  -2  12   1   39.97    6.34
  -2  12   1   44.38    2.87
  -2  12   1   36.55    5.38
  -2  12   1   41.57    3.11
   1 -12  -1    0.69    0.30
   1 -12  -1    0.81    0.76
   1 -12  -1    0.30    0.27
   1 -12  -1   -0.31    0.58
  -1  12   1   -1.11    2.45
  -1  12   1    1.23    2.69
   0 -12  -1    3.19    1.17
   0 -12  -1    4.87    0.61
   0 -12  -1    5.89    0.65
   0 -12  -1    4.01    1.33
   0  12   1    9.41    2.93
   0  12   1    5.08    2.48
  -1 -12  -1    2.02    0.45
  -1 -12  -1    0.99    1.09
  -1 -12  -1    1.66    1.34
  -1 -12  -1    2.10    0.41
  -2 -12  -1   21.93    2.35
  -2 -12  -1   23.23    3.40
  -2 -12  -1   22.70    1.72
  -2 -12  -1   22.63    1.75
  -2 -12  -1   21.29    2.21
  -3 -12  -1   14.08    1.52
  -3 -12  -1   13.43    1.36
  -3 -12  -1    7.57    2.39
  -3 -12  -1   14.90    1.69
  -3 -12  -1   12.06    1.30
  -4 -12  -1   26.79    2.05
  -4 -12  -1   20.45    2.09
  -4 -12  -1   16.99    2.96
   4  12   1   25.91    2.23
   4  12   1   25.49    2.11
   4  12   1   25.82    1.92
   4 -13  -1   22.89    2.03
   4 -13  -1   20.23    2.15
   4 -13  -1   18.56    1.63
   4 -13  -1   19.69    1.73
  -4  13   1   22.82    4.34
  -4  13   1   19.64    1.55
  -4  13   1   19.42    3.99
  -4  13   1   21.14    3.65
   3 -13  -1    5.69    1.19
   3 -13  -1    8.34    0.96
   3 -13  -1   10.54    1.36
   3 -13  -1    9.49    1.16
   3 -13  -1    9.14    0.91
  -3  13   1    7.20    2.76
  -3  13   1    8.08    0.80
  -3  13   1    7.71    1.41
  -3  13   1   10.09    3.04
   2 -13  -1   17.07    1.80
   2 -13  -1   17.93    2.01
   2 -13  -1   16.66    1.42
   2 -13  -1   18.50    1.40
  -2  13   1   10.77    3.56
  -2  13   1   18.50    4.59
   1 -13  -1   42.14    3.59
   1 -13  -1   48.85    3.09
   1 -13  -1   48.78    3.12
   1 -13  -1   43.39    3.80
  -1  13   1   34.07    7.03
  -1  13   1   38.31    6.99
   0 -13  -1   -2.35    1.36
   0 -13  -1    0.18    0.25
   0 -13  -1    0.20    1.18
   0 -13  -1    0.02    0.26
   0  13   1   -1.38    2.03
   0  13   1    0.63    2.04
  -1 -13  -1   10.65    1.95
  -1 -13  -1   11.32    2.23
  -1 -13  -1   14.06    1.18
  -1 -13  -1   14.86    1.16
  -2 -13  -1    2.19    1.37
  -2 -13  -1    1.41    0.43
  -2 -13  -1    1.39    0.42
  -2 -13  -1    1.60    0.99
  -3 -13  -1    0.39    1.60
  -3 -13  -1    1.82    0.56
  -3 -13  -1    1.41    0.87
  -3 -13  -1    2.27    0.79
  -3 -13  -1    2.55    0.57
  -4 -13  -1   -1.04    2.14
  -4 -13  -1    0.03    0.57
  -4 -13  -1    0.01    0.64
  -4 -13  -1    1.33    0.61
   3 -14  -1    0.18    0.57
   3 -14  -1    0.16    0.35
   3 -14  -1   -0.40    0.79
  -3  14   1    2.79    2.84
  -3  14   1   -1.89    2.81
   2 -14  -1   15.70    2.16
   2 -14  -1   11.74    1.64
   2 -14  -1   11.30    1.12
   2 -14  -1   10.94    1.05
  -2  14   1    7.26    3.94
  -2  14   1   10.77    4.21
   1 -14  -1    0.46    0.32
   1 -14  -1    0.18    0.98
   1 -14  -1   -0.56    1.19
   1 -14  -1    0.25    0.32
  -1  14   1    1.54    3.52
  -1  14   1    1.07    3.51
   0 -14  -1    5.62    0.72
   0 -14  -1    2.30    1.46
   0 -14  -1    4.84    0.62
   0 -14  -1    1.41    1.63
   0  14   1    5.41    2.43
  -1 -14  -1    2.31    1.45
  -1 -14  -1    0.89    0.35
  -1 -14  -1    0.43    0.34
  -1 -14  -1    1.20    1.23
  -2 -14  -1    1.93    0.47
  -2 -14  -1    2.66    0.96
  -2 -14  -1    2.41    1.07
   0  14  -2   -0.42    3.34
   0  14  -2   -2.13    3.22
   0 -14   2    0.24    0.25
   0 -14   2    0.34    0.23
   0 -14   2    0.08    0.73
   0 -14   2    0.49    0.59
  -1  14  -2    1.30    3.17
  -1  14  -2    3.42    3.68
   1 -14   2    3.45    0.48
   1 -14   2    4.46    0.59
   1 -14   2    4.32    1.12
   1 -14   2    3.06    0.72
   1 -14   2    1.28    0.89
  -2  14  -2    1.33    3.32
   2 -14   2    0.05    0.37
   2 -14   2   -0.11    0.53
   2 -14   2    0.29    0.33
   2 -14   2    0.34    0.72
  -4 -13   2    3.74    0.63
  -4 -13   2    4.72    2.77
  -4 -13   2    3.34    2.35
  -4 -13   2    4.46    2.97
  -3 -13   2   24.24    1.77
  -3 -13   2   26.92    2.73
   0  13  -2    2.07    2.94
   0  13  -2   -0.52    2.74
   0 -13   2   -0.07    0.18
   0 -13   2    0.06    0.21
   0 -13   2    0.58    0.77
   0 -13   2   -0.46    0.64
  -1  13  -2  103.75   11.02
  -1  13  -2   83.16   10.46
   1 -13   2   80.92    6.45
   1 -13   2  102.42    6.11
   1 -13   2  106.26    6.08
   1 -13   2  105.35    6.23
   1 -13   2   84.09    6.35
  -2  13  -2    2.71    2.80
  -2  13  -2   -0.95    2.40
   2 -13   2    0.17    0.43
   2 -13   2    0.21    0.35
   2 -13   2    0.45    0.30
   2 -13   2   -0.21    0.56
   2 -13   2    1.27    0.74
  -3  13  -2   19.50    5.30
  -3  13  -2   24.90    5.01
   3 -13   2   34.12    2.49
   3 -13   2   33.85    2.37
   3 -13   2   34.38    2.14
   3 -13   2   26.90    2.48
   3 -13   2   32.80    2.36
  -5 -12   2    1.07    1.21
  -5 -12   2    5.48    3.95
  -5 -12   2    2.08    4.07
  -5 -12   2    0.90    0.27
  -5 -12   2    0.60    0.48
  -4 -12   2    4.92    2.89
  -4 -12   2    4.44    0.71
  -4 -12   2    3.16    1.45
  -4 -12   2    2.85    3.02
  -3 -12   2    1.83    2.01
  -3 -12   2    3.20    0.52
  -3 -12   2    4.30    2.34
  -3 -12   2    0.92    1.61
  -2 -12   2   21.49    1.51
   1  12  -2    7.35    3.30
  -1 -12   2    4.42    0.45
   0  12  -2    9.89    3.66
   0  12  -2    5.78    3.58
   0 -12   2    9.02    1.31
   0 -12   2   10.76    1.51
   0 -12   2   13.01    1.12
   0 -12   2   15.68    1.00
   0 -12   2   14.16    0.96
  -1  12  -2    6.19    3.40
  -1  12  -2    5.20    3.16
   1 -12   2   11.79    0.99
   1 -12   2    8.08    1.10
   1 -12   2    8.55    1.24
   1 -12   2    9.27    0.80
   1 -12   2    9.92    0.86
  -2  12  -2    0.21    2.15
  -2  12  -2    1.72    2.11
   2 -12   2    0.27    0.28
   2 -12   2   -0.14    0.36
   2 -12   2    0.08    0.24
   2 -12   2    0.14    0.22
   2 -12   2    1.39    0.53
  -3  12  -2   24.61    4.33
  -3  12  -2   26.66    2.24
  -3  12  -2   21.47    4.00
   3 -12   2   28.45    1.93
   3 -12   2   29.27    2.02
   3 -12   2   26.79    2.05
   3 -12   2   26.52    2.12
  -4  12  -2   16.55    3.69
  -4  12  -2   16.31    3.41
   4 -12   2   20.26    1.66
   4 -12   2   20.69    1.72
   4 -12   2   17.02    1.86
   4 -12   2   21.58    1.69
  -5 -11   2    2.56    4.86
  -5 -11   2   -0.37    0.37
  -5 -11   2    0.52    0.75
  -5 -11   2    2.87    5.82
  -5 -11   2    0.21    0.21
  -5 -11   2    0.16    0.22
  -4 -11   2   11.27    4.03
  -4 -11   2   12.20    0.86
  -4 -11   2   12.23    1.16
  -4 -11   2   12.26    0.84
  -4 -11   2   15.22    5.03
  -3 -11   2   -1.31    1.05
  -3 -11   2    4.17    2.22
  -3 -11   2    2.68    0.49
  -3 -11   2    1.15    1.99
   1  11  -2    7.19    3.38
  -1 -11   2    9.92    0.83
  -1 -11   2   11.42    0.72
  -1 -11   2   10.35    0.81
   0  11  -2   -1.75    2.00
   0 -11   2   -0.09    0.17
   0 -11   2   -0.52    0.55
   0 -11   2    0.19    0.16
   0 -11   2   -0.01    0.21
   0 -11   2    0.22    0.22
   0 -11   2    0.60    0.54
   0 -11   2    0.02    0.14
  -1  11  -2    5.13    2.78
  -1  11  -2    2.73    2.57
   1 -11   2    6.37    0.67
   1 -11   2    6.30    0.59
   1 -11   2    6.61    0.61
   1 -11   2    6.47    0.94
   1 -11   2    5.88    0.61
   1 -11   2    7.05    0.74
   1 -11   2    7.63    0.92
  -2  11  -2   -0.55    1.65
  -2  11  -2   -0.42    1.59
  -2  11  -2    0.91    0.47
   2 -11   2    0.53    0.26
   2 -11   2    0.46    0.26
   2 -11   2    0.53    0.35
   2 -11   2    0.72    0.40
  -3  11  -2    2.85    1.61
  -3  11  -2    2.38    0.58
  -3  11  -2    2.11    0.67
  -3  11  -2    1.80    1.66
   3 -11   2    3.17    0.59
   3 -11   2    2.93    0.51
   3 -11   2    3.13    0.54
   3 -11   2    2.88    0.61
  -4  11  -2   -0.41    1.39
  -4  11  -2    1.27    1.63
  -4  11  -2    1.23    0.43
  -4  11  -2    0.78    0.84
  -4  11  -2    0.68    0.61
   4 -11   2    0.62    0.41
   4 -11   2    0.59    0.41
   4 -11   2    1.07    0.40
   4 -11   2    1.78    0.56
  -5  11  -2    5.02    1.93
  -5  11  -2    8.30    2.33
  -5  11  -2    5.82    0.84
   5 -11   2    5.20    1.07
   5 -11   2    8.81    0.98
   5 -11   2    8.15    1.04
   6  10  -2   38.17    3.89
   6  10  -2   43.75    3.68
  -6 -10   2   51.15    3.17
  -6 -10   2   51.40    3.52
  -6 -10   2   51.67    3.15
  -6 -10   2   42.78    9.79
  -6 -10   2   47.25   11.00
  -6 -10   2   41.93    3.69
   5  10  -2   11.18    1.10
   5  10  -2   11.45    1.05
   5  10  -2   10.20    1.17
  -5 -10   2   11.07    0.89
  -5 -10   2    8.30    6.18
  -5 -10   2   12.65    1.27
  -5 -10   2   10.68    1.17
  -5 -10   2    8.54    6.56
  -5 -10   2   11.29    0.91
  -4 -10   2    1.00    3.77
  -4 -10   2    3.20    4.12
  -4 -10   2    0.47    0.31
  -4 -10   2    1.23    0.53
  -4 -10   2    0.49    0.18
  -3 -10   2   31.17    6.05
  -3 -10   2   33.77    5.61
  -3 -10   2   25.95    1.76
  -3 -10   2   29.72    2.05
  -3 -10   2   28.90    1.77
  -2 -10   2  157.61    9.56
  -2 -10   2  147.94   11.70
  -2 -10   2  148.64   11.77
  -2 -10   2  154.80   10.24
   1  10  -2    3.39    2.56
  -1 -10   2    6.31    0.60
  -1 -10   2    6.73    0.63
  -1 -10   2    6.98    0.48
   0  10  -2  122.33   12.29
   0  10  -2  115.83   12.04
   0 -10   2  152.15    8.57
   0 -10   2  145.95    8.64
   0 -10   2  139.22    8.60
   0 -10   2  127.12    8.80
   0 -10   2  145.22    8.76
   0 -10   2  128.07    8.89
   0 -10   2  147.49    8.59
  -1  10  -2    3.88    2.08
  -1  10  -2    7.18    2.44
   1 -10   2    7.82    0.82
   1 -10   2    7.46    0.67
   1 -10   2    8.03    0.74
   1 -10   2    7.50    0.75
   1 -10   2    7.10    0.70
  -2  10  -2   -0.56    1.30
  -2  10  -2    0.26    0.32
  -2  10  -2    1.59    1.61
   2 -10   2   -0.18    0.25
   2 -10   2    0.24    0.25
   2 -10   2    0.25    0.23
   2 -10   2    0.01    0.24
  -3  10  -2    8.05    0.76
  -3  10  -2    9.50    2.63
  -3  10  -2    7.28    1.05
  -3  10  -2   10.11    2.52
   3 -10   2    7.80    0.87
   3 -10   2    7.82    0.91
   3 -10   2    7.49    0.83
   3 -10   2    6.75    0.80
  -4  10  -2   28.26    2.31
  -4  10  -2   31.78    3.84
  -4  10  -2   28.74    2.06
  -4  10  -2   24.53    2.19
  -4  10  -2   31.26    3.81
   4 -10   2   28.43    2.19
   4 -10   2   29.36    2.17
   4 -10   2   26.78    2.21
   4 -10   2   30.48    2.16
  -5  10  -2    1.31    0.48
   5 -10   2    1.29    0.49
   5 -10   2    2.26    0.64
   5 -10   2    2.12    0.67
   7   9  -2   -1.90    2.46
   7   9  -2   -1.57    2.56
  -7  -9   2    1.97    0.51
  -7  -9   2    2.60    0.72
  -7  -9   2    1.64    0.64
  -7  -9   2    1.28    0.69
  -7  -9   2   -1.43    5.20
   6   9  -2    2.53    1.81
   6   9  -2    1.23    1.64
   6   9  -2    2.28    0.67
  -6  -9   2    0.17    4.91
  -6  -9   2    3.11    0.50
  -6  -9   2    3.53    0.71
  -6  -9   2    2.18    0.45
  -6  -9   2    0.21    6.45
  -6  -9   2    3.12    0.80
   5   9  -2   28.34    2.53
   5   9  -2   32.16    2.35
   5   9  -2   26.71    2.61
  -5  -9   2   31.74    2.35
  -5  -9   2   31.78    2.08
  -5  -9   2   33.16    7.70
  -5  -9   2   17.16    5.98
  -5  -9   2   30.74    2.25
  -5  -9   2   30.79    2.06
   4   9  -2   26.46    2.05
   4   9  -2   28.09    1.85
   4   9  -2   27.72    1.80
  -4  -9   2   21.25    6.91
  -4  -9   2   25.12    1.74
  -4  -9   2   26.24    1.93
  -4  -9   2   19.12    6.04
  -4  -9   2   26.13    2.00
  -4  -9   2   25.64    1.76
  -3  -9   2   59.94    3.73
  -3  -9   2   57.99    3.75
  -3  -9   2   54.79    8.17
  -3  -9   2   64.68    3.97
  -3  -9   2   50.47    8.29
  -3  -9   2   60.90    3.73
  -3  -9   2   59.65    3.98
  -2  -9   2   19.64    1.90
  -2  -9   2   27.42    4.85
  -2  -9   2   22.46    1.60
  -2  -9   2   24.22    4.37
   1   9  -2   13.93    4.16
   1   9  -2   13.42    4.21
  -1  -9   2   14.72    1.11
  -1  -9   2   14.93    0.96
  -1  -9   2   15.28    1.10
  -1  -9   2   14.58    1.04
   0   9  -2    2.12    2.17
   0   9  -2   -0.24    1.86
   0  -9   2    0.70    0.37
   0  -9   2    0.73    0.40
   0  -9   2    0.55    0.22
   0  -9   2    0.26    0.19
   0  -9   2    0.24    0.14
  -1   9  -2   21.92    1.59
  -1   9  -2   21.26    1.60
  -1   9  -2   17.00    3.57
  -1   9  -2   22.73    3.70
   1  -9   2   21.47    1.62
   1  -9   2   21.05    1.54
   1  -9   2   22.32    1.51
   1  -9   2   20.69    1.53
  -2   9  -2    1.13    1.21
  -2   9  -2    2.56    1.46
  -2   9  -2    2.06    0.46
  -2   9  -2    1.75    0.40
   2  -9   2    1.29    0.32
   2  -9   2    1.18    0.37
   2  -9   2    1.77    0.39
   2  -9   2    1.53    0.39
  -3   9  -2   87.24    7.13
  -3   9  -2   84.96    5.48
  -3   9  -2   88.12    7.03
  -3   9  -2   84.27    5.28
   3  -9   2   75.15    5.37
   3  -9   2   79.16    5.34
   3  -9   2   79.25    5.39
   3  -9   2   87.84    5.56
  -4   9  -2    5.73    0.72
  -4   9  -2    3.34    0.71
  -4   9  -2    7.57    1.07
   4  -9   2    4.99    0.81
   4  -9   2    5.00    0.78
   4  -9   2    4.72    0.71
   4  -9   2    6.20    0.89
  -5   9  -2   16.43    1.50
   5  -9   2   20.58    1.69
   5  -9   2   18.65    1.67
   5  -9   2   18.27    1.58
   5  -9   2   16.82    1.64
  -6   9  -2    5.12    0.82
   6  -9   2    5.49    0.88
   6  -9   2    4.51    0.92
   6  -9   2    6.46    1.00
   7   8  -2    0.72    1.60
   7   8  -2    1.44    1.69
  -7  -8   2    0.48    0.44
  -7  -8   2   -0.13    0.48
  -7  -8   2   -0.38    0.38
  -7  -8   2   -0.31    0.45
  -7  -8   2    1.92    6.00
   6   8  -2   13.97    2.91
   6   8  -2   16.78    2.78
  -6  -8   2   12.03    4.90
  -6  -8   2   24.57    1.64
  -6  -8   2   21.79    1.76
  -6  -8   2   22.58    1.65
  -6  -8   2   21.78    1.89
   5   8  -2    2.99    0.60
   5   8  -2    0.87    1.27
   5   8  -2    1.00    2.27
  -5  -8   2    2.93    0.54
  -5  -8   2    3.63    3.05
  -5  -8   2    2.03    0.53
  -5  -8   2    2.19    0.40
  -5  -8   2    2.11    0.39
  -5  -8   2    4.28    3.70
   4   8  -2    2.38    0.74
   4   8  -2    1.48    0.53
   4   8  -2    3.56    0.74
  -4  -8   2    3.00    0.48
  -4  -8   2    3.43    0.49
  -4  -8   2    3.23    0.40
  -4  -8   2    2.50    3.30
  -4  -8   2    2.88    0.58
  -3  -8   2   16.80    5.35
  -3  -8   2   19.85    5.25
  -3  -8   2   15.98    1.12
  -3  -8   2   17.17    1.35
  -3  -8   2   16.87    1.23
  -3  -8   2   16.57    1.11
  -2  -8   2    1.90    2.35
  -2  -8   2    7.36    2.68
  -2  -8   2    6.79    0.66
  -2  -8   2    6.39    0.65
   1   8  -2   14.19    4.63
   1   8  -2   15.20    4.45
  -1  -8   2   12.31    0.80
  -1  -8   2   11.28    0.91
  -1  -8   2   13.58    2.72
  -1  -8   2   12.15    0.96
  -1  -8   2   12.52    0.90
  -1  -8   2   13.43    1.16
   0   8  -2   15.57    4.03
   0   8  -2   11.69    3.62
   0  -8   2   17.35    1.31
   0  -8   2   17.91    1.19
   0  -8   2   16.88    1.30
   0  -8   2   16.99    1.27
   0  -8   2   17.46    1.16
   0  -8   2   16.25    1.19
  -1   8  -2   21.16    1.50
  -1   8  -2   23.04    1.55
  -1   8  -2   14.57    3.00
  -1   8  -2   20.14    3.28
   1  -8   2   20.71    1.50
   1  -8   2   21.38    1.65
   1  -8   2   21.09    1.46
   1  -8   2   20.22    1.49
  -2   8  -2    0.17    0.24
  -2   8  -2    0.18    0.22
  -2   8  -2   -0.16    0.45
  -2   8  -2    0.51    0.97
  -2   8  -2    1.23    1.06
  -2   8  -2    0.34    0.21
   2  -8   2    0.10    0.25
   2  -8   2    0.35    0.24
   2  -8   2    0.10    0.22
   2  -8   2    0.07    0.19
  -3   8  -2   32.87    2.52
  -3   8  -2   38.41    3.82
  -3   8  -2   36.85    3.83
  -3   8  -2   36.80    2.41
   3  -8   2   32.30    2.42
   3  -8   2   32.73    2.51
   3  -8   2   35.40    2.49
   3  -8   2   35.87    2.50
  -4   8  -2    0.22    0.28
  -4   8  -2    1.16    0.43
   4  -8   2    0.98    0.43
   4  -8   2    0.59    0.36
   4  -8   2    0.04    0.30
   4  -8   2    1.21    0.45
  -5   8  -2    3.45    0.60
  -5   8  -2    1.96    0.65
  -5   8  -2    2.83    0.68
   5  -8   2    4.37    0.73
   5  -8   2    3.06    0.64
   5  -8   2    1.87    0.62
   5  -8   2    4.19    0.82
  -6   8  -2    1.68    0.52
   6  -8   2    1.30    0.58
   6  -8   2    2.23    0.64
   6  -8   2    1.64    0.55
   7   7  -2    4.26    1.31
   7   7  -2    2.45    0.67
   7   7  -2    0.77    2.01
  -7  -7   2    3.46    0.70
  -7  -7   2    3.30    0.71
  -7  -7   2    3.23    0.61
  -7  -7   2    3.79    0.62
   6   7  -2    8.21    1.70
   6   7  -2    9.72    1.90
  -6  -7   2    8.08    0.97
  -6  -7   2    9.68    0.93
  -6  -7   2    9.61    1.12
  -6  -7   2    9.30    0.88
   5   7  -2   85.53    5.56
   5   7  -2   71.41    6.07
  -5  -7   2   90.29    5.36
  -5  -7   2   83.26    5.37
  -5  -7   2   76.19    8.79
  -5  -7   2   87.86    5.63
  -5  -7   2   83.84    5.42
   4   7  -2   13.65    1.27
   4   7  -2    8.55    1.87
  -4  -7   2   13.36    1.10
  -4  -7   2   14.33    1.27
  -4  -7   2   15.49    1.06
  -4  -7   2   15.32    1.08
  -4  -7   2   14.59    4.06
  -4  -7   2   14.68    4.16
   3   7  -2   73.80    4.29
   3   7  -2   69.06    4.44
   3   7  -2   71.75    4.34
  -3  -7   2   61.60    4.22
  -3  -7   2   66.74    4.19
  -3  -7   2   64.81    4.18
  -3  -7   2   61.42    8.46
  -3  -7   2   63.20    4.40
  -2  -7   2   13.70    4.43
  -2  -7   2   16.44    4.63
  -2  -7   2   11.49    0.78
  -2  -7   2   12.45    1.00
  -2  -7   2   12.56    0.78
   1   7  -2   66.09    8.62
   1   7  -2   61.09    7.96
  -1  -7   2   55.91    3.43
  -1  -7   2   55.21    5.61
  -1  -7   2   51.76    5.60
  -1  -7   2   55.48    3.63
   0   7  -2    1.44    1.47
   0   7  -2    0.04    1.30
   0  -7   2    0.52    0.14
   0  -7   2    0.48    0.16
   0  -7   2    0.30    0.14
  -1   7  -2  312.06   21.54
  -1   7  -2  312.64   19.41
  -1   7  -2  309.47   19.38
  -1   7  -2  322.12   21.47
   1  -7   2  328.77   19.41
   1  -7   2  309.10   19.39
   1  -7   2  319.81   19.37
   1  -7   2  311.70   19.64
  -2   7  -2    3.20    0.51
  -2   7  -2    1.90    0.34
  -2   7  -2    1.73    0.37
  -2   7  -2    1.65    0.96
  -2   7  -2    2.29    1.20
   2  -7   2    1.26    0.33
   2  -7   2    1.52    0.33
   2  -7   2    1.56    0.41
   2  -7   2    2.16    0.40
  -3   7  -2   94.45    6.13
  -3   7  -2   95.75    6.05
  -3   7  -2   94.03    6.17
   3  -7   2   93.64    6.22
   3  -7   2   95.13    6.10
   3  -7   2   99.37    6.16
   3  -7   2   91.87    6.12
  -4   7  -2    4.25    0.63
  -4   7  -2    5.65    0.82
  -4   7  -2    4.75    0.84
   4  -7   2    4.06    0.70
   4  -7   2    3.79    0.64
   4  -7   2    4.20    0.73
  -5   7  -2   12.44    1.92
  -5   7  -2   15.61    1.50
  -5   7  -2   15.64    1.36
   5  -7   2   15.76    1.40
   5  -7   2   14.63    1.46
   5  -7   2   16.58    1.46
   5  -7   2   14.32    1.45
  -6   7  -2    7.47    1.12
  -6   7  -2    6.59    0.94
   6  -7   2    9.69    1.06
   6  -7   2    6.25    0.97
  -7   7  -2   33.16    2.53
   7  -7   2   32.33    2.70
   7  -7   2   31.84    2.60
   8   6  -2    2.76    1.19
   8   6  -2    7.10    1.49
  -8  -6   2    3.57    0.85
  -8  -6   2    3.34    0.72
  -8  -6   2    4.29    0.79
  -8  -6   2    3.78    0.73
   7   6  -2    1.64    0.63
   7   6  -2    1.24    0.92
   7   6  -2    0.52    0.98
  -7  -6   2    1.21    0.45
  -7  -6   2    1.00    0.48
  -7  -6   2    2.63    0.72
  -7  -6   2    1.81    0.45
   6   6  -2   -0.37    0.70
   6   6  -2    0.55    0.69
  -6  -6   2    0.78    0.35
  -6  -6   2    0.32    0.31
  -6  -6   2    0.81    0.41
  -6  -6   2    0.21    0.31
   5   6  -2    5.42    0.76
   5   6  -2    5.16    1.16
   5   6  -2    5.14    1.08
  -5  -6   2    6.74    0.71
  -5  -6   2    6.73    0.68
  -5  -6   2    6.21    0.65
  -5  -6   2    6.94    0.83
   4   6  -2   31.41    2.23
   4   6  -2   24.30    2.50
   4   6  -2   27.59    2.66
  -4  -6   2   30.74    2.04
  -4  -6   2   30.43    2.07
  -4  -6   2   31.08    2.27
  -4  -6   2   32.29    2.07
   3   6  -2    6.30    1.27
   3   6  -2    6.95    1.18
   3   6  -2    8.89    0.86
  -3  -6   2    8.66    0.69
  -3  -6   2    8.99    0.70
  -3  -6   2    9.69    0.68
  -3  -6   2   12.69    3.22
  -3  -6   2   12.00    3.30
  -3  -6   2   10.60    0.90
  -2  -6   2  125.88    8.82
  -2  -6   2  137.21    8.51
  -2  -6   2  150.22   13.03
  -2  -6   2  171.46   13.59
   1   6  -2    8.91    3.41
   1   6  -2    9.18    3.59
  -1  -6   2   10.40    0.86
  -1  -6   2   10.89    2.82
  -1  -6   2   11.19    2.82
   0   6  -2  115.98    7.09
   0   6  -2  115.29    7.10
   0   6  -2  106.83    9.80
   0   6  -2  100.16    9.84
   0  -6   2  120.19    7.08
   0  -6   2  117.52    7.09
  -1   6  -2   32.71    2.22
  -1   6  -2   30.44    3.57
  -1   6  -2   36.35    2.26
  -1   6  -2   32.42    3.58
   1  -6   2   32.34    2.24
   1  -6   2   33.86    2.51
   1  -6   2   34.49    2.22
   1  -6   2   32.74    2.22
  -2   6  -2    0.03    0.65
  -2   6  -2    0.42    0.57
  -2   6  -2    0.59    0.29
  -2   6  -2    0.57    0.25
  -2   6  -2    0.52    0.23
   2  -6   2    0.50    0.32
   2  -6   2    0.49    0.23
   2  -6   2    0.97    0.27
   2  -6   2    0.55    0.26
  -3   6  -2  113.33    7.25
  -3   6  -2  115.05    7.15
  -3   6  -2  109.79    7.20
   3  -6   2  116.42    7.21
   3  -6   2  109.72    7.32
   3  -6   2  113.95    7.18
   3  -6   2  110.39    7.22
  -4   6  -2  103.24    6.55
  -4   6  -2  100.93    6.41
  -4   6  -2  103.00    6.50
   4  -6   2   98.88    6.50
   4  -6   2   97.45    6.56
   4  -6   2   94.42    6.44
   4  -6   2   98.10    6.44
  -5   6  -2    9.48    1.15
  -5   6  -2   10.36    1.05
   5  -6   2   10.03    1.14
   5  -6   2    9.77    1.06
   5  -6   2   10.92    1.19
   5  -6   2   11.19    1.14
  -6   6  -2   74.08    4.76
  -6   6  -2   73.17    4.90
  -6   6  -2   67.10    4.93
   6  -6   2   69.27    4.86
   6  -6   2   68.98    4.92
   6  -6   2   69.86    4.79
   6  -6   2   66.83    4.79
  -7   6  -2   15.20    1.46
   7  -6   2   13.53    1.49
   7  -6   2   12.41    1.89
   8   5  -2    1.20    0.97
   8   5  -2    3.51    1.11
  -8  -5   2    3.39    0.74
  -8  -5   2    4.93    1.11
  -8  -5   2    4.59    0.82
  -8  -5   2    3.53    0.66
   7   5  -2    0.75    0.29
   7   5  -2    0.31    0.35
   7   5  -2    0.90    0.73
  -7  -5   2    1.76    0.52
  -7  -5   2    0.09    0.40
  -7  -5   2    1.15    0.42
  -7  -5   2    0.17    0.37
   6   5  -2    0.93    0.64
   6   5  -2    2.25    0.68
   6   5  -2    1.91    0.49
  -6  -5   2    2.16    0.43
  -6  -5   2    0.92    0.42
  -6  -5   2    1.26    0.39
  -6  -5   2    1.98    0.46
   5   5  -2   14.18    1.46
   5   5  -2   15.18    1.54
   5   5  -2   14.69    1.30
  -5  -5   2   13.51    1.16
  -5  -5   2   14.76    1.19
  -5  -5   2   15.22    1.16
  -5  -5   2   14.01    1.32
   4   5  -2   25.74    2.04
   4   5  -2   30.79    2.31
   4   5  -2   27.26    2.72
  -4  -5   2   28.29    1.92
  -4  -5   2   27.65    1.92
  -4  -5   2   27.67    1.89
  -4  -5   2   28.05    2.11
   3   5  -2    6.62    0.70
   3   5  -2    6.97    0.90
  -3  -5   2    6.68    0.55
  -3  -5   2    7.22    0.57
  -3  -5   2    7.03    0.73
  -3  -5   2    6.42    2.52
  -3  -5   2    6.31    0.56
   2   5  -2   31.11    1.85
  -2  -5   2   33.22    4.92
  -2  -5   2   29.55    4.83
  -2  -5   2   27.57    2.12
  -2  -5   2   28.45    1.83
  -2  -5   2   28.34    1.83
   1   5  -2   67.46    7.52
   1   5  -2   71.50    7.88
  -1  -5   2   71.40    7.77
  -1  -5   2   65.32    4.32
  -1  -5   2   65.16    7.34
   0   5  -2    0.77    0.13
   0   5  -2    0.63    0.14
   0   5  -2    0.88    1.24
   0  -5   2    0.58    0.15
   0  -5   2    0.86    0.17
   0  -5   2    1.08    0.90
   0  -5   2    0.81    0.80
   0  -5   2    0.69    0.14
  -1   5  -2  113.60    8.33
  -1   5  -2  111.19    6.97
  -1   5  -2  105.87    8.34
  -1   5  -2  113.37    6.95
  -1   5  -2  113.34    6.99
   1  -5   2  114.54    6.97
   1  -5   2  108.02    6.97
   1  -5   2  112.41    6.99
  -2   5  -2    1.49    0.33
  -2   5  -2    2.14    0.42
  -2   5  -2    1.20    0.29
   2  -5   2    1.05    0.29
   2  -5   2    1.02    0.37
   2  -5   2    1.04    0.30
   2  -5   2    2.09    0.37
  -3   5  -2    7.62    0.76
   3  -5   2   10.25    0.97
   3  -5   2    6.63    0.77
   3  -5   2    7.27    0.76
   3  -5   2    7.45    0.82
  -4   5  -2    0.18    0.32
  -4   5  -2    0.38    0.29
  -4   5  -2    0.75    0.38
   4  -5   2    0.75    0.32
   4  -5   2   -0.05    0.25
   4  -5   2    0.30    0.28
   4  -5   2    0.22    0.26
  -5   5  -2   21.44    1.81
  -5   5  -2   21.11    1.71
   5  -5   2   20.18    1.76
   5  -5   2   21.38    1.83
   5  -5   2   22.18    1.77
   5  -5   2   21.77    1.87
  -6   5  -2    1.45    0.66
  -6   5  -2    2.17    0.55
  -6   5  -2    0.87    0.56
   6  -5   2    0.81    0.50
   6  -5   2    2.24    0.69
   6  -5   2    0.25    0.45
   6  -5   2    1.26    0.47
  -7   5  -2   13.60    1.39
  -7   5  -2   11.30    1.52
   7  -5   2   11.44    1.49
   7  -5   2   13.52    1.43
   8   4  -2   28.39    2.15
   8   4  -2   32.08    2.85
   8   4  -2   32.54    2.76
  -8  -4   2   28.34    2.35
  -8  -4   2   31.10    2.32
  -8  -4   2   31.95    2.60
  -8  -4   2   29.24    2.36
   7   4  -2    0.88    0.33
   7   4  -2   -0.17    0.56
   7   4  -2    0.94    0.61
   7   4  -2    0.59    0.36
  -7  -4   2    0.43    0.38
  -7  -4   2   -0.01    0.35
  -7  -4   2    0.78    0.37
  -7  -4   2    0.18    0.35
   6   4  -2  113.50    7.20
   6   4  -2   99.99    6.70
   6   4  -2  104.54    6.99
   6   4  -2  109.09    7.08
  -6  -4   2  110.33    6.83
  -6  -4   2  105.15    6.87
  -6  -4   2  107.43    6.87
   5   4  -2   26.65    2.03
   5   4  -2   26.37    2.15
   5   4  -2   26.04    1.78
  -5  -4   2   28.34    1.93
  -5  -4   2   25.85    1.91
  -5  -4   2   25.07    1.87
  -5  -4   2   26.70    2.09
   4   4  -2    0.15    0.19
   4   4  -2   -0.18    0.24
   4   4  -2    0.55    0.34
  -4  -4   2    0.44    0.21
  -4  -4   2    0.78    0.24
  -4  -4   2    0.33    0.19
  -4  -4   2    0.37    0.23
   3   4  -2   49.35    3.34
   3   4  -2   49.80    3.38
   3   4  -2   48.36    3.32
  -3  -4   2   53.23    3.18
  -3  -4   2   49.46    3.36
  -3  -4   2   49.07    3.18
  -3  -4   2   48.01    3.17
   2   4  -2  307.63   19.26
   2   4  -2  317.72   19.21
   2   4  -2  325.49   19.19
  -2  -4   2  306.55   19.04
  -2  -4   2  288.40   19.23
  -2  -4   2  300.50   19.05
  -2  -4   2  342.65   21.81
  -2  -4   2  318.95   21.44
   1   4  -2   71.61    7.08
  -1  -4   2   59.97    4.18
  -1  -4   2   62.71    6.98
  -1  -4   2   76.31    7.21
   0   4  -2  247.02   19.18
   0   4  -2  272.71   16.61
   0   4  -2  227.82   18.84
   0   4  -2  274.37   16.60
   0  -4   2  278.63   18.46
   0  -4   2  292.19   18.43
   0  -4   2  287.17   16.67
   0  -4   2  279.09   16.65
   0  -4   2  273.93   16.62
  -1   4  -2   55.56    3.57
  -1   4  -2   57.17    4.63
  -1   4  -2   59.47    3.61
  -1   4  -2   54.50    4.70
  -1   4  -2   59.76    3.60
   1  -4   2   50.97    3.66
   1  -4   2   54.61    3.59
   1  -4   2   54.87    3.58
  -2   4  -2    0.82    0.26
  -2   4  -2    0.56    0.22
  -2   4  -2    1.80    0.42
   2  -4   2    0.43    0.22
   2  -4   2    0.61    0.22
   2  -4   2    0.83    0.34
   2  -4   2    0.56    0.24
  -3   4  -2   24.29    1.80
  -3   4  -2   23.38    1.83
  -3   4  -2   22.44    1.74
   3  -4   2   24.73    1.84
   3  -4   2   23.32    1.91
   3  -4   2   25.85    1.80
   3  -4   2   22.70    1.77
  -4   4  -2   45.49    3.05
  -4   4  -2   42.57    2.96
  -4   4  -2   43.64    3.10
   4  -4   2   41.37    2.99
   4  -4   2   42.43    3.14
   4  -4   2   41.38    3.04
   4  -4   2   41.60    2.98
  -5   4  -2    5.60    0.80
  -5   4  -2    4.70    0.82
  -5   4  -2    6.36    1.07
  -5   4  -2    4.20    0.86
   5  -4   2    4.20    0.71
   5  -4   2    3.98    0.71
   5  -4   2    4.99    0.76
   5  -4   2    7.74    1.10
  -6   4  -2   10.75    1.30
  -6   4  -2   10.77    1.14
  -6   4  -2    9.93    1.28
   6  -4   2   10.24    1.25
   6  -4   2   12.57    1.35
  -7   4  -2    0.79    0.55
  -7   4  -2    0.69    0.67
  -7   4  -2    0.31    0.43
   7  -4   2    1.08    0.56
   7  -4   2    0.04    0.44
   8   3  -2   41.17    3.27
   8   3  -2   45.89    3.46
   8   3  -2   38.04    2.83
  -8  -3   2   43.18    3.05
  -8  -3   2   42.38    3.04
  -8  -3   2   39.71    2.94
  -8  -3   2   38.97    3.20
   7   3  -2    6.16    1.09
   7   3  -2    4.78    0.91
   7   3  -2    6.15    0.99
   7   3  -2    5.26    0.68
  -7  -3   2    5.84    0.78
  -7  -3   2    4.64    0.76
  -7  -3   2    6.94    1.10
   6   3  -2   10.02    0.86
   6   3  -2   10.23    1.19
   6   3  -2   10.04    1.06
   6   3  -2   10.68    1.13
  -6  -3   2    8.36    0.89
  -6  -3   2    9.33    0.95
  -6  -3   2    7.82    0.93
   5   3  -2   94.73    6.43
   5   3  -2   99.56    6.40
   5   3  -2   91.67    6.18
   5   3  -2  100.75    6.44
  -5  -3   2   99.98    6.31
  -5  -3   2   95.81    6.48
  -5  -3   2  101.13    6.28
  -5  -3   2  104.09    6.32
   4   3  -2   65.86    4.22
   4   3  -2   66.86    4.42
   4   3  -2   63.54    4.42
  -4  -3   2   68.82    4.32
  -4  -3   2   68.05    4.49
  -4  -3   2   68.12    4.32
  -4  -3   2   65.95    4.28
   3   3  -2  189.64   11.84
   3   3  -2  186.77   11.91
   3   3  -2  192.78   11.82
  -3  -3   2  186.34   11.94
  -3  -3   2  194.48   11.78
  -3  -3   2  193.43   11.78
  -3  -3   2  191.76   11.76
   2   3  -2   68.79    4.28
   2   3  -2   69.99    4.44
  -2  -3   2   69.00    4.26
  -2  -3   2   67.94    4.25
  -2  -3   2   66.18    4.25
  -2  -3   2   69.06    4.44
  -1  -3   2   55.31    5.61
  -1  -3   2   49.84    5.50
  -1  -3   2   44.72    3.15
   0   3  -2    1.52    1.18
   0   3  -2    1.03    0.16
   0   3  -2    1.60    0.23
   0   3  -2    0.98    1.21
   0  -3   2    1.42    0.23
   0  -3   2    1.23    0.31
   0  -3   2    1.06    0.24
   0  -3   2    0.65    0.70
   0  -3   2    2.45    1.00
  -1   3  -2  123.25    7.64
  -1   3  -2  123.91    7.63
  -1   3  -2  129.48    8.55
  -1   3  -2  126.99    8.60
  -1   3  -2  118.38    7.65
   1  -3   2  118.19    7.62
   1  -3   2  124.79    7.67
   1  -3   2  116.52    7.64
  -2   3  -2    2.60    0.42
  -2   3  -2    2.43    0.42
  -2   3  -2    2.56    0.44
   2  -3   2    2.30    0.42
   2  -3   2    3.99    0.45
   2  -3   2    1.95    0.50
   2  -3   2    2.88    0.49
  -3   3  -2  273.23   16.29
  -3   3  -2  264.64   16.32
  -3   3  -2  256.70   16.21
   3  -3   2  256.64   16.29
   3  -3   2  249.30   16.23
   3  -3   2  259.71   16.24
   3  -3   2  271.55   16.44
  -4   3  -2   15.22    1.49
  -4   3  -2   18.03    1.50
  -4   3  -2   16.19    1.33
  -4   3  -2   15.57    1.37
   4  -3   2   15.31    1.35
   4  -3   2   17.85    1.73
   4  -3   2   14.80    1.34
   4  -3   2   14.61    1.39
  -5   3  -2   42.60    3.18
  -5   3  -2   44.69    3.13
  -5   3  -2   42.46    3.01
  -5   3  -2   41.29    3.24
   5  -3   2   42.31    3.05
   5  -3   2   41.31    3.18
   5  -3   2   43.31    3.07
   5  -3   2   41.21    3.13
  -6   3  -2   18.06    1.54
  -6   3  -2   16.02    1.69
  -6   3  -2   18.81    1.68
  -6   3  -2   15.08    1.70
   6  -3   2   16.52    1.66
   6  -3   2   16.26    1.69
   6  -3   2   18.72    1.63
  -7   3  -2    1.29    1.00
  -7   3  -2    2.12    0.82
  -7   3  -2    2.54    0.66
  -7   3  -2    0.73    0.49
   7  -3   2    1.47    0.62
   7  -3   2    2.95    0.85
  -8   3  -2   -0.25    0.97
  -8   3  -2    0.95    0.58
  -8   3  -2    0.98    0.73
   8  -3   2    0.30    0.71
   8  -3   2    1.56    0.85
   8   2  -2   23.78    2.20
  -8  -2   2   22.26    2.06
  -8  -2   2   21.66    1.83
  -8  -2   2   21.58    1.87
  -8  -2   2   20.96    1.90
   7   2  -2    0.11    0.51
   7   2  -2    0.54    0.39
   7   2  -2    0.03    0.44
   7   2  -2    0.14    0.31
  -7  -2   2   -0.08    0.35
  -7  -2   2    0.69    0.34
  -7  -2   2    0.52    0.35
  -7  -2   2    0.41    0.45
   6   2  -2   70.08    4.56
   6   2  -2   73.17    4.81
   6   2  -2   68.42    4.76
   6   2  -2   70.77    4.73
  -6  -2   2   72.55    4.62
  -6  -2   2   69.26    4.64
  -6  -2   2   66.75    4.81
  -6  -2   2   67.80    4.63
   5   2  -2   11.83    1.09
   5   2  -2   10.25    1.11
   5   2  -2   12.02    1.13
   5   2  -2   10.86    0.96
  -5  -2   2   12.63    1.06
  -5  -2   2   12.25    1.01
  -5  -2   2   11.44    1.14
  -5  -2   2   12.00    1.04
   4   2  -2    7.22    0.72
   4   2  -2    6.36    0.57
   4   2  -2    5.24    0.62
   4   2  -2    5.74    0.68
  -4  -2   2    5.58    0.70
  -4  -2   2    7.30    0.66
  -4  -2   2    6.53    0.62
  -4  -2   2    4.95    0.59
   3   2  -2   73.01    4.84
   3   2  -2   72.04    4.67
   3   2  -2   74.55    4.77
  -3  -2   2   79.04    4.74
  -3  -2   2   73.67    4.71
  -3  -2   2   75.62    4.88
   2   2  -2  164.17   10.11
   2   2  -2  160.82    9.99
   2   2  -2  158.36    9.97
  -2  -2   2  159.95    9.97
  -2  -2   2  159.69   10.12
  -2  -2   2  162.33    9.98
  -2  -2   2  169.66    9.97
   1   2  -2   26.60    1.65
   1   2  -2   23.73    1.55
   1   2  -2   25.06    1.62
  -1  -2   2   24.29    1.75
  -1  -2   2   22.63    2.81
  -1  -2   2   21.53    2.90
   0   2  -2  210.74   11.65
   0   2  -2  166.43   13.51
   0   2  -2  161.32   13.32
   0   2  -2  204.86   11.69
   0  -2   2  177.47   11.75
   0  -2   2  187.68   13.41
   0  -2   2  188.78   13.33
   0  -2   2  189.15   11.70
   0  -2   2  194.36   11.97
  -1   2  -2   42.51    2.82
  -1   2  -2   43.65    3.38
  -1   2  -2   43.78    2.79
  -1   2  -2   45.63    3.45
  -1   2  -2   40.50    2.77
   1  -2   2   40.86    2.78
   1  -2   2   41.03    2.81
   1  -2   2   39.13    2.76
  -2   2  -2    0.27    0.17
  -2   2  -2    0.36    0.21
  -2   2  -2    0.40    0.21
   2  -2   2    0.25    0.20
   2  -2   2    0.85    0.35
   2  -2   2    0.34    0.18
   2  -2   2    0.15    0.16
  -3   2  -2   54.37    3.70
  -3   2  -2   50.51    3.75
  -3   2  -2   55.27    3.65
  -3   2  -2   52.96    3.57
   3  -2   2   53.44    3.67
   3  -2   2   53.01    3.60
   3  -2   2   52.67    3.59
   3  -2   2   55.33    3.77
  -4   2  -2    8.54    0.84
  -4   2  -2    7.23    0.94
  -4   2  -2    7.73    0.90
   4  -2   2    8.32    0.88
   4  -2   2    7.58    0.85
   4  -2   2    6.70    0.88
  -5   2  -2    6.67    1.08
  -5   2  -2    5.88    0.94
  -5   2  -2    7.15    0.83
  -5   2  -2    4.31    0.81
   5  -2   2    6.21    0.88
   5  -2   2    6.59    1.07
   5  -2   2    5.38    0.94
   5  -2   2    8.39    0.89
  -6   2  -2    1.04    0.57
  -6   2  -2    2.19    0.54
  -6   2  -2    1.76    0.64
  -6   2  -2    0.60    0.48
   6  -2   2    1.49    0.54
   6  -2   2    0.83    0.53
   6  -2   2    0.98    0.45
  -7   2  -2    0.09    0.64
  -7   2  -2    0.29    0.60
  -7   2  -2    0.02    0.40
  -7   2  -2   -0.63    0.36
   7  -2   2   -0.06    0.59
   7  -2   2    0.93    0.98
  -8   2  -2    0.11    0.69
  -8   2  -2   -0.06    0.49
  -8   2  -2    0.24    0.91
   8  -2   2    0.79    0.67
   8  -2   2    0.43    0.66
   8   1  -2    0.17    0.59
   8   1  -2    0.24    0.41
  -8  -1   2   -0.03    0.47
  -8  -1   2    0.23    0.45
  -8  -1   2    1.20    0.52
  -8  -1   2    0.74    0.47
   7   1  -2    3.60    0.80
   7   1  -2    3.54    0.83
   7   1  -2    3.13    0.58
  -7  -1   2    3.95    0.67
  -7  -1   2    4.10    0.84
  -7  -1   2    3.64    0.62
  -7  -1   2    3.17    0.61
   6   1  -2    9.34    0.85
   6   1  -2    6.89    0.89
   6   1  -2    9.38    1.04
  -6  -1   2    7.85    0.97
  -6  -1   2    8.03    0.86
  -6  -1   2    9.58    0.93
  -6  -1   2    7.12    0.88
   5   1  -2   81.16    5.41
   5   1  -2   81.74    5.44
   5   1  -2   78.65    5.26
   5   1  -2   81.82    5.36
  -5  -1   2   80.63    5.34
  -5  -1   2   81.01    5.48
  -5  -1   2   82.68    5.31
  -5  -1   2   88.82    5.36
   4   1  -2   37.42    2.44
   4   1  -2   37.55    2.59
   4   1  -2   35.99    2.49
   4   1  -2   33.19    2.51
  -4  -1   2   35.54    2.47
  -4  -1   2   36.48    2.46
  -4  -1   2   37.12    2.49
  -4  -1   2   35.87    2.60
   3   1  -2   52.82    3.41
   3   1  -2   49.89    3.27
   3   1  -2   50.33    3.33
   3   1  -2   49.19    3.30
  -3  -1   2   50.46    3.31
  -3  -1   2   51.95    3.31
  -3  -1   2   51.07    3.43
  -3  -1   2   51.81    3.29
   2   1  -2   24.81    1.67
   2   1  -2   25.66    1.75
  -2  -1   2   23.90    1.65
  -2  -1   2   23.50    1.65
  -2  -1   2   26.51    1.65
  -2  -1   2   24.66    1.76
   1   1  -2   91.21    5.35
   1   1  -2   89.43    5.32
   1   1  -2   84.72    5.30
   1   1  -2   77.43    5.27
  -1  -1   2   87.81    5.45
  -1  -1   2   81.63    5.29
   0   1  -2   -0.20    0.24
   0   1  -2    0.15    0.79
   0   1  -2    0.12    0.24
   0   1  -2    0.38    0.29
   0   1  -2    1.53    1.13
   0  -1   2    0.22    0.72
   0  -1   2   -0.37    0.61
   0  -1   2    0.07    0.24
   0  -1   2    0.24    0.35
   0  -1   2    0.82    0.49
  -1   1  -2  444.49   27.24
  -1   1  -2  472.32   27.40
  -1   1  -2  450.41   27.32
   1  -1   2  439.16   27.35
   1  -1   2  441.48   27.29
   1  -1   2  416.24   27.25
  -2   1  -2    4.78    0.62
  -2   1  -2    6.67    0.73
  -2   1  -2    4.77    0.55
   2  -1   2    5.17    0.61
   2  -1   2    5.37    0.82
   2  -1   2    5.66    0.71
   2  -1   2    4.34    0.55
  -3   1  -2   73.38    5.02
  -3   1  -2   69.02    5.09
  -3   1  -2   84.48    5.14
   3  -1   2   78.15    5.01
   3  -1   2   76.27    5.12
   3  -1   2   74.58    4.95
  -4   1  -2    3.45    0.75
  -4   1  -2    2.37    0.48
  -4   1  -2    2.87    0.64
  -4   1  -2    3.87    0.69
   4  -1   2    3.50    0.63
   4  -1   2    2.83    0.68
  -5   1  -2   26.19    2.05
  -5   1  -2   27.01    2.24
  -5   1  -2   26.57    2.17
  -5   1  -2   24.44    2.20
   5  -1   2   26.68    2.21
   5  -1   2   26.06    2.12
   5  -1   2   28.18    2.08
   5  -1   2   26.81    2.21
  -6   1  -2    5.35    0.83
  -6   1  -2    4.71    0.91
  -6   1  -2    7.77    1.17
  -6   1  -2    7.56    1.10
   6  -1   2    5.17    0.92
   6  -1   2    5.86    1.58
  -7   1  -2   35.00    2.91
  -7   1  -2   34.21    2.67
  -7   1  -2   34.90    2.91
  -7   1  -2   37.61    2.86
   7  -1   2   36.07    2.93
   7  -1   2   30.83    2.63
   7  -1   2   34.79    2.79
  -8   1  -2    5.60    0.99
  -8   1  -2    6.94    1.38
  -8   1  -2    7.36    1.27
   8  -1   2    9.69    1.62
   8  -1   2    9.26    1.39
   8   0  -2   10.89    1.42
   8   0  -2    7.76    1.08
   8   0  -2   10.69    1.26
  -8   0   2   12.37    1.29
  -8   0   2    9.39    1.25
  -8   0   2   10.55    1.16
  -8   0   2    9.92    1.18
   7   0  -2    3.29    0.74
   7   0  -2    2.29    0.62
   7   0  -2    2.84    0.57
  -7   0   2    2.57    0.63
  -7   0   2    1.69    0.48
  -7   0   2    1.55    0.49
  -7   0   2    3.03    0.62
   6   0  -2    0.12    0.28
   6   0  -2    0.26    0.27
   6   0  -2    0.00    0.26
   6   0  -2    0.15    0.24
  -6   0   2    0.73    0.33
  -6   0   2    0.41    0.32
  -6   0   2    1.15    0.45
   5   0  -2   11.04    1.03
   5   0  -2    9.87    0.94
   5   0  -2   10.21    0.91
   5   0  -2   10.74    1.02
  -5   0   2    9.25    0.92
  -5   0   2   10.04    0.96
  -5   0   2    9.38    1.01
  -5   0   2    8.68    0.88
   4   0  -2   33.56    2.59
   4   0  -2   34.07    2.41
   4   0  -2   33.14    2.37
   4   0  -2   37.48    2.52
  -4   0   2   35.89    2.39
  -4   0   2   35.08    2.42
  -4   0   2   33.21    2.50
  -4   0   2   36.18    2.42
   3   0  -2   10.21    0.92
   3   0  -2   12.17    0.99
   3   0  -2   12.12    0.90
   3   0  -2   11.15    0.92
  -3   0   2   12.02    0.96
  -3   0   2   11.67    0.93
  -3   0   2   12.25    1.02
  -3   0   2   10.94    0.90
   2   0  -2  370.49   23.36
   2   0  -2  387.15   23.44
   2   0  -2  383.58   23.39
  -2   0   2  386.89   23.36
  -2   0   2  379.80   23.38
  -2   0   2  382.22   23.38
   1   0  -2   27.03    1.78
   1   0  -2   25.55    1.77
   1   0  -2   28.08    1.82
   1   0  -2   25.02    1.76
  -1   0   2   26.24    1.76
  -1   0   2   28.54    1.88
   0   0  -2  181.13   10.22
   0   0  -2  161.78   11.01
   0   0  -2  154.92   10.31
   0   0  -2  152.64   10.17
   0   0  -2  158.53   10.89
   0   0   2  147.52   10.16
   0   0   2  146.38   10.29
  -1   0  -2   63.05    4.43
  -1   0  -2   60.96    4.49
   1   0   2   72.00    4.45
   1   0   2   65.87    4.49
  -2   0  -2    2.64    0.54
  -2   0  -2    2.35    0.50
   2   0   2    2.15    0.46
   2   0   2    1.55    0.36
   2   0   2    2.06    0.39
   2   0   2    2.14    0.43
  -3   0  -2  181.67   12.41
  -3   0  -2  209.53   12.66
  -3   0  -2  208.68   12.59
  -3   0  -2  195.74   12.63
   3   0   2  194.49   12.45
   3   0   2  206.52   12.64
   3   0   2  198.02   12.55
   3   0   2  200.75   12.63
  -4   0  -2  176.68   11.78
  -4   0  -2  181.27   11.58
  -4   0  -2  189.28   11.81
  -4   0  -2  188.51   11.72
   4   0   2  192.12   11.81
   4   0   2  184.25   11.70
   4   0   2  178.24   11.61
  -5   0  -2   14.65    1.44
  -5   0  -2   13.19    1.25
  -5   0  -2   12.11    1.34
  -5   0  -2   15.27    1.48
   5   0   2   12.53    1.23
   5   0   2   13.12    1.36
   5   0   2   13.68    1.36
   5   0   2   13.42    1.44
  -6   0  -2  109.88    7.56
  -6   0  -2  108.16    7.30
  -6   0  -2  112.49    7.51
   6   0   2  118.96    7.49
   6   0   2  111.04    7.55
  -7   0  -2   18.25    1.97
  -7   0  -2   21.26    2.17
  -7   0  -2   21.95    1.85
  -7   0  -2   21.23    2.01
   7   0   2   23.12    2.05
   7   0   2   20.30    2.08
   7   0   2   19.76    1.83
   7   0   2   21.14    2.20
  -8   0  -2    6.01    1.24
  -8   0  -2    6.14    1.31
  -8   0  -2    4.84    0.90
   8   0   2    5.03    1.24
   8   0   2    6.27    1.26
   8  -1  -2    0.56    0.47
   8  -1  -2    0.83    0.53
   8  -1  -2    0.84    0.61
  -8   1   2    0.97    0.47
  -8   1   2    0.22    0.50
  -8   1   2    0.02    0.47
   7  -1  -2    3.03    0.67
   7  -1  -2    3.41    0.73
  -7   1   2    2.52    0.61
  -7   1   2    3.28    0.67
  -7   1   2    3.44    0.65
  -7   1   2    3.97    0.74
   6  -1  -2    8.54    0.98
   6  -1  -2    8.65    0.90
   6  -1  -2    8.96    0.96
   6  -1  -2    8.09    0.99
  -6   1   2    7.90    0.89
  -6   1   2    7.59    0.93
  -6   1   2    9.32    1.03
  -6   1   2    9.89    0.96
   5  -1  -2   86.04    5.47
   5  -1  -2   79.93    5.45
   5  -1  -2   81.91    5.40
  -5   1   2   80.56    5.36
  -5   1   2   79.80    5.50
  -5   1   2   84.98    5.42
  -5   1   2   85.26    5.40
   4  -1  -2   39.51    2.55
   4  -1  -2   34.98    2.57
   4  -1  -2   38.62    2.56
   4  -1  -2   37.70    2.61
  -4   1   2   34.18    2.54
  -4   1   2   36.47    2.53
  -4   1   2   35.93    2.63
  -4   1   2   37.92    2.56
   3  -1  -2   53.71    3.47
   3  -1  -2   54.79    3.44
   3  -1  -2   49.86    3.43
   3  -1  -2   52.13    3.48
  -3   1   2   54.37    3.47
  -3   1   2   49.98    3.42
  -3   1   2   54.40    3.45
  -3   1   2   51.33    3.50
   2  -1  -2   25.36    1.71
   2  -1  -2   26.78    1.76
   2  -1  -2   25.66    1.72
   2  -1  -2   24.12    1.73
  -2   1   2   24.30    1.72
  -2   1   2   25.37    1.72
  -2   1   2   25.19    1.75
  -2   1   2   24.46    1.70
   1  -1  -2   84.89    5.42
   1  -1  -2   88.33    5.41
   1  -1  -2   88.55    5.45
   1  -1  -2   85.00    5.39
  -1   1   2   83.78    5.39
  -1   1   2   84.32    5.41
   0  -1  -2    0.11    0.30
   0  -1  -2    0.55    0.37
   0  -1  -2    0.13    0.38
   0   1   2    0.41    0.53
   0   1   2    0.35    0.25
   0   1   2   -0.35    0.26
   0   1   2    0.70    0.56
   0   1   2    0.48    0.55
  -1  -1  -2  348.22   25.38
  -1  -1  -2  419.24   25.17
  -1  -1  -2  376.49   25.53
   1   1   2  416.30   25.17
   1   1   2  426.86   25.64
   1   1   2  447.22   25.52
   1   1   2  421.06   25.25
  -2  -1  -2    5.48    0.60
  -2  -1  -2    6.29    0.92
  -2  -1  -2    6.00    1.03
   2   1   2    4.51    0.63
   2   1   2    5.77    0.92
   2   1   2    5.13    0.59
   2   1   2    4.79    0.79
  -3  -1  -2   82.07    5.35
  -3  -1  -2   74.82    5.22
  -3  -1  -2   83.96    5.29
  -3  -1  -2   72.88    5.06
   3   1   2   77.14    5.08
   3   1   2   78.81    5.35
   3   1   2   78.72    5.25
   3   1   2   77.07    5.23
  -4  -1  -2    3.63    0.69
  -4  -1  -2    2.68    0.53
  -4  -1  -2    2.99    0.69
  -4  -1  -2    2.90    0.63
   4   1   2    3.37    0.64
   4   1   2    3.78    0.61
   4   1   2    3.05    0.83
   4   1   2    3.02    0.59
  -5  -1  -2   28.80    2.32
  -5  -1  -2   23.27    2.01
  -5  -1  -2   25.43    2.21
  -5  -1  -2   28.77    2.22
   5   1   2   28.05    2.23
   5   1   2   25.00    2.27
   5   1   2   29.12    2.24
   5   1   2   25.21    2.03
  -6  -1  -2    7.51    1.08
  -6  -1  -2    6.95    1.08
  -6  -1  -2    6.14    1.13
  -6  -1  -2    5.28    0.87
   6   1   2    7.15    1.25
   6   1   2    7.79    1.18
   6   1   2    6.10    0.93
  -7  -1  -2   34.55    2.82
  -7  -1  -2   32.84    2.89
  -7  -1  -2   33.51    2.92
  -7  -1  -2   36.25    2.69
   7   1   2   36.56    2.69
   7   1   2   32.96    2.95
   7   1   2   35.30    2.88
  -8  -1  -2    5.84    1.04
  -8  -1  -2    8.11    1.41
  -8  -1  -2    8.98    1.36
   8   1   2    7.76    1.51
   8   1   2    7.19    1.37
   8  -2  -2   22.91    2.02
   8  -2  -2   22.16    1.93
   8  -2  -2   21.55    2.46
  -8   2   2   22.73    1.96
  -8   2   2   21.90    1.85
  -8   2   2   19.86    1.96
  -8   2   2   20.20    1.84
   7  -2  -2    0.49    0.46
   7  -2  -2    0.13    0.36
  -7   2   2   -0.28    0.30
  -7   2   2    0.55    0.39
  -7   2   2   -0.02    0.37
  -7   2   2    0.77    0.42
   6  -2  -2   72.49    4.66
   6  -2  -2   71.80    4.77
   6  -2  -2   66.74    4.67
   6  -2  -2   72.68    4.75
  -6   2   2   71.71    4.71
  -6   2   2   66.44    4.68
  -6   2   2   67.85    4.81
  -6   2   2   68.57    4.65
   5  -2  -2   10.61    0.99
   5  -2  -2    9.37    0.96
   5  -2  -2   11.21    1.06
   5  -2  -2   11.39    1.06
  -5   2   2   10.84    1.00
  -5   2   2   10.54    1.01
  -5   2   2   10.79    1.04
   4  -2  -2    6.21    0.71
   4  -2  -2    6.61    0.71
   4  -2  -2    6.95    0.69
   4  -2  -2    5.64    0.67
  -4   2   2    6.23    0.68
  -4   2   2    7.21    0.70
  -4   2   2    6.68    0.73
  -4   2   2    6.00    0.70
   3  -2  -2   77.91    4.89
   3  -2  -2   75.83    4.86
   3  -2  -2   74.90    4.86
  -3   2   2   73.51    4.90
  -3   2   2   76.18    4.86
  -3   2   2   74.54    4.89
  -3   2   2   76.60    4.87
   2  -2  -2  162.21   10.00
   2  -2  -2  160.58   10.00
   2  -2  -2  164.09   10.03
   2  -2  -2  166.06   10.01
  -2   2   2  159.16   10.01
  -2   2   2  154.68    9.98
  -2   2   2  160.78   10.01
  -2   2   2  160.18   10.01
   1  -2  -2   24.37    1.68
   1  -2  -2   24.44    1.73
   1  -2  -2   24.19    1.68
   1  -2  -2   23.13    1.69
  -1   2   2   25.13    1.66
  -1   2   2   24.61    1.67
  -1   2   2   22.81    1.66
   0  -2  -2  197.19   11.72
   0  -2  -2  176.42   11.42
   0  -2  -2  179.86   11.35
   0   2   2  162.62   11.40
   0   2   2  173.06   11.31
  -1  -2  -2   29.63    3.09
  -1  -2  -2   37.58    2.68
   1   2   2   39.27    2.61
   1   2   2   31.81    2.98
   1   2   2   39.08    2.63
   1   2   2   36.99    3.26
  -2  -2  -2    1.49    0.38
  -2  -2  -2    0.43    0.28
  -2  -2  -2   -0.06    0.13
  -2  -2  -2    0.38    0.37
   2   2   2    0.75    0.39
   2   2   2   -0.04    0.29
   2   2   2    0.13    0.20
   2   2   2    0.30    0.20
  -3  -2  -2   52.72    3.80
  -3  -2  -2   52.19    3.86
  -3  -2  -2   59.92    4.02
   3   2   2   57.63    3.98
   3   2   2   52.54    4.02
   3   2   2   55.05    3.80
   3   2   2   54.36    3.67
  -4  -2  -2    6.35    0.89
  -4  -2  -2   10.05    1.14
  -4  -2  -2    7.68    0.85
  -4  -2  -2    7.42    0.97
   4   2   2    7.01    1.05
   4   2   2    8.09    0.86
   4   2   2    9.13    1.17
  -5  -2  -2    6.20    0.79
  -5  -2  -2    5.24    0.90
  -5  -2  -2    7.69    1.18
  -5  -2  -2    5.98    0.93
   5   2   2    7.39    1.12
   5   2   2    7.25    0.94
   5   2   2    6.61    0.82
   5   2   2    6.01    1.10
  -6  -2  -2    0.98    0.44
  -6  -2  -2    1.67    0.60
  -6  -2  -2    0.74    0.59
  -6  -2  -2    1.17    0.57
   6   2   2    0.90    0.52
   6   2   2    1.18    0.46
   6   2   2    0.83    0.46
  -7  -2  -2    1.31    0.66
  -7  -2  -2   -0.04    0.60
  -7  -2  -2    0.25    0.66
  -7  -2  -2    0.38    0.46
   7   2   2   -0.10    0.44
   7   2   2    0.47    0.61
   7   2   2   -0.15    0.56
  -8  -2  -2    0.10    0.57
  -8  -2  -2    0.60    0.67
  -8  -2  -2   -0.93    0.77
   8   2   2    0.47    0.88
   8   2   2    0.96    0.82
   8  -3  -2   41.08    3.13
   8  -3  -2   38.03    3.01
  -8   3   2   42.60    3.01
  -8   3   2   40.02    2.99
  -8   3   2   40.20    3.16
  -8   3   2   39.98    3.10
   7  -3  -2    3.93    0.77
   7  -3  -2    5.01    0.80
   7  -3  -2    5.31    0.93
  -7   3   2    5.78    0.84
  -7   3   2    4.26    0.71
  -7   3   2    5.72    1.00
  -7   3   2    4.89    0.79
   6  -3  -2    7.70    0.99
   6  -3  -2   10.16    1.02
   6  -3  -2    9.54    0.96
   6  -3  -2    6.99    0.92
  -6   3   2    8.54    0.99
  -6   3   2    8.24    1.00
  -6   3   2   11.33    1.04
  -6   3   2    8.22    0.94
   5  -3  -2  102.14    6.51
   5  -3  -2  100.14    6.51
   5  -3  -2  102.11    6.57
   5  -3  -2  102.66    6.56
  -5   3   2   97.40    6.49
  -5   3   2   99.10    6.51
  -5   3   2   99.96    6.55
  -5   3   2  102.59    6.62
   4  -3  -2   64.01    4.31
   4  -3  -2   70.38    4.37
   4  -3  -2   64.51    4.36
   4  -3  -2   63.79    4.31
  -4   3   2   66.74    4.33
  -4   3   2   67.26    4.36
  -4   3   2   64.25    4.31
  -4   3   2   63.90    4.36
   3  -3  -2  186.78   11.99
   3  -3  -2  193.48   12.01
   3  -3  -2  191.86   12.03
   3  -3  -2  195.23   12.00
  -3   3   2  196.41   12.01
  -3   3   2  190.76   12.00
  -3   3   2  195.57   12.04
  -3   3   2  192.27   12.02
   2  -3  -2   63.96    4.36
   2  -3  -2   73.90    4.35
   2  -3  -2   68.99    4.37
  -2   3   2   65.72    4.34
  -2   3   2   70.97    4.41
  -2   3   2   65.25    4.37
  -2   3   2   66.99    4.37
   1  -3  -2   41.28    2.80
   1  -3  -2   43.40    2.80
   1  -3  -2   38.15    2.75
   1  -3  -2   41.38    2.84
  -1   3   2   41.39    2.69
  -1   3   2   43.17    2.76
  -1   3   2   42.93    2.99
   0  -3  -2    0.56    0.31
   0  -3  -2    0.85    0.59
   0  -3  -2    0.42    0.27
   0   3   2    0.73    0.28
   0   3   2    0.81    0.33
   0   3   2    0.97    0.76
  -1  -3  -2  113.72    7.42
  -1  -3  -2  113.61    8.05
  -1  -3  -2  129.29    8.49
   1   3   2  102.30    7.71
   1   3   2  112.64    7.23
   1   3   2   99.48    7.90
   1   3   2  115.34    7.13
  -2  -3  -2    1.73    0.46
  -2  -3  -2    3.25    0.56
  -2  -3  -2    2.07    0.70
  -2  -3  -2    1.40    0.64
   2   3   2    2.69    0.78
   2   3   2    3.17    0.50
   2   3   2    2.48    0.47
   2   3   2    1.93    0.69
  -3  -3  -2  240.06   16.19
  -3  -3  -2  263.67   16.32
  -3  -3  -2  264.48   16.47
  -3  -3  -2  274.15   16.60
   3   3   2  253.73   16.16
   3   3   2  259.95   16.29
   3   3   2  265.94   16.86
   3   3   2  263.77   16.67
  -4  -3  -2   17.77    1.70
  -4  -3  -2   16.90    1.43
  -4  -3  -2   17.06    1.52
  -4  -3  -2   15.69    1.55
   4   3   2   15.84    1.77
   4   3   2   17.52    1.72
   4   3   2   15.33    1.36
  -5  -3  -2   42.11    3.07
  -5  -3  -2   40.27    2.92
  -5  -3  -2   42.34    3.10
   5   3   2   40.52    2.87
   5   3   2   39.31    3.03
   5   3   2   36.92    3.26
  -6  -3  -2   13.89    1.57
  -6  -3  -2   15.69    1.75
  -6  -3  -2   16.86    1.54
  -6  -3  -2   19.06    1.73
   6   3   2   15.53    1.46
   6   3   2   17.75    1.93
   6   3   2   15.87    1.77
  -7  -3  -2    2.48    0.79
  -7  -3  -2    1.30    0.74
  -7  -3  -2    1.77    0.65
  -7  -3  -2    3.38    0.89
   7   3   2    3.24    1.05
   7   3   2    1.96    0.97
   7   3   2    2.22    0.61
  -8  -3  -2    1.49    0.89
  -8  -3  -2    0.21    0.63
  -8  -3  -2    1.06    0.74
  -8  -3  -2   -0.06    0.97
   8   3   2   -0.48    0.93
   8   3   2    0.63    0.85
   8  -4  -2   29.62    2.41
   8  -4  -2   30.29    2.50
  -8   4   2   31.60    2.44
  -8   4   2   29.37    2.54
  -8   4   2   28.97    2.46
   7  -4  -2    0.39    0.39
   7  -4  -2    0.15    0.37
   7  -4  -2    0.30    0.38
  -7   4   2    0.16    0.38
  -7   4   2    0.16    0.36
  -7   4   2    0.14    0.34
   6  -4  -2  109.18    7.07
   6  -4  -2  108.10    7.00
   6  -4  -2  110.05    7.03
   6  -4  -2  109.10    7.12
  -6   4   2  106.69    7.04
  -6   4   2  106.74    6.98
  -6   4   2  108.24    6.98
  -6   4   2  102.78    7.10
   5  -4  -2   24.62    1.99
   5  -4  -2   27.69    1.99
   5  -4  -2   25.49    1.95
   5  -4  -2   26.73    1.97
  -5   4   2   24.71    1.94
  -5   4   2   25.31    1.95
  -5   4   2   25.14    1.99
  -5   4   2   26.68    2.04
   4  -4  -2    0.36    0.27
   4  -4  -2    0.20    0.18
   4  -4  -2    0.31    0.23
  -4   4   2    0.41    0.26
  -4   4   2    0.25    0.23
  -4   4   2    0.50    0.29
  -4   4   2    0.26    0.22
   3  -4  -2   48.54    3.18
   3  -4  -2   49.46    3.22
   3  -4  -2   47.73    3.21
   3  -4  -2   48.38    3.24
  -3   4   2   47.02    3.23
  -3   4   2   44.40    3.19
  -3   4   2   47.91    3.20
  -3   4   2   49.76    3.22
   2  -4  -2  303.65   18.44
   2  -4  -2  284.13   18.49
   2  -4  -2  317.03   18.34
   2  -4  -2  296.97   18.40
  -2   4   2  305.38   18.44
  -2   4   2  292.33   18.34
  -2   4   2  287.67   18.39
  -2   4   2  299.35   18.39
   1  -4  -2   55.47    3.72
   1  -4  -2   54.70    3.62
   1  -4  -2   54.09    3.64
  -1   4   2   54.09    3.48
  -1   4   2   54.76    3.58
  -1   4   2   59.33    4.04
   0  -4  -2  273.81   17.15
   0  -4  -2  274.80   17.28
   0  -4  -2  289.20   17.70
   0   4   2  270.83   17.16
   0   4   2  255.96   17.65
   0   4   2  274.39   17.06
  -1  -4  -2   50.57    4.39
  -1  -4  -2   52.54    4.18
   1   4   2   41.75    4.21
   1   4   2   55.83    3.38
   1   4   2   51.17    3.50
   1   4   2   46.25    4.11
  -2  -4  -2    0.23    0.20
  -2  -4  -2    0.53    0.51
  -2  -4  -2    0.53    0.58
  -2  -4  -2    1.34    0.42
   2   4   2    0.83    0.27
   2   4   2    0.81    0.64
   2   4   2    0.61    0.26
   2   4   2    1.62    0.81
  -3  -4  -2   25.20    2.25
  -3  -4  -2   27.35    2.18
  -3  -4  -2   23.80    1.87
  -3  -4  -2   23.54    1.90
   3   4   2   20.93    2.46
   3   4   2   23.58    1.86
   3   4   2   24.34    2.41
   3   4   2   23.90    1.79
  -4  -4  -2   38.25    3.12
  -4  -4  -2   44.92    3.30
  -4  -4  -2   41.91    2.99
  -4  -4  -2   40.66    3.07
   4   4   2   47.03    3.52
   4   4   2   42.90    3.64
   4   4   2   40.45    2.90
  -5  -4  -2    3.59    0.79
  -5  -4  -2    3.58    0.72
  -5  -4  -2    3.51    0.82
  -5  -4  -2    3.89    0.72
   5   4   2    4.92    0.73
   5   4   2    4.44    0.74
   5   4   2    6.11    1.13
   5   4   2    6.15    1.37
  -6  -4  -2    9.00    1.16
  -6  -4  -2    9.71    1.51
  -6  -4  -2   12.36    1.41
  -6  -4  -2   11.67    1.35
   6   4   2   10.03    1.71
   6   4   2   10.74    1.50
   6   4   2   13.49    1.20
   6   4   2   13.33    1.65
  -7  -4  -2    0.27    0.53
  -7  -4  -2    0.75    0.63
  -7  -4  -2    0.54    0.55
  -7  -4  -2    0.11    0.62
   7   4   2    0.81    0.76
   7   4   2    0.93    0.58
   7   4   2    0.90    0.73
   8  -5  -2    2.85    0.79
   8  -5  -2    4.05    0.80
  -8   5   2    3.47    0.90
  -8   5   2    2.07    0.70
  -8   5   2    3.60    0.76
   7  -5  -2    0.22    0.45
   7  -5  -2    0.81    0.45
   7  -5  -2    0.44    0.40
   7  -5  -2    0.39    0.76
  -7   5   2    0.35    0.45
  -7   5   2    0.72    0.45
  -7   5   2    0.59    0.42
  -7   5   2    0.16    0.34
   6  -5  -2    1.29    0.41
   6  -5  -2    1.34    0.39
   6  -5  -2    0.96    0.39
  -6   5   2    0.51    0.27
  -6   5   2    1.32    0.44
  -6   5   2    1.96    0.51
  -6   5   2    1.04    0.42
   5  -5  -2   14.86    1.30
   5  -5  -2   14.70    1.27
   5  -5  -2   14.78    1.33
   5  -5  -2   14.74    1.28
  -5   5   2   14.25    1.29
  -5   5   2   14.36    1.33
  -5   5   2   14.43    1.33
  -5   5   2   16.21    1.30
   4  -5  -2   27.12    2.02
   4  -5  -2   25.84    2.07
   4  -5  -2   30.25    2.08
   4  -5  -2   30.43    2.10
  -4   5   2   28.92    2.09
  -4   5   2   27.43    2.09
  -4   5   2   28.85    2.06
  -4   5   2   26.00    2.04
   3  -5  -2    6.09    0.71
   3  -5  -2    7.11    0.65
   3  -5  -2    7.82    0.72
   3  -5  -2    5.16    0.66
  -3   5   2    7.04    0.72
  -3   5   2    7.21    0.71
  -3   5   2    6.97    0.74
   2  -5  -2   27.28    1.97
   2  -5  -2   27.26    1.96
   2  -5  -2   28.45    1.88
   2  -5  -2   28.26    2.01
  -2   5   2   26.06    2.00
  -2   5   2   27.28    1.99
  -2   5   2   29.01    1.96
  -2   5   2   28.63    1.88
   1  -5  -2   63.17    4.27
   1  -5  -2   63.16    4.14
   1  -5  -2   59.58    4.15
   1  -5  -2   66.83    4.24
  -1   5   2   62.25    3.95
  -1   5   2   61.20    4.09
  -1   5   2   71.05    4.82
   0  -5  -2    0.12    0.59
   0  -5  -2    0.84    0.52
   0  -5  -2    0.75    0.41
   0   5   2    1.11    0.52
   0   5   2    0.66    0.31
   0   5   2    0.36    0.60
   0   5   2    0.66    0.19
   0   5   2    0.97    0.29
   0   5   2    0.64    0.47
   0   5   2    0.92    0.33
  -1  -5  -2  100.04    7.33
  -1  -5  -2  107.12    7.28
  -1  -5  -2   93.10    7.50
   1   5   2  109.56    6.46
   1   5   2  107.58    6.65
   1   5   2   93.72    7.21
   1   5   2   98.29    7.05
  -2  -5  -2    0.96    0.33
  -2  -5  -2    1.16    0.64
  -2  -5  -2    1.11    0.65
  -2  -5  -2    0.90    0.84
  -2  -5  -2    0.67    0.81
  -2  -5  -2    0.85    0.49
   2   5   2    1.39    0.80
   2   5   2    1.34    0.34
   2   5   2   -0.20    0.65
   2   5   2    0.73    0.27
  -3  -5  -2    7.80    1.01
  -3  -5  -2    6.99    0.84
  -3  -5  -2    6.04    1.07
   3   5   2    7.01    0.74
   3   5   2    8.98    1.68
   3   5   2    7.54    1.69
   3   5   2    7.30    0.80
  -4  -5  -2    0.09    0.43
  -4  -5  -2    0.16    0.33
  -4  -5  -2    0.29    0.31
  -4  -5  -2    0.47    0.46
   4   5   2    0.48    0.31
   4   5   2    0.01    0.31
   4   5   2   -0.45    0.65
   4   5   2    0.55    0.84
  -5  -5  -2   20.59    1.84
  -5  -5  -2   18.57    1.86
  -5  -5  -2   23.80    2.06
  -5  -5  -2   19.04    1.75
   5   5   2   22.26    1.84
   5   5   2   17.18    2.16
   5   5   2   22.01    1.66
   5   5   2   20.04    2.49
  -6  -5  -2    0.44    0.45
  -6  -5  -2    1.08    0.67
  -6  -5  -2    0.87    0.60
  -6  -5  -2    1.64    0.53
   6   5   2    1.19    0.56
   6   5   2    1.21    0.46
   6   5   2    0.81    0.90
   6   5   2    1.47    0.86
  -7  -5  -2   15.81    1.66
  -7  -5  -2   10.15    1.40
  -7  -5  -2   12.20    1.56
  -7  -5  -2   13.43    1.77
   7   5   2   11.50    1.89
   7   5   2   13.94    1.56
   8  -6  -2    6.01    0.94
   8  -6  -2    3.07    0.83
  -8   6   2    3.39    0.84
  -8   6   2    3.85    0.91
  -8   6   2    2.68    0.65
   7  -6  -2    1.25    0.52
   7  -6  -2    1.29    0.59
   7  -6  -2    1.44    0.59
  -7   6   2    0.67    0.40
  -7   6   2    1.37    0.59
  -7   6   2    0.70    0.48
   6  -6  -2    0.39    0.31
   6  -6  -2    0.32    0.34
   6  -6  -2    0.35    0.32
  -6   6   2    0.73    0.37
  -6   6   2    0.67    0.39
  -6   6   2    0.93    0.44
  -6   6   2    0.36    0.41
   5  -6  -2    6.35    0.80
   5  -6  -2    5.58    0.72
   5  -6  -2    6.20    0.73
  -5   6   2    5.46    0.79
  -5   6   2    5.82    0.75
  -5   6   2    5.45    0.87
  -5   6   2    7.24    0.81
   4  -6  -2   30.64    2.17
   4  -6  -2   29.25    2.22
   4  -6  -2   28.28    2.19
   4  -6  -2   31.41    2.27
  -4   6   2   32.04    2.25
  -4   6   2   32.49    2.23
  -4   6   2   30.38    2.27
  -4   6   2   30.21    2.23
   3  -6  -2    9.56    0.78
   3  -6  -2    7.81    0.85
   3  -6  -2    9.20    0.85
   3  -6  -2    9.51    0.96
  -3   6   2    9.01    0.84
  -3   6   2   10.07    0.90
  -3   6   2    7.71    0.79
  -3   6   2    8.17    0.97
   2  -6  -2  145.71    8.54
   2  -6  -2  142.04    8.67
   2  -6  -2  133.89    8.64
   2  -6  -2  138.96    8.71
   2  -6  -2  137.13    8.69
  -2   6   2  141.59    8.64
  -2   6   2  139.44    9.01
  -2   6   2  129.97    8.68
  -2   6   2  136.01    8.73
  -2   6   2  129.21    8.52
   1  -6  -2   11.75    1.12
   1  -6  -2   11.37    0.95
   1  -6  -2   10.90    1.03
   1  -6  -2   10.44    0.96
  -1   6   2   15.14    2.31
  -1   6   2   10.75    0.89
  -1   6   2   10.48    0.74
   0  -6  -2  117.28    7.12
   0  -6  -2  114.88    7.49
   0  -6  -2  116.41    7.34
   0  -6  -2  116.45    7.16
   0   6   2  100.89    7.83
   0   6   2   96.87    7.36
   0   6   2  108.01    6.76
   0   6   2   99.25    7.87
   0   6   2  116.22    7.10
  -1  -6  -2   33.15    3.07
  -1  -6  -2   31.68    3.23
  -1  -6  -2   31.57    3.24
   1   6   2   29.59    2.69
   1   6   2   31.35    2.10
   1   6   2   29.03    2.56
   1   6   2   35.26    2.36
  -2  -6  -2    0.73    0.55
  -2  -6  -2    0.43    0.49
  -2  -6  -2    1.17    0.78
  -2  -6  -2    0.95    0.72
  -2  -6  -2    0.38    0.52
   2   6   2    0.68    0.29
   2   6   2   -0.84    0.67
   2   6   2    0.75    0.80
   2   6   2    0.59    0.23
  -3  -6  -2  110.22    7.64
  -3  -6  -2  106.32    7.17
  -3  -6  -2  112.31    7.30
  -3  -6  -2  103.50    7.48
   3   6   2  109.06    8.08
   3   6   2  114.52    7.03
   3   6   2  120.94    9.20
   3   6   2  111.53    7.11
  -4  -6  -2   96.93    6.77
  -4  -6  -2   94.50    6.69
  -4  -6  -2   96.35    6.53
  -4  -6  -2   97.55    6.52
   4   6   2  107.01    7.84
   4   6   2   98.10    6.49
   4   6   2   99.95    7.45
   4   6   2  102.29    6.33
  -5  -6  -2   11.18    1.35
  -5  -6  -2   11.36    1.43
  -5  -6  -2   10.35    1.20
   5   6   2   10.14    1.95
   5   6   2    9.28    1.73
   5   6   2   10.17    1.01
   5   6   2   10.31    1.16
  -6  -6  -2   66.89    4.82
  -6  -6  -2   69.45    4.88
  -6  -6  -2   66.63    4.77
  -6  -6  -2   65.96    4.67
   6   6   2   65.79    5.46
   6   6   2   66.77    4.81
   6   6   2   64.82    5.27
   6   6   2   71.67    4.52
  -7  -6  -2   14.75    1.65
  -7  -6  -2   14.07    1.63
  -7  -6  -2   14.29    1.86
  -7  -6  -2   11.68    1.56
   7   6   2   15.38    2.35
   7   6   2   13.27    2.35
   7  -7  -2    2.33    0.63
   7  -7  -2    4.20    0.75
   7  -7  -2    3.33    0.65
  -7   7   2    3.87    0.80
  -7   7   2    2.32    0.60
  -7   7   2    5.36    0.97
   6  -7  -2    8.40    1.04
   6  -7  -2    8.73    1.01
   6  -7  -2    9.32    1.05
   6  -7  -2    9.12    0.98
  -6   7   2    9.09    1.09
  -6   7   2    8.47    1.09
  -6   7   2    7.64    1.03
  -6   7   2   10.48    1.04
   5  -7  -2   86.39    5.60
   5  -7  -2   86.36    5.66
   5  -7  -2   85.89    5.71
  -5   7   2   84.51    5.71
  -5   7   2   82.04    5.64
  -5   7   2   93.27    5.70
  -5   7   2   84.16    5.69
   4  -7  -2   14.68    1.25
   4  -7  -2   12.91    1.13
   4  -7  -2   14.24    1.22
   4  -7  -2   15.49    1.28
  -4   7   2   13.72    1.20
  -4   7   2   13.51    1.29
  -4   7   2   14.09    1.26
  -4   7   2   13.79    1.20
   3  -7  -2   63.25    4.30
   3  -7  -2   68.45    4.31
   3  -7  -2   65.60    4.15
   3  -7  -2   65.87    4.27
  -3   7   2   63.42    4.29
  -3   7   2   63.35    4.33
  -3   7   2   61.45    4.19
  -3   7   2   65.19    4.25
   2  -7  -2   12.87    1.09
   2  -7  -2   11.64    1.04
   2  -7  -2   16.45    1.21
   2  -7  -2   11.06    1.06
  -2   7   2   12.62    1.15
  -2   7   2   10.78    0.90
  -2   7   2   14.45    1.64
  -2   7   2   13.85    1.05
   1  -7  -2   54.25    3.76
   1  -7  -2   54.21    3.79
   1  -7  -2   63.18    4.07
   1  -7  -2   59.58    3.94
  -1   7   2   52.88    3.69
  -1   7   2   65.76    5.18
   0  -7  -2    0.22    0.23
   0  -7  -2    0.24    0.22
   0  -7  -2    0.19    0.74
   0  -7  -2    0.12    0.43
   0  -7  -2    0.06    0.40
   0   7   2   -0.50    1.00
   0   7   2    0.53    0.22
   0   7   2    0.43    1.09
   0   7   2    0.20    0.53
  -1  -7  -2  366.96   20.55
  -1  -7  -2  265.92   20.04
  -1  -7  -2  262.60   19.78
   1   7   2  304.96   19.07
   1   7   2  293.29   18.79
   1   7   2  324.60   19.45
   1   7   2  329.05   19.31
   1   7   2  312.71   19.02
  -2  -7  -2    1.05    0.86
  -2  -7  -2    0.93    0.67
  -2  -7  -2    2.12    0.89
   2   7   2    1.37    0.36
   2   7   2    1.40    0.85
   2   7   2    1.84    0.35
   2   7   2    1.54    0.79
  -3  -7  -2   98.94    6.23
  -3  -7  -2   85.16    5.89
  -3  -7  -2   85.04    7.05
  -3  -7  -2   93.01    7.23
  -3  -7  -2   91.98    6.46
  -3  -7  -2   86.98    6.29
   3   7   2   72.15    6.59
   3   7   2   93.50    5.84
   3   7   2   96.64    5.76
  -4  -7  -2    6.11    2.26
  -4  -7  -2    3.14    0.82
  -4  -7  -2    3.02    0.96
  -4  -7  -2    5.15    0.86
  -4  -7  -2    4.71    0.89
   4   7   2    6.86    1.58
   4   7   2    4.45    0.61
   4   7   2    4.02    1.48
   4   7   2    3.90    0.68
  -5  -7  -2   13.65    1.44
  -5  -7  -2   14.40    1.68
  -5  -7  -2   14.12    1.55
  -5  -7  -2   18.47    1.64
   5   7   2   15.29    1.44
   5   7   2   11.83    2.19
   5   7   2   11.55    2.37
  -6  -7  -2    6.90    1.09
  -6  -7  -2    5.44    1.07
  -6  -7  -2    6.63    1.10
  -6  -7  -2    6.84    1.14
   6   7   2    6.71    0.88
   6   7   2    8.27    1.80
   6   7   2    9.22    1.98
  -7  -7  -2   27.61    2.51
  -7  -7  -2   32.25    2.64
  -7  -7  -2   28.74    2.71
  -7  -7  -2   26.36    2.54
   7   7   2   23.88    3.18
   7   7   2   31.99    2.25
   7   7   2   27.81    3.53
   7  -8  -2   -0.47    0.39
   7  -8  -2   -0.38    0.42
   7  -8  -2   -0.08    0.73
  -7   8   2    0.61    0.53
  -7   8   2    0.31    0.42
   6  -8  -2   18.93    1.77
   6  -8  -2   20.46    1.73
   6  -8  -2   20.58    1.68
  -6   8   2   20.78    1.72
  -6   8   2   21.51    1.86
  -6   8   2   19.89    2.00
  -6   8   2   23.50    1.84
   5  -8  -2    1.96    0.44
   5  -8  -2    1.76    0.48
   5  -8  -2    1.26    0.42
  -5   8   2    2.57    0.60
  -5   8   2    2.30    0.50
  -5   8   2    2.03    0.53
   4  -8  -2    2.79    0.55
   4  -8  -2    3.22    0.50
   4  -8  -2    3.76    0.61
   4  -8  -2    2.78    0.57
  -4   8   2    4.18    0.62
  -4   8   2    3.22    0.58
  -4   8   2    3.88    0.65
   3  -8  -2   15.47    1.34
   3  -8  -2   16.35    1.19
   3  -8  -2   15.92    1.31
   3  -8  -2   15.47    1.35
  -3   8   2   15.48    1.25
  -3   8   2   16.99    1.43
  -3   8   2   15.81    1.38
  -3   8   2   16.32    1.29
   2  -8  -2    6.83    0.89
   2  -8  -2    6.08    0.72
   2  -8  -2    6.44    0.70
   2  -8  -2    8.76    0.81
   2  -8  -2    6.35    0.79
  -2   8   2    6.29    0.58
  -2   8   2    6.98    0.69
  -2   8   2    7.25    1.42
   1  -8  -2   14.44    1.39
   1  -8  -2   12.65    1.09
   1  -8  -2   12.48    1.25
   1  -8  -2   12.71    1.12
  -1   8   2   11.76    2.18
  -1   8   2   12.65    1.02
  -1   8   2   11.90    2.11
   0  -8  -2   16.76    1.37
   0  -8  -2   17.04    1.86
   0  -8  -2   23.60    2.26
   0  -8  -2   15.88    1.38
   0  -8  -2   13.52    1.61
   0   8   2   19.23    2.99
   0   8   2   16.62    1.22
   0   8   2   13.84    1.53
   0   8   2   19.31    3.03
  -1  -8  -2   19.56    2.42
  -1  -8  -2   20.12    2.59
  -1  -8  -2   15.28    2.34
   1   8   2   21.08    1.52
   1   8   2   19.28    1.78
   1   8   2   18.91    1.28
  -2  -8  -2    0.65    0.81
  -2  -8  -2   -0.04    0.82
  -2  -8  -2    1.86    0.99
   2   8   2   -0.04    0.16
   2   8   2    0.01    0.19
   2   8   2    0.08    0.21
   2   8   2    0.05    0.55
  -3  -8  -2   30.34    2.95
  -3  -8  -2   30.44    2.82
  -3  -8  -2   34.75    2.88
  -3  -8  -2   34.63    2.95
  -3  -8  -2   30.78    2.80
   3   8   2   35.03    2.26
   3   8   2   32.51    2.33
  -4  -8  -2    2.48    1.90
  -4  -8  -2    2.62    0.83
  -4  -8  -2    1.41    0.81
  -4  -8  -2   -1.20    1.74
  -4  -8  -2    0.13    0.57
  -4  -8  -2    0.79    0.38
   4   8   2    2.05    1.30
   4   8   2    0.46    0.33
   4   8   2    0.87    0.31
   4   8   2   -0.41    1.01
  -5  -8  -2    2.45    0.93
  -5  -8  -2    2.28    0.74
  -5  -8  -2    2.54    0.80
  -5  -8  -2    0.20    2.17
  -5  -8  -2    2.77    0.70
   5   8   2    2.20    0.56
   5   8   2    1.51    1.33
   5   8   2    3.08    0.50
   5   8   2    2.41    1.36
  -6  -8  -2    1.59    0.58
  -6  -8  -2    1.58    0.72
  -6  -8  -2    1.37    0.76
  -6  -8  -2    2.63    0.84
   6   8   2    1.74    0.68
   6   8   2    0.80    1.51
   6   8   2    1.05    0.44
   6   8   2    2.72    1.66
   7  -9  -2    1.20    0.55
   7  -9  -2    1.90    0.61
   7  -9  -2    2.04    0.63
  -7   9   2    0.82    0.52
  -7   9   2    1.26    0.71
   6  -9  -2    2.81    0.62
   6  -9  -2    2.13    0.51
   6  -9  -2    2.04    0.55
  -6   9   2    1.66    0.51
  -6   9   2    0.99    0.62
  -6   9   2    2.91    0.74
   5  -9  -2   30.49    2.23
   5  -9  -2   27.25    2.19
   5  -9  -2   26.21    2.13
  -5   9   2   27.96    2.27
  -5   9   2   28.03    2.12
  -5   9   2   29.80    2.23
  -5   9   2   27.16    2.82
   4  -9  -2   26.06    1.77
   4  -9  -2   24.58    1.95
   4  -9  -2   23.66    1.87
   4  -9  -2   26.65    1.97
  -4   9   2   23.59    1.89
  -4   9   2   25.82    2.00
  -4   9   2   22.70    1.85
   3  -9  -2   57.05    4.02
   3  -9  -2   64.39    4.16
   3  -9  -2   58.08    4.07
   3  -9  -2   63.50    4.33
  -3   9   2   64.16    4.22
  -3   9   2   65.11    4.18
  -3   9   2   58.30    3.98
  -3   9   2   57.13    4.67
  -3   9   2   57.64    3.96
   2  -9  -2   24.32    1.97
   2  -9  -2   20.77    1.71
   2  -9  -2   21.57    1.69
  -2   9   2   22.93    1.65
  -2   9   2   28.83    3.59
   1  -9  -2   15.71    1.44
   1  -9  -2   15.08    1.26
   1  -9  -2   13.85    1.20
   1  -9  -2   14.98    1.55
  -1   9   2   14.49    2.68
  -1   9   2   12.59    2.01
  -1   9   2   11.82    2.36
  -1   9   2   14.71    1.12
   0  -9  -2   -0.43    0.53
   0  -9  -2    0.38    0.31
   0  -9  -2   -0.81    0.55
   0  -9  -2    0.20    0.25
   0   9   2    1.36    1.53
   0   9   2    0.10    1.52
   0   9   2    0.20    0.18
   0   9   2    0.05    0.40
  -1  -9  -2   19.20    2.43
  -1  -9  -2   22.64    1.83
  -1  -9  -2   16.23    2.69
  -1  -9  -2   19.79    1.75
  -1  -9  -2   16.65    2.32
   1   9   2   21.69    1.54
   1   9   2   21.82    1.51
  -2  -9  -2   -0.33    0.95
  -2  -9  -2    7.96    2.00
  -2  -9  -2    0.06    0.83
   2   9   2    0.02    0.49
   2   9   2    1.84    0.34
   2   9   2    1.54    0.71
   2   9   2    1.59    0.31
   2   9   2    1.66    0.31
  -3  -9  -2   70.64    5.47
  -3  -9  -2   73.35    5.69
  -3  -9  -2   78.78    5.69
   3   9   2   62.94    5.95
   3   9   2   81.60    4.93
   3   9   2   79.22    4.81
  -4  -9  -2    5.62    1.48
  -4  -9  -2    4.86    1.02
  -4  -9  -2    3.95    1.16
  -4  -9  -2    7.32    1.73
  -4  -9  -2    5.15    1.15
   4   9   2    6.31    0.62
   4   9   2    5.49    0.75
   4   9   2    5.41    1.68
  -5  -9  -2   15.85    1.63
  -5  -9  -2   19.27    3.78
  -5  -9  -2   19.57    2.02
  -5  -9  -2   20.05    1.88
  -5  -9  -2   14.09    1.93
  -5  -9  -2   17.45    3.43
   5   9   2   18.59    2.85
   5   9   2   19.48    1.64
   5   9   2   19.05    1.37
  -6  -9  -2    6.04    1.09
  -6  -9  -2    6.39    2.88
  -6  -9  -2    5.09    1.04
  -6  -9  -2    5.12    1.13
  -6  -9  -2    6.72    1.10
   6   9   2    5.80    1.88
   6   9   2    6.33    1.06
   6   9   2    6.07    1.80
   6   9   2    5.20    0.67
   6 -10  -2   50.46    3.39
   6 -10  -2   43.20    4.19
   6 -10  -2   50.47    3.49
  -6  10   2   52.74    3.48
  -6  10   2   46.01    3.61
   5 -10  -2    9.78    1.27
   5 -10  -2   11.77    1.19
   5 -10  -2    9.93    1.07
   5 -10  -2   11.28    0.99
  -5  10   2    9.75    1.20
  -5  10   2    9.95    1.06
  -5  10   2   10.31    1.21
   4 -10  -2    1.27    0.51
   4 -10  -2    0.04    0.23
   4 -10  -2    0.05    0.30
   4 -10  -2    0.30    0.35
   4 -10  -2    0.23    0.44
  -4  10   2   -0.43    0.41
  -4  10   2   -0.28    0.40
  -4  10   2    0.29    0.30
  -4  10   2   -0.35    0.86
   3 -10  -2   29.74    2.14
   3 -10  -2   29.31    2.16
   3 -10  -2   26.71    2.20
   3 -10  -2   26.11    2.06
  -3  10   2   28.60    2.25
  -3  10   2   32.09    3.19
  -3  10   2   27.19    2.01
   2 -10  -2  158.90   10.24
   2 -10  -2  164.86   10.14
   2 -10  -2  154.39    9.91
  -2  10   2  154.60   11.38
  -2  10   2  154.15    9.83
   1 -10  -2    8.30    1.25
   1 -10  -2    6.25    0.75
   1 -10  -2    6.32    0.81
   1 -10  -2    5.60    1.03
  -1  10   2    5.35    2.18
  -1  10   2    6.74    0.65
  -1  10   2    9.35    2.63
  -1  10   2    7.44    1.24
   0 -10  -2  140.92    8.86
   0 -10  -2  136.07    8.87
   0 -10  -2  136.99    9.64
   0 -10  -2  143.82    9.46
   0  10   2  139.53   10.72
   0  10   2  139.31   10.78
   0  10   2  137.21    8.78
  -1 -10  -2    7.23    1.86
  -1 -10  -2    5.89    1.61
  -1 -10  -2    8.72    0.96
  -1 -10  -2    5.92    1.51
  -1 -10  -2    5.71    0.90
   1  10   2    7.19    0.61
   1  10   2    6.99    0.67
  -2 -10  -2   -0.34    0.83
  -2 -10  -2    0.16    1.00
  -2 -10  -2   -0.76    1.22
   2  10   2   -0.30    0.44
   2  10   2    0.20    0.50
   2  10   2    0.21    0.18
   2  10   2    0.40    0.18
   2  10   2    0.30    0.18
  -3 -10  -2    7.93    1.39
  -3 -10  -2    8.23    1.71
  -3 -10  -2    5.99    1.38
   3  10   2    6.28    1.42
   3  10   2    6.99    1.37
   3  10   2    7.67    0.75
  -4 -10  -2   27.42    2.51
  -4 -10  -2   27.84    2.38
  -4 -10  -2   27.58    2.87
   4  10   2   17.77    2.80
   4  10   2   27.50    2.11
   4  10   2   20.47    3.27
  -5 -10  -2    1.50    1.03
  -5 -10  -2    1.31    0.85
  -5 -10  -2    1.13    1.45
  -5 -10  -2    1.72    1.48
  -5 -10  -2    1.13    0.69
   5  10   2   -0.44    1.43
   5  10   2   -1.11    1.39
   5  10   2    1.57    0.56
   5 -11  -2    0.31    0.40
   5 -11  -2   -0.18    0.31
   5 -11  -2    0.53    0.38
  -5  11   2   -0.12    1.19
  -5  11   2    0.24    0.35
   4 -11  -2   13.39    1.20
   4 -11  -2   11.30    1.20
   4 -11  -2   13.40    1.35
   4 -11  -2   12.72    1.28
  -4  11   2   12.47    1.13
  -4  11   2    9.63    1.93
  -4  11   2   11.81    1.38
  -4  11   2   11.13    1.39
   3 -11  -2    2.59    0.89
   3 -11  -2    2.22    0.64
   3 -11  -2    1.77    0.45
   3 -11  -2    2.01    0.46
  -3  11   2    1.96    0.44
  -3  11   2    1.48    1.98
   2 -11  -2    8.03    0.87
   2 -11  -2    7.92    0.83
   2 -11  -2    8.64    1.24
   2 -11  -2   10.24    1.47
  -2  11   2    8.07    2.21
  -2  11   2    5.47    1.76
  -2  11   2    7.82    0.77
  -2  11   2    7.24    2.24
   1 -11  -2    9.68    1.38
   1 -11  -2   10.92    1.02
   1 -11  -2   10.75    1.56
   1 -11  -2   10.84    0.99
  -1  11   2   10.91    0.87
  -1  11   2   11.78    3.66
  -1  11   2    6.79    2.96
  -1  11   2   10.47    1.26
   0 -11  -2    1.56    1.07
   0 -11  -2    0.27    0.29
   0 -11  -2    0.03    0.27
   0 -11  -2   -0.47    0.80
   0  11   2    1.82    1.64
   0  11   2    0.22    0.28
   0  11   2   -0.20    0.15
   0  11   2   -0.12    1.61
  -1 -11  -2    6.25    0.91
  -1 -11  -2    7.52    0.85
  -1 -11  -2    5.57    1.46
  -1 -11  -2   12.23    2.15
  -1 -11  -2    5.56    1.78
  -2 -11  -2    1.71    1.02
  -2 -11  -2    0.24    0.43
  -2 -11  -2    0.40    0.47
  -2 -11  -2    0.94    1.11
  -2 -11  -2    0.14    0.98
   2  11   2    0.59    0.47
  -3 -11  -2    0.24    0.81
  -3 -11  -2    1.69    0.89
   3  11   2    1.92    0.40
   3  11   2    2.83    0.90
  -4 -11  -2    0.48    1.38
  -4 -11  -2    1.12    0.75
  -4 -11  -2    0.20    0.87
   4  11   2    0.20    0.37
   4  11   2    0.08    1.13
  -5 -11  -2    7.24    1.18
  -5 -11  -2    7.96    1.35
  -5 -11  -2    5.11    1.64
   5  11   2    4.71    1.87
   5  11   2    6.52    0.95
   5 -12  -2    1.07    0.44
   5 -12  -2    1.76    0.72
   5 -12  -2    0.82    0.48
  -5  12   2    1.01    0.48
   4 -12  -2    4.19    0.70
   4 -12  -2    5.92    0.95
   4 -12  -2    4.15    0.90
   4 -12  -2    5.38    1.07
  -4  12   2    7.44    2.46
  -4  12   2    4.86    0.69
   3 -12  -2    2.43    0.51
   3 -12  -2    2.40    0.54
   3 -12  -2    2.29    0.97
   3 -12  -2    2.68    0.74
  -3  12   2    1.98    1.75
  -3  12   2    1.74    1.83
  -3  12   2    2.99    0.51
  -3  12   2   -0.63    2.21
   2 -12  -2   20.37    2.14
   2 -12  -2   21.95    1.66
   2 -12  -2   21.26    1.70
   2 -12  -2   20.88    1.98
  -2  12   2   21.26    4.08
  -2  12   2   16.94    2.27
  -2  12   2   18.87    3.79
  -2  12   2   22.59    1.55
   1 -12  -2    4.55    1.10
   1 -12  -2    4.47    0.65
   1 -12  -2    3.93    0.65
   1 -12  -2    4.13    0.96
  -1  12   2    1.83    2.56
  -1  12   2    5.54    2.77
  -1  12   2    4.70    0.71
   0 -12  -2   14.48    2.57
   0 -12  -2   13.93    1.20
   0 -12  -2   13.37    2.23
   0 -12  -2   13.72    1.23
   0  12   2   10.44    2.45
   0  12   2   11.90    2.68
  -1 -12  -2    8.92    0.97
  -1 -12  -2    7.56    1.75
  -1 -12  -2    5.59    1.85
  -1 -12  -2    9.07    1.01
  -2 -12  -2    0.53    1.02
  -2 -12  -2    1.17    1.22
  -2 -12  -2    0.71    0.47
  -2 -12  -2    1.07    0.49
  -3 -12  -2   25.52    2.56
  -3 -12  -2   22.01    2.64
  -3 -12  -2   31.31    3.88
   3  12   2   28.49    2.29
  -4 -12  -2   10.43    2.59
  -4 -12  -2   12.39    1.78
  -4 -12  -2   17.01    1.88
   4  12   2   18.70    1.45
   4  12   2   17.38    2.05
   4  12   2   16.48    2.53
   4 -13  -2    3.37    0.68
   4 -13  -2    4.95    0.72
   4 -13  -2    3.36    0.98
   4 -13  -2    3.09    0.99
  -4  13   2    4.48    0.65
  -4  13   2    1.17    2.96
  -4  13   2    3.12    2.29
  -4  13   2    2.49    2.08
   3 -13  -2   26.12    1.93
   3 -13  -2   25.78    2.48
   3 -13  -2   26.55    2.00
  -3  13   2   17.30    3.82
  -3  13   2   23.62    1.78
   2 -13  -2    1.66    0.45
   2 -13  -2    1.76    0.45
   2 -13  -2    1.39    0.83
   2 -13  -2    4.06    1.19
  -2  13   2    2.21    2.81
  -2  13   2    1.58    0.36
  -2  13   2    2.10    0.79
  -2  13   2    3.47    3.01
   1 -13  -2   16.91    2.01
   1 -13  -2   13.09    1.21
   1 -13  -2   13.96    1.27
   1 -13  -2   15.47    2.23
  -1  13   2    9.49    3.73
  -1  13   2   15.68    4.16
   0 -13  -2   -0.11    0.31
   0 -13  -2   -0.31    1.36
   0 -13  -2   -0.11    0.27
   0 -13  -2    1.19    1.29
   0  13   2    0.50    1.56
  -1 -13  -2  101.27    6.00
  -1 -13  -2   71.86    6.82
  -1 -13  -2   98.91    5.95
  -1 -13  -2   77.68    7.30
  -2 -13  -2   -0.91    1.40
  -2 -13  -2    0.40    0.44
  -2 -13  -2    1.68    1.10
  -2 -13  -2    1.39    1.16
  -2 -13  -2    0.40    0.45
  -3 -13  -2   31.10    2.87
  -3 -13  -2   29.47    3.50
  -3 -13  -2   28.75    2.65
  -3 -13  -2   36.40    2.71
  -3 -13  -2   34.84    3.10
   2 -14  -2    1.24    0.43
   2 -14  -2    1.79    1.17
   2 -14  -2    1.66    0.52
   2 -14  -2    1.63    0.93
  -2  14   2    0.04    3.47
  -2  14   2    0.41    3.37
   1 -14  -2    1.25    0.48
   1 -14  -2    2.29    1.21
   1 -14  -2   -0.47    1.38
  -1  14   2    1.25    3.10
  -1  14   2    4.10    2.98
   0 -14  -2   -0.22    1.51
   0 -14  -2   -0.05    1.25
   0 -14  -2    0.17    0.37
  -1 -14  -2    4.14    0.73
  -1 -14  -2    4.72    1.70
  -1 -14  -2    4.46    2.01
  -1 -14  -2    2.53    0.67
  -2 -14  -2    3.30    1.22
  -2 -14  -2    0.17    0.47
  -2 -14  -2   -2.09    1.25
  -2 -14  -2    0.40    0.44
   0  14  -3    0.36    2.89
   0  14  -3    2.11    2.95
   0 -14   3    2.64    0.62
  -1  14  -3    1.50    3.35
  -1  14  -3   -0.94    3.83
   1 -14   3    2.96    0.52
   1 -14   3    1.09    0.79
   1 -14   3    2.72    0.43
   1 -14   3    1.94    0.72
   1 -14   3    0.95    0.56
  -4 -13   3    1.18    2.90
  -4 -13   3    0.96    1.74
  -4 -13   3    0.31    0.42
  -3 -13   3   38.85    2.65
  -3 -13   3   37.61    2.90
  -2 -13   3    0.61    0.30
  -1 -13   3  112.89    7.01
  -1 -13   3  112.69    7.17
   0  13  -3   -0.46    2.56
   0  13  -3    1.49    2.48
   0 -13   3    0.46    0.36
  -1  13  -3   18.44    5.20
  -1  13  -3   20.58    5.42
   1 -13   3   22.17    1.44
   1 -13   3   19.68    1.38
   1 -13   3   16.61    1.81
   1 -13   3   20.36    1.40
   1 -13   3   14.25    1.67
   1 -13   3   20.86    1.60
  -2  13  -3    2.24    2.94
  -2  13  -3   -1.82    2.99
   2 -13   3    0.08    0.36
   2 -13   3    0.04    0.34
   2 -13   3   -0.13    0.53
   2 -13   3    0.29    0.30
   2 -13   3    0.34    0.51
  -3  13  -3   15.90    4.48
  -3  13  -3   14.51    4.22
   3 -13   3   18.44    1.76
   3 -13   3   18.72    1.54
   3 -13   3   19.55    1.52
   3 -13   3   18.99    1.63
  -5 -12   3   -3.26    4.73
  -5 -12   3    1.94    1.13
  -5 -12   3    4.20    0.76
  -4 -12   3   30.09    6.03
  -4 -12   3   25.64    1.98
  -4 -12   3   22.87    5.66
  -3 -12   3   21.34    1.69
  -3 -12   3   30.29    5.21
  -3 -12   3   23.72    4.45
  -2 -12   3    0.36    0.26
   1  12  -3    1.46    2.69
   0  12  -3   14.09    3.92
   0  12  -3   10.53    3.80
   0 -12   3   18.85    1.39
   0 -12   3   18.25    1.41
   0 -12   3   20.09    1.54
   0 -12   3   19.94    1.28
  -1  12  -3    6.42    3.47
  -1  12  -3    6.12    3.46
   1 -12   3    5.28    0.90
   1 -12   3    6.10    0.64
   1 -12   3    6.65    0.80
   1 -12   3    8.03    0.93
   1 -12   3    6.13    0.71
   1 -12   3    6.47    0.76
   1 -12   3    5.50    0.72
  -2  12  -3   25.61    2.09
  -2  12  -3   18.22    4.40
  -2  12  -3   17.51    4.58
   2 -12   3   26.93    1.96
   2 -12   3   24.62    2.00
   2 -12   3   29.86    1.99
   2 -12   3   27.82    1.92
  -3  12  -3    3.93    2.07
  -3  12  -3    3.44    0.84
   3 -12   3    5.70    0.82
   3 -12   3    5.49    0.72
   3 -12   3    5.34    0.93
   3 -12   3    4.72    0.85
  -4  12  -3    2.79    2.07
  -4  12  -3    5.24    2.50
   4 -12   3    9.56    1.12
   4 -12   3    8.90    1.05
   4 -12   3    7.92    1.08
  -5 -11   3    4.99    0.92
  -5 -11   3    7.02    5.72
  -5 -11   3    6.18    0.90
  -5 -11   3    3.07    5.03
  -4 -11   3    7.01    4.29
  -4 -11   3    5.10    0.95
  -4 -11   3    5.26    5.63
  -4 -11   3    6.05    0.85
  -3 -11   3    1.84    0.92
  -3 -11   3    1.12    0.38
  -3 -11   3   -0.25    2.17
  -3 -11   3    0.82    2.42
  -2 -11   3    0.66    1.94
  -2 -11   3    1.78    0.39
  -2 -11   3    1.41    1.69
   1  11  -3   12.58    3.82
  -1 -11   3   11.31    0.97
  -1 -11   3   11.81    0.90
   0  11  -3    0.45    2.17
   0  11  -3    1.22    2.30
   0 -11   3    0.67    0.41
   0 -11   3   -0.11    0.44
   0 -11   3   -0.10    0.22
   0 -11   3    0.03    0.21
   0 -11   3    0.09    0.44
   0 -11   3   -0.35    0.22
   0 -11   3    0.04    0.17
  -1  11  -3    9.87    3.46
  -1  11  -3   11.37    3.56
   1 -11   3   17.50    1.22
   1 -11   3   14.03    1.27
   1 -11   3   17.16    1.43
   1 -11   3   17.22    1.35
   1 -11   3   16.32    1.25
  -2  11  -3    1.14    1.77
  -2  11  -3    3.09    0.65
  -2  11  -3    1.17    1.98
  -2  11  -3    3.17    0.63
   2 -11   3    3.76    0.54
   2 -11   3    4.54    0.66
   2 -11   3    4.24    0.67
   2 -11   3    3.13    0.58
  -3  11  -3    2.06    1.96
  -3  11  -3    0.17    1.90
  -3  11  -3   -0.15    0.53
   3 -11   3    0.19    0.45
   3 -11   3    0.59    0.35
   3 -11   3    0.43    0.50
   3 -11   3    0.64    0.39
  -4  11  -3    3.29    2.02
  -4  11  -3    4.54    2.16
   4 -11   3    5.31    0.87
   4 -11   3    4.47    0.77
   4 -11   3    3.38    0.65
   4 -11   3    3.52    0.74
   6  10  -3    6.63    0.77
  -6 -10   3   -2.32    6.78
  -6 -10   3    6.27    0.63
  -6 -10   3    6.78    0.63
  -6 -10   3    5.81    0.88
  -6 -10   3    6.79    1.06
  -5 -10   3    3.96    0.39
  -5 -10   3    4.66    0.40
  -5 -10   3   10.10    5.11
  -5 -10   3    3.89    0.67
  -5 -10   3    3.02    4.94
  -4 -10   3   34.33    2.49
  -4 -10   3   31.09    6.67
  -4 -10   3   33.87    2.40
  -4 -10   3   30.08    6.78
  -3 -10   3   11.14    0.97
  -3 -10   3    9.38    4.17
  -3 -10   3    7.71    1.03
  -3 -10   3    9.42    3.65
  -2 -10   3    0.74    1.84
  -2 -10   3    1.84    1.98
   1  10  -3    1.56    1.90
  -1 -10   3    4.68    0.45
  -1 -10   3    4.57    0.56
   0  10  -3   82.04    9.18
   0  10  -3   88.35    9.26
   0 -10   3   97.59    5.80
   0 -10   3   92.04    5.83
   0 -10   3  101.26    6.00
   0 -10   3   78.03    5.86
   0 -10   3   99.31    5.77
  -1  10  -3    7.38    2.93
  -1  10  -3   12.66    1.07
  -1  10  -3   11.43    1.02
  -1  10  -3    5.79    2.64
   1 -10   3   11.15    0.97
   1 -10   3   12.21    1.22
   1 -10   3   11.91    1.00
  -2  10  -3   81.68    9.05
  -2  10  -3   98.64    6.16
  -2  10  -3   87.51    8.38
   2 -10   3   93.72    6.12
   2 -10   3   95.97    6.07
   2 -10   3   96.77    6.23
   2 -10   3   99.76    6.13
  -3  10  -3   23.27    1.87
  -3  10  -3   20.12    3.47
  -3  10  -3   24.89    3.72
   3 -10   3   23.73    1.86
   3 -10   3   23.39    1.88
   3 -10   3   24.19    1.95
   3 -10   3   23.74    1.80
  -4  10  -3    0.50    1.13
  -4  10  -3    0.28    0.48
  -4  10  -3    0.64    0.49
  -4  10  -3    0.64    1.26
   4 -10   3    0.75    0.42
   4 -10   3    0.78    0.42
   4 -10   3    0.88    0.50
  -5  10  -3   14.74    2.99
  -5  10  -3   15.52    3.19
  -5  10  -3   11.26    1.30
   5 -10   3   12.95    1.43
   5 -10   3   13.11    1.50
   7   9  -3    1.03    0.63
  -7  -9   3   -0.28    0.78
   6   9  -3    6.22    1.02
   6   9  -3    5.29    1.93
   6   9  -3    9.03    1.73
  -6  -9   3    6.64    0.70
  -6  -9   3    7.06    1.06
  -6  -9   3   10.49    5.28
  -6  -9   3    6.12    5.01
  -6  -9   3    7.11    0.68
  -6  -9   3    7.85    0.94
   5   9  -3    7.02    0.69
  -5  -9   3    6.28    0.88
  -5  -9   3    6.85    0.83
  -5  -9   3   11.16    4.90
  -5  -9   3    6.30    0.57
  -5  -9   3    7.35    4.95
  -5  -9   3    7.01    0.60
  -4  -9   3   20.60    1.34
  -4  -9   3   28.77    6.22
  -4  -9   3   20.52    1.54
  -4  -9   3   18.50    5.72
  -4  -9   3   23.34    1.75
  -3  -9   3   61.88    8.38
  -3  -9   3   58.78    3.96
  -3  -9   3   56.30    7.96
  -2  -9   3    2.41    2.18
  -2  -9   3    1.98    0.42
  -2  -9   3    2.39    2.11
   1   9  -3    9.36    3.41
   1   9  -3   12.50    3.84
  -1  -9   3   19.41    1.37
  -1  -9   3   13.10    2.90
  -1  -9   3   19.16    3.40
   0   9  -3    1.28    2.29
   0   9  -3    0.51    1.90
   0  -9   3   -0.15    0.17
   0  -9   3    0.00    0.22
   0  -9   3   -0.10    0.22
   0  -9   3    0.16    0.17
   0  -9   3    0.05    0.15
   0  -9   3    0.07    0.26
  -1   9  -3    7.61    0.72
  -1   9  -3    4.32    2.03
  -1   9  -3    5.18    2.17
  -1   9  -3    8.47    0.78
   1  -9   3    7.32    0.73
   1  -9   3    8.55    0.71
   1  -9   3    6.63    0.72
   1  -9   3    8.97    1.09
  -2   9  -3    9.41    2.46
  -2   9  -3   15.55    1.21
  -2   9  -3   14.01    1.24
  -2   9  -3   11.30    2.64
   2  -9   3   14.64    1.22
   2  -9   3   15.52    1.27
   2  -9   3   14.43    1.37
   2  -9   3   13.99    1.21
  -3   9  -3   24.65    2.04
  -3   9  -3   23.89    3.47
  -3   9  -3   29.40    1.98
  -3   9  -3   23.93    3.46
   3  -9   3   25.54    1.98
   3  -9   3   27.26    2.28
   3  -9   3   22.82    1.94
   3  -9   3   26.20    1.93
  -4   9  -3   12.55    1.40
  -4   9  -3   12.32    1.18
  -4   9  -3   12.48    1.34
  -4   9  -3   12.05    2.65
  -4   9  -3   16.45    3.21
   4  -9   3   12.41    1.32
   4  -9   3   12.96    1.28
   4  -9   3   12.11    1.19
   4  -9   3   13.06    1.37
  -5   9  -3   10.00    2.25
  -5   9  -3   10.38    1.23
   5  -9   3   12.75    1.28
   5  -9   3   12.37    1.35
   5  -9   3   14.30    1.47
   5  -9   3   11.20    1.40
  -6   9  -3    2.81    0.72
   6  -9   3    2.25    0.89
   6  -9   3    2.72    0.83
   6  -9   3    3.59    0.76
   7   8  -3   -0.27    2.04
   7   8  -3    0.50    1.69
  -7  -8   3    0.41    0.48
  -7  -8   3    1.37    0.42
  -7  -8   3    1.56    0.59
   6   8  -3    4.64    1.74
   6   8  -3    8.63    1.06
  -6  -8   3    8.39    0.96
  -6  -8   3    9.04    4.43
  -6  -8   3    8.91    0.82
  -6  -8   3    9.73    3.80
  -6  -8   3    8.56    0.79
  -6  -8   3    8.84    1.07
   5   8  -3    7.76    0.94
   5   8  -3    4.72    1.26
   5   8  -3    3.85    1.20
  -5  -8   3    6.55    0.60
  -5  -8   3    7.75    0.64
  -5  -8   3    6.61    0.75
  -5  -8   3    6.42    3.96
  -5  -8   3    6.90    0.90
  -5  -8   3    5.17    3.36
  -4  -8   3    0.33    0.14
  -4  -8   3    0.12    0.21
  -4  -8   3    0.39    2.83
  -4  -8   3    0.17    0.12
  -4  -8   3    0.21    3.19
  -4  -8   3   -0.08    0.22
  -3  -8   3   42.28    7.54
  -3  -8   3   37.22    2.59
  -3  -8   3   34.86    2.32
  -3  -8   3   40.99    7.10
  -2  -8   3   -1.52    1.93
  -2  -8   3    1.65    0.40
  -2  -8   3    2.43    2.37
   1   8  -3    2.41    1.95
   1   8  -3    4.77    2.29
  -1  -8   3    6.03    2.25
  -1  -8   3    8.78    2.52
  -1  -8   3    7.44    0.73
   0   8  -3    3.49    2.22
   0   8  -3    1.72    2.09
   0  -8   3    2.79    0.37
   0  -8   3    3.17    0.41
   0  -8   3    2.93    0.35
  -1   8  -3    5.70    2.08
  -1   8  -3    4.37    2.08
  -1   8  -3   10.62    0.82
  -1   8  -3   11.09    0.86
   1  -8   3   12.01    1.28
   1  -8   3    8.41    0.83
   1  -8   3   10.85    0.83
   1  -8   3    7.95    0.81
  -2   8  -3    0.84    0.33
  -2   8  -3    0.97    1.05
  -2   8  -3    0.76    1.08
  -2   8  -3    2.40    0.51
   2  -8   3    1.68    0.42
   2  -8   3    1.28    0.33
   2  -8   3    1.61    0.39
   2  -8   3    1.64    0.58
  -3   8  -3   25.38    1.81
  -3   8  -3   23.01    3.15
  -3   8  -3   22.55    3.09
  -3   8  -3   24.93    1.93
   3  -8   3   23.00    1.81
   3  -8   3   23.88    1.87
   3  -8   3   24.26    1.89
  -4   8  -3    2.32    1.27
  -4   8  -3    1.73    0.58
  -4   8  -3    1.91    0.48
  -4   8  -3    1.90    1.08
   4  -8   3    1.25    0.44
   4  -8   3    3.64    0.80
   4  -8   3    1.91    0.53
   4  -8   3    1.40    0.46
  -5   8  -3    1.11    0.47
  -5   8  -3    0.02    0.56
  -5   8  -3    1.17    0.77
   5  -8   3    1.17    0.49
   5  -8   3    0.76    0.50
   5  -8   3    1.15    0.57
   5  -8   3    0.58    0.43
  -6   8  -3    6.81    0.96
   6  -8   3    6.97    1.12
   6  -8   3    8.13    1.12
   6  -8   3    9.61    2.06
   7   7  -3   26.38    3.12
  -7  -7   3   32.35    2.65
  -7  -7   3   34.62    2.33
  -7  -7   3   33.38    2.46
  -7  -7   3   33.76    2.36
   6   7  -3    2.75    1.17
   6   7  -3    2.73    1.13
  -6  -7   3    2.86    0.62
  -6  -7   3    3.36    0.53
  -6  -7   3    3.64    0.51
  -6  -7   3    3.98    0.61
   5   7  -3    8.82    1.64
   5   7  -3    8.94    1.03
  -5  -7   3    6.24    3.12
  -5  -7   3   10.09    0.83
  -5  -7   3    9.09    1.06
  -5  -7   3    9.98    0.90
  -5  -7   3   11.15    0.82
   4   7  -3    0.91    0.64
   4   7  -3   -0.11    0.56
   4   7  -3   -0.32    0.24
  -4  -7   3    0.09    0.13
  -4  -7   3    0.15    0.35
  -4  -7   3    0.21    0.15
  -4  -7   3    0.16    0.30
  -4  -7   3   -1.35    2.22
  -4  -7   3   -1.52    2.41
  -3  -7   3  104.96    6.84
  -3  -7   3  116.50    7.20
  -3  -7   3  116.25   11.61
  -3  -7   3  114.40   11.73
  -3  -7   3  113.46    6.91
  -2  -7   3    2.13    0.44
  -2  -7   3    4.19    2.51
  -2  -7   3    4.25    2.39
   1   7  -3  294.65   23.47
   1   7  -3  297.83   23.20
  -1  -7   3  339.61   23.06
  -1  -7   3  354.41   20.20
  -1  -7   3  328.85   23.14
   0   7  -3    0.09    0.12
   0   7  -3    0.20    1.56
   0   7  -3    0.20    0.13
   0   7  -3    0.72    1.44
   0  -7   3    0.19    0.15
   0  -7   3    0.10    0.18
   0  -7   3    0.44    0.17
  -1   7  -3   67.14    6.75
  -1   7  -3   72.29    6.97
  -1   7  -3   74.34    4.86
  -1   7  -3   79.24    4.83
   1  -7   3   77.17    4.85
   1  -7   3   71.86    4.82
   1  -7   3   80.02    4.82
  -2   7  -3    0.07    0.29
  -2   7  -3    0.24    0.26
  -2   7  -3   -0.91    0.73
  -2   7  -3    0.16    0.23
  -2   7  -3    1.11    1.00
   2  -7   3    0.23    0.37
   2  -7   3   -0.02    0.22
   2  -7   3    0.21    0.20
   2  -7   3    0.31    0.27
  -3   7  -3   56.20    4.98
  -3   7  -3   52.80    3.63
  -3   7  -3   56.36    4.93
  -3   7  -3   55.02    3.55
  -3   7  -3   52.12    3.66
   3  -7   3   50.32    3.97
   3  -7   3   53.05    3.64
   3  -7   3   51.19    3.57
   3  -7   3   51.81    3.61
  -4   7  -3    3.36    0.69
  -4   7  -3    3.45    0.61
   4  -7   3    3.78    0.81
   4  -7   3    3.22    0.63
   4  -7   3    3.15    0.71
   4  -7   3    3.48    0.62
  -5   7  -3   91.95    6.04
  -5   7  -3   89.89    6.26
  -5   7  -3   93.07    6.22
   5  -7   3   91.59    6.28
   5  -7   3   96.92    6.14
   5  -7   3   94.12    6.22
   5  -7   3   88.01    6.15
  -6   7  -3    2.09    0.60
   6  -7   3    2.01    0.66
   6  -7   3    2.65    0.68
   6  -7   3    1.47    0.69
   8   6  -3    8.68    1.69
  -8  -6   3    9.98    1.31
  -8  -6   3    8.91    1.08
  -8  -6   3    7.99    0.97
  -8  -6   3    6.13    0.99
   7   6  -3   12.05    1.82
   7   6  -3   11.44    1.37
   7   6  -3   12.77    1.77
  -7  -6   3   13.65    1.30
  -7  -6   3   14.00    1.47
  -7  -6   3   14.22    1.24
  -7  -6   3   15.80    1.22
   6   6  -3   94.58    6.62
   6   6  -3   89.53    6.69
  -6  -6   3  100.83    6.24
  -6  -6   3   99.83    6.20
  -6  -6   3   98.09    6.52
  -6  -6   3   99.72    6.29
   5   6  -3    6.20    1.18
   5   6  -3    8.06    1.14
   5   6  -3    5.74    0.80
  -5  -6   3    6.63    0.60
  -5  -6   3    7.39    0.70
  -5  -6   3    4.15    0.71
  -5  -6   3    5.14    0.60
   4   6  -3  126.06    7.76
   4   6  -3  100.56    7.77
  -4  -6   3  122.70    7.76
  -4  -6   3  125.89    7.45
  -4  -6   3  124.43    7.46
  -4  -6   3  124.33    7.53
  -4  -6   3  106.82   10.32
   3   6  -3  117.53    7.38
   3   6  -3  131.67    7.51
  -3  -6   3  113.93    7.41
  -3  -6   3  124.55   11.03
  -3  -6   3  136.63   11.47
  -3  -6   3  116.56    7.45
  -3  -6   3  117.23    7.72
  -2  -6   3    2.62    2.15
  -2  -6   3    1.73    0.36
  -2  -6   3    3.45    2.43
   1   6  -3    8.36    2.66
   1   6  -3    4.02    2.13
  -1  -6   3    6.05    0.73
  -1  -6   3    7.52    2.50
  -1  -6   3   10.15    3.41
   0   6  -3  136.21   11.71
   0   6  -3  125.83   11.73
   0   6  -3  133.85    8.44
   0   6  -3  135.47    8.42
   0  -6   3  144.80   10.56
   0  -6   3  129.86   10.45
   0  -6   3  142.34    8.52
   0  -6   3  142.18    8.50
  -1   6  -3   14.50    2.87
  -1   6  -3   13.18    1.02
  -1   6  -3   14.06    1.06
  -1   6  -3   12.76    2.91
   1  -6   3   13.02    1.08
   1  -6   3   13.56    1.05
   1  -6   3   13.40    1.07
  -2   6  -3  158.95    9.74
  -2   6  -3  151.34    9.77
  -2   6  -3  156.65    9.72
  -2   6  -3  156.39   11.26
  -2   6  -3  151.84   11.11
   2  -6   3  155.30    9.78
   2  -6   3  152.92    9.76
   2  -6   3  148.96    9.72
   2  -6   3  164.93   10.13
  -3   6  -3   17.28    2.32
  -3   6  -3   14.72    1.23
  -3   6  -3   14.84    1.30
  -3   6  -3   13.87    1.33
   3  -6   3   14.90    1.47
   3  -6   3   14.48    1.31
   3  -6   3   14.89    1.25
   3  -6   3   13.81    1.28
  -4   6  -3   28.53    2.26
  -4   6  -3   29.22    2.14
  -4   6  -3   28.59    2.31
   4  -6   3   28.56    2.18
   4  -6   3   29.62    2.39
   4  -6   3   27.57    2.20
  -5   6  -3    4.97    0.86
  -5   6  -3    4.36    0.72
   5  -6   3    4.55    0.93
   5  -6   3    3.93    0.77
   5  -6   3    3.21    0.66
   5  -6   3    4.38    0.88
  -6   6  -3   -0.36    0.62
  -6   6  -3   -0.45    0.38
   6  -6   3   -0.73    0.35
   6  -6   3    0.40    0.56
   6  -6   3   -0.17    0.45
  -7   6  -3    4.50    0.86
   7  -6   3    5.73    1.03
   7  -6   3    4.96    1.04
   8   5  -3    7.01    1.43
  -8  -5   3    5.29    0.86
  -8  -5   3    4.66    0.72
   7   5  -3   10.08    1.55
   7   5  -3   11.02    1.51
   7   5  -3    9.42    1.25
  -7  -5   3   11.70    1.10
  -7  -5   3   14.55    1.24
  -7  -5   3   13.21    1.37
  -7  -5   3   12.99    1.17
   6   5  -3   -0.25    0.49
   6   5  -3    0.82    0.57
  -6  -5   3    0.62    0.42
  -6  -5   3    0.14    0.28
  -6  -5   3   -0.13    0.22
  -6  -5   3   -0.10    0.26
   5   5  -3   13.08    1.35
   5   5  -3   14.94    1.46
   5   5  -3   13.05    1.26
  -5  -5   3   14.02    1.08
  -5  -5   3   15.30    1.13
  -5  -5   3   13.61    1.14
  -5  -5   3   13.72    1.31
   4   5  -3    7.53    0.89
   4   5  -3    7.05    0.91
  -4  -5   3    7.73    0.68
  -4  -5   3    7.28    0.64
  -4  -5   3    8.60    0.89
  -4  -5   3    8.70    0.72
   3   5  -3   17.06    1.29
   3   5  -3   17.31    1.35
   3   5  -3   17.69    1.28
  -3  -5   3   14.43    1.29
  -3  -5   3   14.69    1.06
  -3  -5   3   15.84    3.89
  -3  -5   3   15.39    1.08
  -3  -5   3   15.26    1.05
  -3  -5   3    9.39    2.69
  -2  -5   3   -0.49    1.51
  -2  -5   3    3.23    2.14
  -2  -5   3    1.62    0.39
   1   5  -3  116.51   11.08
   1   5  -3  122.87   11.47
  -1  -5   3  144.24    8.87
  -1  -5   3  168.57   12.06
   0   5  -3    0.51    1.37
   0   5  -3    0.57    0.14
   0   5  -3   -0.42    1.46
   0   5  -3    0.55    0.16
   0  -5   3    0.25    0.19
   0  -5   3    0.23    0.23
   0  -5   3   -0.10    0.18
   0  -5   3    1.35    1.08
   0  -5   3   -0.02    1.09
  -1   5  -3   87.59    7.21
  -1   5  -3   87.08    5.45
  -1   5  -3   84.79    5.41
  -1   5  -3   88.57    5.55
  -1   5  -3   77.75    6.93
   1  -5   3   83.56    5.48
   1  -5   3   84.36    5.43
   1  -5   3   88.00    5.48
  -2   5  -3    3.74    0.54
  -2   5  -3    1.69    0.86
  -2   5  -3    3.47    0.54
  -2   5  -3    1.77    0.84
  -2   5  -3    3.40    0.56
   2  -5   3    2.75    0.49
   2  -5   3    4.36    0.63
   2  -5   3    3.14    0.49
   2  -5   3    4.25    0.85
  -3   5  -3    7.37    0.80
  -3   5  -3    8.05    0.92
  -3   5  -3    8.64    0.87
   3  -5   3    6.82    0.86
   3  -5   3    9.52    0.95
   3  -5   3    5.54    0.74
   3  -5   3    7.24    1.00
  -4   5  -3    8.82    0.94
  -4   5  -3    9.16    1.11
  -4   5  -3    9.39    1.06
   4  -5   3    8.53    1.00
   4  -5   3    9.52    1.16
   4  -5   3    8.50    1.02
   4  -5   3    7.63    0.94
  -5   5  -3   27.39    2.26
  -5   5  -3   25.87    2.11
   5  -5   3   28.31    2.28
   5  -5   3   28.02    2.22
   5  -5   3   27.43    2.18
   5  -5   3   26.90    2.34
  -6   5  -3   -0.48    0.64
  -6   5  -3    0.24    0.57
  -6   5  -3    0.14    0.39
   6  -5   3   -0.21    0.42
   6  -5   3    0.21    0.52
   6  -5   3    0.45    0.49
   6  -5   3    1.13    0.64
  -7   5  -3    2.76    0.73
   7  -5   3    4.05    1.28
   7  -5   3    3.11    0.86
   8   4  -3    3.20    0.91
   8   4  -3    1.22    0.84
  -8  -4   3    1.35    0.61
  -8  -4   3    1.44    0.52
  -8  -4   3   -0.34    0.53
  -8  -4   3    1.75    0.56
   7   4  -3    0.66    0.47
   7   4  -3    0.98    0.62
  -7  -4   3    1.47    0.58
  -7  -4   3    1.54    0.45
  -7  -4   3    1.71    0.43
  -7  -4   3    1.62    0.49
   6   4  -3    3.30    0.68
   6   4  -3    3.67    0.82
  -6  -4   3    2.92    0.67
  -6  -4   3    2.59    0.47
  -6  -4   3    2.36    0.51
  -6  -4   3    2.33    0.50
   5   4  -3   12.53    1.17
   5   4  -3   12.69    1.19
   5   4  -3   12.49    1.23
  -5  -4   3   12.23    1.07
  -5  -4   3   12.83    1.06
  -5  -4   3   12.92    1.02
  -5  -4   3   13.10    1.25
   4   4  -3   54.67    3.78
   4   4  -3   53.61    3.80
   4   4  -3   56.33    3.75
  -4  -4   3   55.86    3.63
  -4  -4   3   58.87    3.65
  -4  -4   3   57.88    3.88
  -4  -4   3   55.55    3.60
   3   4  -3   38.36    2.54
   3   4  -3   41.05    2.74
  -3  -4   3   40.34    2.74
  -3  -4   3   38.73    2.50
  -3  -4   3   37.43    2.47
  -3  -4   3   36.62    2.48
   2   4  -3    5.77    0.47
   2   4  -3    5.87    0.43
   2   4  -3    5.15    0.44
   2   4  -3    6.15    0.51
  -2  -4   3    5.37    2.01
  -2  -4   3    5.23    0.64
  -2  -4   3    6.13    2.00
   1   4  -3   13.34    3.20
  -1  -4   3   14.32    3.45
  -1  -4   3   24.25    4.39
   0   4  -3  175.24   14.50
   0   4  -3  199.67   14.64
   0   4  -3  189.74   11.52
   0   4  -3  193.37   11.49
   0  -4   3  189.98   13.66
   0  -4   3  188.23   11.70
   0  -4   3  193.88   13.84
   0  -4   3  185.63   11.63
   0  -4   3  168.60   11.65
  -1   4  -3   29.10    1.99
  -1   4  -3   26.24    2.08
  -1   4  -3   27.32    3.13
  -1   4  -3   31.13    3.33
  -1   4  -3   28.69    1.95
   1  -4   3   26.95    1.96
   1  -4   3   29.14    2.02
   1  -4   3   26.67    2.01
  -2   4  -3  177.22   11.84
  -2   4  -3  166.53   10.83
  -2   4  -3  170.21   10.89
  -2   4  -3  172.42   11.89
   2  -4   3  178.84   10.90
   2  -4   3  186.16   11.30
   2  -4   3  167.19   10.84
   2  -4   3  165.41   10.81
  -3   4  -3   64.67    4.95
  -3   4  -3   66.04    4.51
  -3   4  -3   63.24    4.36
   3  -4   3   70.93    4.72
   3  -4   3   64.95    4.41
   3  -4   3   68.44    4.44
   3  -4   3   64.64    4.48
  -4   4  -3   -0.21    0.24
  -4   4  -3    0.14    0.34
  -4   4  -3    0.05    0.36
   4  -4   3   -0.04    0.29
   4  -4   3    0.16    0.30
   4  -4   3    0.26    0.41
   4  -4   3    0.00    0.27
  -5   4  -3   21.18    1.82
  -5   4  -3   17.66    1.61
   5  -4   3   18.76    1.74
   5  -4   3   18.94    1.84
   5  -4   3   17.71    1.66
   5  -4   3   19.84    1.69
  -6   4  -3   51.49    3.56
  -6   4  -3   49.00    3.84
  -6   4  -3   51.78    3.77
   6  -4   3   46.91    3.60
   6  -4   3   50.76    3.74
   6  -4   3   49.39    3.62
   6  -4   3   47.83    3.76
  -7   4  -3    0.12    0.83
  -7   4  -3    0.01    0.52
   7  -4   3    1.36    0.65
   7  -4   3    0.82    0.67
   8   3  -3    3.68    0.96
   8   3  -3    4.48    1.07
  -8  -3   3    3.79    0.69
  -8  -3   3    4.58    0.79
  -8  -3   3    4.72    1.02
  -8  -3   3    4.03    0.75
   7   3  -3   10.87    1.36
   7   3  -3   10.77    1.20
   7   3  -3   11.14    1.29
  -7  -3   3   11.42    1.12
  -7  -3   3   10.55    1.11
  -7  -3   3   10.85    1.26
   6   3  -3   18.57    1.65
   6   3  -3   20.95    1.74
   6   3  -3   19.68    1.63
  -6  -3   3   18.12    1.48
  -6  -3   3   19.42    1.56
  -6  -3   3   18.69    1.71
  -6  -3   3   20.18    1.55
   5   3  -3   16.61    1.45
   5   3  -3   15.80    1.42
  -5  -3   3   16.47    1.29
  -5  -3   3   18.07    1.34
  -5  -3   3   17.01    1.34
  -5  -3   3   17.05    1.50
   4   3  -3   65.90    4.48
   4   3  -3   66.57    4.40
   4   3  -3   68.42    4.37
  -4  -3   3   62.50    4.51
  -4  -3   3   71.34    4.34
  -4  -3   3   68.55    4.34
  -4  -3   3   67.08    4.30
   3   3  -3  189.92   11.96
   3   3  -3  197.86   12.13
   3   3  -3  192.61   11.94
  -3  -3   3  189.20   11.90
  -3  -3   3  196.67   11.93
  -3  -3   3  195.54   11.93
  -3  -3   3  191.59   12.13
   2   3  -3    5.69    0.45
   2   3  -3    5.26    0.43
   2   3  -3    5.66    0.48
  -2  -3   3    4.77    0.60
  -2  -3   3    4.63    0.43
  -2  -3   3    4.01    1.54
  -2  -3   3    4.91    0.42
   1   3  -3   93.98    8.81
   1   3  -3   89.54    5.69
  -1  -3   3   97.54    8.70
  -1  -3   3   92.43    5.76
   0   3  -3    0.15    0.99
   0   3  -3    0.23    0.24
   0   3  -3    0.11    0.19
   0   3  -3   -0.02    0.96
   0  -3   3    0.26    0.31
   0  -3   3    0.38    0.42
   0  -3   3    0.80    1.10
   0  -3   3    0.21    0.30
   0  -3   3    0.37    0.79
  -1   3  -3   26.99    1.97
  -1   3  -3   27.82    2.03
  -1   3  -3   23.90    2.84
   1  -3   3   29.04    2.07
   1  -3   3   30.64    2.05
   1  -3   3   25.55    1.97
  -2   3  -3   40.30    2.71
  -2   3  -3   38.37    2.75
  -2   3  -3   38.42    2.81
   2  -3   3   38.43    2.78
   2  -3   3   38.23    2.72
   2  -3   3   38.67    2.73
   2  -3   3   41.14    3.12
  -3   3  -3   86.30    5.39
  -3   3  -3   78.11    5.24
  -3   3  -3   79.47    5.42
   3  -3   3   77.85    5.28
   3  -3   3   77.93    5.29
   3  -3   3   83.92    5.59
   3  -3   3   79.09    5.37
  -4   3  -3   34.70    2.54
  -4   3  -3   40.20    2.83
  -4   3  -3   35.63    2.67
   4  -3   3   35.12    2.80
   4  -3   3   36.19    2.61
   4  -3   3   31.61    2.56
   4  -3   3   32.15    2.64
  -5   3  -3   47.09    3.43
  -5   3  -3   52.25    3.73
  -5   3  -3   55.14    3.68
   5  -3   3   45.88    3.49
   5  -3   3   44.19    3.81
  -6   3  -3    8.98    1.47
  -6   3  -3   11.01    1.49
  -6   3  -3   11.79    1.24
   6  -3   3   11.55    1.62
   6  -3   3   10.07    1.37
   6  -3   3   11.49    1.32
  -7   3  -3    1.05    0.56
  -7   3  -3    0.80    0.81
   7  -3   3    1.08    0.69
   7  -3   3    1.05    0.69
   8   2  -3    3.42    0.83
   8   2  -3    3.71    0.89
   8   2  -3    3.97    0.64
  -8  -2   3    5.06    0.81
  -8  -2   3    6.13    0.93
  -8  -2   3    3.46    0.90
  -8  -2   3    3.74    0.70
   7   2  -3   -0.23    0.42
   7   2  -3    0.03    0.41
   7   2  -3   -0.19    0.40
   7   2  -3    0.73    0.34
  -7  -2   3    0.41    0.35
  -7  -2   3    0.17    0.33
  -7  -2   3   -0.32    0.36
  -7  -2   3    0.72    0.47
   6   2  -3    0.38    0.36
   6   2  -3    0.80    0.39
   6   2  -3    0.42    0.27
   6   2  -3   -0.03    0.30
  -6  -2   3    0.10    0.27
  -6  -2   3    0.55    0.30
   5   2  -3   10.81    1.07
   5   2  -3   10.60    0.99
   5   2  -3   10.32    1.06
   5   2  -3   11.88    0.92
  -5  -2   3   10.71    0.94
  -5  -2   3   10.63    0.98
  -5  -2   3   10.14    0.97
  -5  -2   3   12.46    1.16
   4   2  -3   15.83    1.27
   4   2  -3   15.10    1.31
  -4  -2   3   15.45    1.18
  -4  -2   3   15.95    1.22
  -4  -2   3   15.65    1.21
  -4  -2   3   16.30    1.37
   3   2  -3   71.69    4.61
   3   2  -3   75.16    4.75
   3   2  -3   70.73    4.58
  -3  -2   3   72.41    4.76
  -3  -2   3   71.07    4.59
  -3  -2   3   72.42    4.56
  -3  -2   3   72.07    4.59
   2   2  -3    2.73    0.32
   2   2  -3    3.22    0.32
   2   2  -3    3.12    0.34
  -2  -2   3    2.92    0.32
  -2  -2   3    3.54    0.47
  -2  -2   3    2.88    0.32
   1   2  -3   17.08    1.51
   1   2  -3   18.43    1.20
   1   2  -3   17.85    1.43
   1   2  -3   16.05    1.20
  -1  -2   3   12.60    2.79
  -1  -2   3   18.08    2.85
  -1  -2   3   15.41    1.24
  -1  -2   3   16.94    1.29
   0   2  -3   73.64    5.62
   0   2  -3   97.16    8.17
   0   2  -3   71.66    5.52
   0  -2   3   77.97    5.66
   0  -2   3   98.04    7.45
   0  -2   3   83.81    5.82
   0  -2   3   97.12    7.51
   0  -2   3   95.50    5.81
  -1   2  -3   39.24    2.60
  -1   2  -3   32.01    3.25
  -1   2  -3   36.16    3.41
  -1   2  -3   38.29    2.67
  -1   2  -3   33.16    2.58
   1  -2   3   33.56    2.55
   1  -2   3   36.04    2.56
   1  -2   3   35.03    2.62
  -2   2  -3   78.37    5.23
  -2   2  -3   85.18    5.38
  -2   2  -3   80.71    5.41
   2  -2   3   77.78    5.28
   2  -2   3   74.37    5.33
   2  -2   3   88.25    5.69
   2  -2   3   80.40    5.29
  -3   2  -3   57.77    3.84
  -3   2  -3   52.52    3.67
  -3   2  -3   55.91    3.90
   3  -2   3   50.91    3.72
   3  -2   3   53.58    3.72
   3  -2   3   53.48    3.81
   3  -2   3   56.80    3.99
  -4   2  -3    1.54    0.52
  -4   2  -3    0.27    0.39
  -4   2  -3    0.90    0.38
   4  -2   3    0.85    0.48
   4  -2   3    0.84    0.40
   4  -2   3    1.04    0.52
   4  -2   3    1.66    0.47
  -5   2  -3   14.04    1.34
  -5   2  -3   14.43    1.51
  -5   2  -3   14.11    1.62
   5  -2   3   15.17    1.44
   5  -2   3   13.10    1.50
   5  -2   3   14.17    1.51
  -6   2  -3   43.06    3.19
  -6   2  -3   45.41    3.83
  -6   2  -3   38.06    2.92
   6  -2   3   39.99    3.19
   6  -2   3   34.71    2.98
   6  -2   3   41.56    3.07
   6  -2   3   36.34    3.08
  -7   2  -3   -1.27    0.74
  -7   2  -3   -0.21    0.45
   7  -2   3    0.03    0.57
   7  -2   3    0.55    0.66
   8   1  -3    8.26    1.31
   8   1  -3    8.34    1.19
  -8  -1   3    8.23    1.05
  -8  -1   3    9.60    1.14
  -8  -1   3    9.18    1.22
  -8  -1   3   10.77    1.14
   7   1  -3   32.28    2.69
   7   1  -3   35.82    2.49
   7   1  -3   33.38    2.62
  -7  -1   3   36.83    2.78
  -7  -1   3   34.51    2.58
  -7  -1   3   35.72    2.59
  -7  -1   3   35.82    2.54
   6   1  -3    1.30    0.43
   6   1  -3    1.40    0.44
   6   1  -3    2.03    0.56
  -6  -1   3    0.84    0.37
  -6  -1   3    2.34    0.49
  -6  -1   3    0.63    0.35
  -6  -1   3    1.99    0.43
   5   1  -3   16.91    1.46
   5   1  -3   16.93    1.31
   5   1  -3   18.23    1.46
   5   1  -3   17.11    1.40
  -5  -1   3   18.99    1.41
  -5  -1   3   15.57    1.48
  -5  -1   3   17.36    1.39
   4   1  -3    0.37    0.24
   4   1  -3    0.66    0.27
   4   1  -3    0.42    0.22
  -4  -1   3    0.66    0.33
  -4  -1   3    0.77    0.27
  -4  -1   3    0.45    0.20
  -4  -1   3    0.41    0.21
   3   1  -3  111.60    6.70
   3   1  -3  106.09    6.71
   3   1  -3  111.19    6.82
  -3  -1   3   89.50    6.80
  -3  -1   3  109.64    6.69
  -3  -1   3  107.08    6.66
  -3  -1   3  107.32    6.83
   2   1  -3   10.22    0.80
   2   1  -3   10.86    0.83
  -2  -1   3   11.99    0.83
  -2  -1   3    9.47    0.78
  -2  -1   3    9.65    1.03
   1   1  -3  498.75   28.33
   1   1  -3  497.14   28.18
   1   1  -3  481.35   28.23
  -1  -1   3  389.35   29.27
  -1  -1   3  464.31   28.26
  -1  -1   3  419.27   29.51
  -1  -1   3  453.52   28.19
   0   1  -3    0.76    0.34
   0   1  -3    0.52    0.88
   0   1  -3    0.88    0.55
   0   1  -3    1.01    0.55
   0   1  -3    0.51    0.87
   0  -1   3    0.84    0.50
   0  -1   3    0.39    0.38
   0  -1   3    0.07    0.73
   0  -1   3    0.37    0.76
   0  -1   3    0.72    0.41
  -1   1  -3  122.56    8.19
  -1   1  -3  126.30    9.26
  -1   1  -3  126.07    8.84
  -1   1  -3  111.00    8.23
   1  -1   3  136.78    8.15
   1  -1   3  130.83    8.18
  -2   1  -3    2.98    0.54
  -2   1  -3    3.71    0.67
  -2   1  -3    4.37    0.91
   2  -1   3    2.72    0.52
   2  -1   3    2.22    0.50
   2  -1   3    3.26    0.77
   2  -1   3    3.07    0.69
  -3   1  -3   46.17    3.23
  -3   1  -3   47.88    3.50
  -3   1  -3   50.25    3.44
   3  -1   3   45.45    3.48
   3  -1   3   44.57    3.26
   3  -1   3   48.22    3.34
   3  -1   3   46.58    3.42
  -4   1  -3   10.86    1.15
  -4   1  -3    8.68    0.91
  -4   1  -3    8.81    1.30
   4  -1   3    5.88    0.93
   4  -1   3    6.29    1.09
   4  -1   3    7.61    0.91
   4  -1   3    8.79    1.09
  -5   1  -3  105.51    6.52
  -5   1  -3   84.52    6.47
  -5   1  -3  104.87    6.61
  -5   1  -3   93.55    6.25
   5  -1   3   86.43    6.29
   5  -1   3   91.86    6.35
   5  -1   3  102.81    6.81
   5  -1   3   92.93    6.47
  -6   1  -3    0.16    0.51
  -6   1  -3    0.51    0.44
  -6   1  -3    1.21    0.65
  -6   1  -3   -0.02    0.60
   6  -1   3    0.71    0.56
   6  -1   3    0.70    0.55
   6  -1   3    0.40    0.33
   6  -1   3   -0.36    0.47
  -7   1  -3    7.30    1.21
  -7   1  -3    4.53    0.86
   7  -1   3    4.67    0.89
   7  -1   3    8.20    1.21
   8   0  -3   10.53    1.24
   8   0  -3    7.79    1.12
   8   0  -3    9.99    1.29
  -8   0   3   10.23    1.21
  -8   0   3    9.08    1.11
  -8   0   3    9.42    1.25
  -8   0   3    9.20    1.07
   7   0  -3   27.82    2.25
   7   0  -3   28.39    2.28
   7   0  -3   28.49    2.21
   7   0  -3   30.88    2.12
  -7   0   3   27.51    2.15
  -7   0   3   25.12    2.27
  -7   0   3   27.25    2.18
  -7   0   3   28.25    2.13
   6   0  -3  169.98   10.90
   6   0  -3  172.60   10.99
   6   0  -3  176.06   11.08
   6   0  -3  173.35   11.06
  -6   0   3  176.18   10.98
  -6   0   3  176.66   10.99
  -6   0   3  169.37   11.13
  -6   0   3  175.30   10.93
   5   0  -3   15.79    1.37
   5   0  -3   17.41    1.44
   5   0  -3   19.51    1.55
   5   0  -3   19.44    1.52
  -5   0   3   19.31    1.47
  -5   0   3   17.75    1.55
  -5   0   3   17.67    1.41
  -5   0   3   18.14    1.45
   4   0  -3  211.23   13.39
   4   0  -3  209.48   13.43
   4   0  -3  218.29   13.53
  -4   0   3  218.19   13.45
  -4   0   3  211.53   13.57
  -4   0   3  221.97   13.46
  -4   0   3  222.07   13.44
   3   0  -3  161.25    9.92
   3   0  -3  158.57    9.94
   3   0  -3  162.22   10.01
  -3   0   3  159.89   10.04
  -3   0   3  160.62    9.92
  -3   0   3  158.68    9.93
  -3   0   3  152.48    9.88
   2   0  -3    1.84    0.30
   2   0  -3    1.20    0.25
   2   0  -3    0.67    0.19
  -2   0   3    1.84    0.33
  -2   0   3    1.23    0.34
  -2   0   3    1.24    0.24
  -2   0   3    1.41    0.30
   1   0  -3   26.26    1.89
   1   0  -3   25.02    1.79
   1   0  -3   25.21    1.81
   1   0  -3   25.76    1.83
  -1   0   3   23.41    1.87
  -1   0   3   22.76    1.80
   0   0  -3  196.37   12.56
   0   0  -3  210.91   12.80
   0   0  -3  184.26   13.41
   0   0  -3  213.27   12.50
   0   0  -3  177.02   13.23
   0   0   3  190.73   12.74
   0   0   3  191.37   12.59
  -1   0  -3   16.56    1.85
  -1   0  -3   17.95    1.97
  -1   0  -3   19.71    1.68
  -1   0  -3   18.28    2.01
  -1   0  -3   16.31    1.76
   1   0   3   20.67    1.93
   1   0   3   19.16    1.66
   1   0   3   20.02    1.77
  -2   0  -3  340.60   21.10
  -2   0  -3  328.50   20.69
  -2   0  -3  325.99   20.95
   2   0   3  328.11   20.96
   2   0   3  345.61   20.77
   2   0   3  347.82   21.01
   2   0   3  319.91   21.08
  -3   0  -3   27.90    2.07
  -3   0  -3   29.04    2.40
  -3   0  -3   27.84    2.28
   3   0   3   26.11    2.26
   3   0   3   26.15    2.24
   3   0   3   25.69    2.08
   3   0   3   30.60    2.25
  -4   0  -3   45.77    3.17
  -4   0  -3   47.11    3.39
  -4   0  -3   45.62    3.44
   4   0   3   43.63    3.38
   4   0   3   41.29    3.16
   4   0   3   44.75    3.30
   4   0   3   44.81    3.38
  -5   0  -3   10.69    1.39
  -5   0  -3   11.84    1.36
  -5   0  -3    9.99    1.25
  -5   0  -3    8.67    1.07
   5   0   3   10.37    1.14
   5   0   3   12.29    1.71
   5   0   3   10.63    1.41
  -6   0  -3    2.17    0.87
  -6   0  -3    1.76    0.68
  -6   0  -3    0.95    0.49
  -6   0  -3    1.50    0.70
   6   0   3    1.69    0.73
   6   0   3    1.60    0.66
   6   0   3    1.04    0.52
  -7   0  -3    9.37    1.38
  -7   0  -3    5.56    0.94
  -7   0  -3    3.77    0.80
  -7   0  -3    4.48    1.10
   7   0   3    5.91    1.08
   7   0   3    4.56    1.00
   8  -1  -3    8.68    1.16
   8  -1  -3    7.76    1.03
   8  -1  -3    9.94    1.39
  -8   1   3    7.52    1.06
  -8   1   3    8.09    1.16
  -8   1   3   10.18    1.13
  -8   1   3    9.04    1.14
   7  -1  -3   32.77    2.58
   7  -1  -3   34.88    2.76
   7  -1  -3   38.45    2.73
   7  -1  -3   36.57    2.81
  -7   1   3   36.35    2.68
  -7   1   3   36.21    2.64
  -7   1   3   38.34    2.71
  -7   1   3   37.17    2.85
   6  -1  -3    2.37    0.58
   6  -1  -3    1.16    0.39
   6  -1  -3    1.28    0.43
   6  -1  -3    0.76    0.36
  -6   1   3    1.10    0.40
  -6   1   3    2.16    0.48
  -6   1   3    0.98    0.40
  -6   1   3    2.22    0.47
   5  -1  -3   17.68    1.46
   5  -1  -3   18.98    1.42
   5  -1  -3   14.75    1.35
   5  -1  -3   15.78    1.41
  -5   1   3   18.54    1.52
  -5   1   3   15.56    1.34
  -5   1   3   17.94    1.41
  -5   1   3   16.22    1.38
   4  -1  -3    1.38    0.38
   4  -1  -3    0.53    0.24
   4  -1  -3    0.30    0.22
   4  -1  -3    0.60    0.23
  -4   1   3    0.49    0.22
  -4   1   3    0.51    0.24
  -4   1   3    0.57    0.30
  -4   1   3    0.33    0.22
   3  -1  -3  103.56    6.80
   3  -1  -3  103.36    6.84
   3  -1  -3  115.04    6.89
  -3   1   3  106.10    6.90
  -3   1   3  110.56    6.83
  -3   1   3  109.58    6.79
  -3   1   3  105.63    6.81
   2  -1  -3   10.67    0.92
   2  -1  -3   11.47    0.91
   2  -1  -3   11.83    0.92
  -2   1   3   10.83    0.91
  -2   1   3   11.22    0.90
  -2   1   3   11.52    0.97
  -2   1   3   11.28    0.93
   1  -1  -3  505.91   29.77
   1  -1  -3  495.87   29.81
   1  -1  -3  473.90   29.70
   1  -1  -3  498.92   29.73
  -1   1   3  477.40   29.77
  -1   1   3  465.90   29.82
  -1   1   3  465.80   29.74
   0  -1  -3    1.31    0.52
   0  -1  -3    0.51    0.46
   0  -1  -3    0.28    0.37
   0   1   3    0.39    0.42
   0   1   3    0.53    0.69
   0   1   3    1.50    0.79
   0   1   3    0.46    0.67
   0   1   3    0.96    0.53
  -1  -1  -3  122.16    8.63
  -1  -1  -3  121.80    8.58
   1   1   3  126.10    8.66
   1   1   3  132.09    8.36
   1   1   3  136.76    8.94
  -2  -1  -3    3.77    0.86
  -2  -1  -3    3.80    0.98
  -2  -1  -3    1.96    0.48
   2   1   3    2.68    0.73
   2   1   3    3.71    0.74
   2   1   3    4.50    1.10
   2   1   3    2.48    0.54
  -3  -1  -3   44.66    3.13
  -3  -1  -3   44.23    3.40
  -3  -1  -3   46.22    3.53
   3   1   3   47.99    3.50
   3   1   3   41.08    3.13
   3   1   3   46.19    3.33
   3   1   3   43.66    3.34
  -4  -1  -3    4.97    0.96
  -4  -1  -3    7.88    1.18
  -4  -1  -3    3.77    1.39
  -4  -1  -3    6.41    0.83
   4   1   3    6.99    0.96
   4   1   3    7.23    1.08
   4   1   3    8.46    1.15
   4   1   3    8.62    0.92
  -5  -1  -3   90.80    6.21
  -5  -1  -3   95.19    6.46
   5   1   3  100.29    6.47
   5   1   3   91.38    6.39
   5   1   3   93.54    6.22
   5   1   3   92.60    6.53
  -6  -1  -3    1.32    0.73
  -6  -1  -3    0.79    0.42
  -6  -1  -3    1.19    0.67
  -6  -1  -3    0.37    0.38
   6   1   3   -0.09    0.53
   6   1   3   -0.34    0.51
   6   1   3    0.38    0.42
   6   1   3    1.20    0.65
  -7  -1  -3    6.34    1.30
  -7  -1  -3    4.43    0.99
  -7  -1  -3    9.45    1.16
  -7  -1  -3    7.88    1.27
   7   1   3    7.12    1.43
   7   1   3    7.71    1.24
   8  -2  -3    2.92    0.67
   8  -2  -3    3.09    0.77
   8  -2  -3    4.62    0.98
  -8   2   3    3.66    0.82
  -8   2   3    4.37    0.82
  -8   2   3    4.75    0.95
  -8   2   3    4.71    0.80
   7  -2  -3   -0.03    0.39
   7  -2  -3    0.63    0.48
   7  -2  -3   -0.03    0.36
  -7   2   3    0.40    0.34
  -7   2   3    0.50    0.37
  -7   2   3   -0.24    0.37
  -7   2   3    0.34    0.37
   6  -2  -3    0.22    0.34
   6  -2  -3    0.35    0.31
   6  -2  -3    0.57    0.36
   6  -2  -3    0.59    0.33
  -6   2   3   -0.05    0.23
  -6   2   3    0.33    0.24
  -6   2   3    0.41    0.30
   5  -2  -3   13.21    1.15
   5  -2  -3   11.89    1.10
   5  -2  -3   11.43    1.05
   5  -2  -3   11.61    1.03
  -5   2   3   11.12    1.07
  -5   2   3   11.59    1.06
  -5   2   3   10.35    1.09
  -5   2   3   10.03    1.01
   4  -2  -3   13.86    1.23
   4  -2  -3   14.49    1.23
   4  -2  -3   16.99    1.31
  -4   2   3   14.02    1.24
  -4   2   3   15.56    1.31
  -4   2   3   16.35    1.25
  -4   2   3   15.86    1.27
   3  -2  -3   73.31    4.69
   3  -2  -3   70.15    4.71
   3  -2  -3   72.38    4.71
  -3   2   3   74.43    4.70
  -3   2   3   73.18    4.67
  -3   2   3   69.34    4.68
  -3   2   3   73.44    4.74
   2  -2  -3    3.38    0.44
   2  -2  -3    3.48    0.50
   2  -2  -3    3.41    0.43
  -2   2   3    3.12    0.42
  -2   2   3    3.23    0.47
  -2   2   3    2.44    0.41
  -2   2   3    3.63    0.54
   1  -2  -3   18.13    1.38
   1  -2  -3   16.92    1.42
   1  -2  -3   18.15    1.37
   1  -2  -3   15.12    1.36
  -1   2   3   15.55    1.36
  -1   2   3   16.90    1.50
   0  -2  -3   80.12    5.97
   0  -2  -3   91.30    6.23
   0  -2  -3   89.48    6.02
   0   2   3   87.92    6.32
   0   2   3   73.92    6.17
   0   2   3   87.53    6.39
   0   2   3  106.41    6.47
   0   2   3   74.98    5.99
  -1  -2  -3   27.07    2.64
  -1  -2  -3   37.28    3.13
  -1  -2  -3   40.23    3.48
  -1  -2  -3   24.38    2.62
   1   2   3   30.98    3.03
   1   2   3   33.60    2.54
   1   2   3   34.00    2.91
  -2  -2  -3   75.58    5.07
  -2  -2  -3   61.80    5.45
  -2  -2  -3   61.98    5.31
   2   2   3   88.05    5.82
   2   2   3   81.39    5.53
   2   2   3   80.97    5.12
   2   2   3   78.71    5.18
  -3  -2  -3   55.49    3.76
  -3  -2  -3   55.90    4.10
  -3  -2  -3   51.94    4.15
   3   2   3   52.06    3.86
   3   2   3   54.10    4.38
   3   2   3   54.79    4.24
   3   2   3   55.52    3.77
  -4  -2  -3    0.22    0.40
  -4  -2  -3    0.48    0.49
  -4  -2  -3    0.68    0.38
  -4  -2  -3    0.23    0.34
   4   2   3    0.41    0.45
   4   2   3    0.69    0.35
   4   2   3   -0.43    0.26
   4   2   3    0.44    0.51
  -5  -2  -3   11.84    1.51
  -5  -2  -3   12.61    1.62
  -5  -2  -3   13.46    1.53
  -5  -2  -3   13.87    1.45
   5   2   3   13.43    1.63
   5   2   3   12.77    1.53
   5   2   3   13.15    1.31
   5   2   3   14.89    1.49
  -6  -2  -3   35.94    3.08
  -6  -2  -3   34.20    2.94
  -6  -2  -3   35.56    2.78
   6   2   3   34.86    2.95
   6   2   3   39.12    3.66
   6   2   3   40.54    3.08
  -7  -2  -3   -0.18    0.49
  -7  -2  -3   -0.23    0.47
  -7  -2  -3    0.82    0.70
  -7  -2  -3    1.06    0.89
   7   2   3   -0.79    0.68
   7   2   3   -0.57    0.67
   7   2   3   -0.13    0.61
   8  -3  -3    3.52    0.86
   8  -3  -3    4.03    0.80
  -8   3   3    3.30    0.69
  -8   3   3    3.08    0.75
  -8   3   3    3.84    0.75
  -8   3   3    4.06    0.96
   7  -3  -3    9.59    1.70
   7  -3  -3    9.93    1.11
   7  -3  -3    8.33    1.15
  -7   3   3   10.57    1.23
  -7   3   3    9.72    1.09
  -7   3   3   11.15    1.17
  -7   3   3   10.90    1.13
   6  -3  -3   17.90    1.60
   6  -3  -3   19.37    1.53
   6  -3  -3   18.45    1.56
   6  -3  -3   18.40    1.58
  -6   3   3   18.99    1.64
  -6   3   3   17.94    1.55
  -6   3   3   17.56    1.57
  -6   3   3   18.82    1.55
   5  -3  -3   15.00    1.41
   5  -3  -3   17.77    1.43
   5  -3  -3   16.42    1.38
   5  -3  -3   16.61    1.40
  -5   3   3   16.73    1.40
  -5   3   3   18.24    1.45
  -5   3   3   15.96    1.37
  -5   3   3   16.88    1.47
   4  -3  -3   66.71    4.32
   4  -3  -3   63.40    4.25
   4  -3  -3   67.13    4.29
   4  -3  -3   60.75    4.24
  -4   3   3   66.26    4.28
  -4   3   3   65.00    4.32
  -4   3   3   63.91    4.28
  -4   3   3   62.04    4.23
   3  -3  -3  198.91   12.28
   3  -3  -3  199.81   12.24
   3  -3  -3  201.73   12.24
   3  -3  -3  198.14   12.23
  -3   3   3  190.58   12.21
  -3   3   3  194.57   12.25
  -3   3   3  197.93   12.26
  -3   3   3  187.50   12.23
   2  -3  -3    5.15    0.58
   2  -3  -3    4.55    0.57
   2  -3  -3    4.69    0.56
  -2   3   3    6.34    0.57
  -2   3   3    4.34    0.54
  -2   3   3    4.73    0.56
  -2   3   3    5.06    0.58
   1  -3  -3   95.66    6.37
   1  -3  -3  101.50    6.30
   1  -3  -3  101.36    6.30
  -1   3   3   90.58    6.52
  -1   3   3   95.37    6.30
   0  -3  -3    1.11    0.60
   0  -3  -3    0.24    0.35
   0  -3  -3    0.65    0.45
   0   3   3    0.43    0.43
   0   3   3   -0.03    0.30
   0   3   3    0.14    0.60
   0   3   3    0.60    0.49
  -1  -3  -3   26.08    2.45
  -1  -3  -3   22.39    2.27
  -1  -3  -3   28.34    2.74
   1   3   3   27.41    2.44
   1   3   3   21.57    2.05
   1   3   3   24.01    1.98
   1   3   3   19.24    2.65
  -2  -3  -3   38.06    2.84
  -2  -3  -3   29.76    3.21
   2   3   3   38.49    3.38
   2   3   3   38.54    2.79
   2   3   3   38.88    2.81
   2   3   3   39.73    3.59
  -3  -3  -3   80.83    5.48
  -3  -3  -3   73.63    5.77
  -3  -3  -3   77.25    5.93
   3   3   3   84.23    5.57
   3   3   3   79.20    5.44
   3   3   3   91.36    6.29
   3   3   3   91.45    6.08
  -4  -3  -3   34.17    2.57
  -4  -3  -3   30.59    2.65
  -4  -3  -3   34.52    2.97
  -4  -3  -3   33.81    2.84
   4   3   3   34.06    2.93
   4   3   3   36.79    3.15
   4   3   3   32.76    2.53
   4   3   3   38.67    2.76
  -5  -3  -3   49.09    3.53
  -5  -3  -3   44.76    3.53
  -5  -3  -3   47.95    3.68
  -5  -3  -3   44.33    3.46
   5   3   3   41.20    3.70
   5   3   3   44.05    3.27
   5   3   3   47.82    3.47
   5   3   3   48.08    3.66
  -6  -3  -3    8.15    1.33
  -6  -3  -3    8.77    1.30
  -6  -3  -3   10.47    1.20
  -6  -3  -3    6.91    1.31
   6   3   3    7.69    1.31
   6   3   3    8.41    1.36
   6   3   3    9.56    1.28
  -7  -3  -3    0.22    0.46
  -7  -3  -3    0.21    0.56
  -7  -3  -3    1.09    0.94
  -7  -3  -3    0.81    0.89
   7   3   3    2.23    0.99
   7   3   3    0.94    0.56
   7   3   3    0.94    0.84
   8  -4  -3    2.55    0.76
   8  -4  -3    1.16    0.64
  -8   4   3    1.08    0.58
  -8   4   3    1.62    0.63
   7  -4  -3    1.35    0.49
   7  -4  -3    1.22    0.46
   7  -4  -3    0.81    0.38
  -7   4   3    1.77    0.60
  -7   4   3    0.92    0.54
  -7   4   3    0.99    0.46
  -7   4   3    0.87    0.41
   6  -4  -3    3.01    0.61
   6  -4  -3    2.21    0.63
   6  -4  -3    2.88    0.69
   6  -4  -3    2.88    0.58
  -6   4   3    2.12    0.56
  -6   4   3    3.02    0.61
  -6   4   3    2.39    0.58
  -6   4   3    2.98    0.56
   5  -4  -3   13.18    1.22
   5  -4  -3   12.80    1.15
   5  -4  -3   13.10    1.16
   5  -4  -3   10.57    1.10
  -5   4   3   13.76    1.18
  -5   4   3   13.10    1.16
  -5   4   3   13.12    1.20
  -5   4   3   11.75    1.17
   4  -4  -3   57.27    3.78
   4  -4  -3   56.31    3.82
   4  -4  -3   56.58    3.78
   4  -4  -3   61.14    3.79
  -4   4   3   55.78    3.79
  -4   4   3   53.84    3.79
  -4   4   3   55.98    3.78
  -4   4   3   51.62    3.73
   3  -4  -3   37.95    2.58
   3  -4  -3   36.96    2.65
   3  -4  -3   38.97    2.62
   3  -4  -3   34.18    2.59
  -3   4   3   36.85    2.60
  -3   4   3   37.28    2.64
  -3   4   3   39.55    2.63
  -3   4   3   39.03    2.61
   2  -4  -3    4.49    0.61
   2  -4  -3    5.40    0.63
   2  -4  -3    6.21    0.64
  -2   4   3    5.52    0.61
  -2   4   3    4.85    0.63
  -2   4   3    5.70    0.64
  -2   4   3    6.10    0.58
   1  -4  -3   15.50    1.40
   1  -4  -3   16.07    1.33
  -1   4   3   14.33    1.23
  -1   4   3   12.15    1.60
  -1   4   3   16.53    1.22
   0  -4  -3  196.96   12.34
   0  -4  -3  181.12   12.47
   0  -4  -3  206.29   12.56
   0   4   3  172.98   12.22
   0   4   3  218.11   12.84
   0   4   3  170.67   12.35
  -1  -4  -3   22.92    2.52
  -1  -4  -3   26.47    2.66
  -1  -4  -3   22.03    2.37
   1   4   3   25.94    2.19
   1   4   3   25.28    1.99
   1   4   3   30.73    2.65
  -2  -4  -3  174.87   10.95
   2   4   3  169.43   10.72
   2   4   3  165.32   11.46
   2   4   3  167.98   10.75
   2   4   3  161.67   11.71
  -3  -4  -3   60.68    4.95
  -3  -4  -3   56.68    4.76
   3   4   3   62.57    4.35
   3   4   3   68.13    5.14
   3   4   3   68.21    4.48
   3   4   3   71.62    5.45
  -4  -4  -3   -0.09    0.55
  -4  -4  -3    0.16    0.36
  -4  -4  -3    0.10    0.30
  -4  -4  -3   -0.31    0.55
   4   4   3    0.51    0.40
   4   4   3   -0.03    0.59
   4   4   3    0.71    0.73
   4   4   3    0.23    0.31
  -5  -4  -3   17.89    1.62
  -5  -4  -3   16.79    1.86
  -5  -4  -3   19.10    2.05
   5   4   3   17.49    2.21
   5   4   3   16.89    2.02
   5   4   3   16.77    1.57
   5   4   3   18.87    1.74
  -6  -4  -3   44.89    3.61
  -6  -4  -3   46.95    3.77
  -6  -4  -3   42.70    3.39
   6   4   3   45.48    3.80
   6   4   3   45.14    4.00
   6   4   3   54.39    3.68
  -7  -4  -3    0.47    0.83
  -7  -4  -3   -0.88    0.93
  -7  -4  -3    0.47    0.59
  -7  -4  -3    0.60    0.60
   7   4   3   -0.37    0.92
   7   4   3    2.25    1.21
   7   4   3    0.32    0.56
   8  -5  -3    4.15    0.83
   8  -5  -3    4.27    0.90
  -8   5   3    5.46    0.90
  -8   5   3    5.02    0.91
  -8   5   3    5.22    0.92
   7  -5  -3   10.34    1.23
   7  -5  -3   11.94    1.38
   7  -5  -3   10.50    1.19
   7  -5  -3   13.03    1.27
  -7   5   3   12.26    1.24
  -7   5   3   10.87    1.19
  -7   5   3   12.18    1.34
  -7   5   3   12.39    1.29
   6  -5  -3    0.31    0.30
   6  -5  -3   -0.07    0.28
   6  -5  -3    0.43    0.32
  -6   5   3    0.10    0.28
  -6   5   3    0.71    0.42
  -6   5   3    0.35    0.34
  -6   5   3    0.34    0.36
   5  -5  -3   12.12    1.23
   5  -5  -3   14.71    1.22
   5  -5  -3   13.44    1.22
   5  -5  -3   15.35    1.25
  -5   5   3   13.26    1.24
  -5   5   3   13.69    1.26
  -5   5   3   12.85    1.20
  -5   5   3   10.63    1.46
   4  -5  -3    6.83    0.75
   4  -5  -3    8.26    0.83
   4  -5  -3    8.47    0.86
   4  -5  -3    6.34    0.78
  -4   5   3    6.91    0.81
  -4   5   3    8.09    0.88
  -4   5   3    7.88    0.82
  -4   5   3    7.44    0.79
   3  -5  -3   15.45    1.28
   3  -5  -3   13.84    1.29
   3  -5  -3   13.96    1.25
   3  -5  -3   16.67    1.24
  -3   5   3   16.41    1.30
  -3   5   3   14.99    1.22
  -3   5   3   16.47    1.28
  -3   5   3   16.06    1.32
   2  -5  -3    2.35    0.46
   2  -5  -3    1.57    0.36
   2  -5  -3    1.40    0.37
   2  -5  -3    1.17    0.31
  -2   5   3    1.99    0.38
  -2   5   3    2.13    0.64
  -2   5   3    1.64    0.40
  -2   5   3    2.24    0.35
   1  -5  -3  147.14    9.31
   1  -5  -3  150.44    9.44
   1  -5  -3  140.49    9.24
   1  -5  -3  136.61    9.27
  -1   5   3  148.00    9.19
  -1   5   3  146.41    9.06
  -1   5   3  150.87   10.07
   0  -5  -3    0.26    0.52
   0  -5  -3    1.44    0.54
   0  -5  -3   -0.02    0.38
   0   5   3    0.05    0.32
   0   5   3    1.05    0.77
  -1  -5  -3   86.97    6.06
  -1  -5  -3   79.21    5.68
  -1  -5  -3   81.91    5.97
   1   5   3   61.93    5.63
   1   5   3   76.49    5.23
   1   5   3   60.77    5.88
   1   5   3   80.17    5.01
  -2  -5  -3    1.85    0.97
  -2  -5  -3    3.10    0.85
  -2  -5  -3    3.91    1.21
   2   5   3    3.30    0.64
   2   5   3    3.93    1.06
   2   5   3    5.16    0.78
   2   5   3    2.21    1.02
  -3  -5  -3    4.60    1.18
  -3  -5  -3    5.90    1.28
  -3  -5  -3   11.00    1.21
   3   5   3    5.88    1.64
   3   5   3   12.14    2.01
   3   5   3    8.75    0.95
   3   5   3    6.52    0.86
  -4  -5  -3    8.38    1.38
  -4  -5  -3    8.13    1.11
  -4  -5  -3    5.46    1.11
   4   5   3    7.82    1.53
   4   5   3    9.10    1.06
   4   5   3    8.20    0.95
   4   5   3    7.49    1.63
  -5  -5  -3   26.69    2.59
  -5  -5  -3   23.99    2.39
  -5  -5  -3   26.11    2.22
  -5  -5  -3   26.29    2.44
   5   5   3   26.73    2.10
   5   5   3   27.26    3.05
   5   5   3   29.34    2.33
   5   5   3   29.57    3.00
  -6  -5  -3    0.40    0.48
  -6  -5  -3    0.05    0.51
  -6  -5  -3    0.51    0.67
  -6  -5  -3    0.46    0.83
   6   5   3    0.49    0.77
   6   5   3   -0.10    0.79
   6   5   3    0.48    0.53
  -7  -5  -3    3.80    1.11
  -7  -5  -3    1.56    0.64
  -7  -5  -3    3.12    1.20
   7   5   3    2.94    0.74
   7   5   3    1.95    1.12
   7   5   3    3.37    1.16
   8  -6  -3    8.45    1.14
   8  -6  -3    6.94    1.82
  -8   6   3    8.51    1.18
  -8   6   3    7.00    1.00
  -8   6   3    6.84    1.10
   7  -6  -3   13.48    1.44
   7  -6  -3   14.70    1.43
   7  -6  -3   13.04    1.45
  -7   6   3   14.64    1.41
  -7   6   3   19.05    2.22
  -7   6   3   16.08    1.45
  -7   6   3   14.79    1.49
   6  -6  -3   96.78    6.25
   6  -6  -3   97.08    6.33
   6  -6  -3   95.40    6.26
   6  -6  -3   93.71    6.26
  -6   6   3   94.18    6.25
  -6   6   3   91.78    6.29
  -6   6   3   98.72    6.27
  -6   6   3   94.12    6.34
   5  -6  -3    4.99    0.73
   5  -6  -3    5.48    0.70
   5  -6  -3    3.89    0.74
  -5   6   3    6.02    0.88
  -5   6   3    5.50    0.80
  -5   6   3    6.56    0.79
  -5   6   3    6.84    0.78
   4  -6  -3  124.38    7.84
   4  -6  -3  128.21    7.77
   4  -6  -3  125.70    7.89
   4  -6  -3  126.31    7.85
  -4   6   3  118.29    7.82
  -4   6   3  122.95    7.89
  -4   6   3  119.59    7.84
  -4   6   3  113.07    7.78
   3  -6  -3  116.60    7.68
   3  -6  -3  124.29    7.57
   3  -6  -3  120.64    7.65
   3  -6  -3  119.07    7.65
   3  -6  -3  121.22    7.70
  -3   6   3  117.98    7.66
  -3   6   3  122.24    7.71
  -3   6   3  118.03    7.63
  -3   6   3  116.68    7.55
   2  -6  -3    2.07    0.55
   2  -6  -3    2.07    0.48
   2  -6  -3    1.89    0.47
   2  -6  -3    2.25    0.44
  -2   6   3    1.68    0.31
  -2   6   3    1.66    0.38
  -2   6   3    2.76    0.83
   1  -6  -3    7.59    0.87
   1  -6  -3    7.58    0.83
   1  -6  -3    6.73    0.77
   1  -6  -3    5.17    0.84
  -1   6   3    5.88    0.55
  -1   6   3    6.38    0.69
  -1   6   3   11.07    1.94
   0  -6  -3  131.68    8.80
   0  -6  -3  128.28    8.96
   0  -6  -3  133.90    9.09
   0   6   3  131.61    8.71
   0   6   3  121.04    9.03
   0   6   3  135.29    8.35
   0   6   3  130.41    8.29
   0   6   3  133.53    8.58
  -1  -6  -3   11.07    1.78
  -1  -6  -3   10.55    1.92
  -1  -6  -3   16.55    2.51
   1   6   3    9.28    1.55
   1   6   3   11.40    1.27
   1   6   3   12.51    1.01
   1   6   3    6.44    1.44
  -2  -6  -3  141.78    9.67
  -2  -6  -3  124.78    9.97
  -2  -6  -3  145.33   10.39
   2   6   3  156.31    9.14
   2   6   3  135.75    9.88
   2   6   3  155.38    9.23
   2   6   3  132.32   10.13
  -3  -6  -3   13.71    2.06
  -3  -6  -3   12.86    2.25
  -3  -6  -3   14.59    1.65
   3   6   3   16.73    1.40
   3   6   3   14.93    1.34
   3   6   3   13.23    2.32
   3   6   3   16.17    2.07
  -4  -6  -3   27.53    2.29
  -4  -6  -3   27.73    2.53
  -4  -6  -3   22.15    2.52
   4   6   3   27.93    2.04
   4   6   3   24.00    2.90
   4   6   3   23.14    3.12
   4   6   3   26.44    2.13
  -5  -6  -3    4.19    1.07
  -5  -6  -3    3.92    0.85
  -5  -6  -3    4.73    1.05
   5   6   3    3.61    1.27
   5   6   3    4.56    1.37
   5   6   3    3.92    0.79
   5   6   3    3.34    0.67
  -6  -6  -3    0.39    0.44
  -6  -6  -3    0.95    0.74
  -6  -6  -3    0.59    0.62
  -6  -6  -3    0.38    0.78
   6   6   3   -0.18    0.93
   6   6   3    0.56    0.97
   6   6   3    0.28    0.61
  -7  -6  -3    4.33    1.00
  -7  -6  -3    3.77    1.13
   7   6   3    3.18    1.54
   7   6   3    4.69    0.86
   7   6   3    3.07    1.32
   7  -7  -3   34.93    2.53
   7  -7  -3   35.20    2.63
   7  -7  -3   31.08    2.50
  -7   7   3   32.71    2.56
  -7   7   3   32.62    2.62
  -7   7   3   29.64    2.47
   6  -7  -3    3.58    0.68
   6  -7  -3    3.31    0.66
   6  -7  -3    2.43    0.57
   6  -7  -3    3.33    0.62
  -6   7   3    2.98    0.61
  -6   7   3    3.39    0.67
  -6   7   3    4.29    0.76
  -6   7   3    2.28    0.62
   5  -7  -3   10.75    1.13
   5  -7  -3   10.57    1.08
   5  -7  -3   10.61    1.01
  -5   7   3   11.44    1.12
  -5   7   3   10.82    1.07
  -5   7   3   10.44    1.08
  -5   7   3   10.54    1.15
   4  -7  -3    0.03    0.26
   4  -7  -3    0.21    0.26
   4  -7  -3   -0.23    0.20
   4  -7  -3    0.23    0.24
  -4   7   3   -0.01    0.21
  -4   7   3    0.22    0.36
  -4   7   3    0.11    0.27
  -4   7   3   -0.04    0.21
   3  -7  -3  110.72    7.30
   3  -7  -3  114.18    7.31
   3  -7  -3  111.88    7.26
  -3   7   3  109.84    7.23
  -3   7   3  118.55    7.38
  -3   7   3  113.78    7.32
   2  -7  -3    1.15    0.35
   2  -7  -3    1.68    0.47
   2  -7  -3    1.24    0.37
   2  -7  -3    1.98    0.48
  -2   7   3    1.99    0.31
  -2   7   3    0.70    0.68
  -2   7   3    2.15    0.41
   1  -7  -3  355.80   22.16
   1  -7  -3  370.54   22.32
   1  -7  -3  370.88   22.48
   1  -7  -3  338.46   22.18
  -1   7   3  339.82   22.04
  -1   7   3  392.13   23.37
  -1   7   3  344.62   21.84
   0  -7  -3    0.06    0.61
   0  -7  -3    0.22    0.54
   0  -7  -3    0.64    0.40
   0  -7  -3    0.06    0.35
   0  -7  -3   -0.02    0.58
   0   7   3    0.03    0.17
   0   7   3   -0.43    0.61
   0   7   3    0.09    0.20
   0   7   3    0.40    0.35
   0   7   3   -0.88    0.67
  -1  -7  -3   64.03    5.66
  -1  -7  -3   83.67    5.87
   1   7   3   70.87    5.26
   1   7   3   75.34    4.63
   1   7   3   68.15    5.40
   1   7   3   69.44    4.92
  -2  -7  -3    0.08    0.81
  -2  -7  -3    1.05    1.00
  -2  -7  -3   -0.67    1.14
   2   7   3    0.24    0.78
   2   7   3    0.35    0.24
   2   7   3    0.04    0.89
   2   7   3    0.15    0.33
  -3  -7  -3   40.79    4.01
  -3  -7  -3   51.32    3.99
  -3  -7  -3   40.56    4.19
   3   7   3   53.12    3.46
   3   7   3   48.77    4.49
   3   7   3   56.29    4.40
   3   7   3   54.61    3.51
  -4  -7  -3    3.35    1.33
  -4  -7  -3    2.95    0.96
  -4  -7  -3    2.78    1.04
  -4  -7  -3    2.31    0.80
   4   7   3    2.92    1.23
   4   7   3    4.08    0.75
   4   7   3    3.71    0.64
   4   7   3    3.52    1.28
  -5  -7  -3   88.12    6.41
  -5  -7  -3   87.10    6.28
  -5  -7  -3   89.10    6.15
   5   7   3   96.63    6.08
   5   7   3   87.20    5.82
   5   7   3   88.96    7.22
   5   7   3   83.62    6.88
  -6  -7  -3    2.15    0.94
  -6  -7  -3    1.52    0.81
  -6  -7  -3    1.82    0.95
   6   7   3    2.91    1.33
   6   7   3    1.57    0.62
   6   7   3    1.42    0.58
   6   7   3    1.27    1.28
   7  -8  -3    0.28    0.48
   7  -8  -3    0.23    0.43
   7  -8  -3    0.61    0.51
  -7   8   3    0.69    0.46
  -7   8   3    0.54    0.53
   6  -8  -3    7.46    0.90
   6  -8  -3    7.04    0.99
   6  -8  -3    8.11    0.97
  -6   8   3    9.56    1.71
  -6   8   3    7.56    0.96
  -6   8   3    7.90    1.02
   5  -8  -3    7.20    0.79
   5  -8  -3    6.86    0.91
   5  -8  -3    5.64    1.08
   5  -8  -3    6.74    1.01
  -5   8   3    6.79    0.84
  -5   8   3    6.63    1.46
  -5   8   3    8.08    0.89
  -5   8   3    4.59    0.78
   4  -8  -3    0.37    0.30
   4  -8  -3   -0.04    0.27
   4  -8  -3   -0.02    0.21
   4  -8  -3    0.28    0.30
  -4   8   3    0.00    0.33
  -4   8   3    0.00    0.23
  -4   8   3    0.65    0.32
   3  -8  -3   39.71    2.70
   3  -8  -3   34.08    2.61
   3  -8  -3   35.68    2.58
  -3   8   3   35.97    2.55
  -3   8   3   38.21    3.15
  -3   8   3   34.08    2.43
  -3   8   3   36.76    2.66
   2  -8  -3    1.01    0.44
   2  -8  -3    1.49    0.49
   2  -8  -3    0.83    0.33
   2  -8  -3    1.09    0.49
  -2   8   3    0.77    0.31
  -2   8   3    1.75    1.15
  -2   8   3    1.42    0.25
   1  -8  -3    6.42    0.84
   1  -8  -3    6.95    0.84
   1  -8  -3    8.30    1.03
   1  -8  -3   10.01    1.45
  -1   8   3    7.15    0.76
  -1   8   3    7.12    1.66
   0  -8  -3    2.70    0.60
   0  -8  -3    6.04    1.43
   0  -8  -3    4.90    1.48
   0  -8  -3    1.94    0.53
   0   8   3    2.59    1.11
   0   8   3    1.97    0.85
   0   8   3    2.61    0.48
   0   8   3    2.54    1.24
  -1  -8  -3    7.08    1.62
  -1  -8  -3    8.66    1.66
  -1  -8  -3    8.75    1.64
   1   8   3    9.58    1.47
   1   8   3    7.37    1.24
   1   8   3    8.88    1.09
   1   8   3    9.36    0.91
   1   8   3    9.65    0.76
  -2  -8  -3    3.29    1.64
  -2  -8  -3    1.12    1.09
  -2  -8  -3    2.39    1.24
   2   8   3    1.14    0.36
   2   8   3    1.61    0.98
   2   8   3    1.92    0.49
   2   8   3    2.50    1.04
  -3  -8  -3   18.61    2.55
  -3  -8  -3   15.05    2.57
  -3  -8  -3   18.10    2.34
   3   8   3   23.04    2.62
   3   8   3   22.45    1.66
   3   8   3   14.22    2.49
   3   8   3   23.72    1.69
  -4  -8  -3    0.58    0.76
  -4  -8  -3    2.38    0.93
  -4  -8  -3    2.58    1.09
   4   8   3    2.75    1.25
   4   8   3    1.63    1.13
   4   8   3    1.56    0.47
   4   8   3    2.14    0.60
  -5  -8  -3    0.24    0.87
  -5  -8  -3    0.53    0.75
  -5  -8  -3    0.38    0.83
  -5  -8  -3    0.70    1.59
  -5  -8  -3    2.47    1.60
   5   8   3    1.72    0.50
   5   8   3    3.44    1.32
   5   8   3    2.57    1.26
   5   8   3    0.50    0.45
  -6  -8  -3    8.49    1.41
  -6  -8  -3    5.93    1.22
   6   8   3    7.66    1.84
   6   8   3    6.60    1.08
   6   8   3    3.69    1.68
   6   8   3    8.86    1.06
  -7   9   3    3.27    0.83
   6  -9  -3    7.85    0.92
   6  -9  -3    7.82    1.05
   6  -9  -3    7.34    1.00
  -6   9   3    7.23    1.06
  -6   9   3    6.35    0.98
  -6   9   3    8.18    0.99
   5  -9  -3    6.63    1.02
   5  -9  -3    5.45    0.81
   5  -9  -3    6.26    0.89
  -5   9   3    7.95    0.91
  -5   9   3    6.62    0.89
  -5   9   3    4.88    0.82
   4  -9  -3   21.48    1.82
   4  -9  -3   20.12    1.73
   4  -9  -3   22.37    1.81
   4  -9  -3   20.78    1.78
  -4   9   3   24.42    1.91
  -4   9   3   21.02    1.68
  -4   9   3   24.33    1.77
  -4   9   3   21.44    2.30
   3  -9  -3   50.27    3.64
   3  -9  -3   49.08    3.67
   3  -9  -3   55.38    3.95
   3  -9  -3   58.63    3.81
  -3   9   3   57.18    4.44
  -3   9   3   52.51    3.49
  -3   9   3   54.86    3.63
   2  -9  -3    1.88    0.58
   2  -9  -3    1.23    0.40
   2  -9  -3    1.61    0.47
   2  -9  -3    2.12    0.64
  -2   9   3    2.95    0.51
  -2   9   3    3.62    1.60
   1  -9  -3   18.56    1.91
   1  -9  -3   16.61    1.47
   1  -9  -3   18.88    1.56
   1  -9  -3   17.07    1.72
  -1   9   3   18.11    2.82
  -1   9   3   19.45    1.42
  -1   9   3   17.97    2.58
  -1   9   3   16.49    2.47
   0  -9  -3    0.22    0.69
   0  -9  -3    0.22    0.31
   0  -9  -3    0.91    0.74
   0  -9  -3    0.10    0.27
   0   9   3    0.29    0.99
   0   9   3   -0.23    0.95
   0   9   3   -0.42    0.57
   0   9   3    0.13    0.20
  -1  -9  -3    7.15    1.51
  -1  -9  -3    7.37    1.43
  -1  -9  -3    5.65    1.49
   1   9   3    5.49    1.03
   1   9   3    7.10    0.59
   1   9   3    7.86    0.77
   1   9   3    8.75    1.07
  -2  -9  -3   18.19    3.19
  -2  -9  -3   13.10    2.27
  -2  -9  -3   12.84    2.31
   2   9   3   13.31    2.24
   2   9   3   13.46    1.24
   2   9   3   13.89    1.09
   2   9   3   11.55    1.85
   2   9   3   13.95    1.20
  -3  -9  -3   23.96    2.60
  -3  -9  -3   19.65    2.73
  -3  -9  -3   23.05    2.86
   3   9   3   26.63    1.81
   3   9   3   16.76    3.10
   3   9   3   21.36    2.78
   3   9   3   24.35    1.80
  -4  -9  -3    7.82    1.55
  -4  -9  -3    9.86    1.68
   4   9   3   12.17    1.17
   4   9   3    9.33    1.93
   4   9   3    9.88    1.20
   4   9   3   12.59    2.00
  -5  -9  -3    9.69    1.65
  -5  -9  -3   10.45    1.69
  -5  -9  -3   11.08    1.63
   5   9   3   12.16    1.14
   5   9   3    9.65    2.14
   5   9   3   12.31    1.33
   5   9   3   11.86    2.05
  -6  -9  -3    2.56    1.05
  -6  -9  -3    0.10    1.15
  -6  -9  -3    1.81    2.26
  -6  -9  -3   -0.66    2.18
  -6  -9  -3    1.19    1.08
   6   9   3   -0.05    1.43
   6   9   3    3.14    1.62
   6   9   3    2.33    0.62
   6   9   3    2.39    0.78
   6 -10  -3    6.35    0.96
   6 -10  -3    5.54    0.89
   6 -10  -3    6.45    0.88
  -6  10   3    6.90    1.08
  -6  10   3    6.10    0.87
   5 -10  -3    4.90    0.88
   5 -10  -3    3.23    0.73
   5 -10  -3    3.82    0.61
   5 -10  -3    3.79    0.68
  -5  10   3    3.33    0.78
  -5  10   3    3.76    0.73
  -5  10   3    3.92    0.68
   4 -10  -3   40.05    2.75
   4 -10  -3   35.73    2.57
   4 -10  -3   33.47    2.61
  -4  10   3   33.99    3.36
  -4  10   3   32.34    2.47
  -4  10   3   36.09    2.72
   3 -10  -3   10.75    1.23
   3 -10  -3   12.15    1.34
   3 -10  -3   10.80    1.10
   3 -10  -3    8.42    0.98
  -3  10   3   11.67    1.03
  -3  10   3    7.54    2.04
   2 -10  -3    4.21    0.73
   2 -10  -3    2.16    0.62
   2 -10  -3    3.39    0.82
   2 -10  -3    3.05    0.56
  -2  10   3    2.86    0.51
  -2  10   3    3.36    1.65
   1 -10  -3    3.54    0.66
   1 -10  -3    4.13    1.05
   1 -10  -3    4.63    0.92
   1 -10  -3    3.38    0.87
  -1  10   3    4.69    0.62
  -1  10   3    4.06    1.25
  -1  10   3    5.61    1.98
   0 -10  -3   88.95    6.52
   0 -10  -3   96.24    6.32
   0 -10  -3   89.46    5.61
   0  10   3   74.69    5.61
   0  10   3   87.01    5.37
   0  10   3   81.76    6.20
   0  10   3   72.54    6.10
  -1 -10  -3   11.60    2.29
  -1 -10  -3    9.68    1.79
  -1 -10  -3   12.49    1.39
  -1 -10  -3   11.08    1.33
  -1 -10  -3    7.35    1.66
   1  10   3   12.31    1.17
   1  10   3   11.29    0.98
   1  10   3   12.50    1.35
  -2 -10  -3   89.87    7.29
  -2 -10  -3   98.44    7.07
  -2 -10  -3   91.76    7.03
   2  10   3   87.09    5.83
   2  10   3   92.96    5.81
   2  10   3   89.29    6.56
   2  10   3   85.20    6.35
   2  10   3   94.00    5.74
  -3 -10  -3   20.35    3.02
  -3 -10  -3   14.51    2.32
  -3 -10  -3   14.14    2.33
   3  10   3   14.38    2.32
   3  10   3   20.92    1.57
   3  10   3   24.05    1.57
   3  10   3   21.20    1.57
  -4 -10  -3    1.76    0.97
  -4 -10  -3   -0.53    0.87
  -4 -10  -3    0.00    1.18
   4  10   3   -1.56    1.26
   4  10   3    0.11    0.40
   4  10   3   -0.40    1.32
   4  10   3    0.73    0.37
  -5 -10  -3    7.34    1.72
  -5 -10  -3   14.79    1.88
  -5 -10  -3    6.48    1.61
   5  10   3    9.23    2.02
   5  10   3   11.39    1.29
   5  10   3   10.47    2.28
   5  10   3   12.52    1.14
   5 -11  -3    4.26    0.92
   5 -11  -3    4.84    0.79
   5 -11  -3    5.99    0.98
  -5  11   3    1.52    1.46
  -5  11   3    4.50    0.74
  -5  11   3    3.97    0.83
   4 -11  -3    4.79    0.74
   4 -11  -3    4.39    1.00
   4 -11  -3    5.38    0.95
   4 -11  -3    5.59    0.86
  -4  11   3    4.76    0.72
   3 -11  -3    1.18    0.45
   3 -11  -3    1.32    0.67
   3 -11  -3    0.52    0.53
   3 -11  -3    0.12    0.34
  -3  11   3    1.17    0.41
  -3  11   3    0.79    1.84
   2 -11  -3    0.11    0.59
   2 -11  -3    0.98    0.37
   2 -11  -3    1.07    0.44
   2 -11  -3    1.89    0.64
  -2  11   3    2.46    1.55
  -2  11   3    1.08    1.43
  -2  11   3    2.38    1.59
  -2  11   3    1.29    0.35
   1 -11  -3   10.86    1.10
   1 -11  -3   10.40    1.55
   1 -11  -3   14.30    1.99
   1 -11  -3   11.82    1.16
  -1  11   3   17.75    3.19
  -1  11   3   11.10    0.99
  -1  11   3   10.11    2.78
  -1  11   3    9.73    1.59
   0 -11  -3   -0.17    0.32
   0 -11  -3   -0.27    0.30
   0 -11  -3   -1.03    1.10
   0 -11  -3    0.01    0.91
   0  11   3   -1.23    0.89
   0  11   3   -0.12    0.23
   0  11   3    0.17    0.50
  -1 -11  -3   12.66    2.05
  -1 -11  -3   13.78    2.57
  -1 -11  -3   15.35    2.40
  -1 -11  -3   14.54    1.51
  -1 -11  -3   15.86    1.52
   1  11   3   14.69    1.13
   1  11   3   14.06    1.26
  -2 -11  -3    2.02    1.13
  -2 -11  -3    2.73    1.39
  -2 -11  -3    2.67    0.89
  -2 -11  -3    2.30    1.49
   2  11   3    2.61    0.46
   2  11   3    2.92    0.44
  -3 -11  -3    1.10    1.00
  -3 -11  -3   -0.54    1.36
  -3 -11  -3    1.03    1.06
   3  11   3    0.62    0.31
   3  11   3    1.10    1.02
   3  11   3    0.47    0.29
   3  11   3    0.23    0.33
  -4 -11  -3    1.96    1.69
  -4 -11  -3    2.97    1.15
  -4 -11  -3    2.18    1.27
   4  11   3    4.10    0.55
   4  11   3    2.97    0.46
   4  11   3    4.06    0.70
   4  11   3    5.40    1.96
   5 -12  -3    2.31    0.82
   5 -12  -3    2.67    0.85
   5 -12  -3    3.71    0.73
   5 -12  -3    2.15    0.57
  -5  12   3    3.83    1.96
  -5  12   3    1.98    0.60
   4 -12  -3   23.32    1.99
   4 -12  -3   28.07    2.29
   4 -12  -3   22.31    1.91
   4 -12  -3   25.85    2.37
  -4  12   3   24.00    1.88
   3 -12  -3   24.33    2.31
   3 -12  -3   24.25    2.15
   3 -12  -3   21.29    1.80
   3 -12  -3   24.25    1.90
  -3  12   3   20.72    1.72
  -3  12   3   21.23    3.62
  -3  12   3   31.84    3.93
   2 -12  -3   -0.03    0.32
   2 -12  -3    0.22    0.63
   2 -12  -3   -0.04    0.32
   2 -12  -3   -0.50    0.78
  -2  12   3   -0.21    1.31
  -2  12   3   -0.32    0.26
  -2  12   3    0.72    1.82
  -2  12   3    1.34    1.74
   1 -12  -3    3.11    1.11
   1 -12  -3    4.87    1.11
   1 -12  -3    4.72    0.81
   1 -12  -3    3.49    0.64
  -1  12   3    4.49    2.38
  -1  12   3    3.84    2.22
  -1  12   3    4.70    0.58
  -1  12   3    4.42    1.00
   0 -12  -3   16.79    2.79
   0 -12  -3   17.10    1.57
   0 -12  -3   19.37    2.62
   0 -12  -3   17.61    1.53
   0  12   3   17.15    1.48
   0  12   3   17.31    1.29
  -1 -12  -3    6.60    0.96
  -1 -12  -3    7.13    1.89
  -1 -12  -3    4.57    1.38
  -1 -12  -3    5.36    0.93
   1  12   3    5.77    0.68
  -2 -12  -3   27.72    2.39
  -2 -12  -3   19.04    3.05
  -2 -12  -3   28.16    2.91
  -2 -12  -3   30.73    2.47
  -2 -12  -3   18.92    2.86
  -3 -12  -3    1.60    1.23
  -3 -12  -3    6.04    1.56
  -3 -12  -3    2.86    1.51
   3  12   3    3.43    1.06
   3  12   3    4.93    0.65
   3  12   3    4.77    1.17
  -4 -12  -3    5.59    1.34
  -4 -12  -3    5.00    1.35
  -4 -12  -3   10.67    2.43
   4  12   3    5.51    1.58
   4  12   3    5.34    1.61
   4 -13  -3    0.26    0.41
   4 -13  -3    0.25    0.41
   4 -13  -3   -0.56    0.90
   4 -13  -3    1.15    0.80
  -4  13   3    0.16    0.41
   3 -13  -3   36.70    2.79
   3 -13  -3   46.42    3.23
   3 -13  -3   43.38    3.40
  -3  13   3   38.48    2.62
  -3  13   3   34.08    4.26
  -3  13   3   25.66    4.72
  -3  13   3   28.99    4.84
   2 -13  -3    1.45    1.00
   2 -13  -3    0.12    0.36
   2 -13  -3    0.12    0.41
  -2  13   3   -0.44    1.16
  -2  13   3    0.40    0.34
  -2  13   3    0.85    2.37
  -2  13   3   -0.24    2.43
   1 -13  -3  110.29    7.64
   1 -13  -3  111.55    6.73
   1 -13  -3  100.18    7.27
   1 -13  -3  103.54    6.64
  -1  13   3   99.06    6.59
  -1  13   3  107.47    6.41
  -1  13   3   85.15    8.66
  -1  13   3   86.87    8.71
   0 -13  -3    0.42    1.54
   0 -13  -3   -0.77    1.11
   0 -13  -3   -0.06    0.38
   0 -13  -3   -0.10    0.37
   0  13   3    0.21    0.34
  -1 -13  -3   17.26    1.79
  -1 -13  -3   21.31    3.03
  -1 -13  -3   19.85    2.65
  -1 -13  -3   23.19    1.84
  -2 -13  -3    1.01    1.14
  -2 -13  -3    0.48    0.59
  -2 -13  -3   -1.64    1.45
  -2 -13  -3   -0.78    1.32
  -3 -13  -3   10.55    1.98
  -3 -13  -3   12.56    2.40
  -3 -13  -3   17.81    2.00
  -3 -13  -3   19.04    2.54
  -3 -13  -3   18.73    2.06
   3  13   3   19.90    2.01
   2 -14  -3   -0.72    0.93
   2 -14  -3    0.26    0.42
   2 -14  -3    0.03    0.41
   2 -14  -3    0.18    1.10
  -2  14   3    0.45    0.33
  -2  14   3    0.88    0.87
  -2  14   3   -0.68    2.74
   1 -14  -3    2.25    1.30
   1 -14  -3    1.05    0.47
   1 -14  -3    1.36    0.51
  -1  14   3    3.29    2.42
  -1  14   3    1.16    2.25
   0 -14  -3    0.99    1.34
   0 -14  -3    2.79    0.63
   0 -14  -3    2.20    1.59
   0 -14  -3    2.98    0.69
  -1 -14  -3   -3.57    1.75
  -1 -14  -3    1.55    0.63
  -1 -14  -3    2.01    0.60
  -1 -14  -3    0.20    1.61
  -1 -14   4    0.64    0.33
  -1 -14   4    1.39    0.68
  -3 -13   4    6.61    3.30
  -3 -13   4    6.14    0.84
  -2 -13   4   -0.09    0.31
  -1 -13   4    3.51    0.52
  -1 -13   4    3.70    0.57
   0  13  -4   -0.62    2.25
   0  13  -4   -0.48    2.33
   0 -13   4   -0.13    0.37
   0 -13   4    0.59    0.64
   0 -13   4    0.14    0.32
  -1  13  -4   17.42    6.96
  -1  13  -4   27.89    5.22
   1 -13   4   20.16    1.86
   1 -13   4   27.82    1.78
   1 -13   4   24.57    1.89
   1 -13   4   25.31    1.83
   1 -13   4   24.71    1.96
  -2  13  -4   15.71    4.54
  -2  13  -4    4.99    3.72
   2 -13   4    5.77    1.33
   2 -13   4   10.46    1.11
   2 -13   4    9.45    1.18
   2 -13   4   10.27    1.24
  -4 -12   4   14.82    1.38
  -4 -12   4   13.41    4.65
  -3 -12   4   14.89    1.31
  -2 -12   4   25.11    1.88
   1  12  -4   -0.17    2.16
  -1 -12   4    0.96    0.29
  -1 -12   4    0.78    0.36
   0  12  -4    1.00    2.03
   0  12  -4   -0.12    2.17
   0 -12   4    1.10    0.69
   0 -12   4    0.43    0.32
   0 -12   4    0.43    0.34
  -1  12  -4    0.64    2.53
  -1  12  -4   -1.63    2.11
   1 -12   4    0.98    0.61
   1 -12   4    0.33    0.33
   1 -12   4    0.71    0.40
   1 -12   4    0.69    0.42
   1 -12   4   -0.16    0.41
   1 -12   4    0.33    0.47
  -2  12  -4    7.85    3.46
   2 -12   4   16.91    1.35
   2 -12   4   14.09    1.44
   2 -12   4   17.52    1.43
   2 -12   4   15.41    1.55
  -3  12  -4    0.14    2.31
  -3  12  -4   -0.60    0.70
  -3  12  -4    1.38    2.07
   3 -12   4    0.36    0.48
   3 -12   4    0.94    0.69
   3 -12   4    0.84    0.59
   3 -12   4   -0.26    0.48
  -5 -11   4   12.23    1.30
  -5 -11   4   14.66    5.40
  -5 -11   4   12.92    1.32
  -4 -11   4   -0.03    0.47
  -4 -11   4   -0.32    3.49
  -4 -11   4    0.96    3.28
  -4 -11   4   -0.36    0.33
  -3 -11   4   -0.05    0.33
  -3 -11   4    0.22    3.21
  -3 -11   4    0.31    2.54
  -2 -11   4    4.04    2.38
  -2 -11   4    2.85    0.56
  -2 -11   4    0.87    2.08
   1  11  -4   17.69    4.08
  -1 -11   4   30.83    2.13
  -1 -11   4   29.05    1.89
   0  11  -4   -0.18    2.05
   0  11  -4    0.84    2.21
   0 -11   4    0.16    0.26
   0 -11   4    0.42    0.37
  -1  11  -4   14.94    4.00
  -1  11  -4   13.42    4.11
   1 -11   4   19.16    1.40
   1 -11   4   18.63    1.83
   1 -11   4   17.98    1.46
   1 -11   4   18.98    1.47
  -2  11  -4    5.23    2.36
  -2  11  -4    7.08    0.92
  -2  11  -4    8.14    1.06
   2 -11   4    8.46    1.00
   2 -11   4    9.54    0.92
   2 -11   4    9.68    1.21
   2 -11   4    8.45    1.01
  -3  11  -4   -2.34    2.18
  -3  11  -4    0.44    1.75
  -3  11  -4    0.30    0.54
   3 -11   4   -0.37    0.37
   3 -11   4   -0.12    0.57
   3 -11   4    0.12    0.43
   3 -11   4   -0.27    0.47
  -4  11  -4    3.62    2.23
  -4  11  -4    2.73    2.06
   4 -11   4    6.58    1.30
   4 -11   4    5.65    0.87
   4 -11   4    5.46    1.03
   4 -11   4    5.10    0.89
  -6 -10   4    0.00    0.42
  -6 -10   4    0.52    0.50
  -6 -10   4   -1.21    5.60
  -5 -10   4    0.16    0.38
  -5 -10   4    2.32    4.87
  -5 -10   4   -0.16    0.38
  -5 -10   4   -1.32    4.28
  -4 -10   4   24.52    6.09
  -4 -10   4   33.63    6.24
  -4 -10   4   24.82    1.82
  -4 -10   4   27.67    2.08
  -3 -10   4   19.26    4.85
  -3 -10   4   17.85    4.16
  -3 -10   4   13.86    1.29
  -2 -10   4   98.64    9.71
  -2 -10   4  109.50    6.87
  -2 -10   4  107.05   10.06
   1  10  -4    0.78    2.04
  -1 -10   4    5.26    0.76
   0  10  -4   45.95    5.88
   0  10  -4   50.24    6.16
   0 -10   4   41.40    2.70
   0 -10   4   44.89    2.76
   0 -10   4   42.71    3.06
   0 -10   4   36.18    2.69
  -1  10  -4   11.30    3.17
  -1  10  -4   11.48    1.04
  -1  10  -4    5.62    2.73
  -1  10  -4   13.11    1.03
   1 -10   4   11.23    1.06
   1 -10   4   13.33    1.13
   1 -10   4   12.95    1.05
   1 -10   4   13.48    1.60
  -2  10  -4   11.10    1.05
  -2  10  -4    6.70    2.54
  -2  10  -4    3.39    2.15
   2 -10   4    9.57    1.01
   2 -10   4    9.40    1.31
   2 -10   4    9.33    0.93
  -3  10  -4    6.14    1.15
  -3  10  -4    5.62    0.86
  -3  10  -4    5.38    2.18
  -3  10  -4    4.46    2.32
   3 -10   4    6.44    0.92
   3 -10   4    5.56    0.90
   3 -10   4    6.05    1.03
   3 -10   4    7.77    0.88
  -4  10  -4   67.48    6.81
  -4  10  -4   61.32    6.68
   4 -10   4   73.03    5.14
   4 -10   4   76.40    5.03
   4 -10   4   73.55    5.02
   4 -10   4   77.85    4.93
  -5  10  -4    0.29    1.87
  -5  10  -4   -0.22    0.69
   5 -10   4    0.17    0.73
   5 -10   4   -0.01    0.52
   5 -10   4   -0.13    0.54
   6   9  -4    0.28    0.20
   6   9  -4    0.52    0.46
  -6  -9   4   -0.04    0.21
  -6  -9   4    0.20    0.39
  -6  -9   4    0.30    0.22
  -6  -9   4   -0.22    4.35
  -6  -9   4    0.82    0.40
  -5  -9   4   83.73    5.40
  -5  -9   4   83.54   11.48
  -5  -9   4   91.08    5.73
  -5  -9   4   82.14    5.21
  -5  -9   4   78.02   10.80
  -4  -9   4    2.78    3.35
  -4  -9   4    2.42    0.35
  -4  -9   4    1.54    0.48
  -4  -9   4   -1.15    3.31
  -3  -9   4    4.12    0.67
  -3  -9   4    9.11    3.57
  -3  -9   4    4.38    3.23
  -2  -9   4   10.40    3.25
  -2  -9   4    6.21    2.74
  -2  -9   4    8.86    0.92
   1   9  -4   95.86   10.28
  -1  -9   4  127.42   10.58
  -1  -9   4  122.79   10.33
  -1  -9   4  137.64    8.00
   0   9  -4   -0.31    1.53
   0   9  -4    1.59    1.74
   0  -9   4    1.42    0.42
   0  -9   4    1.43    0.35
   0  -9   4    1.05    0.30
  -1   9  -4  160.71   10.21
  -1   9  -4  133.03   12.86
  -1   9  -4  142.54   13.18
   1  -9   4  176.05   10.35
   1  -9   4  165.47   10.29
   1  -9   4  175.48   10.29
   1  -9   4  178.71   10.96
  -2   9  -4    9.41    2.85
  -2   9  -4   10.27    3.17
  -2   9  -4   12.03    1.10
   2  -9   4    8.62    1.02
   2  -9   4   10.91    1.38
   2  -9   4   10.50    1.00
   2  -9   4   10.80    1.09
  -3   9  -4   14.33    1.39
  -3   9  -4   11.11    2.51
  -3   9  -4   10.44    2.47
   3  -9   4   14.23    1.41
   3  -9   4   15.25    1.63
   3  -9   4   16.16    1.44
   3  -9   4   17.73    1.39
  -4   9  -4    0.83    1.41
  -4   9  -4    1.45    1.17
  -4   9  -4    1.40    0.66
  -4   9  -4    0.95    0.58
   4  -9   4    1.09    0.53
   4  -9   4    0.97    0.46
   4  -9   4    0.85    0.62
  -5   9  -4    5.96    0.97
  -5   9  -4    5.30    1.76
  -5   9  -4    4.12    1.65
   5  -9   4    7.53    1.19
   5  -9   4    7.93    1.53
   5  -9   4    7.80    1.13
  -7  -8   4    1.23    0.35
  -7  -8   4    1.69    0.43
  -7  -8   4    1.50    0.69
  -7  -8   4    0.86    0.53
   6   8  -4    0.06    0.38
   6   8  -4   -0.48    1.11
  -6  -8   4    0.52    0.24
  -6  -8   4   -0.31    4.94
  -6  -8   4    0.91    0.27
  -6  -8   4    2.59    3.76
  -6  -8   4    0.19    0.35
  -6  -8   4    0.22    0.34
   5   8  -4    9.47    0.82
   5   8  -4    8.59    0.62
  -5  -8   4    8.34    1.15
  -5  -8   4    2.93    4.60
  -5  -8   4    8.84    0.68
  -5  -8   4    8.57    0.66
  -5  -8   4    2.54    3.27
  -5  -8   4    8.39    0.82
  -4  -8   4    4.60    3.09
  -4  -8   4    1.38    3.05
  -3  -8   4   33.04    2.46
  -3  -8   4   38.51    7.00
  -3  -8   4   31.88    5.89
  -2  -8   4    4.35    2.32
  -2  -8   4    3.22    0.57
  -2  -8   4    6.38    2.55
   1   8  -4    1.28    1.60
   1   8  -4    3.23    1.71
  -1  -8   4    1.71    1.67
  -1  -8   4    3.31    1.97
  -1  -8   4    3.51    0.68
   0   8  -4   25.76    4.94
   0   8  -4   23.52    4.99
   0  -8   4   22.99    1.66
   0  -8   4   23.83    1.75
   0  -8   4   21.63    1.62
  -1   8  -4    4.44    0.58
  -1   8  -4    4.40    1.99
  -1   8  -4    4.45    0.54
   1  -8   4    4.36    0.64
   1  -8   4    3.99    0.59
   1  -8   4    4.90    0.69
  -2   8  -4    5.37    2.19
  -2   8  -4    3.67    1.75
  -2   8  -4    5.39    0.71
  -2   8  -4    6.08    0.77
   2  -8   4    4.72    0.76
   2  -8   4    6.18    0.78
  -3   8  -4    4.16    0.93
  -3   8  -4    5.65    0.88
  -3   8  -4    6.38    1.91
  -3   8  -4    5.59    2.05
   3  -8   4    4.90    0.82
   3  -8   4    6.55    0.80
   3  -8   4    6.95    0.91
   3  -8   4    6.94    1.22
  -4   8  -4   11.98    2.67
  -4   8  -4    8.69    1.05
  -4   8  -4    8.30    1.16
  -4   8  -4    7.58    2.04
  -4   8  -4    8.58    1.15
   4  -8   4    9.00    1.17
   4  -8   4    8.92    1.40
   4  -8   4    9.17    1.05
   4  -8   4    6.89    1.03
  -5   8  -4   -0.27    0.52
  -5   8  -4   -0.40    2.04
  -5   8  -4   -0.12    1.06
   5  -8   4    0.17    0.47
   5  -8   4    0.63    0.64
   5  -8   4    0.41    0.53
  -6   8  -4    9.48    3.71
  -6   8  -4    8.84    1.17
   6  -8   4   11.49    1.33
   6  -8   4    7.03    1.16
   7   7  -4    1.07    1.07
   7   7  -4    0.85    1.11
  -7  -7   4    0.96    0.57
  -7  -7   4    0.70    0.44
  -7  -7   4    0.11    0.32
  -7  -7   4    0.99    0.43
   6   7  -4   -0.58    0.92
  -6  -7   4    0.37    0.30
  -6  -7   4   -0.10    0.21
  -6  -7   4   -0.05    0.21
  -6  -7   4   -0.70    2.79
  -6  -7   4   -0.17    0.32
   5   7  -4    3.14    1.10
   5   7  -4    5.11    1.29
  -5  -7   4    6.76    2.97
  -5  -7   4    6.83    0.61
  -5  -7   4    8.14    0.95
  -5  -7   4    5.71    3.18
  -5  -7   4    7.20    0.60
  -5  -7   4    7.90    0.74
  -4  -7   4    2.34    0.36
  -4  -7   4    2.01    0.25
  -4  -7   4    1.04    2.65
  -4  -7   4    2.40    0.56
  -4  -7   4    0.55    2.53
  -4  -7   4    2.15    0.27
  -3  -7   4   16.80    1.48
  -3  -7   4   21.65    5.23
  -3  -7   4   23.85    5.37
  -2  -7   4    0.54    0.28
  -2  -7   4   -0.47    1.63
  -2  -7   4   -1.95    1.61
   1   7  -4    2.08    1.83
   1   7  -4    1.66    1.62
  -1  -7   4    3.30    1.75
  -1  -7   4    4.15    0.80
  -1  -7   4    8.00    3.07
   0   7  -4    0.57    0.16
   0   7  -4   -1.13    1.36
   0   7  -4    0.98    0.21
   0   7  -4    0.30    1.55
   0  -7   4    0.80    0.31
   0  -7   4    0.59    0.38
   0  -7   4    0.68    0.30
  -1   7  -4   61.95    3.82
  -1   7  -4   45.80    5.66
  -1   7  -4   60.45    3.78
  -1   7  -4   48.10    5.90
   1  -7   4   60.75    3.88
   1  -7   4   59.39    3.85
   1  -7   4   58.42    3.92
  -2   7  -4   33.71    2.74
  -2   7  -4   39.31    4.44
  -2   7  -4   37.51    2.69
  -2   7  -4   40.17    2.77
   2  -7   4   42.24    3.33
   2  -7   4   38.53    2.78
   2  -7   4   41.76    2.79
   2  -7   4   38.69    2.72
  -3   7  -4   16.34    1.52
  -3   7  -4   16.59    1.57
  -3   7  -4   15.91    2.68
  -3   7  -4   17.17    2.75
   3  -7   4   17.96    1.57
   3  -7   4   19.09    1.53
   3  -7   4   20.97    1.91
   3  -7   4   16.83    1.56
  -4   7  -4   43.25    4.29
  -4   7  -4   44.38    4.25
  -4   7  -4   37.67    3.04
  -4   7  -4   37.20    2.86
   4  -7   4   41.97    3.23
   4  -7   4   40.13    2.93
   4  -7   4   37.36    2.98
   4  -7   4   40.45    2.98
  -5   7  -4    5.49    1.41
  -5   7  -4    2.81    1.36
  -5   7  -4    4.94    0.82
  -5   7  -4    4.90    1.65
   5  -7   4    4.53    0.87
   5  -7   4    5.21    0.97
   5  -7   4    5.55    0.91
  -6   7  -4    1.19    0.64
   6  -7   4    2.27    0.73
   6  -7   4    2.78    0.79
   7   6  -4    1.28    0.85
   7   6  -4    2.09    0.94
  -7  -6   4    0.58    0.47
  -7  -6   4    1.28    0.40
  -7  -6   4    1.47    0.43
  -7  -6   4    1.16    0.49
   6   6  -4    3.21    0.91
   6   6  -4    4.41    0.95
   6   6  -4    3.01    0.57
  -6  -6   4    3.51    0.54
  -6  -6   4    2.94    0.70
  -6  -6   4    4.58    0.55
  -6  -6   4    5.38    0.70
   5   6  -4   47.11    3.43
   5   6  -4   49.15    3.47
  -5  -6   4   48.07    3.12
  -5  -6   4   49.51    3.20
  -5  -6   4   49.16    3.47
  -5  -6   4   47.10    3.13
  -5  -6   4   44.70    6.17
   4   6  -4   72.88    4.41
   4   6  -4   66.94    4.72
   4   6  -4   74.02    4.70
  -4  -6   4   62.26    7.20
  -4  -6   4   72.96    7.86
  -4  -6   4   68.59    4.49
  -4  -6   4   69.41    4.42
  -4  -6   4   74.02    4.80
  -3  -6   4   56.37    3.88
  -3  -6   4   56.91    3.55
  -3  -6   4   52.60    7.10
  -2  -6   4  140.94    9.48
  -2  -6   4  156.83   13.00
  -2  -6   4  156.06   12.80
   1   6  -4    1.36    1.32
  -1  -6   4    4.36    1.94
  -1  -6   4    4.81    2.27
   0   6  -4   -0.01    1.46
   0   6  -4    1.72    0.30
   0   6  -4    1.21    0.22
   0   6  -4    0.68    1.65
   0  -6   4    0.71    0.39
   0  -6   4    0.92    0.38
   0  -6   4    1.54    1.31
   0  -6   4    1.54    1.29
   0  -6   4    1.14    0.35
  -1   6  -4    2.82    0.49
  -1   6  -4    2.16    0.40
  -1   6  -4    2.72    1.55
  -1   6  -4    2.02    1.50
   1  -6   4    2.26    0.52
   1  -6   4    2.17    0.45
   1  -6   4    2.49    0.52
  -2   6  -4   69.28    6.20
  -2   6  -4   63.54    6.18
  -2   6  -4   71.92    4.68
  -2   6  -4   67.60    4.72
  -2   6  -4   65.54    4.72
   2  -6   4   74.73    4.75
   2  -6   4   76.63    4.79
   2  -6   4   73.22    4.70
   2  -6   4   74.18    5.32
  -3   6  -4    0.19    0.35
  -3   6  -4    0.23    0.42
  -3   6  -4    0.33    0.72
  -3   6  -4    0.78    0.40
  -3   6  -4   -0.20    0.62
   3  -6   4   -0.08    0.28
   3  -6   4    0.75    0.52
   3  -6   4    0.48    0.37
   3  -6   4    1.49    0.47
  -4   6  -4   41.44    5.24
  -4   6  -4   48.94    4.43
  -4   6  -4   42.73    3.18
  -4   6  -4   47.59    3.39
   4  -6   4   43.84    3.31
   4  -6   4   46.57    3.58
   4  -6   4   46.96    3.38
   4  -6   4   45.05    3.26
  -5   6  -4    2.64    0.81
  -5   6  -4    1.99    0.76
  -5   6  -4    5.33    1.05
   5  -6   4    3.57    0.82
   5  -6   4    2.87    0.68
   5  -6   4    2.89    0.68
   5  -6   4    3.19    0.87
  -6   6  -4   -0.40    0.48
   6  -6   4   -0.12    0.44
   6  -6   4   -0.56    0.53
   8   5  -4    3.87    1.10
   8   5  -4    5.02    1.29
  -8  -5   4    3.48    0.62
  -8  -5   4    2.79    0.55
  -8  -5   4    3.59    0.84
  -8  -5   4    3.17    0.70
   7   5  -4    5.86    1.23
   7   5  -4    5.63    1.51
   7   5  -4    3.77    0.85
  -7  -5   4    5.84    0.82
  -7  -5   4    6.08    0.77
  -7  -5   4    6.43    0.74
  -7  -5   4    6.56    1.09
   6   5  -4   -0.02    0.47
   6   5  -4    0.87    0.49
  -6  -5   4    0.30    0.26
  -6  -5   4    0.20    0.28
  -6  -5   4    0.12    0.28
  -6  -5   4    0.05    0.22
   5   5  -4    6.48    0.86
   5   5  -4    7.53    0.99
   5   5  -4    4.42    0.74
  -5  -5   4    6.32    0.62
  -5  -5   4    5.81    0.62
  -5  -5   4    6.74    0.86
  -5  -5   4    7.77    0.72
   4   5  -4   -0.03    0.26
  -4  -5   4    0.08    0.25
  -4  -5   4    0.32    0.21
  -4  -5   4    0.24    0.17
  -4  -5   4    0.41    1.42
  -4  -5   4    0.31    0.15
   3   5  -4    6.33    0.59
   3   5  -4    7.97    0.63
   3   5  -4    5.50    0.59
   3   5  -4    7.07    0.58
  -3  -5   4    6.50    0.78
  -3  -5   4    9.30    3.20
  -3  -5   4    6.21    0.57
  -3  -5   4    3.72    2.40
  -2  -5   4    3.02    0.59
  -2  -5   4    1.16    1.81
  -2  -5   4    1.28    2.04
   1   5  -4   30.36    1.83
   1   5  -4   26.62    4.06
   1   5  -4   29.17    1.83
  -1  -5   4   34.46    5.17
  -1  -5   4   28.57    1.95
  -1  -5   4   26.87    2.00
  -1  -5   4   41.67    4.72
   0   5  -4    0.46    1.26
   0   5  -4    0.73    0.22
   0   5  -4   -0.05    1.52
   0   5  -4    0.65    0.24
   0  -5   4    0.35    0.30
   0  -5   4    0.04    0.35
   0  -5   4    0.98    1.30
   0  -5   4    0.89    0.41
  -1   5  -4    1.16    0.35
  -1   5  -4   -0.06    0.98
  -1   5  -4    0.97    0.30
  -1   5  -4    2.47    1.44
   1  -5   4    1.49    0.45
   1  -5   4    1.07    0.36
   1  -5   4    1.02    0.41
  -2   5  -4   42.65    2.87
  -2   5  -4   39.25    4.04
  -2   5  -4   38.63    4.12
   2  -5   4   38.40    2.90
   2  -5   4   43.18    3.44
   2  -5   4   40.52    2.89
   2  -5   4   39.73    2.84
  -3   5  -4    1.36    0.91
  -3   5  -4    4.42    0.88
  -3   5  -4    1.69    0.49
  -3   5  -4    2.31    1.07
  -3   5  -4    2.46    0.60
   3  -5   4    4.20    0.83
   3  -5   4    1.67    0.48
   3  -5   4    2.44    0.62
   3  -5   4    1.88    0.70
  -4   5  -4   28.14    2.27
  -4   5  -4   26.81    2.09
  -4   5  -4   27.13    2.35
   4  -5   4   23.65    2.18
   4  -5   4   27.30    2.21
   4  -5   4   29.23    2.48
  -5   5  -4    0.48    0.68
  -5   5  -4   -0.81    0.61
   5  -5   4   -0.21    0.36
   5  -5   4    0.01    0.57
   5  -5   4   -0.08    0.39
   5  -5   4   -0.17    0.50
  -6   5  -4    0.18    0.50
  -6   5  -4   -1.27    0.82
   6  -5   4    0.87    0.59
   6  -5   4    0.25    0.53
   8   4  -4    5.34    1.11
  -8  -4   4    4.68    0.75
  -8  -4   4    6.22    1.19
  -8  -4   4    4.78    0.81
   7   4  -4   10.34    1.46
   7   4  -4   12.28    1.39
   7   4  -4   12.78    1.33
  -7  -4   4   13.60    1.25
  -7  -4   4   13.39    1.15
  -7  -4   4   12.67    1.39
  -7  -4   4   13.20    1.19
   6   4  -4    0.17    0.38
   6   4  -4   -0.10    0.43
  -6  -4   4    0.42    0.26
  -6  -4   4    0.16    0.24
  -6  -4   4    0.12    0.29
  -6  -4   4   -0.09    0.24
   5   4  -4    2.74    0.62
   5   4  -4    1.98    0.70
   5   4  -4    1.73    0.48
  -5  -4   4    2.19    0.40
  -5  -4   4    1.77    0.40
  -5  -4   4    1.33    0.47
  -5  -4   4    1.68    0.34
   4   4  -4   40.14    2.65
   4   4  -4   39.63    2.68
   4   4  -4   40.00    2.85
  -4  -4   4   38.09    2.86
  -4  -4   4   38.83    2.62
  -4  -4   4   38.78    2.59
  -4  -4   4   39.74    2.57
   3   4  -4   37.18    2.42
   3   4  -4   36.59    2.38
   3   4  -4   36.58    2.38
  -3  -4   4   37.55    4.65
  -3  -4   4   35.41    2.41
  -3  -4   4   35.30    2.38
  -3  -4   4   34.97    2.36
  -3  -4   4   39.84    2.70
   2   4  -4  203.16   12.38
   2   4  -4  207.83   12.49
   2   4  -4  196.79   12.15
   2   4  -4  185.98   12.16
  -2  -4   4  207.31   12.59
  -2  -4   4  198.62   15.34
  -2  -4   4  186.15   15.01
   1   4  -4   17.94    1.18
   1   4  -4   18.23    1.32
   1   4  -4   11.57    2.72
   1   4  -4   15.34    1.35
   1   4  -4   17.04    1.20
  -1  -4   4   15.85    1.35
  -1  -4   4   12.97    2.86
  -1  -4   4   18.25    1.27
  -1  -4   4   19.56    3.47
  -1  -4   4   15.07    1.29
   0   4  -4  118.57    7.31
   0   4  -4  121.58   10.13
   0   4  -4  128.99   10.44
   0   4  -4  122.96    7.27
   0  -4   4   98.46    7.42
   0  -4   4  104.35    7.53
   0  -4   4  125.97    9.51
   0  -4   4  120.00    9.28
   0  -4   4  103.54    7.42
  -1   4  -4   28.57    3.60
  -1   4  -4   30.65    2.24
  -1   4  -4   24.84    3.55
  -1   4  -4   30.22    2.18
  -1   4  -4   32.30    2.39
   1  -4   4   30.25    2.23
   1  -4   4   27.87    2.28
   1  -4   4   29.50    2.25
  -2   4  -4    9.62    1.09
  -2   4  -4    8.58    1.76
  -2   4  -4    8.75    1.10
   2  -4   4    9.95    1.05
   2  -4   4    9.53    1.07
   2  -4   4   10.52    1.01
   2  -4   4   11.49    1.50
  -3   4  -4   15.53    1.40
  -3   4  -4   14.96    2.14
  -3   4  -4   16.19    1.51
  -3   4  -4   13.08    2.08
  -3   4  -4   17.96    1.65
   3  -4   4   17.26    1.78
   3  -4   4   15.04    1.38
   3  -4   4   14.69    1.42
   3  -4   4   15.99    1.49
  -4   4  -4  136.79    8.76
  -4   4  -4  139.80    8.97
   4  -4   4  135.62    8.98
   4  -4   4  131.43    8.83
   4  -4   4  144.43    9.19
   4  -4   4  132.08    8.85
  -5   4  -4   -0.11    0.41
  -5   4  -4    0.06    0.58
   5  -4   4    0.27    0.51
   5  -4   4    0.84    0.45
   5  -4   4    0.66    0.59
   5  -4   4    0.57    0.40
  -6   4  -4   39.26    3.24
  -6   4  -4   39.48    2.94
   6  -4   4   37.68    3.03
   6  -4   4   39.94    3.17
   6  -4   4   36.89    3.30
  -7   4  -4    2.51    0.78
   7  -4   4    3.14    0.95
   7  -4   4    4.90    1.16
   8   3  -4    4.07    0.93
   8   3  -4    4.19    0.92
  -8  -3   4    5.47    1.05
  -8  -3   4    3.09    0.70
  -8  -3   4    3.32    0.72
  -8  -3   4    3.46    0.65
   7   3  -4   89.70    6.06
   7   3  -4   86.57    6.01
   7   3  -4   92.47    6.00
  -7  -3   4   90.51    6.13
  -7  -3   4   90.08    5.81
  -7  -3   4   89.42    5.89
  -7  -3   4   88.68    5.85
   6   3  -4    0.67    0.41
  -6  -3   4    0.92    0.31
  -6  -3   4    0.72    0.31
  -6  -3   4    1.29    0.49
  -6  -3   4    0.94    0.35
   5   3  -4  230.49   14.48
   5   3  -4  228.19   14.37
   5   3  -4  230.26   14.32
  -5  -3   4  226.59   14.30
  -5  -3   4  232.13   14.56
  -5  -3   4  231.20   14.28
  -5  -3   4  231.11   14.24
   4   3  -4    7.21    0.79
   4   3  -4    6.24    0.68
   4   3  -4    5.89    0.63
  -4  -3   4    6.02    0.58
  -4  -3   4    5.60    0.62
  -4  -3   4    6.54    0.61
  -4  -3   4    6.50    0.79
   3   3  -4   15.69    1.15
   3   3  -4   16.19    1.18
   3   3  -4   15.43    1.20
  -3  -3   4   16.21    1.21
  -3  -3   4   16.55    1.40
  -3  -3   4   15.33    1.15
  -3  -3   4   16.03    1.14
   2   3  -4   25.59    1.84
   2   3  -4   27.98    1.81
   2   3  -4   25.52    1.65
   2   3  -4   20.13    1.78
  -2  -3   4   27.13    2.03
  -2  -3   4   22.50    4.19
  -2  -3   4   19.57    3.26
   1   3  -4  461.24   27.05
   1   3  -4  446.95   27.23
   1   3  -4  459.85   27.37
  -1  -3   4  412.50   26.95
  -1  -3   4  513.84   30.10
  -1  -3   4  411.29   27.07
  -1  -3   4  384.69   27.32
   0   3  -4    2.16    0.54
   0   3  -4    2.00    0.62
   0   3  -4    2.44    1.52
   0   3  -4    3.41    1.67
   0  -3   4    1.63    1.04
   0  -3   4    1.57    0.60
   0  -3   4    2.55    1.26
   0  -3   4    1.60    0.61
   0  -3   4    2.03    0.60
  -1   3  -4  515.57   31.58
  -1   3  -4  494.53   33.10
  -1   3  -4  538.05   31.50
  -1   3  -4  528.15   31.40
  -1   3  -4  490.76   32.94
   1  -3   4  483.19   31.49
   1  -3   4  491.96   31.38
   1  -3   4  519.77   31.45
  -2   3  -4   28.21    2.07
  -2   3  -4   21.45    1.93
  -2   3  -4   23.64    2.71
  -2   3  -4   25.84    2.82
  -2   3  -4   26.39    2.13
   2  -3   4   22.72    1.96
   2  -3   4   27.34    2.49
   2  -3   4   22.49    2.00
   2  -3   4   25.09    1.96
  -3   3  -4   46.39    3.38
  -3   3  -4   44.82    3.26
  -3   3  -4   43.47    3.88
  -3   3  -4   42.96    3.09
   3  -3   4   43.84    3.16
   3  -3   4   41.48    3.22
   3  -3   4   44.95    3.53
   3  -3   4   40.53    3.11
  -4   3  -4    2.03    0.53
  -4   3  -4    0.58    0.50
  -4   3  -4    2.07    0.70
   4  -3   4    0.87    0.44
   4  -3   4    1.92    0.63
   4  -3   4    0.71    0.42
   4  -3   4    1.64    0.61
  -5   3  -4   19.47    1.75
  -5   3  -4   21.20    2.02
   5  -3   4   18.90    1.89
   5  -3   4   20.51    1.97
   5  -3   4   22.52    2.11
   5  -3   4   19.11    1.84
  -6   3  -4    7.51    1.40
  -6   3  -4   10.26    1.30
   6  -3   4   11.75    1.48
   6  -3   4   12.16    1.39
   6  -3   4   10.63    1.49
  -7   3  -4   23.97    2.15
   7  -3   4   24.57    2.27
   7  -3   4   17.77    3.04
   8   2  -4    0.02    0.64
   8   2  -4    0.62    0.61
  -8  -2   4    0.23    0.43
  -8  -2   4   -0.18    0.51
  -8  -2   4    0.47    0.48
  -8  -2   4    0.33    0.39
   7   2  -4    7.14    1.08
   7   2  -4    6.79    0.95
   7   2  -4    6.35    1.02
  -7  -2   4    7.26    0.82
  -7  -2   4    7.16    0.86
  -7  -2   4    5.56    0.84
  -7  -2   4    7.08    0.99
   6   2  -4    0.28    0.37
   6   2  -4   -0.04    0.33
  -6  -2   4    0.24    0.27
  -6  -2   4    0.04    0.30
  -6  -2   4    0.28    0.28
  -6  -2   4    0.68    0.28
   5   2  -4    5.74    0.82
   5   2  -4    5.54    0.73
   5   2  -4    3.96    0.70
  -5  -2   4    4.91    0.65
  -5  -2   4    5.55    0.65
  -5  -2   4    6.71    1.03
  -5  -2   4    7.11    0.66
   4   2  -4    9.38    0.91
   4   2  -4    9.36    1.08
  -4  -2   4   10.17    0.90
  -4  -2   4   10.06    0.84
  -4  -2   4   10.83    0.88
  -4  -2   4   11.27    1.07
   3   2  -4   57.95    3.81
   3   2  -4   57.86    3.82
   3   2  -4   61.20    3.85
  -3  -2   4   57.11    3.79
  -3  -2   4   62.64    4.08
   2   2  -4  104.57    6.66
   2   2  -4  100.92    6.63
   2   2  -4  113.67    6.80
   2   2  -4  110.06    6.72
  -2  -2   4  110.06    6.99
  -2  -2   4   92.97    8.26
   1   2  -4   14.55    1.39
   1   2  -4   16.62    1.55
  -1  -2   4   15.32    3.68
  -1  -2   4   13.07    1.28
  -1  -2   4   12.68    1.48
  -1  -2   4    9.45    2.53
  -1  -2   4   13.65    1.16
   0   2  -4   98.79    7.82
   0   2  -4   97.30    8.11
   0  -2   4   70.54    5.99
   0  -2   4  103.97    7.60
   0  -2   4   73.18    6.15
   0  -2   4  104.59    7.72
   0  -2   4   98.87    6.20
  -1   2  -4   26.09    2.42
  -1   2  -4   28.80    2.36
  -1   2  -4   26.24    2.42
  -1   2  -4   26.91    3.27
  -1   2  -4   28.43    3.40
   1  -2   4   27.74    2.31
   1  -2   4   31.81    2.50
   1  -2   4   32.78    2.38
  -2   2  -4    0.78    0.46
  -2   2  -4    1.13    0.44
  -2   2  -4    0.87    0.55
  -2   2  -4    0.60    0.60
  -2   2  -4    0.08    0.50
   2  -2   4    0.28    0.30
   2  -2   4    0.33    0.36
   2  -2   4    0.81    0.45
   2  -2   4    0.23    0.34
  -3   2  -4    9.77    1.09
  -3   2  -4   10.50    1.27
  -3   2  -4   11.75    1.37
   3  -2   4   10.73    1.16
   3  -2   4    9.72    1.36
   3  -2   4   11.29    1.24
   3  -2   4    9.50    1.10
  -4   2  -4   63.68    4.36
  -4   2  -4   58.96    4.66
  -4   2  -4   69.30    4.65
   4  -2   4   62.72    4.46
   4  -2   4   61.96    4.43
   4  -2   4   61.73    4.56
   4  -2   4   68.61    4.76
  -5   2  -4    0.17    0.35
  -5   2  -4    0.37    0.58
  -5   2  -4    0.88    0.74
   5  -2   4    0.26    0.45
   5  -2   4    0.50    0.43
   5  -2   4    0.23    0.47
  -6   2  -4   35.82    3.22
  -6   2  -4   34.92    3.09
  -6   2  -4   36.11    2.80
   6  -2   4   37.33    3.13
   6  -2   4   32.67    2.85
   6  -2   4   38.75    3.08
   6  -2   4   40.76    3.01
  -7   2  -4    1.24    0.65
  -7   2  -4    1.76    0.98
   7  -2   4    0.99    0.72
   7  -2   4    0.47    0.76
   8   1  -4   10.66    1.36
   8   1  -4   12.19    1.50
  -8  -1   4   10.41    1.33
  -8  -1   4   13.26    1.28
  -8  -1   4   10.24    1.21
  -8  -1   4    9.53    1.13
   7   1  -4    0.17    0.38
   7   1  -4    0.12    0.43
   7   1  -4    0.80    0.45
  -7  -1   4    0.09    0.31
  -7  -1   4   -0.10    0.31
  -7  -1   4   -0.02    0.25
  -7  -1   4    0.59    0.36
   6   1  -4    0.05    0.35
   6   1  -4    0.05    0.31
  -6  -1   4    0.09    0.25
  -6  -1   4    0.28    0.26
  -6  -1   4    0.13    0.25
  -6  -1   4    0.03    0.26
   5   1  -4    0.45    0.27
   5   1  -4    1.36    0.43
   5   1  -4    0.39    0.29
  -5  -1   4    0.47    0.25
  -5  -1   4    0.65    0.30
  -5  -1   4    0.23    0.22
  -5  -1   4    0.59    0.25
   4   1  -4    4.77    0.90
   4   1  -4    2.91    0.48
   4   1  -4    3.13    0.52
  -4  -1   4    3.57    0.48
  -4  -1   4    3.58    0.66
  -4  -1   4    3.31    0.47
  -4  -1   4    3.97    0.58
   3   1  -4   23.46    1.65
   3   1  -4   23.49    1.61
  -3  -1   4   21.90    1.60
  -3  -1   4   22.45    1.78
  -3  -1   4   19.63    1.56
  -3  -1   4   23.95    1.67
   2   1  -4    4.13    0.55
   2   1  -4    4.63    0.52
   2   1  -4    4.12    0.57
   1   1  -4    1.46    0.51
   1   1  -4    2.23    0.58
  -1  -1   4    5.24    1.76
  -1  -1   4    1.38    0.45
  -1  -1   4    1.10    0.44
  -1  -1   4    3.03    1.44
  -1  -1   4    1.41    0.41
   0   1  -4    3.89    0.93
   0   1  -4    5.09    1.74
   0   1  -4    4.10    0.75
   0   1  -4    3.87    1.37
   0   1  -4    4.62    0.98
   0  -1   4    3.92    1.31
   0  -1   4    6.16    1.02
   0  -1   4    3.67    1.28
   0  -1   4    4.49    0.98
   0  -1   4    4.21    0.89
  -1   1  -4   21.42    2.91
  -1   1  -4   31.21    2.43
  -1   1  -4   19.28    2.26
  -1   1  -4   21.79    2.23
  -1   1  -4   27.97    3.07
   1  -1   4   26.49    2.39
   1  -1   4   29.32    2.26
   1  -1   4   26.44    2.24
  -2   1  -4   59.53    4.16
  -2   1  -4   55.47    4.63
  -2   1  -4   54.10    4.30
  -2   1  -4   53.75    4.66
  -2   1  -4   58.88    4.47
   2  -1   4   61.17    4.39
   2  -1   4   62.61    4.24
   2  -1   4   68.69    4.70
   2  -1   4   63.72    4.28
  -3   1  -4   13.72    1.36
  -3   1  -4   15.11    1.71
  -3   1  -4   16.26    1.63
   3  -1   4   14.89    1.66
   3  -1   4   14.97    1.45
   3  -1   4   12.85    1.47
   3  -1   4   13.53    1.39
  -4   1  -4   50.06    4.08
  -4   1  -4   53.97    3.77
  -4   1  -4   52.98    4.02
   4  -1   4   53.38    3.84
   4  -1   4   54.98    4.03
   4  -1   4   54.84    4.09
   4  -1   4   55.50    3.91
  -5   1  -4    3.72    0.74
  -5   1  -4    3.49    1.04
  -5   1  -4    4.13    0.96
   5  -1   4    2.21    0.68
  -6   1  -4    1.51    0.94
  -6   1  -4   -0.32    0.73
  -6   1  -4    1.35    0.56
   6  -1   4    1.77    0.88
   6  -1   4    1.00    0.62
   6  -1   4    0.67    0.68
  -7   1  -4   11.00    1.46
  -7   1  -4   10.20    1.71
   7  -1   4   13.41    1.94
   7  -1   4   11.43    1.58
   8   0  -4   37.52    2.91
  -8   0   4   38.21    2.86
  -8   0   4   38.12    3.05
  -8   0   4   39.50    2.88
  -8   0   4   38.26    2.81
   7   0  -4    2.71    0.68
   7   0  -4    2.23    0.64
   7   0  -4    2.49    0.56
  -7   0   4    2.05    0.54
  -7   0   4    2.29    0.52
  -7   0   4    2.89    0.71
  -7   0   4    2.34    0.48
   6   0  -4    7.16    1.01
   6   0  -4    5.73    0.91
   6   0  -4    4.62    0.74
  -6   0   4    5.64    0.96
  -6   0   4    6.11    0.73
  -6   0   4    6.54    0.78
  -6   0   4    4.96    0.76
   5   0  -4   80.00    5.14
   5   0  -4   75.44    5.07
   5   0  -4   73.48    5.15
  -5   0   4   77.76    5.24
  -5   0   4   81.26    5.04
  -5   0   4   79.47    5.09
  -5   0   4   74.57    5.06
   4   0  -4  124.08    8.01
  -4   0   4  129.19    8.19
  -4   0   4  131.54    8.02
  -4   0   4  118.89    7.98
  -4   0   4  129.88    8.04
   3   0  -4  116.80    7.54
   3   0  -4  124.39    7.60
   3   0  -4  121.38    7.55
  -3   0   4  121.82    7.72
  -3   0   4  119.95    7.55
  -3   0   4  111.66    7.50
  -3   0   4  121.40    7.59
   2   0  -4  301.80   17.94
   2   0  -4  301.30   17.88
   2   0  -4  273.84   17.86
   2   0  -4  282.63   17.83
  -2   0   4  284.52   18.06
   1   0  -4    0.29    0.28
   1   0  -4    0.46    0.32
  -1   0   4    1.45    0.96
  -1   0   4    0.24    0.31
  -1   0   4    0.46    0.34
  -1   0   4    0.97    0.82
  -1   0   4   -0.02    0.29
   0   0  -4    1.55    0.56
   0   0  -4    0.79    0.85
   0   0  -4    2.67    0.64
   0   0  -4    1.95    0.66
   0   0   4    1.77    0.59
   0   0   4    3.33    0.87
   0   0   4    1.69    0.97
   0   0   4    1.42    0.93
   0   0   4    1.81    0.62
  -1   0  -4    0.83    0.60
  -1   0  -4    0.36    0.52
  -1   0  -4    0.88    0.88
  -1   0  -4    0.95    0.80
  -1   0  -4    0.76    0.75
   1   0   4    0.50    0.54
   1   0   4    1.96    0.67
   1   0   4    0.57    0.46
  -2   0  -4  139.15    9.56
  -2   0  -4  131.49    9.57
  -2   0  -4  137.60    9.17
  -2   0  -4  127.92    9.40
   2   0   4  154.12    9.62
   2   0   4  149.29    9.41
   2   0   4  142.31    9.22
   2   0   4  151.02    9.60
  -3   0  -4    1.66    0.65
  -3   0  -4    2.09    0.54
   3   0   4    2.67    0.71
   3   0   4    2.79    0.71
   3   0   4    2.96    0.68
   3   0   4    2.28    0.59
  -4   0  -4   62.45    4.57
  -4   0  -4   65.62    4.94
  -4   0  -4   72.11    5.08
   4   0   4   71.11    4.94
   4   0   4   63.49    4.86
   4   0   4   67.71    4.68
   4   0   4   70.10    4.81
  -5   0  -4    3.21    0.87
  -5   0  -4    2.23    0.68
  -5   0  -4    3.94    0.75
   5   0   4    3.83    1.30
   5   0   4    4.39    0.89
  -6   0  -4    0.34    0.75
  -6   0  -4    0.42    0.74
  -6   0  -4    1.29    0.61
   6   0   4    0.33    0.55
   6   0   4    0.33    0.62
   6   0   4    0.50    0.54
   6   0   4    0.00    0.55
  -7   0  -4   13.45    1.97
  -7   0  -4   14.73    1.72
   7   0   4   15.24    1.99
   7   0   4   18.36    1.92
   8  -1  -4   13.74    1.46
   8  -1  -4   11.20    1.21
   8  -1  -4    8.76    1.26
  -8   1   4   10.92    1.29
  -8   1   4   11.79    1.39
  -8   1   4   11.61    1.22
  -8   1   4   10.75    1.23
   7  -1  -4    0.33    0.42
   7  -1  -4   -0.12    0.33
   7  -1  -4    0.10    0.34
   7  -1  -4    0.20    0.39
  -7   1   4    1.00    0.39
  -7   1   4    0.21    0.41
  -7   1   4   -0.03    0.35
  -7   1   4    0.31    0.32
   6  -1  -4    0.46    0.38
   6  -1  -4    0.30    0.33
   6  -1  -4    0.45    0.32
   6  -1  -4    0.31    0.29
  -6   1   4   -0.02    0.28
  -6   1   4    0.03    0.24
  -6   1   4    0.21    0.28
   5  -1  -4    0.46    0.32
   5  -1  -4    0.90    0.34
  -5   1   4    1.51    0.39
  -5   1   4    0.48    0.24
  -5   1   4    0.31    0.25
  -5   1   4    0.37    0.24
   4  -1  -4    3.44    0.53
   4  -1  -4    4.78    0.70
   4  -1  -4    4.50    0.60
  -4   1   4    1.93    0.45
  -4   1   4    3.52    0.53
  -4   1   4    3.37    0.53
  -4   1   4    2.55    0.49
   3  -1  -4   22.95    1.67
   3  -1  -4   24.56    1.68
   3  -1  -4   21.33    1.79
  -3   1   4   20.39    1.66
  -3   1   4   22.69    1.75
  -3   1   4   22.48    1.66
  -3   1   4   21.70    1.63
   2  -1  -4    5.50    0.58
   2  -1  -4    4.29    0.56
   2  -1  -4    3.37    0.52
   2  -1  -4    4.83    0.60
  -2   1   4    2.43    0.54
   1  -1  -4    3.30    0.61
   1  -1  -4    4.35    0.67
   1  -1  -4    2.96    0.74
  -1   1   4    1.95    0.63
  -1   1   4    1.34    0.79
  -1   1   4    2.32    0.64
  -1   1   4    1.28    0.45
   0  -1  -4    2.27    0.70
   0  -1  -4    4.95    0.89
   0  -1  -4    3.59    0.90
   0   1   4    3.60    1.24
   0   1   4    1.47    0.66
   0   1   4    5.27    1.09
   0   1   4    5.31    1.31
   0   1   4    2.11    0.75
  -1  -1  -4   34.61    3.09
  -1  -1  -4   27.59    3.15
  -1  -1  -4   25.91    3.07
  -1  -1  -4   32.09    2.85
  -1  -1  -4   25.15    2.58
   1   1   4   28.62    2.67
   1   1   4   27.58    2.82
   1   1   4   28.43    2.55
  -2  -1  -4   58.81    4.38
  -2  -1  -4   47.39    4.36
  -2  -1  -4   59.77    4.44
  -2  -1  -4   46.13    4.47
  -2  -1  -4   59.47    4.18
   2   1   4   64.80    4.26
   2   1   4   59.82    4.42
   2   1   4   63.57    4.66
   2   1   4   61.12    4.43
  -3  -1  -4   14.40    1.72
  -3  -1  -4   14.18    1.42
  -3  -1  -4   13.91    1.87
   3   1   4   16.12    1.50
   3   1   4   14.37    1.73
   3   1   4   14.97    1.63
   3   1   4   14.04    1.58
  -4  -1  -4   51.22    3.68
  -4  -1  -4   52.46    4.17
  -4  -1  -4   52.66    4.04
   4   1   4   51.41    4.03
   4   1   4   48.61    3.86
   4   1   4   53.65    3.75
  -5  -1  -4    1.64    0.57
  -5  -1  -4    2.19    0.74
  -5  -1  -4    1.12    0.70
   5   1   4    1.31    0.63
   5   1   4    2.42    0.71
  -6  -1  -4    1.34    0.57
  -6  -1  -4    0.49    0.88
  -6  -1  -4    0.99    0.86
   6   1   4   -0.77    0.57
   6   1   4    1.48    0.82
   6   1   4    1.69    0.63
   6   1   4    0.56    0.54
  -7  -1  -4   10.82    1.68
   7   1   4   10.91    1.89
   7   1   4    8.08    1.48
   8  -2  -4    0.58    0.48
   8  -2  -4    0.21    0.53
   8  -2  -4    0.48    0.52
  -8   2   4    0.03    0.44
  -8   2   4    0.51    0.49
  -8   2   4    0.98    0.48
  -8   2   4    0.19    0.39
   7  -2  -4    7.64    0.98
   7  -2  -4    5.50    0.84
   7  -2  -4    6.62    0.91
  -7   2   4    5.27    0.92
  -7   2   4    6.48    0.89
  -7   2   4    5.66    0.84
  -7   2   4    4.70    0.79
   6  -2  -4    0.12    0.28
   6  -2  -4    0.06    0.30
   6  -2  -4    0.49    0.36
   6  -2  -4    0.31    0.36
  -6   2   4    0.05    0.28
  -6   2   4    0.19    0.28
  -6   2   4   -0.07    0.26
   5  -2  -4    5.93    0.75
   5  -2  -4    4.48    0.72
  -5   2   4    6.02    0.73
  -5   2   4    5.36    0.74
  -5   2   4    4.97    0.65
  -5   2   4    5.26    0.76
   4  -2  -4    9.17    0.94
   4  -2  -4   11.68    1.03
  -4   2   4   10.27    1.01
  -4   2   4   10.80    0.98
  -4   2   4    9.76    0.96
  -4   2   4    9.63    0.92
   3  -2  -4   59.28    4.05
   3  -2  -4   61.78    4.02
   3  -2  -4   63.73    4.02
  -3   2   4   61.77    4.04
  -3   2   4   60.42    4.08
  -3   2   4   55.74    3.96
  -3   2   4   60.37    4.01
   2  -2  -4  106.70    6.93
   2  -2  -4  106.00    6.93
   2  -2  -4  107.00    6.87
   2  -2  -4  108.27    6.86
  -2   2   4   99.06    6.88
  -2   2   4  114.36    6.95
   1  -2  -4   17.50    1.46
   1  -2  -4   16.45    1.40
  -1   2   4   13.60    1.48
  -1   2   4   12.00    1.48
   0  -2  -4   89.26    6.14
   0  -2  -4   90.43    6.52
   0  -2  -4   91.53    6.33
   0   2   4  101.01    6.79
   0   2   4  100.43    6.46
   0   2   4   71.38    6.23
   0   2   4   73.25    6.42
   0   2   4   89.73    6.94
  -1  -2  -4   31.87    3.01
  -1  -2  -4   24.30    2.69
  -1  -2  -4   36.52    3.08
  -1  -2  -4   32.95    2.81
  -1  -2  -4   29.79    2.90
   1   2   4   28.83    2.85
   1   2   4   26.26    2.64
  -2  -2  -4    1.35    0.58
  -2  -2  -4    0.55    0.52
  -2  -2  -4    0.63    0.82
  -2  -2  -4    0.49    0.70
  -2  -2  -4   -0.02    0.41
   2   2   4    3.01    0.75
   2   2   4    0.71    0.65
   2   2   4    1.78    0.82
   2   2   4    0.46    0.49
  -3  -2  -4    8.41    1.73
  -3  -2  -4   10.02    1.18
  -3  -2  -4   11.67    1.78
   3   2   4   12.01    1.27
   3   2   4   11.49    1.53
   3   2   4    9.28    1.55
   3   2   4    9.96    1.69
  -4  -2  -4   59.24    4.73
  -4  -2  -4   59.07    4.24
  -4  -2  -4   56.06    4.58
   4   2   4   69.12    4.56
   4   2   4   60.46    4.28
   4   2   4   57.94    4.51
   4   2   4   61.99    4.75
  -5  -2  -4    0.55    0.72
  -5  -2  -4    0.10    0.40
   5   2   4    0.97    0.57
   5   2   4    0.11    0.53
  -6  -2  -4   33.60    2.75
  -6  -2  -4   37.46    3.14
  -6  -2  -4   35.51    3.55
   6   2   4   33.59    3.16
   6   2   4   35.40    2.98
   6   2   4   37.55    3.07
   6   2   4   33.71    2.79
  -7  -2  -4    1.46    1.04
  -7  -2  -4    0.54    0.79
   7   2   4    0.01    0.82
   7   2   4    1.15    0.80
   8  -3  -4    4.01    0.82
   8  -3  -4    3.18    0.72
  -8   3   4    2.39    0.73
  -8   3   4    3.81    0.76
  -8   3   4    3.79    0.77
  -8   3   4    4.24    0.87
   7  -3  -4   84.89    5.87
   7  -3  -4   87.58    5.96
   7  -3  -4   88.52    5.92
  -7   3   4   91.74    5.90
  -7   3   4   88.80    5.89
  -7   3   4   90.87    6.04
  -7   3   4   85.61    5.97
   6  -3  -4    1.03    0.44
   6  -3  -4    2.01    0.52
   6  -3  -4    1.24    0.43
   6  -3  -4    1.19    0.41
  -6   3   4    0.76    0.37
  -6   3   4    1.62    0.45
  -6   3   4    0.80    0.38
  -6   3   4    0.86    0.41
   5  -3  -4  238.56   14.54
   5  -3  -4  233.70   14.51
   5  -3  -4  236.96   14.56
   5  -3  -4  230.88   14.58
  -5   3   4  228.99   14.48
  -5   3   4  228.13   14.52
  -5   3   4  232.38   14.63
  -5   3   4  226.61   14.53
   4  -3  -4    6.07    0.72
   4  -3  -4    5.20    0.72
   4  -3  -4    6.28    0.72
  -4   3   4    5.34    0.70
  -4   3   4    6.58    0.71
  -4   3   4    6.23    0.72
  -4   3   4    6.35    0.73
   3  -3  -4   16.68    1.35
   3  -3  -4   15.46    1.36
   3  -3  -4   16.94    1.34
  -3   3   4   15.75    1.30
  -3   3   4   16.41    1.35
  -3   3   4   16.20    1.35
  -3   3   4   16.14    1.35
   2  -3  -4   26.09    1.96
   2  -3  -4   25.35    2.03
   2  -3  -4   25.94    1.97
   2  -3  -4   26.11    2.01
  -2   3   4   27.49    1.98
  -2   3   4   25.34    1.96
   1  -3  -4  441.11   26.39
   1  -3  -4  444.79   26.53
   1  -3  -4  465.58   26.47
   1  -3  -4  448.94   26.51
  -1   3   4  371.89   26.51
  -1   3   4  413.90   26.76
  -1   3   4  389.56   26.44
   0  -3  -4    1.00    0.63
   0  -3  -4    2.06    0.66
   0  -3  -4    2.49    0.87
   0   3   4    1.93    0.78
   0   3   4    2.07    0.86
   0   3   4    1.57    0.68
   0   3   4    0.92    0.60
   0   3   4    3.50    0.97
  -1  -3  -4  499.44   32.55
  -1  -3  -4  556.09   32.43
   1   3   4  522.17   32.67
   1   3   4  481.97   32.25
   1   3   4  521.88   32.42
  -2  -3  -4   19.25    2.33
  -2  -3  -4   20.40    2.00
  -2  -3  -4   19.59    2.60
  -2  -3  -4   23.19    2.10
   2   3   4   26.02    2.52
   2   3   4   21.12    1.96
   2   3   4   22.95    2.60
   2   3   4   23.33    2.06
  -3  -3  -4   34.58    3.40
  -3  -3  -4   38.96    3.09
  -3  -3  -4   34.10    3.54
   3   3   4   42.26    3.58
   3   3   4   44.51    3.84
   3   3   4   43.50    3.11
   3   3   4   45.52    3.64
  -4  -3  -4    0.82    0.68
  -4  -3  -4    0.86    0.73
  -4  -3  -4    1.04    0.52
   4   3   4    1.32    0.75
   4   3   4   -0.08    0.57
   4   3   4    1.70    0.59
   4   3   4    2.00    0.65
  -5  -3  -4   19.45    1.84
  -5  -3  -4   17.87    2.29
  -5  -3  -4   19.75    2.18
   5   3   4   20.25    2.32
   5   3   4   22.36    2.19
  -6  -3  -4    9.00    1.30
  -6  -3  -4    6.57    1.31
  -6  -3  -4   11.72    1.65
   6   3   4   12.01    1.47
   6   3   4   10.96    1.39
   6   3   4    9.58    1.51
   6   3   4    7.39    1.55
  -7  -3  -4   22.23    2.19
  -7  -3  -4   23.45    2.57
   7   3   4   24.12    2.76
   7   3   4   20.27    2.41
   8  -4  -4    4.67    0.84
   8  -4  -4    3.78    0.81
  -8   4   4    2.48    0.70
  -8   4   4    5.20    0.88
  -8   4   4    4.03    0.82
   7  -4  -4   13.45    1.32
   7  -4  -4   12.71    1.31
   7  -4  -4   13.84    1.41
   7  -4  -4   11.90    1.30
  -7   4   4   12.16    1.26
  -7   4   4   12.13    1.27
  -7   4   4   13.28    1.41
  -7   4   4   15.21    1.62
   6  -4  -4    0.08    0.35
   6  -4  -4    0.17    0.34
   6  -4  -4    0.23    0.32
  -6   4   4    0.29    0.34
  -6   4   4    0.17    0.28
  -6   4   4   -0.01    0.29
   5  -4  -4    1.62    0.44
   5  -4  -4    2.36    0.52
   5  -4  -4    2.43    0.59
   5  -4  -4    2.39    0.51
  -5   4   4    1.47    0.44
  -5   4   4    1.61    0.44
  -5   4   4    2.29    0.48
  -5   4   4    1.13    0.37
   4  -4  -4   40.24    2.87
   4  -4  -4   39.56    2.82
   4  -4  -4   41.16    2.82
  -4   4   4   37.52    2.77
  -4   4   4   39.37    2.84
  -4   4   4   41.65    3.00
  -4   4   4   39.47    2.82
   3  -4  -4   35.51    2.57
   3  -4  -4   34.95    2.62
   3  -4  -4   36.75    2.60
  -3   4   4   38.16    2.58
  -3   4   4   36.03    2.59
  -3   4   4   35.37    2.57
  -3   4   4   36.38    2.61
   2  -4  -4  198.17   12.54
   2  -4  -4  211.78   12.53
   2  -4  -4  202.36   12.60
   2  -4  -4  202.59   12.50
  -2   4   4  180.92   12.66
  -2   4   4  199.85   12.43
  -2   4   4  193.33   12.48
   1  -4  -4   18.69    1.72
   1  -4  -4   17.22    1.59
   1  -4  -4   17.93    1.59
   1  -4  -4   17.92    1.64
  -1   4   4   16.16    1.58
  -1   4   4   16.57    2.09
   0  -4  -4  114.91    7.93
   0  -4  -4  106.82    7.57
   0  -4  -4  116.91    7.70
   0   4   4  110.19    7.41
   0   4   4   89.58    7.55
   0   4   4  128.13    7.92
  -1  -4  -4   29.26    2.90
  -1  -4  -4   26.47    2.53
  -1  -4  -4   28.11    2.74
   1   4   4   28.67    2.37
   1   4   4   28.83    2.57
   1   4   4   23.81    2.56
   1   4   4   25.56    2.72
  -2  -4  -4   11.06    1.94
  -2  -4  -4    7.83    1.37
  -2  -4  -4   12.19    2.54
   2   4   4    8.65    1.10
   2   4   4    9.76    1.20
   2   4   4    4.96    1.28
   2   4   4    7.91    1.47
  -3  -4  -4    9.13    1.70
  -3  -4  -4   14.82    1.60
   3   4   4   17.43    2.24
   3   4   4   16.83    2.02
   3   4   4   13.04    1.41
  -4  -4  -4  123.22    8.57
  -4  -4  -4  114.10    8.90
  -4  -4  -4  130.64    9.17
   4   4   4  133.08    8.55
   4   4   4  139.68    8.73
   4   4   4  139.23    9.22
   4   4   4  137.37    9.49
  -5  -4  -4   -0.45    0.80
  -5  -4  -4   -0.10    0.72
  -5  -4  -4    0.58    0.53
   5   4   4    0.24    0.76
   5   4   4    0.20    0.68
  -6  -4  -4   33.45    3.20
  -6  -4  -4   34.79    3.36
  -6  -4  -4   35.32    2.94
   6   4   4   37.73    3.09
   6   4   4   38.99    3.32
   6   4   4   37.08    2.87
   6   4   4   35.01    3.38
  -7  -4  -4    3.67    1.32
  -7  -4  -4    3.59    0.98
   7   4   4    2.47    1.16
   7   4   4    3.26    1.15
   8  -5  -4    3.87    0.81
   8  -5  -4    3.80    0.94
  -8   5   4    3.40    0.74
  -8   5   4    3.73    0.82
  -8   5   4    4.69    1.03
   7  -5  -4    7.26    1.11
   7  -5  -4    4.96    0.79
   7  -5  -4    4.42    0.83
   7  -5  -4    5.16    0.79
  -7   5   4    4.68    0.79
  -7   5   4    5.23    0.83
  -7   5   4    5.44    0.87
  -7   5   4    4.02    0.76
   6  -5  -4   -0.01    0.30
   6  -5  -4    0.38    0.35
   6  -5  -4    0.24    0.32
   6  -5  -4    0.19    0.30
  -6   5   4    0.29    0.30
  -6   5   4    0.20    0.38
  -6   5   4   -0.76    0.34
  -6   5   4   -0.16    0.28
   5  -5  -4    6.13    0.79
   5  -5  -4    6.61    0.90
   5  -5  -4    6.40    0.85
   5  -5  -4    6.01    0.85
  -5   5   4    6.86    0.85
  -5   5   4    6.26    0.82
  -5   5   4    6.57    1.27
   4  -5  -4    0.02    0.20
   4  -5  -4    0.12    0.24
   4  -5  -4   -0.15    0.23
  -4   5   4    0.24    0.24
  -4   5   4    0.22    0.29
  -4   5   4    0.52    0.26
  -4   5   4    0.44    0.31
   3  -5  -4    5.64    0.80
   3  -5  -4    6.57    0.78
   3  -5  -4    5.87    0.74
  -3   5   4    5.90    0.67
  -3   5   4    5.61    0.74
  -3   5   4    7.21    0.78
   2  -5  -4    1.55    0.45
   2  -5  -4    2.34    0.48
   2  -5  -4    2.67    0.56
   2  -5  -4    1.45    0.46
  -2   5   4    2.29    0.73
  -2   5   4    2.19    0.45
  -2   5   4    1.85    0.59
   1  -5  -4   32.10    2.61
   1  -5  -4   31.64    2.49
   1  -5  -4   31.56    2.47
   1  -5  -4   31.91    2.51
  -1   5   4   29.70    2.36
  -1   5   4   30.36    2.47
  -1   5   4   37.61    3.37
   0  -5  -4    0.21    0.57
   0  -5  -4   -0.03    0.45
   0  -5  -4   -0.45    0.40
   0   5   4   -0.35    0.44
   0   5   4    0.45    0.63
   0   5   4    1.06    0.72
  -1  -5  -4    0.48    0.64
  -1  -5  -4    0.76    0.63
  -1  -5  -4    1.21    0.95
   1   5   4    1.62    0.85
   1   5   4    1.62    0.55
   1   5   4    1.32    0.73
   1   5   4    0.90    0.81
  -2  -5  -4   47.00    4.13
  -2  -5  -4   40.05    3.74
  -2  -5  -4   41.49    3.55
   2   5   4   40.02    3.16
   2   5   4   39.42    3.06
   2   5   4   40.97    3.75
   2   5   4   42.06    3.59
  -3  -5  -4   -0.48    0.74
  -3  -5  -4    1.99    0.76
  -3  -5  -4    0.58    0.67
   3   5   4    2.73    1.18
   3   5   4    1.41    0.51
  -4  -5  -4   22.22    2.59
  -4  -5  -4   27.57    2.60
  -4  -5  -4   24.17    2.80
   4   5   4   27.27    2.89
   4   5   4   28.76    2.33
   4   5   4   26.74    3.04
   4   5   4   27.96    2.21
  -5  -5  -4    1.27    0.86
  -5  -5  -4    0.32    0.56
  -5  -5  -4   -0.91    0.85
   5   5   4    0.30    0.84
   5   5   4    1.57    1.03
  -6  -5  -4    0.58    0.93
  -6  -5  -4    1.15    0.70
  -6  -5  -4    0.35    0.96
   6   5   4   -1.05    0.88
   6   5   4   -0.80    0.62
   6   5   4    0.83    0.66
   6   5   4    0.50    0.91
   7  -6  -4    1.17    0.54
   7  -6  -4    1.57    0.59
   7  -6  -4    1.78    0.53
  -7   6   4    1.54    0.58
  -7   6   4    1.12    0.53
  -7   6   4    0.97    0.53
   6  -6  -4    3.41    0.70
   6  -6  -4    3.43    0.66
   6  -6  -4    3.05    0.69
   6  -6  -4    2.58    0.69
  -6   6   4    4.26    0.74
  -6   6   4    4.50    0.76
  -6   6   4    3.36    0.70
  -6   6   4    6.23    1.37
   5  -6  -4   47.44    4.09
   5  -6  -4   49.56    3.34
   5  -6  -4   47.09    3.36
  -5   6   4   45.77    3.36
  -5   6   4   48.24    3.36
  -5   6   4   48.37    3.41
  -5   6   4   48.43    3.38
   4  -6  -4   77.68    4.99
   4  -6  -4   77.92    4.94
   4  -6  -4   72.26    5.02
   4  -6  -4   75.73    5.01
  -4   6   4   71.45    4.92
  -4   6   4   74.32    4.97
  -4   6   4   72.62    5.01
  -4   6   4   75.29    4.98
   3  -6  -4   55.00    3.91
   3  -6  -4   58.10    3.90
   3  -6  -4   54.17    3.86
  -3   6   4   56.96    3.85
  -3   6   4   55.76    3.76
  -3   6   4   59.99    3.91
   2  -6  -4  138.96    9.24
   2  -6  -4  144.22    9.21
   2  -6  -4  151.39    9.40
   2  -6  -4  141.53    9.25
  -2   6   4  147.37    9.18
  -2   6   4  140.75    9.03
   1  -6  -4    4.80    0.89
   1  -6  -4    4.06    0.82
   1  -6  -4    2.47    0.58
   1  -6  -4    5.28    1.09
  -1   6   4    4.19    0.68
  -1   6   4    2.92    1.27
  -1   6   4    3.25    0.56
   0  -6  -4    1.67    0.73
   0  -6  -4    1.83    0.80
   0  -6  -4    1.93    0.87
   0   6   4    0.90    0.54
   0   6   4    1.22    0.60
   0   6   4   -0.43    0.65
  -1  -6  -4    1.53    0.78
  -1  -6  -4    3.08    1.16
  -1  -6  -4    4.84    1.21
   1   6   4    1.66    0.91
   1   6   4    1.50    0.48
   1   6   4    1.56    0.90
   1   6   4    2.42    0.79
  -2  -6  -4   73.58    5.60
  -2  -6  -4   77.62    5.91
  -2  -6  -4   65.30    5.46
   2   6   4   70.47    4.81
   2   6   4   68.52    5.42
   2   6   4   70.13    5.66
  -3  -6  -4   -1.51    0.81
  -3  -6  -4   -0.01    0.68
  -3  -6  -4    0.30    0.63
   3   6   4   -0.05    0.84
   3   6   4    0.47    0.75
   3   6   4    0.18    0.43
  -4  -6  -4   36.19    3.75
  -4  -6  -4   42.56    3.35
  -4  -6  -4   34.24    3.50
   4   6   4   42.81    3.16
   4   6   4   47.54    4.16
   4   6   4   38.55    3.71
   4   6   4   43.39    3.06
  -5  -6  -4    3.17    1.19
  -5  -6  -4    1.48    0.96
  -5  -6  -4    2.46    0.80
   5   6   4    1.12    1.15
   5   6   4    3.16    1.17
  -6  -6  -4    1.28    1.12
  -6  -6  -4    0.69    0.75
  -6  -6  -4    0.66    0.99
   6   6   4    0.99    1.10
   6   6   4   -0.37    0.98
   6   6   4    0.63    0.78
   6   6   4   -0.23    0.60
   7  -7  -4    0.87    0.54
   7  -7  -4    1.31    0.58
   7  -7  -4    1.19    0.52
  -7   7   4    0.52    0.58
  -7   7   4    1.23    0.66
  -7   7   4    1.28    0.47
   6  -7  -4   -0.10    0.38
   6  -7  -4   -0.28    0.38
   6  -7  -4    0.12    0.33
   6  -7  -4   -0.32    0.27
  -6   7   4    0.01    0.41
  -6   7   4    0.22    0.35
  -6   7   4    0.01    0.42
  -6   7   4    0.03    0.41
   5  -7  -4    7.24    0.94
   5  -7  -4    6.75    0.83
   5  -7  -4    7.26    0.89
  -5   7   4    9.29    1.21
  -5   7   4    7.18    0.88
  -5   7   4    6.91    0.87
  -5   7   4    6.36    0.91
   4  -7  -4    2.09    0.54
   4  -7  -4    1.66    0.47
   4  -7  -4    2.39    0.62
  -4   7   4    1.11    0.48
  -4   7   4    1.78    0.45
  -4   7   4    1.87    0.46
  -4   7   4    1.91    0.52
   3  -7  -4   18.79    1.62
   3  -7  -4   19.61    1.72
   3  -7  -4   18.01    1.62
   3  -7  -4   18.08    1.56
  -3   7   4   18.51    1.96
  -3   7   4   20.05    1.58
  -3   7   4   19.24    1.45
   2  -7  -4    0.66    0.38
   2  -7  -4    0.22    0.26
   2  -7  -4    0.09    0.26
   2  -7  -4   -0.01    0.30
  -2   7   4    0.16    0.23
  -2   7   4    0.13    0.76
  -2   7   4    0.21    0.18
   1  -7  -4    4.26    0.86
   1  -7  -4    3.95    0.82
   1  -7  -4    2.45    0.77
   1  -7  -4    3.12    0.61
  -1   7   4    1.99    1.22
  -1   7   4    4.00    0.47
  -1   7   4    2.75    0.55
   0  -7  -4    0.40    0.55
   0  -7  -4    0.65    0.71
   0  -7  -4    0.76    0.81
   0  -7  -4    0.05    0.40
   0   7   4    0.40    0.34
   0   7   4    0.58    0.48
   0   7   4    0.97    0.83
   0   7   4    0.68    0.51
   0   7   4    1.21    0.44
  -1  -7  -4   52.19    4.30
  -1  -7  -4   49.97    4.50
  -1  -7  -4   63.76    4.53
   1   7   4   58.31    3.70
   1   7   4   43.64    4.25
   1   7   4   49.95    4.58
   1   7   4   53.99    4.03
  -2  -7  -4   40.52    3.54
  -2  -7  -4   38.92    3.69
  -2  -7  -4   40.93    3.83
   2   7   4   36.25    2.87
   2   7   4   29.21    3.30
   2   7   4   31.62    3.56
   2   7   4   42.05    2.79
  -3  -7  -4   13.42    1.93
  -3  -7  -4   11.47    2.44
  -3  -7  -4   11.17    2.06
   3   7   4   16.46    2.08
   3   7   4   15.44    1.48
   3   7   4   17.35    2.27
  -4  -7  -4   29.87    3.19
  -4  -7  -4   31.35    3.07
  -4  -7  -4   30.00    3.36
   4   7   4   36.15    2.66
   4   7   4   40.17    2.80
   4   7   4   34.20    3.59
   4   7   4   37.19    3.41
  -5  -7  -4    4.74    1.12
  -5  -7  -4    3.69    1.26
  -5  -7  -4    4.18    1.27
   5   7   4    6.08    1.50
   5   7   4    5.88    1.75
   5   7   4    4.07    0.97
  -6  -7  -4    1.41    1.08
  -6  -7  -4    3.11    1.43
  -6  -7  -4    1.48    0.97
   6   7   4    2.10    1.18
   6   7   4    2.76    1.35
   6   7   4    2.55    0.71
   7  -8  -4    2.29    0.66
   7  -8  -4    1.90    0.65
   7  -8  -4    1.44    0.82
  -7   8   4    2.87    0.77
   6  -8  -4    0.64    0.45
   6  -8  -4   -0.17    0.32
   6  -8  -4    0.85    0.43
  -6   8   4   -0.84    0.82
  -6   8   4    0.68    0.42
  -6   8   4    0.52    0.47
   5  -8  -4    7.44    1.01
   5  -8  -4    9.34    1.12
   5  -8  -4    8.08    0.94
   5  -8  -4    9.22    1.01
  -5   8   4    9.43    1.11
  -5   8   4    8.20    1.06
  -5   8   4    8.65    0.98
  -5   8   4    8.68    0.99
   4  -8  -4    0.78    0.36
   4  -8  -4    0.25    0.40
   4  -8  -4    0.00    0.32
  -4   8   4    1.17    0.37
  -4   8   4    0.32    0.39
  -4   8   4   -0.20    0.36
   3  -8  -4   35.68    2.68
   3  -8  -4   34.42    2.48
   3  -8  -4   30.38    2.52
   3  -8  -4   37.30    2.60
  -3   8   4   31.66    2.27
  -3   8   4   28.62    2.95
  -3   8   4   33.21    2.43
   2  -8  -4    4.05    0.69
   2  -8  -4    4.79    0.86
   2  -8  -4    2.97    0.82
   2  -8  -4    4.58    0.73
  -2   8   4    3.42    0.43
  -2   8   4    5.78    1.67
  -2   8   4    2.84    0.58
   1  -8  -4    1.85    0.66
   1  -8  -4    1.83    0.75
   1  -8  -4    2.28    0.58
   1  -8  -4    3.47    0.68
  -1   8   4    2.78    0.37
  -1   8   4    3.30    1.22
  -1   8   4    3.13    0.56
   0  -8  -4   22.17    2.10
   0  -8  -4   24.28    2.41
   0  -8  -4   20.02    2.50
   0  -8  -4   21.77    2.37
   0  -8  -4   25.99    2.15
   0   8   4   22.10    1.81
   0   8   4   20.76    1.63
   0   8   4   22.62    2.07
  -1  -8  -4    4.44    1.12
  -1  -8  -4    3.36    1.29
  -1  -8  -4    4.46    1.27
   1   8   4    3.60    1.22
   1   8   4    3.45    1.04
   1   8   4    5.27    0.64
  -2  -8  -4    8.12    1.89
  -2  -8  -4    4.49    1.46
  -2  -8  -4    4.74    1.32
   2   8   4    4.94    0.91
   2   8   4    3.42    1.33
   2   8   4    6.05    0.75
   2   8   4    3.95    1.44
  -3  -8  -4    2.97    1.42
  -3  -8  -4    5.14    1.37
   3   8   4    6.29    0.92
   3   8   4    6.61    0.87
   3   8   4    4.59    1.34
   3   8   4    6.95    1.49
  -4  -8  -4    5.32    1.50
  -4  -8  -4    6.60    1.43
   4   8   4    9.13    1.93
   4   8   4    7.49    1.60
   4   8   4    8.95    1.12
   4   8   4    9.14    1.10
  -5  -8  -4    0.22    0.96
  -5  -8  -4   -1.19    1.17
  -5  -8  -4    0.76    0.89
   5   8   4   -0.16    1.07
   5   8   4    0.23    0.55
   5   8   4    1.80    1.14
  -6  -8  -4    5.49    1.36
  -6  -8  -4   10.03    2.02
  -6  -8  -4    4.16    1.45
   6   8   4    8.76    1.68
   6   8   4    7.87    1.81
   6   8   4    8.62    1.74
   6  -9  -4    0.30    0.45
   6  -9  -4    0.24    0.41
   6  -9  -4    0.49    0.59
   6  -9  -4    0.23    0.47
  -6   9   4    0.12    0.45
  -6   9   4    0.03    0.57
  -6   9   4    0.72    0.45
   5  -9  -4   87.77    5.75
   5  -9  -4   88.64    5.75
   5  -9  -4   87.65    5.68
  -5   9   4   86.96    5.63
  -5   9   4   83.14    5.91
  -5   9   4   84.90    5.65
  -5   9   4   75.77    5.74
   4  -9  -4    2.33    0.78
   4  -9  -4    1.79    0.48
   4  -9  -4    1.89    0.58
   4  -9  -4    1.56    0.60
  -4   9   4    2.72    0.53
  -4   9   4    1.59    0.56
  -4   9   4    2.41    0.51
   3  -9  -4    4.82    0.86
   3  -9  -4    5.14    0.89
   3  -9  -4    5.94    1.05
  -3   9   4    4.23    0.53
  -3   9   4    4.17    0.71
  -3   9   4    2.69    1.26
   2  -9  -4   11.55    1.23
   2  -9  -4    9.03    1.01
   2  -9  -4   10.98    1.63
   2  -9  -4    8.88    1.06
  -2   9   4   11.73    2.27
  -2   9   4    8.71    0.71
  -2   9   4    8.77    0.95
   1  -9  -4  119.05    8.31
   1  -9  -4  119.43    8.49
   1  -9  -4  135.82    8.16
   1  -9  -4  119.16    8.32
  -1   9   4  129.51    7.98
  -1   9   4  116.29    8.79
  -1   9   4  129.90    8.81
   0  -9  -4    2.25    1.12
   0  -9  -4    1.59    0.87
   0  -9  -4    1.33    0.66
   0  -9  -4    0.72    0.54
   0   9   4    0.71    0.39
   0   9   4    1.04    0.26
   0   9   4    0.48    0.81
   0   9   4    1.19    0.26
  -1  -9  -4  160.29   10.66
  -1  -9  -4  162.35   10.59
  -1  -9  -4  143.20   10.81
   1   9   4  152.22   10.15
   1   9   4  162.78    9.74
   1   9   4  147.61   10.38
   1   9   4  176.03   10.02
   1   9   4  137.98   10.53
  -2  -9  -4    8.91    1.76
  -2  -9  -4   11.62    3.13
  -2  -9  -4   13.01    2.35
   2   9   4    7.84    1.68
   2   9   4   10.20    0.96
   2   9   4   11.10    1.25
   2   9   4    6.48    1.60
  -3  -9  -4   14.14    2.36
  -3  -9  -4   12.90    2.33
   3   9   4   11.45    2.12
   3   9   4   14.68    1.40
   3   9   4    9.70    2.07
   3   9   4   15.64    1.34
  -4  -9  -4   -0.18    1.11
  -4  -9  -4    1.71    1.38
  -4  -9  -4    1.59    1.21
   4   9   4    1.12    0.50
   4   9   4    0.81    1.05
   4   9   4    1.76    1.06
   4   9   4    2.62    0.71
  -5  -9  -4    5.31    1.49
  -5  -9  -4    4.88    1.46
  -5  -9  -4    5.32    1.47
   5   9   4    6.03    0.92
   5   9   4    3.21    1.48
   5   9   4    8.13    1.69
   5   9   4    7.27    1.32
   6 -10  -4    0.36    0.50
   6 -10  -4    0.65    0.52
   6 -10  -4   -0.45    0.62
  -6  10   4    0.14    0.46
  -6  10   4   -0.33    0.55
   5 -10  -4    0.31    0.49
   5 -10  -4   -0.07    0.38
   5 -10  -4   -0.69    0.52
  -5  10   4   -0.44    0.57
  -5  10   4   -1.54    0.98
  -5  10   4   -0.06    0.38
  -5  10   4    0.48    0.44
   4 -10  -4   24.34    2.15
   4 -10  -4   24.43    2.00
   4 -10  -4   26.37    2.08
   4 -10  -4   24.07    2.25
  -4  10   4   23.20    1.85
  -4  10   4   28.29    2.02
   3 -10  -4   13.07    1.58
   3 -10  -4   17.17    1.39
   3 -10  -4   11.48    1.29
   3 -10  -4   14.51    1.51
  -3  10   4   13.06    1.04
  -3  10   4   13.92    2.54
  -3  10   4   13.50    1.25
   2 -10  -4  114.59    7.53
   2 -10  -4  113.59    7.67
   2 -10  -4  108.54    7.81
   2 -10  -4  114.81    7.47
  -2  10   4  112.33    7.35
  -2  10   4  127.00    8.62
   1 -10  -4    4.99    1.08
   1 -10  -4    3.80    0.74
   1 -10  -4    5.35    0.87
   1 -10  -4    5.74    1.39
  -1  10   4    5.83    1.62
  -1  10   4    4.89    1.58
  -1  10   4    4.92    1.55
  -1  10   4    5.06    0.73
   0 -10  -4   53.00    4.51
   0 -10  -4   50.47    3.63
   0 -10  -4   47.67    3.55
   0 -10  -4   44.30    4.09
   0  10   4   47.84    3.28
   0  10   4   42.39    3.67
  -1 -10  -4    8.13    1.36
  -1 -10  -4   10.11    1.49
  -1 -10  -4   11.00    1.82
  -1 -10  -4   13.56    2.29
  -1 -10  -4   11.15    1.85
   1  10   4   11.58    1.37
   1  10   4    8.44    1.43
   1  10   4   11.78    1.10
   1  10   4   11.34    0.83
  -2 -10  -4   15.89    2.86
  -2 -10  -4    8.47    1.74
  -2 -10  -4   10.79    1.88
   2  10   4    8.39    1.88
   2  10   4    9.81    0.88
   2  10   4    8.51    1.04
   2  10   4    6.87    1.49
   2  10   4   10.25    1.19
  -3 -10  -4    3.64    1.58
  -3 -10  -4    3.65    1.45
  -3 -10  -4    3.06    1.46
   3  10   4    3.07    1.46
   3  10   4    4.56    0.77
   3  10   4    2.70    1.54
   3  10   4    5.63    0.76
  -4 -10  -4   56.79    5.10
  -4 -10  -4   54.49    5.31
  -4 -10  -4   61.10    5.55
   4  10   4   69.21    5.73
   4  10   4   70.36    4.46
   4  10   4   67.89    4.35
   4  10   4   62.55    5.36
  -5 -10  -4    1.65    1.57
  -5 -10  -4    0.36    1.29
  -5 -10  -4   -0.43    1.14
   5  10   4    0.04    1.31
   5  10   4   -0.09    1.25
   5  10   4    0.37    0.56
   5  10   4    0.57    0.71
   5 -11  -4   12.87    1.63
   5 -11  -4   13.33    1.32
   5 -11  -4   12.88    1.53
   5 -11  -4   10.16    1.33
  -5  11   4   10.52    1.24
  -5  11   4   12.25    1.25
  -5  11   4    7.62    2.01
   4 -11  -4    0.34    0.58
   4 -11  -4    0.14    0.60
   4 -11  -4    0.82    0.47
   4 -11  -4    0.05    0.41
  -4  11   4   -0.13    0.39
  -4  11   4   -0.02    0.37
  -4  11   4    0.94    1.71
   3 -11  -4    0.11    0.36
   3 -11  -4    0.80    0.59
   3 -11  -4    0.70    0.66
   3 -11  -4    0.14    0.36
  -3  11   4    2.06    1.87
  -3  11   4    0.50    0.39
   2 -11  -4    3.72    1.13
   2 -11  -4    3.26    0.92
   2 -11  -4    1.79    0.48
   2 -11  -4    3.46    0.63
  -2  11   4    1.96    1.55
  -2  11   4    3.41    0.61
  -2  11   4    2.95    1.59
  -2  11   4    2.59    1.61
   1 -11  -4   27.80    2.23
   1 -11  -4   29.08    2.29
   1 -11  -4   26.26    2.81
   1 -11  -4   28.03    2.65
  -1  11   4   29.63    3.41
  -1  11   4   19.77    2.83
  -1  11   4   29.14    2.07
  -1  11   4   27.90    3.36
   0 -11  -4    0.17    0.37
   0 -11  -4    1.09    1.11
   0 -11  -4   -0.40    1.09
   0 -11  -4    0.44    0.47
   0  11   4    0.40    0.33
   0  11   4    0.36    0.74
  -1 -11  -4   16.48    1.80
  -1 -11  -4   13.99    2.10
  -1 -11  -4   14.91    1.78
  -1 -11  -4   17.95    2.41
  -1 -11  -4   13.56    2.26
   1  11   4   16.87    1.38
   1  11   4   17.41    1.62
  -2 -11  -4   12.23    1.97
  -2 -11  -4    6.65    1.69
   2  11   4    5.32    1.32
   2  11   4    8.58    1.14
   2  11   4    7.97    0.73
   2  11   4    8.12    0.92
   2  11   4    6.68    1.42
  -3 -11  -4   -0.22    1.29
  -3 -11  -4   -0.91    1.16
  -3 -11  -4    1.89    1.39
   3  11   4    0.19    0.34
   3  11   4   -0.38    1.19
   3  11   4    0.77    1.20
   3  11   4   -0.31    0.43
   3  11   4    0.08    0.44
  -4 -11  -4    4.19    1.55
  -4 -11  -4    7.49    2.12
  -4 -11  -4    0.98    1.32
   4  11   4    6.09    0.80
   4  11   4    6.05    0.86
   4  11   4    3.49    1.83
   4  11   4    1.43    1.59
   4  11   4    4.33    0.81
   4 -12  -4   15.35    2.14
   4 -12  -4   13.00    1.71
   4 -12  -4   11.65    1.33
   4 -12  -4   12.87    1.65
  -4  12   4   13.17    1.28
  -4  12   4   17.47    3.22
   3 -12  -4   15.85    1.46
   3 -12  -4   16.64    2.01
   3 -12  -4   17.92    1.79
   3 -12  -4   15.38    1.53
  -3  12   4   14.41    1.37
   2 -12  -4   27.96    2.66
   2 -12  -4   27.40    2.08
   2 -12  -4   25.22    2.10
   2 -12  -4   23.17    2.34
  -2  12   4   24.11    3.81
  -2  12   4   22.88    1.88
  -2  12   4   25.02    3.33
  -2  12   4   23.95    3.75
   1 -12  -4    0.22    1.12
   1 -12  -4    0.56    0.45
   1 -12  -4    1.12    0.52
   1 -12  -4    1.06    0.92
  -1  12   4    1.15    1.66
  -1  12   4    0.67    0.37
  -1  12   4   -0.34    1.03
  -1  12   4    1.45    1.66
   0 -12  -4    0.79    1.10
   0 -12  -4    0.39    0.50
   0 -12  -4    0.17    0.50
   0 -12  -4   -1.86    1.27
   0  12   4    0.51    0.33
   0  12   4    0.27    0.70
  -1 -12  -4   -0.33    0.58
  -1 -12  -4    0.64    1.07
  -1 -12  -4    0.73    0.56
  -1 -12  -4    0.35    1.46
   1  12   4    0.63    0.35
   1  12   4    0.27    0.98
  -2 -12  -4   15.10    2.23
  -2 -12  -4   12.32    2.23
  -2 -12  -4   13.19    2.41
  -2 -12  -4   15.83    1.98
  -2 -12  -4   14.84    1.92
   2  12   4   14.85    1.33
   2  12   4   13.18    1.89
   2  12   4   14.58    1.23
  -3 -12  -4    1.45    1.38
  -3 -12  -4    0.15    1.17
  -3 -12  -4    1.37    1.43
   3  12   4    0.29    1.16
   3  12   4    0.29    0.37
   3  12   4   -1.07    1.01
   3  12   4    0.20    0.39
   3  12   4    0.83    0.43
   3 -13  -4    6.51    1.05
   3 -13  -4    8.19    1.40
   3 -13  -4    6.26    0.92
   3 -13  -4    5.56    1.44
  -3  13   4    6.88    0.90
  -3  13   4    3.96    2.38
  -3  13   4    5.29    2.50
   2 -13  -4   -0.15    1.02
   2 -13  -4   -0.35    0.42
   2 -13  -4    0.27    0.50
   2 -13  -4    1.32    0.94
  -2  13   4   -0.05    0.35
  -2  13   4   -1.71    1.88
  -2  13   4   -0.24    1.87
  -2  13   4    1.86    1.47
   1 -13  -4    3.27    0.69
   1 -13  -4    4.85    1.47
   1 -13  -4    4.35    0.91
   1 -13  -4    1.65    1.30
  -1  13   4    3.10    1.06
  -1  13   4    3.15    1.79
  -1  13   4    3.91    0.61
   0 -13  -4   -0.92    1.51
   0 -13  -4   -1.52    1.49
   0 -13  -4    0.22    0.48
   0 -13  -4    0.13    0.51
   0  13   4   -0.03    0.32
  -1 -13  -4   23.54    2.75
  -1 -13  -4   26.97    2.33
  -1 -13  -4   22.60    3.01
   1  13   4   23.99    1.75
   1  13   4   23.83    1.87
  -2 -13  -4    8.89    1.42
  -2 -13  -4   10.10    1.86
  -2 -13  -4    7.59    2.09
  -2 -13  -4   10.08    2.29
   2  13   4    8.16    0.92
   2  13   4   10.14    0.87
   1 -14  -4    0.77    1.62
  -2 -13   5    6.38    0.88
  -1 -13   5    5.42    0.66
  -1 -13   5    4.32    0.73
   0  13  -5    0.07    2.11
   0  13  -5    1.40    2.27
   0 -13   5    0.76    1.01
   0 -13   5    0.17    0.45
   0 -13   5    0.84    0.45
  -1  13  -5    6.09    3.14
  -1  13  -5    8.07    3.54
   1 -13   5    8.10    0.98
   1 -13   5    7.10    1.13
   1 -13   5   13.14    1.60
   1 -13   5    5.69    0.78
   1 -13   5    7.59    0.83
  -4 -12   5    8.93    1.11
  -3 -12   5    1.52    0.51
  -3 -12   5    0.74    2.53
  -2 -12   5   17.07    1.51
  -1 -12   5    0.04    0.38
  -1 -12   5   -0.67    0.26
   0  12  -5   80.97    8.07
   0  12  -5   75.28    7.84
   0 -12   5   79.13    4.93
   0 -12   5   72.79    5.18
  -1  12  -5    0.53    2.37
  -1  12  -5   -1.90    2.98
   1 -12   5    0.19    0.44
   1 -12   5    0.16    0.38
   1 -12   5   -0.16    0.51
   1 -12   5    1.05    0.89
   1 -12   5    0.30    0.42
  -2  12  -5   22.08    5.43
  -2  12  -5   15.73    4.60
   2 -12   5   24.14    2.32
   2 -12   5   23.53    1.87
   2 -12   5   23.13    2.00
   2 -12   5   25.40    2.00
  -5 -11   5    1.67    0.59
  -5 -11   5    1.63    0.58
  -4 -11   5    7.75    3.43
  -4 -11   5    5.69    0.94
  -3 -11   5    4.08    0.77
  -3 -11   5   -0.06    2.20
  -2 -11   5    4.53    0.77
  -2 -11   5    4.75    3.39
  -2 -11   5    5.00    3.19
   1  11  -5    6.87    2.56
  -1 -11   5    7.17    1.03
  -1 -11   5    7.07    0.64
   0  11  -5    0.11    2.10
   0  11  -5   -1.58    1.89
   0 -11   5    0.72    0.33
   0 -11   5   -0.82    0.42
  -1  11  -5   -0.15    1.77
  -1  11  -5   -0.84    2.12
   1 -11   5   -0.25    0.42
   1 -11   5   -0.13    0.40
   1 -11   5    0.34    0.49
   1 -11   5   -0.34    0.84
  -2  11  -5   12.00    4.70
  -2  11  -5   15.47    4.34
   2 -11   5   15.32    1.37
   2 -11   5   16.07    1.47
   2 -11   5   14.81    1.91
   2 -11   5   14.68    1.46
  -3  11  -5    1.54    2.19
  -3  11  -5    0.92    1.86
  -3  11  -5    1.15    0.70
   3 -11   5    1.53    0.87
   3 -11   5    1.32    0.61
  -6 -10   5   14.82    1.57
  -5 -10   5   11.96    1.29
  -5 -10   5   10.80    1.01
  -5 -10   5   13.29    4.91
  -4 -10   5    5.90    1.13
  -3 -10   5   20.53    4.15
  -3 -10   5   17.82    1.59
  -3 -10   5   16.36    3.96
  -2 -10   5    3.55    2.18
  -2 -10   5    7.68    2.92
  -2 -10   5    3.85    0.73
   1  10  -5    1.84    1.52
  -1 -10   5    3.62    0.45
  -1 -10   5    2.81    0.73
   0  10  -5   23.10    4.22
   0  10  -5   19.44    3.99
   0 -10   5   22.04    1.62
  -1  10  -5   -2.56    2.08
  -1  10  -5    0.91    2.29
  -1  10  -5    0.20    0.33
   1 -10   5    0.25    0.37
   1 -10   5    0.94    0.45
   1 -10   5    0.68    0.48
   1 -10   5    0.50    0.75
  -2  10  -5   11.00    1.18
  -2  10  -5    8.97    3.11
  -2  10  -5    7.42    2.94
  -2  10  -5   13.81    1.26
   2 -10   5   13.15    1.21
   2 -10   5   14.81    1.81
   2 -10   5   13.17    1.31
   2 -10   5   12.49    1.31
  -3  10  -5    4.93    0.95
  -3  10  -5    4.36    4.04
  -3  10  -5    6.05    2.55
   3 -10   5    5.71    1.01
   3 -10   5    6.17    0.91
   3 -10   5    5.72    0.99
   3 -10   5    5.67    1.24
  -4  10  -5    0.87    1.51
  -4  10  -5    0.47    1.68
   4 -10   5    0.39    0.52
   4 -10   5   -0.86    0.88
   4 -10   5    0.01    0.50
  -6  -9   5    3.35    5.48
  -6  -9   5    5.67    0.94
  -6  -9   5    6.54    0.79
  -5  -9   5    0.53    0.40
  -5  -9   5    3.47    3.50
  -5  -9   5    0.81    0.35
  -4  -9   5   14.20    1.42
  -4  -9   5   16.10    4.69
  -4  -9   5   14.46    4.51
  -4  -9   5   15.11    1.08
  -3  -9   5   86.97    8.68
  -3  -9   5   92.74   10.01
  -3  -9   5   75.43    5.41
  -2  -9   5    5.00    2.30
  -2  -9   5    6.38    0.88
  -2  -9   5    7.32    2.64
   1   9  -5   60.84    6.74
  -1  -9   5   66.49    4.61
  -1  -9   5   63.85    6.59
  -1  -9   5   67.39    6.82
   0   9  -5   -0.28    1.75
   0   9  -5    0.71    2.45
   0  -9   5    0.34    0.32
   0  -9   5   -0.12    0.29
   0  -9   5   -0.33    0.34
  -1   9  -5    4.95    0.65
  -1   9  -5    6.37    3.01
  -1   9  -5    3.42    2.20
  -1   9  -5    5.38    0.62
   1  -9   5    4.34    0.72
   1  -9   5    4.97    0.82
   1  -9   5    5.11    0.76
  -2   9  -5   12.93    1.22
  -2   9  -5    8.19    2.66
  -2   9  -5   10.13    2.88
   2  -9   5   15.41    1.86
   2  -9   5   13.28    1.30
   2  -9   5   10.33    1.13
   2  -9   5   10.25    1.39
  -3   9  -5   33.99    4.85
  -3   9  -5   37.68    2.99
  -3   9  -5   38.49    5.00
   3  -9   5   46.33    3.55
   3  -9   5   43.34    3.12
   3  -9   5   41.13    3.01
   3  -9   5   43.63    3.13
  -4   9  -5    8.35    2.42
  -4   9  -5    6.29    1.14
  -4   9  -5    8.61    2.50
   4  -9   5   11.66    1.48
   4  -9   5   13.54    2.39
   4  -9   5   13.34    1.27
   4  -9   5    9.54    1.37
  -5   9  -5    3.92    1.06
  -5   9  -5    3.15    2.34
   5  -9   5    6.49    1.01
   5  -9   5    4.62    1.01
   7   8  -5   -0.66    1.20
  -7  -8   5    0.66    0.33
  -7  -8   5    1.03    0.53
  -7  -8   5    0.68    0.32
  -7  -8   5    0.09    0.54
   6   8  -5    1.57    0.66
   6   8  -5    1.50    0.32
  -6  -8   5    1.12    0.56
  -6  -8   5    1.85    0.48
  -6  -8   5    2.17    3.57
  -6  -8   5    1.03    0.29
  -6  -8   5    1.45    0.32
  -5  -8   5    7.16    1.09
  -5  -8   5    5.02    3.69
  -5  -8   5    3.56    3.23
  -5  -8   5    6.77    0.72
  -4  -8   5   -0.40    2.92
  -4  -8   5   -0.16    0.34
  -4  -8   5    0.62    0.24
  -4  -8   5   -0.44    2.62
  -3  -8   5   13.08    3.83
  -3  -8   5   12.59    3.63
  -3  -8   5   14.32    1.37
  -2  -8   5    9.81    2.76
  -2  -8   5    9.64    2.87
  -2  -8   5   10.43    1.14
   1   8  -5   -0.13    1.34
  -1  -8   5    0.16    1.47
  -1  -8   5    0.45    0.37
  -1  -8   5    0.40    0.38
  -1  -8   5    1.21    1.41
   0   8  -5   29.93    4.47
   0   8  -5   25.03    1.57
   0   8  -5   24.34    1.54
   0   8  -5   32.03    4.41
   0  -8   5   22.93    1.80
   0  -8   5   19.14    1.75
   0  -8   5   23.00    1.87
  -1   8  -5    0.58    0.31
  -1   8  -5   -0.50    1.45
  -1   8  -5   -0.59    1.30
  -1   8  -5   -0.02    0.25
   1  -8   5    0.48    0.36
   1  -8   5    1.59    0.57
   1  -8   5   -0.14    0.36
  -2   8  -5   -0.47    1.43
  -2   8  -5    0.77    1.56
  -2   8  -5    1.31    0.53
   2  -8   5    2.47    0.62
   2  -8   5    2.26    0.88
   2  -8   5    1.92    0.49
   2  -8   5    2.98    0.66
  -3   8  -5    0.07    1.43
  -3   8  -5   -0.01    0.64
  -3   8  -5    0.18    0.47
  -3   8  -5   -0.84    1.33
   3  -8   5    0.15    0.76
   3  -8   5    0.73    0.44
   3  -8   5    0.28    0.39
   3  -8   5    0.66    0.51
  -4   8  -5    6.97    2.05
  -4   8  -5    4.81    1.84
  -4   8  -5    6.16    1.14
   4  -8   5    8.78    1.25
   4  -8   5   10.25    1.37
   4  -8   5    9.64    1.19
   4  -8   5    9.88    1.71
  -5   8  -5   -0.73    1.33
  -5   8  -5    0.44    1.50
  -5   8  -5    0.71    0.71
   5  -8   5    1.10    1.08
   7   7  -5    3.11    1.20
  -7  -7   5    3.97    0.57
  -7  -7   5    2.52    0.48
  -7  -7   5    3.78    0.66
  -7  -7   5    4.14    0.98
   6   7  -5    5.48    1.24
   6   7  -5    2.95    1.21
   6   7  -5    6.14    0.61
  -6  -7   5    4.36    0.75
  -6  -7   5    2.73    3.23
  -6  -7   5    4.48    0.56
  -6  -7   5    6.60    0.77
  -6  -7   5    6.66    0.62
   5   7  -5   59.62    3.61
   5   7  -5   60.59    3.66
  -5  -7   5   58.96    4.08
  -5  -7   5   45.09    7.33
  -5  -7   5   56.91    3.73
  -5  -7   5   55.21    3.62
  -5  -7   5   44.78    7.01
  -4  -7   5   -0.47    2.23
  -4  -7   5    2.19    0.53
  -4  -7   5    3.86    0.51
  -4  -7   5    1.33    2.73
  -3  -7   5   72.99    8.25
  -3  -7   5   71.35    8.39
  -3  -7   5   70.07    4.85
  -2  -7   5   28.73    4.63
  -2  -7   5   22.18    1.98
  -2  -7   5   25.71    4.42
   1   7  -5    7.27    2.54
  -1  -7   5   12.52    2.77
  -1  -7   5    8.23    1.00
  -1  -7   5   10.36    2.94
   0   7  -5    0.86    1.72
   0   7  -5    2.41    0.34
   0   7  -5    3.03    0.41
   0   7  -5    0.25    1.54
   0  -7   5    1.69    0.50
   0  -7   5    2.57    0.57
   0  -7   5    2.22    0.60
  -1   7  -5   17.22    4.29
  -1   7  -5   27.18    1.86
  -1   7  -5   21.96    1.75
  -1   7  -5   19.14    3.80
   1  -7   5   26.16    1.95
   1  -7   5   23.79    1.93
   1  -7   5   25.82    2.06
  -2   7  -5   51.04    3.58
  -2   7  -5   41.81    5.25
  -2   7  -5   46.01    5.34
  -2   7  -5   52.48    3.52
   2  -7   5   50.59    3.59
   2  -7   5   52.73    3.65
   2  -7   5   57.32    4.37
   2  -7   5   50.44    3.54
  -3   7  -5   70.86    6.38
  -3   7  -5   60.93    6.28
  -3   7  -5   60.30    4.68
   3  -7   5   72.71    4.79
   3  -7   5   71.19    4.70
   3  -7   5   75.96    5.31
   3  -7   5   69.42    4.79
  -4   7  -5    6.24    1.76
  -4   7  -5    4.16    1.66
  -4   7  -5    8.52    1.35
  -4   7  -5    6.30    1.07
  -4   7  -5    4.86    0.92
   4  -7   5    5.34    1.03
   4  -7   5    5.47    1.02
   4  -7   5    7.56    1.02
   4  -7   5    6.77    1.20
  -5   7  -5   27.48    3.64
   5  -7   5   33.63    2.96
   5  -7   5   30.54    2.52
   5  -7   5   30.37    2.64
   7   6  -5   -0.35    0.80
   7   6  -5   -0.33    0.79
  -7  -6   5    0.18    0.30
  -7  -6   5   -0.45    0.40
  -7  -6   5   -0.14    0.30
  -7  -6   5    0.56    0.57
   6   6  -5   68.26    4.97
   6   6  -5   68.81    4.91
  -6  -6   5   73.82    4.69
  -6  -6   5   77.87    5.04
  -6  -6   5   75.41    4.60
  -6  -6   5   68.82    4.58
  -6  -6   5   56.00    7.77
   5   6  -5    2.13    0.40
   5   6  -5    2.40    0.38
   5   6  -5    2.75    0.69
   5   6  -5    3.38    0.67
  -5  -6   5    2.13    0.42
  -5  -6   5    1.76    0.33
  -5  -6   5    2.80    0.40
  -5  -6   5    1.58    0.58
  -5  -6   5    2.83    2.09
   4   6  -5   28.55    2.27
   4   6  -5   30.22    2.19
   4   6  -5   33.20    2.09
   4   6  -5   33.57    2.15
  -4  -6   5   24.44    4.86
  -4  -6   5   33.23    2.13
  -4  -6   5   31.03    2.44
  -4  -6   5   22.49    4.37
  -3  -6   5    3.46    2.45
  -3  -6   5    6.49    1.02
  -3  -6   5    0.38    2.24
  -2  -6   5   86.03    8.53
  -2  -6   5   87.50    8.37
  -2  -6   5   85.93    5.89
   1   6  -5    0.14    0.10
   1   6  -5   -0.03    0.09
   1   6  -5   -0.04    1.11
  -1  -6   5   -0.16    0.21
  -1  -6   5    1.37    1.16
  -1  -6   5    0.06    0.44
  -1  -6   5   -0.02    1.11
   0   6  -5  398.48   24.51
   0   6  -5  397.59   24.47
   0   6  -5  436.67   27.95
   0   6  -5  426.81   27.65
   0  -6   5  343.76   24.78
   0  -6   5  450.79   27.08
   0  -6   5  339.86   24.66
   0  -6   5  432.75   26.85
  -1   6  -5    1.07    0.48
  -1   6  -5    0.50    0.32
  -1   6  -5    1.19    1.23
  -1   6  -5    0.85    1.38
   1  -6   5    0.58    0.39
   1  -6   5    0.79    0.50
   1  -6   5    0.55    0.41
  -2   6  -5   84.28    5.35
  -2   6  -5   74.07    6.97
  -2   6  -5   78.84    5.24
  -2   6  -5   78.73    5.31
  -2   6  -5   75.91    7.09
   2  -6   5   74.59    5.24
   2  -6   5   77.38    5.34
   2  -6   5   83.58    6.06
  -3   6  -5    3.79    0.81
  -3   6  -5    5.49    1.63
  -3   6  -5    4.11    1.51
  -3   6  -5    5.16    0.94
   3  -6   5    3.38    0.87
   3  -6   5    4.56    0.79
   3  -6   5    4.88    0.87
   3  -6   5    5.02    0.81
  -4   6  -5   20.24    2.01
  -4   6  -5   18.01    2.78
  -4   6  -5   14.71    1.66
  -4   6  -5   19.26    1.91
  -4   6  -5   18.11    2.75
   4  -6   5   15.91    1.65
   4  -6   5   19.42    1.84
   4  -6   5   21.65    1.85
   4  -6   5   17.41    2.10
  -5   6  -5    3.50    1.46
  -5   6  -5    5.89    1.74
  -5   6  -5    2.54    0.73
   5  -6   5    3.36    1.00
   5  -6   5    2.54    0.73
   5  -6   5    3.14    1.09
   5  -6   5    3.05    0.79
  -6   6  -5   59.68    5.45
  -6   6  -5   58.89    5.46
   6  -6   5   58.67    4.46
   8   5  -5   -0.04    0.98
   8   5  -5    0.71    0.91
  -8  -5   5    0.34    0.45
  -8  -5   5    0.19    0.59
  -8  -5   5    0.59    0.40
  -8  -5   5   -0.33    0.49
   7   5  -5   10.28    1.48
   7   5  -5   11.52    1.41
  -7  -5   5   10.16    1.31
  -7  -5   5   11.34    1.06
  -7  -5   5   13.36    1.21
  -7  -5   5   11.06    1.02
   6   5  -5    0.09    0.47
   6   5  -5   -0.03    0.35
   6   5  -5   -0.06    0.45
  -6  -5   5    0.23    0.26
  -6  -5   5    0.45    0.25
  -6  -5   5   -0.33    0.35
  -6  -5   5   -0.37    0.28
   5   5  -5   20.33    1.63
   5   5  -5   20.59    1.47
   5   5  -5   19.96    1.67
  -5  -5   5   20.59    2.08
  -5  -5   5   23.32    1.59
  -5  -5   5   20.14    1.48
  -5  -5   5   16.39    3.61
  -5  -5   5   20.91    1.47
   4   5  -5    8.36    0.76
   4   5  -5    8.83    0.82
   4   5  -5    9.92    0.81
  -4  -5   5    8.90    1.03
  -4  -5   5    8.40    0.72
  -4  -5   5    5.95    2.30
  -4  -5   5    6.76    2.42
  -4  -5   5    9.56    0.81
   3   5  -5    4.74    0.44
   3   5  -5    6.79    0.87
   3   5  -5    4.27    0.46
  -3  -5   5    6.69    2.65
  -3  -5   5    3.53    0.65
  -3  -5   5    3.37    2.16
   2   5  -5   24.57    1.57
   2   5  -5   25.02    1.59
  -2  -5   5   26.39    5.31
  -2  -5   5   23.22    2.09
  -2  -5   5   21.88    4.52
   1   5  -5    3.70    1.50
   1   5  -5    3.49    0.44
   1   5  -5    3.55    0.52
   1   5  -5    3.65    0.46
   1   5  -5    3.61    0.59
  -1  -5   5    2.47    0.52
  -1  -5   5    4.93    1.84
  -1  -5   5    2.68    0.63
  -1  -5   5    3.01    0.70
  -1  -5   5    4.78    2.22
   0   5  -5    2.74    0.55
   0   5  -5    2.54    1.81
   0   5  -5    1.53    1.54
   0  -5   5    4.15    1.81
   0  -5   5    1.78    1.28
   0  -5   5    2.94    0.63
   0  -5   5    1.50    0.57
   0  -5   5    3.54    0.79
  -1   5  -5    0.87    1.26
  -1   5  -5    3.98    0.76
  -1   5  -5    1.62    1.41
  -1   5  -5    4.48    0.73
   1  -5   5    4.96    0.90
   1  -5   5    4.76    0.94
   1  -5   5    4.72    0.77
  -2   5  -5   48.11    5.14
  -2   5  -5   52.96    3.68
  -2   5  -5   45.35    4.94
  -2   5  -5   56.98    3.82
   2  -5   5   50.99    3.64
   2  -5   5   55.38    4.42
   2  -5   5   50.60    3.72
   2  -5   5   48.78    3.74
  -3   5  -5    6.53    0.99
  -3   5  -5    6.80    1.06
  -3   5  -5    6.77    1.15
  -3   5  -5    4.81    1.48
  -3   5  -5    4.94    1.45
   3  -5   5    6.66    0.98
   3  -5   5    5.28    1.03
   3  -5   5    8.01    1.15
   3  -5   5    7.52    1.43
  -4   5  -5   15.87    2.44
  -4   5  -5   15.62    2.43
  -4   5  -5   16.49    1.86
  -4   5  -5   16.36    1.59
  -4   5  -5   18.64    1.79
   4  -5   5   16.22    1.68
   4  -5   5   16.05    1.99
   4  -5   5   12.87    1.60
   4  -5   5   15.98    1.56
  -5   5  -5    9.05    1.86
  -5   5  -5    8.72    1.90
  -5   5  -5    9.36    1.25
   5  -5   5   10.28    1.55
   5  -5   5   11.62    1.47
   5  -5   5   10.61    1.44
   5  -5   5    9.45    1.30
  -6   5  -5    0.73    0.71
  -6   5  -5   -0.01    1.19
  -6   5  -5    0.61    1.14
   6  -5   5    1.11    0.68
   6  -5   5    0.15    0.80
   8   4  -5    7.50    1.19
   8   4  -5    6.78    1.25
  -8  -4   5    4.26    0.76
  -8  -4   5    4.44    1.00
  -8  -4   5    5.60    0.88
  -8  -4   5    5.71    0.78
   7   4  -5    5.05    0.96
   7   4  -5    3.87    0.82
  -7  -4   5    4.23    0.62
  -7  -4   5    4.18    0.68
  -7  -4   5    4.04    0.71
  -7  -4   5    4.81    0.99
   6   4  -5   14.96    1.42
   6   4  -5   14.72    1.40
  -6  -4   5   13.15    1.22
  -6  -4   5   15.55    1.49
  -6  -4   5   13.39    1.17
  -6  -4   5   13.41    1.13
   5   4  -5   20.91    1.65
   5   4  -5   20.56    1.59
  -5  -4   5   19.45    1.50
  -5  -4   5   19.56    1.79
  -5  -4   5   19.93    1.48
  -5  -4   5   23.26    1.61
   4   4  -5    5.96    0.72
   4   4  -5    8.12    0.70
   4   4  -5    7.17    0.72
   4   4  -5    8.28    0.73
  -4  -4   5    8.13    0.96
  -4  -4   5    6.59    2.37
  -4  -4   5    7.92    0.75
  -4  -4   5    7.07    0.68
  -4  -4   5    7.23    0.67
   3   4  -5   49.49    3.10
   3   4  -5   51.18    3.28
  -3  -4   5   45.01    6.37
  -3  -4   5   49.82    3.51
  -3  -4   5   33.91    5.16
   2   4  -5    1.58    0.44
   2   4  -5    1.66    0.27
   2   4  -5    1.44    0.52
  -2  -4   5    1.13    0.42
  -2  -4   5    1.46    1.77
  -2  -4   5    1.93    1.72
   1   4  -5    0.71    0.52
   1   4  -5    1.76    1.30
   1   4  -5    2.86    0.48
   1   4  -5    0.84    0.53
  -1  -4   5    1.65    0.65
  -1  -4   5    1.51    0.54
  -1  -4   5    0.94    0.56
  -1  -4   5    1.62    1.58
  -1  -4   5    2.07    1.44
   0   4  -5   28.06    3.97
   0   4  -5   23.50    1.98
   0   4  -5   24.43    2.09
   0   4  -5   28.23    3.86
   0  -4   5   30.36    3.54
   0  -4   5   20.78    1.97
   0  -4   5   21.19    2.10
   0  -4   5   26.16    2.15
   0  -4   5   30.00    3.43
  -1   4  -5   -0.85    1.13
  -1   4  -5    0.26    0.41
  -1   4  -5   -0.63    1.00
  -1   4  -5    0.32    0.33
  -1   4  -5   -0.13    0.42
   1  -4   5    0.28    0.44
   1  -4   5   -0.01    0.40
   1  -4   5    0.01    0.32
  -2   4  -5    7.43    1.13
  -2   4  -5    9.18    2.24
  -2   4  -5    5.50    1.04
  -2   4  -5    9.70    2.22
  -2   4  -5   10.52    1.29
   2  -4   5    8.17    1.02
   2  -4   5    9.99    1.32
   2  -4   5   13.28    2.20
   2  -4   5    8.96    1.14
  -3   4  -5   10.06    2.07
  -3   4  -5    6.58    1.09
  -3   4  -5    5.91    0.96
  -3   4  -5    5.83    1.67
  -3   4  -5    8.33    1.40
   3  -4   5    9.41    1.26
   3  -4   5    6.55    0.99
   3  -4   5    9.46    1.71
   3  -4   5    3.88    0.80
  -4   4  -5    1.99    0.78
  -4   4  -5    2.02    0.67
  -4   4  -5    1.93    1.20
  -4   4  -5    2.17    1.01
   4  -4   5    2.82    1.03
   4  -4   5    2.38    0.71
   4  -4   5    1.28    0.63
   4  -4   5    1.45    0.55
  -5   4  -5    3.99    1.10
  -5   4  -5    6.09    1.47
  -5   4  -5    2.54    0.93
  -5   4  -5    4.10    0.83
  -5   4  -5    5.63    1.49
   5  -4   5    6.61    1.02
   5  -4   5    5.05    1.08
   5  -4   5    6.55    1.24
   5  -4   5    6.02    1.10
  -6   4  -5    1.54    0.77
   6  -4   5    1.63    0.73
   6  -4   5    1.43    0.84
   8   3  -5    3.82    0.92
   8   3  -5    5.42    1.04
  -8  -3   5    3.45    0.84
  -8  -3   5    4.34    0.80
  -8  -3   5    5.12    0.85
  -8  -3   5    4.39    0.69
   7   3  -5   43.06    3.28
   7   3  -5   39.53    3.27
  -7  -3   5   46.10    3.09
  -7  -3   5   43.95    3.04
  -7  -3   5   46.19    3.16
  -7  -3   5   45.81    3.42
   6   3  -5   20.34    1.77
   6   3  -5   19.40    1.69
   6   3  -5   15.74    1.53
  -6  -3   5   18.15    1.48
  -6  -3   5   20.15    1.56
  -6  -3   5   18.99    1.46
  -6  -3   5   19.29    1.74
   5   3  -5    9.01    0.98
   5   3  -5    7.04    0.81
   5   3  -5    5.93    0.83
  -5  -3   5    7.84    0.97
  -5  -3   5    8.27    0.74
  -5  -3   5    7.30    0.79
  -5  -3   5    7.59    0.75
   4   3  -5   34.45    2.34
   4   3  -5   36.59    2.42
   4   3  -5   35.23    2.37
  -4  -3   5   34.64    2.65
  -4  -3   5   33.96    2.32
  -4  -3   5   34.26    2.40
  -4  -3   5   32.19    2.33
   3   3  -5  210.87   13.35
   3   3  -5  221.36   13.34
   3   3  -5  218.57   13.53
   3   3  -5  220.32   13.23
  -3  -3   5  214.89   13.58
  -3  -3   5  188.36   15.27
   2   3  -5   17.76    1.66
   2   3  -5   15.64    1.25
   2   3  -5   16.75    1.39
   2   3  -5   19.67    1.59
  -2  -3   5   15.87    1.63
  -2  -3   5   14.95    3.49
  -2  -3   5   13.05    3.88
   1   3  -5  206.05   12.77
   1   3  -5  203.16   12.62
  -1  -3   5  177.57   12.82
  -1  -3   5  227.55   14.99
  -1  -3   5  182.95   12.58
  -1  -3   5  229.74   15.18
  -1  -3   5  178.89   12.69
   0   3  -5    0.30    0.46
   0   3  -5    1.08    1.31
   0   3  -5    0.42    0.53
   0   3  -5    1.05    1.18
   0  -3   5    1.05    0.52
   0  -3   5    0.64    0.47
   0  -3   5    1.57    1.14
   0  -3   5    0.02    0.85
   0  -3   5   -0.12    0.37
  -1   3  -5   16.99    1.69
  -1   3  -5   12.20    2.91
  -1   3  -5   14.58    2.79
  -1   3  -5   17.43    1.83
   1  -3   5   18.30    1.67
   1  -3   5   19.23    1.86
   1  -3   5   17.02    1.71
  -2   3  -5   23.70    2.23
  -2   3  -5   27.01    2.40
  -2   3  -5   20.01    2.93
  -2   3  -5   27.70    3.25
  -2   3  -5   24.02    2.24
   2  -3   5   27.65    2.18
   2  -3   5   29.21    2.84
   2  -3   5   27.20    2.23
   2  -3   5   24.06    2.25
  -3   3  -5  127.37    9.68
  -3   3  -5  133.24    8.84
  -3   3  -5  137.67    9.14
  -3   3  -5  134.99    9.86
  -3   3  -5  143.23    9.06
   3  -3   5  160.88    9.58
   3  -3   5  130.29    8.89
   3  -3   5  128.98    8.85
   3  -3   5  129.56    8.95
  -4   3  -5   24.22    2.14
  -4   3  -5   27.70    2.97
  -4   3  -5   30.24    2.51
  -4   3  -5   28.48    2.96
   4  -3   5   22.61    2.21
   4  -3   5   26.16    2.33
   4  -3   5   29.85    2.70
   4  -3   5   23.31    2.16
  -5   3  -5   11.77    1.73
  -5   3  -5   14.28    1.52
  -5   3  -5   10.86    1.63
   5  -3   5   17.37    1.62
   5  -3   5   12.65    1.61
   5  -3   5   15.36    1.91
   5  -3   5   14.75    1.67
  -6   3  -5    4.78    1.04
  -6   3  -5    6.44    1.32
   6  -3   5    8.16    1.40
   6  -3   5    6.66    1.17
   8   2  -5    1.82    0.74
   8   2  -5    2.70    0.83
  -8  -2   5    1.54    0.57
  -8  -2   5    3.04    0.69
  -8  -2   5    3.18    0.63
   7   2  -5    2.79    0.66
   7   2  -5    3.38    0.80
   7   2  -5    2.81    0.70
  -7  -2   5    4.34    0.72
  -7  -2   5    2.27    0.62
  -7  -2   5    3.70    0.60
  -7  -2   5    3.01    0.58
   6   2  -5    1.82    0.50
   6   2  -5    2.30    0.60
  -6  -2   5    2.04    0.45
  -6  -2   5    2.63    0.52
  -6  -2   5    2.35    0.54
  -6  -2   5    2.01    0.60
   5   2  -5   21.67    1.73
   5   2  -5   22.38    1.83
  -5  -2   5   21.63    1.64
  -5  -2   5   21.21    1.87
  -5  -2   5   21.36    1.61
  -5  -2   5   22.12    1.69
   4   2  -5    1.59    0.36
   4   2  -5    1.73    0.37
   4   2  -5    1.40    0.36
  -4  -2   5    1.45    0.32
  -4  -2   5    1.68    0.40
  -4  -2   5    1.61    0.36
  -4  -2   5    1.23    0.40
   3   2  -5   31.36    2.17
   3   2  -5   31.12    2.22
   3   2  -5   31.83    2.13
   3   2  -5   29.20    2.15
  -3  -2   5   29.61    2.41
   2   2  -5    2.17    0.43
   2   2  -5    2.21    0.39
   2   2  -5    2.33    0.59
   2   2  -5    1.25    0.44
  -2  -2   5    0.58    1.15
  -2  -2   5    2.08    0.68
  -2  -2   5    1.61    1.26
   1   2  -5    6.34    1.12
   1   2  -5    7.72    1.09
  -1  -2   5    7.61    2.24
  -1  -2   5    6.13    1.12
  -1  -2   5    8.27    2.37
   0   2  -5    2.34    1.29
   0   2  -5    1.78    1.28
   0   2  -5    1.83    0.79
   0   2  -5    1.98    0.75
   0  -2   5    1.35    0.94
   0  -2   5    2.10    0.68
   0  -2   5    3.53    0.81
   0  -2   5    1.26    0.52
   0  -2   5    2.32    1.24
  -1   2  -5    1.37    1.36
  -1   2  -5    2.03    0.74
  -1   2  -5    2.43    0.74
  -1   2  -5    0.69    1.09
  -1   2  -5    1.48    0.69
   1  -2   5    1.50    0.59
   1  -2   5    1.88    0.68
   1  -2   5    0.86    0.52
  -2   2  -5    3.49    0.78
  -2   2  -5    1.72    0.78
  -2   2  -5    4.42    1.12
  -2   2  -5    1.91    1.06
  -2   2  -5    2.61    1.08
   2  -2   5    4.19    0.84
   2  -2   5    3.40    0.84
   2  -2   5    7.42    1.56
   2  -2   5    4.46    0.87
  -3   2  -5    5.44    1.11
  -3   2  -5    2.94    0.98
  -3   2  -5    3.89    0.93
  -3   2  -5    3.22    1.08
  -3   2  -5    2.47    0.67
   3  -2   5    4.32    0.85
   3  -2   5    4.72    0.90
   3  -2   5    2.71    0.79
   3  -2   5    3.23    0.83
  -4   2  -5    3.56    1.00
  -4   2  -5    3.88    1.13
  -4   2  -5    4.36    1.14
  -4   2  -5    4.82    0.86
   4  -2   5    4.07    0.87
   4  -2   5    5.10    1.10
   4  -2   5    3.44    0.78
   4  -2   5    3.67    1.04
  -5   2  -5    3.35    1.08
  -5   2  -5    2.05    1.02
  -5   2  -5    2.61    0.74
   5  -2   5    2.76    0.79
   5  -2   5    3.10    0.81
   5  -2   5    3.80    0.91
   5  -2   5    2.70    0.88
  -6   2  -5    0.75    0.67
  -6   2  -5    0.39    1.01
   6  -2   5    1.37    0.71
   6  -2   5    0.50    0.67
   8   1  -5    1.84    0.81
   8   1  -5    0.80    0.62
  -8  -1   5    1.16    0.43
  -8  -1   5    1.46    0.54
  -8  -1   5    0.09    0.45
  -8  -1   5    1.68    0.58
   7   1  -5    8.31    1.09
   7   1  -5    6.63    0.98
   7   1  -5   10.84    1.18
  -7  -1   5    8.33    0.91
  -7  -1   5    9.72    1.03
  -7  -1   5    9.37    0.99
  -7  -1   5    5.75    0.98
   6   1  -5    4.68    0.72
   6   1  -5    6.44    0.94
  -6  -1   5    4.32    0.71
  -6  -1   5    6.67    0.87
  -6  -1   5    3.35    0.65
  -6  -1   5    4.83    0.76
   5   1  -5   67.63    4.58
   5   1  -5   69.02    4.69
   5   1  -5   69.12    4.54
  -5  -1   5   70.82    4.52
  -5  -1   5   67.34    4.55
  -5  -1   5   67.35    4.74
  -5  -1   5   67.79    4.47
   4   1  -5   11.18    0.97
   4   1  -5   10.24    0.98
   4   1  -5    9.08    0.90
  -4  -1   5   10.34    0.93
  -4  -1   5   11.15    1.01
  -4  -1   5   10.10    1.11
  -4  -1   5   11.07    0.93
   3   1  -5   56.17    3.64
   3   1  -5   53.48    3.56
   3   1  -5   52.46    3.59
  -3  -1   5   53.66    3.65
  -3  -1   5   51.09    3.79
   2   1  -5   29.85    2.20
   2   1  -5   30.67    2.23
   2   1  -5   31.04    2.33
  -2  -1   5   26.77    3.47
   1   1  -5    3.53    0.82
   1   1  -5    1.78    0.68
  -1  -1   5    1.15    0.65
  -1  -1   5    1.76    1.44
  -1  -1   5    1.80    1.34
  -1  -1   5    1.93    0.56
  -1  -1   5    1.35    0.59
   0   1  -5    1.47    1.15
   0   1  -5    1.98    0.66
   0   1  -5    0.85    0.44
   0   1  -5    1.72    0.69
   0   1  -5    2.11    1.22
   0  -1   5    0.47    0.58
   0  -1   5    1.69    1.00
   0  -1   5    2.56    1.17
   0  -1   5    1.43    0.55
   0  -1   5    2.19    0.78
  -1   1  -5   24.91    2.20
  -1   1  -5   19.20    3.08
  -1   1  -5   18.71    2.28
  -1   1  -5   14.64    2.02
  -1   1  -5   18.75    3.01
   1  -1   5   21.61    2.18
   1  -1   5   21.12    2.08
   1  -1   5   21.54    2.03
  -2   1  -5   66.48    5.70
  -2   1  -5   77.20    6.36
  -2   1  -5   66.19    5.84
  -2   1  -5   82.61    5.66
  -2   1  -5   80.62    6.48
   2  -1   5   83.24    5.89
   2  -1   5   91.29    5.85
   2  -1   5   92.43    5.79
   2  -1   5   87.36    6.22
  -3   1  -5   51.57    4.20
  -3   1  -5   53.95    3.95
  -3   1  -5   45.51    4.24
  -3   1  -5   53.61    4.48
  -3   1  -5   52.77    4.54
   3  -1   5   60.56    4.10
   3  -1   5   62.01    4.46
   3  -1   5   56.42    4.22
   3  -1   5   53.32    4.02
  -4   1  -5   13.43    1.85
  -4   1  -5   13.17    1.42
  -4   1  -5   15.67    1.92
  -4   1  -5   13.15    1.92
   4  -1   5   15.15    1.54
   4  -1   5   10.61    1.86
  -5   1  -5   31.39    2.44
  -5   1  -5   21.70    3.82
   5  -1   5   27.20    2.62
   5  -1   5   31.75    2.76
  -6   1  -5    3.31    0.86
   6  -1   5    2.74    0.93
   6  -1   5    4.70    1.26
  -7   1  -5   -0.23    1.15
   7  -1   5   -1.25    1.55
   8   0  -5   10.51    1.32
   8   0  -5   10.85    1.46
  -8   0   5   11.25    1.27
  -8   0   5   13.06    1.33
  -8   0   5   11.99    1.20
  -8   0   5   12.03    1.40
   7   0  -5   -0.09    0.37
   7   0  -5    0.00    0.40
   7   0  -5    0.28    0.45
  -7   0   5    0.10    0.34
  -7   0   5    0.40    0.36
  -7   0   5   -0.05    0.30
  -7   0   5    0.21    0.33
   6   0  -5  119.40    8.09
   6   0  -5  122.02    8.04
   6   0  -5  125.94    8.18
  -6   0   5  140.21    8.73
  -6   0   5  119.98    8.22
  -6   0   5  127.44    7.98
  -6   0   5  124.36    8.01
   5   0  -5    2.28    0.51
   5   0  -5    2.71    0.55
   5   0  -5    3.12    0.67
  -5   0   5    5.36    0.91
  -5   0   5    2.49    0.54
  -5   0   5    2.85    0.50
  -5   0   5    4.64    0.64
   4   0  -5   56.00    3.80
   4   0  -5   56.31    3.77
   4   0  -5   57.39    3.85
  -4   0   5   57.56    4.00
  -4   0   5   59.50    3.86
  -4   0   5   53.65    3.77
  -4   0   5   57.00    3.77
   3   0  -5    5.28    0.69
   3   0  -5    5.82    0.66
   3   0  -5    5.42    0.66
   3   0  -5    5.47    0.65
  -3   0   5    5.47    0.80
  -3   0   5    7.45    1.11
   2   0  -5  164.02   10.49
   2   0  -5  161.77   10.41
   2   0  -5  159.49   10.35
   2   0  -5  170.15   10.40
  -2   0   5  163.49   10.68
   1   0  -5    0.42    0.48
   1   0  -5    0.59    0.49
  -1   0   5    0.57    0.52
  -1   0   5    0.58    0.54
  -1   0   5    0.75    0.57
  -1   0   5    1.32    1.11
  -1   0   5   -0.29    0.86
   0   0  -5  682.53   43.55
   0   0  -5  638.90   44.37
   0   0  -5  697.65   43.22
   0   0  -5  679.61   43.38
   0   0   5  810.79   44.52
   0   0   5  741.61   43.50
   0   0   5  649.87   43.58
   0   0   5  638.80   43.38
   0   0   5  776.56   44.53
  -1   0  -5    1.69    0.77
  -1   0  -5   -0.07    1.04
  -1   0  -5   -0.22    0.59
  -1   0  -5   -0.81    0.50
  -1   0  -5    1.09    1.09
   1   0   5    0.79    0.68
   1   0   5   -0.17    0.44
   1   0   5    0.08    0.45
  -2   0  -5  132.12    9.96
  -2   0  -5  116.81    9.44
  -2   0  -5  135.27    9.91
   2   0   5  162.12    9.84
   2   0   5  159.32    9.57
   2   0   5  139.74   10.05
  -3   0  -5   10.94    1.58
  -3   0  -5    7.97    1.69
  -3   0  -5    7.35    1.14
  -3   0  -5    6.51    1.36
  -3   0  -5    8.57    1.62
   3   0   5    7.90    1.19
   3   0   5   11.30    1.35
   3   0   5    6.22    1.18
   3   0   5    8.07    1.24
  -4   0  -5   36.87    3.40
  -4   0  -5   36.55    3.25
  -4   0  -5   37.03    2.88
   4   0   5   35.61    3.16
   4   0   5   38.67    3.07
  -5   0  -5    5.62    0.94
  -5   0  -5    8.61    1.68
  -5   0  -5    8.51    1.55
   5   0   5    6.01    1.08
   5   0   5    6.00    1.27
   5   0   5    5.72    1.20
  -6   0  -5   78.07    5.88
   6   0   5   78.72    5.67
   6   0   5   80.05    5.87
  -7   0  -5    0.88    0.79
  -7   0  -5    1.86    1.29
   7   0   5    0.55    0.86
   7   0   5    0.56    0.77
   8  -1  -5    1.14    0.73
   8  -1  -5    1.17    0.62
  -8   1   5    0.72    0.52
  -8   1   5    1.03    0.50
  -8   1   5    1.34    0.54
  -8   1   5    1.80    0.56
   7  -1  -5    6.18    0.94
   7  -1  -5    6.83    1.03
   7  -1  -5    7.99    1.05
  -7   1   5    7.90    0.91
  -7   1   5    5.87    0.96
  -7   1   5    7.45    0.94
  -7   1   5    7.61    0.97
   6  -1  -5    5.90    0.84
   6  -1  -5    5.35    0.81
   6  -1  -5    3.05    0.59
  -6   1   5    5.72    0.99
  -6   1   5    4.62    0.69
  -6   1   5    4.31    0.70
  -6   1   5    6.04    0.86
   5  -1  -5   67.15    4.46
   5  -1  -5   60.33    4.36
   5  -1  -5   69.95    4.53
  -5   1   5   66.72    4.56
  -5   1   5   67.48    4.42
  -5   1   5   64.34    4.37
  -5   1   5   62.35    4.32
   4  -1  -5    9.66    1.02
   4  -1  -5   11.88    1.00
   4  -1  -5   10.90    1.00
  -4   1   5   10.19    0.98
  -4   1   5    8.79    0.98
  -4   1   5   11.30    1.11
  -4   1   5   10.50    0.96
   3  -1  -5   53.28    3.68
   3  -1  -5   54.03    3.62
   3  -1  -5   50.96    3.62
   3  -1  -5   54.00    3.69
  -3   1   5   50.07    3.57
  -3   1   5   56.65    3.71
  -3   1   5   55.43    3.79
   2  -1  -5   32.04    2.32
   2  -1  -5   32.12    2.41
   2  -1  -5   30.06    2.29
  -2   1   5   28.55    2.46
   1  -1  -5    1.19    0.59
   1  -1  -5    1.73    0.58
  -1   1   5    1.81    0.63
  -1   1   5    2.49    1.10
  -1   1   5    0.85    0.66
  -1   1   5    2.60    0.83
  -1   1   5    1.75    1.03
   0  -1  -5    2.07    0.69
   0  -1  -5    1.94    0.59
   0  -1  -5    1.26    0.67
   0   1   5    2.15    0.80
   0   1   5    1.85    0.98
   0   1   5    1.38    0.71
   0   1   5    2.21    0.78
   0   1   5    1.91    0.92
  -1  -1  -5   28.25    3.13
  -1  -1  -5   27.84    2.63
  -1  -1  -5   25.37    2.43
  -1  -1  -5   22.40    2.94
  -1  -1  -5   26.17    2.56
   1   1   5   27.71    2.64
   1   1   5   24.57    2.56
   1   1   5   23.47    2.32
  -2  -1  -5   76.88    6.05
  -2  -1  -5   66.27    6.68
  -2  -1  -5   72.54    5.86
  -2  -1  -5   74.54    6.09
  -2  -1  -5   79.76    5.62
   2   1   5   87.32    6.10
   2   1   5   86.60    5.71
  -3  -1  -5   55.01    3.98
  -3  -1  -5   52.62    4.27
  -3  -1  -5   50.71    4.20
  -3  -1  -5   41.70    4.14
   3   1   5   56.41    4.38
   3   1   5   57.96    4.29
   3   1   5   54.90    4.17
   3   1   5   57.69    4.06
  -4  -1  -5   11.54    2.03
  -4  -1  -5   11.58    1.83
  -4  -1  -5    8.19    1.77
   4   1   5   13.85    1.65
   4   1   5   13.31    1.74
   4   1   5   15.46    1.72
  -5  -1  -5   28.12    2.98
  -5  -1  -5   30.10    2.77
  -5  -1  -5   28.59    2.45
   5   1   5   27.01    2.76
   5   1   5   33.42    2.92
   5   1   5   27.99    2.62
   5   1   5   29.61    2.55
  -6  -1  -5    4.14    1.28
  -6  -1  -5    3.26    0.85
  -6  -1  -5    3.40    1.34
   6   1   5    4.33    1.30
   6   1   5    4.26    1.08
  -7  -1  -5    0.21    1.08
   7   1   5   -0.67    1.10
   8  -2  -5    1.98    0.66
   8  -2  -5    1.38    0.66
  -8   2   5    2.11    0.68
  -8   2   5    1.83    0.73
  -8   2   5    2.70    0.68
  -8   2   5    1.13    0.63
   7  -2  -5    2.12    0.58
   7  -2  -5    2.44    0.63
   7  -2  -5    4.41    0.84
  -7   2   5    3.03    0.63
  -7   2   5    2.71    0.69
  -7   2   5    2.49    0.64
  -7   2   5    1.93    0.54
   6  -2  -5    1.29    0.56
   6  -2  -5    2.71    0.71
   6  -2  -5    2.24    0.54
  -6   2   5    2.37    0.56
  -6   2   5    1.61    0.44
  -6   2   5    1.88    0.59
  -6   2   5    1.61    0.49
   5  -2  -5   21.17    1.75
   5  -2  -5   22.10    1.82
   5  -2  -5   24.07    1.86
  -5   2   5   23.24    1.88
  -5   2   5   24.29    1.82
  -5   2   5   20.02    1.69
  -5   2   5   20.16    1.86
   4  -2  -5    1.61    0.40
   4  -2  -5    1.30    0.43
   4  -2  -5    1.04    0.37
  -4   2   5    1.39    0.38
  -4   2   5    1.76    0.45
  -4   2   5    0.93    0.34
  -4   2   5    1.12    0.35
   3  -2  -5   32.80    2.42
   3  -2  -5   33.70    2.38
   3  -2  -5   32.86    2.35
  -3   2   5   30.90    2.43
  -3   2   5   30.17    2.38
   2  -2  -5    1.16    0.40
   2  -2  -5    1.32    0.48
   2  -2  -5    2.39    0.59
   2  -2  -5    1.37    0.42
  -2   2   5    1.51    0.50
  -2   2   5    2.48    0.69
   1  -2  -5    6.03    0.97
   1  -2  -5    8.33    1.35
  -1   2   5    6.03    1.31
  -1   2   5    3.73    1.11
  -1   2   5    4.33    1.20
  -1   2   5    5.18    1.03
   0  -2  -5    1.08    0.65
   0  -2  -5    1.67    0.59
   0  -2  -5    1.35    0.68
   0   2   5    1.58    0.63
   0   2   5    2.28    0.85
   0   2   5    0.96    0.60
   0   2   5    1.64    0.98
   0   2   5    3.10    1.08
  -1  -2  -5    1.63    0.71
  -1  -2  -5    1.57    0.78
  -1  -2  -5    1.52    0.86
  -1  -2  -5    1.64    0.65
   1   2   5    2.76    0.86
   1   2   5    1.25    0.80
   1   2   5    2.52    0.98
  -2  -2  -5    3.58    1.00
  -2  -2  -5    3.52    1.20
  -2  -2  -5    3.68    1.18
  -2  -2  -5    4.59    1.29
   2   2   5    4.67    1.32
   2   2   5    3.63    1.02
   2   2   5    3.76    0.91
   2   2   5    3.52    0.98
  -3  -2  -5    3.09    0.93
  -3  -2  -5    3.44    1.40
  -3  -2  -5    4.97    0.98
  -3  -2  -5    2.20    1.01
   3   2   5    3.65    0.98
   3   2   5    2.49    0.78
   3   2   5    3.06    0.92
   3   2   5    3.47    0.87
  -4  -2  -5    2.21    1.00
  -4  -2  -5    3.91    1.16
  -4  -2  -5    3.04    0.80
   4   2   5    6.59    1.14
   4   2   5    4.38    1.09
   4   2   5    4.27    0.99
   4   2   5    3.86    1.16
  -5  -2  -5    3.29    1.14
  -5  -2  -5    3.37    0.87
  -5  -2  -5    2.68    1.07
   5   2   5    2.29    0.85
   5   2   5    2.75    0.96
   5   2   5    3.17    1.14
   5   2   5    2.80    0.85
  -6  -2  -5    0.06    1.09
  -6  -2  -5    1.25    1.08
  -6  -2  -5    1.21    0.71
   6   2   5    0.48    0.80
   6   2   5    1.46    0.97
   8  -3  -5    5.37    0.98
   8  -3  -5    3.38    0.84
  -8   3   5    3.83    0.91
  -8   3   5    5.47    1.00
  -8   3   5    3.94    0.79
  -8   3   5    4.82    0.91
   7  -3  -5   45.09    3.19
   7  -3  -5   41.21    3.22
   7  -3  -5   45.64    3.23
  -7   3   5   45.30    3.20
  -7   3   5   43.36    3.30
  -7   3   5   41.33    3.16
  -7   3   5   41.09    3.41
   6  -3  -5   19.39    1.65
   6  -3  -5   18.12    1.65
   6  -3  -5   18.55    1.60
  -6   3   5   17.66    1.67
  -6   3   5   17.96    1.55
  -6   3   5   17.63    1.58
  -6   3   5   19.25    1.62
   5  -3  -5    7.75    0.95
   5  -3  -5    7.18    0.91
   5  -3  -5    8.40    0.94
  -5   3   5    7.64    0.90
  -5   3   5    8.23    0.97
  -5   3   5    8.28    0.93
  -5   3   5    6.92    0.83
   4  -3  -5   35.28    2.56
   4  -3  -5   36.63    2.63
   4  -3  -5   35.76    2.54
  -4   3   5   33.93    2.57
  -4   3   5   35.38    2.57
  -4   3   5   33.85    2.51
  -4   3   5   34.72    2.62
   3  -3  -5  230.25   13.86
   3  -3  -5  213.39   13.98
   3  -3  -5  228.10   13.91
   3  -3  -5  217.83   13.93
  -3   3   5  217.96   13.91
  -3   3   5  216.48   13.88
   2  -3  -5   16.99    1.53
   2  -3  -5   15.56    1.46
   2  -3  -5   16.66    1.54
   2  -3  -5   16.61    1.45
  -2   3   5   15.38    1.48
  -2   3   5   15.87    1.62
   1  -3  -5  204.64   12.43
   1  -3  -5  203.26   12.25
  -1   3   5  203.36   12.81
  -1   3   5  163.90   12.25
  -1   3   5  176.67   12.60
   0  -3  -5    1.35    0.66
   0  -3  -5    0.28    0.43
   0  -3  -5    0.82    0.62
   0   3   5    0.74    0.65
   0   3   5    0.34    0.64
   0   3   5    0.90    0.64
   0   3   5    0.56    0.68
   0   3   5    0.48    0.58
  -1  -3  -5   16.14    1.90
  -1  -3  -5   19.90    2.19
  -1  -3  -5   18.64    2.19
   1   3   5   19.83    2.26
   1   3   5   20.12    2.01
   1   3   5   17.64    2.13
  -2  -3  -5   24.15    2.81
  -2  -3  -5   20.14    3.37
  -2  -3  -5   23.01    2.47
  -2  -3  -5   26.52    2.84
  -2  -3  -5   20.38    2.54
   2   3   5   26.57    2.75
   2   3   5   29.33    2.55
   2   3   5   29.78    2.65
   2   3   5   29.31    2.54
  -3  -3  -5  128.17    8.90
  -3  -3  -5  123.92    8.89
  -3  -3  -5  128.30    8.97
   3   3   5  137.17    9.30
   3   3   5  137.67    9.54
   3   3   5  143.35    9.06
   3   3   5  135.22    8.89
  -4  -3  -5   23.63    2.87
  -4  -3  -5   16.53    2.67
  -4  -3  -5   23.69    2.27
  -4  -3  -5   25.04    2.33
  -4  -3  -5   24.51    2.30
   4   3   5   30.47    2.48
   4   3   5   24.67    2.25
   4   3   5   26.78    2.81
   4   3   5   27.39    2.64
  -5  -3  -5   10.98    1.90
  -5  -3  -5   11.40    1.54
  -5  -3  -5   14.27    2.35
   5   3   5   10.25    1.76
   5   3   5   12.55    2.06
   5   3   5   16.27    1.80
   5   3   5   13.15    1.58
  -6  -3  -5    4.07    1.01
  -6  -3  -5    6.09    1.43
  -6  -3  -5    5.67    1.70
   6   3   5    4.20    1.17
   6   3   5    4.30    1.21
   8  -4  -5    5.63    1.10
   8  -4  -5    5.43    1.05
  -8   4   5    7.79    1.30
  -8   4   5    6.14    0.97
  -8   4   5    6.52    1.02
   7  -4  -5    3.67    0.83
   7  -4  -5    3.70    0.77
   7  -4  -5    3.07    0.61
  -7   4   5    3.89    0.81
  -7   4   5    4.73    0.81
  -7   4   5    4.47    0.82
  -7   4   5    3.40    0.80
   6  -4  -5   14.84    1.58
   6  -4  -5   14.83    1.38
   6  -4  -5   14.71    1.38
  -6   4   5   14.61    1.38
  -6   4   5   13.91    1.42
  -6   4   5   15.29    1.43
  -6   4   5   12.25    1.33
   5  -4  -5   23.30    1.78
   5  -4  -5   20.28    1.72
   5  -4  -5   20.30    1.77
  -5   4   5   19.53    1.97
  -5   4   5   21.00    1.77
  -5   4   5   19.71    1.67
  -5   4   5   20.74    1.73
   4  -4  -5    6.86    0.89
   4  -4  -5    7.44    0.87
   4  -4  -5    7.01    0.85
  -4   4   5    6.64    0.83
  -4   4   5    6.77    0.85
  -4   4   5    6.76    0.85
  -4   4   5    7.50    0.86
   3  -4  -5   49.45    3.47
   3  -4  -5   47.02    3.47
   3  -4  -5   48.84    3.56
  -3   4   5   52.15    3.48
  -3   4   5   50.19    3.50
   2  -4  -5    1.02    0.43
   2  -4  -5    1.90    0.62
   2  -4  -5    1.74    0.57
   2  -4  -5    0.82    0.43
  -2   4   5    1.73    0.47
  -2   4   5    1.38    0.45
   1  -4  -5    2.57    0.75
   1  -4  -5    1.07    0.51
   1  -4  -5    3.03    0.83
   1  -4  -5    1.06    0.62
  -1   4   5    1.58    1.00
  -1   4   5    2.59    0.75
  -1   4   5    1.49    0.63
   0  -4  -5   29.60    2.96
   0  -4  -5   28.88    2.75
   0  -4  -5   26.13    2.47
   0   4   5   32.58    2.53
   0   4   5   27.70    2.68
   0   4   5   22.93    2.74
   0   4   5   31.59    2.54
  -1  -4  -5   -0.19    0.54
  -1  -4  -5    0.50    0.62
  -1  -4  -5    0.12    0.46
   1   4   5   -0.03    0.43
   1   4   5    0.73    0.58
   1   4   5    0.56    0.75
  -2  -4  -5    8.07    1.53
  -2  -4  -5    8.93    1.54
  -2  -4  -5    7.72    1.42
   2   4   5    7.21    1.31
   2   4   5    8.15    1.43
   2   4   5    7.09    1.35
   2   4   5    9.43    1.27
  -3  -4  -5    3.62    1.37
  -3  -4  -5    5.12    1.09
  -3  -4  -5    4.86    1.08
  -3  -4  -5    2.96    1.38
  -3  -4  -5    5.25    1.15
   3   4   5    9.87    2.08
   3   4   5    5.20    0.96
   3   4   5    8.63    1.59
   3   4   5    6.99    1.19
  -4  -4  -5    2.34    0.78
  -4  -4  -5    2.82    0.79
  -4  -4  -5    0.98    0.70
  -4  -4  -5    2.66    1.23
  -4  -4  -5    2.46    1.11
   4   4   5    0.87    0.61
   4   4   5    3.47    0.83
   4   4   5    1.23    0.80
   4   4   5    2.79    1.05
  -5  -4  -5    6.67    1.65
  -5  -4  -5    5.09    1.08
  -5  -4  -5    6.12    1.47
   5   4   5    6.31    1.65
   5   4   5    4.79    1.30
   5   4   5    7.02    1.18
   5   4   5    4.99    0.95
  -6  -4  -5    0.38    0.76
  -6  -4  -5    1.14    1.14
  -6  -4  -5    0.08    1.18
   6   4   5    1.92    1.10
   6   4   5    1.39    1.15
   8  -5  -5    0.54    0.53
   8  -5  -5    0.64    0.56
  -8   5   5   -0.23    0.47
  -8   5   5    0.21    0.62
  -8   5   5    0.85    0.51
   7  -5  -5   10.26    1.30
   7  -5  -5   11.45    1.25
   7  -5  -5   11.58    1.25
  -7   5   5   11.65    1.34
  -7   5   5   10.36    1.21
  -7   5   5   10.27    1.26
  -7   5   5   10.82    1.21
   6  -5  -5    0.23    0.42
   6  -5  -5    0.14    0.32
   6  -5  -5   -0.37    0.31
  -6   5   5    0.06    0.38
  -6   5   5    0.33    0.36
  -6   5   5    0.35    0.35
  -6   5   5   -0.07    0.30
   5  -5  -5   19.56    1.76
   5  -5  -5   20.43    1.71
   5  -5  -5   21.24    1.75
   5  -5  -5   20.05    1.73
  -5   5   5   20.30    1.74
  -5   5   5   20.35    1.74
  -5   5   5   20.83    2.17
  -5   5   5   20.34    1.71
   4  -5  -5    8.01    1.00
   4  -5  -5    9.39    1.00
  -4   5   5    9.29    1.01
  -4   5   5    8.84    0.95
  -4   5   5    6.91    0.94
  -4   5   5    9.20    0.99
   3  -5  -5    4.93    0.79
   3  -5  -5    3.28    0.67
   3  -5  -5    4.77    0.73
   3  -5  -5    3.47    0.71
  -3   5   5    4.16    0.70
  -3   5   5    5.42    0.69
  -3   5   5    3.43    0.80
   2  -5  -5   25.95    2.13
   2  -5  -5   23.75    2.34
   2  -5  -5   26.02    2.07
   2  -5  -5   25.89    2.08
  -2   5   5   25.27    2.05
  -2   5   5   23.67    1.95
  -2   5   5   25.39    2.41
   1  -5  -5    3.81    0.81
   1  -5  -5    2.82    0.75
   1  -5  -5    1.87    0.60
   1  -5  -5    2.90    0.63
  -1   5   5    2.88    0.80
  -1   5   5    4.44    1.27
   0  -5  -5    1.77    0.70
   0  -5  -5    2.79    0.89
   0  -5  -5    1.00    0.68
   0   5   5    1.21    0.77
   0   5   5    1.81    0.87
   0   5   5    0.39    0.59
  -1  -5  -5    3.95    0.99
  -1  -5  -5    2.39    0.87
  -1  -5  -5    2.13    0.80
   1   5   5    3.25    1.13
   1   5   5    3.56    0.90
   1   5   5    4.27    1.14
   1   5   5    3.58    1.01
  -2  -5  -5   48.56    4.26
  -2  -5  -5   45.76    4.24
  -2  -5  -5   53.89    4.17
   2   5   5   52.78    4.34
   2   5   5   49.00    3.83
   2   5   5   52.50    3.96
   2   5   5   50.53    4.10
  -3  -5  -5    5.22    1.47
  -3  -5  -5    4.74    1.60
   3   5   5   11.47    1.76
   3   5   5    7.39    1.21
   3   5   5    7.13    1.27
   3   5   5    7.50    1.76
  -4  -5  -5    9.55    1.89
  -4  -5  -5   12.33    1.55
  -4  -5  -5    9.41    2.05
  -4  -5  -5   13.88    1.58
  -4  -5  -5   11.97    1.71
   4   5   5   16.53    1.69
   4   5   5   18.95    2.25
   4   5   5   18.09    2.73
  -5  -5  -5    9.04    1.82
  -5  -5  -5    7.98    1.95
  -5  -5  -5    7.81    1.40
   5   5   5    9.52    1.81
   5   5   5   11.41    1.54
   5   5   5    8.80    1.66
   5   5   5   11.69    1.49
  -6  -5  -5    1.01    1.21
  -6  -5  -5    1.67    1.42
  -6  -5  -5    0.29    1.40
   6   5   5    0.12    1.20
   6   5   5   -0.96    0.99
   7  -6  -5    0.60    0.53
   7  -6  -5   -0.03    0.51
   7  -6  -5    0.24    0.46
  -7   6   5   -0.48    0.49
  -7   6   5    0.08    0.44
  -7   6   5   -0.12    0.42
   6  -6  -5   69.31    4.96
   6  -6  -5   78.94    4.98
   6  -6  -5   76.44    5.07
  -6   6   5   74.44    5.03
  -6   6   5   69.35    4.94
  -6   6   5   72.69    5.00
  -6   6   5   70.36    4.96
   5  -6  -5    2.05    0.55
   5  -6  -5    0.76    0.43
   5  -6  -5    1.32    0.47
  -5   6   5    2.93    0.62
  -5   6   5    2.08    0.52
  -5   6   5    1.31    0.47
  -5   6   5    1.88    0.48
   4  -6  -5   32.77    2.47
   4  -6  -5   32.53    2.50
   4  -6  -5   28.25    2.35
  -4   6   5   33.53    2.42
  -4   6   5   28.67    2.30
  -4   6   5   31.71    2.38
   3  -6  -5    3.75    0.75
   3  -6  -5    5.79    1.00
   3  -6  -5    4.68    0.80
   3  -6  -5    4.68    0.74
  -3   6   5    3.73    0.60
  -3   6   5    2.17    0.77
  -3   6   5    3.33    0.63
   2  -6  -5   79.33    5.40
   2  -6  -5   78.78    5.41
   2  -6  -5   75.17    5.44
   2  -6  -5   80.93    5.57
  -2   6   5   74.48    5.88
  -2   6   5   82.15    5.36
  -2   6   5   81.99    5.23
   1  -6  -5   -0.04    0.40
   1  -6  -5    0.51    0.51
   1  -6  -5   -0.11    0.41
   1  -6  -5    0.63    0.49
  -1   6   5    0.01    0.44
  -1   6   5    0.03    0.32
  -1   6   5    0.60    0.86
   0  -6  -5  417.10   27.18
   0  -6  -5  432.68   26.92
   0  -6  -5  410.80   26.58
   0   6   5  430.27   26.75
  -1  -6  -5    0.88    0.78
  -1  -6  -5    0.91    0.60
  -1  -6  -5    0.24    0.61
   1   6   5    1.18    0.82
   1   6   5   -0.02    0.87
   1   6   5    0.11    0.44
   1   6   5    0.77    0.75
  -2  -6  -5   75.59    5.60
  -2  -6  -5   67.57    5.79
  -2  -6  -5   76.21    5.82
   2   6   5   79.89    5.96
   2   6   5   67.29    5.32
   2   6   5   80.38    5.71
   2   6   5   76.74    5.26
  -3  -6  -5    2.90    1.46
  -3  -6  -5    3.56    1.43
  -3  -6  -5    3.53    1.14
   3   6   5    6.02    1.23
   3   6   5    3.40    1.11
   3   6   5    4.15    0.94
   3   6   5    6.63    1.10
  -4  -6  -5   11.68    1.82
  -4  -6  -5   13.45    2.25
  -4  -6  -5   14.82    2.61
   4   6   5   16.82    1.75
   4   6   5   18.66    2.38
   4   6   5   18.88    2.34
  -5  -6  -5    2.72    1.01
  -5  -6  -5    3.86    1.40
  -5  -6  -5    1.06    1.23
  -5  -6  -5    3.79    0.87
   5   6   5    3.93    0.90
   5   6   5    4.64    1.35
   5   6   5    4.17    1.40
   5   6   5    4.84    1.12
  -6  -6  -5   42.06    4.51
  -6  -6  -5   48.14    4.36
   6   6   5   46.72    4.17
   6   6   5   52.07    4.46
   7  -7  -5    3.56    0.83
   7  -7  -5    3.31    0.76
   7  -7  -5    2.49    0.74
  -7   7   5    4.78    0.98
  -7   7   5    1.85    0.76
   6  -7  -5    5.19    0.98
   6  -7  -5    7.52    1.05
   6  -7  -5    7.42    1.02
  -6   7   5    5.87    0.93
  -6   7   5    6.04    0.91
  -6   7   5    5.66    0.85
  -6   7   5    4.36    0.81
   5  -7  -5   58.42    4.01
   5  -7  -5   56.99    4.00
   5  -7  -5   56.95    4.06
  -5   7   5   59.01    3.97
  -5   7   5   54.85    3.99
  -5   7   5   57.54    3.99
  -5   7   5   54.33    4.17
   4  -7  -5    2.22    0.54
   4  -7  -5    3.16    0.66
   4  -7  -5    1.81    0.61
  -4   7   5    2.31    0.83
  -4   7   5    2.50    0.52
  -4   7   5    2.84    0.58
   3  -7  -5   71.43    5.01
   3  -7  -5   70.71    4.86
   3  -7  -5   69.65    4.91
   3  -7  -5   73.36    4.91
  -3   7   5   71.06    4.82
  -3   7   5   73.49    4.69
  -3   7   5   65.23    5.21
   2  -7  -5   21.80    1.92
   2  -7  -5   22.28    1.97
   2  -7  -5   23.19    2.01
   2  -7  -5   22.37    2.11
  -2   7   5   20.17    2.72
  -2   7   5   23.40    1.90
  -2   7   5   23.22    1.72
   1  -7  -5    7.73    1.19
   1  -7  -5    6.49    1.19
   1  -7  -5   13.10    1.74
   1  -7  -5    9.33    1.58
  -1   7   5    7.81    1.02
  -1   7   5   11.84    1.96
  -1   7   5    8.70    0.95
   0  -7  -5    2.48    0.99
   0  -7  -5    1.05    0.64
   0   7   5    3.42    1.09
   0   7   5    2.09    0.92
   0   7   5    1.78    0.95
   0   7   5    2.91    0.79
  -1  -7  -5   22.07    2.33
  -1  -7  -5   27.22    2.44
  -1  -7  -5   24.71    2.64
   1   7   5   21.94    2.40
   1   7   5   22.94    3.39
   1   7   5   20.22    2.65
   1   7   5   22.89    2.00
  -2  -7  -5   49.41    4.22
  -2  -7  -5   50.21    4.02
   2   7   5   42.91    4.00
   2   7   5   51.89    3.57
   2   7   5   40.37    3.64
   2   7   5   55.27    4.47
  -3  -7  -5   72.20    5.97
  -3  -7  -5   61.10    5.36
  -3  -7  -5   62.13    5.50
   3   7   5   78.49    5.63
   3   7   5   72.88    4.85
   3   7   5   73.05    5.34
   3   7   5   60.38    4.79
  -4  -7  -5    4.77    1.51
  -4  -7  -5    3.49    1.68
  -4  -7  -5    4.17    1.23
   4   7   5    5.88    1.38
   4   7   5    6.28    1.13
   4   7   5    6.48    1.45
  -5  -7  -5   25.26    3.45
   5   7   5   29.34    3.02
   5   7   5   28.47    3.19
   5   7   5   29.37    2.53
   5   7   5   32.81    2.70
   7  -8  -5    0.57    0.58
   7  -8  -5    1.15    0.66
   7  -8  -5    0.66    0.65
   7  -8  -5    0.98    0.75
  -7   8   5    0.72    0.52
  -7   8   5    0.08    0.59
   6  -8  -5    1.59    0.57
   6  -8  -5    1.68    0.65
   6  -8  -5    0.59    0.50
  -6   8   5    1.48    0.53
  -6   8   5    1.67    0.74
  -6   8   5    1.29    0.66
   5  -8  -5    7.90    1.08
   5  -8  -5    8.58    1.37
   5  -8  -5    7.39    1.07
   5  -8  -5    6.00    1.01
  -5   8   5    6.10    0.98
  -5   8   5    8.15    0.94
  -5   8   5    6.74    1.05
  -5   8   5    7.00    1.04
   4  -8  -5    0.17    0.37
   4  -8  -5    0.62    0.44
   4  -8  -5    0.37    0.37
  -4   8   5    0.80    0.34
  -4   8   5    0.44    0.36
   3  -8  -5   14.80    1.41
   3  -8  -5   14.95    1.49
   3  -8  -5   13.94    1.42
   3  -8  -5   13.13    1.54
  -3   8   5   13.89    1.38
  -3   8   5   13.50    1.18
  -3   8   5   17.56    2.14
   2  -8  -5   11.42    1.69
   2  -8  -5    9.99    1.18
   2  -8  -5   10.19    1.44
  -2   8   5    9.63    1.11
  -2   8   5   10.98    0.95
  -2   8   5   12.36    2.28
   1  -8  -5   -0.10    0.39
   1  -8  -5   -0.10    0.36
   1  -8  -5    0.25    0.55
   1  -8  -5    0.50    0.56
  -1   8   5    0.36    0.34
  -1   8   5    0.79    0.93
  -1   8   5   -0.02    0.25
   0  -8  -5   25.50    2.70
   0  -8  -5   23.86    2.67
   0  -8  -5   24.78    2.38
   0  -8  -5   27.14    2.96
   0   8   5   22.42    2.58
   0   8   5   27.16    2.15
   0   8   5   22.86    2.00
  -1  -8  -5    1.09    0.90
  -1  -8  -5   -0.34    0.66
   1   8   5   -1.66    0.86
   1   8   5    0.44    0.95
   1   8   5   -0.29    0.72
   1   8   5    0.20    0.36
  -2  -8  -5    1.67    1.01
  -2  -8  -5    0.71    1.01
  -2  -8  -5    1.86    0.97
   2   8   5    1.01    0.63
   2   8   5    1.15    0.96
   2   8   5    1.68    0.58
  -3  -8  -5   -1.50    0.95
  -3  -8  -5    0.49    1.07
  -3  -8  -5    0.88    1.25
   3   8   5   -0.06    0.57
   3   8   5    0.15    0.77
   3   8   5    0.77    0.92
   3   8   5    0.18    0.49
  -4  -8  -5    5.02    1.87
  -4  -8  -5    4.91    1.68
  -4  -8  -5    5.95    1.52
   4   8   5    9.49    1.94
   4   8   5    9.14    1.69
   4   8   5    6.94    1.11
  -5  -8  -5   -0.08    1.32
  -5  -8  -5    0.04    1.08
  -5  -8  -5   -0.33    1.32
   5   8   5   -0.74    1.04
   5   8   5   -0.27    1.18
   5   8   5    0.22    0.70
   5   8   5    0.42    0.75
   6  -9  -5    7.11    1.19
   6  -9  -5    5.32    1.03
   6  -9  -5    6.83    1.00
  -6   9   5    5.77    0.92
  -6   9   5    7.31    1.19
  -6   9   5    6.62    1.59
   5  -9  -5    1.31    0.56
   5  -9  -5    0.54    0.48
   5  -9  -5    0.35    0.39
   5  -9  -5    0.80    0.58
  -5   9   5    1.65    0.65
  -5   9   5    0.88    0.45
  -5   9   5   -0.41    0.92
  -5   9   5    1.73    0.56
   4  -9  -5   12.88    1.34
   4  -9  -5   13.86    1.41
   4  -9  -5   15.37    1.66
  -4   9   5   14.91    1.36
  -4   9   5    9.89    2.02
  -4   9   5   12.49    1.17
   3  -9  -5   78.58    5.18
   3  -9  -5   74.05    5.06
   3  -9  -5   76.88    5.32
   3  -9  -5   76.80    5.14
  -3   9   5   75.51    4.79
  -3   9   5   57.71    6.26
  -3   9   5   69.93    4.96
   2  -9  -5    9.86    1.61
   2  -9  -5    7.64    1.20
   2  -9  -5    7.00    1.53
   2  -9  -5    5.24    0.85
  -2   9   5    7.71    0.69
  -2   9   5    4.22    1.53
  -2   9   5    6.39    0.93
   1  -9  -5   69.28    5.27
   1  -9  -5   66.65    4.92
   1  -9  -5   64.77    5.03
  -1   9   5   73.31    4.95
  -1   9   5   71.65    4.41
  -1   9   5   69.10    5.35
  -1   9   5   68.31    4.93
  -1   9   5   75.37    4.74
  -1   9   5   58.40    4.54
   0  -9  -5    0.66    0.59
   0  -9  -5    0.32    0.92
   0  -9  -5   -0.46    1.03
   0  -9  -5    0.32    0.49
   0   9   5    0.66    0.45
   0   9   5    0.78    0.67
   0   9   5   -0.09    0.90
   0   9   5   -0.06    0.34
  -1  -9  -5    6.70    1.36
  -1  -9  -5    1.44    0.97
  -1  -9  -5    3.38    1.09
   1   9   5    2.58    0.99
   1   9   5    2.49    1.04
   1   9   5    3.69    1.02
   1   9   5    3.27    0.81
   1   9   5    4.91    0.73
  -2  -9  -5   11.52    1.81
  -2  -9  -5   11.35    1.80
  -2  -9  -5   12.52    2.16
   2   9   5    6.87    1.99
   2   9   5    9.82    1.97
   2   9   5   11.86    1.54
   2   9   5   11.50    1.18
  -3  -9  -5   47.63    4.59
  -3  -9  -5   42.99    4.12
  -3  -9  -5   38.83    4.00
   3   9   5   38.36    3.19
   3   9   5   36.76    4.05
   3   9   5   39.54    4.07
   3   9   5   48.15    3.18
  -4  -9  -5    4.31    1.91
  -4  -9  -5    6.97    1.87
  -4  -9  -5    4.43    1.77
   4   9   5   10.27    1.29
   4   9   5   12.14    1.89
   4   9   5    8.44    1.67
  -5  -9  -5    1.93    1.39
  -5  -9  -5    1.85    1.62
  -5  -9  -5    1.90    2.40
   5   9   5    3.94    0.91
   5   9   5    3.52    0.94
   5   9   5    3.17    1.41
   5   9   5    4.46    1.28
  -6  10   5   13.40    1.44
   5 -10  -5   11.29    1.32
   5 -10  -5   13.09    1.63
   5 -10  -5   11.32    1.36
   5 -10  -5   12.66    1.52
  -5  10   5   11.35    1.22
  -5  10   5   12.50    1.31
   4 -10  -5    5.98    0.91
   4 -10  -5    4.57    0.85
   4 -10  -5    7.65    1.34
  -4  10   5    6.67    0.93
  -4  10   5    5.08    0.73
  -4  10   5    4.15    1.54
   3 -10  -5   15.58    1.68
   3 -10  -5   16.30    1.60
   3 -10  -5   15.80    1.85
   3 -10  -5   17.20    1.57
  -3  10   5   17.75    1.52
  -3  10   5   15.60    1.24
   2 -10  -5    3.38    0.72
   2 -10  -5    2.59    0.80
   2 -10  -5    5.04    0.94
   2 -10  -5    3.12    0.88
  -2  10   5    3.38    0.41
  -2  10   5    4.66    1.58
   1 -10  -5    2.27    0.98
   1 -10  -5    2.34    0.69
   1 -10  -5    3.72    1.09
   1 -10  -5    3.94    0.92
  -1  10   5    2.87    0.66
  -1  10   5    2.95    1.26
   0 -10  -5   23.16    2.19
   0 -10  -5   19.98    2.52
   0 -10  -5   20.87    2.18
   0 -10  -5   20.97    2.79
   0  10   5   23.84    2.63
   0  10   5   23.54    1.58
   0  10   5   20.73    1.55
   0  10   5   22.90    1.90
  -1 -10  -5   -0.33    0.68
  -1 -10  -5    1.31    0.81
  -1 -10  -5    0.26    0.95
  -1 -10  -5   -0.11    0.80
   1  10   5    0.33    0.74
   1  10   5    1.01    0.89
   1  10   5    0.41    0.31
   1  10   5    0.26    0.50
  -2 -10  -5   11.41    1.87
  -2 -10  -5   10.10    1.70
  -2 -10  -5   10.18    1.82
   2  10   5   13.49    1.18
   2  10   5    7.01    1.79
   2  10   5   13.01    1.58
   2  10   5   13.74    1.48
  -3 -10  -5    4.27    1.78
  -3 -10  -5    3.82    1.54
  -3 -10  -5    4.32    1.58
   3  10   5    3.51    1.70
   3  10   5    4.46    0.91
   3  10   5    4.86    0.83
   3  10   5    1.48    1.35
  -4 -10  -5    1.08    1.77
  -4 -10  -5   -0.17    1.55
  -4 -10  -5   -1.62    1.29
   4  10   5    0.07    1.26
   4  10   5   -0.52    1.20
   4  10   5    0.43    0.61
   5 -11  -5    1.32    0.61
   5 -11  -5    0.93    0.52
   5 -11  -5    1.15    0.82
  -5  11   5    1.33    0.57
  -5  11   5    1.65    0.57
   4 -11  -5    5.68    0.92
   4 -11  -5    6.66    1.09
  -4  11   5    5.87    0.93
  -4  11   5    6.21    2.04
   3 -11  -5    2.78    0.66
   3 -11  -5    3.12    0.90
   3 -11  -5    2.17    0.70
   3 -11  -5    2.37    0.90
  -3  11   5    5.37    2.09
  -3  11   5    2.24    0.60
   2 -11  -5    5.76    1.15
   2 -11  -5    4.17    1.04
   2 -11  -5    5.90    0.93
   2 -11  -5    4.49    0.82
  -2  11   5    5.18    1.82
  -2  11   5    5.30    0.83
  -2  11   5    6.19    1.92
   1 -11  -5    5.29    1.46
   1 -11  -5    5.52    0.99
   1 -11  -5    8.16    1.50
   1 -11  -5    6.22    1.08
  -1  11   5    5.16    1.49
  -1  11   5    6.43    0.90
   0 -11  -5    0.67    1.10
   0 -11  -5    0.94    0.71
   0 -11  -5    2.20    1.23
   0 -11  -5    0.61    0.56
   0  11   5    0.17    0.94
   0  11   5    0.52    0.44
  -1 -11  -5    0.46    0.99
  -1 -11  -5   -0.82    0.70
  -1 -11  -5   -0.77    0.78
  -1 -11  -5    1.01    0.93
  -1 -11  -5   -0.33    0.73
   1  11   5   -0.37    0.82
   1  11   5    0.32    0.48
   1  11   5   -0.18    0.22
   1  11   5   -0.34    0.72
  -2 -11  -5   11.81    1.96
  -2 -11  -5   16.22    2.01
  -2 -11  -5   11.54    1.97
   2  11   5   12.34    1.57
   2  11   5   15.54    1.50
   2  11   5   13.59    1.17
   2  11   5   10.53    1.98
  -3 -11  -5    0.81    1.12
  -3 -11  -5    1.30    1.69
  -3 -11  -5    1.96    1.57
   3  11   5    0.54    0.62
   3  11   5    0.39    0.64
   3  11   5   -1.50    1.63
   3  11   5   -0.46    1.39
   4 -12  -5    8.28    1.16
   4 -12  -5   10.23    1.68
  -4  12   5    9.75    1.17
  -4  12   5    5.38    3.01
   3 -12  -5    0.70    0.56
   3 -12  -5    1.60    0.90
   3 -12  -5    1.65    1.19
   3 -12  -5    1.91    0.78
  -3  12   5    4.21    1.92
  -3  12   5    1.34    0.50
   2 -12  -5   17.40    1.77
   2 -12  -5   18.01    2.15
   2 -12  -5   18.14    1.75
   2 -12  -5   14.55    2.17
  -2  12   5   17.31    1.61
  -2  12   5   21.14    3.00
  -2  12   5   24.90    3.01
   1 -12  -5    1.86    1.12
   1 -12  -5   -0.02    0.48
   1 -12  -5   -1.04    0.45
   1 -12  -5   -1.17    1.01
  -1  12   5   -0.21    1.33
   0 -12  -5   80.73    5.43
   0 -12  -5   66.02    5.92
   0 -12  -5   87.27    5.38
   0 -12  -5   60.95    5.66
   0  12   5   63.38    5.23
   0  12   5   79.99    4.96
  -1 -12  -5    0.43    0.72
  -1 -12  -5    0.44    1.35
  -1 -12  -5   -0.09    1.03
  -1 -12  -5    0.91    0.72
   1  12   5    0.07    0.43
   1  12   5   -0.36    0.72
  -2 -12  -5   16.67    2.51
  -2 -12  -5   17.55    3.05
  -2 -12  -5   21.64    2.66
  -2 -12  -5   25.90    2.54
  -2 -12  -5   19.60    2.42
   2  12   5   20.69    1.91
   2  12   5   22.46    1.50
   2  12   5   21.14    1.81
   2  12   5   13.84    2.33
   2 -13  -5    5.85    0.97
   2 -13  -5    5.58    1.69
   2 -13  -5    6.18    1.13
   2 -13  -5    4.96    1.47
  -2  13   5    8.32    2.10
  -2  13   5    5.54    0.86
  -2  13   5   11.42    2.25
   1 -13  -5    5.57    0.94
   1 -13  -5    5.56    1.69
   1 -13  -5    5.86    1.85
   1 -13  -5    2.46    0.83
  -1  13   5    2.63    1.39
   0 -13  -5    1.05    0.76
   0 -13  -5    0.42    0.69
   0 -13  -5    0.51    1.21
   0 -13  -5   -0.18    1.52
   0  13   5    0.15    0.46
   0  13   5    0.39    0.92
  -1 -13  -5    8.97    1.43
  -1 -13  -5    8.28    2.11
  -1 -13  -5    6.69    1.60
  -1 -13  -5    7.13    1.33
   1  13   5    7.69    1.00
   1  13   5    7.14    1.13
  -3 -12   6    0.52    0.53
  -2 -12   6   37.89    3.09
  -1 -12   6    0.86    0.33
  -1 -12   6    0.17    0.51
   0  12  -6    3.60    2.55
   0  12  -6    3.35    2.34
   0 -12   6    4.43    0.71
   0 -12   6    6.16    1.11
  -1  12  -6    0.26    2.45
  -1  12  -6    2.12    2.70
   1 -12   6   -1.26    1.09
   1 -12   6    0.02    0.41
   1 -12   6   -0.64    0.51
   1 -12   6   -0.14    0.53
  -4 -11   6    7.45    1.17
  -3 -11   6   -1.60    2.27
  -3 -11   6    0.23    0.44
  -2 -11   6    7.67    2.64
  -2 -11   6    7.32    1.26
  -1 -11   6    4.44    0.57
  -1 -11   6    2.68    0.83
   0  11  -6    1.54    1.92
   0  11  -6    1.10    1.97
   0 -11   6    0.43    0.70
   0 -11   6    1.25    0.50
  -1  11  -6    1.37    2.39
  -1  11  -6    1.63    2.07
   1 -11   6    1.99    0.58
   1 -11   6    1.12    1.22
   1 -11   6    2.88    0.72
   1 -11   6    3.62    0.73
  -2  11  -6    7.95    3.08
  -2  11  -6    5.56    2.93
  -2  11  -6    9.07    1.18
   2 -11   6    9.19    1.61
   2 -11   6    6.28    1.03
   2 -11   6    9.12    1.32
   2 -11   6    8.09    1.21
  -5 -10   6    6.61    0.76
  -5 -10   6    5.37    0.95
  -4 -10   6   52.91    3.83
  -4 -10   6   51.80    7.05
  -3 -10   6    1.60    2.03
  -3 -10   6    0.12    0.46
  -2 -10   6    6.20    2.33
  -2 -10   6    8.35    1.24
   1  10  -6   -0.27    1.36
  -1 -10   6   -0.27    0.37
  -1 -10   6   -0.42    0.45
   0  10  -6   26.00    4.32
   0  10  -6   24.73    4.55
   0 -10   6   29.49    2.13
  -1  10  -6    2.56    0.56
  -1  10  -6    3.34    0.57
  -1  10  -6    1.58    2.16
  -1  10  -6    1.73    2.42
   1 -10   6    3.06    1.36
   1 -10   6    2.48    0.73
   1 -10   6    2.60    0.66
   1 -10   6    4.03    0.75
  -2  10  -6   52.63    6.93
   2 -10   6   56.58    3.98
   2 -10   6   62.50    4.76
   2 -10   6   55.17    4.06
  -3  10  -6    1.87    2.29
  -3  10  -6   -1.12    2.11
   3 -10   6    2.81    1.26
   3 -10   6    2.73    0.81
   3 -10   6    2.77    0.92
   3 -10   6    1.89    0.88
  -6  -9   6    0.18    0.48
  -6  -9   6   -0.27    0.41
  -5  -9   6    3.69    3.48
  -5  -9   6    5.94    0.68
  -5  -9   6    4.65    0.83
  -4  -9   6    5.95    1.02
  -4  -9   6    5.34    0.58
  -4  -9   6    3.61    3.00
  -3  -9   6    4.12    2.34
  -3  -9   6    4.46    2.41
  -2  -9   6    8.04    1.31
  -2  -9   6    8.37    2.51
  -2  -9   6   13.98    3.53
   1   9  -6   64.31    6.74
  -1  -9   6   72.14    6.65
  -1  -9   6   56.17    4.65
  -1  -9   6   61.31    4.26
  -1  -9   6   80.75    6.67
   0   9  -6    1.14    1.66
   0   9  -6    0.23    1.68
   0  -9   6    2.68    0.60
   0  -9   6    1.27    0.40
   0  -9   6    1.83    0.39
  -1   9  -6   68.79    7.03
  -1   9  -6   56.87    3.70
  -1   9  -6   55.53    3.73
  -1   9  -6   55.62    6.56
   1  -9   6   55.98    4.06
   1  -9   6   55.56    3.92
   1  -9   6   53.55    4.02
  -2   9  -6   15.85    4.14
  -2   9  -6   13.60    3.47
  -2   9  -6   19.46    1.63
   2  -9   6   22.30    2.56
   2  -9   6   17.75    1.76
   2  -9   6   17.61    1.81
   2  -9   6   18.64    1.69
  -3   9  -6    0.32    1.92
  -3   9  -6   -0.69    2.38
  -3   9  -6    1.54    0.82
   3  -9   6    0.51    0.53
   3  -9   6    0.46    0.59
   3  -9   6    0.55    0.74
   3  -9   6    0.27    1.18
  -4   9  -6    7.70    2.83
  -4   9  -6   11.98    3.31
   4  -9   6   15.64    1.80
   4  -9   6   13.51    1.49
  -6  -8   6    4.88    0.86
  -6  -8   6    6.14    0.79
  -5  -8   6    3.29    3.24
  -5  -8   6    2.75    0.68
  -5  -8   6    2.73    0.48
  -4  -8   6    3.32    2.95
  -4  -8   6    2.68    0.67
  -4  -8   6    1.75    2.82
  -3  -8   6    0.88    0.42
  -3  -8   6    1.09    2.11
  -3  -8   6    3.46    2.33
  -2  -8   6   10.58    1.24
  -2  -8   6   10.85    1.35
  -2  -8   6   18.16    3.72
  -2  -8   6    8.92    3.06
  -1  -8   6   -0.34    0.39
  -1  -8   6    0.00    0.53
   0   8  -6   12.34    3.08
   0   8  -6   13.32    3.20
   0   8  -6   14.55    1.08
   0   8  -6   14.56    1.03
   0  -8   6   13.33    1.20
   0  -8   6   14.25    1.29
   0  -8   6   14.82    1.44
  -1   8  -6    0.26    1.73
  -1   8  -6    2.61    1.77
  -1   8  -6    2.04    0.53
   1  -8   6    1.69    0.60
   1  -8   6    1.85    0.61
   1  -8   6    0.90    0.64
  -2   8  -6    2.54    1.68
  -2   8  -6    1.81    1.87
  -2   8  -6    2.41    0.70
  -2   8  -6    2.42    0.64
   2  -8   6    1.97    0.71
   2  -8   6    3.63    1.28
   2  -8   6    2.78    0.76
   2  -8   6    2.51    0.66
  -3   8  -6    6.14    2.60
  -3   8  -6    8.29    1.29
  -3   8  -6    4.62    2.24
   3  -8   6    9.29    1.37
   3  -8   6    7.68    1.43
   3  -8   6    9.30    1.31
   3  -8   6    8.22    1.16
  -4   8  -6    1.24    1.72
  -4   8  -6    0.69    1.50
  -4   8  -6    1.98    1.00
   4  -8   6    1.70    0.78
   4  -8   6    1.39    0.88
   4  -8   6    2.43    0.71
   4  -8   6    1.72    1.22
  -7  -7   6   36.62    2.64
  -7  -7   6   41.28    4.05
  -7  -7   6   38.38    2.62
  -7  -7   6   41.48    2.83
   6   7  -6    1.60    0.41
   6   7  -6    1.36    0.91
   6   7  -6    0.36    0.91
   6   7  -6    1.51    0.46
  -6  -7   6   -0.75    3.09
  -6  -7   6    2.03    0.49
  -6  -7   6    2.23    0.67
  -5  -7   6   37.30    2.90
  -5  -7   6   36.25    2.52
  -4  -7   6   41.82    2.80
  -4  -7   6   41.24    7.20
  -4  -7   6   42.52    3.22
  -4  -7   6   43.38    6.94
  -3  -7   6   14.11    1.46
  -3  -7   6   11.56    3.45
  -3  -7   6   12.18    3.75
  -2  -7   6   32.40    2.58
  -2  -7   6   25.80    2.14
  -2  -7   6   32.19    5.21
   1   7  -6   61.87    6.12
  -1  -7   6   50.39    3.42
   0   7  -6    1.05    1.60
   0   7  -6    0.99    1.40
   0   7  -6    2.01    0.40
   0   7  -6    3.07    0.50
   0  -7   6    1.57    0.55
   0  -7   6    1.67    0.46
   0  -7   6    0.73    0.65
  -1   7  -6   33.32    2.37
  -1   7  -6   30.42    2.26
  -1   7  -6   33.76    4.91
  -1   7  -6   38.19    5.46
   1  -7   6   28.57    2.59
   1  -7   6   31.93    2.48
   1  -7   6   27.90    2.44
  -2   7  -6    3.06    1.95
  -2   7  -6    7.88    1.19
  -2   7  -6    9.14    1.10
   2  -7   6    7.63    1.56
   2  -7   6    7.63    1.12
   2  -7   6    8.50    1.26
   2  -7   6    7.93    1.10
  -3   7  -6    0.06    0.62
  -3   7  -6   -0.38    1.48
  -3   7  -6    1.40    1.16
  -3   7  -6    0.87    0.69
  -3   7  -6   -0.10    1.47
   3  -7   6    0.28    0.45
   3  -7   6   -0.19    0.83
   3  -7   6    0.33    0.51
   3  -7   6    0.06    0.56
  -4   7  -6    1.98    1.57
  -4   7  -6    0.24    1.22
  -4   7  -6   -1.51    0.76
   4  -7   6    0.05    0.57
   4  -7   6   -0.07    0.75
   4  -7   6    0.20    1.07
   4  -7   6   -0.35    0.57
  -5   7  -6    0.82    1.58
  -5   7  -6    2.20    1.71
  -5   7  -6    2.05    0.97
   5  -7   6    2.59    0.78
   5  -7   6    2.38    0.81
   7   6  -6   12.24    1.69
   7   6  -6   11.11    1.55
  -7  -6   6   12.95    1.26
  -7  -6   6   11.78    1.09
  -7  -6   6   13.21    1.08
  -7  -6   6   12.28    1.49
   6   6  -6    0.33    0.32
   6   6  -6    0.27    0.36
   6   6  -6    0.22    0.61
  -6  -6   6    0.25    0.33
  -6  -6   6    0.54    0.44
  -6  -6   6    0.44    0.28
   5   6  -6    0.15    0.34
   5   6  -6   -0.19    0.43
   5   6  -6    0.25    0.43
  -5  -6   6   -0.36    2.30
  -5  -6   6    0.28    0.29
  -5  -6   6    0.83    2.10
  -5  -6   6   -0.69    0.28
   4   6  -6   59.83    3.78
   4   6  -6   59.19    3.70
   4   6  -6   54.79    3.62
   4   6  -6   51.77    3.64
  -4  -6   6   60.30    3.73
  -4  -6   6   48.46    6.74
  -4  -6   6   53.45   10.70
  -3  -6   6    1.82    2.23
  -3  -6   6    2.01    0.63
  -3  -6   6    0.82    2.39
  -2  -6   6  170.37   12.10
  -2  -6   6  118.30    8.72
  -2  -6   6  155.98   11.72
  -2  -6   6  135.65    9.28
   1   6  -6    0.20    1.07
   1   6  -6    0.12    0.20
   1   6  -6   -0.11    0.23
   1   6  -6   -0.05    0.21
   1   6  -6    0.06    0.28
  -1  -6   6    0.33    0.34
  -1  -6   6   -0.15    0.34
  -1  -6   6    0.80    0.49
  -1  -6   6    0.51    1.00
  -1  -6   6    0.14    1.07
   0   6  -6   21.83    4.52
   0   6  -6   19.40    3.71
   0   6  -6   17.79    1.57
   0   6  -6   19.11    1.51
   0  -6   6   19.68    1.72
   0  -6   6   18.18    1.60
   0  -6   6   16.40    1.78
   0  -6   6   21.37    3.17
  -1   6  -6   -0.05    1.50
  -1   6  -6    0.64    0.40
  -1   6  -6    1.59    1.62
  -1   6  -6   -0.42    0.44
   1  -6   6    0.02    0.43
   1  -6   6   -0.19    0.51
   1  -6   6    0.66    0.57
  -2   6  -6   69.31    4.27
  -2   6  -6   55.07    6.19
  -2   6  -6   63.61    4.64
   2  -6   6   61.85    4.51
   2  -6   6   64.17    4.58
   2  -6   6   62.77    4.69
   2  -6   6   71.69    5.46
  -3   6  -6    6.38    1.15
  -3   6  -6    1.80    1.53
  -3   6  -6    4.41    1.08
  -3   6  -6    5.18    1.96
   3  -6   6    4.12    1.15
   3  -6   6    6.36    1.05
   3  -6   6    5.86    0.96
   3  -6   6    6.78    1.15
  -4   6  -6   52.83    4.51
  -4   6  -6   56.24    5.67
  -4   6  -6   55.60    4.27
  -4   6  -6   57.85    5.72
   4  -6   6   58.37    4.37
   4  -6   6   71.92    5.01
   4  -6   6   63.47    4.30
   4  -6   6   55.77    4.32
  -5   6  -6    7.94    1.25
  -5   6  -6    4.27    1.64
  -5   6  -6    8.80    2.14
   5  -6   6   10.94    2.06
   5  -6   6    7.80    1.19
   7   5  -6   13.27    1.66
   7   5  -6   14.62    1.62
  -7  -5   6   15.35    1.64
  -7  -5   6   15.67    1.38
  -7  -5   6   13.06    1.21
  -7  -5   6   13.96    1.19
   6   5  -6    0.40    0.36
   6   5  -6    0.91    0.34
   6   5  -6    0.64    0.51
   6   5  -6    0.79    0.57
  -6  -5   6    1.14    0.40
  -6  -5   6    0.79    0.33
  -6  -5   6    0.27    0.28
  -6  -5   6    0.83    0.49
   5   5  -6   12.49    1.13
   5   5  -6   13.43    1.14
   5   5  -6   12.20    1.21
  -5  -5   6   13.87    1.42
  -5  -5   6   11.85    1.10
  -5  -5   6   10.56    3.26
   4   5  -6   37.84    2.59
   4   5  -6   35.22    2.42
   4   5  -6   34.52    2.49
  -4  -5   6   36.47    2.84
  -4  -5   6   36.24    2.51
   3   5  -6    2.10    0.34
   3   5  -6    1.33    0.29
   3   5  -6    2.78    0.62
   3   5  -6    1.46    0.47
  -3  -5   6    2.31    1.92
  -3  -5   6    1.16    0.42
  -3  -5   6   -0.41    1.72
   2   5  -6   19.67    1.95
   2   5  -6   26.00    1.71
   2   5  -6   20.42    2.10
   2   5  -6   27.56    1.69
  -2  -5   6   29.46    4.27
  -2  -5   6   25.05    2.33
  -2  -5   6   29.46    5.16
  -2  -5   6   24.83    1.87
   1   5  -6    4.78    0.87
   1   5  -6    2.19    0.57
   1   5  -6    3.22    0.56
   1   5  -6    1.46    1.19
  -1  -5   6    1.06    0.54
  -1  -5   6    4.84    1.80
  -1  -5   6    2.52    0.71
  -1  -5   6    3.32    1.65
  -1  -5   6    2.20    0.68
   0   5  -6    1.76    0.57
   0   5  -6    0.73    1.41
   0   5  -6    1.54    1.32
   0   5  -6    2.92    0.74
   0  -5   6    2.12    1.27
   0  -5   6    1.53    0.72
   0  -5   6    2.07    0.56
   0  -5   6    1.20    1.26
   0  -5   6    2.34    0.63
  -1   5  -6    0.92    1.42
  -1   5  -6    0.62    0.55
  -1   5  -6    0.89    0.59
  -1   5  -6    0.88    1.58
   1  -5   6    0.97    0.53
   1  -5   6    0.59    0.55
   1  -5   6    0.69    0.52
  -2   5  -6   19.47    1.69
  -2   5  -6   14.20    3.13
  -2   5  -6   13.75    3.25
  -2   5  -6   17.90    1.90
   2  -5   6   16.83    1.81
   2  -5   6   21.36    2.51
   2  -5   6   16.18    1.83
   2  -5   6   19.59    1.92
  -3   5  -6    2.01    1.45
  -3   5  -6    1.10    2.15
  -3   5  -6    1.48    0.73
  -3   5  -6   -0.32    0.63
   3  -5   6    1.00    0.62
   3  -5   6    1.71    0.59
   3  -5   6    0.49    0.60
   3  -5   6    1.26    0.91
  -4   5  -6    2.05    0.82
  -4   5  -6    2.86    0.95
  -4   5  -6    2.61    0.98
  -4   5  -6    3.80    1.50
  -4   5  -6    2.51    1.34
   4  -5   6    3.60    1.22
   4  -5   6    2.46    0.83
   4  -5   6    3.05    0.78
   4  -5   6    3.36    0.99
  -5   5  -6    2.29    0.86
  -5   5  -6    4.49    1.73
  -5   5  -6    2.47    1.62
   5  -5   6    3.90    1.06
   5  -5   6    3.36    0.86
   7   4  -6    4.72    0.87
   7   4  -6    4.67    1.11
  -7  -4   6    4.61    0.77
  -7  -4   6    3.47    0.59
  -7  -4   6    4.12    0.65
  -7  -4   6    2.10    0.67
   6   4  -6   27.89    2.19
   6   4  -6   26.56    2.24
   6   4  -6   31.20    2.09
  -6  -4   6   29.12    2.46
  -6  -4   6   29.67    2.07
  -6  -4   6   27.63    2.08
  -6  -4   6   31.25    2.21
   5   4  -6   11.28    1.06
   5   4  -6   10.49    1.09
   5   4  -6   11.30    1.05
  -5  -4   6   12.00    1.08
  -5  -4   6   11.60    0.99
  -5  -4   6   11.57    1.30
   4   4  -6   97.60    6.23
   4   4  -6   94.43    6.14
   4   4  -6   96.47    6.14
   4   4  -6   96.42    6.11
  -4  -4   6   97.03    6.53
  -4  -4   6   94.64    6.19
   3   4  -6    0.59    0.54
   3   4  -6    0.83    0.28
   3   4  -6    0.81    0.45
   3   4  -6    0.57    0.28
  -3  -4   6    1.16    1.73
  -3  -4   6    0.62    0.50
  -3  -4   6    0.59    1.38
   2   4  -6    0.48    0.51
   2   4  -6    0.65    0.29
   2   4  -6   -0.01    0.42
   2   4  -6    1.15    0.31
  -2  -4   6    1.28    1.48
  -2  -4   6    0.79    0.38
  -2  -4   6    0.31    0.46
  -2  -4   6    1.80    1.91
   1   4  -6    0.69    0.61
   1   4  -6    0.73    0.56
  -1  -4   6    0.51    1.01
  -1  -4   6   -0.19    0.44
  -1  -4   6    0.49    0.62
  -1  -4   6   -0.08    0.41
   0   4  -6   37.06    3.35
   0   4  -6   47.76    5.12
   0   4  -6   43.58    4.91
   0  -4   6   55.34    4.82
   0  -4   6   46.78    3.44
   0  -4   6   44.30    3.29
   0  -4   6   46.20    3.38
  -1   4  -6    3.42    2.00
  -1   4  -6    4.02    0.65
  -1   4  -6    3.14    1.50
  -1   4  -6    2.90    0.97
  -1   4  -6    3.86    0.88
   1  -4   6    5.36    0.97
   1  -4   6    3.55    0.91
   1  -4   6    4.87    0.96
  -2   4  -6  100.74    7.11
  -2   4  -6  106.74    7.01
  -2   4  -6  107.08    7.03
  -2   4  -6   95.16    8.41
  -2   4  -6   86.75    8.36
   2  -4   6  108.76    7.13
   2  -4   6  105.17    6.94
   2  -4   6  102.89    6.98
  -3   4  -6    5.95    1.66
  -3   4  -6   10.11    2.43
  -3   4  -6    8.75    1.34
  -3   4  -6    8.18    1.39
   3  -4   6    9.24    1.33
   3  -4   6   11.40    1.79
   3  -4   6    9.71    1.19
   3  -4   6    8.50    1.35
  -4   4  -6    3.67    1.10
  -4   4  -6    7.11    1.16
  -4   4  -6    5.93    1.69
  -4   4  -6    6.47    1.49
  -4   4  -6    5.15    1.53
   4  -4   6    5.29    0.96
   4  -4   6    6.06    1.31
   4  -4   6    8.08    1.63
  -5   4  -6    1.16    1.13
  -5   4  -6    1.30    1.23
  -5   4  -6    0.17    0.67
   5  -4   6   -0.36    0.61
   5  -4   6    0.90    0.68
  -6   4  -6    1.28    0.89
  -6   4  -6    1.91    1.29
  -6   4  -6    1.38    1.35
   6  -4   6    0.98    0.83
   6  -4   6   -0.41    0.59
   8   3  -6    0.65    0.73
   8   3  -6    0.15    0.69
  -8  -3   6   -0.06    0.46
  -8  -3   6   -0.64    0.41
  -8  -3   6    0.20    0.52
  -8  -3   6    0.20    0.48
   7   3  -6    9.49    1.17
   7   3  -6    9.56    1.28
  -7  -3   6   10.02    1.08
  -7  -3   6    9.69    1.27
  -7  -3   6    8.17    0.99
  -7  -3   6    9.02    0.94
   6   3  -6   -0.07    0.28
   6   3  -6    0.09    0.37
   6   3  -6    0.20    0.39
  -6  -3   6    0.72    0.32
  -6  -3   6    0.60    0.38
  -6  -3   6    0.35    0.27
  -6  -3   6   -0.09    0.32
   5   3  -6   16.82    1.38
   5   3  -6   15.83    1.41
   5   3  -6   17.42    1.44
   5   3  -6   17.33    1.38
  -5  -3   6   17.11    1.65
  -5  -3   6   15.49    1.29
  -5  -3   6   17.31    1.41
  -5  -3   6   16.08    1.33
   4   3  -6    9.46    0.90
   4   3  -6   10.62    0.99
   4   3  -6    8.88    0.90
  -4  -3   6    9.09    1.13
  -4  -3   6    9.01    0.95
  -4  -3   6    8.98    2.71
   3   3  -6   13.71    1.14
   3   3  -6   11.46    1.25
   3   3  -6   14.75    1.14
   3   3  -6   13.89    1.22
  -3  -3   6   10.27    2.98
  -3  -3   6   11.02    1.38
   2   3  -6   13.80    1.40
   2   3  -6   17.03    1.64
   2   3  -6   15.20    1.25
   2   3  -6   13.03    1.42
  -2  -3   6   12.83    1.25
  -2  -3   6   14.96    3.89
  -2  -3   6   14.55    1.68
  -2  -3   6   12.44    2.90
   1   3  -6  235.94   14.20
   1   3  -6  224.57   14.05
  -1  -3   6  241.82   16.20
  -1  -3   6  195.67   14.10
  -1  -3   6  254.19   16.18
  -1  -3   6  190.69   14.23
  -1  -3   6  218.58   14.21
   0   3  -6    1.53    0.77
   0   3  -6    3.28    1.08
   0   3  -6    4.39    1.72
   0   3  -6    3.42    1.55
   0  -3   6    3.10    0.69
   0  -3   6    4.15    0.82
   0  -3   6    2.80    1.15
   0  -3   6    2.80    0.76
   0  -3   6    4.46    1.39
  -1   3  -6  159.67    9.62
  -1   3  -6  160.94   12.00
  -1   3  -6  143.81   11.89
   1  -3   6  145.46    9.88
   1  -3   6  144.93    9.91
   1  -3   6  146.39   10.06
  -2   3  -6   36.33    4.40
  -2   3  -6   41.29    3.49
  -2   3  -6   39.28    3.58
  -2   3  -6   44.35    3.49
  -2   3  -6   38.12    4.56
   2  -3   6   46.31    3.56
   2  -3   6   53.44    4.40
   2  -3   6   46.00    3.38
   2  -3   6   41.38    3.39
  -3   3  -6    2.68    0.95
  -3   3  -6    2.08    0.78
  -3   3  -6    2.22    1.36
  -3   3  -6    2.10    0.94
  -3   3  -6    3.78    1.56
   3  -3   6    3.76    1.31
   3  -3   6    2.95    0.93
   3  -3   6    1.89    0.74
  -4   3  -6   31.71    3.69
  -4   3  -6   34.78    2.92
  -4   3  -6   37.63    3.83
   4  -3   6   36.49    3.23
   4  -3   6   39.73    4.93
   4  -3   6   34.60    3.02
   4  -3   6   34.13    2.85
  -5   3  -6   83.26    5.67
  -5   3  -6   78.20    6.49
  -5   3  -6   70.68    5.89
  -5   3  -6   84.21    6.64
   5  -3   6   80.63    5.70
   5  -3   6   86.78    5.92
  -6   3  -6   -0.17    1.09
  -6   3  -6    1.03    1.37
  -6   3  -6    0.46    0.79
   6  -3   6    0.62    0.63
   6  -3   6   -0.51    0.67
   8   2  -6    1.12    0.67
   8   2  -6    1.08    0.68
  -8  -2   6    0.17    0.48
  -8  -2   6   -0.01    0.47
  -8  -2   6    0.51    0.47
  -8  -2   6   -0.11    0.47
   7   2  -6    0.26    0.52
   7   2  -6    0.68    0.50
  -7  -2   6    0.42    0.40
  -7  -2   6    1.21    0.44
  -7  -2   6    0.88    0.56
  -7  -2   6    0.86    0.41
   6   2  -6   22.22    1.90
  -6  -2   6   24.11    1.76
  -6  -2   6   21.01    1.77
  -6  -2   6   25.82    2.13
  -6  -2   6   24.31    1.90
   5   2  -6   11.76    1.04
   5   2  -6    7.79    0.99
  -5  -2   6    9.94    0.95
  -5  -2   6   12.65    1.29
  -5  -2   6    9.50    0.92
  -5  -2   6    8.68    0.99
   4   2  -6   35.42    2.65
   4   2  -6   38.33    2.71
   4   2  -6   37.89    2.64
   4   2  -6   38.12    2.63
  -4  -2   6   38.14    2.72
  -4  -2   6   38.73    2.96
   3   2  -6    1.35    0.42
   3   2  -6    0.69    0.30
   3   2  -6    1.20    0.39
   3   2  -6    1.14    0.56
  -3  -2   6    0.48    0.41
  -3  -2   6    0.23    1.33
   2   2  -6    0.56    0.30
   2   2  -6    0.13    0.46
   2   2  -6    0.43    0.45
   2   2  -6    1.07    0.39
  -2  -2   6   -0.08    0.45
  -2  -2   6   -0.16    1.15
  -2  -2   6    0.37    0.35
  -2  -2   6    0.41    1.27
   1   2  -6   -0.16    0.54
   1   2  -6    0.14    0.46
  -1  -2   6   -0.24    0.44
  -1  -2   6   -0.86    0.44
  -1  -2   6   -0.10    0.98
  -1  -2   6    0.20    0.56
  -1  -2   6   -0.37    0.97
   0   2  -6   60.49    5.69
   0   2  -6   66.79    6.00
   0   2  -6   60.89    4.78
   0   2  -6   60.95    4.63
   0  -2   6   72.75    5.67
   0  -2   6   63.22    4.71
   0  -2   6   68.56    4.64
   0  -2   6   62.67    4.55
  -1   2  -6    4.87    1.99
  -1   2  -6    3.24    1.08
  -1   2  -6    5.39    0.87
  -1   2  -6    4.95    1.78
  -1   2  -6    3.90    1.10
   1  -2   6    6.12    1.11
   1  -2   6    6.97    1.30
   1  -2   6    3.54    0.88
  -2   2  -6   28.84    2.81
  -2   2  -6   26.08    2.95
  -2   2  -6   27.56    2.81
  -2   2  -6   28.86    3.76
  -2   2  -6   25.07    3.57
   2  -2   6   39.58    2.88
   2  -2   6   39.59    3.10
   2  -2   6   37.33    2.85
  -3   2  -6   10.77    1.42
  -3   2  -6    6.89    1.38
  -3   2  -6    7.88    1.84
  -3   2  -6    6.76    1.94
   3  -2   6    7.30    1.64
   3  -2   6   13.72    2.59
   3  -2   6   10.20    1.29
   3  -2   6    9.42    1.42
  -4   2  -6    1.31    1.05
  -4   2  -6    2.47    1.01
  -4   2  -6    0.61    0.69
  -4   2  -6    0.32    0.99
   4  -2   6    1.21    0.62
   4  -2   6    1.57    0.65
   4  -2   6    2.03    0.80
   4  -2   6    0.48    0.75
  -5   2  -6   -0.15    0.65
  -5   2  -6   -0.15    0.91
  -5   2  -6   -0.29    1.02
  -5   2  -6    0.62    0.98
   5  -2   6    0.43    0.62
   5  -2   6   -0.02    0.55
  -6   2  -6    2.06    1.38
  -6   2  -6    2.74    1.45
  -6   2  -6    1.10    0.87
   6  -2   6    1.62    0.93
   6  -2   6    1.11    0.80
   8   1  -6    6.38    1.05
   8   1  -6    4.73    0.95
  -8  -1   6    5.85    0.84
  -8  -1   6    5.23    0.89
  -8  -1   6    4.89    1.02
  -8  -1   6    6.97    0.99
   7   1  -6   39.99    3.13
   7   1  -6   42.05    3.07
  -7  -1   6   44.69    3.08
  -7  -1   6   41.81    2.96
  -7  -1   6   40.81    3.00
   6   1  -6    2.40    0.67
   6   1  -6    3.01    0.60
  -6  -1   6    2.74    0.71
  -6  -1   6    1.51    0.43
  -6  -1   6    2.19    0.48
  -6  -1   6    2.32    0.60
   5   1  -6   35.23    2.59
   5   1  -6   37.47    2.67
  -5  -1   6   38.64    2.67
  -5  -1   6   36.02    2.57
  -5  -1   6   35.73    2.53
  -5  -1   6   31.89    3.08
   4   1  -6   60.43    4.04
   4   1  -6   56.49    3.97
   4   1  -6   61.93    3.99
   4   1  -6   60.15    4.05
  -4  -1   6   59.31    4.27
  -4  -1   6   57.96    4.05
   3   1  -6   12.32    1.11
   3   1  -6    9.93    1.13
   3   1  -6   11.01    1.07
  -3  -1   6   10.87    1.29
   2   1  -6   59.63    3.95
   2   1  -6   59.34    3.82
   2   1  -6   56.74    3.71
   2   1  -6   50.83    3.78
  -2  -1   6   50.61    3.65
  -2  -1   6   42.86    5.17
  -2  -1   6   46.95    4.04
  -2  -1   6   41.43    4.94
   1   1  -6   51.00    3.80
   1   1  -6   56.97    4.02
  -1  -1   6   43.36    3.82
  -1  -1   6   54.78    5.24
  -1  -1   6   50.04    3.94
  -1  -1   6   58.68    5.47
  -1  -1   6   41.26    3.94
   0   1  -6    6.55    1.31
   0   1  -6    5.76    1.78
   0  -1   6    4.64    0.91
   0  -1   6    4.97    1.40
   0  -1   6    4.59    1.29
   0  -1   6    3.99    0.92
   0  -1   6    6.59    1.19
  -1   1  -6   23.43    3.18
  -1   1  -6   16.84    3.18
  -1   1  -6   19.28    2.24
  -1   1  -6   21.00    1.86
  -1   1  -6   18.60    2.09
   1  -1   6   17.85    2.02
   1  -1   6   16.74    1.83
  -2   1  -6   12.98    2.73
  -2   1  -6   11.85    1.90
  -2   1  -6   10.18    2.03
  -2   1  -6   14.23    1.94
   2  -1   6   14.31    1.86
   2  -1   6   16.13    2.21
   2  -1   6   17.09    1.80
   2  -1   6   16.67    1.83
  -3   1  -6    0.25    0.87
  -3   1  -6    0.79    0.61
  -3   1  -6    0.68    0.90
  -3   1  -6   -0.08    0.71
   3  -1   6    0.65    0.54
   3  -1   6    0.41    0.69
   3  -1   6    0.29    0.54
  -4   1  -6    0.62    0.89
  -4   1  -6   -0.03    0.58
  -4   1  -6    0.99    0.94
  -4   1  -6    0.43    0.84
  -4   1  -6    1.56    1.05
   4  -1   6    1.54    0.77
   4  -1   6    0.16    0.66
  -5   1  -6    1.38    1.84
  -5   1  -6    0.48    1.12
  -5   1  -6   -0.14    0.86
  -5   1  -6    0.51    0.93
  -5   1  -6   -0.72    0.60
   5  -1   6    0.43    0.95
   5  -1   6    0.15    0.62
   5  -1   6    1.82    1.05
   5  -1   6    0.12    0.71
  -6   1  -6   -0.03    0.75
  -6   1  -6    0.15    1.06
  -6   1  -6    0.03    1.12
   6  -1   6   -0.24    0.80
   6  -1   6    0.42    0.81
   8   0  -6   11.33    1.51
   8   0  -6   15.18    1.71
  -8   0   6   14.75    1.39
  -8   0   6   14.66    1.49
  -8   0   6   13.76    1.46
  -8   0   6   13.82    1.61
   7   0  -6   19.11    1.71
   7   0  -6   16.63    1.72
  -7   0   6   19.84    1.65
  -7   0   6   17.84    1.67
  -7   0   6   20.49    1.63
  -7   0   6   18.63    1.83
   6   0  -6   -0.26    0.37
   6   0  -6   -0.07    0.32
   6   0  -6    0.45    0.38
   6   0  -6   -0.07    0.33
  -6   0   6    0.07    0.29
  -6   0   6   -0.35    0.32
  -6   0   6    0.41    0.33
  -6   0   6   -0.33    0.29
   5   0  -6    1.00    0.47
   5   0  -6    0.38    0.33
   5   0  -6    0.34    0.31
  -5   0   6    0.97    0.42
  -5   0   6    1.11    0.35
  -5   0   6    0.08    0.34
  -5   0   6    0.47    0.33
   4   0  -6  110.04    6.72
   4   0  -6  103.75    6.77
   4   0  -6  104.77    6.79
   4   0  -6  104.49    6.72
  -4   0   6  104.76    6.80
  -4   0   6  106.05    6.98
  -4   0   6   93.49    6.64
   3   0  -6    6.82    0.89
   3   0  -6    4.82    0.88
   3   0  -6    7.60    0.85
   3   0  -6    8.29    0.86
  -3   0   6    7.34    1.02
   2   0  -6  266.72   16.44
   2   0  -6  261.05   16.53
   2   0  -6  270.49   16.35
  -2   0   6  241.46   16.34
   1   0  -6    0.58    0.51
   1   0  -6    0.02    0.44
  -1   0   6   -0.49    0.62
  -1   0   6    0.26    0.96
  -1   0   6    0.15    1.06
  -1   0   6   -0.01    0.52
  -1   0   6    0.03    0.54
   0   0  -6   20.29    1.91
   0   0   6   17.38    1.99
   0   0   6   20.14    1.92
   0   0   6   22.53    2.64
   0   0   6   17.91    1.96
   0   0   6   18.91    2.44
  -1   0  -6    0.00    0.42
  -1   0  -6   -0.21    0.91
  -1   0  -6   -0.50    0.60
  -1   0  -6    0.15    0.64
  -1   0  -6    1.58    1.05
   1   0   6    1.13    0.65
   1   0   6   -0.26    0.42
   1   0   6    0.26    0.46
  -2   0  -6   88.90    6.96
  -2   0  -6   93.57    6.80
  -2   0  -6   79.96    7.27
  -2   0  -6   78.97    7.19
  -2   0  -6   89.24    6.58
   2   0   6  103.11    6.85
   2   0   6  101.62    6.62
   2   0   6   96.99    6.58
  -3   0  -6    8.44    1.30
  -3   0  -6    7.73    1.70
  -3   0  -6    8.46    1.83
  -3   0  -6    6.44    1.59
  -3   0  -6    5.83    1.41
   3   0   6   10.10    1.52
   3   0   6   12.31    1.89
   3   0   6    7.81    1.31
   3   0   6   13.88    1.79
  -4   0  -6   78.24    6.64
  -4   0  -6   96.62    6.45
  -4   0  -6   93.84    6.96
  -4   0  -6   99.57    7.09
  -4   0  -6   72.07    6.75
   4   0   6  103.57    6.60
   4   0   6   99.45    6.77
  -5   0  -6   12.25    2.03
  -5   0  -6    9.92    1.45
  -5   0  -6    8.88    1.78
  -5   0  -6   14.21    2.05
  -5   0  -6    6.51    1.63
   5   0   6    9.57    1.57
   5   0   6   11.55    1.63
   5   0   6   11.32    1.71
   5   0   6    9.70    1.71
  -6   0  -6    3.20    1.26
  -6   0  -6    1.79    1.36
  -6   0  -6    4.28    1.41
  -6   0  -6    1.28    0.87
   6   0   6    3.16    1.02
   6   0   6    1.03    1.02
   8  -1  -6    6.62    1.03
   8  -1  -6    5.04    1.02
  -8   1   6    4.51    0.97
  -8   1   6    6.50    0.91
  -8   1   6    6.06    0.92
   7  -1  -6   47.32    3.69
   7  -1  -6   46.47    3.46
   7  -1  -6   41.93    3.25
  -7   1   6   41.36    3.07
  -7   1   6   42.15    3.18
  -7   1   6   42.26    3.35
  -7   1   6   45.01    3.16
   6  -1  -6    2.38    0.61
   6  -1  -6    3.32    0.79
   6  -1  -6    2.98    0.60
   6  -1  -6    3.66    0.67
  -6   1   6    2.82    0.65
  -6   1   6    3.98    0.73
  -6   1   6    1.56    0.47
  -6   1   6    2.29    0.59
   5  -1  -6   38.48    2.63
   5  -1  -6   37.20    2.68
   5  -1  -6   35.20    2.69
  -5   1   6   33.44    2.61
  -5   1   6   36.27    2.60
  -5   1   6   35.11    2.81
  -5   1   6   37.22    2.70
   4  -1  -6   61.03    3.98
   4  -1  -6   59.32    4.00
   4  -1  -6   60.30    4.06
   4  -1  -6   59.50    4.05
  -4   1   6   56.70    4.16
  -4   1   6   58.79    4.05
  -4   1   6   53.01    3.91
   3  -1  -6   11.86    1.11
   3  -1  -6   10.32    1.06
   3  -1  -6   11.84    1.17
   3  -1  -6   10.40    1.14
  -3   1   6   10.18    1.15
  -3   1   6    9.92    1.22
   2  -1  -6   64.99    4.41
   2  -1  -6   59.94    4.07
   2  -1  -6   56.30    3.94
   2  -1  -6   62.20    4.01
  -2   1   6   45.81    4.81
  -2   1   6   50.58    4.19
  -2   1   6   48.27    3.95
   1  -1  -6   59.26    4.22
   1  -1  -6   59.51    3.98
  -1   1   6   45.07    4.12
  -1   1   6   48.99    4.01
  -1   1   6   44.43    4.79
  -1   1   6   45.12    4.90
  -1   1   6   40.90    3.84
   0  -1  -6    5.34    0.94
   0  -1  -6    4.40    1.19
   0  -1  -6    5.76    1.06
   0   1   6    8.09    1.76
   0   1   6    4.35    1.00
   0   1   6    2.95    0.90
   0   1   6    4.68    1.07
   0   1   6    4.71    1.29
  -1  -1  -6   22.26    2.27
  -1  -1  -6   20.26    2.56
  -1  -1  -6   21.90    2.11
  -1  -1  -6   20.23    2.90
  -1  -1  -6   22.03    2.12
   1   1   6   20.45    2.07
   1   1   6   20.54    2.20
   1   1   6   22.66    2.21
  -2  -1  -6   15.27    2.45
  -2  -1  -6   13.47    2.50
  -2  -1  -6   10.96    2.40
  -2  -1  -6   15.83    2.16
  -2  -1  -6   11.53    1.81
   2   1   6   17.17    1.96
   2   1   6   17.33    2.13
   2   1   6   14.50    1.92
   2   1   6   14.01    1.72
  -3  -1  -6    0.62    0.93
  -3  -1  -6    1.01    0.72
  -3  -1  -6   -0.14    0.83
  -3  -1  -6    0.21    0.87
  -3  -1  -6    0.93    1.10
   3   1   6    0.34    0.76
   3   1   6    3.60    1.06
   3   1   6    2.81    0.94
  -4  -1  -6    1.13    0.81
  -4  -1  -6    0.76    0.88
  -4  -1  -6    1.07    0.67
  -4  -1  -6    1.50    1.12
  -4  -1  -6    1.57    1.07
   4   1   6    1.32    0.78
   4   1   6    1.42    0.82
   4   1   6    0.99    0.66
  -5  -1  -6    0.22    0.66
  -5  -1  -6    1.18    0.91
  -5  -1  -6    0.39    0.79
  -5  -1  -6    1.69    1.14
  -5  -1  -6    0.11    1.11
   5   1   6   -0.81    0.72
   5   1   6    0.68    0.64
   5   1   6    0.34    0.78
   5   1   6   -0.30    0.63
  -6  -1  -6   -0.12    0.90
  -6  -1  -6    0.32    1.05
  -6  -1  -6    0.49    1.28
  -6  -1  -6    0.66    1.09
   6   1   6    0.02    0.77
   6   1   6   -0.73    0.75
   8  -2  -6    0.32    0.55
   8  -2  -6   -0.39    0.56
  -8   2   6    0.04    0.46
  -8   2   6    0.76    0.61
  -8   2   6    0.25    0.48
  -8   2   6    0.18    0.46
   7  -2  -6    0.68    0.84
   7  -2  -6    1.80    0.68
   7  -2  -6    0.39    0.37
  -7   2   6    0.77    0.46
  -7   2   6    0.13    0.50
  -7   2   6    0.26    0.43
  -7   2   6    0.09    0.41
   6  -2  -6   21.96    1.94
   6  -2  -6   24.72    1.95
   6  -2  -6   22.64    2.01
  -6   2   6   23.32    1.94
  -6   2   6   24.08    1.90
  -6   2   6   25.74    2.01
  -6   2   6   26.51    2.14
   5  -2  -6    9.18    1.10
   5  -2  -6   11.73    1.14
   5  -2  -6    8.95    1.02
  -5   2   6    8.23    1.09
  -5   2   6   11.04    1.07
  -5   2   6   12.57    1.23
  -5   2   6   10.51    1.09
   4  -2  -6   39.28    2.76
   4  -2  -6   34.81    2.80
   4  -2  -6   38.99    2.79
  -4   2   6   36.69    2.82
  -4   2   6   39.84    2.94
   3  -2  -6    0.78    0.40
   3  -2  -6    0.61    0.38
   3  -2  -6    1.42    0.56
   3  -2  -6    0.40    0.32
  -3   2   6    0.60    0.38
  -3   2   6    0.50    0.39
   2  -2  -6    0.25    0.46
   2  -2  -6    0.71    0.36
   2  -2  -6    0.21    0.36
   2  -2  -6    0.58    0.46
  -2   2   6    1.75    0.64
  -2   2   6   -0.81    0.68
   1  -2  -6   -0.01    0.46
   1  -2  -6   -0.05    0.47
  -1   2   6    0.47    0.61
  -1   2   6   -0.23    0.93
  -1   2   6   -0.18    0.39
  -1   2   6   -0.72    0.79
  -1   2   6   -0.13    0.93
   0  -2  -6   67.70    4.83
   0  -2  -6   66.06    4.99
   0  -2  -6   60.01    5.11
   0   2   6   73.65    5.45
   0   2   6   75.58    5.14
   0   2   6   77.06    5.41
   0   2   6   59.67    5.00
  -1  -2  -6    6.60    1.20
  -1  -2  -6    6.52    1.36
  -1  -2  -6    5.46    1.14
   1   2   6    6.06    1.22
   1   2   6    4.44    1.00
   1   2   6    5.33    1.10
  -2  -2  -6   34.66    4.23
  -2  -2  -6   36.50    3.43
  -2  -2  -6   34.83    3.66
  -2  -2  -6   33.78    3.28
  -2  -2  -6   36.85    3.76
   2   2   6   38.17    3.40
   2   2   6   38.06    3.21
   2   2   6   39.33    3.52
   2   2   6   41.71    3.41
  -3  -2  -6    6.89    1.87
  -3  -2  -6    7.58    1.68
  -3  -2  -6    6.18    1.25
  -3  -2  -6    6.35    1.53
  -3  -2  -6    6.34    1.64
   3   2   6    9.00    1.53
   3   2   6   11.58    1.95
   3   2   6    9.29    1.70
  -4  -2  -6    0.17    0.98
  -4  -2  -6    0.85    0.85
  -4  -2  -6    1.12    0.71
  -4  -2  -6    0.93    0.83
  -4  -2  -6   -0.07    0.92
   4   2   6    0.63    0.73
   4   2   6    1.28    0.89
   4   2   6    0.37    0.64
   4   2   6    1.69    0.90
  -5  -2  -6   -0.42    1.17
  -5  -2  -6    0.35    1.17
  -5  -2  -6   -0.05    1.23
  -5  -2  -6   -0.61    0.74
  -5  -2  -6    0.28    0.67
   5   2   6    0.00    0.88
   5   2   6   -0.03    0.91
   5   2   6    0.14    0.88
   5   2   6    0.69    0.78
  -6  -2  -6    5.03    1.33
  -6  -2  -6    0.42    0.87
  -6  -2  -6    3.52    1.24
   6   2   6    2.43    1.09
   6   2   6   -0.04    0.86
   8  -3  -6    1.48    0.69
   8  -3  -6    0.96    0.69
  -8   3   6    1.11    0.58
  -8   3   6    0.40    0.57
  -8   3   6    0.40    0.54
  -8   3   6    0.06    0.58
   7  -3  -6    7.87    1.20
   7  -3  -6    9.81    1.24
   7  -3  -6   10.51    1.25
  -7   3   6   10.16    1.27
  -7   3   6    8.35    1.15
  -7   3   6   12.46    1.26
  -7   3   6    9.51    1.11
   6  -3  -6   -0.14    0.40
   6  -3  -6    0.29    0.40
   6  -3  -6    0.09    0.40
  -6   3   6   -0.29    0.31
  -6   3   6    0.25    0.41
  -6   3   6    0.31    0.38
  -6   3   6    0.17    0.39
   5  -3  -6   17.95    1.61
   5  -3  -6   18.37    1.54
   5  -3  -6   18.17    1.57
  -5   3   6   16.74    1.56
  -5   3   6   14.72    1.55
  -5   3   6   18.33    1.56
  -5   3   6   16.01    1.47
   4  -3  -6    9.57    1.09
   4  -3  -6    9.89    1.13
   4  -3  -6    8.79    1.01
   4  -3  -6    9.78    1.06
  -4   3   6    8.79    1.07
  -4   3   6    9.50    1.11
   3  -3  -6   12.26    1.31
   3  -3  -6   10.84    1.26
   3  -3  -6   12.43    1.36
   3  -3  -6   13.28    1.24
  -3   3   6   13.56    1.33
  -3   3   6    9.44    1.29
  -3   3   6   12.19    1.29
   2  -3  -6   17.07    1.52
   2  -3  -6   17.73    1.65
   2  -3  -6   15.40    1.60
  -2   3   6   15.13    1.62
  -2   3   6   11.56    1.59
   1  -3  -6  216.99   13.19
   1  -3  -6  222.40   12.99
  -1   3   6  224.63   13.38
  -1   3   6  176.07   13.36
  -1   3   6  177.71   13.46
  -1   3   6  179.34   13.06
   0  -3  -6    3.54    0.78
   0  -3  -6    3.27    1.00
   0  -3  -6    2.42    0.79
   0   3   6    4.25    1.08
   0   3   6    3.42    1.20
   0   3   6    3.19    0.94
   0   3   6    3.01    0.94
   0   3   6    1.95    0.76
  -1  -3  -6  155.88   10.86
  -1  -3  -6  160.20   10.72
  -1  -3  -6  159.26   10.68
   1   3   6  165.46   11.01
   1   3   6  166.58   10.81
  -2  -3  -6   35.50    3.82
  -2  -3  -6   48.75    4.00
  -2  -3  -6   48.67    4.06
  -2  -3  -6   53.60    4.00
   2   3   6   50.42    4.07
   2   3   6   47.97    4.05
   2   3   6   51.16    4.07
   2   3   6   45.41    3.79
  -3  -3  -6    1.08    1.15
  -3  -3  -6    2.10    1.33
  -3  -3  -6    1.62    0.91
  -3  -3  -6    2.84    1.19
  -3  -3  -6    2.55    1.13
   3   3   6    1.55    0.74
   3   3   6    1.72    0.88
   3   3   6    1.85    0.81
   3   3   6    4.07    1.08
  -4  -3  -6   26.04    3.27
  -4  -3  -6   29.14    2.94
  -4  -3  -6   29.54    2.95
  -4  -3  -6   29.70    2.72
  -4  -3  -6   23.71    3.03
   4   3   6   33.31    2.94
   4   3   6   29.57    3.02
   4   3   6   33.55    3.23
  -5  -3  -6   78.09    5.71
  -5  -3  -6   68.62    5.85
  -5  -3  -6   77.50    5.53
  -5  -3  -6   72.69    5.58
  -5  -3  -6   62.02    6.02
   5   3   6   72.72    5.87
   5   3   6   78.36    5.76
   5   3   6   89.20    5.86
  -6  -3  -6   -2.02    1.30
  -6  -3  -6    0.24    0.85
  -6  -3  -6   -0.06    0.89
  -6  -3  -6   -0.29    1.00
   6   3   6    0.37    1.06
   6   3   6    1.12    0.95
   7  -4  -6    3.20    0.71
   7  -4  -6    2.59    0.73
   7  -4  -6    3.43    0.78
   7  -4  -6    3.90    0.76
  -7   4   6    2.75    0.70
  -7   4   6    4.28    0.83
  -7   4   6    4.29    0.79
  -7   4   6    3.31    0.83
   6  -4  -6   26.79    2.34
   6  -4  -6   28.93    2.27
   6  -4  -6   28.93    2.32
  -6   4   6   28.52    2.39
  -6   4   6   31.77    2.84
  -6   4   6   30.55    2.36
  -6   4   6   28.40    2.30
   5  -4  -6   13.72    1.29
   5  -4  -6   10.80    1.28
   5  -4  -6   12.27    1.30
   5  -4  -6   11.57    1.23
  -5   4   6   11.43    1.17
  -5   4   6   13.27    1.32
  -5   4   6   10.95    1.21
  -5   4   6   13.16    1.29
   4  -4  -6  101.39    6.72
   4  -4  -6   93.59    6.68
   4  -4  -6  103.93    6.66
   4  -4  -6  101.59    6.61
  -4   4   6   97.43    6.65
  -4   4   6  103.36    6.68
   3  -4  -6    0.70    0.44
   3  -4  -6    0.94    0.46
   3  -4  -6    0.32    0.41
   3  -4  -6    0.19    0.37
  -3   4   6    0.65    0.41
  -3   4   6    0.57    0.47
  -3   4   6    0.41    0.29
   2  -4  -6    0.59    0.41
   2  -4  -6    2.19    0.64
   2  -4  -6    1.57    0.58
   2  -4  -6    1.08    0.60
  -2   4   6    1.38    0.62
  -2   4   6    0.88    0.65
   1  -4  -6   -0.16    0.48
   1  -4  -6   -0.07    0.56
   1  -4  -6    0.44    0.52
  -1   4   6   -1.06    0.79
  -1   4   6   -0.31    0.59
  -1   4   6    1.21    0.89
  -1   4   6   -0.39    0.68
  -1   4   6   -0.23    0.55
   0  -4  -6   48.14    4.25
   0  -4  -6   49.68    4.11
   0  -4  -6   45.12    3.82
   0   4   6   56.92    3.96
   0   4   6   56.66    3.92
   0   4   6   50.97    4.08
  -1  -4  -6    2.95    0.85
  -1  -4  -6    4.48    1.08
  -1  -4  -6    2.59    0.98
   1   4   6    6.91    1.32
   1   4   6    3.01    0.87
   1   4   6    4.23    1.09
  -2  -4  -6  113.04    7.94
  -2  -4  -6  112.79    7.73
  -2  -4  -6   97.89    7.86
   2   4   6  120.66    7.82
   2   4   6  113.23    7.88
   2   4   6  109.69    7.84
  -3  -4  -6    8.58    2.00
  -3  -4  -6   11.25    1.71
  -3  -4  -6    9.20    1.82
  -3  -4  -6    8.41    1.51
  -3  -4  -6    6.74    1.43
   3   4   6   11.22    1.86
   3   4   6    7.20    1.74
   3   4   6   10.92    1.66
   3   4   6   10.78    1.82
  -4  -4  -6    5.09    1.31
  -4  -4  -6    5.53    1.89
  -4  -4  -6    5.65    1.63
  -4  -4  -6    5.67    1.58
  -4  -4  -6    4.81    1.10
   4   4   6    3.67    1.20
   4   4   6    3.79    1.25
   4   4   6    6.42    1.31
   4   4   6    6.57    1.46
  -5  -4  -6    1.15    0.95
  -5  -4  -6    0.68    0.93
  -5  -4  -6    1.62    0.89
  -5  -4  -6    0.98    1.40
  -5  -4  -6    0.76    1.25
   5   4   6    1.48    0.94
   5   4   6    1.21    1.06
   5   4   6    0.43    0.82
  -6  -4  -6    1.48    1.05
  -6  -4  -6    1.43    1.56
  -6  -4  -6    0.74    0.97
  -6  -4  -6    1.23    1.07
   6   4   6    2.09    1.13
   6   4   6    1.91    1.22
   7  -5  -6   16.16    1.55
   7  -5  -6   12.98    1.53
   7  -5  -6   13.74    1.49
  -7   5   6   12.99    1.46
  -7   5   6   14.81    1.55
  -7   5   6   14.11    1.46
  -7   5   6   12.75    1.45
   6  -5  -6    0.69    0.49
   6  -5  -6   -0.51    0.38
   6  -5  -6    0.84    0.51
  -6   5   6    0.87    0.47
  -6   5   6    0.54    0.41
  -6   5   6    0.21    0.39
  -6   5   6    0.51    0.48
   5  -5  -6   12.56    1.32
   5  -5  -6   13.12    1.32
   5  -5  -6   13.62    1.41
  -5   5   6   12.33    1.32
  -5   5   6   12.48    1.32
  -5   5   6   13.89    1.33
   4  -5  -6   38.11    2.84
   4  -5  -6   35.60    2.91
   4  -5  -6   37.97    2.88
   4  -5  -6   36.74    2.92
  -4   5   6   39.07    2.86
  -4   5   6   39.92    2.90
   3  -5  -6    2.47    0.72
   3  -5  -6    2.52    0.62
   3  -5  -6    1.67    0.60
   3  -5  -6    2.05    0.57
  -3   5   6    3.23    0.72
  -3   5   6    2.63    0.80
  -3   5   6    1.19    0.44
   2  -5  -6   25.96    2.34
   2  -5  -6   26.98    2.27
   2  -5  -6   27.58    2.24
   2  -5  -6   27.31    2.34
  -2   5   6   26.18    2.25
  -2   5   6   24.75    2.17
  -2   5   6   22.31    2.55
   1  -5  -6    2.51    0.81
   1  -5  -6    4.63    1.05
   1  -5  -6    2.41    0.86
   1  -5  -6    5.37    1.13
  -1   5   6    7.41    1.49
  -1   5   6    1.32    0.94
  -1   5   6    2.18    0.75
  -1   5   6    1.86    0.90
   0  -5  -6    1.14    0.81
   0  -5  -6    2.67    0.72
   0  -5  -6    1.00    0.69
   0   5   6    2.41    0.89
   0   5   6    2.34    0.90
   0   5   6    0.48    0.69
  -1  -5  -6    0.67    0.58
  -1  -5  -6    0.89    0.69
  -1  -5  -6    0.44    0.82
   1   5   6    0.96    0.76
   1   5   6    0.51    0.64
   1   5   6    0.51    0.74
  -2  -5  -6   19.59    2.27
  -2  -5  -6   16.01    2.01
  -2  -5  -6   12.59    2.46
   2   5   6   20.99    2.13
   2   5   6   18.69    2.03
   2   5   6   18.21    2.13
   2   5   6   19.04    2.22
  -3  -5  -6    0.06    0.86
  -3  -5  -6    1.35    0.96
  -3  -5  -6    0.91    1.22
   3   5   6    1.41    0.77
   3   5   6    1.50    0.79
   3   5   6    0.64    0.79
  -4  -5  -6    2.27    1.09
  -4  -5  -6    1.17    1.35
  -4  -5  -6    1.77    1.55
  -4  -5  -6    0.70    0.92
   4   5   6    3.20    0.99
   4   5   6    2.98    1.09
   4   5   6    2.21    0.98
   4   5   6    2.41    1.13
  -5  -5  -6    4.17    1.23
  -5  -5  -6    2.72    1.49
  -5  -5  -6    0.65    1.30
  -5  -5  -6    1.48    1.04
   5   5   6    1.39    0.97
   5   5   6    6.15    1.67
   5   5   6    3.53    1.10
   7  -6  -6   11.76    1.47
   7  -6  -6   12.44    1.42
   7  -6  -6   12.33    1.44
  -7   6   6   13.60    1.46
  -7   6   6   11.45    1.43
  -7   6   6   12.12    1.37
   6  -6  -6   -0.31    0.41
   6  -6  -6    0.17    0.35
   6  -6  -6    0.77    0.51
  -6   6   6    0.04    0.38
  -6   6   6    0.33    0.50
  -6   6   6   -0.22    0.51
  -6   6   6    0.44    0.46
   5  -6  -6    0.65    0.50
   5  -6  -6    0.36    0.45
   5  -6  -6   -0.26    0.37
   5  -6  -6    0.17    0.85
  -5   6   6   -0.51    0.32
  -5   6   6   -0.14    0.35
  -5   6   6    0.17    0.43
   4  -6  -6   68.90    4.52
   4  -6  -6   63.97    4.57
   4  -6  -6   62.43    4.46
  -4   6   6   60.58    4.45
  -4   6   6   64.68    4.42
   3  -6  -6    2.09    0.60
   3  -6  -6    0.75    0.43
   3  -6  -6    1.03    0.44
   3  -6  -6    1.28    0.39
  -3   6   6    1.75    0.61
  -3   6   6    1.70    0.75
  -3   6   6    2.14    0.55
   2  -6  -6  138.94    9.28
   2  -6  -6  140.01    9.17
   2  -6  -6  141.98    9.34
   2  -6  -6  152.42    9.26
  -2   6   6  132.52    9.02
  -2   6   6  139.18    9.17
  -2   6   6  130.31    9.74
   1  -6  -6    0.44    0.55
   1  -6  -6   -0.06    0.39
   1  -6  -6    0.32    0.54
   1  -6  -6    0.82    0.59
  -1   6   6    1.00    0.63
  -1   6   6    0.44    0.83
  -1   6   6    0.53    0.77
   0  -6  -6   11.23    1.83
   0  -6  -6   16.98    2.00
   0  -6  -6   18.42    1.79
   0   6   6   20.34    2.07
   0   6   6   14.21    2.17
   0   6   6   12.60    2.26
  -1  -6  -6    0.47    0.70
  -1  -6  -6    0.19    0.50
  -1  -6  -6   -0.26    0.74
   1   6   6    0.02    0.66
   1   6   6   -0.30    0.74
   1   6   6   -0.64    0.55
   1   6   6    0.42    0.75
  -2  -6  -6   64.74    5.15
  -2  -6  -6   67.96    5.26
  -2  -6  -6   63.60    4.97
   2   6   6   68.80    5.34
   2   6   6   66.15    4.94
   2   6   6   70.23    5.14
   2   6   6   62.97    5.01
  -3  -6  -6    6.28    1.62
  -3  -6  -6    4.28    1.26
  -3  -6  -6    4.75    1.42
   3   6   6    4.57    1.10
   3   6   6    7.00    1.30
   3   6   6    5.46    1.04
  -4  -6  -6   56.04    4.88
  -4  -6  -6   46.67    4.49
  -4  -6  -6   52.23    5.11
   4   6   6   62.54    4.76
   4   6   6   51.52    4.18
   4   6   6   58.54    4.34
   4   6   6   58.50    4.49
  -5  -6  -6    5.91    1.93
  -5  -6  -6    4.00    1.78
   5   6   6    4.98    1.31
   5   6   6    6.83    1.41
   7  -7  -6   38.24    3.16
   7  -7  -6   39.85    3.08
  -7   7   6   43.94    3.10
  -7   7   6   36.04    3.06
  -7   7   6   39.99    3.12
   6  -7  -6    1.47    0.68
   6  -7  -6    2.11    0.70
   6  -7  -6    2.46    0.65
  -6   7   6    2.23    0.69
  -6   7   6    1.80    0.69
  -6   7   6    2.14    0.64
   5  -7  -6   36.35    2.79
   5  -7  -6   35.71    2.88
   5  -7  -6   36.85    2.85
   5  -7  -6   33.35    2.72
  -5   7   6   35.34    2.70
  -5   7   6   35.43    2.75
   4  -7  -6   39.94    3.17
   4  -7  -6   40.28    3.11
   4  -7  -6   43.32    3.26
   4  -7  -6   40.62    3.13
  -4   7   6   36.97    3.39
  -4   7   6   43.13    3.12
  -4   7   6   43.68    3.02
   3  -7  -6   11.23    1.37
   3  -7  -6   13.89    1.51
   3  -7  -6   13.51    1.60
   3  -7  -6   14.54    1.50
  -3   7   6   16.39    1.49
  -3   7   6   11.09    2.21
  -3   7   6   15.86    1.34
   2  -7  -6   33.26    2.63
   2  -7  -6   28.39    2.70
   2  -7  -6   32.00    2.61
   2  -7  -6   27.01    2.73
  -2   7   6   31.81    2.53
  -2   7   6   32.94    2.39
  -2   7   6   27.62    3.19
   1  -7  -6   70.68    5.06
   1  -7  -6   66.89    5.17
   1  -7  -6   77.66    5.07
   1  -7  -6   67.87    5.00
  -1   7   6   68.46    4.83
  -1   7   6   81.34    5.35
  -1   7   6   56.18    4.72
  -1   7   6   60.77    4.97
  -1   7   6   62.18    4.69
   0  -7  -6    3.15    1.23
   0  -7  -6    0.96    0.82
   0   7   6    0.64    0.85
   0   7   6    1.08    0.84
   0   7   6    1.78    1.06
  -1  -7  -6   29.97    2.83
  -1  -7  -6   32.79    2.77
  -1  -7  -6   30.16    3.06
   1   7   6   29.51    3.23
   1   7   6   31.27    2.98
   1   7   6   30.68    2.69
   1   7   6   31.24    3.10
  -2  -7  -6    9.26    1.54
  -2  -7  -6   11.47    1.95
  -2  -7  -6    6.43    1.38
   2   7   6    9.13    1.67
   2   7   6    8.11    1.75
   2   7   6    7.72    1.55
   2   7   6    9.49    1.49
  -3  -7  -6   -0.93    0.88
  -3  -7  -6   -0.83    0.88
  -3  -7  -6    0.44    0.76
   3   7   6    0.15    0.73
   3   7   6    0.29    0.61
   3   7   6    0.38    0.76
  -4  -7  -6    0.56    1.36
  -4  -7  -6   -0.82    1.39
  -4  -7  -6    1.76    1.19
   4   7   6    0.28    0.78
   4   7   6   -0.17    0.66
   4   7   6    0.08    0.87
   4   7   6    0.34    0.82
  -5  -7  -6    2.41    1.75
  -5  -7  -6    2.08    1.27
  -5  -7  -6    0.88    1.53
   5   7   6    2.66    1.19
   5   7   6    4.57    1.29
   6  -8  -6    6.50    0.96
   6  -8  -6    6.17    1.08
   6  -8  -6    5.70    0.96
  -6   8   6    4.39    0.87
  -6   8   6    6.32    1.01
  -6   8   6    5.55    1.01
   5  -8  -6    1.50    0.49
   5  -8  -6    0.83    0.52
   5  -8  -6    1.70    0.80
   5  -8  -6    1.65    0.69
  -5   8   6    1.81    0.54
  -5   8   6    0.94    0.49
   4  -8  -6    2.66    0.69
   4  -8  -6    3.32    0.82
   4  -8  -6    4.07    0.98
  -4   8   6    1.54    0.96
  -4   8   6    2.29    0.63
  -4   8   6    3.95    0.70
   3  -8  -6    0.75    0.49
   3  -8  -6    0.79    0.58
   3  -8  -6    1.24    0.54
   3  -8  -6    0.98    0.69
  -3   8   6    1.93    0.48
  -3   8   6    0.53    0.41
   2  -8  -6   10.40    1.53
   2  -8  -6   13.64    1.48
   2  -8  -6   15.30    2.16
   2  -8  -6   14.92    1.55
  -2   8   6   12.06    1.16
  -2   8   6   11.26    1.33
  -2   8   6   11.07    2.12
   1  -8  -6    0.17    0.82
   1  -8  -6    0.15    0.59
   1  -8  -6    0.68    0.53
   1  -8  -6   -0.46    0.69
  -1   8   6   -0.57    0.86
  -1   8   6   -0.02    0.38
   0  -8  -6   18.50    2.07
   0  -8  -6   15.80    2.08
   0  -8  -6   13.31    2.07
   0  -8  -6   12.01    1.88
   0   8   6   13.49    1.67
   0   8   6   16.05    2.00
   0   8   6   14.29    2.19
  -1  -8  -6    2.89    0.95
  -1  -8  -6    2.49    0.84
  -1  -8  -6    2.37    1.16
   1   8   6    1.73    1.27
   1   8   6    1.22    0.72
   1   8   6    1.41    0.95
   1   8   6    3.12    1.09
  -2  -8  -6    2.29    0.98
  -2  -8  -6    2.58    1.00
  -2  -8  -6    2.61    1.05
   2   8   6    2.19    1.05
   2   8   6    3.40    0.83
   2   8   6    1.18    0.86
  -3  -8  -6    5.38    1.46
  -3  -8  -6    5.31    1.48
  -3  -8  -6    7.79    1.64
   3   8   6    5.96    1.36
   3   8   6    6.65    1.49
   3   8   6    6.05    1.47
   3   8   6    6.45    1.12
  -4  -8  -6    5.33    2.84
  -4  -8  -6    1.01    1.32
   4   8   6    3.58    1.12
   4   8   6    2.34    1.08
   4   8   6    2.11    0.95
   4   8   6    2.64    0.97
   6  -9  -6    0.35    0.46
   6  -9  -6    0.88    0.62
   6  -9  -6    0.38    0.95
  -6   9   6    0.30    0.54
  -6   9   6   -0.13    0.48
   5  -9  -6    5.67    1.08
   5  -9  -6    6.35    1.15
   5  -9  -6    3.75    1.01
   5  -9  -6    4.97    0.91
  -5   9   6    5.72    0.88
  -5   9   6    5.46    0.92
   4  -9  -6    4.10    0.84
   4  -9  -6    4.04    0.93
   4  -9  -6    4.14    0.80
   4  -9  -6    4.71    1.26
  -4   9   6    5.84    0.81
  -4   9   6    3.53    1.37
  -4   9   6    4.08    0.81
   3  -9  -6    2.31    0.96
   3  -9  -6    3.29    0.86
   3  -9  -6    4.03    0.88
   3  -9  -6    2.23    0.62
  -3   9   6    2.80    0.67
  -3   9   6    2.10    0.48
   2  -9  -6    6.32    1.07
   2  -9  -6    6.21    1.08
   2  -9  -6    6.19    1.10
   2  -9  -6    5.92    1.16
  -2   9   6    7.60    0.81
  -2   9   6    6.93    1.07
   1  -9  -6   67.57    5.10
   1  -9  -6   69.94    5.05
   1  -9  -6   64.19    5.16
   1  -9  -6   69.60    5.46
  -1   9   6   74.87    4.91
  -1   9   6   67.46    4.60
   0  -9  -6    2.82    1.12
   0  -9  -6    1.09    0.87
   0  -9  -6    1.72    0.99
   0  -9  -6    1.89    0.84
   0   9   6    1.93    0.65
   0   9   6    1.92    1.04
   0   9   6    1.86    0.69
   0   9   6    1.47    0.90
  -1  -9  -6   54.89    4.21
  -1  -9  -6   53.54    4.59
  -1  -9  -6   50.45    4.27
   1   9   6   56.18    3.87
  -2  -9  -6   21.84    2.57
  -2  -9  -6   18.39    2.15
  -2  -9  -6   19.52    2.14
   2   9   6   17.60    1.73
   2   9   6   18.44    2.58
   2   9   6   12.30    2.29
  -3  -9  -6   -0.65    1.26
  -3  -9  -6    1.47    1.16
  -3  -9  -6    0.99    1.09
   3   9   6    0.86    0.68
   3   9   6    0.80    0.98
   3   9   6    0.36    1.03
   3   9   6    0.23    0.88
  -4  -9  -6   14.33    2.91
  -4  -9  -6   10.24    2.03
  -4  -9  -6   12.12    2.38
   4   9   6    9.40    1.48
   4   9   6   16.06    2.47
   4   9   6   14.21    1.73
   4   9   6   18.82    2.33
   5 -10  -6    6.42    1.09
   5 -10  -6    6.96    1.22
   5 -10  -6    9.50    1.39
  -5  10   6    7.62    1.06
  -5  10   6    7.15    1.13
   4 -10  -6   52.32    3.89
   4 -10  -6   52.55    3.86
   4 -10  -6   51.57    3.79
   4 -10  -6   50.82    4.03
  -4  10   6   48.44    3.71
  -4  10   6   52.60    3.52
   3 -10  -6    0.31    0.44
   3 -10  -6    0.49    0.66
   3 -10  -6    0.38    0.50
   3 -10  -6   -0.18    0.67
  -3  10   6    0.04    0.43
  -3  10   6    0.35    0.32
  -3  10   6   -0.61    1.55
   2 -10  -6    6.16    1.12
   2 -10  -6    4.88    1.14
   2 -10  -6    9.64    1.47
   2 -10  -6    7.90    1.50
  -2  10   6    6.14    1.01
  -2  10   6    7.97    1.78
   1 -10  -6   -0.24    1.06
   1 -10  -6   -1.11    0.86
   1 -10  -6   -0.42    0.53
   1 -10  -6    0.73    0.58
  -1  10   6   -0.14    0.33
  -1  10   6    0.07    0.49
  -1  10   6    0.53    0.47
   0 -10  -6   30.24    2.81
   0 -10  -6   21.73    2.96
   0 -10  -6   30.85    2.96
   0 -10  -6   30.49    2.80
   0  10   6   31.21    2.47
   0  10   6   25.75    2.15
   0  10   6   27.58    2.11
  -1 -10  -6    3.06    0.98
  -1 -10  -6    3.99    1.23
  -1 -10  -6    2.39    1.27
  -1 -10  -6    1.26    0.97
   1  10   6    0.27    1.12
   1  10   6    3.49    0.71
   1  10   6    2.98    0.83
  -2 -10  -6   56.19    4.40
  -2 -10  -6   52.14    4.65
  -2 -10  -6   57.91    4.51
   2  10   6   66.24    4.30
   2  10   6   46.02    4.23
  -3 -10  -6    1.82    1.06
  -3 -10  -6    2.98    1.58
  -3 -10  -6    2.87    1.41
   3  10   6    4.31    0.95
   3  10   6    2.26    1.38
   3  10   6    3.24    1.32
   3  10   6    2.88    1.03
   4 -11  -6    7.63    1.14
   4 -11  -6    7.04    1.34
   4 -11  -6    7.25    1.67
   4 -11  -6   10.44    1.48
  -4  11   6    8.38    1.13
  -4  11   6    7.23    0.90
   3 -11  -6   -0.56    0.78
   3 -11  -6    0.40    0.46
   3 -11  -6    0.12    0.89
   3 -11  -6    0.44    0.58
  -3  11   6    0.37    0.32
  -3  11   6    0.02    1.64
  -3  11   6    0.63    0.52
   2 -11  -6    7.02    1.15
   2 -11  -6    7.62    1.52
   2 -11  -6    9.86    1.41
   2 -11  -6    6.55    1.36
  -2  11   6    8.88    1.60
  -2  11   6    8.10    1.88
  -2  11   6    9.94    2.09
  -2  11   6    9.31    1.22
   1 -11  -6    2.81    1.24
   1 -11  -6    2.09    0.83
   1 -11  -6    2.64    1.22
   1 -11  -6    2.81    0.92
  -1  11   6    3.33    1.37
  -1  11   6    3.31    0.81
   0 -11  -6    3.45    1.24
   0 -11  -6    0.18    0.77
   0 -11  -6    1.70    0.84
   0 -11  -6    0.73    1.33
   0  11   6    1.36    0.37
   0  11   6    1.68    1.69
   0  11   6    0.50    0.59
   0  11   6    1.10    0.34
  -1 -11  -6    1.46    1.20
  -1 -11  -6    2.35    1.11
  -1 -11  -6    4.00    1.26
  -1 -11  -6    2.35    1.09
   1  11   6    3.06    1.87
   1  11   6    2.17    0.50
   1  11   6    1.57    0.72
   1  11   6    1.99    1.18
  -2 -11  -6    8.40    1.88
  -2 -11  -6   10.39    1.67
  -2 -11  -6    7.73    1.55
   2  11   6    6.27    1.33
   2  11   6    5.87    1.13
   2  11   6    3.49    1.66
   2  11   6    8.82    1.06
   2  11   6    7.10    2.11
   3 -12  -6    1.04    1.09
   3 -12  -6    1.72    0.95
   3 -12  -6    0.38    1.01
   3 -12  -6    0.55    0.59
  -3  12   6    0.54    0.58
   2 -12  -6   39.26    3.16
   2 -12  -6   37.00    3.22
   2 -12  -6   33.47    3.46
  -2  12   6   37.42    3.84
  -2  12   6   47.59    3.68
  -2  12   6   38.02    2.98
  -2  12   6   41.81    3.61
   1 -12  -6   -0.45    0.62
   1 -12  -6   -0.02    0.61
   1 -12  -6   -0.57    1.18
   1 -12  -6    0.46    1.43
  -1  12   6    1.45    1.38
  -1  12   6    0.02    0.52
   0 -12  -6    4.15    1.25
   0 -12  -6    5.70    1.31
   0 -12  -6    5.04    1.64
   0 -12  -6    4.30    1.40
   0  12   6    3.86    1.38
   0  12   6    5.67    0.97
  -1 -12  -6    2.23    1.21
  -1 -12  -6    0.93    1.24
  -1 -12  -6    0.64    1.01
  -1 -12  -6    0.23    0.92
   1  12   6   -0.48    0.61
   1  12   6    0.09    0.96
  -3 -11   7    0.90    0.62
  -2 -11   7    3.18    0.80
  -1 -11   7    1.65    0.71
  -1 -11   7    2.52    0.63
   0  11  -7   -1.09    1.69
   0 -11   7    0.02    0.82
   0 -11   7   -0.04    1.03
  -1  11  -7    0.69    1.86
  -1  11  -7    2.37    2.98
   1 -11   7   -0.38    1.34
   1 -11   7   -0.85    0.77
   1 -11   7    0.22    0.45
   1 -11   7    0.94    0.55
  -4 -10   7    0.79    0.58
  -3 -10   7    7.53    1.32
  -2 -10   7   68.45    4.62
  -2 -10   7   73.32    7.33
  -2 -10   7   53.32    4.12
  -1 -10   7    0.56    0.71
  -1 -10   7    1.17    0.60
   0  10  -7   69.18    6.74
   0 -10   7   68.51    4.20
   0 -10   7   51.02    3.74
  -1  10  -7    1.88    0.46
  -1  10  -7    4.60    2.59
  -1  10  -7    1.99    0.52
  -1  10  -7    3.16    2.22
   1 -10   7    0.92    0.60
   1 -10   7    1.95    0.58
   1 -10   7    1.97    0.79
  -2  10  -7    1.21    2.56
  -2  10  -7    1.22    0.72
  -2  10  -7    3.17    2.65
   2 -10   7    1.08    1.45
   2 -10   7    1.40    0.85
   2 -10   7    0.65    0.88
  -5  -9   7   21.52    2.05
  -5  -9   7   20.54    1.58
  -4  -9   7   14.01    1.61
  -4  -9   7   14.55    1.16
  -3  -9   7   31.92    2.58
  -3  -9   7   36.13    5.12
  -3  -9   7   39.05    2.98
  -2  -9   7    7.55    0.99
  -2  -9   7    9.17    1.48
  -2  -9   7   12.66    2.62
  -1  -9   7    8.18    1.15
  -1  -9   7    9.34    2.44
   0   9  -7    1.85    1.62
   0   9  -7    0.28    1.52
   0  -9   7    0.70    0.36
   0  -9   7    0.64    0.63
   0  -9   7    1.01    0.43
  -1   9  -7    8.76    2.88
  -1   9  -7    8.04    0.96
  -1   9  -7    9.30    2.92
  -1   9  -7    8.78    1.06
   1  -9   7    6.86    1.01
   1  -9   7    8.91    1.21
   1  -9   7    8.52    1.28
  -2   9  -7    3.57    2.48
  -2   9  -7    1.23    1.97
  -2   9  -7    2.93    0.88
   2  -9   7    2.98    0.97
   2  -9   7    2.31    0.75
   2  -9   7    3.99    1.73
   2  -9   7    2.51    0.91
  -3   9  -7   28.19    5.55
  -3   9  -7   26.52    5.04
   3  -9   7   35.65    2.99
   3  -9   7   33.48    3.03
   3  -9   7   37.20    2.83
  -6  -8   7    8.84    1.03
  -6  -8   7    8.64    1.32
  -5  -8   7    0.25    0.44
  -5  -8   7    0.11    0.36
  -4  -8   7    1.91    0.43
  -4  -8   7    1.81    0.74
  -4  -8   7    2.26    2.79
  -3  -8   7    1.37    0.64
  -3  -8   7    0.44    2.02
  -3  -8   7    0.11    0.43
  -2  -8   7   11.70    1.26
  -2  -8   7    9.11    2.38
  -2  -8   7    9.35    2.89
  -1  -8   7    0.38    0.61
   0   8  -7   12.43    2.91
   0   8  -7   13.10    1.09
   0   8  -7   11.07    2.71
   0  -8   7   12.06    1.51
   0  -8   7   10.57    1.19
   0  -8   7   12.26    1.11
  -1   8  -7    5.90    0.82
  -1   8  -7    5.65    0.89
  -1   8  -7    4.18    2.17
  -1   8  -7    4.55    2.25
   1  -8   7    4.14    0.82
   1  -8   7    3.95    0.95
   1  -8   7    3.91    0.85
  -2   8  -7    0.71    1.94
  -2   8  -7    1.17    1.75
   2  -8   7    3.13    1.66
   2  -8   7    0.21    0.74
   2  -8   7    0.45    0.64
   2  -8   7    1.68    0.81
  -3   8  -7    6.48    2.46
  -3   8  -7    4.46    2.73
   3  -8   7   10.39    1.60
   3  -8   7   10.00    1.35
   3  -8   7   10.55    2.12
   3  -8   7   10.64    1.54
  -4   8  -7    2.02    3.70
   6   7  -7    8.02    1.03
  -6  -7   7   10.79    1.40
  -6  -7   7   10.06    1.06
  -5  -7   7   29.89    2.21
  -5  -7   7   22.99    5.08
  -5  -7   7   35.18    2.71
  -4  -7   7   15.55    1.31
  -4  -7   7   15.99    4.72
  -4  -7   7   16.26    1.69
  -2  -7   7    4.15    1.16
  -2  -7   7    7.94    1.09
   1   7  -7    9.13    0.83
   1   7  -7    9.18    0.75
   1   7  -7    9.10    0.75
   1   7  -7    8.94    0.79
  -1  -7   7    9.34    1.19
   0   7  -7    0.70    0.47
   0   7  -7   -0.08    1.43
   0   7  -7   -0.47    1.34
   0  -7   7    0.26    0.38
   0  -7   7   -0.06    0.35
   0  -7   7    0.13    0.62
  -1   7  -7   87.38    8.04
  -1   7  -7   92.07    8.24
  -1   7  -7   83.39    5.65
   1  -7   7   77.89    5.74
   1  -7   7   80.91    5.64
  -2   7  -7    2.87    0.89
  -2   7  -7    1.76    2.27
  -2   7  -7    0.93    1.68
  -2   7  -7    1.80    0.79
   2  -7   7    1.87    0.84
   2  -7   7    4.75    1.03
   2  -7   7    2.98    0.81
   2  -7   7    1.25    1.14
  -3   7  -7   14.22    3.38
  -3   7  -7   23.60    1.64
  -3   7  -7   14.43    3.27
  -3   7  -7   19.82    2.38
   3  -7   7   21.05    1.98
   3  -7   7   17.45    2.10
   3  -7   7   24.93    2.86
   3  -7   7   20.41    2.18
  -4   7  -7    2.05    1.92
  -4   7  -7    2.67    1.02
  -4   7  -7    2.59    1.96
   4  -7   7    3.20    1.60
   4  -7   7    1.28    0.77
   7   6  -7   -0.03    0.52
  -7  -6   7    0.04    0.54
  -7  -6   7    0.58    0.47
   6   6  -7   -0.32    0.66
   6   6  -7    0.91    0.52
  -6  -6   7    0.08    0.42
  -6  -6   7    1.23    0.65
   5   6  -7    6.07    0.88
   5   6  -7    6.26    0.96
  -5  -6   7    4.39    3.05
  -5  -6   7    4.88    1.01
  -5  -6   7    5.33    0.76
   4   6  -7    1.57    0.51
   4   6  -7    1.76    0.43
   4   6  -7    1.83    0.42
  -4  -6   7    2.75    0.83
  -4  -6   7    1.92    3.59
  -4  -6   7    1.23    0.47
   3   6  -7   -0.01    0.40
   3   6  -7    0.27    0.29
   3   6  -7   -0.11    0.47
   3   6  -7    0.20    0.23
  -3  -6   7    0.46    0.52
   2   6  -7   30.77    2.36
   2   6  -7   33.28    2.28
  -2  -6   7   33.79    2.66
   1   6  -7    1.78    0.53
   1   6  -7    0.94    0.39
   1   6  -7    1.46    0.43
  -1  -6   7    0.34    0.45
  -1  -6   7    1.96    0.63
  -1  -6   7    0.73    0.44
  -1  -6   7    0.45    1.35
  -1  -6   7    0.29    1.14
   0   6  -7   17.43    3.48
   0   6  -7   18.36    3.21
   0   6  -7   19.04    1.71
   0   6  -7   18.50    1.83
   0  -6   7   21.85    1.66
   0  -6   7   18.81    1.71
   0  -6   7   17.37    1.86
  -1   6  -7   15.46    3.38
  -1   6  -7   14.78    1.75
  -1   6  -7   14.46    3.50
   1  -6   7   15.16    1.72
   1  -6   7   15.00    1.76
   1  -6   7   15.11    1.58
  -2   6  -7    0.40    1.60
  -2   6  -7    1.55    1.60
  -2   6  -7    2.34    0.84
   2  -6   7    1.17    1.12
   2  -6   7    0.55    0.56
   2  -6   7    1.37    0.71
   2  -6   7    1.82    0.80
  -3   6  -7   25.10    2.81
  -3   6  -7   20.41    4.13
  -3   6  -7   25.34    4.11
  -3   6  -7   30.17    2.33
   3  -6   7   36.14    3.45
   3  -6   7   29.51    2.48
   3  -6   7   28.30    2.67
  -4   6  -7   13.13    2.93
  -4   6  -7   12.59    3.17
  -4   6  -7   17.96    2.12
   4  -6   7   16.75    2.06
   4  -6   7   21.01    1.94
   7   5  -7    0.85    0.54
   7   5  -7    0.94    0.80
   7   5  -7    0.53    0.73
  -7  -5   7    1.22    0.45
  -7  -5   7    1.66    0.56
  -7  -5   7    0.42    0.65
   6   5  -7    1.87    0.62
   6   5  -7    2.83    0.67
  -6  -5   7    2.88    0.64
  -6  -5   7    2.53    0.77
   5   5  -7    3.97    0.66
   5   5  -7    5.75    0.87
  -5  -5   7    3.72    0.91
  -5  -5   7    5.24    0.76
   4   5  -7   22.58    1.68
   4   5  -7   24.41    2.10
   4   5  -7   25.23    2.01
  -4  -5   7   23.10    2.16
  -4  -5   7   23.18    1.86
   3   5  -7    2.31    0.40
   3   5  -7    0.79    0.98
   3   5  -7    2.55    0.43
   3   5  -7    1.20    0.49
   2   5  -7   13.35    1.33
   2   5  -7   12.90    1.05
   2   5  -7   12.33    1.45
  -2  -5   7   10.95    1.42
  -2  -5   7   17.99    3.85
  -2  -5   7   12.57    2.01
  -2  -5   7   14.33    3.15
   1   5  -7    8.37    0.92
   1   5  -7    4.56    0.98
   1   5  -7    3.18    0.99
  -1  -5   7    8.72    2.20
  -1  -5   7    5.28    0.95
  -1  -5   7    7.57    1.85
  -1  -5   7    5.46    0.85
  -1  -5   7    7.31    1.07
   0   5  -7    0.33    0.70
   0   5  -7    0.65    0.67
   0   5  -7    1.02    1.24
   0   5  -7    0.61    1.25
   0  -5   7    0.40    1.15
   0  -5   7   -0.24    0.55
   0  -5   7    1.23    0.51
   0  -5   7    0.76    0.51
   0  -5   7    2.08    1.21
  -1   5  -7   17.24    2.22
  -1   5  -7   24.92    4.40
  -1   5  -7   24.34    3.87
   1  -5   7   20.43    2.17
   1  -5   7   24.02    2.05
   1  -5   7   24.30    2.20
  -2   5  -7    3.83    2.26
  -2   5  -7    3.53    0.65
  -2   5  -7    0.06    1.89
   2  -5   7    2.61    0.87
   2  -5   7    2.87    1.39
   2  -5   7    3.27    0.82
   2  -5   7    2.47    0.85
  -3   5  -7   -1.23    0.89
  -3   5  -7    1.17    0.79
  -3   5  -7    1.22    0.89
  -3   5  -7   -0.21    1.22
  -3   5  -7   -0.09    1.45
   3  -5   7   -0.47    0.68
   3  -5   7    0.81    0.59
   3  -5   7    0.54    0.52
   3  -5   7   -0.19    1.14
  -4   5  -7    0.30    1.37
  -4   5  -7   -0.07    1.48
  -4   5  -7   -0.74    0.90
   4  -5   7    0.04    0.62
   4  -5   7    1.23    0.70
  -5   5  -7    3.46    1.94
  -5   5  -7    5.16    2.23
  -5   5  -7    6.14    1.37
   5  -5   7    5.56    1.14
   5  -5   7    6.78    1.24
   7   4  -7   -0.16    0.51
   7   4  -7    0.35    0.62
   7   4  -7   -0.24    0.57
  -7  -4   7    0.49    0.66
  -7  -4   7    0.17    0.37
  -7  -4   7    0.29    0.40
  -7  -4   7    0.34    0.43
   6   4  -7   47.28    3.45
   6   4  -7   51.73    3.62
   6   4  -7   53.12    3.57
   6   4  -7   51.86    3.55
  -6  -4   7   51.46    3.91
  -6  -4   7   51.89    3.64
   5   4  -7    5.63    0.93
   5   4  -7    5.29    0.72
   5   4  -7    6.20    0.89
   5   4  -7    4.76    0.76
  -5  -4   7    4.16    0.85
  -5  -4   7    4.35    0.73
   4   4  -7    0.27    0.44
   4   4  -7    0.33    0.30
   4   4  -7    0.14    0.42
   4   4  -7    0.48    0.30
  -4  -4   7   -0.03    0.34
  -4  -4   7   -0.02    0.35
   3   4  -7    8.95    0.81
   3   4  -7    8.85    1.29
   3   4  -7    9.57    1.12
   3   4  -7    7.62    0.83
  -3  -4   7    5.20    2.43
  -3  -4   7    7.37    1.28
  -3  -4   7    4.06    2.75
   2   4  -7  140.64    8.66
   2   4  -7  135.89    8.70
   2   4  -7  143.94    8.80
   2   4  -7  143.69    8.92
  -2  -4   7  137.09   11.22
  -2  -4   7  140.80   11.12
  -2  -4   7  113.23    9.31
   1   4  -7    1.39    0.59
   1   4  -7    0.58    0.64
  -1  -4   7    1.51    1.37
  -1  -4   7   -0.36    0.43
  -1  -4   7    0.72    0.60
  -1  -4   7    0.88    0.48
  -1  -4   7    1.45    1.19
   0   4  -7  114.11    9.73
   0   4  -7  123.42   10.05
   0  -4   7  122.64    8.37
   0  -4   7  124.77    8.45
   0  -4   7  143.34    9.75
   0  -4   7  124.71    8.33
   0  -4   7  145.89    9.70
  -1   4  -7    6.92    2.46
  -1   4  -7    6.29    2.01
  -1   4  -7    3.25    1.17
   1  -4   7    5.46    1.06
   1  -4   7    5.70    1.17
   1  -4   7    6.90    1.27
  -2   4  -7    1.36    1.51
  -2   4  -7    2.99    0.69
  -2   4  -7    2.29    1.89
   2  -4   7    2.64    0.88
   2  -4   7    4.06    1.03
   2  -4   7    2.57    0.93
   2  -4   7    2.11    0.74
  -3   4  -7    5.50    2.10
  -3   4  -7    4.41    1.24
  -3   4  -7    4.50    1.21
  -3   4  -7    2.55    1.67
  -3   4  -7    3.89    1.08
   3  -4   7    8.08    1.43
   3  -4   7    6.01    1.52
   3  -4   7    4.76    0.98
   3  -4   7    5.07    1.14
  -4   4  -7   16.80    2.98
  -4   4  -7   12.34    1.78
  -4   4  -7   11.95    2.66
   4  -4   7   19.05    2.12
   4  -4   7   14.25    1.91
   4  -4   7   19.08    1.89
  -5   4  -7    0.28    0.92
  -5   4  -7    0.63    1.39
  -5   4  -7   -0.28    1.44
   5  -4   7   -0.02    0.76
   5  -4   7    0.45    0.79
   7   3  -7    5.40    1.00
   7   3  -7    7.69    1.01
  -7  -3   7    5.97    0.81
  -7  -3   7    6.56    0.89
  -7  -3   7    4.26    0.90
  -7  -3   7    6.21    0.92
   6   3  -7    2.90    0.70
   6   3  -7    2.55    0.67
   6   3  -7    1.79    0.50
  -6  -3   7    3.15    0.55
  -6  -3   7    3.40    0.89
  -6  -3   7    2.90    0.72
   5   3  -7   49.68    3.66
   5   3  -7   54.51    3.63
   5   3  -7   52.59    3.69
   5   3  -7   55.64    3.72
  -5  -3   7   56.15    3.75
  -5  -3   7   52.38    4.02
   4   3  -7   28.84    2.26
   4   3  -7   31.28    2.40
   4   3  -7   32.12    2.28
   4   3  -7   31.37    2.23
  -4  -3   7   24.74    4.32
  -4  -3   7   31.81    2.38
  -4  -3   7   30.38    2.65
   3   3  -7  111.31    7.18
   3   3  -7  106.98    6.98
   3   3  -7  111.55    6.96
   3   3  -7  114.63    7.36
  -3  -3   7   92.88    9.27
  -3  -3   7  106.96    7.53
   2   3  -7   21.68    2.07
   2   3  -7   23.29    1.96
   2   3  -7   25.00    1.93
   2   3  -7   24.09    1.85
  -2  -3   7   22.99    3.84
  -2  -3   7   26.41    3.99
  -2  -3   7   20.75    2.40
  -2  -3   7   20.94    1.98
   1   3  -7   16.07    1.52
   1   3  -7   16.42    1.64
  -1  -3   7   10.60    1.53
  -1  -3   7   12.37    1.47
  -1  -3   7   14.32    1.66
  -1  -3   7   17.96    2.85
  -1  -3   7   20.27    2.86
   0   3  -7    1.77    0.76
   0   3  -7    1.66    1.17
   0   3  -7    2.53    0.84
   0  -3   7    4.53    1.38
   0  -3   7    2.13    1.24
   0  -3   7    2.47    0.73
   0  -3   7    1.73    0.58
   0  -3   7    1.01    1.09
  -1   3  -7   33.81    4.24
  -1   3  -7   34.73    2.39
  -1   3  -7   23.20    2.93
  -1   3  -7   34.51    4.13
   1  -3   7   31.58    2.78
   1  -3   7   36.34    2.81
   1  -3   7   29.27    2.59
  -2   3  -7    5.09    1.84
  -2   3  -7    6.19    1.46
  -2   3  -7    5.20    1.33
  -2   3  -7    7.10    1.15
   2  -3   7    7.26    1.41
   2  -3   7   11.50    2.34
   2  -3   7    6.95    1.32
   2  -3   7    6.89    1.22
  -3   3  -7   69.62    7.16
  -3   3  -7   74.22    6.52
  -3   3  -7   86.38    6.15
  -3   3  -7   75.57    7.22
   3  -3   7   87.14    6.24
   3  -3   7   98.83    6.23
   3  -3   7   93.03    8.82
   3  -3   7   96.27    6.11
  -4   3  -7    1.21    1.40
  -4   3  -7    1.07    1.33
  -4   3  -7    1.02    1.08
  -4   3  -7    2.10    0.95
   4  -3   7    1.17    0.81
   4  -3   7    1.91    0.72
   4  -3   7   -0.40    1.18
   4  -3   7    1.23    0.76
  -5   3  -7   15.85    2.93
  -5   3  -7   16.27    2.14
  -5   3  -7   16.56    2.99
   5  -3   7   19.62    2.04
   7   2  -7    0.61    0.57
  -7  -2   7   -0.77    0.39
  -7  -2   7    0.19    0.44
  -7  -2   7   -0.21    0.36
  -7  -2   7   -0.51    0.41
   6   2  -7   44.36    3.21
   6   2  -7   43.78    3.06
   6   2  -7   40.98    2.90
  -6  -2   7   40.49    3.01
  -6  -2   7   38.59    2.86
  -6  -2   7   39.44    3.24
   5   2  -7    1.86    0.51
   5   2  -7    2.01    0.64
   5   2  -7    1.75    0.57
  -5  -2   7    2.62    0.59
  -5  -2   7    2.19    0.75
   4   2  -7    0.07    0.36
   4   2  -7   -0.42    0.27
   4   2  -7    0.25    0.32
   4   2  -7    0.38    0.61
  -4  -2   7   -0.09    0.31
  -4  -2   7    0.10    1.53
  -4  -2   7    0.49    0.39
   3   2  -7    4.69    0.74
   3   2  -7    5.25    0.82
   3   2  -7    7.65    1.07
   3   2  -7    6.77    1.06
  -3  -2   7    3.38    1.77
  -3  -2   7    7.52    1.42
  -3  -2   7    5.08    1.93
   2   2  -7   62.60    4.06
   2   2  -7   58.56    4.27
   2   2  -7   56.74    4.13
   2   2  -7   67.85    4.02
  -2  -2   7   48.43    5.81
  -2  -2   7   51.31    4.02
  -2  -2   7   50.80    4.05
  -2  -2   7   45.69    5.61
   1   2  -7    1.47    0.68
   1   2  -7    1.67    0.62
  -1  -2   7    1.71    0.81
  -1  -2   7    0.99    0.66
  -1  -2   7    0.76    1.09
  -1  -2   7    3.13    1.50
  -1  -2   7    2.00    0.67
   0   2  -7   92.25    7.74
   0   2  -7   88.44    6.45
   0   2  -7   97.00    6.63
   0  -2   7  105.72    7.43
   0  -2   7  100.17    7.45
   0  -2   7   91.87    6.40
   0  -2   7   87.84    6.53
   0  -2   7   97.63    6.47
  -1   2  -7   12.14    1.20
  -1   2  -7    8.42    1.53
  -1   2  -7   11.60    1.69
  -1   2  -7   10.84    2.42
  -1   2  -7    9.67    2.31
   1  -2   7   11.67    1.50
   1  -2   7   11.50    1.47
   1  -2   7    9.61    1.40
  -2   2  -7    2.00    1.08
  -2   2  -7    1.75    0.97
  -2   2  -7    0.64    1.33
  -2   2  -7    2.03    1.37
  -2   2  -7    1.76    0.77
   2  -2   7    1.92    0.83
   2  -2   7    2.94    0.90
  -3   2  -7    5.63    2.00
  -3   2  -7    4.64    1.81
  -3   2  -7    4.17    1.30
  -3   2  -7    5.34    1.27
   3  -2   7    6.86    1.24
   3  -2   7    9.99    1.61
   3  -2   7    7.54    1.22
  -4   2  -7    8.40    2.63
  -4   2  -7    2.56    1.22
  -4   2  -7    3.38    1.64
  -4   2  -7    6.22    1.20
  -4   2  -7    4.86    1.43
   4  -2   7    7.70    1.80
   4  -2   7    4.70    1.00
   4  -2   7    5.92    1.24
   4  -2   7    4.63    1.20
  -5   2  -7    0.14    0.88
  -5   2  -7   -0.07    1.27
  -5   2  -7    0.54    1.34
   5  -2   7    0.26    0.76
   5  -2   7   -0.22    0.76
   7   1  -7   -0.03    0.52
   7   1  -7   -0.47    0.50
  -7  -1   7    0.76    0.53
  -7  -1   7    0.22    0.43
  -7  -1   7    0.43    0.46
  -7  -1   7   -0.12    0.39
   6   1  -7    8.31    1.10
   6   1  -7    7.11    0.93
   6   1  -7    7.99    1.01
   6   1  -7    8.23    1.03
  -6  -1   7    7.37    0.90
  -6  -1   7   10.63    1.26
  -6  -1   7    9.69    1.09
  -6  -1   7    5.83    0.86
   5   1  -7   24.79    1.97
   5   1  -7   23.82    1.90
   5   1  -7   24.09    2.22
  -5  -1   7   22.32    1.96
  -5  -1   7   23.36    2.15
   4   1  -7   29.85    2.29
   4   1  -7   31.34    2.35
   4   1  -7   31.29    2.40
  -4  -1   7   28.48    2.39
   3   1  -7   26.50    2.06
   3   1  -7   26.06    2.11
   3   1  -7   25.09    2.04
   3   1  -7   26.99    2.18
  -3  -1   7   21.98    3.32
  -3  -1   7   21.29    3.55
  -3  -1   7   22.66    2.34
   2   1  -7   15.33    1.54
   2   1  -7   17.11    1.51
   2   1  -7   16.03    1.82
   2   1  -7   16.59    1.67
  -2  -1   7   12.09    1.52
  -2  -1   7   10.50    2.56
  -2  -1   7    9.99    2.61
  -2  -1   7   12.41    1.55
   1   1  -7   17.22    1.66
   1   1  -7   16.36    1.77
  -1  -1   7   14.40    2.67
  -1  -1   7   13.60    1.78
  -1  -1   7   17.64    2.89
  -1  -1   7   16.37    1.72
   0   1  -7    0.55    0.52
   0   1  -7    0.68    0.53
   0  -1   7    0.47    0.80
   0  -1   7    0.50    0.51
   0  -1   7    0.71    0.79
   0  -1   7    0.33    0.44
   0  -1   7    0.87    0.57
  -1   1  -7   81.90    7.11
  -1   1  -7   82.28    6.26
  -1   1  -7   88.54    6.16
  -1   1  -7   85.55    7.07
  -1   1  -7   92.97    5.91
   1  -1   7   87.76    6.05
   1  -1   7   88.76    6.08
   1  -1   7   86.26    6.19
  -2   1  -7    2.75    1.49
  -2   1  -7    3.14    1.72
  -2   1  -7    4.09    1.10
  -2   1  -7    5.51    1.35
   2  -1   7    4.06    1.13
   2  -1   7    4.02    0.98
   2  -1   7    5.78    1.19
  -3   1  -7   11.57    2.34
  -3   1  -7    9.98    1.70
  -3   1  -7    7.97    1.71
   3  -1   7   14.94    1.77
   3  -1   7   15.11    1.88
   3  -1   7   14.07    1.89
  -4   1  -7    2.59    1.39
  -4   1  -7    2.50    1.39
  -4   1  -7    1.96    1.29
  -4   1  -7    1.66    1.18
  -4   1  -7    2.20    0.97
   4  -1   7    1.22    0.77
   4  -1   7    3.40    1.02
   4  -1   7    2.72    1.02
   4  -1   7    0.41    1.01
  -5   1  -7    6.82    1.83
  -5   1  -7    8.72    2.04
  -5   1  -7    7.16    1.38
   5  -1   7    5.92    1.28
   5  -1   7    6.69    1.30
   7   0  -7    0.09    0.54
   7   0  -7   -0.71    0.47
  -7   0   7    1.04    0.53
  -7   0   7    1.03    0.53
  -7   0   7   -0.16    0.52
  -7   0   7    0.39    0.42
   6   0  -7    3.56    0.69
   6   0  -7    3.37    0.70
   6   0  -7    3.50    0.76
   6   0  -7    3.60    0.69
  -6   0   7    4.84    0.82
  -6   0   7    3.27    0.65
  -6   0   7    3.41    0.66
  -6   0   7    3.79    0.73
   5   0  -7    9.29    1.09
   5   0  -7    8.04    0.99
   5   0  -7    7.52    0.94
  -5   0   7    8.81    1.18
  -5   0   7    8.59    1.10
   4   0  -7    6.90    0.98
   4   0  -7    8.20    1.01
   4   0  -7    7.90    0.95
   4   0  -7    8.30    0.95
  -4   0   7    6.52    1.14
  -4   0   7    7.46    1.09
   3   0  -7    0.39    0.36
   3   0  -7    0.45    0.35
   3   0  -7   -0.22    0.30
   3   0  -7   -0.13    0.33
  -3   0   7    0.19    1.04
  -3   0   7    0.58    0.39
  -3   0   7    0.47    0.45
   2   0  -7   58.63    4.04
   2   0  -7   64.06    4.16
   2   0  -7   65.96    4.10
   2   0  -7   59.90    4.24
  -2   0   7   46.21    4.02
  -2   0   7   45.25    3.94
  -2   0   7   44.91    5.32
  -2   0   7   45.59    5.19
   1   0  -7   -0.13    0.51
   1   0  -7    0.03    0.48
  -1   0   7   -0.20    0.67
  -1   0   7    0.36    0.53
  -1   0   7   -0.17    0.50
  -1   0   7    1.27    1.28
  -1   0   7   -0.07    0.97
   0   0  -7   52.59    4.12
   0   0  -7   54.29    4.00
   0   0   7   52.02    4.00
   0   0   7   55.14    4.05
   0   0   7   51.26    4.15
   0   0   7   59.03    4.64
   0   0   7   50.67    4.56
  -1   0  -7   16.06    1.80
  -1   0  -7   16.45    1.63
  -1   0  -7   16.97    2.42
  -1   0  -7   14.38    2.47
  -1   0  -7   19.47    2.04
   1   0   7   15.87    1.72
   1   0   7   14.85    1.79
   1   0   7   17.56    1.89
  -2   0  -7    1.21    0.78
  -2   0  -7   -0.04    0.75
  -2   0  -7    0.08    1.16
  -2   0  -7   -0.44    1.08
   2   0   7    0.80    1.15
   2   0   7    2.05    1.13
   2   0   7    0.22    0.72
   2   0   7    1.83    0.70
  -3   0  -7   44.00    3.90
  -3   0  -7   44.70    4.65
  -3   0  -7   47.01    4.19
  -3   0  -7   39.66    4.59
   3   0   7   50.00    4.04
   3   0   7   57.37    4.58
   3   0   7   49.97    3.98
  -4   0  -7   20.47    3.26
  -4   0  -7   31.64    2.87
  -4   0  -7   28.03    3.40
  -4   0  -7   25.74    3.04
   4   0   7   33.69    2.88
   4   0   7   27.66    2.67
   4   0   7   26.72    2.84
   4   0   7   31.86    3.17
  -5   0  -7    2.38    1.44
  -5   0  -7    2.07    0.98
  -5   0  -7    4.85    1.70
  -5   0  -7    2.16    1.60
   5   0   7    4.63    1.13
   5   0   7    2.66    0.92
   7  -1  -7    1.08    0.58
   7  -1  -7    0.14    0.56
  -7   1   7   -0.33    0.44
  -7   1   7    0.51    0.45
  -7   1   7   -0.38    0.44
  -7   1   7   -0.67    0.42
   6  -1  -7    8.20    1.10
   6  -1  -7   10.13    1.10
   6  -1  -7    8.97    1.09
   6  -1  -7    8.62    1.16
  -6   1   7    8.48    1.03
  -6   1   7    9.46    1.22
  -6   1   7    8.37    1.12
  -6   1   7    8.96    1.06
   5  -1  -7   26.08    2.03
   5  -1  -7   23.15    1.95
   5  -1  -7   23.40    2.06
  -5   1   7   25.55    2.10
  -5   1   7   25.33    2.20
   4  -1  -7   30.50    2.43
   4  -1  -7   33.77    2.53
   4  -1  -7   32.92    2.52
   4  -1  -7   31.53    2.41
  -4   1   7   31.02    2.52
  -4   1   7   29.40    2.61
   3  -1  -7   26.33    2.17
   3  -1  -7   28.02    2.29
   3  -1  -7   28.73    2.25
   3  -1  -7   26.95    2.29
  -3   1   7   26.55    2.24
  -3   1   7   25.90    2.43
   2  -1  -7   15.77    1.64
   2  -1  -7   19.85    1.79
   2  -1  -7   13.24    1.51
   2  -1  -7   15.52    1.69
  -2   1   7   12.01    1.79
  -2   1   7    8.98    2.47
  -2   1   7   11.23    1.75
  -2   1   7   13.39    2.65
   1  -1  -7   13.95    1.82
   1  -1  -7   15.88    1.74
  -1   1   7   11.60    1.80
  -1   1   7   19.22    2.05
  -1   1   7   17.09    2.81
  -1   1   7   17.47    2.78
  -1   1   7   13.47    2.15
   0  -1  -7   -0.23    0.48
   0  -1  -7    1.08    0.77
   0   1   7    0.69    0.60
   0   1   7   -0.46    0.40
   0   1   7    0.78    0.56
   0   1   7    1.22    0.81
   0   1   7    0.49    0.72
  -1  -1  -7   88.87    6.25
  -1  -1  -7   92.67    7.08
  -1  -1  -7   98.39    6.43
  -1  -1  -7   93.39    6.54
   1   1   7   89.30    6.35
   1   1   7   89.61    6.38
   1   1   7   88.71    6.54
  -2  -1  -7    6.14    1.50
  -2  -1  -7    5.21    1.63
  -2  -1  -7    4.67    1.15
  -2  -1  -7    4.74    1.17
  -2  -1  -7    5.94    1.58
   2   1   7    4.58    1.27
   2   1   7    7.32    2.15
   2   1   7    4.22    1.11
   2   1   7    4.88    1.04
  -3  -1  -7   13.42    2.08
  -3  -1  -7   13.01    2.19
  -3  -1  -7    9.43    2.13
  -3  -1  -7   11.89    1.83
  -3  -1  -7   11.11    2.28
   3   1   7   13.15    1.87
   3   1   7   14.61    1.88
  -4  -1  -7    1.53    1.28
  -4  -1  -7    0.13    1.15
  -4  -1  -7    0.00    0.85
  -4  -1  -7    2.37    1.42
  -4  -1  -7   -0.14    1.26
   4   1   7    0.61    0.88
   4   1   7    0.95    0.77
   4   1   7    3.44    1.14
   4   1   7    1.87    0.86
  -5  -1  -7    5.33    1.25
  -5  -1  -7    5.93    1.63
  -5  -1  -7    2.11    1.52
  -5  -1  -7    6.80    1.78
   5   1   7    5.83    1.27
   5   1   7    5.73    1.51
   7  -2  -7    0.51    0.57
   7  -2  -7    0.01    0.57
  -7   2   7    0.27    0.48
  -7   2   7    0.35    0.49
  -7   2   7    0.23    0.49
  -7   2   7   -0.03    0.48
   6  -2  -7   46.86    3.10
   6  -2  -7   44.16    3.15
   6  -2  -7   39.67    3.14
   6  -2  -7   42.47    3.20
  -6   2   7   40.67    3.05
  -6   2   7   43.02    3.31
  -6   2   7   40.21    3.14
  -6   2   7   40.01    3.07
   5  -2  -7    1.52    0.54
   5  -2  -7    1.48    0.61
   5  -2  -7    2.58    0.60
  -5   2   7    2.05    0.59
  -5   2   7    1.74    0.54
   4  -2  -7    0.35    0.37
   4  -2  -7    0.44    0.40
   4  -2  -7    0.33    0.36
  -4   2   7    0.46    0.46
  -4   2   7   -0.10    0.30
   3  -2  -7    4.83    0.90
   3  -2  -7    6.53    1.16
   3  -2  -7    5.07    0.99
   3  -2  -7    6.12    0.96
  -3   2   7    8.09    1.33
  -3   2   7    4.32    0.91
  -3   2   7    7.09    1.16
   2  -2  -7   60.76    4.02
   2  -2  -7   55.58    4.10
  -2   2   7   48.47    4.09
  -2   2   7   60.05    4.26
  -2   2   7   54.44    4.34
  -2   2   7   44.91    4.67
  -2   2   7   47.28    4.91
   1  -2  -7    2.42    0.79
   1  -2  -7    1.20    0.68
  -1   2   7    2.56    1.29
  -1   2   7    0.96    0.76
  -1   2   7    1.03    0.82
  -1   2   7    2.05    1.31
  -1   2   7    0.40    0.65
   0  -2  -7   82.42    6.43
   0  -2  -7   86.01    6.64
   0   2   7  105.05    6.93
   0   2   7  102.25    6.83
   0   2   7   91.22    6.58
   0   2   7   92.82    6.81
   0   2   7   95.18    6.56
  -1  -2  -7   12.11    1.64
  -1  -2  -7   10.59    1.60
  -1  -2  -7   11.39    1.38
   1   2   7   12.30    1.61
   1   2   7    8.02    1.35
   1   2   7   12.81    1.68
  -2  -2  -7    2.29    0.81
  -2  -2  -7    2.92    0.95
  -2  -2  -7    2.50    1.19
  -2  -2  -7    1.07    0.81
  -2  -2  -7    3.16    1.13
   2   2   7    3.99    1.40
   2   2   7    2.49    1.00
   2   2   7    1.82    0.76
  -3  -2  -7    7.43    1.50
  -3  -2  -7    9.88    2.14
  -3  -2  -7    7.99    1.92
  -3  -2  -7    5.88    1.33
  -3  -2  -7    7.71    1.47
   3   2   7    6.65    1.28
   3   2   7    9.14    1.43
  -4  -2  -7    1.85    1.55
  -4  -2  -7    3.41    1.47
  -4  -2  -7    4.40    1.49
  -4  -2  -7    8.18    1.92
  -4  -2  -7    4.60    1.18
   4   2   7    2.18    1.00
   4   2   7    3.59    1.08
   4   2   7    5.46    1.33
   4   2   7    5.94    1.57
  -5  -2  -7    0.62    1.25
  -5  -2  -7    1.00    0.93
  -5  -2  -7    0.90    1.53
  -5  -2  -7    0.21    1.30
   5   2   7    0.24    0.81
   5   2   7    1.27    1.09
   7  -3  -7    6.11    1.06
   7  -3  -7    6.48    1.13
  -7   3   7    6.63    1.06
  -7   3   7    5.46    1.09
  -7   3   7    6.75    1.12
   6  -3  -7    1.44    0.60
   6  -3  -7    2.91    0.68
   6  -3  -7    1.70    0.59
   6  -3  -7    2.68    0.63
  -6   3   7    3.87    0.91
  -6   3   7    2.68    0.69
  -6   3   7    1.81    0.62
   5  -3  -7   56.78    3.96
   5  -3  -7   53.20    4.00
   5  -3  -7   55.21    3.90
  -5   3   7   58.40    4.12
  -5   3   7   53.56    3.98
   4  -3  -7   32.99    2.60
   4  -3  -7   34.91    2.56
   4  -3  -7   30.31    2.61
  -4   3   7   34.03    2.70
  -4   3   7   31.44    2.63
   3  -3  -7  115.05    7.40
   3  -3  -7  110.45    7.21
   3  -3  -7  117.54    7.33
   3  -3  -7  116.80    7.40
  -3   3   7   92.61    7.29
  -3   3   7   99.58    7.30
  -3   3   7  108.54    7.41
   2  -3  -7   22.64    2.22
   2  -3  -7   28.77    2.32
   2  -3  -7   23.79    2.09
   2  -3  -7   30.16    2.42
  -2   3   7   16.44    2.25
  -2   3   7   18.93    2.21
  -2   3   7   22.20    2.91
   1  -3  -7   14.80    1.76
   1  -3  -7   12.33    1.52
   1  -3  -7   15.20    1.92
  -1   3   7   15.92    1.91
  -1   3   7   11.83    2.22
  -1   3   7    8.38    2.01
  -1   3   7   10.83    1.71
  -1   3   7    9.41    1.53
   0  -3  -7    1.17    0.61
   0  -3  -7    1.39    0.80
   0   3   7    4.49    1.19
   0   3   7    2.37    0.89
   0   3   7    3.01    0.92
   0   3   7    2.48    0.82
   0   3   7    1.45    0.76
  -1  -3  -7   35.10    3.05
  -1  -3  -7   32.45    2.80
  -1  -3  -7   36.80    2.93
   1   3   7   32.93    2.94
   1   3   7   34.61    3.13
  -2  -3  -7    4.42    1.13
  -2  -3  -7    8.96    1.47
  -2  -3  -7    7.07    1.41
   2   3   7    4.21    0.94
   2   3   7    5.88    1.12
   2   3   7    7.25    1.66
  -3  -3  -7   90.30    6.81
  -3  -3  -7   92.73    6.73
  -3  -3  -7   92.90    6.63
  -3  -3  -7   96.48    6.83
  -3  -3  -7   76.10    6.57
   3   3   7   96.42    7.03
   3   3   7   87.32    6.67
   3   3   7   92.90    6.49
  -4  -3  -7    0.75    1.18
  -4  -3  -7    1.43    1.25
  -4  -3  -7    0.82    1.30
  -4  -3  -7    0.60    1.14
  -4  -3  -7    0.32    0.89
   4   3   7    0.66    0.94
   4   3   7    0.22    1.06
   4   3   7    2.15    0.90
  -5  -3  -7   14.27    2.41
  -5  -3  -7   14.47    2.35
  -5  -3  -7   12.98    2.09
   5   3   7   17.89    2.11
   5   3   7   12.53    2.03
   7  -4  -7    0.19    0.50
   7  -4  -7   -0.09    0.57
  -7   4   7   -0.12    0.54
  -7   4   7   -0.12    0.52
  -7   4   7    0.49    0.59
   6  -4  -7   50.75    3.93
   6  -4  -7   53.95    3.89
   6  -4  -7   54.36    3.83
  -6   4   7   53.17    3.91
  -6   4   7   53.35    3.99
  -6   4   7   56.54    4.03
   5  -4  -7    3.07    0.66
   5  -4  -7    7.15    1.22
   5  -4  -7    4.68    0.84
   5  -4  -7    4.87    0.87
  -5   4   7    4.84    0.92
  -5   4   7    6.85    1.13
   4  -4  -7    0.64    0.47
   4  -4  -7    0.24    0.42
   4  -4  -7    0.13    0.36
   4  -4  -7    0.19    0.44
  -4   4   7    0.39    0.44
  -4   4   7    0.54    0.56
  -4   4   7   -0.31    0.38
   3  -4  -7    9.76    1.16
   3  -4  -7   11.98    1.65
   3  -4  -7    7.11    1.21
   3  -4  -7    9.68    1.19
  -3   4   7    6.02    1.17
  -3   4   7    6.09    1.10
  -3   4   7   10.29    1.99
   2  -4  -7  151.57    8.76
   2  -4  -7  131.49    8.71
   2  -4  -7  134.70    8.56
   2  -4  -7  140.07    8.79
  -2   4   7  114.90    8.85
  -2   4   7  110.39    9.06
  -2   4   7  115.26    8.67
   1  -4  -7    0.88    0.63
   1  -4  -7    1.88    0.80
   1  -4  -7    1.59    0.78
  -1   4   7    0.22    0.55
  -1   4   7    0.96    1.01
  -1   4   7    0.51    1.00
  -1   4   7    1.31    0.81
  -1   4   7    0.83    0.81
   0  -4  -7  117.88    7.95
   0  -4  -7  116.43    8.17
   0   4   7  113.44    8.28
   0   4   7  119.35    8.13
   0   4   7  109.08    8.43
  -1  -4  -7    4.63    1.01
  -1  -4  -7    4.36    0.99
  -1  -4  -7    6.22    1.39
   1   4   7    5.41    1.16
   1   4   7    3.54    0.94
  -2  -4  -7    4.64    1.07
  -2  -4  -7    3.10    1.16
  -2  -4  -7    2.77    1.04
   2   4   7    1.32    0.71
   2   4   7    3.25    1.28
   2   4   7    1.68    0.61
  -3  -4  -7    5.41    1.48
  -3  -4  -7    2.77    1.27
  -3  -4  -7    4.69    1.25
   3   4   7    5.64    1.22
   3   4   7    4.25    1.29
   3   4   7    4.14    1.14
  -4  -4  -7   18.93    2.99
  -4  -4  -7   23.60    2.66
  -4  -4  -7   14.85    2.21
  -4  -4  -7   16.32    2.44
   4   4   7   18.12    2.28
   4   4   7   16.87    2.23
   4   4   7   18.93    2.10
  -5  -4  -7   -0.53    1.03
  -5  -4  -7   -0.16    1.39
  -5  -4  -7    0.05    1.59
  -5  -4  -7    0.77    1.40
   5   4   7   -0.37    0.93
   5   4   7    1.19    0.92
   7  -5  -7    0.92    0.66
   7  -5  -7    1.11    0.62
  -7   5   7    1.15    0.67
  -7   5   7    0.33    0.51
  -7   5   7    0.57    0.54
   6  -5  -7    3.56    0.79
   6  -5  -7    3.18    0.78
   6  -5  -7    4.49    0.99
  -6   5   7    2.39    0.73
  -6   5   7    3.08    0.75
  -6   5   7    2.01    0.65
   5  -5  -7    4.89    0.90
   5  -5  -7    4.13    0.98
   5  -5  -7    5.57    0.92
   5  -5  -7    3.44    0.77
  -5   5   7    5.20    0.99
  -5   5   7    5.48    0.94
   4  -5  -7   22.80    2.11
   4  -5  -7   25.53    2.11
   4  -5  -7   24.09    2.19
  -4   5   7   25.55    2.17
  -4   5   7   24.07    2.11
   3  -5  -7    1.18    0.51
   3  -5  -7    1.99    0.65
   3  -5  -7    1.22    0.59
   3  -5  -7    1.70    0.71
  -3   5   7    1.07    0.46
  -3   5   7    1.54    0.62
   2  -5  -7   12.65    1.56
   2  -5  -7   13.34    1.64
   2  -5  -7   19.35    1.79
   2  -5  -7   13.99    1.70
  -2   5   7   11.31    1.54
   1  -5  -7    8.44    1.48
   1  -5  -7    9.78    1.59
   1  -5  -7    8.55    1.83
   1  -5  -7    5.77    1.31
  -1   5   7    6.96    1.62
  -1   5   7    3.81    1.13
  -1   5   7   12.37    1.82
  -1   5   7    6.90    1.65
   0  -5  -7    1.77    0.82
   0  -5  -7   -0.08    0.71
   0   5   7    0.06    0.66
   0   5   7    1.19    0.91
   0   5   7    0.36    0.68
  -1  -5  -7   24.11    2.58
  -1  -5  -7   23.23    2.24
  -1  -5  -7   24.55    2.38
   1   5   7   27.99    2.56
   1   5   7   25.63    3.11
   1   5   7   26.66    2.77
  -2  -5  -7    3.91    1.27
  -2  -5  -7    2.38    0.86
  -2  -5  -7    0.85    0.84
   2   5   7    6.22    1.30
   2   5   7    2.00    0.83
   2   5   7    0.77    0.64
   2   5   7    1.60    0.92
  -3  -5  -7    0.68    1.21
  -3  -5  -7    0.62    0.99
  -3  -5  -7    1.04    0.93
   3   5   7   -0.39    0.56
   3   5   7   -0.23    0.89
   3   5   7   -0.05    0.66
  -4  -5  -7    0.57    1.08
  -4  -5  -7   -0.37    1.26
  -4  -5  -7   -0.09    1.17
   4   5   7   -0.05    0.89
   4   5   7    0.43    0.94
   4   5   7    1.26    0.93
  -5  -5  -7    3.43    1.31
  -5  -5  -7    6.23    1.44
  -5  -5  -7    6.58    2.07
   5   5   7    3.18    1.23
   5   5   7    4.03    1.13
   7  -6  -7    0.55    0.64
   7  -6  -7    0.16    0.53
  -7   6   7   -0.52    0.55
  -7   6   7   -0.89    0.51
  -7   6   7   -0.51    0.67
   6  -6  -7    0.96    0.69
   6  -6  -7    0.21    0.46
   6  -6  -7    1.25    0.64
  -6   6   7    0.35    0.47
  -6   6   7    0.58    0.54
   5  -6  -7    4.20    0.86
   5  -6  -7    3.83    0.96
   5  -6  -7    4.24    0.81
   5  -6  -7    5.79    0.97
  -5   6   7    5.12    0.87
  -5   6   7    3.85    0.83
  -5   6   7    1.72    0.88
   4  -6  -7    1.96    0.81
   4  -6  -7    0.88    0.52
   4  -6  -7    1.66    0.61
   4  -6  -7    0.49    0.54
  -4   6   7    1.01    0.50
  -4   6   7    1.63    0.91
  -4   6   7    0.08    0.40
   3  -6  -7    0.62    0.54
   3  -6  -7    0.38    0.52
   3  -6  -7    0.46    0.51
   3  -6  -7   -0.04    0.54
  -3   6   7    0.22    0.41
  -3   6   7    0.29    0.44
   2  -6  -7   39.59    3.35
   2  -6  -7   37.13    3.13
   2  -6  -7   41.33    3.55
   2  -6  -7   43.94    3.31
  -2   6   7   38.88    3.21
  -2   6   7   36.58    3.10
   1  -6  -7    0.89    0.73
   1  -6  -7    0.41    0.73
   1  -6  -7    1.18    0.85
   1  -6  -7    0.70    0.73
  -1   6   7    0.50    0.91
  -1   6   7    1.43    0.88
  -1   6   7    0.89    0.87
  -1   6   7    1.18    0.80
   0  -6  -7   20.11    2.23
   0  -6  -7   19.76    2.37
   0   6   7   18.78    2.33
   0   6   7   23.66    2.79
  -1  -6  -7   14.93    1.73
  -1  -6  -7   16.28    2.09
  -1  -6  -7   14.28    1.93
   1   6   7   17.06    2.44
   1   6   7   18.23    2.04
  -2  -6  -7    0.31    0.74
  -2  -6  -7    0.36    0.80
  -2  -6  -7    2.35    0.85
   2   6   7    0.82    0.82
   2   6   7    1.03    0.73
   2   6   7    1.87    0.99
  -3  -6  -7   26.59    2.82
  -3  -6  -7   25.40    3.03
  -3  -6  -7   26.77    3.45
   3   6   7   34.01    3.03
   3   6   7   34.36    2.88
   3   6   7   27.76    2.91
  -4  -6  -7   13.73    2.36
  -4  -6  -7   18.06    2.50
   4   6   7   20.88    2.43
   4   6   7   21.78    2.31
   4   6   7   25.67    2.57
   6  -7  -7    9.36    1.24
   6  -7  -7    9.00    1.30
   6  -7  -7    8.00    1.22
  -6   7   7    8.97    1.23
   5  -7  -7   29.81    2.77
   5  -7  -7   35.47    2.72
   5  -7  -7   31.43    2.72
   5  -7  -7   30.28    3.12
  -5   7   7   32.45    2.66
  -5   7   7   34.48    2.86
   4  -7  -7   15.67    1.66
   4  -7  -7   15.57    1.65
   4  -7  -7   16.91    1.76
   4  -7  -7   15.03    1.79
  -4   7   7   18.24    1.69
  -4   7   7   17.91    1.60
  -4   7   7    9.83    1.88
   3  -7  -7   35.73    2.80
   3  -7  -7   28.52    2.67
   3  -7  -7   34.01    2.83
   3  -7  -7   34.12    2.93
  -3   7   7   34.83    2.62
  -3   7   7   29.95    2.68
   2  -7  -7    9.18    1.67
   2  -7  -7    8.11    1.38
   2  -7  -7    8.87    1.57
   2  -7  -7    5.34    1.15
  -2   7   7    8.03    1.31
  -2   7   7    7.29    1.16
   1  -7  -7    9.05    1.59
   1  -7  -7    8.28    1.53
   1  -7  -7   10.54    1.61
   1  -7  -7    9.70    1.84
  -1   7   7    5.84    1.43
  -1   7   7    9.16    1.53
  -1   7   7    6.35    1.33
   0  -7  -7    0.26    0.64
   0  -7  -7    0.82    0.87
   0  -7  -7    0.66    0.96
   0   7   7   -0.29    0.86
  -1  -7  -7   86.66    6.55
  -1  -7  -7   90.72    6.36
  -1  -7  -7   91.17    6.27
   1   7   7   85.83    6.44
   1   7   7   90.75    6.39
   1   7   7   84.17    6.55
   1   7   7   94.58    6.88
  -2  -7  -7    4.22    1.03
  -2  -7  -7    2.01    1.15
  -2  -7  -7    3.04    1.05
   2   7   7    1.91    1.10
   2   7   7    2.71    0.91
   2   7   7    3.80    1.15
   2   7   7    1.06    0.81
  -3  -7  -7   20.53    2.38
  -3  -7  -7   15.76    2.36
  -3  -7  -7   19.11    2.55
   3   7   7   20.88    2.27
   3   7   7   15.54    2.29
   3   7   7   22.98    2.51
  -4  -7  -7    1.73    1.18
  -4  -7  -7    1.65    1.37
   4   7   7    3.38    1.33
   4   7   7    2.87    1.14
   4   7   7    3.92    1.12
   6  -8  -7   16.26    3.18
   6  -8  -7    8.72    1.33
   6  -8  -7    9.53    1.39
  -6   8   7    9.61    1.30
  -6   8   7    9.42    1.29
   5  -8  -7    0.02    0.57
   5  -8  -7    0.21    0.69
   5  -8  -7    0.79    0.61
  -5   8   7   -0.48    0.48
   4  -8  -7    0.93    0.58
   4  -8  -7    2.44    0.69
   4  -8  -7    1.76    0.71
   4  -8  -7    1.62    0.67
  -4   8   7   -0.07    1.22
  -4   8   7    2.09    0.60
  -4   8   7    1.22    0.62
   3  -8  -7    1.21    0.73
   3  -8  -7    1.15    0.74
   3  -8  -7    0.90    0.68
   3  -8  -7    1.26    0.67
  -3   8   7    2.59    1.32
  -3   8   7    0.94    0.54
  -3   8   7    2.50    0.60
   2  -8  -7    7.70    1.28
   2  -8  -7    6.30    1.24
   2  -8  -7    9.11    1.46
  -2   8   7   10.22    1.15
  -2   8   7    8.84    2.60
  -2   8   7    7.58    1.23
   1  -8  -7   -0.35    0.77
   1  -8  -7    0.18    1.07
   1  -8  -7    0.17    0.88
   1  -8  -7    0.95    0.61
  -1   8   7   -0.65    0.54
  -1   8   7    0.44    0.53
  -1   8   7    0.13    0.92
   0  -8  -7   14.11    2.26
   0  -8  -7   12.00    2.21
   0  -8  -7   13.12    1.88
   0  -8  -7   10.81    1.86
   0   8   7   15.59    2.14
   0   8   7    8.38    1.84
   0   8   7   14.86    1.98
  -1  -8  -7    5.11    1.03
  -1  -8  -7    4.89    1.27
  -1  -8  -7    6.35    1.56
   1   8   7    4.79    1.37
   1   8   7    7.24    1.80
   1   8   7    5.70    1.44
   1   8   7    4.60    1.13
  -2  -8  -7    0.59    0.67
  -2  -8  -7    1.81    1.04
  -2  -8  -7    0.90    0.86
   2   8   7    1.31    1.02
   2   8   7    1.72    0.83
   2   8   7   -0.45    0.84
   2   8   7    0.56    0.90
  -3  -8  -7   10.18    1.76
  -3  -8  -7   11.88    2.25
  -3  -8  -7    8.15    1.63
   3   8   7    7.07    1.40
   3   8   7   10.19    1.68
   4   8   7    0.41    0.96
   5  -9  -7   17.47    2.16
   5  -9  -7   20.41    2.11
   5  -9  -7   21.00    2.04
  -5   9   7   20.81    1.85
  -5   9   7   21.10    2.18
   4  -9  -7   13.56    1.61
   4  -9  -7   11.73    1.77
   4  -9  -7   13.63    1.71
   4  -9  -7   14.19    1.72
  -4   9   7   16.69    1.45
  -4   9   7   13.88    1.59
   3  -9  -7   34.91    3.27
   3  -9  -7   38.92    3.20
   3  -9  -7   39.66    3.14
   3  -9  -7   38.92    3.13
  -3   9   7   33.19    3.93
  -3   9   7   37.73    3.04
  -3   9   7   38.61    2.79
   2  -9  -7    9.40    1.48
   2  -9  -7    7.38    1.59
   2  -9  -7    8.01    1.25
   2  -9  -7    9.11    1.42
  -2   9   7    9.82    1.88
  -2   9   7    4.94    1.06
  -2   9   7    9.05    1.05
   1  -9  -7   11.11    1.83
   1  -9  -7    9.93    1.69
   1  -9  -7    9.57    1.89
   1  -9  -7   11.20    1.70
  -1   9   7    7.03    1.11
  -1   9   7    7.97    1.32
  -1   9   7   12.15    1.82
   0  -9  -7    1.70    1.01
   0  -9  -7    0.20    0.94
   0  -9  -7    0.96    0.89
   0  -9  -7    1.39    0.77
   0   9   7    0.25    0.73
   0   9   7    1.22    1.02
   0   9   7    1.22    0.85
   0   9   7    1.06    1.00
  -1  -9  -7   11.19    1.84
  -1  -9  -7    6.44    1.18
  -1  -9  -7   10.57    1.81
   1   9   7    5.96    1.53
   1   9   7    9.35    1.40
   1   9   7    9.82    1.59
   1   9   7    4.47    1.30
  -2  -9  -7    4.32    1.02
  -2  -9  -7    3.20    1.13
  -2  -9  -7    4.67    1.50
   2   9   7    3.76    1.26
   2   9   7    1.42    1.09
   2   9   7    2.14    0.94
   2   9   7    1.24    1.24
  -3  -9  -7   35.56    3.36
  -3  -9  -7   35.81    3.48
   3   9   7   39.80    3.72
   4 -10  -7    2.35    1.44
   4 -10  -7    0.07    0.81
   4 -10  -7    0.40    0.66
  -4  10   7    0.40    0.57
  -4  10   7    0.39    0.47
   3 -10  -7    3.98    1.00
   3 -10  -7    2.99    0.77
   3 -10  -7    4.77    1.16
   3 -10  -7    4.28    1.04
  -3  10   7    5.29    0.81
  -3  10   7    4.73    0.97
   2 -10  -7   75.08    5.46
   2 -10  -7   77.63    5.63
   2 -10  -7   66.56    5.73
   2 -10  -7   73.04    5.51
  -2  10   7   72.16    5.78
  -2  10   7   79.80    5.00
  -2  10   7   78.30    5.37
   1 -10  -7   -0.20    0.73
   1 -10  -7    0.16    0.75
   1 -10  -7    1.62    1.66
   1 -10  -7   -0.18    1.11
  -1  10   7    0.51    0.47
  -1  10   7    0.26    1.02
  -1  10   7    0.88    0.79
  -1  10   7    0.33    0.64
   0 -10  -7   80.68    5.48
   0 -10  -7   59.29    5.66
   0 -10  -7   68.11    5.57
   0 -10  -7   82.71    5.61
   0  10   7   63.68    4.64
   0  10   7   54.38    4.62
   0  10   7   55.40    5.29
   0  10   7   70.72    5.01
   0  10   7   71.38    5.14
  -1 -10  -7    3.82    1.49
  -1 -10  -7    1.04    2.28
  -1 -10  -7    2.53    1.00
   1  10   7    1.93    0.95
   1  10   7    1.55    0.74
   1  10   7    2.03    1.20
   1  10   7    2.84    1.34
  -2 -10  -7    0.45    1.06
  -2 -10  -7    1.57    1.05
  -2 -10  -7    1.47    0.85
   2  10   7    1.93    1.26
   2  10   7    0.69    0.76
   2  10   7    0.72    1.21
   2  10   7    1.79    1.24
   3 -11  -7    1.23    1.03
   3 -11  -7    0.57    0.61
   3 -11  -7    0.82    0.78
  -3  11   7    0.80    0.47
  -3  11   7    0.94    0.62
   2 -11  -7    4.72    1.56
   2 -11  -7    3.94    1.28
   2 -11  -7    3.11    0.97
   2 -11  -7    3.68    1.06
  -2  11   7    3.76    0.95
  -2  11   7    5.12    0.71
  -2  11   7    4.69    0.98
   1 -11  -7    2.79    1.60
   1 -11  -7    2.05    1.00
   1 -11  -7    2.12    1.41
   1 -11  -7    0.59    1.60
  -1  11   7    2.36    1.28
  -1  11   7    3.56    0.61
  -1  11   7    2.49    0.70
  -1  11   7    1.74    0.81
   0 -11  -7   -1.89    1.09
   0 -11  -7    0.26    1.19
   0 -11  -7    2.02    1.06
   0 -11  -7    0.15    1.06
   0  11   7    0.38    0.53
   0  11   7    0.50    1.19
   0  11   7    0.47    0.73
   0  11   7    0.50    0.56
  -1 -11  -7    1.36    0.99
  -1 -11  -7    0.98    1.17
   1  11   7    0.78    0.68
   1  11   7    1.75    1.43
   1  11   7    0.15    1.24
   1  11   7    1.34    0.92
  -3 -10   8    2.70    1.02
  -3 -10   8    0.26    0.70
  -2 -10   8    5.59    1.19
  -2 -10   8    4.53    0.96
  -1 -10   8    0.35    0.82
  -1 -10   8    0.49    0.76
   0  10  -8   11.30    2.90
   0 -10   8    8.80    0.84
   0 -10   8   11.06    1.45
  -1  10  -8    4.23    2.58
   1 -10   8    3.34    0.72
   1 -10   8    6.02    1.23
  -4  -9   8   11.93    1.35
  -4  -9   8   14.04    1.24
  -4  -9   8   14.20    1.76
  -3  -9   8   15.96    1.58
  -3  -9   8    9.70    1.64
  -2  -9   8   -0.78    0.80
  -2  -9   8    1.21    0.73
  -1  -9   8    8.67    1.31
   0   9  -8   -0.15    0.32
   0   9  -8   -0.86    1.61
   0   9  -8   -0.24    0.28
   0  -9   8    0.41    0.38
   0  -9   8    1.36    0.87
   0  -9   8   -0.07    0.49
  -1   9  -8    1.06    2.09
  -1   9  -8   -0.19    1.73
   1  -9   8    0.22    0.53
   1  -9   8   -0.31    0.89
   1  -9   8    0.17    0.46
  -2   9  -8    0.93    2.79
   2  -9   8    3.35    1.18
   2  -9   8    2.04    0.77
   2  -9   8    2.39    0.91
  -5  -8   8    1.54    0.54
  -5  -8   8    0.94    0.65
  -4  -8   8    0.85    0.51
  -4  -8   8    0.22    0.61
  -4  -8   8    0.73    0.47
  -3  -8   8    9.70    1.66
  -3  -8   8    8.67    2.62
  -3  -8   8    7.36    1.21
  -2  -8   8    4.00    0.82
  -2  -8   8    3.32    1.79
  -2  -8   8    4.28    1.27
  -1  -8   8    0.63    1.38
  -1  -8   8    0.31    0.66
   0   8  -8    0.63    0.56
   0   8  -8    1.75    1.52
   0   8  -8    0.71    0.50
   0  -8   8    1.71    0.85
   0  -8   8    1.25    0.63
   0  -8   8    1.69    0.48
  -1   8  -8    3.44    1.09
  -1   8  -8    6.05    2.24
   1  -8   8    5.97    1.28
   1  -8   8    4.76    0.81
   1  -8   8    3.73    0.85
  -2   8  -8   -0.71    1.82
  -2   8  -8    1.19    1.00
  -2   8  -8   -0.43    1.96
   2  -8   8   -0.65    0.98
   2  -8   8    0.11    0.72
   2  -8   8    1.04    1.07
  -5  -7   8    3.41    0.67
  -5  -7   8    1.01    0.67
  -4  -7   8    0.42    0.49
  -4  -7   8    1.38    0.77
  -4  -7   8    1.91    2.59
  -3  -7   8   28.90    2.79
  -3  -7   8   28.57    2.46
  -3  -7   8   41.10    4.98
  -2  -7   8    0.23    1.27
  -2  -7   8    2.62    0.72
  -2  -7   8    0.29    0.56
   1   7  -8  111.18    6.49
   1   7  -8   96.95    6.64
   1   7  -8   96.39    6.54
   0   7  -8    0.15    0.59
   0   7  -8   -0.28    1.34
   0   7  -8    0.20    0.67
   0  -7   8   -0.06    0.38
   0  -7   8    0.65    0.72
   0  -7   8    0.05    0.49
  -1   7  -8   15.70    1.84
  -1   7  -8   18.51    3.62
  -1   7  -8   19.15    3.67
   1  -7   8   14.74    1.67
   1  -7   8   20.99    1.70
   1  -7   8   18.53    2.14
  -2   7  -8    0.18    1.81
  -2   7  -8    0.95    1.01
  -2   7  -8   -0.08    1.90
   2  -7   8    0.35    1.08
   2  -7   8    0.07    0.58
   2  -7   8    0.94    0.77
  -3   7  -8    9.77    3.32
  -3   7  -8   10.47    3.23
   3  -7   8   12.66    1.87
   3  -7   8   14.17    1.67
   6   6  -8   35.39    3.60
   6   6  -8   37.09    2.74
   5   6  -8    0.77    0.48
   5   6  -8   -0.24    0.59
   5   6  -8    1.17    0.55
   5   6  -8    1.54    0.52
  -5  -6   8    1.34    0.52
  -5  -6   8    1.05    0.58
   4   6  -8   43.65    3.09
   4   6  -8   44.56    3.14
   4   6  -8   51.76    3.28
   4   6  -8   49.72    3.24
  -4  -6   8   48.98    3.43
  -4  -6   8   52.28    3.91
  -4  -6   8   43.45    6.18
   3   6  -8   16.32    1.16
   3   6  -8   12.05    1.41
  -3  -6   8   13.39    1.78
  -3  -6   8   19.75    6.14
  -3  -6   8   19.12    5.46
  -3  -6   8   12.79    1.45
   2   6  -8   -0.23    0.26
   2   6  -8    0.91    0.66
   2   6  -8    0.06    0.31
  -2  -6   8    1.50    1.34
  -2  -6   8    0.58    0.66
  -2  -6   8    0.39    0.61
  -2  -6   8    0.35    1.32
   1   6  -8    0.91    0.45
   1   6  -8    1.06    0.78
  -1  -6   8    1.91    1.45
  -1  -6   8    0.37    0.44
  -1  -6   8    0.85    0.51
  -1  -6   8    2.63    1.35
   0   6  -8   48.57    5.27
   0  -6   8   51.54    3.84
   0  -6   8   51.30    3.51
   0  -6   8   46.98    3.66
  -1   6  -8   12.85    3.04
  -1   6  -8    9.98    1.47
  -1   6  -8   11.73    2.71
   1  -6   8   10.35    1.57
   1  -6   8   11.86    1.28
   1  -6   8   10.01    1.36
  -2   6  -8   35.75    3.86
  -2   6  -8   48.52    5.79
  -2   6  -8   49.63    5.84
   2  -6   8   44.20    3.83
   2  -6   8   53.11    3.69
   2  -6   8   58.53    4.49
   2  -6   8   44.86    3.77
  -3   6  -8    6.91    3.25
  -3   6  -8    7.48    0.89
  -3   6  -8    3.06    2.05
   3  -6   8    7.10    1.21
   3  -6   8    6.33    1.60
   3  -6   8    4.91    1.19
   6   5  -8    0.40    0.57
   6   5  -8    0.25    0.56
  -6  -5   8    0.80    0.52
  -6  -5   8    0.08    0.59
   5   5  -8    4.43    0.82
   5   5  -8    4.03    0.67
   5   5  -8    2.65    0.87
  -5  -5   8    3.58    0.75
  -5  -5   8    4.04    0.91
  -5  -5   8    1.42    2.10
   4   5  -8    7.27    1.11
   4   5  -8    8.24    0.85
  -4  -5   8    3.23    3.22
  -4  -5   8    7.82    1.14
   3   5  -8    5.16    0.64
   3   5  -8    6.18    0.97
  -3  -5   8    3.54    1.98
  -3  -5   8    5.67    1.20
  -3  -5   8    3.38    0.75
  -3  -5   8    2.17    2.26
   2   5  -8    1.45    0.49
   2   5  -8    1.62    0.45
   2   5  -8    2.13    0.71
  -2  -5   8    1.69    0.84
  -2  -5   8    1.47    2.11
  -2  -5   8    0.52    0.57
  -2  -5   8    1.72    1.60
   1   5  -8   37.39    3.22
   1   5  -8   43.72    2.85
  -1  -5   8   41.16    3.05
  -1  -5   8   35.20    2.86
   0   5  -8   -1.12    1.03
   0   5  -8   -0.83    0.71
   0   5  -8    0.29    0.89
   0  -5   8   -0.35    0.60
   0  -5   8    0.23    0.39
  -1   5  -8   10.48    2.61
  -1   5  -8   13.58    2.85
  -1   5  -8    8.34    1.54
   1  -5   8   14.31    1.55
   1  -5   8   14.35    1.74
   1  -5   8   15.70    1.48
  -2   5  -8    0.28    1.42
  -2   5  -8    0.65    1.03
  -2   5  -8   -0.33    1.62
  -2   5  -8   -0.46    0.89
   2  -5   8   -0.48    0.64
   2  -5   8    0.05    0.86
   2  -5   8    0.20    0.56
   2  -5   8   -0.02    0.65
  -3   5  -8    1.47    2.21
  -3   5  -8   -0.10    1.66
  -3   5  -8    1.01    0.62
   3  -5   8    1.85    0.97
   3  -5   8    0.41    1.00
   3  -5   8    0.53    0.67
  -4   5  -8    0.27    0.95
  -4   5  -8   -1.24    1.64
  -4   5  -8   -0.72    1.93
   4  -5   8   -0.59    0.72
   4  -5   8   -0.44    0.69
   7   4  -8    1.77    0.83
   7   4  -8    2.46    0.84
  -7  -4   8    3.42    0.79
  -7  -4   8    2.07    0.85
   6   4  -8    1.26    0.61
   6   4  -8    0.38    0.60
   6   4  -8    1.07    0.60
  -6  -4   8    1.06    0.69
  -6  -4   8    1.84    0.59
   5   4  -8    3.63    0.65
   5   4  -8    3.27    0.69
   5   4  -8    4.65    0.76
  -5  -4   8    2.55    0.66
  -5  -4   8    0.71    2.23
  -5  -4   8    3.37    0.98
   4   4  -8   19.64    1.52
   4   4  -8   19.79    1.56
   4   4  -8   22.96    2.04
  -4  -4   8   17.79    1.75
  -4  -4   8   17.03    1.98
  -4  -4   8   12.37    3.32
  -4  -4   8   10.41    3.29
   3   4  -8    8.14    0.91
   3   4  -8   10.01    0.99
   3   4  -8    9.57    1.22
  -3  -4   8    5.81    1.19
  -3  -4   8    6.72    1.02
   2   4  -8   15.64    1.37
   2   4  -8   16.72    1.58
   2   4  -8   14.41    1.39
  -2  -4   8    8.36    1.84
  -2  -4   8   11.10    2.21
   1   4  -8    1.08    0.41
   1   4  -8    0.15    0.55
  -1  -4   8   -0.37    1.09
  -1  -4   8    0.33    0.44
  -1  -4   8    0.66    0.64
  -1  -4   8    0.01    0.85
  -1  -4   8    0.63    0.47
   0   4  -8   17.39    2.13
   0   4  -8   17.90    3.41
   0  -4   8   20.46    1.79
   0  -4   8   20.55    1.96
   0  -4   8   24.82    3.10
  -1   4  -8    9.50    2.69
  -1   4  -8   10.28    2.52
   1  -4   8    9.94    1.30
   1  -4   8    8.24    1.17
   1  -4   8    7.37    1.33
  -2   4  -8   27.90    4.76
  -2   4  -8   27.88    4.17
  -2   4  -8   18.77    2.65
  -2   4  -8   32.79    2.19
  -2   4  -8   23.18    3.18
   2  -4   8   24.63    2.55
   2  -4   8   29.47    2.50
   2  -4   8   25.38    2.74
   2  -4   8   34.26    3.23
  -3   4  -8   15.41    3.49
  -3   4  -8   16.33    3.43
  -3   4  -8   19.27    1.87
   3  -4   8   15.97    2.14
   3  -4   8   15.28    1.85
   3  -4   8   20.56    2.22
  -4   4  -8    0.85    0.97
  -4   4  -8    0.79    1.94
  -4   4  -8    0.95    1.85
   4  -4   8   -0.03    0.87
   4  -4   8    0.03    0.75
   7   3  -8   13.74    1.45
   7   3  -8    8.90    1.35
  -7  -3   8   11.42    1.61
  -7  -3   8   12.37    1.42
   6   3  -8    9.92    1.16
   6   3  -8   10.30    1.29
   6   3  -8    9.41    1.24
  -6  -3   8    8.64    1.18
  -6  -3   8    9.77    1.59
   5   3  -8    1.84    0.56
   5   3  -8    2.04    0.55
   5   3  -8    1.08    0.49
  -5  -3   8    0.51    1.97
  -5  -3   8    2.08    0.68
  -5  -3   8    2.17    0.79
   4   3  -8   45.25    3.10
   4   3  -8   40.80    2.75
   4   3  -8   39.14    2.79
   4   3  -8   37.91    3.00
  -4  -3   8   24.37    4.91
  -4  -3   8   28.14    4.75
  -4  -3   8   40.16    3.01
  -4  -3   8   35.24    3.22
   3   3  -8   41.60    2.95
   3   3  -8   41.42    3.29
   3   3  -8   45.63    3.03
  -3  -3   8   33.95    3.01
  -3  -3   8   42.83    3.63
   2   3  -8    2.65    0.69
   2   3  -8    2.81    0.70
   2   3  -8    3.15    0.68
   2   3  -8    2.23    0.76
  -2  -3   8    0.28    1.33
  -2  -3   8    3.04    1.64
  -2  -3   8    0.85    0.77
   1   3  -8   28.12    2.36
  -1  -3   8   26.06    3.27
  -1  -3   8   28.08    2.35
  -1  -3   8   24.19    2.30
  -1  -3   8   24.91    3.39
  -1  -3   8   24.99    2.20
   0   3  -8   -0.87    1.07
   0   3  -8    1.02    0.68
   0  -3   8    0.83    0.58
   0  -3   8   -0.63    0.38
   0  -3   8   -0.78    0.94
   0  -3   8    0.51    0.88
  -1   3  -8   -0.12    1.00
  -1   3  -8    0.46    1.23
   1  -3   8    0.56    0.63
   1  -3   8    0.72    0.51
   1  -3   8    0.25    0.51
  -2   3  -8    4.98    1.39
  -2   3  -8    7.94    1.02
  -2   3  -8    4.84    1.42
  -2   3  -8    5.53    2.09
  -2   3  -8    5.35    1.96
   2  -3   8    5.46    1.46
   2  -3   8    5.96    1.36
   2  -3   8    5.48    1.05
   2  -3   8    5.68    1.13
  -3   3  -8    8.11    2.38
  -3   3  -8    6.24    2.31
  -3   3  -8    5.87    1.64
   3  -3   8    9.11    1.39
   3  -3   8   11.36    1.78
   3  -3   8    8.39    1.38
  -4   3  -8    2.12    1.69
  -4   3  -8    2.34    1.98
  -4   3  -8    1.53    1.05
   4  -3   8    1.62    1.06
   4  -3   8    2.33    0.93
   7   2  -8    1.47    0.66
   7   2  -8    0.73    0.70
  -7  -2   8    0.00    0.60
  -7  -2   8    0.44    0.67
   6   2  -8    2.01    0.64
   6   2  -8    1.02    0.53
   6   2  -8    0.73    0.58
  -6  -2   8    1.67    0.59
  -6  -2   8    1.64    0.78
   5   2  -8    4.10    0.87
   5   2  -8    4.92    0.79
   5   2  -8    5.43    0.89
   5   2  -8    4.49    0.75
  -5  -2   8    2.59    2.23
  -5  -2   8    3.59    0.78
   4   2  -8    9.41    1.05
   4   2  -8    8.64    1.07
   4   2  -8    9.62    1.26
  -4  -2   8    8.24    1.47
  -4  -2   8    8.66    1.27
   3   2  -8   15.42    1.95
   3   2  -8    9.87    1.10
   3   2  -8   10.09    1.16
  -3  -2   8    9.40    2.67
  -3  -2   8   11.08    1.92
  -3  -2   8    7.43    1.17
   2   2  -8   11.68    1.55
   2   2  -8    8.79    1.34
  -2  -2   8    7.90    2.45
  -2  -2   8    8.31    2.30
  -2  -2   8    8.51    1.35
  -2  -2   8    7.34    1.37
   1   2  -8    0.95    0.56
  -1  -2   8    0.68    1.05
  -1  -2   8    1.27    0.66
  -1  -2   8    0.47    0.66
  -1  -2   8    1.00    0.59
  -1  -2   8    0.57    1.11
   0   2  -8    2.27    0.76
   0  -2   8    2.98    0.74
   0  -2   8    3.87    1.27
   0  -2   8    3.31    1.32
   0  -2   8    3.28    0.84
  -1   2  -8   10.98    2.41
  -1   2  -8   12.14    1.63
  -1   2  -8   10.15    2.20
   1  -2   8   13.00    1.41
   1  -2   8   12.52    1.57
   1  -2   8   11.95    1.48
  -2   2  -8    6.82    1.55
  -2   2  -8   10.76    2.67
  -2   2  -8   10.95    2.57
  -2   2  -8    8.52    1.21
   2  -2   8    8.84    1.50
   2  -2   8   11.77    1.51
   2  -2   8    8.47    1.41
  -3   2  -8   17.23    1.96
  -3   2  -8   11.05    2.71
  -3   2  -8   14.83    2.27
  -3   2  -8   14.30    3.18
  -3   2  -8   11.74    2.14
   3  -2   8   15.36    1.76
   3  -2   8   12.23    1.84
   3  -2   8   16.00    2.14
   3  -2   8   22.39    2.94
  -4   2  -8    1.64    1.73
  -4   2  -8   -0.99    0.95
  -4   2  -8   -2.17    1.51
   4  -2   8   -0.37    0.72
   4  -2   8    0.07    0.84
   7   1  -8   12.97    1.60
   7   1  -8   10.90    1.44
  -7  -1   8   12.62    1.48
  -7  -1   8   15.93    1.79
   6   1  -8    0.36    0.52
   6   1  -8    0.32    0.49
   6   1  -8   -0.29    0.50
  -6  -1   8   -0.11    0.45
  -6  -1   8    0.31    0.52
   5   1  -8    4.66    0.85
   5   1  -8    5.57    0.97
   5   1  -8    4.81    0.80
  -5  -1   8    6.17    1.13
  -5  -1   8    4.46    0.91
   4   1  -8    4.31    0.80
   4   1  -8    3.55    0.79
  -4  -1   8    3.90    1.00
  -4  -1   8    3.45    0.84
   3   1  -8   32.90    2.76
   3   1  -8   34.19    2.60
   3   1  -8   35.66    2.56
  -3  -1   8   29.88    2.98
  -3  -1   8   28.21    4.43
  -3  -1   8   27.95    4.64
  -3  -1   8   27.85    2.53
   2   1  -8    2.14    0.71
   2   1  -8    1.96    0.69
   2   1  -8    2.45    0.81
  -2  -1   8    2.11    1.85
  -2  -1   8    1.23    1.40
  -2  -1   8    1.76    0.86
   1   1  -8  125.52    8.37
   1   1  -8  129.01    8.54
  -1  -1   8  117.37    8.60
  -1  -1   8  132.67    9.64
  -1  -1   8  130.40    9.51
  -1  -1   8  124.42    8.48
  -1  -1   8  127.02    8.63
   0   1  -8    0.71    0.52
   0   1  -8    0.45    0.51
   0  -1   8    0.80    0.86
   0  -1   8   -0.03    0.80
   0  -1   8    0.05    0.57
  -1   1  -8   23.45    3.12
  -1   1  -8   24.98    2.36
  -1   1  -8   27.69    2.11
   1  -1   8   26.97    2.35
   1  -1   8   22.78    2.17
   1  -1   8   26.90    2.41
  -2   1  -8   -0.21    1.22
  -2   1  -8    0.65    0.82
  -2   1  -8   -0.23    0.46
  -2   1  -8    0.31    1.29
   2  -1   8    0.51    0.54
   2  -1   8    0.87    0.63
   2  -1   8    0.17    0.74
  -3   1  -8   13.20    3.03
  -3   1  -8   13.21    1.84
  -3   1  -8    7.40    1.96
  -3   1  -8   11.56    2.70
  -3   1  -8   11.31    1.82
   3  -1   8   13.98    2.06
   3  -1   8    9.68    1.66
   3  -1   8    9.97    1.89
   3  -1   8   10.17    1.57
  -4   1  -8    1.19    1.64
  -4   1  -8   -1.15    1.47
  -4   1  -8    1.33    1.05
   4  -1   8    0.93    0.81
   4  -1   8   -0.63    0.67
   7   0  -8    8.55    1.28
   7   0  -8    8.87    1.24
  -7   0   8    8.18    1.18
  -7   0   8    7.54    1.02
  -7   0   8    5.00    1.24
   6   0  -8   75.20    5.24
   6   0  -8   71.51    5.28
   6   0  -8   74.66    5.61
  -6   0   8   81.78    5.61
  -6   0   8   80.60    5.34
   5   0  -8    0.79    0.51
   5   0  -8    0.57    0.47
   5   0  -8    0.39    0.44
   5   0  -8    0.88    0.52
  -5   0   8    0.49    0.50
  -5   0   8    0.91    0.53
   4   0  -8   87.74    5.81
   4   0  -8   86.56    5.88
  -4   0   8   85.37    6.21
  -4   0   8   82.19    7.51
   3   0  -8   28.09    2.43
   3   0  -8   32.66    2.46
   3   0  -8   33.14    2.64
   3   0  -8   31.62    2.51
  -3   0   8   28.40    2.81
  -3   0   8   23.34    3.80
  -3   0   8   26.49    2.43
  -3   0   8   24.35    3.98
   2   0  -8    0.08    0.62
   2   0  -8    0.70    0.67
   2   0  -8   -0.19    0.50
   2   0  -8    0.35    0.57
  -2   0   8    0.16    0.65
  -2   0   8    0.12    0.71
  -2   0   8    0.14    1.27
  -2   0   8    0.50    1.32
   1   0  -8    0.50    0.63
   1   0  -8    0.92    0.58
  -1   0   8    0.55    0.59
  -1   0   8    1.57    0.67
  -1   0   8    0.76    1.05
  -1   0   8    0.96    1.11
  -1   0   8    0.32    0.67
   0   0  -8   92.47    6.89
   0   0  -8   98.13    6.79
   0   0   8   94.11    7.32
   0   0   8  110.66    7.45
   0   0   8   96.03    6.81
   0   0   8   97.24    6.80
   0   0   8  111.90    7.55
  -1   0  -8   15.92    2.41
  -1   0  -8   13.33    1.41
  -1   0  -8   13.56    1.64
   1   0   8   12.98    1.71
   1   0   8   14.42    1.69
   1   0   8   14.29    1.55
  -2   0  -8   85.92    7.04
  -2   0  -8   82.94    6.93
  -2   0  -8   92.25    6.28
   2   0   8   88.06    6.29
   2   0   8  116.10    9.15
   2   0   8   87.56    6.31
   2   0   8   79.90    6.07
  -3   0  -8    6.35    1.44
  -3   0  -8    8.92    1.56
  -3   0  -8    8.71    2.28
  -3   0  -8   10.68    1.79
  -3   0  -8   11.47    2.51
   3   0   8   14.80    2.66
   3   0   8   12.45    1.97
   3   0   8    9.96    1.50
   3   0   8   15.65    2.22
  -4   0  -8    8.19    2.18
  -4   0  -8   10.59    1.85
  -4   0  -8   11.85    2.42
  -4   0  -8    7.38    1.79
   4   0   8   12.38    1.70
   4   0   8    8.29    1.55
  -5   0  -8    0.91    1.80
   7  -1  -8   13.44    1.58
   7  -1  -8   13.70    1.49
  -7   1   8   12.04    1.50
  -7   1   8    8.04    1.67
  -7   1   8   12.62    1.38
   6  -1  -8    0.01    0.48
   6  -1  -8   -0.06    0.48
  -6   1   8   -0.14    0.53
  -6   1   8    0.03    0.50
   5  -1  -8    4.17    0.88
   5  -1  -8    5.95    0.91
   5  -1  -8    6.61    1.01
   5  -1  -8    8.05    1.25
  -5   1   8    6.26    1.23
  -5   1   8    4.25    0.92
   4  -1  -8    4.14    0.83
   4  -1  -8    4.31    0.83
   4  -1  -8    2.84    0.76
  -4   1   8    3.47    0.74
  -4   1   8    3.40    0.87
  -4   1   8    5.90    1.20
   3  -1  -8   35.83    2.81
   3  -1  -8   34.06    2.71
   3  -1  -8   37.66    2.72
   3  -1  -8   34.94    2.82
  -3   1   8   30.37    2.71
  -3   1   8   25.57    3.17
  -3   1   8   26.32    3.95
   2  -1  -8    3.57    0.99
   2  -1  -8    2.99    1.08
   2  -1  -8    2.62    0.89
   2  -1  -8    1.74    0.84
  -2   1   8    3.43    1.86
  -2   1   8    0.58    0.82
  -2   1   8    2.18    0.89
  -2   1   8    2.41    1.77
   1  -1  -8  120.80    8.33
   1  -1  -8  121.87    8.60
  -1   1   8  131.59    9.35
  -1   1   8  136.46    9.32
  -1   1   8  127.37    8.46
  -1   1   8  117.08    8.43
  -1   1   8  112.39    9.21
   0  -1  -8    0.20    0.51
   0   1   8    0.63    0.46
   0   1   8   -0.12    0.77
   0   1   8    0.34    0.45
   0   1   8    0.16    0.74
   0   1   8   -0.21    0.56
  -1  -1  -8   26.72    2.44
  -1  -1  -8   31.05    2.36
   1   1   8   27.16    2.56
   1   1   8   25.48    2.48
  -2  -1  -8    0.64    0.57
  -2  -1  -8    1.67    1.06
  -2  -1  -8   -0.18    0.65
   2   1   8    0.21    0.58
   2   1   8    1.88    1.09
   2   1   8    0.94    0.62
  -3  -1  -8    9.95    2.21
  -3  -1  -8   11.39    2.25
  -3  -1  -8   10.67    1.75
  -3  -1  -8   13.38    2.80
  -3  -1  -8   11.55    1.71
   3   1   8   10.43    1.57
   3   1   8    9.12    1.62
   3   1   8   10.26    1.79
   3   1   8   16.74    2.70
  -4  -1  -8    0.01    1.05
  -4  -1  -8    0.67    1.15
  -4  -1  -8   -1.00    1.36
  -4  -1  -8    1.26    1.63
   4   1   8   -0.42    0.70
   4   1   8   -0.11    0.70
   7  -2  -8    0.63    0.56
   7  -2  -8    2.45    0.79
  -7   2   8    0.89    0.59
  -7   2   8    0.97    0.63
   6  -2  -8    1.68    0.63
   6  -2  -8    1.34    0.64
  -6   2   8    1.88    0.71
  -6   2   8    2.24    0.80
   5  -2  -8    3.69    0.76
   5  -2  -8    2.93    0.68
   5  -2  -8    4.36    0.87
  -5   2   8    3.88    0.83
  -5   2   8    3.39    0.82
   4  -2  -8   10.00    1.29
   4  -2  -8   10.27    1.22
   4  -2  -8    9.50    1.15
  -4   2   8    9.35    1.35
  -4   2   8    9.09    1.57
  -4   2   8    7.07    1.21
   3  -2  -8   10.74    1.35
   3  -2  -8   10.78    1.28
   3  -2  -8   11.60    1.44
  -3   2   8    8.98    2.29
  -3   2   8    8.01    1.76
  -3   2   8    8.14    1.38
   2  -2  -8   13.68    1.62
   2  -2  -8    8.93    1.40
   2  -2  -8    9.50    1.40
  -2   2   8    4.36    1.18
  -2   2   8    5.65    1.96
  -2   2   8    8.18    1.58
  -2   2   8    6.10    2.03
   1  -2  -8    0.47    0.51
   1  -2  -8    0.68    0.66
  -1   2   8    0.24    0.73
  -1   2   8    0.38    0.66
  -1   2   8    0.82    0.63
  -1   2   8    2.05    1.19
   0  -2  -8    2.35    0.78
   0   2   8    3.66    1.15
   0   2   8    4.53    1.15
   0   2   8    3.18    0.85
   0   2   8    2.02    0.81
   0   2   8    2.00    0.76
  -1  -2  -8   10.74    1.55
   1   2   8   14.21    1.71
   1   2   8   13.35    1.70
  -2  -2  -8    7.42    1.30
  -2  -2  -8   10.35    1.54
  -2  -2  -8   14.08    2.15
   2   2   8   12.23    1.57
   2   2   8   11.68    1.46
   2   2   8    9.62    1.71
  -3  -2  -8   15.14    2.52
  -3  -2  -8   19.59    2.16
  -3  -2  -8   15.97    2.26
  -3  -2  -8   17.58    2.28
  -3  -2  -8   15.63    2.54
   3   2   8   13.01    2.22
   3   2   8   15.58    2.02
   3   2   8   18.06    1.93
   3   2   8   22.72    2.67
  -4  -2  -8    0.33    1.45
  -4  -2  -8    1.18    1.42
  -4  -2  -8    0.24    1.03
  -4  -2  -8    1.31    1.13
   4   2   8    0.78    0.84
   4   2   8   -0.31    0.77
   7  -3  -8    9.94    1.43
   7  -3  -8   11.83    1.58
  -7   3   8   14.16    1.73
  -7   3   8   13.99    1.60
   6  -3  -8    9.15    1.31
   6  -3  -8   10.57    1.54
  -6   3   8   10.96    1.39
  -6   3   8   11.00    1.46
   5  -3  -8    2.59    0.71
   5  -3  -8    1.45    0.61
   5  -3  -8    0.74    0.61
   5  -3  -8    1.37    0.56
  -5   3   8    0.79    0.56
  -5   3   8    1.45    0.59
   4  -3  -8   41.39    3.04
   4  -3  -8   41.72    3.15
   4  -3  -8   39.14    3.18
  -4   3   8   39.81    3.18
  -4   3   8   33.59    3.12
  -4   3   8   38.71    3.22
   3  -3  -8   44.30    3.27
   3  -3  -8   42.54    3.11
   3  -3  -8   42.67    3.32
  -3   3   8   40.33    3.36
  -3   3   8   32.43    3.20
  -3   3   8   35.75    3.22
  -3   3   8   35.75    4.12
   2  -3  -8    3.21    0.84
   2  -3  -8    1.97    0.86
   2  -3  -8    2.88    0.99
  -2   3   8    1.75    1.33
  -2   3   8    0.44    0.67
  -2   3   8    1.78    1.07
  -2   3   8    3.10    1.58
   1  -3  -8   23.94    2.44
   1  -3  -8   25.71    2.29
  -1   3   8   25.25    2.52
  -1   3   8   29.44    3.03
  -1   3   8   22.88    2.46
  -1   3   8   23.02    2.59
  -1   3   8   29.23    3.13
   0  -3  -8    0.45    0.61
   0  -3  -8    0.17    0.69
   0   3   8    0.09    0.62
   0   3   8   -0.05    0.57
  -1  -3  -8    0.20    0.65
  -1  -3  -8    0.45    0.63
  -1  -3  -8   -0.46    0.40
   1   3   8    0.00    0.55
   1   3   8   -0.28    0.54
  -2  -3  -8    7.90    1.36
  -2  -3  -8    5.03    1.02
  -2  -3  -8    5.11    1.00
   2   3   8    9.41    1.99
   2   3   8    4.56    1.12
   2   3   8    8.52    1.74
  -3  -3  -8   12.85    2.06
  -3  -3  -8    9.15    1.54
  -3  -3  -8   15.76    1.96
  -3  -3  -8   10.88    1.84
   3   3   8   19.41    2.86
   3   3   8   13.56    1.97
   3   3   8   13.17    1.76
  -4  -3  -8    3.29    1.26
  -4  -3  -8    4.41    1.48
  -4  -3  -8    4.87    1.36
  -4  -3  -8    4.22    1.58
   4   3   8    3.81    1.32
   4   3   8    4.09    1.06
   7  -4  -8    1.72    0.83
   7  -4  -8    1.56    0.86
  -7   4   8    3.06    0.84
  -7   4   8    2.95    0.97
   6  -4  -8    0.93    0.63
   6  -4  -8    0.56    0.66
  -6   4   8    1.26    0.69
  -6   4   8    1.73    0.76
   5  -4  -8    3.73    0.84
   5  -4  -8    3.14    0.71
   5  -4  -8    2.62    0.75
   5  -4  -8    2.86    0.86
  -5   4   8    2.82    0.76
  -5   4   8    2.49    0.81
  -5   4   8    2.31    0.90
   4  -4  -8   20.13    1.98
   4  -4  -8   21.22    2.06
   4  -4  -8   20.88    1.92
   4  -4  -8   21.38    2.04
  -4   4   8   20.05    1.97
  -4   4   8   17.93    1.96
  -4   4   8   16.74    2.07
   3  -4  -8    8.63    1.54
   3  -4  -8    8.74    1.36
   3  -4  -8    7.89    1.23
   3  -4  -8   11.47    1.43
  -3   4   8    7.90    1.36
  -3   4   8   10.37    1.61
  -3   4   8    5.56    1.39
   2  -4  -8   14.40    1.86
   2  -4  -8   16.70    1.78
   2  -4  -8   17.84    1.91
   2  -4  -8   10.39    1.62
  -2   4   8   12.78    1.82
  -2   4   8   10.91    2.27
   1  -4  -8   -0.27    0.64
   1  -4  -8    0.79    0.62
   1  -4  -8    0.32    0.49
   1  -4  -8    0.58    0.68
  -1   4   8   -0.37    0.88
  -1   4   8    0.11    0.70
  -1   4   8    0.34    0.75
  -1   4   8    0.52    0.93
   0  -4  -8   17.06    2.07
   0  -4  -8   18.19    1.95
   0   4   8   17.88    2.17
   0   4   8   19.47    2.02
  -1  -4  -8    8.59    1.51
  -1  -4  -8   10.60    1.28
  -1  -4  -8    7.89    1.29
   1   4   8    7.97    1.49
   1   4   8   11.47    1.62
  -2  -4  -8   29.57    2.79
  -2  -4  -8   28.98    2.68
  -2  -4  -8   29.17    2.87
   2   4   8   29.04    3.36
   2   4   8   32.25    2.77
   2   4   8   35.54    2.99
  -3  -4  -8   20.37    2.76
  -3  -4  -8   23.95    2.39
  -3  -4  -8   21.49    2.42
   3   4   8   18.28    2.62
   3   4   8   19.44    2.13
   3   4   8   21.30    2.32
  -4  -4  -8   -0.64    1.08
   4   4   8   -0.04    0.78
   4   4   8    1.12    0.86
   6  -5  -8    0.88    0.68
   6  -5  -8    1.30    0.75
  -6   5   8    0.39    0.74
  -6   5   8    0.84    0.60
   5  -5  -8    3.78    1.02
   5  -5  -8    2.67    0.82
   5  -5  -8    4.55    0.98
  -5   5   8    4.20    1.00
  -5   5   8    3.55    0.86
   4  -5  -8    6.95    1.23
   4  -5  -8    5.47    1.01
   4  -5  -8    9.04    1.28
   4  -5  -8    7.51    1.23
  -4   5   8    7.51    1.24
  -4   5   8    6.88    1.11
  -4   5   8    4.17    1.13
   3  -5  -8    4.64    1.09
   3  -5  -8    6.15    1.15
   3  -5  -8    4.50    1.00
  -3   5   8    4.60    1.01
  -3   5   8    4.28    0.88
   2  -5  -8    3.26    0.93
   2  -5  -8    0.99    0.72
   2  -5  -8    0.66    0.69
  -2   5   8    1.21    1.28
  -2   5   8    1.20    0.84
  -2   5   8    3.23    1.36
   1  -5  -8   44.23    3.94
   1  -5  -8   47.50    3.67
   1  -5  -8   41.75    4.01
   1  -5  -8   49.92    3.85
  -1   5   8   45.52    3.83
  -1   5   8   37.97    3.76
  -1   5   8   49.58    3.82
   0  -5  -8   -0.54    0.63
   0  -5  -8    0.33    0.66
   0   5   8   -0.03    0.70
   0   5   8   -1.00    0.70
   0   5   8    0.04    0.81
  -1  -5  -8    9.03    1.72
  -1  -5  -8   15.05    1.60
  -1  -5  -8   13.26    1.68
   1   5   8   20.15    1.96
   1   5   8   17.35    2.03
   1   5   8   10.25    1.74
   1   5   8   17.10    1.92
  -2  -5  -8    0.15    0.67
  -2  -5  -8    0.07    0.55
  -2  -5  -8    1.08    0.83
   2   5   8    0.93    1.04
   2   5   8   -0.06    0.73
   2   5   8   -0.03    0.65
   2   5   8    0.62    0.84
  -3  -5  -8   -0.16    0.91
  -3  -5  -8    0.40    0.82
   3   5   8    0.24    0.70
   3   5   8    1.44    1.26
   3   5   8    1.69    0.77
  -4  -5  -8   -0.53    1.07
   4   5   8   -1.29    0.75
   4   5   8    0.59    0.82
   6  -6  -8   51.63    4.13
   6  -6  -8   55.80    4.12
  -6   6   8   51.73    4.05
  -6   6   8   56.26    4.08
   5  -6  -8    0.64    0.65
   5  -6  -8    1.40    0.76
   5  -6  -8    1.42    0.82
  -5   6   8    0.56    0.57
  -5   6   8    0.21    0.50
   4  -6  -8   50.41    3.88
   4  -6  -8   48.87    3.77
   4  -6  -8   49.16    3.92
  -4   6   8   47.98    3.87
  -4   6   8   46.53    4.50
  -4   6   8   55.20    3.87
   3  -6  -8   18.06    1.89
   3  -6  -8   17.32    1.98
   3  -6  -8   16.47    1.82
   3  -6  -8   15.71    1.87
  -3   6   8   13.18    2.25
  -3   6   8   17.04    1.86
  -3   6   8   16.42    1.79
   2  -6  -8    0.64    0.75
   2  -6  -8   -0.39    1.02
   2  -6  -8   -0.64    0.51
   2  -6  -8    0.42    0.65
  -2   6   8   -0.29    0.59
  -2   6   8   -0.79    1.21
  -2   6   8    0.39    0.56
  -2   6   8    1.27    1.18
  -2   6   8    0.00    0.95
   1  -6  -8    0.90    0.84
   1  -6  -8    0.96    0.74
   1  -6  -8    0.11    0.94
   1  -6  -8   -0.09    0.64
  -1   6   8    0.74    0.71
  -1   6   8    0.37    0.83
  -1   6   8   -0.63    0.83
  -1   6   8    1.08    0.77
   0  -6  -8   44.50    4.06
   0  -6  -8   48.96    3.93
   0   6   8   52.60    4.19
   0   6   8   52.76    3.93
   0   6   8   49.75    4.30
  -1  -6  -8   10.75    1.83
  -1  -6  -8   10.24    1.49
  -1  -6  -8    8.85    1.54
   1   6   8   13.50    2.01
   1   6   8   13.90    1.70
   1   6   8   13.27    2.20
   1   6   8   11.54    1.73
  -2  -6  -8   50.47    4.41
  -2  -6  -8   54.31    4.25
  -2  -6  -8   54.82    4.27
   2   6   8   65.40    4.50
   2   6   8   56.82    4.99
  -3  -6  -8    9.44    1.60
  -3  -6  -8    3.66    1.16
   3   6   8    6.31    1.48
   3   6   8    6.31    1.28
   6  -7  -8    0.30    0.88
  -6   7   8    0.67    1.11
   5  -7  -8    1.49    0.76
   5  -7  -8    1.38    0.72
   5  -7  -8    1.67    0.80
  -5   7   8    1.77    0.69
  -5   7   8    2.00    0.81
   4  -7  -8    1.27    0.81
   4  -7  -8    1.70    0.75
   4  -7  -8    1.82    0.83
  -4   7   8    0.73    0.63
  -4   7   8    1.66    0.74
   3  -7  -8   32.71    3.10
   3  -7  -8   35.30    3.11
   3  -7  -8   37.30    3.09
   3  -7  -8   35.64    3.02
  -3   7   8   37.88    2.93
  -3   7   8   28.34    3.52
  -3   7   8   37.06    3.05
   2  -7  -8    1.00    0.69
   2  -7  -8    0.91    0.87
   2  -7  -8    1.74    0.80
   2  -7  -8    1.26    0.84
  -2   7   8    1.13    1.02
  -2   7   8    0.03    0.67
  -2   7   8    0.48    0.63
  -2   7   8    1.31    1.33
  -2   7   8    2.07    1.21
   1  -7  -8  108.63    8.08
   1  -7  -8  114.53    8.12
   1  -7  -8  112.28    8.00
   1  -7  -8  123.23    8.92
  -1   7   8  119.42    8.00
   0  -7  -8    0.55    0.79
   0  -7  -8    0.02    0.81
   0  -7  -8    0.05    0.58
   0   7   8    0.12    0.88
   0   7   8   -0.59    0.87
   0   7   8   -0.76    0.83
  -1  -7  -8   19.51    1.95
  -1  -7  -8   19.02    2.13
  -1  -7  -8   17.03    2.33
   1   7   8   20.92    2.32
   1   7   8   25.33    2.64
   1   7   8   21.97    2.53
   1   7   8   16.41    2.18
  -2  -7  -8    0.31    0.67
  -2  -7  -8    1.28    0.92
  -2  -7  -8    0.46    0.89
   2   7   8   -0.34    0.80
   2   7   8    0.40    0.77
   2   7   8    1.42    1.11
  -3  -7  -8   11.62    1.82
  -3  -7  -8   10.99    1.84
   3   7   8   11.70    1.75
   3   7   8   17.58    2.29
   3   7   8   15.69    2.29
   5  -8  -8    1.28    0.83
   5  -8  -8    1.35    0.84
   5  -8  -8    2.14    0.82
  -5   8   8    1.27    0.67
  -5   8   8    0.56    0.67
   4  -8  -8   -0.22    0.60
   4  -8  -8   -0.70    0.76
   4  -8  -8    1.76    0.79
  -4   8   8    0.78    0.63
  -4   8   8    0.69    0.65
   3  -8  -8    6.99    1.27
   3  -8  -8   11.88    1.64
   3  -8  -8    8.51    1.62
   3  -8  -8    9.67    1.48
  -3   8   8    9.79    1.31
  -3   8   8    8.01    1.43
   2  -8  -8    5.60    1.37
   2  -8  -8    3.85    1.18
   2  -8  -8    3.64    1.15
   2  -8  -8    4.22    1.31
  -2   8   8    2.93    1.50
  -2   8   8    5.00    1.06
  -2   8   8    2.92    1.39
  -2   8   8    3.83    1.34
  -2   8   8    2.59    0.91
   1  -8  -8   -0.14    0.73
   1  -8  -8    0.84    0.96
   1  -8  -8   -0.68    0.76
   1  -8  -8    0.66    1.07
  -1   8   8   -0.45    0.85
  -1   8   8    1.10    0.82
  -1   8   8   -0.53    0.66
   0  -8  -8    2.78    1.14
   0  -8  -8    0.32    0.60
   0  -8  -8    1.30    0.78
   0  -8  -8    0.83    0.89
   0   8   8    1.72    1.03
   0   8   8    1.64    1.01
   0   8   8    1.41    1.00
  -1  -8  -8    3.56    1.10
  -1  -8  -8    6.27    1.53
  -1  -8  -8    2.62    0.83
   1   8   8    5.23    1.42
   1   8   8    3.70    1.23
   1   8   8    3.13    1.35
  -2  -8  -8    0.17    0.92
   2   8   8   -0.77    0.91
   2   8   8    0.24    0.78
   4  -9  -8   15.74    2.56
   4  -9  -8   17.24    2.04
   4  -9  -8   22.81    3.32
  -4   9   8   19.95    1.84
   3  -9  -8    8.34    1.46
   3  -9  -8   12.97    1.74
   3  -9  -8   13.37    1.85
  -3   9   8   11.82    1.64
  -3   9   8   12.43    1.42
   2  -9  -8    1.42    0.87
   2  -9  -8    1.11    0.92
   2  -9  -8    2.76    1.13
   2  -9  -8    1.77    1.13
  -2   9   8    1.29    1.11
  -2   9   8    1.26    0.78
  -2   9   8    0.20    1.15
  -2   9   8    1.65    0.67
   1  -9  -8    9.93    1.70
   1  -9  -8    6.04    1.60
   1  -9  -8    5.77    1.44
   1  -9  -8    6.57    1.31
  -1   9   8    6.60    1.26
  -1   9   8    6.78    1.40
   0  -9  -8   -0.29    0.74
   0  -9  -8    0.47    1.03
   0  -9  -8    0.85    0.75
   0  -9  -8   -0.05    0.92
   0   9   8   -0.37    1.06
   0   9   8    0.20    0.93
   0   9   8   -0.41    0.98
  -1  -9  -8    0.48    1.11
  -1  -9  -8    0.32    0.95
   1   9   8    0.94    1.21
   1   9   8    0.41    1.03
   1   9   8    0.93    0.98
  -2  -9  -8    1.35    1.06
  -2  -9  -8    2.37    0.97
   2   9   8    1.68    1.08
   2   9   8    2.35    1.26
   3 -10  -8    1.77    1.12
   3 -10  -8    0.32    0.73
   3 -10  -8    2.38    0.99
  -3  10   8    1.04    0.94
  -3  10   8    2.68    0.73
   2 -10  -8    2.21    1.04
   2 -10  -8    5.58    1.37
   2 -10  -8    4.02    1.38
  -2  10   8    5.90    1.03
  -2  10   8    5.49    1.20
   1 -10  -8   -0.63    1.08
   1 -10  -8    1.38    1.01
   1 -10  -8    0.12    0.97
  -1  10   8    0.97    0.66
  -1  10   8   -0.23    0.82
  -1  10   8    0.83    1.05
   0 -10  -8   12.66    1.86
   0 -10  -8    8.27    1.44
   0 -10  -8   11.95    1.81
   0  10   8   11.10    1.89
   0  10   8   13.34    1.79
   0  10   8    7.35    1.50
   0  10   8    5.10    1.89
  -1 -10  -8    3.72    1.13
  -1 -10  -8    5.47    1.30
  -1 -10  -8    2.19    1.09
   1  10   8    3.75    1.17
   1  10   8    2.70    1.32
   1  10   8    0.99    1.32
  -2  -9   9    0.12    0.78
  -2  -9   9   -0.08    0.79
  -1  -9   9   30.11    2.44
  -1  -9   9   19.98    2.59
   0   9  -9    0.05    0.37
   0   9  -9    0.32    1.96
   0   9  -9    0.40    0.53
   0  -9   9    0.63    0.49
   0  -9   9    0.08    0.43
   0  -9   9    0.39    1.14
  -4  -8   9    0.36    0.65
  -4  -8   9    1.48    1.13
  -4  -8   9    1.44    0.88
  -3  -8   9    9.38    1.33
  -3  -8   9    8.46    1.50
  -2  -8   9    0.16    0.72
  -2  -8   9    0.65    0.96
   1   8  -9    0.24    0.31
  -1  -8   9    0.07    0.71
   0   8  -9    0.87    1.60
   0   8  -9    1.48    0.46
   0  -8   9    1.87    0.61
   0  -8   9    2.13    0.57
   0  -8   9    1.29    0.98
  -1   8  -9    3.19    1.24
  -1   8  -9    4.58    2.19
  -1   8  -9    2.74    2.16
   1  -8   9    3.73    0.72
   1  -8   9    4.30    0.87
  -5  -7   9    7.81    1.60
  -4  -7   9    1.30    0.85
  -4  -7   9    1.99    0.76
  -4  -7   9    1.75    0.76
  -3  -7   9    6.82    1.55
  -3  -7   9   12.36    1.52
   2   7  -9    0.15    0.43
   2   7  -9    0.51    0.55
   2   7  -9    1.12    0.36
   2   7  -9    0.57    0.32
  -2  -7   9   -0.01    0.70
  -2  -7   9    0.10    0.94
   1   7  -9    0.83    0.42
   1   7  -9    0.37    0.77
   1   7  -9    1.02    0.67
  -1  -7   9   -0.29    0.69
  -1  -7   9   -0.53    1.32
  -1  -7   9   -0.26    0.41
   0   7  -9    0.10    1.27
   0   7  -9    1.11    0.98
   0  -7   9    0.94    0.53
   0  -7   9   -0.35    0.39
   0  -7   9   -1.04    0.73
  -1   7  -9    7.85    2.44
  -1   7  -9   11.68    2.93
   1  -7   9   15.37    1.52
   1  -7   9   13.94    1.49
   1  -7   9   13.24    2.33
  -2   7  -9    5.65    2.60
  -2   7  -9    3.62    2.13
   2  -7   9    3.83    1.01
   2  -7   9    3.67    0.84
   5   6  -9   15.73    1.41
   5   6  -9   14.42    1.46
   5   6  -9   17.53    1.56
  -5  -6   9   19.20    1.76
   4   6  -9   13.06    1.21
   4   6  -9   13.51    1.17
   4   6  -9   15.39    1.24
   4   6  -9   14.30    1.34
  -4  -6   9   11.75    1.50
  -4  -6   9   13.43    1.90
   3   6  -9   15.85    1.54
   3   6  -9   17.56    1.26
   3   6  -9   12.45    1.38
  -3  -6   9   17.43    3.30
  -3  -6   9   11.75    1.68
   2   6  -9   35.79    3.14
   2   6  -9   36.44    3.24
   2   6  -9   44.34    3.05
   2   6  -9   49.77    3.03
  -2  -6   9   48.17    3.36
  -2  -6   9   50.37    4.84
   1   6  -9   -0.28    0.39
   1   6  -9    0.39    0.36
   1   6  -9    0.40    0.91
   1   6  -9    0.00    0.80
  -1  -6   9    0.61    0.46
  -1  -6   9    0.56    0.51
  -1  -6   9    0.80    0.71
  -1  -6   9    0.57    1.11
   0   6  -9    7.75    2.11
   0   6  -9    5.47    1.39
   0  -6   9    8.78    1.03
   0  -6   9    7.77    1.14
   0  -6   9    9.75    1.33
  -1   6  -9    1.55    1.22
  -1   6  -9    2.69    1.72
  -1   6  -9    2.45    1.75
   1  -6   9    2.04    0.67
   1  -6   9    1.44    0.93
   1  -6   9    2.67    0.67
  -2   6  -9    8.67    2.61
  -2   6  -9    8.25    2.65
   2  -6   9    6.24    1.06
   2  -6   9    7.18    1.21
   2  -6   9    5.80    1.42
  -6  -5   9   -0.11    0.66
   5   5  -9    0.43    0.85
   5   5  -9    0.64    0.54
  -5  -5   9    0.22    0.66
  -5  -5   9    1.67    0.74
   4   5  -9    0.37    0.48
   4   5  -9   -0.10    0.55
   4   5  -9    1.53    0.74
  -4  -5   9    1.23    2.49
  -4  -5   9    0.13    0.64
  -4  -5   9    0.01    0.53
   3   5  -9    5.21    0.73
   3   5  -9    5.82    0.83
   3   5  -9    7.25    0.98
   3   5  -9    3.34    0.87
  -3  -5   9    4.11    2.04
  -3  -5   9    2.79    1.08
  -3  -5   9    4.04    1.40
   2   5  -9    0.62    0.44
   2   5  -9    0.00    0.54
   2   5  -9    0.60    0.57
   2   5  -9    0.73    0.49
  -2  -5   9    0.02    0.54
  -2  -5   9   -0.41    1.25
  -2  -5   9   -0.50    0.69
   1   5  -9    8.38    1.22
   1   5  -9    8.33    1.01
   1   5  -9    7.63    0.97
  -1  -5   9    8.95    1.22
  -1  -5   9    8.57    1.15
  -1  -5   9   11.15    2.75
  -1  -5   9   12.59    2.80
  -1  -5   9    7.94    1.07
   0   5  -9    0.25    0.73
   0   5  -9    0.63    0.89
   0  -5   9    0.38    0.45
   0  -5   9   -0.02    0.46
   0  -5   9   -0.30    0.66
  -1   5  -9    2.09    1.24
  -1   5  -9    0.83    1.35
  -1   5  -9   -0.49    1.20
   1  -5   9    1.23    0.54
   1  -5   9    1.25    0.80
   1  -5   9    0.84    0.55
  -2   5  -9    5.40    2.26
  -2   5  -9    4.21    2.16
   2  -5   9    3.45    0.86
   2  -5   9    3.85    1.21
   2  -5   9    4.36    1.06
  -3   5  -9    1.81    2.20
  -3   5  -9    2.07    0.62
  -3   5  -9    2.96    2.43
   3  -5   9    1.87    0.77
   3  -5   9    1.70    1.02
   6   4  -9   -0.20    0.62
   6   4  -9    1.34    0.67
   6   4  -9   -0.28    0.81
  -6  -4   9    0.32    0.59
  -6  -4   9    0.85    0.76
   5   4  -9    0.37    0.52
   5   4  -9    0.66    0.86
   5   4  -9    0.34    0.53
  -5  -4   9    0.18    0.69
  -5  -4   9    0.19    0.63
   4   4  -9   12.15    1.20
   4   4  -9   10.37    1.37
   4   4  -9   13.10    1.28
  -4  -4   9    8.01    2.70
  -4  -4   9   12.01    1.43
  -4  -4   9    8.74    1.55
   3   4  -9   11.84    1.29
   3   4  -9    9.98    1.17
   3   4  -9   11.89    1.20
   3   4  -9   12.87    1.65
  -3  -4   9    9.24    1.43
  -3  -4   9    8.38    1.81
   2   4  -9   38.58    2.82
   2   4  -9   33.24    2.87
   2   4  -9   37.70    2.86
   2   4  -9   37.32    2.75
  -2  -4   9   38.90    4.55
  -2  -4   9   34.53    3.02
  -2  -4   9   37.94    4.39
   1   4  -9    0.85    0.49
   1   4  -9    1.56    0.62
  -1  -4   9    1.02    1.30
  -1  -4   9    1.34    1.18
  -1  -4   9    1.74    0.72
  -1  -4   9    2.31    0.73
  -1  -4   9    1.16    0.56
   0   4  -9   14.16    1.90
   0   4  -9   13.74    1.73
   0  -4   9   17.55    1.72
   0  -4   9   17.33    1.57
   0  -4   9   15.56    1.79
  -1   4  -9   12.30    1.90
  -1   4  -9   12.54    2.70
   1  -4   9   14.69    1.75
   1  -4   9   14.05    1.56
   1  -4   9   14.66    1.46
  -2   4  -9    6.03    2.18
  -2   4  -9    3.52    1.93
   2  -4   9    4.63    1.10
   2  -4   9    2.98    1.09
   2  -4   9    3.70    0.88
  -3   4  -9    8.80    2.70
  -3   4  -9    9.79    1.62
  -3   4  -9    9.26    2.88
   3  -4   9    7.25    1.31
   3  -4   9    6.85    1.21
   6   3  -9    2.16    0.72
  -6  -3   9    3.16    0.86
  -6  -3   9    1.88    0.82
   5   3  -9   69.78    4.80
   5   3  -9   71.01    4.88
   5   3  -9   72.07    5.04
  -5  -3   9   73.00    5.05
  -5  -3   9   69.33    5.40
   4   3  -9   -0.56    0.44
   4   3  -9    0.64    0.66
   4   3  -9   -0.20    0.77
   4   3  -9   -0.89    0.43
  -4  -3   9   -0.12    2.09
  -4  -3   9   -0.04    0.50
  -4  -3   9   -0.37    0.56
   3   3  -9    4.05    0.76
   3   3  -9    4.94    0.93
   3   3  -9    4.57    0.81
  -3  -3   9    2.95    2.41
  -3  -3   9    3.69    0.96
  -3  -3   9    3.18    2.11
  -3  -3   9    1.39    0.75
   2   3  -9    2.48    0.65
   2   3  -9    1.40    0.57
   2   3  -9    1.79    0.64
  -2  -3   9    1.72    0.88
  -2  -3   9    1.37    2.05
  -2  -3   9    1.77    1.74
   1   3  -9   92.28    5.52
   1   3  -9   78.66    5.32
  -1  -3   9   75.84    5.46
  -1  -3   9   73.81    5.57
  -1  -3   9   79.57    5.53
   0   3  -9    0.97    0.80
   0   3  -9    0.19    0.61
   0  -3   9    0.40    0.71
   0  -3   9   -0.08    0.54
   0  -3   9    0.50    0.48
  -1   3  -9  101.98    7.53
  -1   3  -9  101.58    7.66
  -1   3  -9  110.13    8.79
   1  -3   9  116.05    7.44
   1  -3   9  116.77    7.59
   1  -3   9  123.47    7.70
  -2   3  -9    3.54    0.69
  -2   3  -9    3.38    1.82
  -2   3  -9    4.01    1.78
   2  -3   9    2.62    0.78
   2  -3   9    1.65    0.76
   2  -3   9    3.96    1.09
  -3   3  -9    9.33    2.74
  -3   3  -9    9.74    1.26
  -3   3  -9    7.65    2.50
   3  -3   9    8.14    2.26
   3  -3   9    7.15    1.25
   6   2  -9    2.06    0.75
   6   2  -9    1.41    0.69
  -6  -2   9    0.84    1.23
  -6  -2   9    1.34    0.71
   5   2  -9    3.43    0.81
   5   2  -9    4.13    0.79
   5   2  -9    4.29    0.95
  -5  -2   9    2.75    0.84
  -5  -2   9    4.26    0.94
  -5  -2   9    1.81    1.85
   4   2  -9    3.62    0.88
   4   2  -9    4.62    0.82
   4   2  -9    5.71    0.99
  -4  -2   9    4.48    1.05
  -4  -2   9    3.94    2.45
  -4  -2   9    2.51    0.98
  -4  -2   9    3.49    0.85
  -4  -2   9    0.57    2.53
   3   2  -9   10.03    1.38
   3   2  -9   11.40    1.24
   3   2  -9   11.11    1.32
  -3  -2   9    9.52    2.98
  -3  -2   9    7.26    2.78
  -3  -2   9    5.88    1.31
  -3  -2   9    8.24    1.38
   2   2  -9   12.33    1.37
  -2  -2   9    9.19    1.60
  -2  -2   9   10.06    1.46
   1   2  -9    1.55    0.54
  -1  -2   9    1.77    1.19
  -1  -2   9    1.36    0.61
  -1  -2   9    2.04    0.79
  -1  -2   9    1.90    0.67
  -1  -2   9    3.11    1.31
   0   2  -9   12.71    1.47
   0   2  -9   13.80    2.10
   0  -2   9   10.98    1.45
   0  -2   9   12.47    1.32
   0  -2   9    9.57    1.38
  -1   2  -9   13.53    1.66
  -1   2  -9   11.80    2.37
  -1   2  -9   11.23    1.70
   1  -2   9   10.96    1.48
   1  -2   9   15.73    2.61
   1  -2   9   13.82    1.45
  -2   2  -9    1.28    1.38
  -2   2  -9    1.35    0.55
  -2   2  -9    1.84    1.43
   2  -2   9    0.31    0.60
   2  -2   9    1.47    0.91
   2  -2   9    1.21    0.80
  -3   2  -9    7.37    2.34
  -3   2  -9    7.86    1.16
  -3   2  -9    6.47    2.20
   3  -2   9    6.97    1.38
   3  -2   9    7.76    1.24
   6   1  -9   -0.35    0.55
  -6  -1   9   -0.19    0.61
  -6  -1   9   -0.38    0.58
   5   1  -9    1.38    0.72
   5   1  -9    1.60    0.72
  -5  -1   9    1.75    0.77
  -5  -1   9    2.07    0.77
  -5  -1   9    1.39    1.84
   4   1  -9    0.92    0.66
   4   1  -9    1.56    0.73
   4   1  -9    2.54    0.75
   4   1  -9    2.48    0.85
  -4  -1   9    1.18    0.70
  -4  -1   9    1.03    0.72
  -4  -1   9    0.68    0.70
  -4  -1   9    1.83    2.20
  -4  -1   9   -1.19    1.84
   3   1  -9   10.90    1.39
   3   1  -9   12.61    1.38
   3   1  -9   11.72    1.75
  -3  -1   9    6.83    1.57
  -3  -1   9    7.66    1.31
   2   1  -9    0.04    0.49
   2   1  -9    0.64    0.48
  -2  -1   9    0.16    1.18
  -2  -1   9   -0.58    0.78
  -2  -1   9    0.63    0.56
  -2  -1   9    0.82    1.47
   1   1  -9    2.85    0.66
   1   1  -9    1.45    0.72
   1   1  -9    3.01    1.09
  -1  -1   9    1.20    0.64
  -1  -1   9    1.89    1.09
  -1  -1   9    0.87    0.59
  -1  -1   9    0.68    0.72
  -1  -1   9    2.11    1.25
   0   1  -9   -0.29    0.62
   0  -1   9    0.19    0.45
   0  -1   9   -0.12    0.45
   0  -1   9   -0.32    0.65
  -1   1  -9    4.14    0.97
  -1   1  -9    5.82    1.12
   1  -1   9    6.09    1.22
   1  -1   9    9.73    1.14
   1  -1   9    5.00    1.27
  -2   1  -9    8.22    1.13
  -2   1  -9    5.36    1.66
  -2   1  -9    7.06    1.94
  -2   1  -9    5.44    1.20
   2  -1   9    7.39    1.16
   2  -1   9    4.24    1.06
   2  -1   9    7.03    1.27
  -3   1  -9    4.00    1.86
  -3   1  -9    6.66    1.99
  -3   1  -9    5.32    1.09
   3  -1   9    5.88    1.23
   3  -1   9    6.02    1.15
  -4   1  -9    6.95    2.32
  -4   1  -9    4.12    2.31
   6   0  -9    8.52    1.23
   6   0  -9    9.64    1.44
  -6   0   9    8.72    1.35
  -6   0   9    5.70    1.11
   5   0  -9   24.25    2.11
   5   0  -9   22.62    2.22
   5   0  -9   20.24    2.11
  -5   0   9   25.82    2.50
  -5   0   9   25.62    2.30
   4   0  -9   24.64    2.07
   4   0  -9   23.93    2.13
   4   0  -9   21.71    1.97
   4   0  -9   19.84    1.94
  -4   0   9   15.87    2.16
  -4   0   9   18.13    3.60
  -4   0   9   19.92    2.06
  -4   0   9   13.01    3.13
  -4   0   9   20.88    2.18
   3   0  -9   29.32    2.47
   3   0  -9   29.49    3.06
   3   0  -9   27.34    2.43
   3   0  -9   27.91    2.37
  -3   0   9   19.75    2.66
  -3   0   9   24.40    2.47
  -3   0   9   18.97    3.74
   2   0  -9   82.06    5.88
   2   0  -9   83.92    5.66
   2   0  -9   81.89    5.57
   2   0  -9   81.15    5.75
  -2   0   9   73.18    5.72
  -2   0   9   72.67    6.84
  -2   0   9   77.20    7.04
  -2   0   9   84.06    5.94
   1   0  -9   -0.13    0.61
   1   0  -9    0.51    0.43
   1   0  -9    0.75    0.64
  -1   0   9   -0.03    0.95
  -1   0   9    0.30    0.55
  -1   0   9    0.09    1.03
  -1   0   9    1.80    0.76
  -1   0   9    0.69    0.75
   0   0  -9   12.21    1.88
   0   0  -9   15.45    2.38
   0   0   9   11.93    1.57
   0   0   9   14.22    1.61
   0   0   9   11.29    1.39
  -1   0  -9    2.52    0.79
  -1   0  -9    1.84    0.76
   1   0   9    2.94    0.91
   1   0   9    1.93    0.79
   1   0   9    2.09    0.67
  -2   0  -9   13.62    1.77
  -2   0  -9   12.71    2.32
  -2   0  -9   16.61    1.59
   2   0   9   11.92    1.64
   2   0   9   12.23    1.92
   2   0   9   14.65    1.60
  -3   0  -9    0.24    1.34
  -3   0  -9    0.92    1.46
  -3   0  -9    1.13    0.78
   3   0   9    1.07    0.87
   3   0   9    0.84    0.71
  -4   0  -9   12.02    1.86
  -4   0  -9   11.19    2.54
  -4   0  -9    9.51    2.46
   4   0   9   10.19    1.55
   4   0   9   13.22    1.86
   6  -1  -9    0.40    0.59
   6  -1  -9   -0.33    0.63
  -6   1   9   -0.20    0.69
  -6   1   9    0.00    0.66
   5  -1  -9    2.84    0.81
   5  -1  -9    1.99    0.71
  -5   1   9    1.88    0.85
  -5   1   9    1.26    0.75
  -5   1   9    1.94    0.76
   4  -1  -9    1.50    0.65
   4  -1  -9    1.69    0.64
   4  -1  -9    1.99    0.67
   4  -1  -9    2.03    0.71
  -4   1   9    2.48    0.89
  -4   1   9    1.24    0.67
  -4   1   9    0.47    0.78
   3  -1  -9   11.92    1.49
   3  -1  -9   12.15    1.75
   3  -1  -9   12.21    1.71
   3  -1  -9   12.15    1.69
  -3   1   9    7.93    2.36
  -3   1   9    7.55    2.45
  -3   1   9    8.64    1.74
  -3   1   9    8.55    1.48
   2  -1  -9    0.75    0.58
   2  -1  -9    0.27    0.75
   2  -1  -9   -0.22    0.63
   2  -1  -9   -0.79    0.45
  -2   1   9    0.25    1.43
  -2   1   9   -0.42    1.29
  -2   1   9    1.04    0.76
  -2   1   9    0.94    0.89
   1  -1  -9    1.87    1.02
   1  -1  -9    1.78    0.57
   1  -1  -9    3.15    0.83
  -1   1   9    1.96    0.76
  -1   1   9    2.49    0.91
  -1   1   9    2.55    1.29
  -1   1   9    3.05    1.26
  -1   1   9    2.56    0.87
   0  -1  -9   -0.03    0.55
   0   1   9   -0.11    0.46
   0   1   9    0.86    0.74
   0   1   9    0.50    0.49
  -1  -1  -9    5.19    1.26
  -1  -1  -9    5.58    0.92
  -1  -1  -9    4.95    1.08
   1   1   9    6.82    1.23
   1   1   9    8.06    1.24
   1   1   9    5.42    1.09
  -2  -1  -9    6.15    1.19
  -2  -1  -9    6.46    1.05
   2   1   9    5.20    1.58
   2   1   9    8.53    1.22
   2   1   9    5.65    1.07
  -3  -1  -9    8.66    1.85
  -3  -1  -9    5.54    1.19
  -3  -1  -9    6.27    1.67
   3   1   9    6.99    1.22
   3   1   9    5.25    1.18
  -4  -1  -9    6.81    2.05
  -4  -1  -9    6.37    2.05
   6  -2  -9    2.59    0.88
   6  -2  -9    0.95    0.71
  -6   2   9    0.93    0.73
  -6   2   9    2.67    1.06
   5  -2  -9    3.59    0.97
   5  -2  -9    2.32    0.79
  -5   2   9    3.08    1.05
  -5   2   9    4.69    1.09
   4  -2  -9    4.24    1.09
   4  -2  -9    3.54    0.85
   4  -2  -9    3.74    1.03
  -4   2   9    3.40    0.95
  -4   2   9    3.36    0.96
  -4   2   9    3.20    0.82
   3  -2  -9   13.35    1.69
   3  -2  -9   12.28    1.62
   3  -2  -9   10.39    1.89
  -3   2   9    6.55    2.13
  -3   2   9    6.96    1.36
  -3   2   9    7.51    2.56
   2  -2  -9    9.40    1.42
   2  -2  -9   12.62    1.52
   2  -2  -9   13.60    1.64
  -2   2   9    8.70    2.37
  -2   2   9    9.26    1.64
  -2   2   9    9.40    2.30
  -2   2   9    9.21    1.95
  -2   2   9   10.42    1.72
   1  -2  -9    2.33    0.82
   1  -2  -9    1.15    0.57
  -1   2   9    1.84    0.87
  -1   2   9    1.15    0.78
  -1   2   9    1.49    1.14
  -1   2   9    2.07    0.76
  -1   2   9    1.26    1.01
   0  -2  -9   12.37    1.50
   0   2   9   10.69    1.50
   0   2   9   13.33    1.69
   0   2   9   12.87    1.61
  -1  -2  -9   11.45    1.66
  -1  -2  -9   10.95    1.34
   1   2   9   14.75    1.69
   1   2   9    9.90    1.46
   1   2   9   12.31    1.60
  -2  -2  -9    0.72    0.58
  -2  -2  -9    1.74    0.82
   2   2   9    1.14    0.60
   2   2   9    1.22    0.58
   2   2   9    0.86    1.10
  -3  -2  -9    7.13    1.31
  -3  -2  -9    8.92    2.25
   3   2   9    7.87    1.30
   3   2   9    8.60    1.48
   6  -3  -9    1.73    0.89
   6  -3  -9    4.00    1.14
  -6   3   9    3.41    1.01
   5  -3  -9   78.07    5.36
   5  -3  -9   73.28    5.39
  -5   3   9   74.57    5.55
  -5   3   9   71.69    5.40
   4  -3  -9   -0.29    0.59
   4  -3  -9   -0.23    0.64
   4  -3  -9   -0.05    0.67
   4  -3  -9    0.33    0.58
  -4   3   9   -0.32    0.61
  -4   3   9   -0.31    0.73
  -4   3   9    0.38    0.63
   3  -3  -9    2.96    0.90
   3  -3  -9    4.32    1.03
   3  -3  -9    5.14    1.26
  -3   3   9    3.20    1.85
  -3   3   9    2.85    1.79
  -3   3   9    3.20    1.17
  -3   3   9    2.89    1.07
   2  -3  -9    0.42    0.59
   2  -3  -9    1.22    0.83
   2  -3  -9    1.69    0.67
  -2   3   9   -0.03    1.50
  -2   3   9    1.06    0.77
  -2   3   9    0.95    0.94
   1  -3  -9   75.42    5.62
   1  -3  -9   75.75    5.70
   1  -3  -9   77.11    5.56
  -1   3   9   81.84    5.85
  -1   3   9   83.05    6.06
  -1   3   9   84.03    6.14
  -1   3   9   79.03    5.75
  -1   3   9   86.74    6.10
   0  -3  -9    0.69    0.64
   0  -3  -9    0.80    0.69
   0   3   9    0.92    0.74
   0   3   9    0.65    0.66
   0   3   9   -0.22    0.57
  -1  -3  -9  107.08    7.79
  -1  -3  -9  110.01    7.68
  -1  -3  -9  111.11    7.53
   1   3   9  103.93    7.65
   1   3   9  127.04    7.82
   1   3   9  125.43    8.03
  -2  -3  -9    3.38    0.98
  -2  -3  -9    2.27    0.78
   2   3   9    4.34    1.13
   2   3   9    3.64    0.91
   2   3   9    3.58    1.40
  -3  -3  -9    6.07    1.37
  -3  -3  -9    8.72    1.44
   3   3   9    6.88    1.37
   3   3   9   11.23    1.50
   6  -4  -9    0.25    0.77
   6  -4  -9    0.37    0.69
  -6   4   9    0.55    0.69
  -6   4   9    0.70    0.74
   5  -4  -9    2.09    0.80
   5  -4  -9   -0.49    0.76
  -5   4   9    0.63    0.75
  -5   4   9    0.76    0.75
   4  -4  -9   12.00    1.53
   4  -4  -9   13.64    1.75
   4  -4  -9   13.13    1.79
  -4   4   9   12.59    1.78
  -4   4   9   12.79    1.74
   3  -4  -9   12.91    1.83
  -3   4   9    4.36    1.38
  -3   4   9    7.94    1.46
  -3   4   9    9.47    2.30
  -3   4   9    5.80    1.90
  -3   4   9    5.90    1.26
   2  -4  -9   30.05    2.88
   2  -4  -9   38.30    3.32
   2  -4  -9   36.55    3.06
   2  -4  -9   33.88    2.86
  -2   4   9   28.21    3.85
  -2   4   9   28.16    3.11
  -2   4   9   28.05    3.80
  -2   4   9   36.10    3.24
   1  -4  -9    0.67    0.87
   1  -4  -9    0.20    0.42
   1  -4  -9    0.26    0.74
   1  -4  -9    1.40    0.63
  -1   4   9    0.46    0.69
  -1   4   9    1.18    0.90
  -1   4   9    0.98    0.84
  -1   4   9    1.66    0.91
  -1   4   9    0.42    0.86
   0  -4  -9   16.10    2.09
   0  -4  -9   15.48    1.89
   0   4   9   17.50    1.95
   0   4   9   17.46    2.07
   0   4   9   17.16    1.92
  -1  -4  -9   16.96    1.82
  -1  -4  -9   12.26    1.53
  -1  -4  -9   13.45    1.85
   1   4   9   16.14    1.79
   1   4   9   15.52    1.89
   1   4   9   15.25    2.08
  -2  -4  -9    4.95    1.17
  -2  -4  -9    3.81    0.87
   2   4   9    3.92    0.97
   2   4   9    5.00    1.07
   2   4   9    4.23    1.54
  -3  -4  -9    7.51    1.46
   3   4   9    8.24    1.56
   3   4   9    6.86    1.22
   6  -5  -9   -0.72    1.07
  -6   5   9   -0.14    1.22
   5  -5  -9    1.63    0.86
   5  -5  -9    1.60    0.78
  -5   5   9    1.06    0.87
  -5   5   9    0.47    0.64
   4  -5  -9   -0.44    0.74
   4  -5  -9    1.00    0.72
   4  -5  -9    1.28    0.79
  -4   5   9    0.58    0.76
  -4   5   9    1.01    0.77
   3  -5  -9    3.99    1.31
   3  -5  -9    4.71    1.06
   3  -5  -9    5.41    1.15
   3  -5  -9    4.62    1.69
  -3   5   9    2.38    1.07
  -3   5   9    4.26    1.68
  -3   5   9    3.51    0.97
  -3   5   9    4.38    1.92
   2  -5  -9    0.26    0.67
   2  -5  -9   -0.71    0.86
   2  -5  -9   -0.05    1.09
   2  -5  -9   -0.57    0.63
  -2   5   9   -0.34    1.38
  -2   5   9    0.12    0.87
  -2   5   9    0.11    1.35
  -2   5   9    0.34    0.78
   1  -5  -9    9.36    1.77
   1  -5  -9    7.65    1.25
   1  -5  -9    8.52    1.55
   1  -5  -9    8.84    1.41
  -1   5   9    7.95    1.47
  -1   5   9   10.00    1.53
  -1   5   9    8.38    1.46
  -1   5   9    9.72    1.52
   0  -5  -9    1.29    0.83
   0  -5  -9   -0.36    0.71
   0   5   9   -0.18    1.29
   0   5   9    0.29    0.72
   0   5   9    0.38    0.74
  -1  -5  -9    0.63    0.56
  -1  -5  -9   -0.37    0.72
   1   5   9    0.42    0.72
   1   5   9    2.50    1.29
   1   5   9    0.25    0.70
  -2  -5  -9    2.43    1.06
  -2  -5  -9    4.29    0.94
   2   5   9    5.43    1.16
   2   5   9    4.26    1.47
   2   5   9    4.49    1.15
  -3  -5  -9    1.49    1.07
  -3  -5  -9    2.18    0.86
   3   5   9   -0.08    0.77
   5  -6  -9   22.68    2.22
   5  -6  -9   15.72    2.16
  -5   6   9   20.19    2.11
  -5   6   9   18.63    2.13
   4  -6  -9   17.29    2.07
   4  -6  -9   17.58    2.06
   4  -6  -9   17.17    1.90
  -4   6   9   15.95    2.00
  -4   6   9   13.90    1.85
   3  -6  -9   17.50    2.03
   3  -6  -9   13.45    1.84
   3  -6  -9   17.85    1.99
  -3   6   9    8.47    2.21
  -3   6   9   10.19    2.26
  -3   6   9   10.45    1.68
  -3   6   9   11.23    1.78
   2  -6  -9   38.56    4.18
   2  -6  -9   45.73    3.71
   2  -6  -9   51.15    3.68
   2  -6  -9   47.55    3.71
  -2   6   9   35.76    3.66
  -2   6   9   39.88    4.07
  -2   6   9   35.31    3.61
  -2   6   9   38.50    4.14
   1  -6  -9    1.04    0.50
   1  -6  -9    0.29    0.93
   1  -6  -9    0.31    0.63
   1  -6  -9    0.38    0.89
  -1   6   9    0.70    0.63
  -1   6   9   -0.42    0.82
  -1   6   9    0.58    0.66
   0  -6  -9    6.62    1.20
   0  -6  -9    8.45    1.43
   0  -6  -9    4.03    2.06
   0   6   9   11.13    1.70
   0   6   9    5.16    1.09
  -1  -6  -9    2.81    0.97
   1   6   9    0.83    1.13
   1   6   9    1.02    0.81
   1   6   9    1.62    0.75
  -2  -6  -9    6.81    1.57
  -2  -6  -9    6.22    1.59
   2   6   9    7.70    1.39
   2   6   9    7.75    1.76
   2   6   9    7.27    1.44
  -5   7   9    5.86    1.29
   4  -7  -9    0.91    0.61
   4  -7  -9    1.59    0.92
   4  -7  -9    1.17    0.94
  -4   7   9    1.14    0.76
  -4   7   9   -0.35    0.86
   3  -7  -9    9.30    1.58
   3  -7  -9   10.87    1.70
   3  -7  -9    9.19    1.60
  -3   7   9    6.07    2.06
  -3   7   9   10.89    1.67
  -3   7   9    8.61    1.51
   2  -7  -9   -0.15    0.84
   2  -7  -9    0.23    0.96
   2  -7  -9    0.36    0.74
  -2   7   9    0.81    1.17
  -2   7   9    0.03    0.79
  -2   7   9    1.23    0.91
  -2   7   9    0.41    1.28
   1  -7  -9   -0.02    0.71
   1  -7  -9    0.01    0.91
   1  -7  -9    0.18    0.69
  -1   7   9    0.19    0.73
  -1   7   9    1.24    1.06
   0  -7  -9    0.36    0.58
   0  -7  -9   -0.30    0.92
   0   7   9   -0.89    0.86
   0   7   9    0.17    0.92
  -1  -7  -9   12.79    1.83
   1   7   9   17.55    2.18
   1   7   9   12.82    2.15
   1   7   9   14.40    1.98
  -2  -7  -9    5.78    1.48
  -2  -7  -9    3.39    0.90
   2   7   9    4.08    1.17
   2   7   9    4.07    1.09
   2   7   9    4.18    1.66
   4  -8  -9   -0.62    0.88
   4  -8  -9   -0.46    1.11
   4  -8  -9    0.06    0.98
  -4   8   9    0.04    0.68
  -4   8   9   -0.29    0.71
   3  -8  -9    9.10    1.63
   3  -8  -9   10.76    1.93
   3  -8  -9    9.93    1.68
  -3   8   9    9.82    1.49
  -3   8   9    6.31    2.04
   2  -8  -9    1.44    0.92
   2  -8  -9    0.02    1.20
   2  -8  -9   -0.18    0.87
  -2   8   9    0.03    1.02
  -2   8   9    0.48    0.87
  -2   8   9    0.28    0.87
  -2   8   9    1.02    1.08
   1  -8  -9    0.35    0.77
   1  -8  -9    0.37    1.05
   1  -8  -9    0.02    0.73
  -1   8   9   -0.63    0.97
  -1   8   9   -0.48    0.83
   0  -8  -9    1.99    0.86
   0  -8  -9    3.21    1.19
   0  -8  -9    3.25    0.96
   0   8   9    3.98    1.22
  -1  -8  -9    4.02    1.14
   1   8   9    4.12    1.26
   1   8   9    5.00    1.35
   1   8   9    4.37    1.71
   2  -9  -9    1.50    1.16
   2  -9  -9   -0.98    1.04
  -2   9   9   -0.53    0.90
   1  -9  -9   21.89    2.39
   1  -9  -9   30.70    2.92
   1  -9  -9   25.12    2.51
  -1   9   9   16.64    2.90
  -1   9   9   15.92    2.77
   0  -9  -9   -0.64    0.70
   0  -9  -9   -1.27    0.70
   0  -9  -9    1.10    1.14
   0   9   9    1.10    1.17
   0   9   9    1.14    1.22
  -3  -7  10    7.44    1.85
  -3  -7  10   11.05    1.45
   2   7 -10    0.16    0.48
   2   7 -10    0.31    0.83
   2   7 -10    0.53    0.51
  -2  -7  10   -0.14    0.81
  -2  -7  10    0.45    0.89
   1   7 -10    2.03    0.57
   1   7 -10    0.49    0.50
  -1  -7  10    1.14    0.84
   0  -7  10   -0.06    0.66
   4   6 -10    9.14    1.02
   4   6 -10    6.97    0.94
  -4  -6  10    7.51    1.41
  -4  -6  10    5.58    1.58
   3   6 -10    3.43    0.67
   3   6 -10    3.47    0.78
  -3  -6  10    2.11    1.03
   2   6 -10   11.91    1.46
  -2  -6  10   10.74    1.39
  -2  -6  10    8.28    1.71
   1   6 -10    0.32    0.40
   1   6 -10    0.14    0.43
   1   6 -10    0.13    0.88
  -1  -6  10   -0.23    0.45
  -1  -6  10    0.12    0.79
   0  -6  10   71.93    4.62
   0  -6  10   67.80    4.71
   0  -6  10   62.30    4.78
  -1   6 -10    1.09    1.42
   1  -6  10    1.27    0.67
   1  -6  10   -0.20    0.54
   4   5 -10    1.40    0.73
   4   5 -10    0.99    0.60
  -4  -5  10    0.06    0.97
  -4  -5  10   -0.14    0.75
   3   5 -10    0.01    0.56
   3   5 -10    0.64    0.58
  -3  -5  10    0.23    1.04
  -3  -5  10   -0.07    0.75
   2   5 -10    1.59    0.60
   2   5 -10    1.09    0.56
   2   5 -10    1.53    0.76
  -2  -5  10    2.53    1.93
  -2  -5  10   -0.03    0.84
  -2  -5  10    1.24    0.69
   1   5 -10    1.72    0.53
   1   5 -10    1.45    0.49
   1   5 -10    0.53    0.76
  -1  -5  10    1.01    1.25
  -1  -5  10    1.28    0.63
  -1  -5  10    1.53    0.57
  -1  -5  10    2.09    0.85
   0  -5  10   -0.20    0.77
   0  -5  10    1.13    0.62
   0  -5  10    1.52    0.58
  -1   5 -10    1.41    1.45
   1  -5  10    1.12    0.67
   1  -5  10    1.17    0.60
   5   4 -10    7.30    1.09
   5   4 -10    7.98    1.14
  -5  -4  10    6.11    1.22
  -5  -4  10    5.67    1.52
  -5  -4  10    6.95    1.23
   4   4 -10    5.57    1.12
   4   4 -10    4.58    0.86
   4   4 -10    4.42    0.87
  -4  -4  10    3.61    1.07
  -4  -4  10    3.39    1.58
   3   4 -10   12.07    1.44
   3   4 -10   11.77    1.44
   3   4 -10   14.04    1.58
  -3  -4  10   12.48    1.78
  -3  -4  10   13.18    2.80
   2   4 -10    0.10    0.52
   2   4 -10    0.72    0.53
   2   4 -10    0.46    0.63
  -2  -4  10    0.67    0.78
  -2  -4  10   -0.01    1.24
  -2  -4  10    0.05    0.64
   1   4 -10   -0.24    0.69
   1   4 -10    1.00    0.48
  -1  -4  10    1.06    0.51
  -1  -4  10   -0.34    0.48
  -1  -4  10   -0.44    1.13
  -1  -4  10   -0.47    0.70
   0  -4  10    6.94    1.11
   0  -4  10    4.96    0.98
   0  -4  10    5.57    0.91
  -1   4 -10    1.65    1.45
   1  -4  10    2.30    0.78
  -2   4 -10    5.96    2.08
   2  -4  10    6.71    1.12
   2  -4  10    5.52    1.00
   5   3 -10    1.43    0.76
   5   3 -10    0.54    0.70
  -5  -3  10    0.95    0.98
  -5  -3  10    0.85    0.86
  -5  -3  10    1.29    0.87
   4   3 -10    5.58    1.06
   4   3 -10    4.03    0.86
   4   3 -10    3.68    1.03
  -4  -3  10    2.56    1.26
   3   3 -10   64.36    4.33
   3   3 -10   62.25    4.57
   3   3 -10   63.51    4.42
  -3  -3  10   55.44    6.02
  -3  -3  10   52.29    4.59
   2   3 -10    1.14    0.71
   2   3 -10    1.10    0.62
   2   3 -10    0.94    0.54
  -2  -3  10    1.16    0.83
  -2  -3  10    1.32    0.90
  -2  -3  10    2.13    1.53
   1   3 -10   59.49    4.23
   1   3 -10   52.61    3.97
   1   3 -10   53.05    3.94
  -1  -3  10   56.00    5.90
  -1  -3  10   61.76    5.88
  -1  -3  10   61.14    4.27
  -1  -3  10   55.14    4.09
  -1  -3  10   67.33    4.62
   0  -3  10    0.22    0.47
   0  -3  10   -0.53    0.70
   0  -3  10    0.55    0.54
   1  -3  10    0.22    0.54
   1  -3  10    0.52    0.61
  -2   3 -10    1.98    1.47
   2  -3  10    0.40    0.67
   2  -3  10    1.46    0.73
   5   2 -10    7.22    1.20
   5   2 -10    6.39    1.12
  -5  -2  10    9.08    1.43
  -5  -2  10    5.97    1.23
  -5  -2  10    6.67    1.57
   4   2 -10    1.70    0.71
   4   2 -10    2.23    1.03
   4   2 -10    2.17    0.77
  -4  -2  10    1.88    2.22
  -4  -2  10   -0.29    0.82
  -4  -2  10    1.77    0.92
   3   2 -10   15.23    1.57
   3   2 -10   11.59    1.58
   3   2 -10    8.81    1.39
  -3  -2  10    5.27    1.35
  -3  -2  10    9.73    2.67
  -3  -2  10   11.82    2.25
   2   2 -10    0.41    0.54
   2   2 -10   -0.16    0.65
  -2  -2  10    0.68    0.69
  -2  -2  10    0.93    1.38
  -2  -2  10    1.34    0.87
  -2  -2  10    0.18    1.45
   1   2 -10    0.22    0.64
   1   2 -10    0.07    0.42
  -1  -2  10    0.23    0.57
  -1  -2  10    0.67    0.56
  -1  -2  10   -0.83    0.90
  -1  -2  10   -0.42    0.99
  -1  -2  10   -0.02    0.84
   0  -2  10   -0.42    0.48
   0  -2  10    0.53    0.55
   0  -2  10    0.56    0.75
   1  -2  10    1.42    0.72
   1  -2  10    1.51    0.68
  -2   2 -10    1.20    1.35
   2  -2  10    1.14    0.66
   2  -2  10    0.70    0.91
   5   1 -10   12.44    1.63
  -5  -1  10   11.03    1.66
   4   1 -10    0.25    0.66
  -4  -1  10    0.74    2.04
  -4  -1  10   -0.40    0.81
  -4  -1  10    0.45    0.91
  -4  -1  10   -0.93    0.82
   3   1 -10    7.38    1.29
   3   1 -10    5.74    1.24
   3   1 -10    5.62    1.02
  -3  -1  10    5.56    2.47
  -3  -1  10    6.71    2.31
  -3  -1  10    4.99    1.43
  -3  -1  10    3.56    1.49
   2   1 -10    2.32    0.71
   2   1 -10    1.70    0.84
   2   1 -10    1.29    0.58
  -2  -1  10    0.14    1.41
  -2  -1  10    1.03    0.96
  -2  -1  10    1.57    1.51
  -2  -1  10    1.34    0.71
   1   1 -10    0.78    0.50
   1   1 -10    0.56    0.59
  -1  -1  10   -0.48    0.68
  -1  -1  10    0.69    0.59
  -1  -1  10   -0.22    0.58
   0  -1  10    1.57    0.79
   0  -1  10    1.09    0.80
   0  -1  10    2.07    0.69
   1  -1  10    6.13    0.98
   1  -1  10    4.57    1.08
  -2   1 -10   11.14    1.27
   2  -1  10    8.85    1.33
   2  -1  10    9.67    1.35
   5   0 -10    2.47    0.88
   5   0 -10    3.51    1.06
  -5   0  10    2.06    1.08
  -5   0  10    1.24    0.83
  -5   0  10    2.51    2.60
   4   0 -10   16.06    1.71
  -4   0  10   11.19    3.00
  -4   0  10   10.53    1.66
  -4   0  10    9.42    1.83
  -4   0  10   12.32    1.91
   3   0 -10    4.75    1.03
   3   0 -10    6.96    1.17
   3   0 -10    4.35    1.33
  -3   0  10    4.49    2.20
  -3   0  10    3.87    1.36
  -3   0  10    1.08    1.97
   2   0 -10   19.92    2.82
   2   0 -10   19.82    2.11
   2   0 -10   20.46    1.95
   2   0 -10   21.96    1.93
  -2   0  10   21.38    2.13
  -2   0  10   21.26    2.34
   1   0 -10   -0.29    0.64
   1   0 -10    0.18    0.46
   1   0 -10    0.94    0.69
  -1   0  10   -0.38    0.71
  -1   0  10    0.40    0.59
  -1   0  10   -0.59    0.55
  -1   0  10   -0.14    0.89
  -1   0  10   -0.69    0.97
   0   0  10  118.20    7.52
   0   0  10   99.14    7.38
   0   0  10  117.29    7.67
   1   0  10    2.27    0.71
   1   0  10    1.07    0.73
  -2   0 -10   25.82    2.14
   2   0  10   23.73    2.26
   2   0  10   25.64    2.42
   5  -1 -10   10.74    1.60
   5  -1 -10   13.10    1.67
  -5   1  10   10.65    1.72
  -5   1  10   13.25    2.13
  -5   1  10    6.20    2.36
   4  -1 -10    0.01    0.72
   4  -1 -10    0.38    0.81
  -4   1  10   -0.87    2.28
  -4   1  10    0.52    0.86
  -4   1  10    0.41    0.87
  -4   1  10    0.90    2.40
   3  -1 -10    5.84    1.13
   3  -1 -10    8.06    1.44
  -3   1  10    3.90    1.36
  -3   1  10    2.61    1.04
   2  -1 -10    0.87    0.55
   2  -1 -10    1.49    0.68
   2  -1 -10    1.82    1.10
   2  -1 -10    1.71    0.80
  -2   1  10    2.43    0.87
  -2   1  10    2.18    1.07
  -2   1  10    0.44    0.85
  -2   1  10    2.57    1.72
  -2   1  10    2.30    1.47
   1  -1 -10    0.72    0.67
  -1   1  10   -0.77    0.52
  -1   1  10    0.76    1.01
  -1   1  10    1.15    0.78
  -1   1  10    0.53    0.92
  -1   1  10    0.41    0.55
   0  -1 -10    2.40    1.31
   0   1  10    4.33    0.89
   0   1  10    0.88    0.73
   1   1  10    8.40    1.55
   1   1  10    4.50    0.98
  -2  -1 -10   11.34    1.35
   2   1  10   12.14    1.46
   2   1  10    7.33    1.30
   5  -2 -10    7.61    1.34
   5  -2 -10    8.15    1.46
  -5   2  10    5.18    1.27
  -5   2  10    9.27    1.68
   4  -2 -10    0.66    0.64
   4  -2 -10    3.63    1.01
  -4   2  10    2.23    2.02
  -4   2  10    1.22    0.83
  -4   2  10    1.72    2.37
  -4   2  10    3.24    1.09
   3  -2 -10   11.64    1.66
   3  -2 -10   16.37    1.84
  -3   2  10   11.01    2.28
   2  -2 -10    0.27    0.50
   2  -2 -10    0.89    0.60
   2  -2 -10    0.09    0.75
  -2   2  10   -0.24    0.92
  -2   2  10    1.02    1.32
  -2   2  10    0.53    0.61
  -2   2  10    1.89    1.48
   1  -2 -10    0.62    0.53
   1  -2 -10    0.41    0.54
   1  -2 -10   -0.96    0.67
  -1   2  10   -0.64    0.57
  -1   2  10   -0.37    0.82
  -1   2  10    0.27    0.57
  -1   2  10    0.56    0.97
   0  -2 -10   -0.24    0.63
   0   2  10    0.27    0.55
   0   2  10    0.16    0.61
   1   2  10    1.81    0.71
   1   2  10    1.38    0.84
  -2  -2 -10    2.13    0.71
   2   2  10    1.66    0.76
   2   2  10    0.21    0.64
   5  -3 -10    1.27    0.89
   5  -3 -10    1.06    0.86
  -5   3  10    0.64    0.92
  -5   3  10    0.98    0.75
   4  -3 -10    5.09    1.15
   4  -3 -10    1.51    0.80
  -4   3  10    1.77    2.03
  -4   3  10    2.46    1.23
  -4   3  10    3.46    1.19
  -4   3  10    2.75    2.42
  -3   3  10   44.56    5.12
  -3   3  10   41.10    4.02
  -3   3  10   45.41    5.38
   2  -3 -10    1.95    0.66
   2  -3 -10    1.15    0.67
   2  -3 -10    0.44    0.81
  -2   3  10    1.36    0.77
  -2   3  10    2.35    1.44
  -2   3  10    2.12    1.43
   1  -3 -10   53.38    4.27
   1  -3 -10   51.05    4.35
   1  -3 -10   58.40    4.26
  -1   3  10   60.77    4.56
  -1   3  10   61.79    4.73
  -1   3  10   68.45    4.96
  -1   3  10   65.99    4.79
   0  -3 -10    0.20    0.71
   0   3  10    0.86    0.73
   0   3  10    0.65    0.62
   1   3  10    0.47    0.57
   1   3  10    0.54    0.67
  -2  -3 -10    3.06    0.81
   2   3  10    2.13    0.80
   2   3  10    3.11    0.90
   5  -4 -10    7.40    1.42
   5  -4 -10    6.81    1.58
  -5   4  10    6.99    1.45
  -5   4  10    5.09    1.22
   4  -4 -10    3.83    0.99
   4  -4 -10    5.52    1.34
  -4   4  10    3.77    1.15
  -4   4  10    3.46    1.28
  -4   4  10    3.32    2.32
  -4   4  10    4.47    2.10
   3  -4 -10   13.04    1.81
   3  -4 -10   13.82    1.95
  -3   4  10   10.00    1.88
  -3   4  10   11.97    2.74
  -3   4  10    6.99    1.62
  -3   4  10    8.72    2.58
   2  -4 -10    0.38    0.61
   2  -4 -10   -0.35    0.59
   2  -4 -10   -0.04    0.90
  -2   4  10    0.07    1.36
  -2   4  10   -0.02    0.67
  -2   4  10   -1.56    1.20
   1  -4 -10    0.71    0.57
   1  -4 -10    0.17    0.51
   1  -4 -10    0.15    0.78
  -1   4  10    1.59    0.97
  -1   4  10    0.34    0.72
  -1   4  10    1.39    0.84
   0  -4 -10    5.21    1.13
   0   4  10    6.52    1.23
   0   4  10    6.80    1.42
   1   4  10    2.67    0.91
   1   4  10    1.09    0.86
  -2  -4 -10    7.13    1.15
   2   4  10    5.26    1.07
   2   4  10    5.32    1.13
   4  -5 -10    0.36    0.98
   4  -5 -10    2.68    1.22
  -4   5  10    1.86    2.17
  -4   5  10    2.53    2.62
  -4   5  10    0.32    0.86
  -4   5  10    1.29    0.87
   3  -5 -10    0.27    0.72
   3  -5 -10    0.64    0.86
  -3   5  10    0.04    0.83
  -3   5  10    1.99    2.11
  -3   5  10   -0.77    1.75
  -3   5  10   -1.15    0.97
   2  -5 -10    1.62    0.91
   2  -5 -10   -1.16    0.92
   2  -5 -10    0.76    0.73
  -2   5  10    1.66    1.29
  -2   5  10    0.30    1.35
  -2   5  10    0.81    1.04
   1  -5 -10    0.32    0.62
   1  -5 -10    1.45    0.66
   1  -5 -10    1.57    0.94
  -1   5  10    1.09    0.84
   0  -5 -10    1.65    0.64
   0  -5 -10   -0.07    0.87
   0   5  10    0.54    0.78
   0   5  10    1.24    0.72
   1   5  10   -0.34    0.73
   1   5  10    0.88    0.86
   4  -6 -10   12.31    2.05
   4  -6 -10   10.81    2.04
  -4   6  10    6.25    1.47
  -4   6  10    7.08    1.54
   3  -6 -10    4.71    1.27
   3  -6 -10    2.86    1.26
  -3   6  10    3.43    2.13
  -3   6  10    3.86    1.99
  -3   6  10    4.00    1.39
  -3   6  10    1.88    1.15
   2  -6 -10   10.39    1.63
   2  -6 -10    8.72    1.76
   2  -6 -10    8.51    1.40
  -2   6  10   13.50    1.91
  -2   6  10    4.35    1.71
  -2   6  10   12.48    2.02
  -2   6  10    6.01    1.42
   1  -6 -10   -0.05    0.62
   1  -6 -10    1.27    0.96
   1  -6 -10    0.30    0.54
  -1   6  10   -0.10    0.91
   0  -6 -10   55.93    4.71
   0  -6 -10   64.00    4.61
   0   6  10   75.54    5.02
   1   6  10   -0.80    0.76
   1   6  10    0.07    0.84
   3  -7 -10   12.32    1.83
   3  -7 -10   12.30    2.02
  -3   7  10    6.68    1.56
  -3   7  10    9.20    2.69
  -3   7  10    7.86    1.61
  -3   7  10    8.17    2.32
   2  -7 -10    1.87    0.96
   2  -7 -10    1.64    0.91
  -2   7  10    0.63    1.01
  -2   7  10    1.24    1.24
  -2   7  10   -0.73    1.05
  -2   7  10    0.47    0.98
   1  -7 -10    1.56    0.79
   1  -7 -10    1.37    0.79
   1  -7 -10   -0.14    1.05
  -1   7  10    0.67    0.86
  -1   7  10    0.90    1.04
   0   7  10    0.64    1.18
  -3  -4  11   -0.37    1.30
   2   4 -11    1.03    0.62
   2   4 -11    0.90    0.60
  -2  -4  11    0.32    0.89
  -2  -4  11    1.22    0.85
   1   4 -11    0.02    0.45
   1   4 -11   -0.59    0.48
  -1  -4  11    0.43    0.55
   3   3 -11   -0.63    0.61
   3   3 -11   -0.53    0.68
  -3  -3  11   -0.18    1.21
  -3  -3  11    0.06    0.95
   2   3 -11    1.21    0.55
  -2  -3  11   -0.38    1.10
  -2  -3  11    0.76    0.77
   1   3 -11   24.09    2.01
   1   3 -11   22.26    1.93
  -1  -3  11   26.04    2.12
  -1  -3  11   22.00    3.08
  -1  -3  11   27.01    2.27
   0  -3  11    1.28    0.66
   0  -3  11    1.59    0.63
   4   2 -11    6.05    1.15
   4   2 -11    3.77    1.06
  -4  -2  11    1.62    1.25
   3   2 -11    1.90    0.73
   3   2 -11    1.49    0.78
  -3  -2  11    2.17    1.11
   2   2 -11    0.58    0.55
  -2  -2  11    0.37    1.24
  -2  -2  11   -0.50    0.72
   1   2 -11    0.45    0.47
   1   2 -11    0.07    0.49
  -1  -2  11    0.13    0.57
  -1  -2  11    0.99    1.13
  -1  -2  11   -0.49    0.54
   0  -2  11    7.34    1.10
   0  -2  11    8.35    1.27
   4   1 -11    6.46    1.25
  -4  -1  11    5.29    1.43
  -4  -1  11    4.71    1.57
   3   1 -11    2.45    0.79
   3   1 -11    0.75    0.73
  -3  -1  11    4.38    1.94
  -3  -1  11    1.23    1.04
   2   1 -11    2.75    0.74
   2   1 -11    2.70    0.76
  -2  -1  11    3.26    1.76
  -2  -1  11    5.29    1.76
   1   1 -11   14.46    1.50
   1   1 -11   15.14    1.53
  -1  -1  11   17.90    2.03
   0  -1  11    1.38    0.67
   0  -1  11    0.43    0.57
   4   0 -11   29.31    2.79
   4   0 -11   29.98    2.72
   3   0 -11    1.66    0.76
   3   0 -11    1.67    0.77
  -3   0  11    3.08    1.92
  -3   0  11    1.45    1.22
   2   0 -11   48.29    3.58
   2   0 -11   50.12    3.68
  -2   0  11   46.27    4.81
  -2   0  11   52.16    4.76
  -2   0  11   52.43    4.54
   1   0 -11    0.62    0.50
   1   0 -11    0.42    0.49
  -1   0  11   -0.82    1.00
  -1   0  11    0.47    1.20
  -1   0  11   -0.10    0.98
   0   0  11    7.58    1.25
   0   0  11    7.09    1.40
   4  -1 -11    7.79    1.45
   4  -1 -11    8.05    1.41
  -4   1  11    6.04    2.85
  -4   1  11    3.86    1.44
   3  -1 -11    2.08    0.85
   3  -1 -11    1.62    0.73
   2  -1 -11    2.99    0.86
   2  -1 -11    2.24    0.88
  -2   1  11    5.18    1.60
  -2   1  11    3.22    1.66
  -2   1  11    2.45    0.99
   1  -1 -11   16.47    1.55
   1  -1 -11   12.99    1.51
  -1   1  11   16.37    2.10
  -1   1  11   14.84    1.71
   0   1  11    0.31    0.60
   4  -2 -11    5.19    1.25
   4  -2 -11    5.27    1.25
  -4   2  11    2.60    2.54
  -4   2  11    2.10    1.50
  -4   2  11    5.08    1.60
   3  -2 -11    1.83    0.85
   3  -2 -11    2.17    0.80
  -3   2  11    2.57    1.98
  -3   2  11    0.93    2.21
  -3   2  11    1.34    1.09
   2  -2 -11    0.30    0.55
   2  -2 -11   -0.05    0.53
  -2   2  11    0.73    0.72
   1  -2 -11   -0.37    0.56
   1  -2 -11   -0.47    0.50
  -1   2  11   -0.16    1.07
  -1   2  11   -1.29    0.89
  -1   2  11   -0.03    0.63
   0   2  11    8.32    1.44
   0   2  11    7.56    1.28
   3  -3 -11   -0.17    0.64
   3  -3 -11    1.93    0.84
  -3   3  11    1.16    1.04
  -3   3  11    1.11    2.18
  -3   3  11    0.37    1.92
   2  -3 -11    0.70    0.66
   2  -3 -11    1.36    0.71
  -2   3  11    0.59    0.70
  -2   3  11   -0.64    1.32
  -2   3  11    1.56    1.27
   1  -3 -11   23.03    2.05
   1  -3 -11   20.33    2.03
  -1   3  11   25.74    2.30
   0   3  11    1.07    0.78
   0   3  11    0.63    0.71
   2  -4 -11    1.31    0.71
   2  -4 -11    0.58    0.65
  -2   4  11    0.19    1.18
  -2   4  11    0.88    1.36
  -2   4  11   -0.11    0.76
   1  -4 -11   -0.53    0.58
   1  -4 -11    0.24    0.48
  -1   4  11    0.68    0.80
   0   0   0    0.00    0.00
;
_shelx_hkl_checksum              32319
_olex2_submission_special_instructions 'No special instructions were received'
loop_
_space_group_symop_operation_xyz
'x, y, z'
'-x, y+1/2, -z'
'-x, -y, -z'
'x, -y-1/2, z'
loop_
_atom_site_label
_atom_site_type_symbol
_atom_site_fract_x
_atom_site_fract_y
_atom_site_fract_z
_atom_site_U_iso_or_equiv
_atom_site_adp_type
_atom_site_occupancy
_atom_site_site_symmetry_order
_atom_site_calc_flag
_atom_site_refinement_flags_posn
_atom_site_refinement_flags_adp
_atom_site_refinement_flags_occupancy
_atom_site_disorder_assembly
_atom_site_disorder_group
Pb1 Pb 0.05853(5) 0.250000 0.41655(5) 0.02671(12) Uani 1 2 d S T P . .
Pb2 Pb 0.43538(4) 0.09341(2) 0.20468(4) 0.02752(10) Uani 1 1 d . . . . .
Pb3 Pb 0.60626(6) 0.250000 0.59530(5) 0.02739(12) Uani 1 2 d S T P . .
Pb4 Pb 1.08949(4) 0.40691(2) 0.79735(4) 0.02779(10) Uani 1 1 d . . . . .
N1 N 0.7494(15) 0.250000 0.0105(13) 0.040(3) Uani 1 2 d S T P . .
B1 B 0.7455(11) -0.0015(8) 0.5038(12) 0.030(2) Uani 1 1 d . . . . .
F1 F 1.2805(15) 0.250000 0.9568(14) 0.079(3) Uani 1 2 d S T P . .
O1 O 0.7622(14) 0.3449(6) -0.0549(10) 0.067(2) Uani 1 1 d . . . . .
O2 O 0.7154(13) 0.250000 0.1454(11) 0.044(2) Uani 1 2 d S TU P . .
O3 O 0.6752(9) 0.0992(4) 0.4301(7) 0.0331(13) Uani 1 1 d . . . . .
O4 O 0.7729(9) -0.0991(4) 0.4226(7) 0.0322(13) Uani 1 1 d . . . . .
O5 O 0.7925(8) -0.0026(5) 0.6634(7) 0.0368(14) Uani 1 1 d . . . . .
O6 O 0.3545(11) 0.250000 0.3113(10) 0.0305(18) Uani 1 2 d S T P . .
O7 O 0.9586(10) 0.250000 0.6800(9) 0.0243(15) Uani 1 2 d S T P . .
loop_
_atom_site_aniso_label
_atom_site_aniso_U_11
_atom_site_aniso_U_22
_atom_site_aniso_U_33
_atom_site_aniso_U_23
_atom_site_aniso_U_13
_atom_site_aniso_U_12
Pb1 0.0251(2) 0.0251(2) 0.0292(2) 0.000 0.00383(17) 0.000
Pb2 0.03046(16) 0.02363(17) 0.02906(19) -0.00287(11) 0.00742(13) -0.00084(10)
Pb3 0.0265(2) 0.0244(2) 0.0324(3) 0.000 0.00869(17) 0.000
Pb4 0.02945(16) 0.02401(17) 0.02872(19) -0.00246(11) 0.00307(13) -0.00060(10)
N1 0.041(6) 0.045(7) 0.039(7) 0.000 0.016(5) 0.000
B1 0.022(4) 0.030(5) 0.038(6) -0.003(4) 0.007(4) -0.001(3)
F1 0.077(6) 0.036(5) 0.101(9) 0.000 -0.037(6) 0.000
O1 0.121(7) 0.026(3) 0.069(6) 0.005(4) 0.053(5) -0.002(4)
O2 0.041(4) 0.054(4) 0.035(4) 0.000 0.006(3) 0.000
O3 0.037(3) 0.025(3) 0.034(4) 0.001(2) 0.001(3) 0.004(2)
O4 0.043(3) 0.022(3) 0.035(4) 0.001(2) 0.014(3) 0.005(2)
O5 0.046(3) 0.033(3) 0.030(3) -0.002(3) 0.007(3) -0.013(3)
O6 0.027(4) 0.022(4) 0.046(5) 0.000 0.016(4) 0.000
O7 0.024(3) 0.016(3) 0.029(4) 0.000 -0.004(3) 0.000
loop_
_atom_type_symbol
_atom_type_description
_atom_type_scat_dispersion_real
_atom_type_scat_dispersion_imag
_atom_type_scat_source
B B 0.0013 0.0007 'International Tables Vol C Tables 4.2.6.8 and 6.1.1.4'
F F 0.0171 0.0103 'International Tables Vol C Tables 4.2.6.8 and 6.1.1.4'
N N 0.0061 0.0033 'International Tables Vol C Tables 4.2.6.8 and 6.1.1.4'
O O 0.0106 0.0060 'International Tables Vol C Tables 4.2.6.8 and 6.1.1.4'
Pb Pb -3.3944 10.1111 'International Tables Vol C Tables 4.2.6.8 and 6.1.1.4'
loop_
_geom_angle_atom_site_label_1
_geom_angle_atom_site_label_2
_geom_angle_atom_site_label_3
_geom_angle
_geom_angle_site_symmetry_1
_geom_angle_site_symmetry_3
_geom_angle_publ_flag
O4 Pb1 O4 93.2(3) 2_656 3_656 ?
O4 Pb1 O7 68.74(17) 3_656 1_455 ?
O4 Pb1 O7 68.74(17) 2_656 1_455 ?
O6 Pb1 O4 84.0(2) . 2_656 ?
O6 Pb1 O4 84.0(2) . 3_656 ?
O6 Pb1 O7 139.3(3) . 1_455 ?
O2 Pb2 Pb2 49.05(12) . 4_565 ?
O3 Pb2 Pb2 88.34(13) . 4_565 ?
O3 Pb2 O2 75.7(2) . . ?
O3 Pb2 O5 90.0(2) . 3_656 ?
O5 Pb2 Pb2 116.18(15) 3_656 4_565 ?
O5 Pb2 O2 158.8(2) 3_656 . ?
O6 Pb2 Pb2 33.42(17) . 4_565 ?
O6 Pb2 O2 77.6(2) . . ?
O6 Pb2 O3 78.0(3) . . ?
O6 Pb2 O5 84.3(2) . 3_656 ?
O3 Pb3 O3 93.6(3) . 4_565 ?
O3 Pb3 O6 66.21(17) . . ?
O3 Pb3 O6 66.21(17) 4_565 . ?
O7 Pb3 O3 83.27(19) . . ?
O7 Pb3 O3 83.27(19) . 4_565 ?
O7 Pb3 O6 134.1(2) . . ?
F1 Pb4 Pb4 43.58(16) . 4_565 ?
O4 Pb4 Pb4 88.31(12) 2_756 4_565 ?
O4 Pb4 F1 101.8(3) 2_756 . ?
O4 Pb4 O5 92.2(2) 2_756 4_565 ?
O5 Pb4 Pb4 117.37(15) 4_565 4_565 ?
O5 Pb4 F1 154.9(3) 4_565 . ?
O7 Pb4 Pb4 34.20(16) . 4_565 ?
O7 Pb4 F1 77.8(2) . . ?
O7 Pb4 O4 76.6(2) . 2_756 ?
O7 Pb4 O5 85.5(2) . 4_565 ?
O1 N1 O1 122.0(12) 4_565 . ?
O1 N1 O2 119.0(6) 4_565 . ?
O1 N1 O2 119.0(6) . . ?
O3 B1 O5 118.8(8) . . ?
O4 B1 O3 120.9(8) . . ?
O4 B1 O5 120.2(8) . . ?
Pb4 F1 Pb4 92.8(3) 4_565 . ?
Pb2 O2 Pb2 81.9(2) . 4_565 ?
N1 O2 Pb2 116.6(5) . 4_565 ?
N1 O2 Pb2 116.6(5) . . ?
Pb2 O3 Pb3 111.3(2) . . ?
B1 O3 Pb2 120.4(5) . . ?
B1 O3 Pb3 114.5(6) . . ?
Pb4 O4 Pb1 107.3(2) 2_746 3_656 ?
B1 O4 Pb1 112.4(6) . 3_656 ?
B1 O4 Pb4 122.6(5) . 2_746 ?
Pb2 O5 Pb4 121.8(3) 3_656 4_565 ?
B1 O5 Pb2 118.2(5) . 3_656 ?
B1 O5 Pb4 120.0(5) . 4_565 ?
Pb1 O6 Pb3 93.3(3) . . ?
Pb2 O6 Pb1 118.87(17) . . ?
Pb2 O6 Pb1 118.87(17) 4_565 . ?
Pb2 O6 Pb2 113.2(3) . 4_565 ?
Pb2 O6 Pb3 103.7(2) . . ?
Pb2 O6 Pb3 103.7(2) 4_565 . ?
Pb3 O7 Pb1 98.5(3) . 1_655 ?
Pb4 O7 Pb1 106.2(2) 4_565 1_655 ?
Pb4 O7 Pb1 106.2(2) . 1_655 ?
Pb4 O7 Pb3 116.20(19) . . ?
Pb4 O7 Pb3 116.20(19) 4_565 . ?
Pb4 O7 Pb4 111.6(3) 4_565 . ?
loop_
_geom_bond_atom_site_label_1
_geom_bond_atom_site_label_2
_geom_bond_distance
_geom_bond_site_symmetry_2
_geom_bond_publ_flag
Pb1 O4 2.390(6) 3_656 ?
Pb1 O4 2.390(6) 2_656 ?
Pb1 O6 2.387(7) . ?
Pb1 O7 2.570(8) 1_455 ?
Pb2 Pb2 3.6046(6) 4_565 ?
Pb2 O2 2.750(7) . ?
Pb2 O3 2.316(6) . ?
Pb2 O5 2.369(5) 3_656 ?
Pb2 O6 2.159(4) . ?
Pb3 O3 2.381(6) . ?
Pb3 O3 2.381(6) 4_565 ?
Pb3 O6 2.751(9) . ?
Pb3 O7 2.362(7) . ?
Pb4 Pb4 3.6118(6) 4_565 ?
Pb4 F1 2.493(6) . ?
Pb4 O4 2.336(6) 2_756 ?
Pb4 O5 2.395(6) 4_565 ?
Pb4 O7 2.184(4) . ?
N1 O1 1.249(9) . ?
N1 O1 1.249(9) 4_565 ?
N1 O2 1.267(14) . ?
B1 O3 1.369(11) . ?
B1 O4 1.369(11) . ?
B1 O5 1.392(12) . ?
