#------------------------------------------------------------------------------
#$Date: 2022-01-20 01:52:26 +0200 (Thu, 20 Jan 2022) $
#$Revision: 272142 $
#$URL: file:///home/coder/svn-repositories/cod/cif/7/70/93/7709324.cif $
#------------------------------------------------------------------------------
#
# This file is available in the Crystallography Open Database (COD),
# http://www.crystallography.net/
#
# All data on this site have been placed in the public domain by the
# contributors.
#
data_7709324
loop_
_publ_author_name
'Greenacre, Victoria K.'
'Hector, Andrew L.'
'Huang, Ruomeng'
'Levason, William'
'Sethi, Vikesh'
'Reid, Gillian'
_publ_section_title
;
 Tungsten(vi) selenide tetrachloride, WSeCl4 -- synthesis, properties,
 coordination complexes and application of [WSeCl4(SenBu2)] for CVD growth
 of WSe2 thin films
;
_journal_name_full               'Dalton Transactions'
_journal_paper_doi               10.1039/D1DT03980F
_journal_year                    2022
_chemical_formula_moiety         'C2 H3 Cl4 N Se W'
_chemical_formula_sum            'C2 H3 Cl4 N Se W'
_chemical_formula_weight         445.66
_chemical_properties_physical
Air-sensitive,Moisture-sensitive,Oxygen-sensitive
_space_group_crystal_system      monoclinic
_space_group_IT_number           11
_space_group_name_Hall           '-P 2yb'
_space_group_name_H-M_alt        'P 1 21/m 1'
_atom_sites_solution_hydrogens   geom
_atom_sites_solution_primary     dual
_audit_creation_date             2021-05-12
_audit_creation_method
;
Olex2 1.3
(compiled 2020.11.12 svn.r5f609507 for OlexSys, GUI svn.r6272)
;
_audit_update_record
;
2021-11-15 deposited with the CCDC.	2022-01-07 downloaded from the CCDC.
;
_cell_angle_alpha                90
_cell_angle_beta                 88.834(3)
_cell_angle_gamma                90
_cell_formula_units_Z            2
_cell_length_a                   5.8784(2)
_cell_length_b                   7.8378(4)
_cell_length_c                   14.8140(6)
_cell_measurement_reflns_used    6299
_cell_measurement_temperature    100
_cell_measurement_theta_max      31.8000
_cell_measurement_theta_min      2.7360
_cell_volume                     682.39(5)
_computing_cell_refinement       'CrysAlisPro 1.171.40.84a (Rigaku OD, 2020)'
_computing_data_collection       'CrysAlisPro 1.171.40.84a (Rigaku OD, 2020)'
_computing_data_reduction        'CrysAlisPro 1.171.40.84a (Rigaku OD, 2020)'
_computing_molecular_graphics    'Olex2 1.3 (Dolomanov et al., 2009)'
_computing_publication_material  'Olex2 1.3 (Dolomanov et al., 2009)'
_computing_structure_refinement  'SHELXL 2018/3 (Sheldrick, 2015)'
_computing_structure_solution    'SHELXT 2014/5 (Sheldrick, 2014)'
_diffrn_ambient_temperature      100
_diffrn_detector                 'Hybrid Pixel Array Detector'
_diffrn_detector_area_resol_mean 10.0000
_diffrn_detector_dtime           0.000
_diffrn_detector_type            'Rigaku, HyPix 6000'
_diffrn_measured_fraction_theta_full 0.999
_diffrn_measured_fraction_theta_max 0.999
_diffrn_measurement_details
;
List of Runs (angles in degrees, time in seconds):

  # Type    Start    End  Width  t~exp~   \w     \q     \k     \f   Frames
#--------------------------------------------------------------------------
  1  \w    -99.00  23.00   0.50    0.55    --   -9.30 -60.00-150.00  244
  2  \w    -41.00  80.00   0.50    0.55    --   -9.30  57.00 -60.00  242
  3  \w    -99.00  26.00   0.50    0.55    --   -9.30 -38.00 -30.00  250
  4  \w    -41.00   6.00   0.50    0.55    --   -9.30  57.00  90.00   94
  5  \w    -61.00 -35.00   0.50    0.55    --    5.00 -60.00  90.00   52
  6  \w    -32.00  -1.00   0.50    0.55    --   -9.10 -57.00  90.00   62
  7  \w    -79.00 -38.00   0.50    0.55    --   -9.10 -57.00  90.00   82
  8  \w    -44.00  80.00   0.50    0.55    --   -9.10  38.00  60.00  248
  9  \w    -44.00  80.00   0.50    0.55    --   -9.10  38.00-180.00  248
;
_diffrn_measurement_device       'four-circle diffractometer'
_diffrn_measurement_device_details 'Rigaku, AFC12 \k goniometer'
_diffrn_measurement_device_type  'XtaLAB AFC12 (RCD3): Kappa single'
_diffrn_measurement_method       'profile data from \w-scans'
_diffrn_measurement_specimen_support 'MiTeGen MicroLoop'
_diffrn_orient_matrix_type
'CrysAlisPro convention (1999,Acta A55,543-557)'
_diffrn_orient_matrix_UB_11      0.0149397000
_diffrn_orient_matrix_UB_12      0.0135376000
_diffrn_orient_matrix_UB_13      -0.0471110000
_diffrn_orient_matrix_UB_21      -0.0061072000
_diffrn_orient_matrix_UB_22      -0.0892608000
_diffrn_orient_matrix_UB_23      -0.0074408000
_diffrn_orient_matrix_UB_31      -0.1195506000
_diffrn_orient_matrix_UB_32      0.0062410000
_diffrn_orient_matrix_UB_33      -0.0045422000
_diffrn_radiation_collimation    0.2
_diffrn_radiation_monochromator  mirror
_diffrn_radiation_probe          x-ray
_diffrn_radiation_type           'Mo K\a'
_diffrn_radiation_wavelength     0.71073
_diffrn_radiation_xray_symbol    K-L~3~
_diffrn_reflns_av_R_equivalents  0.0615
_diffrn_reflns_av_unetI/netI     0.0292
_diffrn_reflns_Laue_measured_fraction_full 0.999
_diffrn_reflns_Laue_measured_fraction_max 0.999
_diffrn_reflns_limit_h_max       7
_diffrn_reflns_limit_h_min       -7
_diffrn_reflns_limit_k_max       10
_diffrn_reflns_limit_k_min       -10
_diffrn_reflns_limit_l_max       20
_diffrn_reflns_limit_l_min       -20
_diffrn_reflns_number            17488
_diffrn_reflns_point_group_measured_fraction_full 0.999
_diffrn_reflns_point_group_measured_fraction_max 0.999
_diffrn_reflns_theta_full        25.242
_diffrn_reflns_theta_max         28.695
_diffrn_reflns_theta_min         2.750
_diffrn_source                   'Rotating-anode X-ray tube'
_diffrn_source_current           55.0
_diffrn_source_power             2.475
_diffrn_source_target            Mo
_diffrn_source_type              'Rigaku (Mo) X-ray Source'
_diffrn_source_voltage           45.0
_exptl_absorpt_coefficient_mu    11.860
_exptl_absorpt_correction_T_max  1.00000
_exptl_absorpt_correction_T_min  0.35899
_exptl_absorpt_correction_type   multi-scan
_exptl_absorpt_process_details
;
CrysAlisPro 1.171.40.84a (Rigaku Oxford Diffraction, 2020)
Empirical absorption correction using spherical harmonics,
implemented in SCALE3 ABSPACK scaling algorithm.
;
_exptl_crystal_colour            brown
_exptl_crystal_colour_primary    brown
_exptl_crystal_density_diffrn    2.169
_exptl_crystal_description       needle
_exptl_crystal_F_000             396
_exptl_crystal_recrystallization_method 'Re-crystallisation from solvent'
_exptl_crystal_size_max          0.2
_exptl_crystal_size_mid          0.08
_exptl_crystal_size_min          0.04
_refine_diff_density_max         2.539
_refine_diff_density_min         -3.229
_refine_diff_density_rms         0.225
_refine_ls_extinction_method     none
_refine_ls_goodness_of_fit_ref   1.059
_refine_ls_hydrogen_treatment    constr
_refine_ls_matrix_type           full
_refine_ls_number_parameters     50
_refine_ls_number_reflns         1882
_refine_ls_number_restraints     0
_refine_ls_restrained_S_all      1.059
_refine_ls_R_factor_all          0.0459
_refine_ls_R_factor_gt           0.0390
_refine_ls_shift/su_max          0.001
_refine_ls_shift/su_mean         0.000
_refine_ls_structure_factor_coef Fsqd
_refine_ls_weighting_details
'w=1/[\s^2^(Fo^2^)+(0.0665P)^2^+2.5737P] where P=(Fo^2^+2Fc^2^)/3'
_refine_ls_weighting_scheme      calc
_refine_ls_wR_factor_gt          0.1029
_refine_ls_wR_factor_ref         0.1089
_reflns_Friedel_coverage         0.000
_reflns_number_gt                1646
_reflns_number_total             1882
_reflns_threshold_expression     'I > 2\s(I)'
_cod_data_source_file            d1dt03980f3.cif
_cod_data_source_block           vg9177-95_2a
_cod_database_code               7709324
_shelx_shelxl_version_number     2018/3
_chemical_oxdiff_formula         'W Se Cl4 C2 N H3'
_shelx_space_group_comment
;
The symmetry employed for this shelxl refinement is uniquely defined
by the following loop, which should always be used as a source of
symmetry information in preference to the above space-group names.
They are only intended as comments.
;
_shelx_estimated_absorpt_t_max   0.648
_shelx_estimated_absorpt_t_min   0.200
_reflns_odcompleteness_completeness 99.95
_reflns_odcompleteness_iscentric 1
_reflns_odcompleteness_theta     28.64
_olex2_refinement_description
;
1. Fixed Uiso
 At 1.5 times of:
  All C(H,H,H) groups
2. Others
 Fixed Sof: H2A(0.5) H2B(0.5) H2C(0.5)
3.a Idealised Me refined as rotating group:
 C2(H2A,H2B,H2C)
;
_smtbx_masks_special_details
;
A solvent mask was calculated and 106 electrons were 
found in a volume of 252\%A^3^ in 1 void per unit cell. 
This is consistent with the presence of 
1.25[C6H6] per Unit Cell 
which account for 105 electrons 
per unit cell.
;
_smtbx_masks_void_probe_radius   1.2
_smtbx_masks_void_truncation_radius 1.2
_shelx_res_file
;
TITL vg9177-95_2a_a.res in P2(1)/m
    vg9177-95_2a.res
    created by SHELXL-2018/3 at 12:14:22 on 12-May-2021
REM Old TITL Vg9177-95_2a in P2(1)/m
REM SHELXT solution in P2(1)/m
REM R1 0.230, Rweak 0.006, Alpha 0.064, Orientation as input
REM Formula found by SHELXT: C4 N2 Cl4 Se W
CELL 0.71073 5.8784 7.8378 14.814 90 88.834 90
ZERR 2 0.0002 0.0004 0.0006 0 0.003 0
LATT 1
SYMM -X,0.5+Y,-Z
SFAC C H Cl N Se W
UNIT 4 6 8 2 2 2

L.S. 10
PLAN  7
SIZE 0.04 0.08 0.2
TEMP -173.15
CONF
BOND $H
list 4
ABIN
fmap 2 53
acta
MORE -1
REM <olex2.extras>
REM <HklSrc "%.\\Vg9177-95_2a.hkl">
REM </olex2.extras>

WGHT    0.066500    2.573700
FVAR       0.36917
W1    6    0.414841    0.750000    0.701152    10.50000    0.00957    0.06856 =
         0.01969    0.00000   -0.00051    0.00000
SE1   5    0.649008    0.750000    0.817811    10.50000    0.01276    0.10318 =
         0.02125    0.00000   -0.00408    0.00000
CL1   3    0.597048    0.539718    0.615870    11.00000    0.02095    0.07551 =
         0.02655   -0.00179    0.00147    0.00815
CL2   3    0.155523    0.546273    0.751622    11.00000    0.02409    0.06703 =
         0.02639    0.00269    0.00167   -0.00553
N1    4    0.179094    0.750000    0.576579    10.50000    0.01044    0.08898 =
         0.02077    0.00000   -0.00534    0.00000
C1    1    0.063214    0.750000    0.514882    10.50000    0.01188    0.05592 =
         0.03426    0.00000    0.00553    0.00000
C2    1   -0.079286    0.750000    0.436991    10.50000    0.01804    0.06925 =
         0.02864    0.00000   -0.00349    0.00000
PART -1
AFIX 137
H2A   2   -0.109141    0.867862    0.418593    10.50000   -1.50000
H2B   2   -0.223578    0.693049    0.451990    10.50000   -1.50000
H2C   2   -0.002145    0.689089    0.387367    10.50000   -1.50000
AFIX   0
HKLF 4




REM  vg9177-95_2a_a.res in P2(1)/m
REM wR2 = 0.1089, GooF = S = 1.059, Restrained GooF = 1.059 for all data
REM R1 = 0.0390 for 1646 Fo > 4sig(Fo) and 0.0459 for all 1882 data
REM 50 parameters refined using 0 restraints

END

WGHT      0.0663      2.5758

REM Highest difference peak  2.539,  deepest hole -3.229,  1-sigma level  0.225
Q1    1   0.4047  0.8026  0.6556  11.00000  0.05    2.54
Q2    1   0.4114  0.6799  0.7443  11.00000  0.05    2.45
Q3    1   0.4224  0.8905  0.6577  11.00000  0.05    1.43
Q4    1   0.4227  0.7500  0.6047  10.50000  0.05    1.32
Q5    1   0.4198  0.5781  0.6809  11.00000  0.05    1.27
Q6    1   0.4256  0.7500  0.7963  10.50000  0.05    1.22
Q7    1   0.4092  0.5978  0.7442  11.00000  0.05    1.19
;
_shelx_res_checksum              86598
_shelx_hkl_file
;
   0   0   2 2690.53   20.10
   0   0  -2 2684.62   22.43
   0   0  -2 2758.09   18.78
   0   0   2 2688.34   17.66
   0   0   2 2651.02   16.67
   0   0  -2 2666.42   16.72
   0   0   3  659.09   35.11
   0   0  -3  664.68   34.78
   0   0   3  693.11   35.61
   0   0  -3  657.15   35.52
   0   0   3  633.89   34.41
   0   0   3  685.00   34.71
   0   0  -3  674.80   34.72
   0   0   3  615.90   34.15
   0   0  -3  625.42   34.22
   0   0   4  191.12   12.82
   0   0  -4  201.08   12.40
   0   0   4  193.94   13.25
   0   0  -4  198.13   13.39
   0   0   4  173.43   11.83
   0   0  -4  189.21   12.09
   0   0   4  196.15   12.22
   0   0  -4  171.00   11.51
   0   0  -5   60.53    6.62
   0   0   5   51.24    7.11
   0   0   5   63.55    7.95
   0   0  -5   51.37    7.53
   0   0   5   66.02    6.76
   0   0  -5   61.98    6.43
   0   0   5   50.63    5.98
   0   0  -5   65.03    5.87
   0   0  -6   21.46    5.77
   0   0   6   25.71    6.84
   0   0  -6   24.01    6.64
   0   0   6   31.82    7.19
   0   0   6   21.94    5.09
   0   0  -6   24.16    5.34
   0   0  -7  816.90   46.68
   0   0  -7  845.87   48.86
   0   0   7  915.22   49.11
   0   0   7  847.78   46.81
   0   0  -7  834.32   47.17
   0   0   7  868.98   46.15
   0   0  -8  409.64   24.73
   0   0  -8  377.05   26.78
   0   0   8  390.77   26.43
   0   0  -8  404.35   25.31
   0   0   8  398.11   24.76
   0   0   8  403.81   23.75
   0   0  -9  877.73   49.46
   0   0   9  922.19   51.89
   0   0  -9  898.71   52.18
   0   0  -9  863.47   50.35
   0   0   9  866.48   49.75
   0   0   9  925.40   48.81
   0   0 -10 1072.44   58.97
   0   0 -10 1049.04   61.77
   0   0  10 1186.97   61.94
   0   0 -10 1063.62   60.11
   0   0  10 1032.97   59.26
   0   0  10 1068.84   58.12
   0   0 -11   21.33    8.06
   0   0 -11   31.51   10.80
   0   0  11   42.78   11.32
   0   0  11   41.28    9.51
   0   0 -11   55.70   10.14
   0   0  11   45.45    9.49
   0   0  11   28.62    7.48
   0   0 -12  195.18   15.98
   0   0  12  190.53   18.39
   0   0 -12  174.92   18.38
   0   0  12  186.56   16.50
   0   0 -12  210.68   17.83
   0   0  12  175.54   16.63
   0   0  12  190.49   14.71
   0   0  13  594.45   40.17
   0   0 -13  533.57   33.84
   0   0  13  523.82   36.66
   0   0 -13  542.90   37.87
   0   0 -13  572.09   36.46
   0   0  13  585.52   35.39
   0   0  13  504.94   34.94
   0   0  13  589.76   33.38
   0   0 -14   44.52    9.81
   0   0  14   37.05   15.03
   0   0 -14   48.73   13.57
   0   0  14   39.19   11.63
   0   0 -14   43.39   11.72
   0   0  14   48.88   11.18
   0   0  14   39.07    8.79
   0   0  15  520.13   38.83
   0   0 -15  464.38   35.45
   0   0  15  503.41   33.52
   0   0 -15  495.56   34.44
   0   0  15  470.97   30.02
   0   0  16  487.93   38.65
   0   0  16  473.62   32.98
   0   0 -16  434.20   33.10
   0   0 -16  467.02   35.07
   0   0  17  365.79   33.62
   0   0 -17  345.81   27.49
   0   0  17  336.70   26.80
   0   0 -17  256.09   27.06
   0   0  18  176.57   26.47
   0   0 -18  176.59   16.37
   0   0 -18  227.57   22.52
   0   0  18  184.34   21.24
   0   0 -19  162.55   16.09
   0   0  19  191.77   28.20
   0   0  19  198.98   22.25
   0   0 -19  221.99   23.02
   0   0  20  184.44   27.66
   0   0 -20  123.90   14.77
   0   0  20  180.98   21.35
   0   0 -20  179.30   21.75
   0   1   0    0.63    0.75
   0  -1   0   -0.44    1.03
   0   1   0   -0.70    1.04
   0  -1   0   -0.26    1.32
   0  -1   0    0.06    0.18
   0   1   0   -0.08    0.83
   0   1   0    0.41    0.77
   0  -1   0   -0.39    0.25
   0   1  -1 4567.93   18.83
   0  -1   1 3890.88   26.82
   0  -1  -1 4414.78   17.98
   0   1   1 4520.28   18.30
   0  -1  -1 4009.31   19.06
   0  -1  -1 4378.12   22.71
   0   1  -1 4370.94   21.53
   0  -1   1 4342.51   21.69
   0   1   1 4206.23   25.64
   0   1   1 4551.71   22.36
   0   1  -1 4088.54   16.39
   0   1  -2  900.48   46.56
   0  -1   2  927.62   46.88
   0   1  -2  941.14   45.28
   0   1   2  922.14   45.16
   0   1   2  881.58   45.20
   0  -1  -2  914.81   45.17
   0  -1   2  897.83   45.19
   0   1   2  841.14   45.37
   0  -1  -2  850.06   45.46
   0  -1   2  854.21   45.42
   0  -1  -2  853.95   45.60
   0   1   2  862.61   45.64
   0   1  -2  902.94   45.65
   0   1  -2  847.67   45.36
   0  -1   2  873.39   45.57
   0  -1  -3 1856.77   90.82
   0  -1   3 1840.55   92.85
   0   1  -3 1877.61   90.93
   0   1  -3 1822.38   92.35
   0   1   3 1803.39   90.95
   0   1   3 1800.80   91.37
   0   1   3 1784.09   90.73
   0  -1  -3 1878.07   91.71
   0  -1   3 1921.48   91.61
   0   1  -3 1813.27   91.07
   0  -1   3 1786.34   91.23
   0   1   3 1720.95   91.35
   0   1  -3 1732.39   91.35
   0  -1   3 1775.33   91.14
   0  -1  -3 1598.50   91.24
   0  -1  -3 1672.35   90.74
   0  -1   4  429.83   23.95
   0  -1  -4  403.97   21.29
   0   1  -4  403.05   22.98
   0  -1   4  409.53   22.41
   0   1   4  397.79   22.21
   0  -1  -4  397.07   22.83
   0  -1   4  392.39   21.77
   0  -1   4  386.97   21.63
   0   1  -4  383.91   21.89
   0  -1  -4  402.29   22.03
   0   1  -4  369.76   21.46
   0   1   4  386.69   21.96
   0  -1  -4  356.59   21.17
   0  -1   5    7.88    5.58
   0   1  -5    9.21    4.84
   0  -1  -5    0.89    3.17
   0  -1   5   13.31    4.87
   0  -1  -5    4.12    5.13
   0   1  -5    6.40    4.15
   0   1   5   13.61    4.98
   0   1  -5    8.00    3.62
   0  -1   5    6.10    3.37
   0   1   5    9.43    4.19
   0   1  -5    6.16    3.69
   0  -1  -5    6.60    3.99
   0  -1  -5    6.88    3.22
   0   1  -6  518.31   32.12
   0  -1  -6  557.08   30.70
   0  -1   6  576.91   33.87
   0   1  -6  513.88   32.15
   0  -1  -6  572.58   30.26
   0  -1   6  572.88   32.60
   0   1   6  552.06   32.11
   0  -1  -6  518.06   33.13
   0   1  -6  552.26   31.03
   0   1  -6  570.09   31.60
   0  -1  -6  564.34   31.75
   0  -1   6  562.73   31.17
   0  -1  -6  571.94   30.84
   0   1  -7  775.84   45.94
   0  -1   7  866.99   48.31
   0  -1  -7  875.71   44.72
   0  -1  -7  784.03   47.59
   0  -1   7  788.54   46.54
   0  -1  -7  856.79   44.08
   0   1  -7  714.02   45.90
   0   1   7  811.97   46.15
   0  -1  -7  873.17   45.94
   0  -1   7  785.60   45.00
   0   1  -7  834.25   45.60
   0   1   7  823.63   44.00
   0  -1  -7  867.04   44.84
   0  -1   7  810.38   44.52
   0   1  -8  619.96   37.60
   0  -1  -8  706.89   36.47
   0  -1   8  624.51   39.98
   0  -1  -8  675.95   35.76
   0  -1  -8  623.85   39.66
   0   1   8  605.08   37.86
   0  -1   8  657.60   38.84
   0   1  -8  537.82   37.56
   0   1  -8  599.37   37.10
   0   1   8  640.51   37.18
   0  -1  -8  660.87   37.75
   0  -1   8  632.72   36.88
   0  -1  -8  690.23   36.67
   0   1   8  656.90   35.64
   0  -1   8  696.86   36.50
   0  -1  -9 1519.93   74.53
   0   1  -9 1336.78   75.62
   0   1   9 1397.01   76.41
   0   1  -9 1224.45   76.18
   0  -1  -9 1421.59   73.74
   0  -1   9 1412.83   77.15
   0  -1  -9 1447.02   76.06
   0   1  -9 1313.16   75.49
   0  -1   9 1342.58   75.05
   0   1   9 1369.36   75.42
   0  -1  -9 1531.24   75.08
   0   1   9 1389.55   73.71
   0  -1   9 1432.17   74.38
   0   1 -10  201.71   17.05
   0  -1 -10  228.67   15.92
   0   1  10  205.96   17.73
   0  -1 -10  226.88   15.06
   0  -1  10  225.63   18.89
   0   1 -10  190.84   17.66
   0   1  10  230.21   17.37
   0  -1  10  226.78   16.97
   0  -1 -10  221.84   17.51
   0   1 -10  193.40   16.81
   0  -1  10  214.05   16.82
   0   1  10  214.01   14.91
   0  -1  10  220.04   15.61
   0  -1 -10  209.87   16.09
   0   1  11  928.82   55.81
   0  -1 -11  983.00   52.46
   0   1 -11  879.34   53.32
   0  -1  11  910.04   55.39
   0  -1 -11  976.48   51.83
   0   1 -11  904.13   55.45
   0   1  11  959.89   54.87
   0  -1 -11  986.48   54.75
   0   1  11  957.42   53.86
   0  -1  11  970.16   53.76
   0   1 -11  939.49   54.36
   0   1  11  947.37   53.82
   0  -1  11  923.24   53.69
   0   1  11  969.11   51.82
   0  -1  11  926.07   52.27
   0  -1 -11  961.17   53.13
   0   1 -12   26.86    9.14
   0  -1 -12   34.33    8.18
   0   1  12   24.68   11.82
   0  -1  12   24.93    7.51
   0  -1  12   23.46   11.09
   0   1 -12   45.67   11.06
   0   1  12   33.99   10.73
   0  -1 -12   31.71    7.19
   0  -1  12   26.15    9.34
   0   1  12   23.38    9.52
   0  -1  12   20.25    8.59
   0   1  12   37.06    9.73
   0   1 -12   38.08    9.74
   0   1  12   21.16    6.73
   0  -1 -12   28.04    9.53
   0  -1  13   24.18    8.31
   0   1  13   34.81   12.61
   0  -1 -13   26.53    8.46
   0   1 -13   12.04    9.29
   0  -1  13   30.48   12.22
   0   1  13   30.54   11.28
   0  -1 -13   28.55    7.72
   0   1 -13   46.43   12.14
   0  -1  13   23.81    9.81
   0   1  13   33.83   10.23
   0  -1  13   24.17    9.61
   0  -1 -13   30.15   10.73
   0   1  13   24.97    7.55
   0   1 -13   22.99    9.71
   0   1  13   23.22   10.00
   0   1  14  277.25   26.24
   0   1 -14  270.64   20.26
   0  -1 -14  300.76   21.12
   0  -1 -14  318.33   20.61
   0  -1  14  254.31   22.55
   0   1 -14  254.05   22.85
   0   1  14  290.18   23.31
   0  -1 -14  287.13   23.66
   0  -1  14  291.25   22.48
   0   1  14  326.40   23.16
   0  -1  14  305.29   21.03
   0   1  14  316.97   20.40
   0  -1  15  105.59   20.61
   0   1  15   66.25   17.04
   0  -1 -15   74.79   10.73
   0   1 -15   70.75   10.53
   0   1  15   77.24   14.11
   0  -1  15   85.12   14.29
   0  -1  15   85.41   11.48
   0  -1 -15   77.88   14.40
   0   1 -15   85.89   14.52
   0  -1  16  622.96   47.96
   0   1  16  700.88   46.23
   0   1 -16  580.40   37.50
   0  -1 -16  655.73   38.16
   0  -1 -16  652.01   42.54
   0   1  16  648.10   41.17
   0   1 -16  623.98   41.82
   0  -1  16  660.65   41.73
   0   1 -17  176.98   16.07
   0   1  17  203.31   25.46
   0  -1  17  198.30   27.44
   0   1  17  208.93   20.85
   0  -1  17  176.13   19.86
   0  -1 -17  205.43   21.27
   0   1 -17  179.42   20.54
   0  -1  18  325.06   33.87
   0   1  18  293.23   30.88
   0   1 -18  264.06   21.17
   0   1 -18  301.84   26.95
   0  -1 -18  320.00   27.43
   0  -1  18  307.43   26.21
   0   1  18  298.77   25.79
   0  -1  19  191.17   27.67
   0   1  19  112.76   24.32
   0   1 -19  125.69   14.30
   0  -1  19  136.18   18.98
   0   1  19  138.98   19.18
   0  -1 -19  135.38   19.90
   0   1 -19  156.25   20.37
   0  -2   0 2453.39  122.90
   0   2   0 2283.96  122.89
   0  -2   0 2561.58  124.11
   0   2   0 2359.50  123.24
   0   2   0 2435.06  122.99
   0  -2   0 2481.18  123.07
   0  -2   0 2534.00  122.95
   0   2  -1    7.67    4.08
   0   2  -1    9.74    1.90
   0  -2   1    8.60    1.83
   0   2   1    8.28    1.78
   0   2   1    8.51    2.37
   0  -2  -1    6.78    3.22
   0  -2   1   11.46    3.02
   0   2   1    7.99    2.11
   0  -2  -1    9.73    1.93
   0  -2  -1    8.88    2.12
   0   2   2  675.61   34.37
   0   2  -2  678.81   34.43
   0   2  -2  669.88   36.75
   0  -2   2  630.22   36.58
   0  -2   2  706.75   34.44
   0   2   2  598.88   34.42
   0  -2   2  655.68   35.01
   0  -2  -2  641.24   35.15
   0  -2   2  730.65   35.27
   0  -2  -2  717.40   35.04
   0   2   2  671.96   35.13
   0  -2   2  627.18   34.06
   0  -2   3    6.21    4.50
   0   2  -3    3.40    4.63
   0   2   3    5.91    2.78
   0   2   3    2.49    2.20
   0   2  -3    8.58    2.33
   0  -2   3    1.90    2.05
   0  -2   3    2.42    2.58
   0   2   3    5.19    3.45
   0  -2  -3    8.33    3.05
   0  -2   3    4.07    1.62
   0  -2  -3    4.56    3.14
   0  -2   3    3.21    2.98
   0   2   4   80.34    5.90
   0  -2   4   85.44    9.20
   0   2  -4   80.77    8.49
   0   2  -4   88.09    6.25
   0   2   4   72.05    6.30
   0   2   4   80.76    7.09
   0   2  -4   81.74    6.88
   0  -2  -4   71.21    6.73
   0  -2   4   80.81    6.44
   0  -2  -4   81.38    6.86
   0  -2  -5 1391.43   67.55
   0  -2   5 1465.66   72.24
   0   2  -5 1328.92   68.03
   0  -2  -5 1280.75   67.61
   0   2  -5 1304.84   70.23
   0   2   5 1272.92   67.61
   0   2   5 1324.63   68.44
   0  -2   5 1328.85   68.45
   0  -2  -5 1256.53   68.68
   0   2  -5 1349.67   68.90
   0   2   5 1304.90   68.85
   0   2  -5 1265.48   66.98
   0   2  -6 1325.95   75.49
   0  -2  -6 1455.94   73.07
   0  -2   6 1572.41   78.26
   0  -2  -6 1491.61   72.87
   0   2   6 1369.55   73.99
   0  -2   6 1469.55   74.08
   0   2  -6 1487.85   74.61
   0   2   6 1390.34   74.32
   0  -2  -6 1341.94   74.16
   0  -2  -6 1281.72   72.95
   0  -2  -7 1375.41   70.80
   0   2  -7 1237.18   73.14
   0  -2  -7 1456.04   70.71
   0  -2   7 1434.55   76.25
   0   2   7 1289.39   71.94
   0  -2  -7 1304.16   72.19
   0   2  -7 1375.14   72.45
   0  -2   7 1397.82   72.00
   0  -2  -7 1320.23   71.03
   0  -2  -8 3427.60  162.36
   0  -2  -8 3300.50  162.50
   0  -2   8 3385.98  168.68
   0   2  -8 2962.75  164.77
   0   2   8 3028.59  163.85
   0  -2   8 3178.42  163.80
   0   2  -8 3143.23  164.28
   0  -2  -8 2937.72  163.88
   0  -2  -8 3140.34  162.91
   0   2   9   79.42   10.82
   0   2  -9   96.85   11.80
   0  -2  -9   92.33    9.14
   0  -2   9   93.26   14.48
   0  -2  -9  103.19    9.05
   0   2   9   90.60   10.84
   0  -2   9  103.99   10.52
   0  -2   9   96.70   10.30
   0   2  -9  109.12   11.27
   0  -2  -9   99.25   11.20
   0  -2  -9   91.11    9.84
   0   2 -10 1000.28   66.30
   0  -2  10 1231.21   73.70
   0  -2 -10 1405.23   67.37
   0   2 -10 1196.42   69.48
   0  -2 -10 1385.60   66.94
   0   2  10 1368.57   69.85
   0   2  10 1232.28   68.86
   0  -2  10 1298.62   68.30
   0  -2  10 1215.99   68.45
   0   2 -10 1251.78   69.30
   0  -2 -10 1238.14   69.35
   0  -2 -10 1345.88   68.21
   0  -2  10 1249.43   67.60
   0  -2  11   19.64    6.64
   0   2 -11   14.03    8.37
   0  -2 -11    4.93    6.44
   0  -2 -11    6.64    6.78
   0   2  11   12.54    9.49
   0  -2 -11   14.67    6.02
   0   2 -11    5.16    5.63
   0   2  11   12.93    8.66
   0  -2  11    7.71    7.11
   0   2  11   15.57    8.04
   0  -2 -11    7.26    8.39
   0   2 -11    8.64    7.78
   0  -2  11   17.57    7.37
   0   2 -12  189.19   17.07
   0   2 -12  227.60   20.11
   0   2  12  249.87   21.62
   0  -2 -12  290.03   18.44
   0  -2 -12  307.76   18.08
   0   2  12  261.41   20.80
   0  -2 -12  260.60   20.70
   0  -2  12  257.85   19.96
   0   2  12  259.53   20.16
   0   2 -12  217.26   19.69
   0   2  12  238.64   19.98
   0  -2  12  276.06   19.69
   0  -2 -12  302.36   19.76
   0  -2  12  265.62   18.72
   0  -2  13   17.23    7.79
   0  -2 -13   21.75    8.70
   0   2 -13   13.59    9.51
   0   2  13   34.87   12.26
   0  -2 -13   23.76    7.89
   0  -2 -13   16.88    6.93
   0   2 -13   23.65    7.18
   0   2  13   28.06   10.62
   0   2  13   26.01    9.83
   0  -2  13   30.05    9.34
   0   2 -13   27.85    9.66
   0  -2 -13   21.75   10.30
   0   2  13   27.87   10.07
   0  -2  13   20.28    8.52
   0  -2 -14  198.92   14.38
   0   2 -14  139.07   13.71
   0   2  14  183.86   19.84
   0  -2  14  142.90   16.38
   0   2  14  136.73   16.45
   0   2 -14  153.66   16.97
   0  -2 -14  183.58   16.07
   0  -2 -14  163.87   17.48
   0  -2  14  142.54   14.35
   0   2  15  432.78   32.54
   0  -2 -15  459.67   26.35
   0   2 -15  337.53   25.57
   0  -2 -15  421.55   30.19
   0  -2  15  405.65   29.29
   0   2  15  394.01   29.21
   0   2 -15  417.68   30.23
   0   2  16    2.49   13.58
   0  -2  16    1.21   17.63
   0  -2 -16   11.00    7.98
   0  -2 -16    3.12   13.38
   0   2 -16   -0.38    8.26
   0   2  16   13.98   11.56
   0  -2  16   10.06   11.59
   0   2 -16    9.72   11.52
   0  -2 -16   -8.01   12.40
   0   2  17  484.08   37.30
   0   2 -17  471.38   30.13
   0  -2  17  476.05   42.10
   0  -2 -17  429.30   35.63
   0  -2  17  459.01   33.83
   0  -2 -17  501.76   34.89
   0   2  17  461.18   33.29
   0   2 -17  440.34   34.12
   0   2  18  151.16   23.25
   0   2 -18  149.80   15.20
   0  -2  18  113.14   26.05
   0  -2 -18  129.93   21.40
   0   2  18  146.11   19.00
   0  -2  18  142.70   19.11
   0   2 -18  152.37   19.72
   0  -2 -18  188.49   20.98
   0   2  19   95.30   22.00
   0  -2  19   89.07   24.71
   0   2 -19   75.28   13.08
   0  -2 -19   72.29   18.35
   0  -2  19  106.24   17.57
   0   2  19   93.09   17.00
   0   2 -19   73.05   17.24
   0  -2 -19   83.25   17.56
   0   3   0    2.91    2.33
   0  -3   0   -0.98    2.05
   0  -3   0   -0.10    2.38
   0   3   1  824.27   44.04
   0  -3   1  861.97   44.01
   0   3  -1  793.82   44.01
   0   3   1  831.16   44.27
   0  -3  -1  813.91   45.93
   0  -3   1  886.18   45.53
   0   3   1  817.16   44.72
   0  -3  -1  931.49   44.32
   0  -3  -1  911.85   44.48
   0   3  -2   13.08    5.48
   0  -3   2   22.59    3.29
   0   3  -2   20.64    3.12
   0   3   2   25.42    3.25
   0   3   2   16.13    3.82
   0  -3  -2   23.64    5.00
   0  -3   2   27.70    4.71
   0   3   2   24.60    4.21
   0  -3   2   19.22    2.71
   0  -3  -2   21.76    3.78
   0  -3  -2   28.77    3.47
   0   3  -3  493.48   26.27
   0   3   3  508.22   26.24
   0  -3   3  489.28   26.12
   0   3  -3  494.15   29.67
   0  -3   3  467.82   29.70
   0  -3  -3  501.85   25.91
   0   3   3  444.95   26.27
   0  -3   3  498.45   27.20
   0  -3  -3  473.19   27.40
   0  -3  -3  528.19   27.10
   0  -3  -3  514.59   26.67
   0  -3   3  467.91   25.65
   0   3  -3  475.40   25.65
   0   3  -4  503.31   30.33
   0   3  -4  493.35   27.00
   0  -3   4  492.95   26.69
   0  -3  -4  532.44   26.61
   0  -3   4  449.25   30.04
   0   3   4  523.18   26.91
   0   3   4  445.21   26.95
   0  -3  -4  479.62   28.06
   0  -3   4  521.38   27.96
   0  -3  -4  538.52   28.06
   0  -3   4  476.78   26.16
   0   3  -5   57.72    8.88
   0   3  -5   53.79    5.67
   0  -3   5   54.66    8.69
   0  -3  -5   56.69    4.96
   0  -3   5   50.12    5.31
   0   3   5   46.70    5.35
   0   3   5   40.36    5.89
   0  -3   5   53.66    6.36
   0   3   5   48.73    6.95
   0  -3  -5   48.56    6.70
   0   3  -5   51.88    4.47
   0  -3  -5   54.36    6.54
   0   3  -6  850.20   49.62
   0   3  -6  903.82   46.94
   0  -3   6  900.17   51.91
   0  -3  -6  918.83   46.03
   0   3   6  802.61   46.79
   0   3   6  922.89   46.53
   0  -3  -6  777.47   47.50
   0  -3   6  929.31   47.69
   0   3   6  878.37   47.93
   0   3  -6  898.51   47.91
   0  -3  -6  829.07   47.69
   0   3  -6  870.12   45.49
   0   3  -7 1762.84   97.35
   0   3   7 1827.42   94.64
   0  -3  -7 1977.41   93.87
   0  -3   7 1998.30  101.12
   0   3   7 1868.23   94.16
   0  -3  -7 1732.90   96.10
   0   3   7 1799.20   94.87
   0  -3   7 1956.12   95.66
   0  -3  -7 1765.00   95.65
   0   3  -7 1900.50   95.99
   0   3  -7 1664.90   94.47
   0   3   7 1835.78   95.91
   0  -3  -7 1745.06   94.23
   0   3  -7 1784.84   93.10
   0   3   8  294.02   19.03
   0  -3   8  339.88   25.95
   0  -3  -8  312.48   17.94
   0   3  -8  299.53   21.83
   0  -3  -8  279.67   21.08
   0   3   8  291.60   19.44
   0   3  -8  301.62   20.35
   0  -3   8  313.97   19.94
   0  -3  -8  269.40   19.90
   0  -3   8  315.66   19.74
   0   3  -8  284.71   18.76
   0   3  -8  308.28   17.14
   0  -3  -8  274.11   18.33
   0  -3   9 2078.47  104.80
   0  -3  -9 1994.44   95.89
   0  -3  -9 1988.76   95.58
   0   3   9 1928.77   97.31
   0   3  -9 1714.25   98.86
   0  -3  -9 1606.86   98.73
   0   3   9 1748.64   96.89
   0   3  -9 1829.00   98.05
   0  -3   9 1861.15   97.19
   0   3  -9 1729.77   96.24
   0  -3   9 1916.75   97.74
   0  -3  -9 1711.64   97.58
   0  -3  -9 1820.30   96.34
   0  -3  -9 1840.35   97.60
   0   3  -9 1835.50   94.59
   0  -3  10   59.89   14.13
   0  -3 -10   36.57    7.12
   0   3  10   55.90    9.63
   0   3 -10   42.84   10.72
   0  -3 -10   61.94    7.23
   0  -3 -10   35.93   11.01
   0   3  10   38.68    9.20
   0   3 -10   38.97    7.85
   0  -3  10   55.63    9.33
   0  -3 -10   42.88    8.21
   0  -3 -10   50.39    8.68
   0   3 -10   57.80    6.06
   0   3 -10   73.00   10.50
   0  -3 -10   47.51    9.74
   0  -3  10   50.22    8.64
   0   3 -11  435.15   32.69
   0   3  11  645.41   36.05
   0   3 -11  497.86   35.70
   0  -3  11  617.38   42.58
   0  -3 -11  625.42   33.38
   0  -3 -11  651.86   32.86
   0   3  11  528.29   34.60
   0  -3 -11  482.70   36.86
   0  -3 -11  575.64   35.87
   0   3 -11  535.56   35.56
   0  -3  11  603.27   35.39
   0   3 -11  543.58   33.76
   0  -3  11  613.52   34.72
   0   3 -11  575.09   31.45
   0  -3 -11  604.62   35.12
   0  -3 -11  627.08   34.54
   0   3  12   -0.51    9.42
   0  -3 -12    9.52    7.77
   0  -3  12   -4.62    7.12
   0  -3  12   -9.13   14.35
   0   3 -12    4.96   10.18
   0  -3 -12   10.72    6.76
   0  -3  12    5.66    9.13
   0  -3 -12    7.40    6.01
   0   3  12    0.44    9.36
   0  -3 -12   -7.45   10.76
   0   3 -12    2.71    6.25
   0   3 -12   11.91    7.64
   0  -3  12   -1.93    7.84
   0   3 -12    2.71    8.84
   0  -3 -12   19.37    8.09
   0   3  12    6.82    9.39
   0   3 -12    4.48    4.94
   0  -3  12    0.42    7.43
   0  -3 -12   -2.65    9.07
   0   3 -13  101.71   12.25
   0  -3 -13  163.22   13.26
   0   3  13  165.15   16.85
   0  -3 -13  160.42   12.25
   0  -3 -13  106.88   17.24
   0  -3  13  150.37   14.56
   0   3  13  106.80   14.43
   0  -3  13  125.20   14.62
   0  -3 -13  155.88   14.72
   0   3 -13  125.65   10.46
   0  -3 -13  138.37   13.86
   0  -3  13  137.30   13.50
   0  -3 -13  137.54   15.64
   0   3 -13  128.00   15.34
   0   3  14   58.32   14.53
   0  -3 -14   82.40   12.07
   0  -3 -14  117.08   10.55
   0  -3 -14   64.10   15.25
   0   3 -14   68.87   10.78
   0  -3  14   93.75   13.47
   0   3  14   60.01   13.10
   0   3 -14   88.42   14.10
   0   3 -14   84.81    8.53
   0  -3 -14  111.94   14.78
   0  -3 -14   84.47   11.93
   0   3  15   35.13   13.57
   0  -3 -15   21.66    9.48
   0  -3 -15   25.11    8.10
   0   3 -15   13.09    8.60
   0  -3 -15   11.74   13.47
   0  -3  15    6.70   10.31
   0   3  15    5.02   11.22
   0   3 -15   18.77    5.98
   0  -3 -15   10.29   11.46
   0   3 -15   12.14   11.22
   0   3 -16  486.16   31.85
   0   3  16  503.02   37.60
   0  -3 -16  611.83   31.24
   0  -3 -16  412.70   36.42
   0   3 -16  434.98   35.13
   0   3  16  457.09   34.46
   0  -3  16  515.80   35.30
   0  -3 -16  520.26   35.84
   0   3 -16  476.21   28.87
   0  -3 -16  528.09   33.57
   0   3  17   46.61   17.60
   0   3 -17   48.79   11.65
   0  -3 -17   52.03   16.45
   0  -3  17   65.82   14.99
   0   3  17   68.41   14.89
   0  -3 -17   71.76   15.67
   0   3 -17   35.98   14.19
   0   3 -17   70.96    8.79
   0  -3  18  186.22   31.48
   0   3 -18  231.45   19.38
   0   3  18  217.23   25.86
   0  -3 -18  187.97   24.39
   0   3  18  218.95   22.67
   0  -3 -18  267.96   24.88
   0  -3  18  229.23   23.20
   0   3 -18  197.31   23.42
   0   3 -18  222.10   15.86
   0  -3  19   96.72   27.01
   0   3  19  127.01   22.25
   0  -3 -19   75.00   18.87
   0   3 -19   80.87   13.24
   0   3  19   86.38   16.72
   0  -3  19   93.11   17.19
   0   3 -19   75.33   17.66
   0   3 -19   85.29   10.00
   0  -3 -19   59.27   17.21
   0   4   0 3006.26  158.63
   0  -4   0 3229.99  159.07
   0   4   0 3300.74  160.39
   0  -4   0 3099.43  160.98
   0  -4   0 3120.48  158.55
   0  -4   0 3099.05  158.69
   0   4  -1  176.13   12.58
   0   4   1  212.14   12.87
   0  -4  -1  238.82   13.84
   0  -4   1  208.61   13.40
   0  -4   1  212.56   15.11
   0   4   1  278.55   16.15
   0   4  -1  208.58   14.15
   0  -4  -1  257.76   16.89
   0  -4  -1  224.25   12.98
   0  -4  -1  207.94   13.02
   0   4  -2 1082.22   56.88
   0   4   2 1074.31   56.85
   0  -4  -2 1135.23   56.60
   0  -4  -2 1045.33   57.08
   0   4   2 1092.11   57.08
   0   4   2 1097.39   58.90
   0   4  -2 1173.99   58.12
   0  -4   2 1141.34   58.77
   0  -4  -2 1153.22   57.15
   0   4  -2 1063.42   57.08
   0  -4  -2 1146.88   57.38
   0   4  -2 1090.32   56.68
   0  -4   2 1026.01   56.37
   0   4   2 1074.43   58.01
   0  -4  -3  115.89    7.95
   0   4  -3  115.25    8.49
   0   4   3  128.39    8.54
   0  -4   3  127.74    8.44
   0  -4  -3   99.82    8.92
   0   4   3  116.09    8.93
   0  -4   3  140.31   10.34
   0  -4  -3  119.10   10.48
   0   4  -3  112.48    9.19
   0   4   3   95.87   10.57
   0  -4   3  110.07    7.74
   0  -4  -3  135.38    8.99
   0   4   3  100.45    9.44
   0   4  -3  118.35    7.94
   0   4  -3  117.17    8.34
   0  -4  -3  129.03    9.29
   0  -4   4   13.01    7.95
   0   4   4   27.71    4.50
   0   4  -4   18.23    4.19
   0  -4  -4   29.22    4.05
   0  -4  -4   18.50    5.08
   0   4   4   18.65    5.05
   0  -4   4   22.67    4.15
   0   4  -4   22.07    5.04
   0  -4   4   26.90    6.09
   0  -4  -4   30.84    5.47
   0   4  -4   26.36    3.57
   0  -4  -4   25.33    5.07
   0   4  -4   25.11    3.94
   0  -4  -4   24.08    6.34
   0  -4   4   27.01    3.74
   0   4  -5  236.91   18.73
   0  -4  -5  243.06   14.13
   0   4  -5  222.41   14.72
   0   4   5  244.17   14.86
   0   4   5  248.86   14.67
   0  -4   5  246.15   14.52
   0  -4   5  241.29   19.76
   0  -4  -5  221.69   15.34
   0   4   5  224.92   14.91
   0  -4  -5  201.55   15.90
   0  -4   5  225.83   15.93
   0   4  -5  243.37   15.29
   0  -4   5  231.41   13.72
   0  -4  -5  245.09   15.81
   0   4  -5  236.08   13.66
   0  -4  -5  252.33   15.48
   0   4   6   89.77    7.73
   0   4  -6   79.00    7.78
   0  -4  -6   87.82    7.05
   0  -4   6   63.78   11.64
   0   4   6   93.93    7.96
   0   4  -6   98.25   11.99
   0  -4  -6   71.12    8.76
   0   4   6   73.19    8.12
   0  -4   6   78.70    8.80
   0   4  -6   79.12    8.00
   0  -4  -6   74.18    9.12
   0  -4  -6  101.88    9.32
   0  -4  -7  409.64   21.77
   0   4   7  368.97   22.50
   0  -4   7  332.12   26.83
   0   4  -7  347.63   26.07
   0   4  -7  382.58   22.73
   0   4   7  360.66   22.72
   0  -4   7  370.07   23.40
   0   4   7  402.32   22.46
   0  -4  -7  343.90   23.69
   0   4   7  401.25   24.45
   0   4  -7  390.00   22.98
   0  -4   7  401.92   23.92
   0  -4  -7  355.15   23.96
   0  -4   7  416.28   24.36
   0   4  -7  375.35   21.18
   0  -4   8  403.78   30.71
   0   4   8  444.70   25.66
   0   4  -8  405.14   28.88
   0  -4  -8  469.94   24.41
   0  -4   8  400.53   26.31
   0   4   8  459.00   25.12
   0  -4  -8  397.77   27.06
   0   4   8  425.06   25.76
   0  -4   8  414.40   26.16
   0  -4  -8  418.55   27.02
   0   4  -8  428.08   25.48
   0  -4   8  432.11   26.82
   0   4  -8  412.43   23.67
   0  -4  -8  407.05   25.18
   0  -4   9  294.49   25.76
   0  -4  -9  294.45   17.32
   0   4   9  285.43   19.00
   0   4  -9  254.45   21.71
   0  -4  -9  242.14   20.68
   0   4   9  262.37   18.91
   0  -4   9  269.93   19.82
   0  -4   9  286.25   19.51
   0  -4  -9  260.65   20.23
   0   4  -9  293.24   18.71
   0  -4   9  288.54   20.03
   0  -4  -9  269.93   18.30
   0   4  -9  277.85   16.58
   0  -4  -9  287.35   19.81
   0  -4 -10  533.85   28.59
   0   4  10  547.73   30.73
   0   4 -10  454.33   33.00
   0  -4  10  540.11   38.85
   0  -4  10  434.18   31.00
   0  -4 -10  425.63   32.35
   0   4  10  487.26   30.53
   0   4 -10  466.68   29.79
   0  -4 -10  471.09   31.60
   0  -4  10  513.66   30.97
   0   4 -10  502.19   31.87
   0  -4  10  554.63   31.97
   0  -4 -10  535.97   31.40
   0  -4 -10  494.24   29.77
   0   4 -10  496.33   27.66
   0   4  11   -1.64    8.47
   0   4 -11   -6.96   10.76
   0  -4  11   -5.15   13.71
   0  -4 -11  -11.60   10.58
   0  -4 -11    4.45    5.59
   0   4  11    3.08    8.29
   0  -4  11   -6.95    8.80
   0   4 -11    6.17    7.00
   0  -4  11    2.79    8.07
   0  -4  11   -2.83    7.76
   0   4 -11   -6.06    4.81
   0  -4 -11    3.92    8.84
   0  -4 -11    1.69    7.47
   0  -4 -11    1.77    7.22
   0   4 -11    7.00    8.65
   0   4 -12  126.46   13.61
   0   4  12  159.44   15.39
   0  -4 -12  171.44   12.51
   0  -4  12  165.56   23.04
   0  -4 -12  145.14   17.80
   0   4  12  164.23   15.64
   0  -4  12  193.59   15.43
   0   4 -12  135.34   14.00
   0  -4  12  185.59   16.19
   0   4 -12  161.36   16.48
   0   4 -12  142.36   11.20
   0  -4 -12  146.16   14.92
   0  -4 -12  159.14   14.63
   0  -4 -12  150.70   16.43
   0  -4 -13  107.36   10.37
   0  -4  13  100.23   20.70
   0  -4 -13  123.13   13.30
   0   4  13  112.82   14.50
   0   4 -13   69.63   10.94
   0  -4 -13  106.57   16.79
   0  -4  13   70.93   13.01
   0   4 -13  111.45   14.62
   0  -4 -13  102.76   14.89
   0   4 -13  105.99    9.03
   0   4  14    7.79   10.93
   0  -4 -14    5.16    9.11
   0  -4 -14    1.13    6.52
   0  -4 -14   -3.85   12.76
   0   4 -14   -2.41    7.69
   0  -4  14   -2.96   10.00
   0   4 -14    2.82    5.27
   0  -4 -14  -10.15   11.39
   0   4 -14   17.76   10.45
   0  -4 -15  316.67   19.52
   0   4 -15  230.64   20.17
   0   4  15  303.58   25.44
   0  -4 -15  247.12   26.07
   0  -4  15  280.81   23.61
   0   4 -15  225.98   23.31
   0  -4 -15  316.01   25.35
   0   4 -15  266.42   17.61
   0  -4 -15  299.22   22.28
   0  -4 -16   76.56   13.50
   0   4  16  110.25   18.07
   0  -4 -16   98.36   18.14
   0   4 -16   72.69   12.15
   0  -4  16   88.42   15.13
   0  -4 -16   76.10   16.02
   0   4 -16   70.66    8.75
   0   4 -16   90.99   15.52
   0  -4 -17   96.25   15.39
   0   4  17   83.75   19.13
   0   4 -17  130.96   14.67
   0  -4 -17  119.35   20.75
   0  -4  17  131.30   17.78
   0   4 -17  118.76   10.78
   0   4 -17  122.85   18.30
   0  -4 -17  145.40   19.13
   0   4  18   91.55   19.94
   0  -4 -18   93.17   14.98
   0  -4 -18   65.59   18.72
   0   4 -18   88.68   13.43
   0  -4  18   69.21   16.24
   0   4 -18   62.96   16.60
   0   4 -18   74.84    9.14
   0  -4 -18  107.11   17.72
   0  -5   0    9.53    4.28
   0   5   0    6.76    4.62
   0  -5   0   88.73    8.01
   0  -5   0  122.62   12.22
   0   5   0   86.15   10.25
   0  -5   0    1.34    4.14
   0  -5  -1 1789.17   88.46
   0   5   1 1647.65   88.68
   0   5  -1 1656.43   88.69
   0  -5   1 1745.03   89.18
   0  -5  -1 1707.16   89.10
   0  -5   1 1731.04   91.38
   0  -5  -1 1638.81   91.82
   0   5  -1 1812.70   90.39
   0   5   1 1778.27   90.78
   0  -5  -1 1771.36   88.75
   0   5  -1 1635.94   89.41
   0  -5  -1 1738.93   88.90
   0   5  -2  214.01   15.08
   0  -5  -2  262.45   14.95
   0   5   2  260.77   15.39
   0  -5   2  242.69   15.67
   0  -5  -2  233.17   16.01
   0  -5   2  242.55   17.79
   0   5  -2  257.88   16.84
   0  -5  -2  269.83   15.63
   0   5  -2  244.44   15.81
   0  -5   2  220.42   14.55
   0   5  -2  237.30   15.04
   0  -5  -2  268.36   15.84
   0   5   3  279.89   16.67
   0   5  -3  257.21   16.63
   0  -5  -3  289.31   16.22
   0   5   3  255.81   16.95
   0  -5  -3  250.11   16.92
   0  -5  -3  289.32   19.11
   0   5   3  293.47   19.46
   0  -5   3  263.86   18.66
   0   5  -3  291.29   17.93
   0   5  -3  273.61   16.96
   0  -5  -3  296.47   17.26
   0   5  -3  288.17   16.36
   0  -5  -3  287.07   17.29
   0   5   3  246.68   17.89
   0  -5   3  266.02   15.92
   0  -5   4  129.24    9.55
   0   5  -4  120.86    9.71
   0   5   4  134.60    9.96
   0  -5  -4  139.99    9.25
   0  -5  -4  113.19   10.38
   0   5   4  118.58   10.42
   0  -5   4  119.84   11.69
   0   5   4  138.60   12.87
   0   5  -4  131.44   10.69
   0  -5  -4  127.30   12.39
   0  -5  -4  144.79   10.61
   0  -5   4  127.84    8.93
   0   5  -4  141.98    9.39
   0   5  -4  119.49    9.69
   0  -5  -4  149.98   10.86
   0  -5   5   -2.01   10.51
   0   5   5    3.54    4.82
   0   5  -5    2.54    4.73
   0  -5  -5    0.99    5.72
   0   5   5   -2.30    4.68
   0  -5   5    3.84    4.22
   0  -5  -5    2.38    3.88
   0   5   5    1.50    5.64
   0   5   5   11.39    7.71
   0   5  -5    2.03    5.15
   0  -5   5    1.04    6.52
   0  -5  -5    5.09    5.37
   0  -5   5    0.56    3.70
   0   5  -5    8.29    4.17
   0   5  -5    1.34    3.74
   0  -5  -5   -5.67    5.38
   0  -5  -5    5.96    6.83
   0  -5  -6  101.36    7.93
   0  -5   6   95.63    8.52
   0   5   6   97.45    9.02
   0   5   6  105.72    8.89
   0  -5   6   81.26   14.47
   0   5  -6   70.23    8.52
   0   5   6   94.97    9.44
   0  -5  -6   84.23    9.61
   0  -5   6  103.18   10.73
   0   5  -6  101.74    9.57
   0   5   6   85.94   11.53
   0   5  -6   90.00    7.98
   0  -5   6  111.65   10.94
   0  -5  -6  103.21   10.12
   0   5  -6   93.60    7.60
   0  -5  -6   86.80    9.61
   0  -5  -6  111.28   11.27
   0   5   7   38.02    6.88
   0  -5   7   26.18   11.67
   0  -5   7   28.16    7.32
   0   5   7   35.09    7.30
   0   5   7   41.47    6.60
   0  -5  -7   24.19    7.91
   0   5  -7   37.93    6.84
   0  -5  -7   31.78    5.43
   0   5  -7   36.14    6.80
   0  -5   7   34.87    8.14
   0   5   7   27.43    9.95
   0  -5  -7   25.10    8.54
   0   5  -7   25.97    5.35
   0  -5  -7   36.65    7.33
   0  -5  -7   38.58    7.87
   0  -5   7   32.50    7.73
   0   5  -7   26.98    4.85
   0   5   8  234.97   16.41
   0  -5   8  220.89   23.26
   0   5  -8  217.18   16.45
   0  -5  -8  245.35   15.20
   0   5  -8  232.35   20.83
   0   5   8  230.17   16.64
   0  -5  -8  239.02   18.45
   0  -5   8  226.54   17.20
   0   5   8  241.17   16.09
   0  -5   8  273.57   18.31
   0   5   8  245.80   20.95
   0  -5  -8  229.52   18.33
   0   5  -8  216.27   16.34
   0  -5   8  256.20   18.35
   0   5  -8  236.59   14.47
   0   5   9  215.11   15.84
   0  -5  -9  221.41   14.07
   0  -5   9  173.08   21.71
   0   5  -9  181.32   19.55
   0   5   9  208.04   14.94
   0  -5   9  192.49   16.37
   0   5   9  183.20   15.67
   0  -5  -9  165.25   17.20
   0   5  -9  197.92   15.33
   0   5   9  186.13   19.88
   0  -5   9  222.86   16.69
   0  -5  -9  195.85   17.58
   0  -5   9  238.34   17.88
   0  -5  -9  201.05   15.38
   0  -5 -10   88.63    9.02
   0  -5  10   88.56   16.76
   0   5  10   98.79   11.46
   0  -5 -10   72.11   13.22
   0  -5  10   78.97   11.85
   0   5  10   84.00   11.28
   0  -5  10  120.20   13.37
   0   5 -10   99.59   10.90
   0  -5 -10  102.05   10.96
   0  -5 -10   93.31   11.73
   0  -5  10  116.93   12.21
   0  -5 -10   88.61   12.95
   0  -5 -11  269.88   16.65
   0  -5  11  273.58   26.29
   0   5  11  239.30   19.23
   0  -5 -11  215.54   21.59
   0   5  11  258.65   19.23
   0   5 -11  222.36   17.86
   0  -5 -11  240.91   20.83
   0  -5  11  266.32   20.84
   0  -5 -11  227.45   18.04
   0   5  12   55.94   11.31
   0  -5  12   33.94   14.94
   0  -5 -12   70.71    8.21
   0  -5 -12   50.23   13.60
   0  -5  12   69.71   12.57
   0   5 -12   50.99    7.04
   0  -5 -12   57.14   10.37
   0  -5 -12   44.33   12.09
   0   5  13    5.06    9.78
   0  -5  13   -1.07   13.32
   0  -5 -13    6.51    6.31
   0  -5 -13    8.00   12.07
   0   5 -13   -5.12    7.37
   0  -5  13    8.32   10.22
   0   5 -13    2.96    5.02
   0  -5 -13   12.32    9.12
   0  -5 -13   11.54   10.94
   0  -5  14  144.77   22.95
   0   5  14  149.87   17.19
   0  -5 -14  176.06   12.93
   0   5 -14  121.40   13.87
   0  -5 -14  115.70   18.87
   0  -5  14  180.15   18.42
   0  -5 -14  154.34   16.03
   0   5 -14  133.54   11.46
   0  -5 -14  171.15   18.89
   0   5  15   59.39   14.33
   0  -5  15   54.48   18.94
   0  -5 -15   68.22   13.30
   0  -5 -15   43.89   16.07
   0  -5 -15   60.49    9.44
   0   5 -15   64.86   10.96
   0  -5  15   71.44   14.52
   0  -5 -15   87.12   16.27
   0  -5 -15   91.30   13.00
   0   5 -15   63.42    7.88
   0  -5 -16  152.73   16.79
   0   5  16  141.74   19.48
   0   5 -16  120.69   14.08
   0  -5 -16  131.22   20.87
   0  -5  16  128.87   17.72
   0   5  16  126.25   17.75
   0  -5 -16  141.61   15.72
   0   5 -16  104.99   10.38
   0  -5 -16  148.05   19.83
   0   5  17   99.39   18.60
   0  -5 -17   68.57   14.16
   0  -5 -17   92.31   19.04
   0   5 -17   63.20   12.55
   0   5  17   66.59   16.06
   0  -5  17   71.87   16.07
   0  -5 -17  102.05   18.19
   0   5 -17   82.66    8.93
   0   6   0  637.40   35.03
   0  -6   0  657.08   34.71
   0   6   0  573.59   39.73
   0  -6   0  633.17   35.47
   0  -6   0  578.18   38.19
   0   6   0  665.88   37.27
   0   6   0  651.38   36.63
   0   6  -1   22.48   10.70
   0   6   1  123.19   14.56
   0  -6   1   31.18    7.14
   0   6  -1   14.82    5.41
   0  -6  -1   65.69    8.24
   0  -6   1   18.21    5.54
   0   6   1   25.36    5.87
   0  -6  -1   19.46    5.20
   0  -6  -1   77.21   11.87
   0   6  -1   14.77    7.15
   0   6   1   87.54   10.64
   0  -6   1   25.11    9.36
   0  -6   1   11.86    4.81
   0  -6  -1   19.80    5.78
   0   6  -1   16.50    6.27
   0   6   2  215.84   14.61
   0  -6  -2  234.43   14.23
   0   6  -2  201.43   14.57
   0   6  -2  176.68   18.09
   0  -6  -2  213.51   15.16
   0  -6   2  206.62   15.18
   0  -6  -2  239.88   17.65
   0   6   2  226.20   17.27
   0  -6   2  218.59   17.82
   0   6  -2  238.70   16.48
   0   6  -2  240.53   15.83
   0  -6   2  211.41   13.91
   0  -6  -2  236.29   14.97
   0  -6  -2  243.77   15.03
   0   6  -3   63.09   12.80
   0   6  -3   57.00    7.25
   0  -6   3   57.81    8.03
   0  -6  -3   48.05    8.08
   0   6   3   72.16    7.44
   0  -6  -3   66.04    6.74
   0  -6  -3   66.32   10.92
   0   6   3   75.90   10.47
   0   6  -3   73.24    8.77
   0  -6   3   70.35    9.98
   0  -6  -3   65.71    7.73
   0   6  -3   57.68    6.93
   0  -6  -3   59.95    7.85
   0   6  -3   59.66    8.01
   0  -6   3   60.63    6.56
   0  -6  -4   35.69    7.37
   0   6   4   35.79    7.28
   0  -6  -4   45.07    5.91
   0   6  -4   28.40    6.24
   0   6   4   52.29    7.18
   0   6   4   42.03    9.40
   0  -6   4   48.74    9.55
   0   6  -4   43.01    7.63
   0  -6  -4   44.76    7.13
   0  -6   4   47.00    5.79
   0  -6  -4   53.98   10.05
   0   6  -4   37.46    5.88
   0   6  -4   31.61    6.65
   0  -6  -4   35.96    6.96
   0  -6  -5  143.49   10.49
   0   6  -5  139.87   11.54
   0   6   5  160.70   11.72
   0  -6  -5  130.94   12.14
   0   6   5  140.83   11.94
   0  -6  -5  144.04   14.12
   0   6  -5  136.57   12.08
   0  -6   5  137.04   13.71
   0   6   5  156.26   14.79
   0  -6   5  156.45   13.87
   0  -6  -5  146.61   12.29
   0   6  -5  138.59   11.49
   0  -6   5  132.48   10.18
   0  -6  -5  141.78   12.03
   0   6  -5  153.61   10.80
   0   6   6   49.40    7.66
   0  -6   6   42.31    6.90
   0  -6  -6   44.06    6.34
   0   6   6   42.46    8.26
   0   6  -6   36.68    7.37
   0  -6  -6   50.54    8.70
   0   6   6   38.48    7.23
   0  -6   6   45.56    9.74
   0   6  -6   53.14    8.06
   0   6   6   37.78    9.95
   0  -6   6   45.11    9.42
   0   6  -6   31.88    6.47
   0   6  -6   34.37    6.09
   0  -6  -6   33.47    7.88
   0  -6   6   48.20    6.12
   0  -6  -6   38.23    7.97
   0  -6  -6   51.79   10.46
   0   6  -7  146.81   12.79
   0   6   7  174.15   13.03
   0  -6   7  186.35   21.55
   0   6   7  163.98   12.72
   0  -6  -7  147.78   11.17
   0   6   7  126.40   12.70
   0  -6  -7  145.27   13.78
   0  -6   7  183.59   14.97
   0   6  -7  144.24   12.79
   0   6   7  147.61   16.40
   0  -6   7  173.12   15.40
   0  -6  -7  123.35   14.70
   0   6  -7  141.42   11.67
   0  -6  -7  144.79   13.33
   0   6  -7  127.24   10.74
   0  -6  -7  153.48   13.34
   0  -6  -8  237.88   15.58
   0   6   8  263.71   17.64
   0  -6   8  250.32   25.51
   0   6   8  263.95   17.39
   0   6  -8  213.78   17.01
   0  -6   8  225.81   17.97
   0   6   8  235.86   17.53
   0  -6  -8  215.02   18.57
   0  -6  -8  221.73   19.58
   0  -6   8  255.75   19.12
   0   6   8  247.05   21.83
   0   6  -8  227.40   17.18
   0  -6   8  269.65   20.35
   0   6  -8  217.11   15.87
   0  -6  -8  250.66   18.12
   0   6  -8  221.69   15.11
   0   6   9   34.30    8.89
   0  -6   9   52.48   16.86
   0   6  -9   41.65    8.84
   0  -6   9   35.93    9.16
   0   6   9   36.21    9.47
   0  -6  -9   37.28    7.03
   0   6   9   43.32    8.82
   0  -6  -9   42.41   11.20
   0  -6   9   40.99   10.62
   0   6  -9   40.26    8.64
   0   6  -9   43.49    6.43
   0  -6  -9   39.53   11.58
   0   6  -9   44.83    7.26
   0  -6 -10  211.70   13.52
   0   6  10  193.89   15.94
   0   6 -10  144.21   14.78
   0  -6  10  205.31   25.15
   0  -6 -10  180.12   18.31
   0   6  10  172.95   15.76
   0   6  10  163.75   14.67
   0  -6  10  180.55   17.65
   0  -6 -10  174.87   15.44
   0   6 -10  166.57   12.29
   0  -6 -10  161.54   17.70
   0   6 -10  170.65   13.08
   0  -6  11    2.29   15.78
   0   6  11   -3.71    8.96
   0  -6 -11    1.91    6.09
   0  -6 -11  -10.28   11.72
   0  -6  11    5.00   10.15
   0   6 -11   -3.30    5.07
   0  -6 -11    9.06   11.27
   0  -6 -11   -5.46    8.23
   0   6 -11   -0.51    5.57
   0  -6  12   59.83   18.66
   0   6  12   41.21   11.15
   0  -6 -12   42.30    7.54
   0  -6 -12   37.80   14.11
   0  -6  12   45.86   12.34
   0  -6 -12   37.42   12.42
   0   6 -12   46.94    6.38
   0  -6 -12   35.52   10.50
   0  -6 -12   39.73   10.21
   0   6 -12   30.27    6.90
   0   6  13   55.45   12.04
   0  -6  13   11.63   18.28
   0  -6 -13   33.65    7.59
   0  -6 -13   30.85   13.79
   0  -6  13   31.90   12.18
   0   6 -13   19.17    5.66
   0  -6 -13   56.04   11.06
   0  -6 -13   31.42   13.39
   0  -6 -13   43.95   11.09
   0   6  14   11.34   11.57
   0  -6  14   -4.03   18.33
   0   6 -14   -1.77    8.00
   0  -6 -14   11.79   14.02
   0  -6  14    7.51   11.97
   0  -6 -14    8.93   10.50
   0   6 -14    3.57    4.70
   0  -6 -14   -0.45    9.81
   0  -6 -14   -2.74   12.74
   0  -6  15  100.66   23.26
   0  -6 -15  116.57   15.15
   0   6  15  112.25   16.68
   0  -6 -15   66.12   17.56
   0   6 -15   66.91   11.97
   0  -6  15  117.72   17.66
   0  -6 -15   95.02   14.08
   0  -6 -15   79.97   17.18
   0   6 -15   71.00    8.15
   0  -6  16   24.72   19.84
   0  -6 -16   32.65   12.41
   0   6  16   30.96   14.21
   0   6 -16   16.22    9.66
   0  -6 -16   39.40   16.30
   0  -6  16   22.25   14.17
   0  -6 -16   28.80   15.12
   0   7   0   14.60   11.25
   0  -7   0    2.06    7.15
   0  -7   0    1.26    5.14
   0   7   0    2.21    5.80
   0  -7   0   12.72    9.98
   0   7   0   -6.22    8.00
   0   7   0    0.37    7.13
   0   7  -1   53.22   12.27
   0   7   1   44.67   12.99
   0  -7   1   62.83    8.88
   0   7   1   58.97    7.95
   0   7  -1   49.61    7.87
   0  -7  -1   50.02    8.53
   0  -7   1   61.27    7.78
   0  -7  -1   53.51    7.27
   0  -7   1   46.92   11.12
   0   7   1   67.26   10.32
   0   7  -1   50.72    9.21
   0  -7  -1   46.65   12.04
   0  -7   1   51.27    7.12
   0   7  -1   43.55    8.80
   0   7   1   48.17    9.40
   0   7  -2    4.87   10.49
   0   7   2   11.67   11.14
   0  -7   2    4.48    7.01
   0  -7  -2    4.18    7.11
   0   7  -2    0.76    5.91
   0  -7   2   -0.23    5.75
   0  -7  -2   -1.62    5.29
   0   7   2    1.00    5.85
   0   7   2   11.11    8.46
   0  -7  -2    8.41    9.23
   0   7  -2    4.89    7.19
   0  -7   2    1.48    9.01
   0  -7  -2   -0.23    5.99
   0  -7   2    1.35    4.86
   0   7  -2    5.52    6.54
   0   7  -3   54.95   13.82
   0   7  -3   40.21    7.60
   0  -7   3   39.53    8.38
   0  -7  -3   38.77    6.59
   0   7   3   34.72    7.31
   0  -7  -3   33.20    8.06
   0  -7   3   27.81    6.95
   0   7  -3   42.40    8.76
   0   7   3   52.08   10.24
   0  -7   3   33.17   10.24
   0  -7  -3   47.09    7.85
   0   7  -3   27.20    7.89
   0  -7  -3   32.11    7.44
   0  -7   3   35.75    6.46
   0  -7  -3   63.01   11.36
   0   7  -4   91.25   15.24
   0   7   4   59.02    8.66
   0  -7  -4   64.26    9.39
   0  -7  -4   66.60    7.63
   0   7  -4   53.12    8.60
   0  -7   4   54.93    9.40
   0   7   4   63.79   11.23
   0  -7   4   52.67   11.27
   0   7  -4   68.89    9.63
   0  -7   4   64.39    7.38
   0  -7  -4   64.86   12.18
   0  -7  -4   60.66    8.88
   0  -7   4   81.39   11.49
   0   7  -4   55.35    9.14
   0  -7   5    8.65    7.92
   0  -7  -5    6.54    7.67
   0   7  -5    5.70    6.62
   0  -7  -5   13.33    5.73
   0   7   5    8.24    6.78
   0   7   5   11.70    7.57
   0   7   5   14.63    9.69
   0   7  -5   28.79    8.11
   0  -7   5   14.59    9.78
   0  -7  -5   14.83    7.45
   0  -7   5   10.52    5.63
   0  -7  -5    6.18    9.82
   0   7  -5   13.51    6.00
   0   7  -5   12.53    6.93
   0   7  -6  129.30   13.07
   0   7   6  161.09   13.28
   0   7   6  152.52   13.17
   0  -7  -6  159.86   11.74
   0   7   6  133.36   13.10
   0  -7  -6  118.76   13.58
   0   7   6  147.52   16.40
   0   7  -6  160.69   13.86
   0  -7   6  148.49   16.30
   0   7  -6  149.11   13.40
   0  -7  -6  165.98   16.53
   0  -7  -6  157.50   13.75
   0  -7   6  151.11   11.70
   0   7  -6  131.32   11.86
   0   7   7  204.29   16.14
   0   7   7  216.31   15.87
   0  -7  -7  205.05   14.31
   0   7  -7  186.28   15.88
   0  -7  -7  169.59   16.81
   0   7   7  168.39   15.86
   0  -7   7  218.73   19.20
   0   7  -7  193.05   15.99
   0   7  -7  195.37   15.43
   0   7  -7  203.20   14.35
   0  -7  -7  169.66   18.67
   0  -7  -7  201.89   16.45
   0   7   8   33.44    9.12
   0  -7  -8   23.19    6.82
   0   7   8   30.26    9.67
   0   7  -8   17.72    9.08
   0  -7  -8   41.23   11.05
   0  -7   8   23.85    9.43
   0   7   8   23.97    8.82
   0  -7   8   26.83   11.55
   0   7  -8   34.99    6.99
   0  -7  -8   33.50   11.73
   0  -7  -8   28.86    9.80
   0   7  -8   26.56    7.97
   0   7   9  188.52   16.18
   0   7  -9  152.52   15.49
   0  -7  -9  176.24   13.43
   0  -7  -9  162.35   17.76
   0   7   9  158.67   16.05
   0   7   9  206.97   15.97
   0  -7   9  173.76   18.74
   0   7  -9  158.16   13.20
   0   7  -9  185.78   14.65
   0  -7  -9  160.66   18.62
   0  -7  -9  188.09   16.77
   0  -7  10   -7.15   18.52
   0   7  10   -5.12    9.18
   0   7  10   -0.36    8.32
   0  -7 -10    4.09    6.32
   0   7 -10  -10.47    9.14
   0  -7 -10   -7.13   11.50
   0  -7  10    4.21   11.02
   0   7 -10    0.31    6.72
   0  -7 -10   -6.44   11.86
   0   7 -10   -2.56    5.81
   0   7  11  102.18   13.42
   0  -7  11   98.82   22.58
   0   7  11   76.36   11.50
   0  -7 -11   79.09   15.08
   0   7 -11   69.83   11.58
   0  -7  11   93.96   15.94
   0   7 -11   66.55    9.44
   0   7 -11   67.40    8.34
   0  -7 -11   68.07   12.19
   0  -7 -11   89.83   15.85
   0   7  12    2.86   10.42
   0  -7  12   -9.42   18.65
   0  -7 -12    2.05   12.77
   0  -7  12  -11.18   12.19
   0   7 -12   -3.37    6.47
   0  -7 -12    8.42   10.45
   0  -7 -12    0.65   12.16
   0  -7 -12   24.23   10.09
   0   7 -12    3.67    5.32
   0   7  13   46.06   12.20
   0  -7  13   42.70   20.17
   0  -7 -13   17.93   13.85
   0  -7  13   25.56   13.32
   0  -7 -13   43.59   11.65
   0  -7 -13   19.27   13.44
   0   7 -13   15.33    6.91
   0  -7 -13   29.85   10.97
   0   7 -13   17.53    5.98
   0  -7  14   11.99   20.57
   0   7  14   40.49   13.07
   0   7 -14   15.19    9.93
   0  -7 -14   19.94   15.05
   0  -7  14   18.79   13.95
   0   7 -14   15.74    6.85
   0  -7 -14   45.05   12.46
   0  -7 -14   15.97   14.37
   0   7  15   10.04   13.45
   0  -7  15   10.99   21.83
   0   7 -15    9.37    9.77
   0  -7 -15   17.57   14.90
   0  -7  15    3.82   13.77
   0   7 -15    8.67    6.53
   0  -7 -15    6.09   11.63
   0  -7 -15    1.54   14.31
   0  -8   0   38.31    9.26
   0   8   0   38.73    8.51
   0  -8   0   19.20   12.24
   0   8   0   38.25   10.17
   0   8   0   27.96   10.13
   0   8   1    2.90    7.10
   0   8  -1    0.87    6.90
   0  -8  -1   -4.07    8.37
   0  -8   1    1.17    8.15
   0   8  -1   -1.19    8.89
   0   8   1    0.42    9.55
   0  -8   1    8.97   10.71
   0   8  -1    0.88    8.61
   0   8   1   -3.69    9.15
   0   8   2   16.05    7.56
   0  -8  -2   15.30    8.29
   0   8  -2    8.89    7.49
   0  -8   2    6.84    8.50
   0  -8   2   27.77   11.78
   0  -8  -2    4.09   11.33
   0   8   2   10.90    9.66
   0   8  -2    5.82    8.77
   0   8  -2   10.22    9.07
   0   8  -3   15.16    7.45
   0  -8   3   30.30    9.00
   0   8   3   16.82    7.47
   0  -8  -3   16.61    8.53
   0  -8   3   27.07   11.38
   0   8  -3   22.59    8.58
   0  -8  -3    3.13   11.13
   0   8  -3    9.12    8.24
   0   8  -4   -0.63    7.47
   0   8   4    9.63    7.29
   0  -8   4    0.31    8.68
   0  -8  -4   13.41    8.19
   0  -8   4   -6.85   10.91
   0   8  -4   -4.85    8.34
   0  -8  -4    0.90    7.35
   0  -8  -4   -1.07   10.75
   0  -8  -5   39.42   10.10
   0   8  -5   29.89    9.22
   0  -8   5   40.63   10.16
   0   8   5   40.86    9.05
   0  -8   5   55.56   13.19
   0   8  -5   49.84   10.26
   0  -8  -5   44.11    9.34
   0  -8  -5   48.60   12.71
   0   8   6   22.79    9.11
   0   8  -6    1.03    8.55
   0  -8  -6    7.46    9.41
   0   8   6   14.42    8.32
   0  -8   6   19.90    9.72
   0  -8   6    7.52   11.38
   0  -8  -6   13.17    8.70
   0   8  -6   11.34    8.52
   0  -8  -6    3.86   11.52
   0   8   7   28.12    9.35
   0   8   7   41.64    9.30
   0   8  -7    9.77    9.07
   0  -8  -7   30.47   10.44
   0  -8   7   22.25   11.80
   0  -8  -7   24.07    9.65
   0   8  -7   18.32    9.22
   0  -8  -7   23.95   12.58
   0   8   8   93.71   12.44
   0   8   8   94.57   12.22
   0  -8  -8   67.32   13.13
   0   8  -8   79.02   12.43
   0  -8   8   68.59   14.75
   0  -8  -8   68.56   15.12
   0   8  -8   66.27    9.83
   0  -8  -8   85.82   12.93
   0   8  -8   71.30   11.44
   0   8   9    0.78    9.48
   0   8  -9  -13.30    9.85
   0  -8  -9  -15.30   12.27
   0   8   9   -2.27    8.99
   0  -8   9   -3.14   12.39
   0  -8  -9  -10.51   10.32
   0   8  -9   -1.96    7.06
   0  -8  -9   13.54   12.69
   0   8  -9    3.84    7.69
   0   8  10   56.74   12.13
   0   8 -10   51.95   11.79
   0   8  10   46.84   10.84
   0  -8 -10   42.46   14.10
   0  -8  10   40.13   14.49
   0  -8 -10   32.65   11.52
   0  -8 -10   64.22   15.63
   0   8 -10   30.06    9.51
   0   8 -10   36.26    8.04
   0   8  11    9.60   10.73
   0  -8 -11   14.61   12.82
   0   8  11   -0.39    9.43
   0   8 -11    9.86    9.66
   0  -8  11    9.70   13.78
   0   8 -11   -3.76    8.02
   0   8 -11    7.11    6.35
   0  -8 -11   -5.39   13.42
   0  -8 -11    5.17   10.34
   0   8  12   17.41   11.51
   0  -8 -12    4.22   14.65
   0  -8  12   37.25   14.54
   0  -8 -12   41.03   11.82
   0   8 -12    5.23    7.81
   0  -8 -12   38.72   14.87
   0   8  13   26.48   12.40
   0  -8 -13   15.97   14.60
   0  -8  13    5.41   14.11
   0  -8 -13   16.93   11.45
   0   8 -13    7.33    7.48
   0  -8 -13   20.67   14.35
   0  -9   0   -9.90   10.10
   0   9   0   -2.68    8.18
   0   9   0  -11.67   10.63
   0  -9   1   11.22   10.37
   0   9   1   26.28    9.41
   0   9  -1   27.46    9.68
   0  -9  -1   29.83   10.40
   0  -9   1   39.50   14.47
   0   9  -1   33.52   11.76
   0  -9   2  -12.14   10.12
   0  -9  -2  -11.85   10.13
   0   9  -2    1.36    8.61
   0   9   2   13.47    8.72
   0  -9   2    9.42   12.44
   0   9  -2    9.79    9.94
   0  -9   3    5.70    9.24
   0   9  -3   -3.50    8.60
   0  -9  -3    2.03    8.83
   0   9   3    2.75    8.20
   0  -9   3   -6.53   12.11
   0   9  -3   -2.02    9.82
   0  -9   4    8.68    9.83
   0  -9  -4    9.95    9.16
   0   9   4    4.94    8.23
   0   9  -4    7.55    8.65
   0  -9   4    5.91   11.62
   0   9  -4    6.49    9.42
   0  -9  -4   14.33   12.31
   0   9   5   -7.75    8.97
   0  -9  -5   -5.69    9.31
   0  -9   5    6.04    9.53
   0   9  -5   -5.22    8.13
   0   9   5   -1.10    8.15
   0  -9   5    5.93   12.04
   0  -9  -5    9.60   12.04
   0   9  -5    6.36    9.30
   0   9   6   11.72    9.26
   0   9   6    9.76    9.35
   0   9  -6    6.22    9.20
   0  -9  -6    9.40   10.18
   0  -9   6   13.71   10.32
   0  -9   6   20.02   13.41
   0  -9  -6   22.11   12.70
   0   9  -6   20.31   10.20
   0  -9  -6   10.99    9.10
   0   9   7  -13.80   10.09
   0   9   7   -1.92    9.08
   0   9  -7   -0.81    9.68
   0  -9  -7   -7.57   10.23
   0  -9   7    6.18   10.35
   0  -9   7   -7.45   13.27
   0  -9  -7    5.04   12.84
   0  -9  -7   -6.18    9.98
   0   9  -7  -12.32    9.93
   0   9   8   -1.59    9.98
   0   9   8   12.42    9.84
   0  -9  -8    9.26   11.77
   0  -9   8    1.62   10.76
   0   9  -8    0.85   10.26
   0  -9   8   -3.43   13.88
   0   9  -8    3.74    9.58
   0  -9  -8   13.66   13.08
   0   9   9    4.65   10.43
   0   9   9    8.69   10.27
   0   9  -9    2.23   10.43
   0  -9   9   19.16   11.76
   0  -9  -9    5.43   12.29
   0  -9   9   19.04   13.92
   0   9  -9   -3.23    9.60
   0  -9  -9    2.02   13.91
   0   9  10    0.90   10.30
   0  -9 -10  -13.80   12.99
   0   9  10    5.09   10.30
   0   9 -10   11.21   10.56
   0  -9  10   -9.43   13.89
   0   9 -10    6.80    8.94
   0  -9 -10    1.40   13.72
   0  10   0  -24.15   11.69
   0 -10   0   -9.37   11.08
   0 -10   1    3.12   10.07
   0  10  -1   -4.98    9.89
   0 -10  -1   -0.70   10.58
   0  10   1    9.09    9.53
   0  10   2   -2.29    9.84
   0 -10  -2    4.31   10.31
   0  10  -2   -5.88   10.49
   0 -10   2    4.55   10.41
   0 -10   2  -13.78   15.54
   0  10  -2   -7.23   12.30
   0  10   3    7.72    9.25
   0 -10  -3    4.41    9.93
   0  10  -3    5.57    9.36
   0 -10   3    2.88    9.81
   0 -10   3  -11.29   14.59
   0  10  -3    5.39   11.32
   0 -10  -4  -10.13   10.07
   0 -10   4    3.34   10.00
   0  10  -4   -3.66    9.31
   0  10   4    3.17    9.74
   0 -10   4    2.22   13.22
   0  10  -4   10.10   11.29
   0  10   5   -2.70    9.48
   0 -10  -5   -0.41   10.57
   0  10   5    5.25    9.79
   0 -10   5    5.72   10.45
   0  10  -5   -0.42   10.04
   0 -10   5   14.06   14.19
   0  10  -5    8.83   11.54
   0 -10  -5   18.51   13.77
   0  10   6    6.80    9.73
   0 -10  -6   -0.44   10.68
   0  10  -6   -3.90    9.95
   0  10   6   -2.06    9.32
   0 -10   6    8.32   10.71
   0 -10   6    8.23   13.76
   0  10  -6   10.43   10.74
   0 -10  -6   -6.73   14.25
  -1   0  19  506.37   44.22
   1   0 -19  480.08   38.72
  -1   0  19  507.70   37.04
   1   0 -19  537.75   37.27
  -1   0  18   16.90   18.38
   1   0 -18   21.94   15.77
  -1   0  18   19.76   13.76
   1   0 -18    6.79   12.88
  -1   0  17  396.97   35.01
   1   0 -17  340.51   30.74
  -1   0  17  388.30   29.34
   1   0 -17  389.18   29.19
  -1   0  17  343.19   23.84
  -1   0  16   40.07   17.36
   1   0 -16   11.56   13.15
  -1   0  16   15.61   12.41
  -1   0  16   45.78    8.45
   1   0 -16   23.05   12.37
  -1   0  15   89.35   18.60
   1   0 -15   84.19   16.16
  -1   0  15  105.01   14.88
  -1   0  15   87.40   10.23
   1   0 -15   88.50   14.49
   1   0 -14  153.70   15.07
  -1   0  14  154.94   20.71
   1   0 -14  141.39   18.61
  -1   0  14  150.74   17.09
  -1   0  14  156.94   15.91
  -1   0  14  190.04   13.68
   1   0 -14  138.85   16.53
   1   0 -13  133.54   14.13
  -1   0  13  139.36   19.17
   1   0 -13  128.22   17.70
  -1   0  13  162.48   17.28
  -1   0  13  154.70   15.17
  -1   0  13  134.39   15.41
   1   0 -13  144.54   15.54
  -1   0  13  164.01   12.91
  -1   0  12 1524.78   90.66
   1   0 -12 1579.50   86.01
   1   0 -12 1537.90   89.93
  -1   0  12 1573.90   88.40
   1   0 -12 1718.06   87.91
  -1   0  12 1709.20   86.96
  -1   0  12 1435.40   86.97
  -1   0  12 1681.65   84.73
   1   0 -11    6.19    7.20
  -1   0  11   13.34   11.30
  -1   0  11   24.43   10.47
   1   0 -11   -8.78   10.40
  -1   0  11   15.16    8.37
   1   0 -11   19.37    8.40
  -1   0  11   16.54    8.04
  -1   0  11   17.16    6.49
   1   0 -10 2820.84  146.06
  -1   0  10 2543.11  149.02
  -1   0  10 2821.86  147.98
   1   0 -10 2805.95  149.51
  -1   0  10 2546.56  146.49
   1   0 -10 2913.36  147.03
  -1   0  10 2969.91  146.59
  -1   0  10 2949.52  144.75
   1   0  -9  820.67   44.56
  -1   0   9  744.38   46.96
   1   0  -9  761.21   47.52
  -1   0   9  746.89   45.94
  -1   0   9  829.87   44.70
   1   0  -9  837.19   45.12
  -1   0   9  692.49   44.57
  -1   0   9  840.20   43.03
  -1   0   8  529.57   34.45
   1   0  -8  547.56   32.61
  -1   0   8  534.14   33.90
   1   0  -8  535.10   35.31
   1   0  -8  581.46   32.97
  -1   0   8  589.13   32.71
  -1   0   8  522.93   32.70
  -1   0   8  614.82   31.35
   1   0  -7  280.87   18.51
  -1   0   7  289.88   20.17
  -1   0   7  310.98   19.88
   1   0  -7  253.82   20.23
  -1   0   7  264.64   18.34
   1   0  -7  287.24   18.25
  -1   0   7  271.39   17.86
   1   0  -7  266.50   18.17
  -1   0   7  298.89   16.89
   1   0  -6   98.56    9.40
   1   0  -6  100.95   10.93
  -1   0   6  114.68   10.40
   1   0  -6  107.91    8.95
   1   0  -6   94.81    8.94
  -1   0   6  107.07    8.82
  -1   0   6  103.75    9.04
  -1   0   6  104.98    7.69
   1   0  -5  356.53   20.09
  -1   0   5  336.14   20.49
   1   0  -5  332.28   21.20
  -1   0   5  302.45   19.12
  -1   0   5  333.24   19.71
   1   0  -5  346.22   19.65
   1   0  -5  322.92   19.40
  -1   0   5  336.84   18.37
   1   0  -4  360.98   20.49
  -1   0   4  375.53   20.79
   1   0  -4  351.44   21.07
   1   0  -4  332.68   19.88
   1   0  -4  358.43   20.16
  -1   0   4  372.01   20.34
  -1   0   4  355.37   19.05
   1   0  -3    7.93    3.33
  -1   0   3    7.48    3.40
   1   0  -3    6.93    3.52
   1   0  -3    6.70    2.74
  -1   0   3    0.96    2.64
   1   0  -3    5.79    2.50
   1   0  -2 3941.09  198.31
  -1   0   2 4046.42  198.25
   1   0  -2 4085.15  198.44
  -1   0   2 3761.33  198.20
   1   0  -2 3826.78  197.83
   1   0  -2 4002.15  198.23
   1   0  -1   76.31    5.09
   1   0  -1   80.16    4.83
   1   0  -1   72.68    4.66
   1   0   0 4393.66  231.48
   1   0   0 4171.13  231.15
  -1   0   0 4382.47  231.57
   1   0   0 5007.23  231.52
   1   0   0 5072.23  231.54
   1   0   0 5142.60  231.58
   1   0   1  755.43   40.29
   1   0   1  781.46   40.76
   1   0   1  816.42   41.06
   1   0   1  929.98   41.00
  -1   0  -1  768.36   41.32
   1   0   1  779.49   41.19
   1   0   1  801.70   40.31
  -1   0  -2  140.82    7.87
   1   0   2  125.35    8.19
   1   0   2  126.48    6.65
   1   0   2  136.77    8.40
  -1   0  -2  123.42    8.27
  -1   0  -2  123.69    8.55
   1   0   2  104.09    8.12
  -1   0  -3 4119.22  202.60
   1   0   3 3950.24  201.22
   1   0   3 4096.47  203.11
   1   0   3 4381.62  202.49
  -1   0  -3 4027.35  203.14
   1   0   3 4045.74  203.12
   1   0   3 3883.58  202.96
  -1   0  -3 3769.28  203.13
   1   0   3 3958.85  201.32
   1   0   4 2625.01  136.95
  -1   0  -4 2579.36  136.14
   1   0   4 2817.58  136.33
  -1   0  -4 2439.47  136.67
   1   0   4 2585.82  136.72
   1   0   4 2363.28  136.28
  -1   0  -4 2610.40  136.81
  -1   0  -4 2740.39  134.63
  -1   0  -4 2760.53  134.45
   1   0   5 2435.36  130.47
  -1   0  -5 2656.99  127.70
  -1   0  -5 2464.52  129.51
   1   0   5 2654.82  130.03
  -1   0  -5 2379.87  130.11
   1   0   5 2472.11  130.10
  -1   0  -5 2470.88  130.13
   1   0   5 2357.24  129.57
  -1   0  -5 2536.52  127.89
  -1   0  -6 3736.02  185.77
   1   0   6 3664.75  189.28
  -1   0  -6 3610.83  187.68
   1   0   6 3773.02  188.58
   1   0   6 3794.44  188.57
  -1   0  -6 3582.74  188.54
  -1   0  -6 3689.18  188.47
   1   0   6 3494.96  187.68
  -1   0  -7  734.68   40.93
  -1   0  -7  688.19   38.72
   1   0   7  775.06   43.22
   1   0   7  789.64   42.33
   1   0   7  745.55   40.86
   1   0   7  772.23   41.79
  -1   0  -7  746.76   42.04
  -1   0  -7  736.55   41.60
   1   0   8 1059.42   59.16
  -1   0  -8 1056.37   56.51
  -1   0  -8  910.32   54.10
   1   0   8 1058.90   58.04
   1   0   8 1131.55   56.92
  -1   0  -8 1027.02   57.67
   1   0   8 1176.43   57.88
  -1   0  -8 1110.16   57.50
   1   0   9  574.72   36.03
  -1   0  -9  614.30   33.11
  -1   0  -9  458.85   30.12
   1   0   9  584.02   34.68
   1   0   9  610.81   33.34
   1   0   9  588.98   33.73
  -1   0  -9  591.40   34.39
  -1   0 -10  506.21   29.22
   1   0  10  492.80   32.89
  -1   0 -10  375.19   26.30
   1   0  10  490.21   31.27
   1   0  10  524.48   30.25
   1   0  10  518.47   29.84
  -1   0 -10  504.08   31.02
   1   0  10  519.69   29.23
   1   0  11    3.37   10.84
  -1   0 -11   24.43    7.72
   1   0  11    8.19    9.39
  -1   0 -11    0.67    4.55
   1   0  11   -2.07    7.52
   1   0  11    3.25    6.74
  -1   0 -11   16.37    8.66
   1   0  11    1.80    7.97
  -1   0 -12  301.11   20.61
   1   0  12  308.53   26.00
  -1   0 -12  253.74   17.90
   1   0  12  296.88   23.47
   1   0  12  278.41   21.36
  -1   0 -12  283.19   22.96
   1   0  12  300.60   20.32
  -1   0 -13  758.21   42.76
  -1   0 -13  642.75   39.88
   1   0  13  717.74   45.17
   1   0  13  769.43   43.91
  -1   0 -13  737.24   45.32
   1   0  13  774.73   42.39
  -1   0 -14   52.32    8.11
   1   0  14   44.10   11.90
   1   0  14   48.88   10.08
  -1   0 -14   54.11   13.17
  -1   0 -15  452.01   28.04
   1   0  15  502.46   32.44
  -1   0 -15  513.75   34.45
  -1   0 -15  434.82   28.98
  -1   0 -16  322.99   21.75
  -1   0 -16  353.31   27.97
   1   0  16  378.89   27.03
  -1   0 -16  299.22   22.49
  -1   0 -17   37.33    8.66
   1   0  17   57.46   14.19
  -1   0 -17   42.16    9.58
  -1   0 -17   47.81   14.51
   1   0  18   69.27   21.82
  -1   0 -18   57.58   10.18
   1   0  18   67.93   15.29
  -1   0 -18   54.83   10.77
  -1   0 -18  109.95   17.49
   1   0  19  -14.42   20.03
  -1   0 -19   17.26    8.65
   1   0  19    4.73   13.26
  -1   0 -19   11.20   15.23
  -1  -1  19  132.46   27.01
  -1   1  19  119.90   23.54
   1   1 -19   98.14   14.40
   1  -1 -19  126.51   20.82
  -1  -1  19  125.28   19.15
  -1   1  19  120.14   19.02
   1  -1 -19  144.57   19.25
   1   1 -19  132.58   19.07
   1   1 -18  409.15   27.35
  -1  -1  18  383.59   37.73
  -1   1  18  362.31   35.61
   1  -1 -18  352.95   32.14
  -1   1  18  378.67   30.68
   1   1 -18  401.50   30.91
   1  -1 -18  443.38   31.78
  -1  -1  18  389.40   31.04
  -1  -1  17    7.01   18.52
  -1   1  17    8.63   16.25
   1  -1 -17    6.49   14.33
   1   1 -17   11.61   14.19
  -1   1  17    1.28   12.64
  -1  -1  17   13.44   12.68
   1  -1 -17   14.63   12.55
   1   1 -17   15.64   12.02
  -1  -1  16  186.47   24.80
  -1   1  16  197.75   24.55
   1  -1 -16  200.86   22.44
   1   1 -16  208.13   21.91
  -1  -1  16  179.89   19.13
   1  -1 -16  190.59   19.64
  -1   1  16  207.72   20.23
   1   1 -16  175.27   19.32
  -1  -1  16  180.37   15.66
  -1   1  15   47.92   16.10
  -1  -1  15   14.49   15.64
   1  -1 -15   31.67   13.60
   1   1 -15   38.46   13.64
  -1  -1  15   22.11   11.21
  -1   1  15   40.27   12.07
  -1  -1  15   33.69    8.54
   1   1 -15   50.78   12.15
   1  -1 -15   34.06   11.48
  -1   1  14   46.42   14.59
   1   1 -14   34.17   10.32
  -1  -1  14   40.48   14.65
   1  -1 -14   46.33    9.53
   1   1 -14   38.91   13.26
   1  -1 -14   36.65   13.52
   1  -1 -14   49.70    9.79
  -1  -1  14   33.63   11.03
   1  -1 -14   38.77   10.98
   1   1 -14   33.33   10.56
  -1  -1  14   38.90    8.65
  -1  -1  14   33.31    9.97
  -1   1  14   50.65   10.89
  -1   1  13  684.00   44.25
   1  -1 -13  671.70   38.80
   1   1 -13  655.23   40.11
  -1  -1  13  605.66   45.11
   1   1 -13  656.38   43.23
   1  -1 -13  609.68   43.21
  -1   1  13  653.53   41.40
   1  -1 -13  719.94   39.43
   1  -1 -13  722.06   41.63
  -1  -1  13  668.79   39.88
  -1   1  13  670.44   40.33
   1   1 -13  629.94   40.45
  -1  -1  13  576.58   40.25
  -1  -1  13  691.15   38.36
  -1  -1  12   18.10   12.59
   1  -1 -12   32.23    8.22
  -1   1  12   24.68   12.12
  -1  -1  12   24.69    7.51
   1   1 -12   18.85    8.99
   1   1 -12   30.26   11.65
   1  -1 -12   16.27   11.42
  -1   1  12   34.13   10.54
   1  -1 -12   16.57    7.74
  -1  -1  12   26.63    9.58
   1   1 -12   22.97    8.92
  -1   1  12   28.74    9.19
   1  -1 -12   17.78    9.39
  -1  -1  12   22.69    8.79
  -1  -1  11 1414.83   87.02
   1  -1 -11 1650.87   81.88
  -1   1  11 1630.61   85.95
   1   1 -11 1439.96   82.78
   1   1 -11 1576.04   85.90
   1  -1 -11 1675.71   82.38
   1  -1 -11 1385.04   85.44
  -1   1  11 1450.93   83.47
  -1  -1  11 1408.66   82.92
   1  -1 -11 1626.52   83.68
   1   1 -11 1434.74   82.73
  -1   1  11 1520.80   82.64
  -1  -1  11 1625.40   82.81
  -1  -1  11 1556.00   81.18
  -1   1  10  366.39   25.89
   1   1 -10  326.73   23.79
   1  -1 -10  412.72   22.84
  -1  -1  10  348.50   27.40
   1   1 -10  375.74   26.34
  -1   1  10  354.84   24.34
   1  -1 -10  368.04   22.78
   1  -1 -10  336.95   26.31
   1   1 -10  326.27   22.84
   1   1 -10  312.86   22.94
  -1  -1  10  310.42   23.25
  -1  -1  10  373.77   23.38
   1  -1 -10  375.20   23.99
  -1   1  10  336.83   23.03
  -1  -1  10  370.59   21.85
   1   1  -9 1351.55   77.26
  -1   1   9 1476.89   78.81
  -1  -1   9 1396.67   80.52
   1  -1  -9 1537.47   76.16
   1  -1  -9 1508.55   76.50
   1   1  -9 1421.04   79.43
   1  -1  -9 1349.63   79.20
  -1   1   9 1427.44   77.64
  -1  -1   9 1523.74   77.01
  -1  -1   9 1372.24   77.03
   1   1  -9 1394.61   76.48
   1   1  -9 1319.30   76.56
  -1   1   9 1443.16   76.77
   1  -1  -9 1517.34   77.54
  -1  -1   9 1456.62   75.52
   1   1  -8  367.11   25.78
   1  -1  -8  439.58   24.67
  -1   1   8  409.52   26.60
   1  -1  -8  358.01   26.94
  -1   1   8  408.63   25.89
   1   1  -8  427.25   27.99
   1  -1  -8  454.08   25.98
   1   1  -8  402.97   25.04
  -1   1   8  432.62   25.25
   1   1  -8  375.06   24.67
  -1  -1   8  404.34   25.01
  -1  -1   8  427.00   25.65
   1  -1  -8  437.79   24.10
  -1  -1   8  439.17   24.05
   1  -1  -7   11.76    4.98
  -1   1   7    8.03    6.56
   1   1  -7    6.14    6.40
   1  -1  -7   15.46    4.20
   1  -1  -7    5.99    6.65
   1   1  -7   11.08    6.97
  -1   1   7   12.05    6.37
   1   1  -7   13.02    5.22
  -1  -1   7   10.22    5.17
   1  -1  -7   16.24    5.60
  -1  -1   7   12.47    5.03
   1   1  -7   14.10    4.98
  -1   1   7   10.30    5.28
  -1   1   6  315.62   20.17
   1  -1  -6  326.03   18.84
   1   1  -6  303.40   20.31
  -1   1   6  325.53   19.84
   1   1  -6  315.03   21.55
   1  -1  -6  312.36   20.53
   1   1  -6  302.04   19.04
   1   1  -6  299.92   18.89
  -1  -1   6  330.85   19.20
   1  -1  -6  314.47   19.37
  -1  -1   6  356.80   19.87
  -1   1   6  323.24   19.24
   1  -1  -6  323.41   18.23
   1   1  -5  666.19   37.82
   1  -1  -5  695.10   36.19
  -1   1   5  637.17   37.02
   1   1  -5  613.37   38.48
  -1   1   5  675.05   37.02
   1  -1  -5  648.61   37.32
  -1  -1   5  735.52   36.66
   1   1  -5  685.07   36.49
  -1  -1   5  756.32   37.27
   1   1  -5  682.98   36.69
   1  -1  -5  650.41   36.61
   1  -1  -5  684.90   35.69
   1  -1  -4   91.00    6.12
   1   1  -4   93.64    8.20
   1   1  -4   78.47    8.23
   1  -1  -4   97.15    7.06
  -1   1   4   88.95    6.97
   1  -1  -4   82.40    7.25
   1  -1  -4   79.88    6.52
   1   1  -4   78.88    6.26
   1   1  -4   85.07    6.71
  -1  -1   4   85.76    6.90
   1  -1  -4   85.73    5.55
   1   1  -3 2763.90  139.45
   1  -1  -3 3042.45  138.54
   1  -1  -3 2705.66  137.46
   1   1  -3 2731.46  137.78
  -1  -1   3 2748.29  138.47
   1  -1  -3 2595.23  137.99
   1   1  -3 2691.04  138.29
  -1   1   3 2660.79  138.21
   1  -1  -3 2709.87  138.40
  -1   1   3 2891.65  138.53
   1   1  -3 2427.30  139.31
   1   1  -2  161.41   11.25
   1  -1  -2  204.39   10.89
   1  -1  -2  185.09   10.83
  -1   1   2  207.89   11.06
  -1   1   2  191.27   10.75
   1   1  -2  159.43   11.39
  -1  -1   2  179.21   10.93
   1  -1  -2  181.96   10.55
   1   1  -2  180.00   10.83
   1  -1  -1 3112.03  156.04
  -1   1   1 3134.29  156.08
   1   1  -1 2821.59  155.99
   1  -1  -1 3269.56  156.23
  -1   1   1 3207.68  156.12
   1   1  -1 3129.28  156.37
  -1  -1   1 3010.15  156.38
   1   1  -1 3066.96  155.83
   1  -1   0  540.76   28.50
   1  -1   0  508.47   28.55
  -1   1   0  544.64   28.57
  -1   1   0  568.78   28.82
   1  -1   0  612.29   28.95
   1   1   0  569.92   29.25
  -1  -1   0  563.57   29.39
  -1  -1   0  551.79   28.40
   1   1   0  536.31   28.43
   1  -1   1 1827.79   95.96
   1  -1   1 1833.76   95.00
  -1   1  -1 1779.81   95.04
   1   1   1 2051.97   94.63
   1   1   1 1774.45   95.33
   1  -1   1 1881.21   95.54
   1   1   1 1764.59   95.94
  -1  -1  -1 1910.62   96.37
  -1  -1  -1 1803.07   94.96
   1  -1   2  956.08   48.12
   1  -1   2  879.21   46.13
   1   1   2  891.32   46.58
   1   1   2  870.55   47.00
   1  -1   2  931.02   46.30
   1  -1   2  932.95   47.08
   1   1   2  958.09   47.17
  -1   1  -2  924.07   47.20
   1   1   2  889.00   47.68
  -1  -1  -2  885.57   46.92
   1   1   2  884.45   46.29
   1   1   2  920.72   46.18
   1  -1   3  127.93    7.60
   1   1   3  139.55    8.54
   1  -1   3  149.13   10.64
  -1  -1  -3  137.20    8.38
   1   1   3  135.36    9.49
  -1  -1  -3  142.20    9.41
   1  -1   3  136.51    8.98
   1   1   3  140.42    9.34
   1  -1   3  133.47    8.27
  -1   1  -3  152.31    9.32
   1   1   3  134.90    7.67
   1   1   3  130.48    7.92
  -1  -1  -3  120.74    8.67
  -1  -1  -4 1729.07   84.87
   1  -1   4 1573.99   83.93
   1  -1   4 1729.65   87.39
   1   1   4 1731.08   85.26
   1   1   4 1647.93   86.28
   1   1   4 1641.18   85.86
  -1   1  -4 1741.47   85.92
  -1  -1  -4 1684.99   86.11
   1  -1   4 1580.54   84.88
   1  -1   4 1721.06   85.68
   1   1   4 1651.03   85.23
  -1  -1  -4 1754.38   85.62
   1   1   4 1580.42   84.38
   1  -1   4 1661.98   85.77
  -1   1  -5 1435.61   79.64
  -1  -1  -5 1547.81   78.14
   1   1   5 1502.81   78.67
   1  -1   5 1469.40   80.80
   1  -1   5 1462.44   78.49
   1   1   5 1529.12   79.99
  -1  -1  -5 1427.44   76.85
   1  -1   5 1373.53   78.17
   1  -1   5 1560.78   79.03
  -1   1  -5 1497.52   79.21
   1   1   5 1512.09   79.30
  -1  -1  -5 1545.97   79.67
   1  -1   5 1537.33   79.19
  -1  -1  -5 1575.71   78.99
  -1  -1  -5 1692.60   77.67
   1   1   5 1441.77   78.39
  -1  -1  -5 1601.05   77.29
   1   1   6  818.68   45.40
  -1   1  -6  904.61   43.62
  -1   1  -6  771.81   46.03
   1  -1   6  823.16   47.80
  -1  -1  -6  847.13   44.62
   1  -1   6  826.84   45.20
   1   1   6  841.54   46.66
  -1  -1  -6  813.00   46.19
   1  -1   6  844.30   45.49
  -1   1  -6  825.24   45.86
   1  -1   6  785.76   44.73
   1   1   6  806.57   45.71
   1  -1   6  804.29   45.41
  -1  -1  -6  859.39   44.01
  -1  -1  -6  822.60   45.46
  -1   1  -7 2133.79  116.12
   1  -1   7 2132.17  118.14
   1   1   7 2223.77  115.89
  -1   1  -7 2364.69  113.56
  -1  -1  -7 2303.29  114.72
   1  -1   7 2142.04  115.43
   1   1   7 2281.13  117.02
   1   1   7 2119.89  115.80
   1  -1   7 2253.32  115.63
  -1  -1  -7 2220.93  116.44
  -1   1  -7 2065.01  115.90
   1  -1   7 2112.01  114.92
  -1  -1  -7 2310.25  114.10
  -1  -1  -7 2208.51  115.61
  -1  -1  -8  464.80   27.24
  -1   1  -8  467.48   25.92
  -1   1  -8  454.25   28.60
   1  -1   8  449.84   31.15
   1   1   8  447.30   28.89
   1   1   8  499.78   30.09
   1  -1   8  461.04   28.47
   1   1   8  444.96   28.41
  -1  -1  -8  470.33   29.22
   1  -1   8  449.95   27.65
   1  -1   8  502.83   28.42
  -1   1  -8  435.71   28.73
  -1  -1  -8  474.61   26.65
  -1  -1  -8  484.23   28.50
  -1   1  -9  931.29   54.54
  -1  -1  -9 1078.62   56.23
   1  -1   9 1072.29   61.16
   1   1   9 1049.95   58.55
  -1   1  -9 1055.74   57.59
   1  -1   9 1069.88   58.07
   1   1   9 1175.30   59.42
   1  -1   9 1129.17   57.69
  -1   1  -9  993.28   57.86
  -1  -1  -9 1097.93   58.56
   1   1   9 1033.07   57.62
   1  -1   9  995.03   56.62
   1   1   9  998.39   56.06
  -1  -1  -9 1005.08   55.51
  -1  -1  -9 1076.33   57.54
  -1  -1 -10    9.07    6.50
  -1  -1 -10    4.58    7.21
   1   1  10   -3.12    8.74
  -1   1 -10    4.00    7.48
   1  -1  10    2.18    6.58
   1  -1  10   13.82   10.92
  -1   1 -10    6.37    4.01
   1  -1  10    6.62    8.08
   1   1  10    4.99    8.71
   1  -1  10    1.86    6.93
  -1   1 -10   12.99    7.74
   1  -1  10    2.45    6.76
  -1  -1 -10    0.96    7.70
  -1  -1 -10    1.39    5.05
   1   1  10    1.70    7.07
   1   1  10    3.47    5.68
  -1  -1 -11  178.30   14.05
  -1   1 -11  107.84   11.21
   1  -1  11  168.01   19.10
  -1   1 -11  174.14   15.02
   1  -1  11  166.42   16.09
   1   1  11  188.50   17.03
   1  -1  11  187.58   15.37
   1   1  11  178.14   15.52
   1   1  11  173.79   15.28
  -1  -1 -11  162.52   15.99
  -1   1 -11  174.19   15.86
   1   1  11  175.75   13.76
   1  -1  11  185.90   14.60
  -1  -1 -11  181.81   15.64
  -1  -1 -11  150.55   12.85
  -1  -1 -12  180.76   14.58
  -1   1 -12  107.41   11.89
   1  -1  12  176.49   20.86
  -1   1 -12  167.88   15.56
   1  -1  12  174.14   17.60
   1   1  12  190.43   17.70
  -1  -1 -12  153.35   17.33
  -1  -1 -12  193.82   13.10
  -1  -1 -12  194.66   17.35
  -1   1 -12  182.57   17.17
   1  -1  12  201.01   16.34
   1   1  12  167.78   15.74
  -1  -1 -12  197.05   16.52
   1   1  12  169.96   14.46
  -1  -1 -12  166.50   13.61
   1  -1  12  181.17   15.12
   1  -1  13   47.46   15.63
   1  -1  13   23.25    8.56
  -1  -1 -13   11.12    9.11
  -1  -1 -13   19.69    8.53
  -1   1 -13   34.05   10.03
   1   1  13   30.77   11.76
  -1  -1 -13   18.41    6.67
  -1  -1 -13   10.02   11.86
   1  -1  13   22.42   11.45
  -1   1 -13   16.41    6.00
   1   1  13   13.08    9.35
   1  -1  13   23.28   10.04
  -1   1 -13   16.98    9.96
   1   1  13   19.74    7.83
  -1  -1 -13   21.45   10.63
  -1  -1 -13   19.25    7.48
  -1   1 -14  858.14   54.50
   1  -1  14 1035.02   65.11
  -1  -1 -14 1010.03   60.95
  -1  -1 -14 1072.82   55.04
   1  -1  14 1028.46   58.44
  -1   1 -14  972.62   59.70
  -1  -1 -14 1095.09   60.45
   1   1  14 1024.49   58.65
   1  -1  14 1030.87   56.91
   1   1  14 1086.08   56.74
  -1  -1 -14  975.15   56.08
  -1   1 -15  158.63   14.28
  -1  -1 -15  162.16   20.16
  -1  -1 -15  205.68   14.81
  -1   1 -15  183.77   19.80
   1  -1  15  198.71   18.81
   1   1  15  178.80   18.75
  -1  -1 -15  154.24   19.06
  -1  -1 -15  184.19   15.78
  -1  -1 -16  376.59   24.16
  -1   1 -16  375.36   24.85
  -1  -1 -16  391.40   30.90
  -1  -1 -16  404.95   24.80
  -1  -1 -16  383.19   30.33
   1   1  16  415.95   29.27
   1  -1  16  425.05   29.57
  -1   1 -16  370.02   30.00
  -1  -1 -16  338.45   25.56
   1   1  17  188.10   24.74
  -1  -1 -17  150.38   13.81
  -1   1 -17  152.72   14.53
  -1  -1 -17  147.66   13.91
   1   1  17  162.65   19.06
   1  -1  17  202.66   19.63
  -1  -1 -17  147.22   15.10
  -1  -1 -17  184.35   20.45
  -1   1 -17  158.40   20.05
   1   1  18   33.70   19.20
  -1   1 -18   42.79   10.11
  -1  -1 -18   47.24    9.19
   1  -1  18   51.95   15.21
   1   1  18   41.95   13.56
  -1   1 -18   24.36    9.15
  -1  -1 -18   54.53   16.06
  -1  -1 -18   32.80   10.15
  -1   1 -18   41.68   15.77
   1   1  19   44.70   21.09
  -1   1 -19   51.05   10.44
  -1  -1 -19   48.31    9.53
   1   1  19   59.98   15.25
   1  -1  19   52.63   15.47
  -1   1 -19   49.93   16.56
  -1  -1 -19   76.97   16.65
  -1  -2  19  100.07   26.57
  -1   2  19   70.46   20.97
   1   2 -19  108.63   13.93
  -1  -2  19  102.86   18.01
   1   2 -19   94.94   17.06
   1  -2 -19   88.05   17.85
   1   2 -18  237.28   19.71
  -1  -2  18  273.20   32.63
  -1   2  18  259.69   27.48
  -1  -2  18  210.26   23.30
   1   2 -18  217.86   22.88
   1  -2 -18  225.95   23.57
  -1  -2  17  270.15   32.38
   1   2 -17  273.10   21.36
  -1   2  17  257.76   27.62
   1  -2 -17  312.51   25.31
  -1  -2  17  244.27   24.30
   1   2 -17  287.85   24.86
  -1  -2  16    7.32   16.67
  -1  -2  16    6.24    8.34
  -1   2  16    4.92   14.60
   1   2 -16    9.44    9.41
  -1  -2  16    3.97   10.76
   1  -2 -16    5.69   11.49
   1   2 -16   12.04   10.92
  -1   2  15   51.06   15.82
  -1  -2  15   79.75   19.44
  -1  -2  15   83.41   10.63
   1   2 -15   72.32   11.65
  -1  -2  15   79.51   13.43
   1  -2 -15  110.36   14.83
   1   2 -15   73.52   13.10
  -1  -2  14  174.03   23.79
   1  -2 -14  246.90   17.31
   1  -2 -14  208.44   16.01
  -1   2  14  200.29   20.60
   1   2 -14  179.63   16.78
   1  -2 -14  172.64   21.19
  -1  -2  14  182.88   18.38
  -1   2  14  198.22   18.33
  -1  -2  14  217.12   17.66
   1   2 -14  161.85   17.68
   1  -2 -14  209.49   19.09
  -1  -2  14  206.97   16.03
  -1   2  13   99.82   15.57
   1  -2 -13  131.08   11.98
  -1  -2  13  112.04   11.44
  -1  -2  13  108.10   18.58
   1   2 -13  114.06   14.32
   1  -2 -13  125.13   12.11
   1  -2 -13   77.53   16.00
  -1  -2  13  105.54   16.10
  -1  -2  13   86.12   12.98
  -1  -2  13  112.83   12.88
   1   2 -13   82.43   12.71
   1  -2 -13  116.23   14.15
  -1   2  13  105.75   13.53
  -1   2  12  574.48   36.05
   1   2 -12  487.87   34.06
   1  -2 -12  598.24   32.70
  -1  -2  12  504.64   39.09
   1  -2 -12  586.51   31.70
  -1   2  12  546.11   34.29
   1  -2 -12  452.29   36.04
   1   2 -12  513.49   35.56
  -1  -2  12  551.61   36.34
  -1  -2  12  546.95   33.01
   1  -2 -12  552.77   34.45
  -1   2  12  559.06   33.78
   1   2 -12  481.38   32.62
   1   2 -12  477.44   33.15
  -1  -2  12  489.82   33.84
   1  -2 -12  529.00   31.81
  -1  -2  12  573.72   31.98
   1   2 -11  372.61   27.18
   1  -2 -11  428.16   24.68
   1  -2 -11  470.97   25.85
  -1   2  11  402.87   28.16
  -1  -2  11  400.36   32.20
   1   2 -11  416.89   28.84
  -1   2  11  403.52   26.92
  -1  -2  11  419.75   29.43
   1  -2 -11  379.26   28.99
  -1  -2  11  425.84   26.15
   1   2 -11  355.55   25.51
  -1  -2  11  390.00   26.82
   1  -2 -11  408.45   27.32
  -1   2  11  425.34   26.82
   1   2 -11  354.98   26.04
   1  -2 -11  398.70   24.89
  -1  -2  11  408.20   24.85
  -1   2  10  488.42   30.78
   1  -2 -10  523.42   28.83
   1   2 -10  467.20   30.52
   1  -2 -10  503.89   27.77
   1   2 -10  400.22   30.44
  -1   2  10  489.85   29.97
   1  -2 -10  449.85   31.73
  -1  -2  10  497.29   32.24
   1  -2 -10  447.45   29.72
  -1  -2  10  466.81   29.79
  -1  -2  10  502.28   28.86
   1   2 -10  430.26   28.38
  -1   2  10  506.02   29.69
   1   2 -10  452.56   29.20
   1  -2 -10  465.08   27.81
   1  -2  -9  474.33   26.32
  -1   2   9  451.27   28.46
   1  -2  -9  475.25   27.33
   1   2  -9  394.54   28.62
   1  -2  -9  422.17   29.54
   1   2  -9  376.42   28.82
  -1   2   9  456.81   28.24
  -1  -2   9  451.70   30.55
  -1  -2   9  496.92   27.56
  -1  -2   9  482.31   28.59
   1   2  -9  438.98   27.70
   1   2  -9  435.94   27.14
   1  -2  -9  431.56   27.95
  -1   2   9  492.70   28.21
   1  -2  -9  494.36   26.66
   1   2  -8  360.34   23.72
   1  -2  -8  341.32   20.58
   1  -2  -8  383.65   21.74
  -1   2   8  356.92   22.54
  -1  -2   8  360.75   25.04
   1   2  -8  287.85   23.05
   1  -2  -8  315.07   23.32
  -1   2   8  354.04   22.40
   1   2  -8  352.12   21.78
  -1  -2   8  388.86   22.96
   1  -2  -8  341.48   22.21
  -1   2   8  365.02   22.37
   1   2  -8  351.48   22.00
  -1  -2   8  371.59   21.76
   1  -2  -8  351.43   20.79
  -1   2   7  821.77   44.50
   1   2  -7  777.08   46.07
   1  -2  -7  834.78   43.21
   1  -2  -7  835.84   44.18
  -1  -2   7  802.13   47.09
   1  -2  -7  748.47   45.35
  -1   2   7  784.77   44.52
   1   2  -7  690.36   45.43
  -1  -2   7  843.12   44.18
  -1   2   7  850.12   44.84
   1   2  -7  861.93   44.64
   1  -2  -7  779.81   44.56
  -1  -2   7  853.30   45.12
   1   2  -7  798.16   44.20
   1  -2  -7  839.95   43.21
   1   2  -6   18.39    6.73
  -1   2   6   26.42    5.18
   1  -2  -6   26.63    4.01
   1  -2  -6   27.04    6.12
  -1  -2   6   23.73    7.18
  -1   2   6   19.31    5.66
   1   2  -6   16.76    5.96
  -1  -2   6   16.64    5.32
   1   2  -6   18.15    5.03
   1  -2  -6   13.21    5.04
   1   2  -6   20.36    4.88
  -1   2   6   14.18    5.38
  -1  -2   6   29.48    4.90
   1  -2  -6   18.88    3.61
  -1   2   5 1255.66   64.06
   1   2  -5 1243.23   66.80
   1  -2  -5 1246.68   63.50
   1   2  -5 1275.70   64.54
   1   2  -5 1203.44   64.64
  -1  -2   5 1250.47   65.21
   1  -2  -5 1214.03   64.76
  -1  -2   5 1226.44   64.35
  -1  -2   5 1298.42   66.99
  -1   2   5 1280.37   64.84
  -1   2   5 1216.65   64.72
   1   2  -5 1205.10   65.55
   1  -2  -5 1164.15   65.00
   1   2  -4 2527.60  128.39
  -1   2   4 2522.54  125.27
  -1  -2   4 2484.15  126.65
  -1  -2   4 2498.89  125.86
   1   2  -4 2421.01  126.23
   1  -2  -4 2337.58  126.10
  -1   2   4 2355.59  125.98
  -1  -2   4 2677.47  127.99
  -1   2   4 2643.57  126.30
   1  -2  -4 2328.00  126.24
   1  -2  -3  482.15   25.43
   1   2  -3  455.72   27.56
  -1   2   3  479.86   24.54
  -1   2   3  483.19   25.61
   1   2  -3  488.55   25.63
  -1  -2   3  445.07   27.76
  -1  -2   3  484.59   26.55
  -1   2   3  447.71   25.50
   1  -2  -3  467.77   25.77
  -1  -2   3  447.35   26.02
   1   2  -3  448.46   25.76
   1  -2  -3  465.14   25.80
  -1   2   2 9294.03  458.66
   1   2  -2 9657.18  458.52
   1   2  -2 8526.55  460.42
   1  -2  -2 8466.32  458.38
  -1   2   2 8859.92  458.63
  -1  -2   2 9999.00  458.91
   1  -2  -2 9221.38  458.84
   1   2  -2 9161.75  459.17
  -1  -2   2 8985.11  459.31
   1   2  -2 9252.47  458.30
  -1  -2   2 8788.29  458.13
  -1   2   1   37.86    3.80
   1  -2  -1   38.04    3.73
   1   2  -1   47.54    3.55
   1  -2  -1   42.56    4.54
  -1   2   1   32.74    4.23
   1   2  -1   37.26    4.76
  -1  -2   1   38.65    4.99
   1   2  -1   39.92    3.51
  -1  -2   1   34.13    3.45
   1   2   0 1185.12   57.59
  -1   2   0 1120.27   58.00
   1  -2   0 1159.01   57.93
  -1  -2   0 1105.11   57.10
   1  -2   0 1237.12   58.57
  -1   2   0 1106.18   57.75
   1   2   0 1171.64   59.22
   1  -2   0 1021.09   57.84
  -1  -2   0 1190.62   59.53
  -1  -2   0 1116.18   57.76
   1  -2   0 1168.57   58.24
   1  -2   1   36.38    5.04
   1   2   1   43.59    3.02
   1  -2   1   42.27    3.56
  -1   2  -1   45.83    3.71
   1   2   1   44.02    2.95
  -1  -2  -1   41.04    3.00
   1  -2   1   40.42    3.51
  -1   2  -1   44.73    3.30
  -1  -2  -1   53.08    6.01
   1   2   1   35.18    4.99
   1   2   1   42.47    3.69
  -1  -2  -1   45.60    3.54
   1   2   1   40.22    3.44
   1  -2   1   50.15    3.58
   1   2   2  227.04   11.81
   1  -2   2  239.77   14.95
   1  -2   2  221.34   12.34
  -1  -2  -2  236.65   11.81
  -1   2  -2  213.89   12.42
  -1  -2  -2  247.77   12.95
   1   2   2  209.31   11.98
   1   2   2  225.97   13.39
   1   2   2  222.23   14.31
  -1   2  -2  204.03   12.14
  -1  -2  -2  224.49   14.89
   1  -2   2  237.01   13.52
   1  -2   2  224.96   12.34
   1   2   2  230.62   12.45
   1   2   2  216.91   12.71
  -1  -2  -2  248.09   12.56
   1  -2   2  206.08   11.84
   1  -2   2  214.29   11.75
   1  -2   3   13.55    5.37
  -1  -2  -3   18.67    1.68
   1   2   3   10.40    3.02
   1   2   3   12.69    1.90
  -1  -2  -3   21.08    4.60
   1   2   3   13.53    3.04
   1  -2   3   11.85    2.29
  -1   2  -3   15.15    2.67
   1   2   3   23.88    5.01
   1  -2   3   11.02    2.70
   1  -2   3   16.07    3.77
   1   2   3   12.60    2.55
   1   2   3   12.05    2.84
   1  -2   3   11.51    1.51
  -1   2  -3   14.96    2.08
  -1   2  -3   16.72    3.84
   1   2   3   15.23    4.23
  -1  -2  -3   22.30    4.08
   1   2   4   10.07    3.55
   1  -2   4   13.04    6.43
  -1  -2  -4   10.72    1.69
   1   2   4   11.23    3.83
   1  -2   4    7.19    2.47
  -1  -2  -4   14.90    5.48
   1   2   4    8.96    2.10
  -1   2  -4    6.60    3.01
   1  -2   4   11.91    3.19
  -1   2  -4    8.93    4.02
   1   2   4    8.01    3.17
   1   2   4   10.18    4.27
  -1   2  -4    8.75    1.65
   1  -2   4   11.71    4.00
  -1   2  -4    9.62    1.52
  -1  -2  -4   10.66    4.37
   1   2   5  969.87   51.33
   1  -2   5 1071.44   55.22
  -1  -2  -5  981.89   49.63
   1  -2   5  954.99   50.25
  -1  -2  -5 1054.74   51.11
  -1  -2  -5  989.89   53.61
   1   2   5  997.69   51.80
   1  -2   5 1020.12   52.07
  -1   2  -5 1051.62   52.66
   1   2   5  966.11   52.18
  -1   2  -5  976.76   51.22
   1  -2   5 1015.74   51.22
  -1  -2  -5  949.70   52.19
  -1   2  -5  941.50   49.23
  -1  -2  -5  901.82   51.31
  -1  -2  -6 1317.34   65.10
   1  -2   6 1356.91   71.18
  -1  -2  -6 1329.38   66.54
   1   2   6 1292.70   67.09
   1  -2   6 1190.84   65.53
  -1  -2  -6 1340.59   69.76
   1   2   6 1244.84   67.52
   1  -2   6 1257.66   67.46
   1   2   6 1307.98   68.07
  -1   2  -6 1328.50   68.27
  -1  -2  -6 1213.38   67.85
  -1   2  -6 1278.15   66.86
   1  -2   6 1281.23   66.86
  -1  -2  -6 1451.39   66.75
  -1  -2  -6 1373.85   66.21
  -1   2  -6 1208.97   64.54
  -1  -2  -6 1209.02   66.94
  -1   2  -7  657.75   35.38
   1   2   7  660.46   36.96
  -1  -2  -7  726.87   36.28
   1  -2   7  656.23   40.92
  -1  -2  -7  688.64   34.64
  -1   2  -7  601.25   38.46
   1   2   7  633.23   37.45
  -1  -2  -7  716.11   40.10
   1  -2   7  653.41   36.99
   1  -2   7  675.84   37.23
   1   2   7  647.74   37.61
  -1   2  -7  650.15   36.60
   1  -2   7  608.48   36.36
  -1   2  -7  681.14   38.08
  -1  -2  -7  600.90   37.51
  -1   2  -7  628.05   33.86
  -1  -2  -7  731.06   35.90
  -1  -2  -7  650.10   36.90
  -1  -2  -7  693.19   36.24
  -1  -2  -8 1669.62   81.16
   1   2   8 1627.02   82.41
  -1   2  -8 1577.62   80.36
  -1  -2  -8 1558.15   79.48
  -1   2  -8 1484.23   83.39
   1  -2   8 1414.88   85.83
  -1  -2  -8 1607.42   85.13
   1  -2   8 1487.80   82.04
   1   2   8 1492.50   82.53
   1  -2   8 1549.69   81.78
  -1  -2  -8 1467.86   82.86
   1   2   8 1618.29   83.02
   1  -2   8 1603.49   82.27
  -1   2  -8 1541.02   83.11
  -1  -2  -8 1654.96   81.26
  -1  -2  -8 1534.21   81.96
  -1   2  -8 1488.18   78.62
   1  -2   9   53.63   12.01
  -1  -2  -9   48.28    8.19
  -1   2  -9   40.65    9.32
  -1  -2  -9   39.17    6.88
  -1  -2  -9   40.08    5.23
  -1   2  -9   35.92    5.96
   1   2   9   55.67    9.33
  -1  -2  -9   34.46   10.16
   1  -2   9   41.74    7.95
   1  -2   9   45.66    7.73
  -1  -2  -9   51.27    9.21
  -1   2  -9   37.34    8.65
  -1  -2  -9   48.75    7.08
   1  -2   9   50.53    7.79
   1   2   9   30.01    8.09
  -1   2 -10  205.72   17.46
   1  -2  10  200.37   21.05
  -1   2 -10  163.69   13.52
  -1  -2 -10  205.57   13.09
  -1  -2 -10  213.32   14.87
   1  -2  10  184.86   16.28
  -1  -2 -10  218.85   19.26
   1   2  10  202.94   17.08
   1  -2  10  180.01   15.41
  -1   2 -10  196.79   16.91
  -1  -2 -10  205.25   17.22
   1   2  10  224.29   17.26
  -1  -2 -10  208.77   16.30
  -1  -2 -10  210.29   14.97
  -1   2 -11  503.28   34.00
  -1  -2 -11  572.81   30.57
  -1   2 -11  441.60   30.90
  -1  -2 -11  583.44   32.23
   1  -2  11  522.57   39.04
   1   2  11  566.92   34.62
  -1  -2 -11  602.67   37.15
   1  -2  11  537.62   34.38
   1   2  11  579.82   34.57
  -1  -2 -11  503.24   34.65
  -1   2 -11  529.74   34.77
   1  -2  11  573.71   33.74
   1  -2  11  548.71   33.13
  -1  -2 -11  622.28   34.35
  -1  -2 -11  536.38   32.12
   1  -2  12   13.79   12.85
  -1  -2 -12   23.85    7.47
   1  -2  12    9.97    8.06
  -1  -2 -12   16.32    8.69
  -1   2 -12   18.07    9.52
   1  -2  12   13.05    9.12
  -1   2 -12    8.89    5.57
   1   2  12   24.20   10.42
  -1  -2 -12   18.43   10.82
  -1  -2 -12   19.49    5.76
   1  -2  12   12.61    8.39
   1   2  12   27.29    9.93
  -1  -2 -12   20.47    9.78
  -1   2 -12   17.81    9.48
  -1  -2 -12   21.04    7.40
  -1  -2 -13  659.95   36.35
  -1  -2 -13  659.57   34.62
   1  -2  13  620.57   45.18
   1   2  13  675.54   39.41
  -1  -2 -13  701.16   42.02
  -1   2 -13  606.38   39.64
   1  -2  13  569.74   37.56
  -1  -2 -13  644.11   39.74
   1   2  13  610.98   38.24
  -1  -2 -13  623.91   36.45
   1  -2  13  635.08   37.15
  -1  -2 -13  640.50   38.41
   1  -2  14  123.45   21.62
  -1  -2 -14  124.65   10.51
  -1  -2 -14  125.13   14.65
  -1  -2 -14  109.77   16.86
  -1   2 -14   77.34   10.27
   1   2  14  100.92   14.38
   1  -2  14  106.20   14.07
  -1  -2 -14   98.77   12.18
  -1   2 -14  111.85   15.61
  -1  -2 -14  110.55   15.27
   1  -2  15  629.72   47.96
  -1   2 -15  509.68   35.23
   1   2  15  632.79   43.06
  -1  -2 -15  678.12   35.15
  -1  -2 -15  597.96   41.86
   1   2  15  574.11   38.97
   1  -2  15  603.48   38.96
  -1   2 -15  639.41   41.54
  -1  -2 -15  635.37   40.84
  -1  -2 -15  588.98   36.91
  -1  -2 -15  648.88   39.52
   1   2  16  134.31   20.40
   1  -2  16  101.11   23.20
  -1  -2 -16  113.71   11.10
  -1  -2 -16  129.74   18.84
  -1   2 -16   99.27   12.23
   1   2  16  110.47   16.03
   1  -2  16  121.52   15.94
  -1   2 -16   95.92   16.62
  -1  -2 -16  121.73   17.25
  -1  -2 -16  118.90   13.30
  -1   2 -17  406.59   28.09
   1   2  17  467.52   37.14
  -1  -2 -17  478.99   27.33
  -1  -2 -17  414.65   34.53
  -1   2 -17  447.15   34.01
   1   2  17  419.48   31.97
  -1  -2 -17  466.10   34.21
   1  -2  17  410.20   31.71
  -1   2 -18  162.58   15.80
   1   2  18  185.86   25.05
  -1  -2 -18  189.76   14.92
  -1  -2 -18  164.66   14.74
  -1  -2 -18  220.75   23.36
   1  -2  18  159.83   19.96
   1   2  18  193.73   20.71
  -1   2 -18  204.08   22.40
  -1  -2 -18  169.24   16.12
  -1  -2 -18  187.41   21.71
   1   2  19   39.26   19.28
  -1  -2 -19   39.01    9.15
  -1   2 -19   24.14    9.70
   1  -2  19   44.51   15.02
   1   2  19   27.36   14.13
  -1  -2 -19   46.48   16.14
  -1   2 -19   11.88   15.17
  -1  -2 -19   31.95   10.20
  -1   2 -19   37.83    6.82
  -1  -3  18  196.51   30.64
  -1   3  18  174.64   24.05
   1   3 -18  204.57   18.58
  -1   3  18  173.32   20.81
  -1  -3  18  172.63   21.05
   1   3 -18  169.86   20.82
   1   3 -18  230.63   16.51
   1  -3 -18  187.09   21.76
  -1  -3  17   73.51   22.21
  -1   3  17   65.16   17.50
   1   3 -17   71.80   12.54
  -1   3  17   74.66   15.44
  -1  -3  17   74.00   14.94
   1   3 -17   56.33   13.79
   1  -3 -17  101.29   16.47
   1   3 -17   71.54   10.28
  -1  -3  16  102.38   24.36
   1   3 -16  150.20   14.86
  -1   3  16  153.00   19.96
  -1   3  16  139.57   17.63
  -1  -3  16  132.85   17.55
   1   3 -16   98.11   15.85
   1  -3 -16  127.16   17.35
  -1  -3  15    1.27   15.61
  -1   3  15   37.86   13.91
   1  -3 -15   24.02    9.10
   1   3 -15   20.79    9.16
  -1   3  15   34.80   11.73
  -1  -3  15   41.73   11.56
   1   3 -15   17.00   10.19
   1  -3 -15   11.72   11.02
   1  -3 -14    7.57    7.40
   1  -3 -14   15.05    8.19
  -1  -3  14   -4.79   14.88
  -1  -3  14    7.50    7.75
  -1   3  14   -0.64   11.61
   1  -3 -14   -3.24    7.56
   1   3 -14    1.56    7.81
  -1   3  14   -5.86   10.49
  -1  -3  14    3.00    9.49
   1  -3 -14   -4.10   10.14
   1   3 -14   -2.83    9.53
   1  -3 -13  423.30   25.10
   1  -3 -13  442.74   25.95
  -1   3  13  402.02   29.36
  -1  -3  13  350.39   34.14
   1   3 -13  334.43   27.10
  -1   3  13  363.81   28.08
  -1  -3  13  397.11   28.25
   1  -3 -13  422.84   28.77
  -1   3  13  398.06   28.30
  -1  -3  13  410.23   26.64
   1  -3 -13  408.74   25.93
  -1  -3  13  392.66   25.70
  -1   3  12  198.75   18.28
   1  -3 -12  215.60   15.02
  -1  -3  12  197.97   24.47
   1  -3 -12  228.08   16.01
   1   3 -12  173.19   18.60
  -1  -3  12  196.67   20.36
  -1   3  12  178.84   17.40
  -1   3  12  182.75   17.86
   1   3 -12  207.82   17.71
   1  -3 -12  179.89   17.81
  -1  -3  12  230.79   17.02
  -1  -3  12  195.96   17.75
  -1   3  12  238.81   18.62
   1  -3 -12  182.07   15.48
  -1   3  11  458.55   29.06
   1   3 -11  392.71   29.59
   1  -3 -11  465.32   26.14
   1  -3 -11  476.16   26.96
  -1  -3  11  383.28   30.40
  -1   3  11  456.59   28.66
  -1  -3  11  424.73   27.28
  -1   3  11  411.29   28.72
   1   3 -11  430.10   28.41
  -1   3  11  493.51   29.39
   1  -3 -11  403.71   28.59
  -1  -3  11  427.17   28.84
   1  -3 -11  424.13   26.54
   1  -3 -10  355.09   21.71
   1   3 -10  308.20   24.31
   1  -3 -10  364.14   20.79
  -1   3  10  299.97   22.57
  -1  -3  10  344.13   25.43
  -1   3  10  315.03   22.72
  -1  -3  10  366.16   22.27
  -1   3  10  360.28   23.50
  -1  -3  10  366.96   23.88
   1   3 -10  353.97   23.03
   1  -3 -10  334.75   23.17
  -1   3  10  313.66   23.24
   1   3 -10  335.52   20.56
   1  -3 -10  318.60   20.99
   1   3  -9  416.82   28.20
   1  -3  -9  458.88   25.31
   1   3  -9  354.79   25.09
  -1   3   9  428.66   25.74
   1  -3  -9  451.82   24.20
  -1   3   9  422.31   26.18
  -1  -3   9  397.00   28.19
   1  -3  -9  363.10   25.95
  -1  -3   9  436.18   25.56
  -1   3   9  445.29   26.79
  -1  -3   9  445.55   26.96
   1   3  -9  381.28   25.67
   1   3  -9  408.00   24.02
   1  -3  -9  416.18   24.32
   1   3  -8  307.58   22.09
   1  -3  -8  373.26   22.18
  -1   3   8  363.67   22.31
   1   3  -8  389.48   25.53
  -1   3   8  367.21   22.96
  -1  -3   8  371.19   25.11
   1  -3  -8  347.73   23.16
   1   3  -8  394.23   23.16
  -1  -3   8  381.20   23.72
  -1   3   8  380.76   23.60
  -1  -3   8  404.78   22.79
   1  -3  -8  349.34   21.12
   1   3  -8  361.92   21.28
  -1   3   7   70.84    7.36
   1   3  -7   52.97    9.64
  -1   3   7   68.77    8.22
   1  -3  -7   60.34    7.20
  -1   3   7   71.98    7.80
   1   3  -7   60.73    7.46
  -1  -3   7   65.06    9.44
  -1   3   7   72.67    8.54
  -1  -3   7   66.88    8.61
   1   3  -7   55.33    7.41
  -1  -3   7   64.99    7.42
   1  -3  -7   65.93    6.38
   1  -3  -7   61.30    8.08
   1   3  -7   71.43    6.66
  -1   3   6  680.63   35.48
   1  -3  -6  687.99   35.94
   1   3  -6  621.91   38.86
   1   3  -6  653.06   36.21
  -1  -3   6  651.40   37.93
  -1   3   6  639.55   36.33
  -1   3   6  671.51   36.24
   1   3  -6  629.04   36.21
  -1  -3   6  673.28   37.24
  -1  -3   6  669.91   36.20
   1  -3  -6  630.54   36.66
   1   3  -6  644.80   35.20
   1   3  -5  947.47   48.62
  -1   3   5  892.32   47.41
  -1   3   5  968.11   48.63
  -1  -3   5  866.16   52.15
   1   3  -5  883.73   51.42
  -1  -3   5  927.21   49.49
   1  -3  -5  864.61   48.85
   1   3  -5  860.79   48.60
  -1  -3   5  941.07   48.58
  -1  -3   5  960.91   49.73
  -1   3   5  870.79   48.36
  -1   3   4 1080.43   54.89
   1   3  -4 1072.10   54.79
   1   3  -4 1079.68   58.32
  -1  -3   4  976.09   58.21
  -1   3   4 1083.96   53.87
  -1  -3   4 1055.29   55.34
  -1   3   4  946.61   54.69
   1  -3  -4 1037.52   55.53
  -1  -3   4 1058.52   54.97
  -1  -3   4 1010.84   55.70
   1   3  -4 1011.82   55.19
   1   3  -3 2644.96  159.07
   1   3  -3 3326.80  157.35
  -1   3   3 3065.56  157.32
  -1   3   3 2899.79  157.28
  -1  -3   3 3120.14  157.34
   1   3  -3 3147.93  158.07
  -1  -3   3 3141.21  158.53
   1  -3  -3 3083.28  158.08
  -1  -3   3 3222.71  157.66
  -1  -3   3 3072.63  156.69
   1  -3  -3 3179.14  158.41
   1   3  -2   36.70    7.67
  -1   3   2   32.17    4.33
   1   3  -2   31.57    4.09
  -1   3   2   30.23    5.48
   1  -3  -2   34.87    4.24
  -1   3   2   31.67    5.56
   1   3  -2   25.78    5.50
  -1  -3   2   30.38    5.84
   1  -3  -2   31.92    5.12
  -1  -3   2   26.60    3.61
   1   3  -1 2890.34  146.72
  -1   3   1 2788.23  147.11
   1  -3  -1 2919.51  147.01
  -1   3   1 2901.58  147.48
   1   3  -1 3037.89  148.52
  -1  -3   1 3040.72  149.00
  -1   3   1 2921.00  147.54
   1  -3  -1 2962.56  147.60
  -1  -3   1 2798.50  146.76
   1   3   0   65.40    4.97
  -1  -3   0   83.27    5.33
   1  -3   0   66.12    5.39
  -1   3   0   67.22    7.31
  -1   3   0   57.07    5.47
  -1  -3   0   85.77    5.20
  -1   3   0   70.00    5.91
   1  -3   0   61.82    6.13
   1   3   0   59.14    5.57
  -1  -3   0   62.15    5.21
   1  -3   0   60.69    5.52
   1   3   0   65.80    5.25
   1  -3   1  501.29   26.78
  -1   3  -1  477.22   26.90
  -1   3  -1  512.86   29.31
   1   3   1  493.60   26.30
  -1  -3  -1  585.57   26.58
   1  -3   1  500.34   27.51
  -1  -3  -1  456.41   26.11
  -1  -3  -1  542.82   29.71
   1   3   1  537.55   28.91
  -1   3  -1  511.27   26.86
   1  -3   1  464.11   27.17
   1  -3   1  504.74   26.65
   1   3   1  492.26   26.75
   1   3   1  506.26   27.16
   1  -3   1  518.36   26.47
   1  -3   2    7.22    5.31
  -1  -3  -2    8.38    2.16
   1   3   2    4.38    2.14
   1   3   2    6.64    2.75
  -1   3  -2    6.87    2.81
  -1  -3  -2    6.94    2.84
   1  -3   2    5.48    2.80
   1  -3   2    6.49    3.18
  -1  -3  -2   13.77    6.28
   1   3   2    5.93    5.19
  -1   3  -2    4.74    2.66
   1  -3   2    8.00    4.11
   1   3   2    6.42    2.92
   1  -3   2    3.92    2.06
   1  -3   2    3.45    2.09
  -1   3  -2    5.92    2.91
  -1  -3  -2    9.23    2.89
   1   3   2    5.28    3.00
   1  -3   3   10.00    5.35
  -1  -3  -3   19.21    2.43
  -1  -3  -3   16.84    3.91
   1   3   3   17.11    2.79
   1   3   3   17.20    3.31
  -1   3  -3   15.51    3.25
   1  -3   3   11.59    3.04
  -1   3  -3   16.93    3.36
   1   3   3   19.26    5.66
   1  -3   3   13.08    3.46
   1  -3   3   17.66    4.58
  -1  -3  -3   17.85    3.44
  -1  -3  -3   16.21    3.51
   1   3   3   13.04    3.72
  -1   3  -3   18.72    3.18
   1  -3   4  292.70   19.97
   1   3   4  262.08   14.86
   1   3   4  268.60   15.98
   1  -3   4  265.36   15.33
  -1  -3  -4  273.30   14.50
  -1  -3  -4  293.61   16.92
   1   3   4  255.01   15.37
   1   3   4  279.52   18.40
  -1   3  -4  254.48   15.47
   1  -3   4  279.09   17.03
  -1  -3  -4  260.81   16.91
   1   3   4  270.26   17.14
   1  -3   4  264.48   15.88
  -1   3  -4  287.72   14.96
   1   3   4  259.95   16.21
   1  -3   4  262.10   14.42
  -1  -3  -5  228.42   12.43
   1   3   5  219.91   12.83
   1   3   5  229.24   14.21
   1  -3   5  230.68   13.40
   1  -3   5  246.60   18.94
  -1  -3  -5  249.86   16.08
   1   3   5  216.67   13.73
   1  -3   5  234.24   14.13
   1   3   5  232.01   16.98
   1   3   5  233.19   15.67
  -1  -3  -5  204.14   15.10
  -1   3  -5  210.89   13.68
   1  -3   5  230.64   15.08
  -1   3  -5  211.06   12.48
  -1   3  -5  232.84   12.31
   1   3   5  203.32   14.22
   1  -3   6  668.33   39.28
   1  -3   6  600.99   32.66
  -1  -3  -6  624.60   31.89
   1   3   6  598.04   33.75
  -1  -3  -6  616.93   36.02
   1   3   6  582.43   32.32
   1   3   6  592.99   33.48
  -1   3  -6  635.33   33.50
  -1   3  -6  621.38   35.23
   1  -3   6  618.54   34.60
  -1  -3  -6  566.72   34.68
   1   3   6  650.92   35.26
   1  -3   6  655.39   33.91
  -1  -3  -6  573.60   33.75
  -1   3  -6  617.60   31.53
  -1   3  -6  600.19   31.75
   1  -3   7 1313.32   71.66
   1  -3   7 1199.16   64.47
  -1  -3  -7 1268.08   63.73
  -1  -3  -7 1221.27   68.48
   1   3   7 1184.52   65.65
  -1   3  -7 1261.21   67.38
   1  -3   7 1228.51   66.49
   1   3   7 1299.27   67.31
  -1   3  -7 1184.43   65.36
  -1  -3  -7 1180.96   66.85
   1  -3   7 1282.11   65.93
  -1   3  -7 1204.69   63.13
  -1  -3  -7 1148.78   65.60
  -1  -3  -7 1384.89   65.49
  -1  -3  -7 1423.13   66.09
  -1  -3  -8   61.47    5.35
   1  -3   8   75.90   13.88
  -1  -3  -8   52.90   10.67
   1  -3   8   51.58    8.00
  -1   3  -8   49.69    6.56
   1   3   8   48.95    8.07
  -1   3  -8   47.04    7.27
   1  -3   8   60.46    8.04
  -1  -3  -8   46.85    8.69
   1  -3   8   61.04    8.36
  -1  -3  -8   58.31    7.24
  -1  -3  -8   54.66    7.58
  -1   3  -8   53.55    4.39
  -1   3  -8   57.58    9.21
   1   3   8   54.37    9.17
  -1  -3  -8   52.15    7.91
  -1   3  -9  879.83   49.36
   1  -3   9  973.54   57.61
  -1  -3  -9  951.20   48.17
  -1  -3  -9 1010.32   50.02
  -1  -3  -9  881.76   54.07
   1  -3   9  870.28   51.16
   1   3   9  886.50   50.79
  -1   3  -9  964.15   52.71
  -1   3  -9  885.35   50.32
   1   3   9  922.78   52.09
   1  -3   9  888.01   50.74
  -1  -3  -9  836.51   51.74
  -1  -3  -9  961.38   51.10
  -1  -3  -9 1022.06   50.73
  -1   3  -9  883.52   47.31
  -1  -3  -9  943.29   49.93
  -1   3 -10  136.79   15.25
   1  -3  10  167.05   19.83
  -1   3 -10  130.97   11.70
  -1  -3 -10  160.87   10.44
  -1  -3 -10  158.43   12.50
  -1  -3 -10  152.24   16.80
   1  -3  10  139.71   13.81
   1   3  10  161.55   14.08
  -1  -3 -10  155.50   15.11
   1  -3  10  152.12   13.63
   1   3  10  158.54   15.02
  -1   3 -10  150.63   13.04
  -1   3 -10  140.01   14.75
  -1   3 -10  150.47    9.39
  -1  -3 -10  151.54   12.76
  -1  -3 -10  151.56   12.27
  -1  -3 -10  141.39   13.28
  -1  -3 -11    7.51    8.08
  -1  -3 -11    4.71    6.48
  -1   3 -11    3.74    9.29
   1  -3  11    2.43    6.92
   1  -3  11   22.66   13.62
  -1  -3 -11   -5.85   11.17
   1   3  11    6.57    8.36
  -1  -3 -11    2.11    4.53
   1  -3  11    1.40    8.27
  -1   3 -11   10.19    5.82
   1  -3  11    3.30    7.24
  -1   3 -11    1.00    3.29
   1   3  11    2.86    9.14
  -1   3 -11    7.63    8.82
  -1  -3 -11    7.77    9.32
  -1  -3 -11    2.96    6.39
  -1  -3 -11   14.17    7.01
   1  -3  12  325.00   31.42
  -1  -3 -12  405.08   21.42
  -1   3 -12  315.91   26.07
  -1  -3 -12  411.93   23.70
  -1   3 -12  273.57   22.12
  -1  -3 -12  386.79   28.88
   1   3  12  333.68   24.80
  -1  -3 -12  371.21   26.68
  -1   3 -12  334.23   26.64
   1   3  12  418.55   26.78
   1  -3  12  347.23   24.74
  -1   3 -12  346.76   19.94
  -1  -3 -12  377.39   24.00
   1  -3  12  377.57   24.73
  -1  -3 -12  347.62   23.01
  -1  -3 -12  388.03   25.44
   1  -3  13   67.26   17.78
  -1  -3 -13   37.20   10.60
   1   3  13   54.38   13.18
  -1  -3 -13   47.70    6.76
  -1   3 -13   30.73    7.52
   1   3  13   40.44   11.42
  -1  -3 -13   60.39   14.57
   1  -3  13   44.08   10.33
  -1  -3 -13   53.56   11.94
  -1  -3 -13   37.11    8.73
  -1   3 -13   42.45   12.17
  -1  -3 -13   52.23    9.63
  -1   3 -13   35.46    5.08
   1   3  14  633.42   39.19
   1  -3  14  598.89   45.52
  -1  -3 -14  632.82   31.80
  -1   3 -14  415.64   32.07
  -1  -3 -14  613.74   39.75
  -1   3 -14  572.89   38.29
  -1  -3 -14  629.49   38.17
   1  -3  14  529.12   35.78
  -1  -3 -14  610.52   36.52
  -1  -3 -14  626.48   34.93
  -1  -3 -14  635.90   34.09
  -1   3 -14  483.77   29.88
   1  -3  15   81.00   21.21
  -1  -3 -15  112.74    9.70
  -1  -3 -15   89.57   14.10
   1   3  15  104.72   17.58
  -1  -3 -15  104.46   17.25
  -1   3 -15   72.51   10.32
   1  -3  15   78.09   13.47
   1   3  15   83.18   14.57
  -1  -3 -15  100.82   12.02
  -1   3 -15   94.57   15.83
  -1  -3 -15   79.69   15.08
  -1   3 -15   70.99    7.25
  -1   3 -16  401.63   27.97
  -1  -3 -16  515.91   27.04
   1   3  16  480.85   35.92
   1  -3  16  416.53   41.03
  -1  -3 -16  495.42   35.58
  -1   3 -16  454.28   34.15
   1  -3  16  449.81   31.91
   1   3  16  444.46   32.04
  -1  -3 -16  427.30   33.01
  -1  -3 -16  533.64   32.72
  -1   3 -16  384.73   24.59
  -1  -3 -16  476.57   29.12
   1   3  17  149.78   21.49
  -1  -3 -17  117.60   16.03
  -1  -3 -17  118.72   10.80
   1  -3  17   78.69   24.52
  -1   3 -17   87.26   11.97
  -1  -3 -17  107.17   18.78
   1   3  17  113.63   17.35
   1  -3  17   94.02   15.96
  -1  -3 -17  113.79   17.92
  -1  -3 -17  137.99   13.49
  -1   3 -17   90.62   17.33
  -1   3 -17   84.02    8.30
   1  -3  18  137.22   28.64
   1   3  18   92.48   21.28
  -1   3 -18  125.54   13.76
  -1  -3 -18  132.21   20.42
   1   3  18  120.65   17.89
   1  -3  18  128.58   18.02
  -1  -3 -18  133.50   14.52
  -1   3 -18  134.05   19.54
  -1   3 -18  116.79    9.71
  -1  -3 -18  164.80   20.27
   1   3  19  127.74   23.15
  -1   3 -19  122.58   14.08
  -1  -3 -19  131.54   20.92
   1   3  19  109.00   18.54
   1  -3  19  112.92   18.43
  -1  -3 -19  123.24   20.22
  -1   3 -19  101.00   19.12
  -1  -3 -19  116.23   14.04
  -1   4  18   12.26   16.55
  -1  -4  18   29.42   20.05
   1  -4 -18   15.47   16.75
   1   4 -18   27.26   12.02
  -1   4  18   35.60   13.77
  -1  -4  18   31.89   14.71
   1  -4 -18   21.40   14.73
   1   4 -18   28.81    8.60
   1   4 -18    5.00   12.72
  -1   4  17  147.63   21.31
  -1  -4  17  114.33   23.59
   1  -4 -17  138.22   15.25
   1  -4 -17  134.57   21.82
   1   4 -17  154.38   16.67
  -1  -4  17  137.71   19.18
  -1   4  17  168.01   19.10
   1   4 -17  163.22   13.59
   1   4 -17  106.57   17.14
   1  -4 -17  176.59   20.04
   1  -4 -16   18.31    9.50
  -1   4  16   10.03   13.26
  -1  -4  16   19.25   17.09
   1   4 -16   15.68    9.80
   1  -4 -16    8.67   14.21
  -1   4  16    9.44   11.75
  -1  -4  16   -0.72   11.22
   1  -4 -16   13.68   13.18
   1   4 -16    6.97    7.37
   1   4 -16    0.65   10.55
  -1   4  15   91.67   15.53
   1  -4 -15   75.98   11.33
  -1  -4  15   34.02   17.06
   1   4 -15   52.13   11.30
   1  -4 -15   93.67   17.44
  -1   4  15   72.57   14.18
  -1  -4  15   57.42   13.62
   1  -4 -15   71.20   15.01
   1   4 -15   65.89   12.92
   1   4 -15   70.17    9.40
  -1  -4  14   50.31   16.78
  -1   4  14   55.96   13.19
   1  -4 -14   78.40   10.61
   1   4 -14   34.06   10.14
   1  -4 -14   53.69   15.07
  -1   4  14   59.20   12.78
  -1  -4  14   45.12   12.17
   1   4 -14   55.45    8.50
   1   4 -14   67.71   12.41
   1  -4 -14   49.51   13.18
  -1   4  13   18.27   10.44
   1  -4 -13   23.90    8.41
   1  -4 -13   -0.72   12.30
   1  -4 -13   19.37    7.70
  -1  -4  13   27.19   11.10
  -1   4  13   11.58   10.55
   1  -4 -13   25.35   11.05
   1   4 -13   18.50    6.94
   1   4 -13    8.45    9.54
  -1  -4  13   20.39    8.89
  -1   4  12  564.78   36.34
   1  -4 -12  704.82   35.15
  -1  -4  12  523.01   38.36
   1  -4 -12  466.53   38.17
   1  -4 -12  561.94   37.20
  -1   4  12  585.80   37.07
   1   4 -12  557.50   36.54
  -1  -4  12  589.70   35.54
  -1  -4  12  646.35   38.18
   1   4 -12  569.59   33.30
   1  -4 -12  605.10   34.84
   1   4 -11   44.06   11.93
  -1   4  11   21.63    8.75
  -1   4  11   10.71    9.36
   1  -4 -11   19.82    7.40
  -1  -4  11   23.96   10.95
   1  -4 -11   13.24   11.04
  -1  -4  11   20.33    9.83
   1   4 -11   28.24    8.22
  -1   4  11   31.20   10.56
   1  -4 -11   23.49    7.20
   1   4 -11   25.71    6.65
   1  -4 -11   18.43    9.46
  -1  -4  11   37.20    8.55
   1  -4 -11    8.97    9.87
   1   4 -10  720.81   47.06
  -1   4  10  880.42   47.67
   1   4 -10  759.74   50.18
   1  -4 -10  930.81   46.95
  -1  -4  10  819.46   50.11
  -1   4  10  871.94   48.01
  -1  -4  10  947.55   50.03
  -1  -4  10  866.74   47.68
  -1   4  10  906.65   49.20
   1  -4 -10  762.29   48.44
   1   4 -10  859.89   45.97
   1  -4 -10  810.25   46.27
  -1   4   9  342.73   21.06
   1  -4  -9  363.13   20.86
   1   4  -9  286.89   24.30
   1   4  -9  280.00   21.13
  -1   4   9  332.40   21.25
  -1   4   9  312.84   21.60
  -1  -4   9  320.79   23.67
  -1  -4   9  344.42   21.63
  -1  -4   9  366.99   23.53
   1  -4  -9  299.11   22.29
   1  -4  -9  319.14   20.11
   1   4  -9  328.92   19.87
  -1   4   8  177.61   12.96
   1   4  -8  155.38   16.77
   1   4  -8  156.84   13.52
   1  -4  -8  181.60   12.83
  -1  -4   8  164.92   15.12
  -1   4   8  180.23   13.66
  -1   4   8  177.32   14.10
  -1  -4   8  193.96   15.40
   1  -4  -8  161.59   14.66
  -1  -4   8  174.36   13.47
   1  -4  -8  188.49   15.53
   1   4  -8  175.15   12.21
   1   4  -7  233.25   16.39
   1   4  -7  240.17   19.89
  -1  -4   7  233.96   21.33
   1  -4  -7  229.56   15.40
  -1   4   7  235.95   15.31
  -1   4   7  215.42   16.18
  -1  -4   7  238.27   17.49
  -1   4   7  266.35   16.64
  -1  -4   7  267.17   17.96
  -1  -4   7  239.87   16.22
   1  -4  -7  256.56   17.46
   1   4  -7  228.68   14.94
   1  -4  -7  220.14   17.40
  -1   4   6   52.65    6.10
  -1  -4   6   51.77   11.68
   1   4  -6   56.65   10.98
   1  -4  -6   55.85    6.51
  -1   4   6   60.08    7.20
  -1   4   6   41.25    7.34
   1   4  -6   50.45    7.27
  -1  -4   6   55.32    7.76
  -1  -4   6   65.61    8.69
   1   4  -6   45.09    5.80
   1  -4  -6   57.36    8.42
  -1  -4   6   49.24    7.21
   1  -4  -6   55.32    8.33
   1   4  -5   17.89    8.60
  -1   4   5   13.79    4.07
  -1  -4   5   24.34    9.57
  -1   4   5   15.91    5.10
  -1  -4   5   11.11    5.34
   1   4  -5   13.55    4.84
   1  -4  -5   20.67    4.75
  -1   4   5   12.96    5.71
  -1  -4   5    9.59    6.05
  -1  -4   5   23.63    5.63
   1  -4  -5   21.08    6.25
   1   4  -5   15.20    4.08
   1  -4  -5   23.81    6.61
  -1   4   4  334.13   20.04
   1   4  -4  346.75   19.86
   1   4  -4  320.15   24.12
  -1   4   4  300.75   20.06
  -1  -4   4  339.15   20.04
  -1   4   4  359.73   21.99
  -1  -4   4  371.72   20.85
   1  -4  -4  329.47   21.29
  -1  -4   4  336.15   21.70
  -1  -4   4  330.81   19.16
   1  -4  -4  357.14   21.29
   1   4  -3   22.60    7.30
   1   4  -3   20.36    4.25
  -1   4   3   24.12    4.82
  -1   4   3    4.70    5.88
   1  -4  -3   24.51    6.75
  -1   4   3   15.23    6.50
  -1  -4   3   19.30    6.40
  -1  -4   3   25.14    3.98
   1  -4  -3   21.68    5.49
   1   4  -2 1716.74   89.07
  -1   4   2 1707.63   89.51
   1   4  -2 1673.97   93.32
  -1   4   2 1738.04   89.84
  -1  -4   2 1834.16   91.76
  -1   4   2 1798.75   90.51
   1  -4  -2 1807.61   90.10
  -1  -4   2 1676.17   88.90
   1   4  -1   -8.88    9.04
  -1   4   1   18.86    7.05
  -1   4   1    0.97    3.66
  -1  -4   1   -1.54    3.56
  -1  -4   1    5.20    3.82
   1   4  -1   -1.84    3.35
  -1  -4   1   -1.29    7.38
  -1   4   1   17.55    5.13
   1  -4  -1   -0.44    3.59
  -1  -4   1    1.03    3.33
   1  -4  -1   -3.14    4.22
  -1   4   0  764.14   45.45
  -1  -4   0  949.01   43.07
   1  -4   0  832.27   43.08
   1   4   0  788.62   42.66
  -1   4   0  773.97   43.24
  -1  -4   0  813.21   42.54
   1  -4   0  745.28   44.20
  -1   4   0  877.12   43.94
  -1  -4   0  878.25   46.39
   1   4   0  794.99   42.97
   1  -4   0  849.62   43.30
   1   4   0  816.15   43.58
   1  -4   0  813.53   42.95
  -1  -4   0  775.46   42.89
   1  -4   1  251.32   14.75
   1   4   1  247.18   14.30
  -1   4  -1  242.43   14.96
  -1   4  -1  231.12   17.34
  -1  -4  -1  301.78   14.61
  -1  -4  -1  231.39   14.23
  -1  -4  -1  276.53   18.68
   1  -4   1  240.48   15.74
  -1   4  -1  247.53   15.11
   1  -4   1  243.94   14.33
  -1   4  -1  275.14   15.95
   1   4   1  254.34   14.86
   1  -4   1  243.01   14.50
   1   4   1  252.36   15.46
   1  -4   2  140.48    9.05
  -1   4  -2  125.79    9.24
   1   4   2  129.37    8.53
  -1   4  -2  167.30   13.38
  -1  -4  -2  155.34    8.57
   1   4   2  119.41    8.58
  -1  -4  -2  123.61    8.64
   1  -4   2  125.87    9.96
  -1  -4  -2  136.12   12.85
  -1   4  -2  129.96    9.31
   1  -4   2  136.90    8.37
   1   4   2  128.71    9.78
  -1   4  -2  149.74    9.83
   1   4   2  127.42    9.08
   1  -4   2  138.13    8.54
   1   4   3  717.91   37.32
  -1   4  -3  683.81   41.27
  -1  -4  -3  767.33   37.10
   1  -4   3  704.87   42.13
   1  -4   3  697.87   37.63
  -1   4  -3  695.41   37.93
   1   4   3  675.46   37.34
  -1  -4  -3  654.27   37.54
   1  -4   3  703.21   38.62
   1  -4   3  746.66   39.56
  -1   4  -3  680.19   37.77
  -1  -4  -3  746.99   38.01
   1   4   3  685.00   38.60
  -1   4  -3  736.50   38.10
  -1  -4  -3  738.03   38.16
  -1   4  -4  384.52   26.88
  -1  -4  -4  447.83   22.48
   1  -4   4  399.33   27.64
  -1   4  -4  395.20   23.38
   1   4   4  431.85   22.89
   1  -4   4  414.58   23.22
   1   4   4  373.78   22.97
  -1  -4  -4  428.98   23.92
   1  -4   4  434.17   24.29
   1  -4   4  425.92   25.14
   1   4   4  408.94   26.43
  -1   4  -4  383.01   23.23
   1  -4   4  414.42   22.33
   1   4   4  395.40   24.26
  -1  -4  -4  452.13   23.80
  -1   4  -4  438.57   23.28
  -1  -4  -4  437.78   23.82
   1   4   5  652.68   34.28
  -1  -4  -5  665.92   33.75
   1  -4   5  540.26   38.39
   1  -4   5  642.24   34.64
   1   4   5  601.99   34.52
  -1  -4  -5  600.87   35.78
  -1   4  -5  592.81   34.75
   1  -4   5  668.07   36.74
   1  -4   5  619.76   35.51
   1   4   5  665.66   38.29
  -1  -4  -5  618.49   36.49
   1   4   5  617.00   35.84
  -1   4  -5  684.76   34.42
   1  -4   5  666.25   33.66
  -1   4  -5  677.73   33.96
   1  -4   6  958.09   59.37
  -1  -4  -6 1062.71   53.35
   1   4   6 1046.41   53.94
   1  -4   6 1001.65   54.16
   1   4   6  953.59   54.38
  -1  -4  -6 1114.11   56.88
   1  -4   6 1033.76   55.44
   1   4   6 1028.04   58.52
   1   4   6 1088.47   56.85
   1  -4   6 1059.39   56.37
  -1  -4  -6  972.21   56.31
  -1   4  -6  991.62   54.65
  -1   4  -6 1070.73   53.74
  -1   4  -6 1035.19   53.28
   1  -4   7  315.54   24.30
  -1  -4  -7  270.69   15.51
   1  -4   7  255.58   16.37
   1   4   7  259.21   16.18
   1   4   7  249.07   17.17
  -1  -4  -7  257.90   19.96
   1  -4   7  295.49   19.01
   1  -4   7  281.82   18.11
  -1  -4  -7  246.99   18.90
   1   4   7  289.92   21.57
   1   4   7  291.89   19.85
  -1   4  -7  276.61   17.38
  -1   4  -7  271.59   15.65
  -1   4  -7  290.32   15.35
  -1  -4  -7  272.13   17.75
  -1  -4  -8  497.20   26.99
   1  -4   8  544.56   37.13
   1  -4   8  480.50   28.01
   1   4   8  512.92   29.25
   1   4   8  465.81   27.55
  -1  -4  -8  478.05   32.19
  -1  -4  -8  453.18   30.64
   1   4   8  508.33   31.24
   1   4   8  488.06   33.18
  -1   4  -8  473.83   28.71
   1  -4   8  542.79   30.09
  -1   4  -8  489.05   26.89
  -1  -4  -8  493.64   29.58
  -1   4  -8  491.06   26.52
  -1  -4  -8  586.64   29.94
  -1  -4  -8  596.44   29.77
   1  -4   9   97.20   16.77
  -1  -4  -9   67.54    6.31
   1   4   9   75.41    9.47
  -1  -4  -9   48.81   11.75
  -1   4  -9   66.22    8.12
   1  -4   9   84.25    9.62
  -1   4  -9   66.03    8.71
  -1   4  -9   79.60   11.19
  -1  -4  -9   64.95    8.73
  -1   4  -9   69.97    5.43
  -1   4  -9   64.81    5.87
  -1  -4  -9   58.38   10.31
  -1  -4  -9   68.97    8.84
   1   4   9   79.26   11.55
  -1  -4  -9   61.14    8.89
  -1   4 -10  178.00   15.05
   1  -4  10  276.19   25.95
  -1  -4 -10  227.71   13.54
  -1  -4 -10  206.54   19.87
   1   4  10  226.30   16.63
  -1   4 -10  229.51   18.78
  -1  -4 -10  218.03   18.33
   1   4  10  226.13   18.76
   1  -4  10  237.91   17.13
  -1   4 -10  177.62   15.81
  -1   4 -10  199.64   12.30
  -1  -4 -10  227.75   17.08
  -1  -4 -10  219.33   16.04
  -1  -4 -10  248.81   16.83
   1  -4  11   32.58   15.15
   1   4  11   28.48    9.74
  -1  -4 -11   16.46   11.46
   1   4  11   38.19    9.29
  -1  -4 -11   36.35    5.54
  -1   4 -11   23.30    6.93
   1  -4  11   50.27    9.53
  -1   4 -11   40.14    8.65
  -1  -4 -11   34.43    8.79
  -1   4 -11   20.91    9.68
  -1  -4 -11   27.89    7.96
  -1  -4 -11   27.10    8.17
  -1  -4 -11   35.77   10.16
   1   4  11   40.00   11.14
  -1  -4 -12   81.53    7.50
   1   4  12   79.58   12.50
   1  -4  12   68.79   18.23
  -1   4 -12   57.14    9.19
   1   4  12   67.56   11.17
  -1  -4 -12   82.12   15.43
   1  -4  12   78.42   11.47
  -1   4 -12   67.30   10.59
  -1  -4 -12   78.58   10.48
  -1  -4 -12   72.55   12.79
  -1  -4 -12   61.06   11.17
  -1   4 -12   62.16   12.55
  -1  -4 -12   79.95   10.81
   1  -4  13  364.34   34.45
  -1  -4 -13  367.50   20.19
   1   4  13  349.09   26.18
  -1   4 -13  241.33   21.29
  -1  -4 -13  302.26   27.66
   1   4  13  305.86   23.83
  -1   4 -13  334.01   26.35
   1  -4  13  326.72   24.47
  -1  -4 -13  323.75   26.02
  -1  -4 -13  376.10   25.03
  -1  -4 -13  348.25   23.58
  -1  -4 -13  351.30   22.88
  -1  -4 -14   44.96   11.58
   1  -4  14   40.26   19.88
   1   4  14   52.63   14.00
  -1  -4 -14   31.81   14.44
  -1   4 -14   29.64    8.08
  -1  -4 -14   48.06    7.04
   1  -4  14   49.61   11.10
  -1   4 -14   31.13   12.51
  -1  -4 -14   50.72   13.18
  -1   4 -14   28.36    4.93
  -1  -4 -14   52.26   10.22
  -1   4 -15  198.70   18.86
   1  -4  15  252.10   32.94
   1   4  15  317.91   26.23
  -1  -4 -15  328.76   17.94
  -1  -4 -15  351.07   28.26
  -1   4 -15  322.94   25.84
  -1  -4 -15  293.54   24.98
   1  -4  15  313.04   23.69
  -1  -4 -15  312.75   20.99
  -1   4 -15  217.22   15.66
  -1  -4 -15  343.74   24.21
  -1  -4 -16  123.36   16.08
   1  -4  16   91.45   24.92
  -1  -4 -16  119.93   10.22
   1   4  16  113.12   18.53
  -1   4 -16   88.50   11.70
  -1  -4 -16  106.39   18.63
   1  -4  16  101.81   15.74
   1   4  16   98.71   16.20
  -1  -4 -16  128.59   17.61
  -1   4 -16   77.60    7.63
  -1  -4 -16  118.89   13.60
  -1   4 -16  105.64   16.84
   1  -4  17   32.29   22.83
   1   4  17   63.79   17.63
  -1  -4 -17   42.42   13.27
  -1  -4 -17   44.11   16.94
  -1   4 -17   35.26    9.86
   1  -4  17   30.14   13.51
   1   4  17   51.51   14.48
  -1  -4 -17   33.90   14.68
  -1   4 -17   23.63   14.55
  -1  -4 -17   53.25   11.59
  -1   4 -17   36.92    5.39
   1  -4  18   33.57   23.24
   1   4  18   70.19   19.01
  -1  -4 -18   67.67   15.00
  -1   4 -18   54.63   11.39
  -1  -4 -18   45.55   17.65
   1  -4  18   38.92   14.75
   1   4  18   38.89   14.91
  -1  -4 -18   79.78   12.22
  -1  -4 -18   68.96   16.55
  -1   4 -18   67.08   16.83
  -1  -5  17   25.17   18.19
  -1   5  17   -8.89   14.49
   1  -5 -17   -9.18   15.33
   1   5 -17    4.88   10.42
  -1   5  17    1.85   12.80
  -1  -5  17   -2.44   13.50
   1   5 -17   10.72    7.39
   1  -5 -17   12.08   14.02
  -1  -5  16   66.81   20.11
  -1   5  16   37.81   14.78
   1  -5 -16   59.00   11.74
   1   5 -16   77.01   12.85
   1  -5 -16   57.49   17.68
  -1   5  16   73.61   14.35
  -1  -5  16   74.44   16.13
   1   5 -16   47.51    9.01
   1  -5 -16   74.17   16.51
  -1  -5  15    7.61   16.97
   1  -5 -15   21.35   10.11
  -1   5  15   20.32   12.24
   1  -5 -15   33.63   14.34
   1   5 -15   14.00    9.76
  -1   5  15   13.60   11.54
  -1  -5  15    3.66   11.84
   1   5 -15   19.29    7.39
   1  -5 -15   19.18   13.19
   1  -5 -14   72.30   11.27
  -1   5  14   52.71   12.87
   1  -5 -14   56.64   15.73
  -1   5  14   63.59   13.05
  -1  -5  14   53.10   13.75
   1   5 -14   55.73    8.78
   1  -5 -14   95.45   15.15
  -1   5  13  162.95   17.65
   1  -5 -13  159.94   20.66
   1  -5 -13  186.88   19.28
  -1  -5  13  216.46   20.28
   1   5 -13  202.33   14.76
   1  -5 -13  204.45   16.64
  -1   5  12   30.63   10.09
   1  -5 -12   20.14   12.53
   1  -5 -12   12.63    7.32
  -1  -5  12   25.25   11.43
   1   5 -12   12.07    6.63
   1  -5 -12   12.97    8.62
   1  -5 -12   12.65   11.53
   1   5 -11  580.69   38.60
   1  -5 -11  719.01   37.84
  -1   5  11  683.05   38.95
  -1  -5  11  575.34   41.08
   1  -5 -11  600.27   41.47
  -1  -5  11  737.61   42.31
   1  -5 -11  661.52   41.04
  -1  -5  11  695.37   39.55
   1  -5 -11  656.77   37.92
   1   5 -11  636.21   36.83
  -1   5  10   59.29    9.62
   1   5 -10   33.19    9.36
  -1   5  10   53.64    9.50
   1  -5 -10   62.99    8.75
  -1  -5  10   47.65   11.51
   1  -5 -10   43.34   12.12
  -1   5  10   57.10   11.00
   1   5 -10   55.53    9.93
  -1  -5  10   63.50   12.09
   1  -5 -10   58.45   11.75
   1  -5 -10   67.34    8.96
   1   5 -10   60.12    8.14
  -1  -5  10   67.96   10.25
   1  -5  -9  546.40   28.94
   1   5  -9  459.97   29.72
  -1  -5   9  489.33   37.77
  -1   5   9  499.93   29.05
   1   5  -9  452.41   34.03
  -1   5   9  477.62   29.95
  -1  -5   9  454.47   31.20
   1  -5  -9  427.92   30.94
  -1   5   9  518.80   30.03
   1   5  -9  486.61   29.92
  -1  -5   9  522.35   30.20
  -1  -5   9  506.21   31.95
   1  -5  -9  462.33   31.21
   1   5  -9  467.04   28.04
   1  -5  -9  499.24   31.33
  -1  -5   8  204.96   22.48
   1   5  -8  187.94   15.20
  -1   5   8  205.45   14.34
   1   5  -8  234.33   20.58
   1  -5  -8  214.20   14.42
  -1  -5   8  190.54   16.40
  -1   5   8  211.14   15.59
   1  -5  -8  167.82   16.27
  -1   5   8  175.22   15.38
  -1  -5   8  210.22   17.27
  -1  -5   8  221.56   15.75
   1   5  -8  193.69   15.37
   1  -5  -8  206.99   17.03
   1   5  -8  180.81   13.65
   1  -5  -8  191.10   16.43
   1   5  -7   15.13   10.54
  -1  -5   7   24.06   11.72
  -1   5   7    7.13    5.24
   1  -5  -7    8.23    5.32
  -1   5   7    5.31    6.28
   1   5  -7    0.54    5.69
   1  -5  -7    8.82    7.49
  -1   5   7   -2.02    6.79
  -1  -5   7    4.84    6.50
  -1   5   7    4.13    9.03
   1   5  -7    5.43    6.28
  -1  -5   7    3.37    7.59
  -1  -5   7    3.98    6.52
   1  -5  -7    3.94    7.89
   1   5  -7    6.76    4.80
   1  -5  -7   -0.75    7.32
   1   5  -6   20.72   10.50
  -1   5   6   13.67    5.09
   1  -5  -6   11.25    5.27
   1  -5  -6   19.48    7.50
   1   5  -6   12.46    5.81
  -1   5   6   11.35    5.78
  -1  -5   6   15.37    6.33
  -1   5   6   25.60    7.15
  -1   5   6   24.39    8.51
   1   5  -6    8.36    6.41
  -1  -5   6   23.38    8.58
   1  -5  -6   19.02    6.99
  -1  -5   6   23.34    7.00
   1  -5  -6   16.44    8.02
  -1   5   5  135.36   10.53
   1   5  -5  112.64   10.06
   1   5  -5  110.51   15.09
   1  -5  -5  127.52    9.84
  -1   5   5  119.26    9.47
  -1   5   5  117.69   10.78
  -1  -5   5  118.33   10.45
   1  -5  -5  116.77   11.20
  -1   5   5  138.32   12.81
   1   5  -5  116.90   11.07
  -1  -5   5  130.23   12.56
  -1  -5   5  142.79   11.57
   1  -5  -5  114.18   11.09
   1  -5  -5  107.02   12.01
   1   5  -4   -2.37    9.16
  -1   5   4    0.47    4.94
  -1   5   4   -2.13    6.23
   1   5  -4   -0.20    4.55
   1  -5  -4   -7.86    6.83
   1  -5  -4    3.01    4.54
  -1  -5   4    0.39    6.79
  -1   5   4    2.45    6.48
  -1  -5   4    0.16    4.22
   1  -5  -4   -5.98    7.45
  -1  -5   4    1.76    5.96
   1   5  -4    2.72    4.50
   1  -5  -4   -5.03    5.97
   1   5  -4    2.49    4.11
   1   5  -3  188.53   17.98
   1  -5  -3  223.63   14.40
  -1  -5   3  244.72   14.61
  -1   5   3  225.23   14.90
   1   5  -3  214.53   14.37
  -1   5   3  208.27   15.25
   1  -5  -3  208.68   15.68
  -1   5   3  235.39   16.27
  -1  -5   3  254.62   17.78
   1  -5  -3  235.16   16.89
   1  -5  -3  243.52   15.34
  -1  -5   3  228.18   14.07
   1  -5  -3  250.41   15.73
   1   5  -3  229.32   14.22
   1   5  -2    6.10    8.91
  -1   5   2   17.68    6.86
  -1  -5   2   -1.16    4.55
   1   5  -2    0.83    4.01
   1  -5  -2    5.69    6.55
  -1  -5   2    0.66    4.23
  -1   5   2    7.21    4.63
  -1   5   2   26.64    7.33
  -1  -5   2   10.51    7.80
   1  -5  -2    0.76    4.74
   1  -5  -2    1.34    4.98
  -1  -5   2    0.31    3.97
  -1   5   1  650.66   36.81
  -1  -5   1  757.12   36.61
   1   5  -1  639.70   36.22
   1   5  -1  676.71   41.91
  -1   5   1  644.94   39.93
  -1  -5   1  668.22   36.10
   1  -5  -1  694.94   37.85
  -1   5   1  703.17   37.88
  -1  -5   1  680.10   40.03
   1  -5  -1  711.53   37.04
   1  -5  -1  663.70   36.60
  -1  -5   1  649.16   36.27
  -1  -5   0   97.31    7.41
  -1   5   0   71.10    7.46
  -1   5   0   90.02   11.11
   1   5   0   82.96    7.17
   1  -5   0   94.94    9.41
  -1  -5   0   97.39    7.61
   1  -5   0  108.51    9.85
  -1   5   0  108.28    9.11
  -1  -5   0  130.94   12.85
   1  -5   0   78.31    7.37
   1  -5   0   71.19    7.03
  -1  -5   0   80.18    7.23
   1   5   1  325.06   18.60
   1  -5   1  330.22   18.93
  -1   5  -1  302.86   19.16
  -1   5  -1  291.10   22.27
  -1  -5  -1  363.23   18.80
  -1  -5  -1  302.62   18.38
   1  -5   1  348.49   20.56
   1  -5   1  335.34   21.02
  -1   5  -1  335.76   19.90
  -1  -5  -1  339.21   23.40
   1  -5   1  321.64   18.50
  -1  -5  -1  301.49   18.73
   1  -5   1  333.43   18.73
   1   5   1  314.88   19.94
  -1   5  -1  355.05   20.67
  -1   5  -2  576.21   32.89
   1   5   2  596.74   32.30
   1  -5   2  627.69   32.70
  -1   5  -2  613.60   37.29
  -1  -5  -2  664.68   32.29
   1  -5   2  593.74   33.75
  -1  -5  -2  548.92   32.16
  -1   5  -2  602.78   33.12
   1  -5   2  597.09   34.17
  -1  -5  -2  607.64   37.64
  -1   5  -2  626.31   33.93
   1  -5   2  582.75   31.94
   1   5   2  586.49   33.76
   1  -5   3   64.62    6.38
  -1   5  -3   64.01   11.03
  -1  -5  -3   64.74    5.71
   1   5   3   71.95    6.28
  -1   5  -3   60.17    6.79
  -1  -5  -3   45.78    6.34
   1   5   3   70.52    6.76
   1  -5   3   50.31    7.63
  -1   5  -3   53.16    6.80
   1  -5   3   54.71    5.30
   1  -5   3   68.89    8.52
  -1   5  -3   69.26    7.16
   1   5   3   59.59    7.44
  -1  -5  -3   67.94    6.86
   1   5   4  712.87   37.16
   1  -5   4  724.68   37.54
   1  -5   4  688.47   43.39
  -1   5  -4  640.54   37.71
  -1   5  -4  675.07   41.97
  -1  -5  -4  727.83   36.68
   1   5   4  691.70   37.14
  -1  -5  -4  637.10   37.55
   1  -5   4  706.55   38.91
   1  -5   4  765.65   40.03
  -1   5  -4  657.94   37.59
   1  -5   4  661.99   36.46
   1   5   4  664.21   38.85
  -1   5  -4  715.94   38.04
  -1  -5  -4  698.23   37.95
  -1  -5  -4  731.57   38.13
  -1  -5  -5  703.67   35.83
  -1   5  -5  655.03   41.26
   1  -5   5  657.64   42.85
  -1   5  -5  606.24   36.86
   1  -5   5  680.00   36.71
   1   5   5  748.13   36.62
  -1  -5  -5  641.32   37.57
   1   5   5  613.50   36.48
   1  -5   5  712.59   39.21
   1  -5   5  710.82   38.41
  -1   5  -5  646.77   36.85
   1  -5   5  655.40   35.61
  -1   5  -5  693.84   36.89
   1   5   5  633.81   38.16
  -1  -5  -5  763.10   37.68
   1  -5   6  253.24   16.13
  -1   5  -6  231.27   20.72
   1   5   6  258.25   15.89
  -1  -5  -6  270.78   15.15
  -1   5  -6  260.45   16.81
   1  -5   6  252.44   22.63
  -1  -5  -6  254.81   18.07
   1   5   6  225.47   16.19
  -1   5  -6  243.71   16.43
   1  -5   6  271.40   17.96
   1  -5   6  275.72   18.83
  -1  -5  -6  242.52   18.64
  -1   5  -6  272.81   16.22
   1  -5   6  265.60   15.01
   1  -5   7  442.02   33.32
  -1   5  -7  382.90   31.04
  -1  -5  -7  523.88   26.08
   1   5   7  499.47   26.88
   1  -5   7  428.37   26.76
  -1  -5  -7  483.14   29.99
   1   5   7  465.66   27.39
  -1  -5  -7  459.94   30.03
  -1   5  -7  461.41   27.51
   1  -5   7  488.66   28.87
  -1   5  -7  502.50   26.78
  -1   5  -7  463.53   26.01
   1  -5   8  136.54   17.80
  -1   5  -8  108.74   15.74
  -1  -5  -8  140.60    9.66
   1  -5   8  144.64   11.13
  -1  -5  -8  140.43   14.93
   1   5   8  150.55   10.88
   1   5   8  137.54   11.86
   1  -5   8  147.98   12.97
  -1   5  -8  138.51   11.64
  -1  -5  -8  138.96   12.43
  -1  -5  -8  132.31   14.00
  -1   5  -8  131.57    9.48
  -1   5  -8  142.79   10.24
   1  -5   9  252.68   25.02
   1   5   9  318.50   20.78
  -1  -5  -9  328.93   17.57
   1   5   9  278.24   19.67
   1   5   9  277.47   18.18
   1  -5   9  281.80   20.79
  -1  -5  -9  282.79   23.27
   1   5   9  324.42   22.95
  -1   5  -9  271.22   19.38
   1  -5   9  324.73   21.36
  -1  -5  -9  282.76   22.17
  -1   5  -9  286.32   17.65
  -1  -5  -9  317.43   20.34
  -1  -5  -9  310.61   20.58
  -1   5  -9  278.05   16.99
  -1  -5  -9  328.86   20.65
   1  -5  10   31.49   14.16
   1   5  10   46.16    9.68
   1   5  10   29.71    8.70
   1  -5  10   49.79    9.63
  -1  -5 -10   24.67   11.38
  -1  -5 -10   37.79    5.57
  -1   5 -10   30.91    7.77
  -1   5 -10   46.15    8.29
   1  -5  10   46.53    9.94
  -1  -5 -10   43.48   10.50
  -1   5 -10   37.51    4.88
  -1  -5 -10   43.79    8.64
  -1  -5 -10   36.50    8.54
  -1  -5 -10   43.40    8.95
  -1   5 -10   34.72    5.46
   1  -5  11  117.02   19.64
   1   5  11  127.40   14.37
  -1   5 -11  108.35   12.07
  -1  -5 -11  135.47    9.58
   1   5  11  127.65   13.04
  -1  -5 -11  126.55   16.87
   1  -5  11  130.37   14.24
  -1   5 -11  129.79   12.55
  -1   5 -11  109.10    9.09
  -1  -5 -11  117.61   13.22
  -1  -5 -11  125.89   15.27
  -1  -5 -11  138.37   12.90
  -1   5 -11  110.90    8.42
   1  -5  12   67.00   19.72
   1   5  12   49.77   11.57
  -1  -5 -12   47.41   13.96
  -1  -5 -12   58.68    6.71
  -1   5 -12   30.10    8.58
   1   5  12   58.46   10.69
  -1   5 -12   49.10    9.66
   1  -5  12   74.63   12.12
  -1  -5 -12   59.99   10.13
  -1  -5 -12   51.94   11.16
  -1  -5 -12   67.06   12.40
  -1   5 -12   44.21    5.20
  -1   5 -12   54.45    6.15
   1   5  13   30.18   11.98
   1  -5  13   21.48   17.70
  -1  -5 -13   18.63    5.69
  -1   5 -13    7.99    7.29
  -1  -5 -13   -1.48   12.89
   1  -5  13    4.88    9.95
  -1  -5 -13   23.20    9.16
  -1   5 -13   13.60    4.70
  -1  -5 -13   22.83   10.44
  -1   5 -13   13.73    3.75
  -1  -5 -13   16.37   11.49
  -1  -5 -14  300.50   15.34
  -1   5 -14  212.16   17.47
   1   5  14  275.14   22.53
   1  -5  14  226.77   30.81
  -1  -5 -14  252.72   24.14
  -1  -5 -14  270.44   23.06
   1  -5  14  255.65   21.11
  -1   5 -14  189.39   13.54
  -1   5 -14  157.43   12.55
  -1  -5 -14  285.70   19.25
  -1  -5 -14  276.41   21.29
   1  -5  15   46.35   21.95
   1   5  15   98.02   16.58
  -1  -5 -15   85.15   14.61
  -1   5 -15   51.80   10.03
  -1  -5 -15   95.04    8.49
  -1  -5 -15   68.68   16.72
   1  -5  15   66.94   13.62
  -1   5 -15   43.92    5.30
  -1  -5 -15   69.35   15.57
  -1  -5 -15   80.89   12.63
  -1   5 -15   49.00    6.21
   1  -5  16   38.16   22.00
   1   5  16   82.57   17.02
  -1  -5 -16   74.47   14.35
  -1   5 -16   49.04   10.09
  -1  -5 -16   39.38   16.59
   1  -5  16   55.02   13.77
  -1  -5 -16   62.92   12.16
  -1  -5 -16   59.60   15.77
  -1   5 -16   34.06    5.63
  -1   5 -16   66.19   15.62
  -1  -5 -17   61.76   14.15
   1  -5  17   23.96   23.48
   1   5  17   77.19   18.00
  -1  -5 -17   66.55   17.51
  -1   5 -17   38.83   10.29
   1   5  17   42.34   14.39
   1  -5  17   44.21   14.23
  -1  -5 -17   79.56   12.67
  -1  -5 -17   46.18   15.29
  -1   5 -17   42.08   15.61
  -1  -6  16  -17.04   21.69
  -1   6  16   15.05   13.13
   1   6 -16   -6.38    9.93
   1  -6 -16    0.90   15.30
  -1   6  16   -0.60   12.37
  -1  -6  16   13.94   14.15
   1   6 -16   11.99    7.03
   1  -6 -16    6.12   14.61
   1  -6 -15   28.43   10.80
  -1   6  15   19.11   12.39
   1  -6 -15    8.54   15.18
  -1   6  15   16.10   12.12
  -1  -6  15   33.42   14.14
   1  -6 -15   25.85   13.67
   1   6 -15   22.88    7.66
  -1   6  14   44.11   12.23
   1  -6 -14   61.47   16.92
  -1  -6  14   55.70   14.74
   1   6 -14   44.71    8.45
   1  -6 -14   78.33   11.93
   1  -6 -14   58.69   14.75
  -1   6  13    3.29    9.59
   1  -6 -13   16.89   13.75
  -1  -6  13   -0.69   12.22
   1  -6 -13   11.32    9.09
   1  -6 -13   16.48   12.18
   1   6 -13    3.99    6.61
  -1   6  12  152.82   15.31
   1  -6 -12  160.31   19.44
   1   6 -12  122.77   14.30
  -1  -6  12  167.28   18.65
   1  -6 -12  159.73   14.67
   1  -6 -12  143.86   17.81
  -1  -6  11   35.45   17.99
  -1   6  11   33.83    9.40
   1   6 -11   15.71    8.92
   1  -6 -11   13.65   11.97
  -1  -6  11    9.74   11.27
   1  -6 -11   27.57    8.81
   1  -6 -11   31.04   11.83
  -1   6  10  264.49   18.38
   1  -6 -10  259.87   17.33
  -1  -6  10  246.80   27.69
   1   6 -10  216.45   18.55
   1  -6 -10  204.60   20.33
  -1  -6  10  195.87   19.98
  -1   6  10  262.90   19.11
  -1  -6  10  271.67   21.83
   1  -6 -10  205.74   20.40
   1  -6 -10  246.35   17.85
  -1   6   9   82.24    9.97
   1   6  -9   65.00   10.39
   1  -6  -9   79.64    9.42
  -1  -6   9   74.80   12.22
  -1   6   9   87.08   10.98
   1  -6  -9   75.12   12.62
  -1  -6   9   87.32   13.75
  -1   6   9   70.58   14.55
   1  -6  -9   96.42   13.58
  -1  -6   9   78.01   11.14
  -1   6   8   72.81    8.96
  -1  -6   8   62.62   10.69
   1  -6  -8   64.45   11.48
  -1   6   8   61.49   10.66
   1  -6  -8   75.14    8.69
   1   6  -8   63.99    9.99
  -1   6   8   70.52   10.29
  -1  -6   8   83.91   13.10
  -1   6   8   63.84   12.85
   1   6  -8   69.12   10.06
  -1  -6   8   76.01   10.83
   1  -6  -8   75.95   12.45
   1   6  -7  108.23   11.66
  -1   6   7  141.87   10.99
   1  -6  -7  119.03   10.70
  -1   6   7  131.06   12.15
   1  -6  -7   98.08   12.84
  -1  -6   7  127.96   12.56
  -1   6   7  138.89   12.67
  -1   6   7  150.83   14.92
   1   6  -7  119.65   12.32
  -1  -6   7  128.84   14.84
   1  -6  -7  116.68   13.93
   1   6  -7  118.40   10.18
  -1  -6   7  133.34   13.10
   1  -6  -7  118.29   12.79
   1  -6  -7  113.91   12.47
   1   6  -6   18.02   11.99
  -1   6   6   10.19    5.78
   1   6  -6    6.17    6.15
   1  -6  -6    9.48    8.09
  -1   6   6   11.15    6.86
  -1   6   6    6.73    7.22
  -1  -6   6    0.92    6.45
   1  -6  -6    3.65    5.41
  -1  -6   6   14.55    8.73
  -1   6   6   13.51    8.96
   1   6  -6    2.44    7.11
   1   6  -6   17.44    5.57
   1  -6  -6   11.45    7.12
  -1  -6   6   11.71    7.46
   1  -6  -6   12.27    9.08
   1   6  -6    7.85    5.63
   1  -6  -6   -0.35    6.80
  -1   6   5   62.91    7.69
   1   6  -5   82.84   14.77
   1   6  -5   56.68    7.86
   1  -6  -5   59.23    7.45
  -1   6   5   64.94    8.69
  -1  -6   5   52.88    8.10
   1  -6  -5   56.00    9.51
  -1   6   5   63.76    9.53
  -1  -6   5   64.74   11.04
   1   6  -5   61.78    9.03
  -1   6   5   67.53   10.60
   1  -6  -5   58.11    8.81
   1  -6  -5   58.84   11.32
   1   6  -5   59.13    7.20
  -1  -6   5   54.69    6.97
  -1  -6   5   68.53    9.76
   1   6  -5   53.97    7.74
   1  -6  -5   65.74    9.33
  -1   6   4  196.34   14.36
   1   6  -4  192.56   20.19
   1   6  -4  191.74   13.81
   1  -6  -4  195.94   13.50
  -1  -6   4  198.06   13.91
  -1   6   4  174.88   14.61
   1  -6  -4  185.47   15.11
   1  -6  -4  196.89   16.91
  -1   6   4  191.80   15.85
   1   6  -4  200.46   15.68
  -1  -6   4  220.48   15.92
  -1  -6   4  212.62   17.50
  -1  -6   4  193.98   13.07
   1  -6  -4  193.34   15.04
   1   6  -4  192.26   13.45
   1  -6  -4  184.65   14.39
   1   6  -4  187.17   14.25
   1   6  -3   48.38   11.06
   1   6  -3   30.90    6.30
  -1  -6   3   48.01    6.88
  -1   6   3   40.36    7.17
   1  -6  -3   31.56    6.34
  -1   6   3   40.71    8.73
  -1  -6   3   45.98    6.56
   1  -6  -3   31.12    8.90
  -1  -6   3   48.58   10.38
   1  -6  -3   29.78   10.33
   1   6  -3   48.82    8.89
  -1   6   3   45.38    9.43
   1   6  -3   40.47    6.38
   1  -6  -3   36.11    6.95
   1   6  -3   38.62    7.07
   1  -6  -3   42.84    7.54
  -1  -6   3   38.50    6.15
   1   6  -2  473.53   32.25
   1  -6  -2  457.27   25.95
   1   6  -2  438.80   25.89
  -1  -6   2  466.82   25.96
  -1   6   2  430.54   26.41
  -1   6   2  450.58   30.44
  -1  -6   2  447.12   25.77
   1  -6  -2  448.29   27.61
  -1   6   2  479.22   28.00
  -1  -6   2  474.04   30.38
   1   6  -2  472.79   28.78
   1   6  -2  459.83   26.11
   1  -6  -2  465.96   26.38
  -1  -6   2  439.53   25.74
   1   6  -2  420.24   26.80
   1  -6  -2  471.19   26.80
  -1   6   1   53.15   11.16
   1  -6  -1   50.61    8.68
  -1   6   1   32.05    6.31
   1   6  -1   25.75    5.68
  -1  -6   1   46.94    6.87
  -1  -6   1   41.26    6.15
  -1  -6   1   55.93   11.68
   1   6  -1   50.99   10.12
  -1   6   1   62.42    8.58
   1  -6  -1   25.63    6.15
  -1  -6   1   31.59    5.84
   1  -6  -1   26.53    6.12
   1   6  -1   31.30    6.36
  -1   6   0  201.05   15.41
  -1   6   0  219.07   18.86
   1   6   0  226.69   14.91
  -1  -6   0  274.98   15.41
   1  -6   0  266.15   17.19
  -1  -6   0  225.42   14.89
   1  -6   0  196.20   17.51
  -1   6   0  247.96   16.52
   1   6   0  251.44   18.41
  -1  -6   0  267.34   20.80
  -1  -6   0  224.12   15.02
   1  -6   0  256.49   15.29
   1  -6   0  249.26   15.33
  -1   6  -1   29.03    9.49
  -1   6  -1   30.70    6.25
   1  -6   1   34.95    8.10
   1   6   1   49.22    5.97
  -1  -6  -1   53.35    6.12
  -1  -6  -1   53.23    6.53
   1   6   1   58.16   10.14
  -1  -6  -1   76.95   12.14
   1  -6   1   43.26    8.32
  -1   6  -1   30.55    6.55
   1  -6   1   33.13    5.52
   1  -6   1   31.83    5.43
  -1  -6  -1   32.25    5.85
  -1   6  -2   31.68   10.81
  -1   6  -2   15.50    5.59
   1   6   2   21.06    5.01
   1  -6   2   20.76    7.59
  -1  -6  -2   21.33    5.34
  -1  -6  -2   23.83    4.95
   1  -6   2   21.74    7.54
  -1  -6  -2    8.62    9.57
  -1   6  -2   28.06    6.45
   1   6   2   28.08    8.46
   1   6   2   12.32    6.18
  -1   6  -2   18.67    6.68
  -1  -6  -3  198.99   11.90
  -1   6  -3  198.54   18.63
   1   6   3  178.06   12.16
  -1   6  -3  171.92   12.90
   1  -6   3  183.08   12.53
   1  -6   3  166.07   13.91
  -1  -6  -3  156.49   12.20
  -1   6  -3  170.27   12.82
   1  -6   3  166.11   14.38
   1   6   3  184.23   15.82
   1  -6   3  175.16   14.79
   1   6   3  154.80   13.65
  -1   6  -3  191.92   14.03
   1  -6   3  173.46   11.43
  -1   6  -4   26.62   11.12
  -1   6  -4   29.68    6.65
   1  -6   4   33.90    7.97
   1   6   4   33.07    6.52
  -1  -6  -4   36.38    5.41
  -1  -6  -4   27.25    6.71
   1  -6   4   32.92    6.32
   1   6   4   43.29    6.21
   1  -6   4   26.85    7.74
  -1   6  -4   42.90    6.83
   1   6   4   39.16    9.77
   1   6   4   34.45    7.61
   1  -6   4   54.86    8.98
  -1  -6  -4   39.47    7.02
  -1   6  -4   41.52    7.18
   1  -6   4   38.22    5.38
  -1  -6  -5  213.59   13.01
   1  -6   5  212.05   14.31
  -1   6  -5  188.69   19.55
   1   6   5  215.55   13.81
  -1   6  -5  191.16   14.65
  -1  -6  -5  187.14   14.65
   1   6   5  182.40   13.82
   1  -6   5  195.80   16.11
  -1   6  -5  188.94   14.25
   1  -6   5  220.34   17.00
   1   6   5  202.36   17.73
  -1  -6  -5  209.24   14.70
  -1  -6  -5  201.19   14.65
  -1   6  -5  219.72   15.08
   1   6   5  197.26   15.92
   1  -6   5  205.44   12.89
  -1   6  -6  250.06   23.03
  -1  -6  -6  289.20   16.51
   1   6   6  304.37   17.62
   1  -6   6  243.70   24.28
   1  -6   6  263.68   17.38
  -1   6  -6  251.19   17.99
   1   6   6  264.75   17.72
  -1  -6  -6  255.84   19.00
   1   6   6  264.11   21.82
   1  -6   6  269.39   19.59
  -1   6  -6  258.93   17.76
  -1  -6  -6  284.76   18.57
   1  -6   6  273.74   16.20
  -1   6  -6  278.61   18.01
   1   6   7   94.19    9.17
   1  -6   7   85.14   16.94
  -1  -6  -7  103.00    8.13
   1   6   7  104.82   10.98
  -1   6  -7   76.71   14.63
  -1   6  -7   99.65   10.43
   1   6   7   85.74    9.98
  -1  -6  -7   95.79   12.28
   1  -6   7   76.73    9.18
   1   6   7   79.36   13.47
  -1   6  -7   91.77    9.92
   1  -6   7  109.59   12.20
  -1   6  -7   92.60    9.36
   1   6   8  271.40   18.57
   1  -6   8  257.80   25.34
  -1  -6  -8  260.87   15.46
   1   6   8  238.62   16.67
  -1  -6  -8  238.91   20.02
   1   6   8  235.50   17.46
   1  -6   8  260.27   19.54
  -1  -6  -8  202.56   19.80
  -1   6  -8  245.96   17.37
  -1   6  -8  256.41   16.70
   1  -6   9   11.76   14.32
   1   6   9    5.17    8.26
   1   6   9   -4.56    7.80
  -1  -6  -9   10.54   10.43
  -1  -6  -9    1.35    4.65
   1   6   9   -1.93    6.12
   1  -6   9    2.98    8.40
  -1   6  -9    4.56    6.94
  -1  -6  -9   -9.14   10.19
  -1   6  -9   10.01    5.61
   1  -6  10   60.93   18.13
   1   6  10  109.12   12.56
  -1  -6 -10   95.38    8.09
   1   6  10   71.78    8.98
  -1  -6 -10   68.27   13.98
   1   6  10   84.04   11.29
   1  -6  10  102.58   12.72
  -1   6 -10   80.11   10.36
  -1  -6 -10  105.56   14.04
  -1  -6 -10   85.84   11.21
  -1   6 -10   72.63    8.36
  -1  -6 -10   88.92   11.87
  -1   6 -10   79.86    7.55
   1  -6  11   23.78   16.71
   1   6  11   20.77   10.18
  -1   6 -11   18.99    8.27
  -1  -6 -11   31.05    5.82
  -1  -6 -11   31.04   12.79
   1   6  11   35.33   10.00
  -1   6 -11   18.34    8.27
   1  -6  11   36.55   10.84
  -1  -6 -11   32.21   11.57
  -1   6 -11   15.35    4.68
  -1  -6 -11   24.73    9.15
  -1   6 -11   25.15    5.79
  -1  -6 -11   33.58    9.75
   1  -6  12  -10.19   16.18
   1   6  12    2.50   10.43
  -1  -6 -12    6.41   12.60
  -1  -6 -12   -2.27    5.18
  -1   6 -12    6.34    8.18
   1  -6  12    6.48   10.07
  -1  -6 -12    2.38    9.98
  -1  -6 -12   18.36   11.70
  -1   6 -12    5.59    4.16
  -1   6 -12    0.46    5.03
  -1  -6 -12   11.20    9.33
   1  -6  13   94.48   21.37
  -1  -6 -13  127.19    9.69
   1   6  13  111.21   15.41
  -1   6 -13  117.75   13.03
  -1  -6 -13  136.78   18.99
   1  -6  13  140.87   16.31
  -1   6 -13   62.76    7.43
  -1  -6 -13  112.88   17.03
  -1   6 -13   82.21    8.69
  -1  -6 -13  144.39   13.98
  -1  -6 -13  134.60   15.16
   1  -6  14   17.60   17.66
   1   6  14   12.18   12.90
  -1  -6 -14   15.02    5.89
  -1   6 -14    7.03    8.68
  -1  -6 -14   10.88   14.25
   1  -6  14    6.27   12.37
  -1  -6 -14   16.86   13.03
  -1  -6 -14   30.98   12.01
  -1   6 -14    8.89    4.79
  -1  -6 -14    3.90    9.87
  -1   6 -14    2.50    3.86
   1  -6  15   76.89   21.28
  -1  -6 -15   87.10   15.55
   1   6  15   99.77   16.69
  -1   6 -15   79.37   11.63
  -1  -6 -15   61.50   17.26
   1  -6  15   76.30   15.64
  -1  -6 -15   95.49   13.42
  -1   6 -15   53.21    7.20
  -1  -6 -15   84.59   16.81
  -1  -6 -16   32.29   13.62
   1   6  16   46.83   16.08
   1  -6  16   56.21   20.03
  -1   6 -16   26.63    9.80
  -1  -6 -16   21.89   16.29
   1  -6  16   30.59   13.86
  -1  -6 -16   30.08   15.88
  -1   7  14    3.13   11.47
   1  -7 -14  -12.21   15.21
  -1  -7  14    0.79   14.08
   1  -7 -14   14.40   14.26
   1  -7 -14   -0.46   10.21
   1   7 -14    6.62    6.51
  -1   7  13   37.85   12.04
   1   7 -13   39.41   11.44
   1  -7 -13   42.88   16.21
  -1  -7  13   66.04   16.52
   1  -7 -13   46.66   11.69
   1  -7 -13   67.26   15.94
   1   7 -13   32.44    7.73
  -1   7  12   31.23   10.67
   1  -7 -12   48.90   14.84
   1   7 -12   35.29   10.66
  -1  -7  12    8.72   13.53
   1  -7 -12   50.76   14.23
   1   7 -12   23.52    7.25
   1   7 -12   31.15    8.50
   1  -7 -12   34.82   10.20
  -1   7  11   35.09   10.15
   1   7 -11   20.46   10.15
  -1   7  11   39.07   10.31
   1  -7 -11   29.51   14.05
  -1  -7  11   30.82   13.48
   1  -7 -11   39.88   11.50
   1   7 -11   28.68    7.65
   1  -7 -11   39.74   10.41
   1  -7 -11   45.36   13.83
   1   7 -11   26.51    8.34
  -1   7  10   53.44    9.88
   1   7 -10   32.94    9.93
  -1   7  10   57.24   11.16
   1  -7 -10   49.02   12.79
  -1  -7  10   54.63   13.94
   1  -7 -10   54.15   13.35
   1   7 -10   32.08    7.43
   1   7 -10   32.95    8.80
   1  -7 -10   37.73   10.88
  -1   7   9   19.61    8.45
  -1   7   9   45.68   10.07
  -1  -7   9   13.50   10.25
   1  -7  -9   24.91   11.36
   1   7  -9   16.20    8.95
  -1  -7   9   32.10   12.27
   1  -7  -9   20.49    9.87
   1  -7  -9   34.28   12.45
   1   7  -9   25.08    7.18
   1   7  -9   32.00    8.10
  -1   7   8   63.54    9.28
   1  -7  -8   47.76   11.77
  -1   7   8   85.34   11.19
  -1  -7   8   47.19   10.53
   1   7  -8   54.43   10.30
  -1  -7   8   71.24   13.78
   1   7  -8   68.99    9.59
   1  -7  -8   76.72   13.18
   1  -7  -8   35.60   10.51
   1   7  -8   48.41    8.19
  -1   7   7    7.12    6.91
   1   7  -7    6.12    7.80
  -1   7   7   13.58    8.25
  -1  -7   7    1.84    8.00
   1  -7  -7    7.52    9.83
  -1   7   7   -6.39   10.49
  -1  -7   7   12.09   10.67
   1   7  -7   13.07    7.33
   1   7  -7    5.41    6.14
   1  -7  -7    0.52   10.62
   1  -7  -7    2.84    8.30
  -1   7   6  163.60   13.02
   1   7  -6  145.90   13.56
  -1   7   6  178.50   14.36
   1  -7  -6  157.09   12.78
  -1   7   6  136.53   14.30
  -1  -7   6  148.88   14.14
   1  -7  -6  155.53   15.57
  -1  -7   6  168.16   17.41
  -1   7   6  188.31   17.06
   1   7  -6  154.97   13.63
   1  -7  -6  136.67   16.66
   1   7  -6  151.75   12.66
   1  -7  -6  156.84   14.43
  -1   7   5   42.19    7.84
   1  -7  -5   53.33   10.18
  -1   7   5   31.46    9.23
   1   7  -5   17.98    7.85
  -1   7   5   43.12    8.72
   1  -7  -5   26.74    7.37
  -1   7   5   37.37   10.18
  -1  -7   5   48.41   12.20
   1   7  -5   35.02    9.78
   1  -7  -5   42.66   12.17
  -1  -7   5   42.41    7.06
   1  -7  -5   31.74    9.03
   1   7  -5   32.06    8.18
   1   7  -5   27.23    7.39
  -1  -7   5   41.90   10.16
   1   7  -4   78.34    9.61
  -1  -7   4   87.36    9.59
   1  -7  -4   65.73    9.06
   1  -7  -4   67.19   11.85
  -1   7   4   93.11   10.56
  -1  -7   4   89.97    9.76
  -1  -7   4   82.57   13.61
   1   7  -4   95.26   11.73
  -1   7   4   82.72   12.49
   1  -7  -4   83.04   10.50
   1   7  -4   65.77    9.00
  -1  -7   4   76.26    8.60
  -1  -7   4   93.65   12.10
   1  -7  -4   80.48   10.35
   1   7  -4   79.52   10.47
   1  -7  -4   67.21   14.07
  -1   7   3  346.41   27.35
   1   7  -3  325.40   21.85
  -1   7   3  361.80   22.69
  -1  -7   3  386.03   22.13
   1  -7  -3  347.68   21.64
  -1  -7   3  308.72   21.42
   1  -7  -3  352.57   23.73
   1  -7  -3  346.01   25.69
  -1   7   3  345.35   23.99
   1   7  -3  375.58   24.69
  -1  -7   3  372.84   27.48
  -1  -7   3  334.57   21.29
   1  -7  -3  372.95   22.83
   1  -7  -3  353.95   22.22
   1   7  -3  335.82   21.87
   1   7  -3  364.20   23.38
  -1   7   2   10.37   12.08
   1   7  -2   -1.19    6.47
  -1   7   2    0.85    6.78
  -1  -7   2   19.52    7.55
   1  -7  -2   -0.44    6.78
  -1  -7   2    3.37    6.54
   1  -7  -2   15.50    9.47
  -1  -7   2   13.01   11.22
   1   7  -2    0.41    9.70
  -1   7   2   18.55    9.15
   1   7  -2  -11.93    7.34
  -1  -7   2    1.69    6.21
   1  -7  -2   -1.29    6.62
   1   7  -2   -6.99    7.83
   1  -7  -2   -3.38    7.21
  -1   7   1  233.59   16.52
  -1  -7   1  254.41   15.92
   1   7  -1  230.23   15.73
  -1   7   1  221.73   20.73
   1  -7  -1  236.43   15.69
  -1  -7   1  224.01   15.50
   1  -7  -1  231.63   18.04
  -1  -7   1  241.65   21.46
   1   7  -1  225.98   18.62
  -1   7   1  234.61   17.64
   1   7  -1  231.71   17.67
  -1  -7   1  214.31   15.51
   1  -7  -1  224.96   15.90
   1  -7  -1  229.50   15.86
   1   7  -1  222.40   16.13
  -1   7   0    1.08    9.36
   1   7   0   15.28    6.17
  -1   7   0    7.62    6.53
   1  -7   0    4.16    5.98
   1  -7   0   11.73    8.37
  -1  -7   0   24.67    6.94
  -1  -7   0    7.09    5.84
  -1   7   0    5.54    6.81
  -1  -7   0   28.43   12.40
   1   7   0   23.66    9.88
  -1  -7   0    9.01    5.92
   1  -7   0    1.87    5.72
   1  -7   0    7.40    5.49
  -1   7  -1   44.92   11.80
  -1  -7  -1   26.27    6.34
   1   7   1   41.89    6.98
  -1   7  -1   36.92    7.65
   1  -7   1   41.32    9.22
  -1  -7  -1   34.86    6.63
  -1  -7  -1   17.02   11.46
   1  -7   1   34.85    9.52
  -1  -7  -1   42.08   10.02
  -1   7  -1   46.94    7.93
   1   7   1   44.69   10.52
  -1  -7  -1   28.82    6.69
  -1   7  -2   12.00   11.39
  -1   7  -2   -0.27    6.28
  -1  -7  -2   10.29    5.96
  -1  -7  -2   12.03    5.49
   1  -7   2    5.99    7.79
   1   7   2   12.53    5.69
   1  -7   2    7.97    8.36
  -1   7  -2    7.43    6.21
  -1  -7  -2   13.17   10.74
   1   7   2   15.55    9.05
  -1  -7  -2    4.69    5.53
  -1   7  -2    5.95    7.03
   1  -7   2    2.51    4.72
  -1   7  -3   26.10   11.77
  -1  -7  -3   15.16    6.11
  -1   7  -3   -0.84    6.34
   1  -7   3   13.44    8.17
  -1  -7  -3   15.10    5.48
   1   7   3   17.18    5.96
   1   7   3   18.33    9.47
   1  -7   3    8.35    7.87
  -1   7  -3   10.72    6.48
  -1   7  -3    5.41    7.14
   1  -7   3    9.24    5.04
   1   7   3   16.18    7.30
  -1   7  -4    8.73   11.95
  -1   7  -4   11.20    7.09
  -1  -7  -4   28.99    7.38
   1  -7   4   36.03    8.97
  -1  -7  -4   35.50    5.95
   1   7   4   38.35    6.93
   1   7   4   25.60    9.88
   1  -7   4   22.84    8.98
  -1   7  -4   20.66    6.86
   1  -7   4   24.95    5.65
   1   7   4   17.34    8.30
  -1   7  -4   29.94    8.15
  -1   7  -5   16.23   11.79
  -1   7  -5   12.56    7.73
  -1  -7  -5    9.94    7.32
   1   7   5   13.53    6.71
   1  -7   5   12.64    8.58
  -1  -7  -5   15.02    5.53
   1  -7   5   13.42    8.81
  -1   7  -5    9.72    6.63
   1  -7   5   18.55    5.45
   1   7   5    7.28    8.42
  -1   7  -5   17.74    7.63
   1   7   6   75.93   10.58
  -1  -7  -6   70.91    7.79
  -1  -7  -6   72.60   10.62
   1   7   6   68.99    9.26
   1   7   6   73.98    9.05
  -1   7  -6   58.62    9.89
   1  -7   6   64.04   11.38
  -1   7  -6   77.18    9.70
   1  -7   6   68.79    7.69
  -1  -7  -6   68.19   10.03
  -1   7  -6   81.92   10.32
  -1  -7  -7   97.85    9.35
   1   7   7  127.61   12.83
   1   7   7  116.05   10.94
   1   7   7   98.84   11.12
  -1   7  -7  102.06   11.91
  -1  -7  -7  115.58   13.17
  -1   7  -7   93.14   10.77
   1  -7   7  102.56   13.55
  -1  -7  -7   96.97   11.97
  -1   7  -7  111.26   11.43
   1   7   8   -1.10    8.79
   1   7   8   -4.05    6.93
   1   7   8   -0.54    7.76
  -1  -7  -8   14.82   10.43
  -1  -7  -8    0.58    5.35
  -1   7  -8   -2.09    8.19
   1  -7   8    9.84    9.19
  -1   7  -8   -2.18    7.19
  -1   7  -8   -0.98    6.44
   1   7   9   72.54   11.75
   1  -7   9   34.06   19.19
   1   7   9   74.21    9.83
  -1  -7  -9   84.16   14.15
   1   7   9   63.15   10.81
  -1  -7  -9   76.17    8.28
   1  -7   9   88.91   13.28
  -1   7  -9   79.47   10.62
  -1  -7  -9   61.01   13.34
  -1   7  -9   74.85    9.65
   1  -7  10   77.35   20.54
   1   7  10  101.50   13.08
  -1  -7 -10   74.64    8.25
   1   7  10   86.67   11.57
  -1  -7 -10   82.72   15.00
   1   7  10   92.37   10.22
   1  -7  10   79.08   13.66
  -1  -7 -10   72.74   12.24
  -1  -7 -10   71.10   14.42
  -1   7 -10   70.66    9.36
   1  -7  11    2.50   17.94
   1   7  11   14.75   11.00
  -1  -7 -11    5.82    5.66
  -1  -7 -11   -8.00   13.27
   1  -7  11   -2.84   10.75
  -1  -7 -11    4.20    9.71
  -1  -7 -11   12.38   12.30
  -1   7 -11    3.31    5.84
  -1  -7 -11    0.41    8.93
   1  -7  12   34.47   21.32
   1   7  12   62.78   13.47
  -1  -7 -12   50.37    7.40
  -1   7 -12   52.79   10.92
  -1  -7 -12   57.53   15.04
   1  -7  12   60.45   13.48
  -1  -7 -12   67.33   11.68
  -1  -7 -12   63.19   12.41
  -1   7 -12   32.41    7.24
  -1  -7 -12   47.22   14.29
   1  -7  13   16.82   19.62
   1   7  13    9.65   12.56
  -1  -7 -13   12.13   14.27
  -1   7 -13    2.75    9.05
   1  -7  13  -11.13   12.70
  -1  -7 -13    4.01   10.06
  -1  -7 -13   26.94   13.58
  -1   7 -13   -6.47    5.64
  -1  -7 -13    5.99   11.06
   1  -7  14   64.92   24.03
   1   7  14   78.84   15.87
  -1   7 -14   49.83   11.62
  -1  -7 -14   58.40   17.52
   1  -7  14   80.40   15.48
  -1  -7 -14   88.34   14.64
  -1  -7 -14   86.62   17.13
  -1   7 -14   34.52    7.34
  -1   8  12   10.21   10.83
   1   8 -12    0.47   10.98
   1  -8 -12   12.70   14.80
  -1  -8  12   24.75   15.82
   1  -8 -12   17.04   14.80
   1  -8 -12   15.00   11.06
   1   8 -12   25.88    9.04
  -1   8  11    6.94    9.87
   1   8 -11    4.95   10.14
  -1   8  11   13.49   10.49
   1  -8 -11    4.50   12.99
  -1  -8  11   12.16   14.19
   1  -8 -11   17.11   10.44
   1   8 -11   12.17    8.89
   1  -8 -11   38.64   14.96
  -1   8  10   20.70    9.92
  -1   8  10   21.36   10.58
   1  -8 -10   25.00   13.27
   1   8 -10    2.14   10.19
  -1  -8  10   29.76   15.04
   1   8 -10    9.02    7.66
   1  -8 -10    2.22   11.75
   1  -8 -10   21.40   14.27
   1   8 -10   15.27    9.03
  -1   8   9   25.16    9.23
  -1   8   9   20.87   10.31
   1  -8  -9   29.18   12.21
   1   8  -9   14.10    9.67
  -1  -8   9    4.19   13.47
   1  -8  -9   22.02   10.84
   1   8  -9    8.69    7.82
   1  -8  -9   21.24   13.27
   1   8  -9   34.67    9.38
  -1   8   8    9.63    8.29
  -1   8   8   18.74    9.77
   1  -8  -8    0.49   10.79
   1   8  -8   -8.34    9.29
  -1  -8   8   -7.41   12.88
   1  -8  -8    9.20    9.81
   1  -8  -8   18.12   12.42
   1   8  -8   13.55    8.64
   1   8  -8    3.19    7.01
  -1   8   7   36.54    8.87
   1   8  -7   30.71    9.58
  -1  -8   7   29.20   10.07
   1  -8  -7   44.34   11.95
  -1   8   7   51.65   10.60
  -1  -8   7   48.02   13.72
   1  -8  -7   40.20   13.18
   1  -8  -7   31.58   10.12
   1   8  -7   39.30    9.82
   1   8  -7   30.65    8.48
  -1   8   6    5.28    7.46
  -1  -8   6    1.43    8.11
  -1  -8   6    1.79    7.95
  -1   8   6    0.38    8.39
   1   8  -6   -3.03    8.11
   1  -8  -6   -0.42    9.73
  -1  -8   6    6.47   12.04
   1   8  -6   -1.15    6.96
   1  -8  -6   -1.05    8.55
   1  -8  -6    1.70   11.12
   1   8  -6    3.11    8.01
  -1   8   5   46.98    8.84
   1   8  -5   39.21    9.22
   1  -8  -5   24.57   10.57
  -1   8   5   41.14    9.38
  -1  -8   5   49.99    9.24
  -1   8   5   38.39   11.45
  -1  -8   5   76.67   14.39
   1  -8  -5   51.85   13.88
   1   8  -5   33.24    9.67
   1   8  -5   37.12    8.46
   1  -8  -5   33.58    9.78
   1  -8  -4   50.13   11.57
   1   8  -4   30.90    9.21
  -1   8   4   49.84    9.90
  -1  -8   4   36.79    8.85
  -1  -8   4   61.96   14.09
  -1   8   4   41.98   11.34
   1   8  -4   29.41    8.38
   1   8  -4   37.51   10.36
   1  -8  -4   41.24   10.01
   1  -8  -4   28.58   12.71
  -1   8   3   40.24   14.42
  -1   8   3   31.05    8.91
  -1  -8   3   36.37    8.65
   1  -8  -3   21.28   10.81
   1   8  -3   31.29    8.45
  -1  -8   3   29.62   12.93
   1  -8  -3    3.23   12.85
  -1   8   3   26.58   10.48
   1   8  -3   32.96    8.11
   1   8  -3   21.20    9.33
   1  -8  -3   17.47    8.34
  -1   8   2   48.22   14.98
  -1  -8   2   84.25   10.24
   1   8  -2   95.40   10.60
  -1   8   2   88.62   11.15
   1  -8  -2   54.08   12.18
  -1  -8   2   71.46   15.81
  -1   8   2   90.34   12.61
   1  -8  -2   85.79   15.17
   1  -8  -2   82.25   10.38
   1   8  -2   64.98   11.87
  -1   8   1   -1.88   12.11
   1   8  -1    6.53    7.09
  -1  -8   1    6.35    7.59
   1  -8  -1    3.88    9.51
  -1   8   1    0.32    7.78
  -1   8   1    8.58    8.24
  -1  -8   1    4.00   12.75
   1   8  -1   -4.93    9.08
   1  -8  -1    0.75    6.96
  -1   8   0   47.46    9.02
   1   8   0   49.30    8.18
  -1  -8   0   54.17    8.13
   1  -8   0   53.26   10.70
  -1  -8   0   55.76   15.20
  -1  -8   0   49.86   11.81
  -1   8   0   56.70    9.71
   1   8   0   25.73    9.65
  -1  -8  -1    2.47    6.44
  -1  -8  -1    7.05    6.87
  -1   8  -1    4.44    7.09
   1   8   1    8.01    6.92
   1  -8   1   11.28    8.77
  -1  -8  -1   25.42   13.26
  -1  -8  -1    6.35   10.32
  -1   8  -1   20.31    7.68
   1  -8   1   10.43    9.89
   1  -8   1   -3.84    5.96
  -1   8  -2   19.30    7.85
  -1  -8  -2    6.92    6.48
  -1  -8  -2    9.22    6.73
   1  -8   2    8.49    9.27
   1   8   2    0.27    6.83
  -1   8  -2   15.33    7.47
   1  -8   2    1.51    9.41
   1  -8   2   20.36    6.00
  -1  -8  -2   12.45   10.65
  -1  -8  -3   22.15    7.34
  -1   8  -3   13.96    8.03
   1   8   3   23.17    7.32
  -1  -8  -3   13.73    6.79
   1  -8   3   21.39    9.61
   1  -8   3    8.86   10.02
  -1   8  -3   13.05    7.41
  -1  -8  -3   12.16   10.70
   1  -8   3   17.68    6.23
  -1  -8  -4   -5.58    7.36
  -1   8  -4    1.00    7.62
   1   8   4   -0.83    6.85
   1  -8   4   -2.19    9.47
  -1  -8  -4    5.17    6.23
   1  -8   4    1.47    9.32
  -1   8  -4   12.28    7.13
   1   8   4    8.16    8.93
   1  -8   4    3.92    5.83
  -1   8  -4    6.45    8.57
  -1   8  -5    8.27    8.63
   1   8   5   21.99    7.89
  -1  -8  -5    9.79    8.47
   1  -8   5    8.26   10.29
  -1  -8  -5    4.32    6.64
   1  -8   5   10.90   10.37
  -1   8  -5   14.60    7.71
   1  -8   5   16.03    6.48
  -1   8  -5   20.32    9.39
   1   8   6   20.98    9.39
   1  -8   6   -1.54   10.66
  -1   8  -6  -11.14   10.21
   1   8   6   19.45    8.09
  -1  -8  -6   21.76    6.92
  -1  -8  -6   23.27    9.45
   1  -8   6   20.07   10.78
  -1   8  -6   31.83    8.27
   1  -8   6   23.76    6.79
  -1   8  -6   32.74    9.50
   1   8   7    6.50    9.31
  -1   8  -7   -0.75    8.74
   1   8   7    7.19    7.74
   1  -8   7   -8.81   11.24
  -1  -8  -7   -0.89    6.39
  -1  -8  -7    7.49   10.28
   1  -8   7    3.09   10.39
  -1   8  -7  -11.24    8.37
   1  -8   7    4.10    6.26
  -1   8  -7    4.33    8.34
  -1  -8  -7   -6.75    9.52
   1   8   8   56.77   11.26
  -1  -8  -8   58.78   12.60
  -1   8  -8   22.45   10.38
   1   8   8   42.95    9.38
  -1  -8  -8   37.48    7.79
   1  -8   8   38.95   12.21
  -1   8  -8   26.88    9.29
  -1  -8  -8   43.90   10.62
   1   8   9    6.00    9.91
  -1  -8  -9   -7.73   12.35
   1   8   9   -2.82    7.92
  -1   8  -9   13.24    9.32
  -1  -8  -9   -1.34    6.16
   1  -8   9    7.79   11.28
  -1   8  -9    4.09    7.55
   1   8  10    8.86   10.79
  -1  -8 -10   17.36   13.31
  -1  -8 -10   11.83    6.33
   1   8  10   16.54    8.56
   1  -8  10   18.65   12.11
  -1   8 -10   -2.39    7.16
  -1  -8 -10    0.64   13.13
   1   8  11   25.59   11.90
  -1  -8 -11   25.08   14.15
   1  -8  11   13.57   12.60
  -1  -8 -11   34.83   11.49
  -1  -8 -11   10.02   13.57
  -1   8 -11   14.58    7.61
   1   8  12    3.27   11.88
  -1  -8 -12   -9.45   14.34
   1  -8  12   -1.96   12.78
  -1  -8 -12   -0.53   11.38
  -1  -8 -12   12.63   13.75
  -1   8 -12    3.32    6.39
  -1   9  10    0.40    9.92
  -1   9  10   -8.29   11.69
   1   9 -10   -0.46   10.64
   1  -9 -10  -22.60   14.40
  -1  -9  10  -16.06   15.65
   1   9 -10   -3.23    9.69
   1  -9 -10  -24.76   14.92
  -1   9   9    5.26    9.68
   1   9  -9   -6.59   10.84
  -1   9   9    9.38   11.13
   1  -9  -9   28.79   13.60
  -1  -9   9   -4.83   11.00
  -1  -9   9    7.80   15.15
   1   9  -9   15.77   10.10
   1  -9  -9   13.69   13.83
  -1   9   8   22.51    9.29
  -1  -9   8   18.13   10.40
   1  -9  -8   15.19   11.83
  -1   9   8    2.26   10.96
   1   9  -8    7.52   10.32
  -1  -9   8    3.79   14.99
   1  -9  -8   45.84   14.87
   1   9  -8   12.57   10.17
  -1   9   7    1.70    8.24
   1   9  -7   12.31    9.19
   1  -9  -7   14.13   11.51
  -1   9   7   -0.86    9.39
  -1  -9   7   -7.90    9.63
  -1  -9   7    0.75   13.31
   1   9  -7   -2.80    9.32
   1  -9  -7   -4.52   13.18
  -1   9   6   12.39    8.52
   1   9  -6    1.13    8.80
   1  -9  -6    0.46   10.65
  -1   9   6    7.86    9.34
  -1  -9   6    5.30    8.87
  -1  -9   6    9.65   13.82
   1  -9  -6    7.57   12.97
   1  -9  -6   -7.15   10.02
   1   9  -6   -1.88    9.36
  -1   9   5    8.51    8.26
   1  -9  -5   -2.59   10.22
  -1   9   5    7.22    9.25
  -1  -9   5    5.60    8.59
  -1  -9   5   -1.78    9.06
   1   9  -5    1.44    8.42
  -1  -9   5   -3.68   13.74
   1  -9  -5   -9.34   13.60
   1  -9  -5   -2.81    9.37
   1   9  -5  -13.13   10.21
   1   9  -4    7.62    8.46
  -1   9   4    5.47    8.76
  -1  -9   4    1.41    8.11
   1  -9  -4    2.07    9.96
  -1  -9   4   -5.15   13.62
   1  -9  -4    7.38   12.55
   1  -9  -4   -1.66    8.39
   1   9  -4    6.10    9.08
   1  -9  -3    9.27   10.41
  -1   9   3    6.41    8.94
   1   9  -3   -3.67    8.59
  -1  -9   3   11.60    8.03
  -1  -9   3   17.72   13.42
   1  -9  -3   -5.00    8.61
   1  -9  -3    3.04   13.06
   1   9  -3   14.30   10.13
   1  -9  -2   -7.03   10.93
  -1   9   2    7.00    8.59
   1   9  -2    1.62    7.98
  -1  -9   2    0.78    7.57
  -1  -9   2   -4.45   13.20
   1  -9  -2    0.60   12.58
   1   9  -2    1.46    9.46
  -1   9   1    5.08    9.29
   1   9  -1    7.58    8.64
   1  -9  -1    5.02   10.72
  -1  -9   1   22.56    8.21
  -1  -9   1   32.05   12.57
  -1  -9   1   10.81   14.36
   1   9  -1   20.81   10.96
   1   9   0    5.94    7.85
  -1  -9   0   -6.55    7.96
   1  -9   0  -10.35   10.63
  -1   9   0    7.52    8.24
  -1  -9   0   -5.56   14.77
  -1  -9   0    6.59   11.79
   1   9   0   -0.51    9.86
  -1  -9  -1   11.64    7.82
   1   9   1    3.73    8.00
  -1   9  -1   -5.41    9.03
   1  -9   1   -9.61   11.09
   1   9   1   -4.66   10.39
  -1  -9  -1    1.11   11.91
   1   9   2   13.60    8.18
  -1   9  -2   24.94    9.42
  -1  -9  -2   29.62    8.54
   1  -9   2   31.53   11.51
   1  -9   2   30.24   12.67
   1   9   2   15.88   10.87
  -1  -9  -2   29.75   13.19
  -1   9  -3    4.50    8.55
  -1  -9  -3    7.48    8.26
   1  -9   3   -7.86   10.46
   1   9   3    4.39    7.72
   1  -9   3   -1.74   11.81
  -1  -9  -3   -4.00   12.63
  -1   9  -4   -4.95    9.74
  -1  -9  -4   10.63    8.88
   1  -9   4    6.07   11.75
   1   9   4   21.65    8.52
   1  -9   4    6.24   12.06
  -1  -9  -4   10.88   12.32
   1   9   5   13.75   10.37
   1   9   5   23.91    8.98
  -1  -9  -5   14.98    9.74
   1  -9   5   17.64   11.67
  -1   9  -5  -13.76   10.85
   1  -9   5    0.57   12.24
   1   9   6   10.34   10.01
  -1   9  -6    9.37    9.70
   1   9   6   11.64    8.78
   1  -9   6   -1.70   11.43
  -1  -9  -6   16.77    9.93
   1  -9   6    5.22   11.58
  -1   9  -6   23.50   10.24
   1   9   7   28.01   11.17
   1  -9   7    3.51   11.87
  -1   9  -7   -3.81   10.30
   1   9   7   14.81    8.88
  -1  -9  -7    3.14   11.13
   1  -9   7    1.19   11.84
  -1   9  -7   11.03    9.61
   1   9   8   -7.88   10.65
   1  -9   8    2.28   11.22
  -1  -9  -8    2.05   11.58
  -1   9  -8   -0.44   10.31
   1   9   8   -1.71    8.72
   1  -9   8    2.41   11.78
  -1   9  -8    9.27    9.53
   1   9   9   14.35   11.34
  -1  -9  -9   13.78   12.98
   1  -9   9   16.17   12.55
  -1   9  -9    0.46   10.44
   1  -9   9   -5.62   13.11
  -1   9  -9   20.55    9.01
   1   9  10   17.81   12.03
   1  -9  10   22.97   13.05
  -1   9 -10   -0.48   10.56
  -1  -9 -10   12.11   13.42
   1  -9  10   12.88   12.74
  -1   9 -10    1.46    7.89
  -1  10   6   -6.79    9.05
   1  10  -6    2.94    9.99
  -1 -10   6  -14.87   10.37
   1 -10  -6   20.17   11.96
  -1  10   6   -4.05   10.23
  -1 -10   6   -9.10   15.34
   1  10  -6   -1.10   10.89
  -1  10   5   -0.35    8.83
   1 -10  -5    4.71   11.13
  -1  10   5    4.41   10.30
   1  10  -5    9.29    9.39
  -1 -10   5   -1.25    9.14
  -1 -10   5   14.90   14.70
   1  10  -5  -11.08   11.18
   1 -10  -5   -3.40   14.61
   1 -10  -4    8.02   11.11
  -1  10   4    2.16    9.60
   1  10  -4    6.61    9.52
  -1 -10   4  -10.51    8.96
  -1 -10   4  -11.56   15.51
   1 -10  -4   14.92   14.28
   1  10  -4   10.69   11.12
   1 -10  -3   -4.35   11.68
   1  10  -3    0.38    8.76
  -1  10   3   -0.42    9.25
  -1 -10   3   -0.86    8.37
  -1 -10   3   -0.84   14.31
   1 -10  -3   14.04   14.29
   1  10  -3   20.43   11.16
   1 -10  -2  -13.57   11.84
  -1  10   2   -5.36    9.92
   1  10  -2   -5.14    9.59
  -1 -10   2    6.46    8.77
   1 -10  -2   -2.65   14.02
  -1 -10   2  -10.26   16.01
  -1 -10   2   -2.44   13.21
   1  10  -2  -15.00   12.43
   1  10  -1    1.82    8.83
  -1  10   1    6.53    9.43
  -1 -10   1   -2.21    8.45
   1 -10  -1    7.50   11.25
  -1 -10   1    9.18   13.13
  -1 -10   1  -10.47   15.99
   1 -10  -1    1.31   14.05
   1  10  -1   -4.69   11.33
   1 -10   0  -11.20   11.52
   1  10   0    0.36    9.08
  -1  10   0  -11.79   10.41
  -1 -10   0   -6.43    8.66
  -1 -10   0   12.94   13.01
   1  10   0    5.34   11.59
   1  10   1    7.38    9.11
  -1 -10  -1    3.98    8.77
   1 -10   1    7.44   11.10
  -1  10  -1   23.91   10.09
   1  10   1  -21.60   13.17
  -1 -10  -1    6.19   13.54
  -1 -10  -2   -4.79    9.20
   1  10   2    7.40    9.12
  -1  10  -2   -3.29    9.34
   1 -10   2   -6.66   11.99
   1  10   2   10.31   11.29
  -1 -10  -2    1.88   13.53
  -1  10  -3  -13.88   11.25
   1  10   3   -3.91    9.57
  -1 -10  -3    4.79    9.31
   1 -10   3   -9.36   12.97
   1 -10   3   -7.34   14.74
  -1 -10  -3    4.37   13.57
  -1 -10  -4    1.39    9.64
  -1  10  -4    4.33   10.07
   1 -10   4    0.43   11.79
   1  10   4    9.72    9.10
   1 -10   4    0.66   12.62
  -1 -10  -4    1.26   13.61
   1  10   5   18.34   10.83
   1  10   5    5.86    9.54
  -1 -10  -5   14.14   10.25
   1 -10   5  -15.52   13.13
  -1  10  -5   -5.75   10.79
   1 -10   5   -3.27   14.21
  -1 -10  -5   -9.62   14.29
   1  10   6    5.19   10.98
  -1  10  -6  -20.01   11.96
   1  10   6   10.68    9.94
   1 -10   6   -5.02   12.94
  -1 -10  -6   14.94   11.10
   1 -10   6    5.88   13.80
  -1 -10  -6   -0.66   14.09
  -2   0  19  198.47   30.67
   2   0 -19  213.29   26.19
   2   0 -19  262.21   23.66
   2   0 -18   30.31   16.24
  -2   0  18   34.12   18.39
   2   0 -18   38.82   13.53
   2   0 -17   15.68   15.04
  -2   0  17   35.68   17.30
   2   0 -17   19.46   11.98
  -2   0  16  201.10   25.30
   2   0 -16  217.22   23.23
   2   0 -16  202.76   19.64
  -2   0  15  147.07   21.47
   2   0 -15  130.80   18.82
  -2   0  15  178.86   15.93
  -2   0  15  129.56   11.55
   2   0 -15  121.78   15.48
   2   0 -14  519.86   32.66
  -2   0  14  480.88   38.51
   2   0 -14  450.15   37.19
  -2   0  14  570.00   33.55
   2   0 -14  533.68   34.00
  -2   0  14  527.94   29.95
   2   0 -13  168.75   15.43
  -2   0  13  135.29   19.22
   2   0 -13  178.86   20.14
  -2   0  13  176.86   15.95
   2   0 -13  179.35   16.70
  -2   0  13  182.92   12.86
  -2   0  12  891.57   60.25
   2   0 -12 1004.62   56.00
   2   0 -12  907.84   60.02
  -2   0  12 1071.81   56.44
   2   0 -12 1044.33   57.13
  -2   0  12 1019.75   53.51
   2   0 -11  318.57   21.34
  -2   0  11  256.67   24.43
   2   0 -11  293.47   24.98
   2   0 -11  281.73   21.29
  -2   0  11  331.88   21.36
  -2   0  11  331.13   18.79
   2   0 -10  821.98   47.56
  -2   0  10  770.06   50.69
   2   0 -10  734.35   50.54
   2   0 -10  903.69   47.99
  -2   0  10  835.91   47.27
  -2   0  10  909.97   45.38
  -2   0   9 1369.53   75.51
   2   0  -9 1349.14   72.07
   2   0  -9 1195.37   74.81
   2   0  -9 1301.53   72.30
   2   0  -9 1364.27   72.08
  -2   0   9 1332.79   71.64
  -2   0   9 1403.12   69.80
  -2   0   8   -5.16    7.37
   2   0  -8   -3.77    6.14
   2   0  -8    9.53    8.19
   2   0  -8    4.94    5.88
   2   0  -8   -2.96    5.27
  -2   0   8    6.48    5.05
  -2   0   8    1.28    3.29
   2   0  -7 1059.77   60.22
  -2   0   7 1291.76   63.06
   2   0  -7 1077.77   62.22
   2   0  -7 1104.18   60.35
   2   0  -7 1099.31   59.80
  -2   0   7 1098.61   59.50
  -2   0   7 1167.10   58.06
   2   0  -6 2000.99  106.12
  -2   0   6 2319.26  108.20
   2   0  -6 2014.08  107.52
   2   0  -6 1909.39  105.36
  -2   0   6 2107.09  105.21
   2   0  -6 2065.05  106.17
   2   0  -5  490.10   27.63
  -2   0   5  544.17   28.94
   2   0  -5  508.99   28.71
   2   0  -5  506.06   27.59
   2   0  -5  457.90   26.67
  -2   0   5  512.91   26.47
  -2   0   5  479.37   25.32
  -2   0   4 3128.18  180.01
   2   0  -4 3573.79  180.20
   2   0  -4 3364.66  179.26
   2   0  -4 3731.79  180.29
  -2   0   4 3777.52  179.04
   2   0  -4 3593.21  180.79
   2   0  -4 3624.10  180.99
   2   0  -3   46.06    4.75
   2   0  -3   33.63    5.29
   2   0  -3   47.11    5.25
   2   0  -3   35.71    3.24
   2   0  -3   40.60    4.61
   2   0  -2  307.32   18.66
   2   0  -2  351.69   19.04
   2   0  -2  362.15   19.59
   2   0  -2  348.28   18.79
  -2   0   2  350.60   18.12
   2   0  -1  582.43   31.90
   2   0  -1  619.45   31.71
   2   0  -1  579.92   31.48
  -2   0   1  626.73   31.64
   2   0   0  421.40   23.72
   2   0   0  402.31   23.20
   2   0   0  484.07   23.93
   2   0   0  491.42   23.84
  -2   0   0  419.20   23.25
   2   0   0  449.94   23.56
  -2   0   0  500.22   24.25
   2   0   0  500.63   23.92
   2   0   1   40.06    3.37
   2   0   1   45.25    3.84
   2   0   1   41.81    3.85
  -2   0  -1   43.53    3.98
  -2   0  -1   49.45    4.56
   2   0   1   39.16    4.20
   2   0   1   46.93    3.91
   2   0   1   39.94    4.33
   2   0   2  127.53    7.45
   2   0   2  125.58    8.63
  -2   0  -2  123.69    7.67
   2   0   2  146.99    8.72
   2   0   2  131.17    9.11
   2   0   2  137.93    9.29
   2   0   2  138.84    7.52
   2   0   3 2016.49   96.40
   2   0   3 1829.13   94.17
  -2   0  -3 1852.72   94.37
   2   0   3 1859.25   96.46
   2   0   3 1885.80   96.05
   2   0   3 1873.71   94.24
   2   0   3 1904.12   96.50
   2   0   4 4836.55  242.71
  -2   0  -4 4763.95  242.83
   2   0   4 5072.40  245.65
   2   0   4 4910.68  245.66
  -2   0  -4 4940.62  246.28
   2   0   4 4906.45  242.80
  -2   0  -4 4890.61  242.85
   2   0   4 4586.26  245.31
   2   0   4 4702.83  242.87
   2   0   5  701.37   35.75
   2   0   5  738.02   39.60
  -2   0  -5  703.98   35.78
   2   0   5  736.09   37.97
   2   0   5  712.58   39.24
  -2   0  -5  717.22   35.74
  -2   0  -5  678.24   39.58
   2   0   5  660.32   35.96
   2   0   5  641.45   38.57
   2   0   6 2644.85  140.35
  -2   0  -6 2679.32  136.12
   2   0   6 2737.57  138.74
   2   0   6 2612.06  139.77
  -2   0  -6 2815.05  140.68
  -2   0  -6 2735.18  136.01
   2   0   6 2556.37  139.28
   2   0   7  229.41   17.40
  -2   0  -7  212.40   11.92
   2   0   7  219.82   15.34
   2   0   7  201.78   15.98
   2   0   7  206.37   15.43
  -2   0  -7  218.23   16.69
  -2   0  -8  427.21   22.85
   2   0   8  376.58   27.99
   2   0   8  394.85   26.37
   2   0   8  413.24   26.94
  -2   0  -8  439.83   22.59
   2   0   8  399.95   26.15
  -2   0  -8  393.31   27.33
  -2   0  -8  445.29   22.74
   2   0   9  413.97   29.24
  -2   0  -9  406.28   22.48
   2   0   9  381.47   26.41
   2   0   9  441.68   27.31
  -2   0  -9  366.46   27.12
  -2   0  -9  391.51   27.36
  -2   0  -9  426.50   22.41
  -2   0  -9  417.23   22.10
   2   0   9  404.28   25.99
   2   0  10   22.96   11.69
   2   0  10   13.76    8.01
  -2   0 -10   12.17    3.80
   2   0  10   12.27    7.52
  -2   0 -10   21.89    3.59
   2   0  10   26.19    8.73
  -2   0 -10   11.74    8.71
  -2   0 -10   13.78    3.73
  -2   0 -11  804.95   45.72
  -2   0 -11  942.31   49.31
   2   0  11  936.52   54.51
   2   0  11  853.19   50.90
  -2   0 -11  965.64   52.59
   2   0  11  946.48   50.96
   2   0  11  964.64   50.17
  -2   0 -11  837.15   45.77
  -2   0 -11  840.66   45.34
  -2   0 -12    2.77    7.90
   2   0  12    4.63   13.55
   2   0  12    6.85   10.11
  -2   0 -12   -3.19    4.12
   2   0  12   -7.98    8.79
  -2   0 -12   10.50   10.64
  -2   0 -12    1.35    3.73
  -2   0 -12    8.82    4.30
   2   0  12   11.06    9.21
  -2   0 -13  769.61   52.59
   2   0  13 1552.24   67.33
   2   0  13 1338.16   61.62
  -2   0 -13 1591.14   64.18
   2   0  13 1567.30   60.57
  -2   0 -13  873.25   52.87
   2   0  13 1476.55   58.82
  -2   0 -13  858.59   52.22
   2   0  14   94.22   18.23
  -2   0 -14   34.80    6.16
   2   0  14   67.76   12.72
  -2   0 -14   91.64   14.88
  -2   0 -14   40.34    5.62
  -2   0 -14   48.35    6.62
   2   0  15  899.90   48.60
  -2   0 -15  537.63   33.17
   2   0  15  873.23   40.71
  -2   0 -15  917.11   44.04
  -2   0 -15  571.63   33.32
  -2   0 -15  488.55   32.15
  -2   0 -16  143.85   11.94
   2   0  16  227.11   25.57
   2   0  16  181.84   18.14
  -2   0 -16  195.58   20.62
  -2   0 -16  140.23   11.85
  -2   0 -16  118.63   10.73
   2   0  17   27.56   19.46
  -2   0 -17   20.73    6.77
   2   0  17   29.47   12.71
  -2   0 -17   18.03   13.82
  -2   0 -17   10.51    6.29
  -2   0 -17    3.89    5.53
   2   0  18  100.90   23.06
  -2   0 -18   83.20   10.03
   2   0  18   92.44   16.09
  -2   0 -18   81.97   17.80
  -2   0 -18   73.25    8.49
  -2   0 -19   93.77   11.13
   2   0  19  112.82   17.68
  -2   0 -19  118.00   19.22
  -2   1  19   38.16   19.60
  -2  -1  19   -3.94   20.44
   2  -1 -19   20.40   16.10
   2   1 -19   21.61   16.72
  -2   1  19   11.42   14.01
   2   1 -19   31.23   13.02
   2  -1 -19   35.25   13.79
  -2   1  18  102.31   21.84
  -2  -1  18  146.12   25.88
   2   1 -18   98.94   19.03
   2  -1 -18  113.86   20.61
  -2   1  18  114.59   17.87
   2  -1 -18   86.86   16.13
   2   1 -18  106.03   16.33
  -2   1  17   41.32   17.99
  -2  -1  17   43.42   19.08
   2   1 -17   23.91   15.28
   2  -1 -17   65.47   17.31
  -2   1  17   64.65   14.92
   2   1 -17   46.62   12.61
   2  -1 -17   74.82   14.46
  -2  -1  17   51.35    8.67
  -2  -1  16    9.08   16.40
  -2   1  16   27.58   15.60
   2  -1 -16    2.53   13.55
   2   1 -16    0.78   13.83
  -2   1  16   10.20   11.98
   2  -1 -16   21.97   11.63
   2   1 -16   15.63   10.69
  -2  -1  16   19.40    7.32
   2  -1 -15  411.87   26.17
  -2   1  15  380.33   32.62
  -2  -1  15  314.63   33.47
   2  -1 -15  364.99   31.85
   2   1 -15  411.40   31.65
  -2  -1  15  443.36   27.39
   2   1 -15  363.02   27.39
  -2   1  15  418.89   27.78
  -2   1  15  395.13   29.74
   2  -1 -15  387.96   28.51
  -2  -1  15  383.91   24.33
  -2   1  14   41.74   15.02
  -2  -1  14   19.92   14.36
   2  -1 -14   48.76    9.54
   2   1 -14   26.15   10.15
   2   1 -14   46.38   14.06
   2  -1 -14   34.64   14.60
  -2   1  14   38.56   12.39
   2  -1 -14   51.93   11.75
   2   1 -14   48.30   10.68
  -2  -1  14   58.99    8.42
  -2  -1  14   52.03   10.76
  -2   1  14   49.51   11.33
   2  -1 -13  779.23   42.36
   2   1 -13  675.11   43.35
  -2   1  13  768.90   48.42
  -2  -1  13  619.59   48.60
   2  -1 -13  623.32   46.87
   2   1 -13  680.55   47.16
   2  -1 -13  829.53   44.34
   2   1 -13  678.97   43.23
   2  -1 -13  771.91   44.41
  -2   1  13  704.43   44.96
  -2   1  13  722.14   43.26
  -2  -1  13  800.86   43.51
  -2  -1  13  781.74   41.14
   2  -1 -12  217.32   15.57
  -2   1  12  172.12   19.49
  -2  -1  12  154.91   21.04
   2   1 -12  178.59   16.85
   2  -1 -12  172.22   19.74
   2  -1 -12  233.30   17.32
  -2  -1  12  183.88   19.00
   2   1 -12  186.63   20.12
   2   1 -12  184.34   15.88
   2   1 -12  157.49   15.95
   2  -1 -12  215.18   17.37
  -2   1  12  183.82   16.09
  -2   1  12  176.20   17.69
  -2  -1  12  221.87   16.60
  -2  -1  12  212.17   14.32
  -2   1  11  858.97   54.57
  -2  -1  11  913.20   57.10
   2   1 -11  841.98   51.93
   2  -1 -11  965.54   50.76
   2   1 -11  890.01   55.20
  -2  -1  11  931.02   54.04
   2  -1 -11  986.00   52.56
   2  -1 -11  791.53   54.48
   2  -1 -11  957.76   52.25
  -2  -1  11  994.24   51.63
   2   1 -11  844.78   51.12
  -2   1  11  960.05   51.71
   2   1 -11  899.94   51.73
  -2   1  11  861.27   52.79
  -2  -1  11  984.34   49.85
  -2  -1  10  424.70   29.31
   2  -1 -10  362.83   22.45
   2   1 -10  356.90   24.31
  -2   1  10  301.61   25.11
   2  -1 -10  340.02   26.23
   2   1 -10  333.80   26.70
  -2  -1  10  295.49   24.67
  -2  -1  10  422.07   23.55
  -2   1  10  322.50   24.14
   2   1 -10  334.78   22.74
  -2   1  10  387.47   23.36
   2   1 -10  355.09   23.46
   2  -1 -10  393.19   23.98
  -2  -1  10  378.64   21.46
  -2  -1   9  112.75   13.72
  -2   1   9   75.67   10.88
   2   1  -9   84.72   10.50
   2  -1  -9   84.73    8.82
   2  -1  -9  100.96   12.60
   2   1  -9   74.55   12.49
  -2  -1   9   85.11   11.68
   2   1  -9   77.09    9.60
  -2   1   9   79.59   10.34
  -2   1   9   95.11    9.41
   2  -1  -9   82.12    9.54
   2   1  -9   74.24    8.61
  -2  -1   9   99.86    7.83
  -2  -1   9   79.17    9.12
   2  -1  -8  567.35   30.78
  -2   1   8  501.36   32.98
  -2  -1   8  665.79   36.49
   2   1  -8  530.37   32.32
   2  -1  -8  596.35   32.00
   2   1  -8  521.54   30.74
  -2   1   8  603.86   31.35
  -2  -1   8  552.15   31.21
   2   1  -8  519.37   31.42
  -2   1   8  466.87   31.83
   2  -1  -8  511.79   33.38
   2   1  -8  523.13   34.62
  -2  -1   8  560.29   33.33
   2  -1  -7  617.22   32.69
  -2   1   7  575.61   34.66
   2   1  -7  560.46   34.22
  -2  -1   7  688.84   37.34
   2  -1  -7  594.45   33.44
   2   1  -7  546.02   32.53
  -2   1   7  636.12   33.06
   2   1  -7  613.77   33.65
  -2  -1   7  574.98   33.01
  -2   1   7  575.58   34.24
  -2  -1   7  638.92   35.29
   2   1  -7  541.33   36.09
   2  -1  -7  566.31   34.90
   2  -1  -7  623.44   34.33
   2  -1  -6  471.26   25.24
  -2   1   6  468.45   27.04
  -2  -1   6  420.57   27.54
   2   1  -6  450.03   27.28
   2  -1  -6  431.91   25.71
  -2   1   6  464.77   26.87
   2   1  -6  440.91   25.13
  -2   1   6  497.97   25.77
  -2  -1   6  455.61   25.59
   2   1  -6  446.13   26.15
   2  -1  -6  456.79   26.76
   2  -1  -6  434.02   27.05
   2   1  -6  424.27   28.42
  -2  -1   6  504.03   27.65
   2   1  -5 2225.47  119.98
  -2   1   5 2493.82  119.51
  -2  -1   5 2194.81  120.37
   2  -1  -5 2272.70  117.94
  -2   1   5 2345.17  118.36
   2   1  -5 2313.57  119.12
  -2  -1   5 2331.26  118.36
   2   1  -5 2296.28  117.93
   2  -1  -5 2216.17  118.43
  -2   1   5 2412.14  119.60
   2  -1  -5 2216.04  119.58
   2  -1  -5 2471.32  119.79
   2   1  -5 2147.95  120.82
  -2  -1   5 2597.11  120.01
   2  -1  -4  122.58    7.96
  -2   1   4  146.30    9.25
   2  -1  -4  136.02   10.11
   2   1  -4  121.42   10.50
  -2  -1   4  133.05   10.94
  -2   1   4  147.92    9.72
   2  -1  -4  127.34    9.66
   2   1  -4  135.65    9.47
   2   1  -4  122.95    7.82
   2  -1  -4  118.85    8.58
  -2  -1   4  142.36    8.31
   2   1  -4  128.51   10.95
  -2  -1   4  142.74    9.75
   2  -1  -4  146.05   10.17
   2   1  -3 3131.62   34.69
   2  -1  -3 3470.67   31.80
  -2   1   3 3543.77   28.85
   2   1  -3 3158.79   29.80
   2  -1  -3 3067.95   24.54
   2  -1  -3 3257.25   29.02
   2   1  -3 3344.54   33.08
   2  -1  -3 3297.19   31.08
  -2  -1   3 3509.58   28.13
  -2   1   3 3212.65   32.51
   2   1  -2   17.31    4.76
   2  -1  -2   14.76    2.48
   2  -1  -2   16.17    3.85
  -2   1   2   20.23    4.14
   2  -1  -2   16.83    4.09
   2   1  -2   14.49    3.69
  -2  -1   2   18.07    3.06
   2  -1  -2   17.30    3.27
  -2   1   2   17.16    2.94
   2   1  -2   12.94    3.60
   2  -1  -1  914.98   48.76
  -2  -1   1  865.33   47.90
   2  -1  -1 1020.85   49.22
   2   1  -1  944.44   48.19
   2  -1  -1 1024.53   48.12
   2   1  -1  909.41   49.06
  -2  -1   1 1023.35   47.78
  -2   1   1  934.15   47.91
   2  -1  -1  775.79   48.39
   2  -1   0   73.28    5.13
   2  -1   0   69.28    5.27
   2  -1   0   83.98    6.14
   2   1   0   65.92    4.57
   2  -1   0   75.28    4.20
  -2  -1   0   80.26    5.19
   2   1   0   67.08    4.70
  -2   1   0   62.38    4.34
   2  -1   0   70.34    5.25
   2   1   0   71.48    6.07
   2   1   0   71.25    5.20
   2  -1   0   65.49    5.70
   2  -1   1   30.03    4.28
  -2   1  -1   31.05    3.23
   2  -1   1   30.80    4.25
   2   1   1   28.58    3.14
   2   1   1   23.14    2.86
   2  -1   1   37.59    4.16
   2  -1   1   28.12    3.13
   2   1   1   28.83    2.74
   2   1   1   26.32    4.26
   2  -1   1   34.19    3.72
  -2  -1  -1   22.51    3.79
   2   1   1   29.51    3.11
   2   1   1   31.70    3.50
   2   1   2 1259.98   67.36
  -2   1  -2 1430.44   68.79
   2   1   2 1332.60   68.40
   2  -1   2 1390.85   67.95
   2  -1   2 1315.23   69.78
  -2  -1  -2 1359.43   69.49
   2  -1   2 1243.51   67.80
   2   1   2 1394.36   69.52
   2  -1   2 1398.55   69.02
   2   1   2 1386.95   68.92
   2   1   2 1384.05   67.93
   2  -1   2 1325.48   69.69
  -2   1  -3  962.09   51.06
   2   1   3 1001.76   51.95
   2  -1   3  965.68   50.89
  -2   1  -3  939.57   52.32
   2  -1   3  901.34   53.45
   2   1   3 1070.52   51.76
   2   1   3  984.57   52.90
   2   1   3  983.34   52.57
   2  -1   3 1025.35   52.63
  -2  -1  -3 1074.55   51.09
   2   1   3 1010.05   51.10
   2  -1   3  914.35   52.99
   2   1   3 1002.71   50.93
  -2   1  -4 1136.92   66.17
  -2   1  -4 1230.75   64.40
   2  -1   4 1187.90   67.75
   2  -1   4 1206.39   64.20
   2   1   4 1267.61   65.81
   2   1   4 1355.00   65.94
   2   1   4 1212.21   66.87
   2  -1   4 1320.10   66.48
   2   1   4 1258.94   66.57
   2   1   4 1263.36   64.31
  -2  -1  -4 1369.30   64.44
   2   1   4 1294.59   64.58
  -2  -1  -4 1312.56   66.88
   2  -1   4 1156.77   66.69
   2  -1   5 2456.81  134.99
   2   1   5 2728.22  133.09
  -2   1  -5 2554.67  130.89
   2  -1   5 2610.23  130.79
   2   1   5 2775.79  133.29
   2  -1   5 2687.92  133.39
   2   1   5 2621.44  133.64
   2  -1   5 2469.52  132.12
   2  -1   5 2438.77  133.58
  -2  -1  -5 2781.62  130.88
   2   1   5 2504.70  132.89
   2   1   5 2518.02  131.14
   2   1   5 2438.46  130.77
  -2  -1  -5 2697.73  133.90
   2   1   6  315.34   18.26
   2  -1   6  269.75   20.23
  -2   1  -6  268.53   15.08
   2  -1   6  259.30   14.88
   2   1   6  280.51   18.21
   2  -1   6  268.39   16.95
   2  -1   6  296.82   18.20
   2   1   6  259.42   18.24
  -2  -1  -6  297.34   18.83
   2  -1   6  273.23   18.39
   2   1   6  256.16   17.36
   2   1   6  262.48   15.56
  -2  -1  -7 1580.69   80.40
   2   1   7 1600.61   84.62
   2  -1   7 1532.61   87.08
  -2   1  -7 1599.84   81.41
   2   1   7 1524.37   84.72
   2  -1   7 1498.67   83.48
   2  -1   7 1457.60   83.24
   2  -1   7 1535.75   84.35
   2   1   7 1526.67   84.67
  -2  -1  -7 1600.83   85.15
   2  -1   7 1523.05   84.55
   2   1   7 1475.64   83.71
  -2  -1  -7 1738.69   81.58
  -2  -1  -7 1724.62   81.48
   2  -1   8   45.59   10.87
  -2  -1  -8   41.21    3.58
   2   1   8   62.51    9.30
   2  -1   8   51.52    8.40
  -2  -1  -8   31.50    7.95
  -2  -1  -8   45.21    7.03
   2   1   8   48.13    8.99
   2  -1   8   40.60    7.65
  -2   1  -8   33.36    4.56
   2  -1   8   37.24    7.24
   2   1   8   44.00    8.41
   2  -1   8   41.55    7.56
  -2   1  -8   40.79    8.30
   2   1   8   37.62    6.86
  -2  -1  -8   41.27    4.66
  -2  -1  -8   45.64    4.70
  -2  -1  -9   75.32    4.53
  -2   1  -9   77.20    5.59
  -2  -1  -9   81.95   10.16
  -2  -1  -9   81.61    8.25
   2   1   9   70.66   10.73
   2  -1   9   73.10    8.96
   2  -1   9   64.38   12.31
   2   1   9   63.32   10.17
   2  -1   9   73.40    9.07
   2  -1   9   81.39    9.03
  -2  -1  -9   89.13    5.93
   2  -1   9   81.98    9.58
  -2   1  -9   77.03   10.07
  -2  -1  -9   79.79    5.55
   2   1   9   79.13   10.09
   2   1  10  384.42   23.78
   2  -1  10  388.73   26.75
  -2   1 -10  359.39   17.21
  -2  -1 -10  367.08   19.85
  -2  -1 -10  336.24   16.08
   2  -1  10  363.20   21.65
   2   1  10  401.96   23.48
   2  -1  10  363.11   21.64
  -2   1 -10  355.87   22.49
   2   1  10  373.50   22.26
   2  -1  10  361.36   20.78
  -2  -1 -10  419.80   23.85
  -2  -1 -10  416.57   17.82
  -2  -1 -10  414.39   23.23
  -2  -1 -10  371.16   17.09
   2  -1  11   20.29   12.95
  -2  -1 -11    3.71    7.05
   2   1  11   -0.61   10.72
  -2  -1 -11    0.52    8.89
  -2   1 -11    5.32    4.44
   2  -1  11    5.84    8.66
   2   1  11   -5.40    9.82
  -2  -1 -11    1.71    3.45
   2  -1  11   11.15    8.02
  -2   1 -11   12.62    2.42
   2   1  11    2.90    8.78
  -2   1 -11    4.14    3.00
   2  -1  11    9.00    8.72
  -2   1 -11   14.06    8.98
  -2  -1 -11    4.50    9.06
  -2  -1 -11   -1.42    4.49
  -2  -1 -11   -1.25    4.65
  -2   1 -12 1006.22   52.68
  -2  -1 -12 1260.04   56.03
   2   1  12 1218.53   61.20
   2  -1  12 1311.37   64.88
  -2  -1 -12  654.29   51.08
   2  -1  12 1162.96   58.57
   2   1  12 1260.13   59.76
  -2  -1 -12 1184.79   52.70
   2  -1  12 1251.79   58.35
  -2   1 -12 1187.34   59.55
   2  -1  12 1299.82   57.52
  -2  -1 -12 1317.21   60.45
   2   1  12 1349.55   59.32
  -2  -1 -12 1031.81   53.07
   2   1  12 1241.69   56.50
  -2   1 -12  783.29   50.98
  -2   1 -12  866.90   50.58
  -2  -1 -12  997.86   52.44
  -2  -1 -12 1289.83   59.50
   2  -1  13  150.06   21.25
  -2  -1 -13  118.88   14.78
  -2   1 -13   73.23    7.91
  -2  -1 -13   64.69    6.96
   2   1  13  134.30   18.20
   2   1  13  111.17   15.36
  -2  -1 -13  110.82    8.57
   2   1  13  104.58   13.25
   2  -1  13  114.90   13.45
  -2  -1 -13  126.36   15.96
  -2   1 -13   91.45   14.12
  -2  -1 -13   87.71    8.73
  -2   1 -13   56.18    5.63
  -2  -1 -13   84.64    8.13
  -2   1 -13   59.43    6.42
  -2  -1 -14  566.10   28.63
   2   1  14  800.89   41.93
   2  -1  14  830.39   45.70
  -2   1 -14  403.58   28.42
  -2  -1 -14  873.26   30.59
   2   1  14  801.04   36.65
  -2   1 -14  813.55   39.62
   2  -1  14  895.92   37.19
  -2  -1 -14  902.23   40.36
  -2  -1 -14  584.01   29.97
  -2   1 -14  362.79   27.14
  -2   1 -14  330.25   26.36
  -2  -1 -14  530.26   28.87
   2  -1  15  187.24   25.02
  -2  -1 -15  131.30   10.16
  -2   1 -15   94.50    9.80
   2   1  15  141.11   21.76
  -2  -1 -15  175.30   11.21
   2   1  15  155.71   16.29
   2  -1  15  179.25   17.14
  -2  -1 -15  197.10   19.39
  -2   1 -15   68.54    7.32
  -2  -1 -15  115.80   10.09
  -2   1 -15  188.57   18.72
  -2   1 -15   76.80    8.44
  -2  -1 -15  125.66   10.94
  -2  -1 -16  129.06   10.68
   2  -1  16  164.51   24.98
  -2   1 -16  125.47   10.99
   2   1  16  206.52   23.89
  -2  -1 -16  150.89   11.17
   2   1  16  152.97   17.03
   2  -1  16  158.61   17.12
  -2  -1 -16  189.08   19.87
  -2   1 -16  178.76   19.36
  -2  -1 -16  125.62   11.55
  -2   1 -16   66.36    7.68
  -2  -1 -16  112.34   10.44
  -2   1 -16   91.83    9.06
   2  -1  17  127.27   24.51
  -2  -1 -17   74.54    9.02
  -2   1 -17   67.87    9.41
  -2  -1 -17   69.63    9.22
   2   1  17   92.47   15.82
   2  -1  17  107.44   15.79
  -2  -1 -17   78.81    9.06
  -2  -1 -17  106.10   17.68
  -2   1 -17   93.41   17.32
  -2   1 -17   50.55    6.31
  -2  -1 -17   91.13   10.10
  -2   1 -17   62.11    7.56
   2  -1  18   -5.03   21.05
  -2  -1 -18   33.01    7.47
  -2   1 -18   24.83    7.73
   2   1  18   23.48   13.58
   2  -1  18   44.25   14.10
  -2  -1 -18   10.85    7.30
  -2  -1 -18   54.26   15.59
  -2   1 -18   10.78   14.48
  -2   1 -18   16.15    4.66
   2  -1  19   45.20   23.10
  -2   1 -19   47.56    9.45
  -2  -1 -19   37.42    8.28
   2   1  19   34.85   14.93
   2  -1  19   86.82   16.30
  -2  -1 -19   27.80    8.46
  -2   1 -19   58.65   17.27
  -2  -1 -19   59.98   16.96
  -2   2  18   23.53   17.25
  -2  -2  18    6.86   19.40
   2  -2 -18   23.78   16.43
   2   2 -18    8.97   10.81
  -2   2  18   29.31   14.08
  -2  -2  18    9.94   13.27
   2  -2 -18   13.47   12.80
   2   2 -18    4.46   11.82
  -2  -2  17  138.39   24.83
  -2   2  17  127.50   21.11
   2  -2 -17  135.93   21.04
  -2   2  17  132.19   18.25
  -2  -2  17  107.60   17.61
   2  -2 -17  159.79   18.11
   2   2 -17  133.18   16.99
  -2  -2  17  138.98   13.42
  -2   2  16   71.25   17.23
  -2  -2  16   61.52   19.68
  -2  -2  16   45.87    9.01
   2   2 -16   45.56   15.45
   2  -2 -16   49.02   16.33
  -2   2  16   44.94   14.09
  -2  -2  16   40.37   13.13
   2  -2 -16   60.56   13.05
   2   2 -16   54.97   12.34
  -2   2  15  122.14   18.36
  -2  -2  15   73.52   19.74
   2  -2 -15   90.55   11.20
   2   2 -15   90.25   17.05
   2  -2 -15   85.06   17.58
  -2   2  15  138.93   16.62
  -2  -2  15   84.60   14.67
  -2  -2  15  114.82   11.37
   2  -2 -15   77.33   13.98
   2   2 -15   91.40   13.30
  -2  -2  15   92.88   12.74
  -2   2  14  880.36   50.16
  -2  -2  14  700.48   52.64
   2  -2 -14  817.63   43.41
   2  -2 -14  626.32   48.80
   2   2 -14  750.72   48.64
  -2  -2  14  687.25   46.60
  -2  -2  14  791.60   44.79
   2   2 -14  647.33   44.64
   2  -2 -14  810.79   46.72
  -2   2  14  829.78   46.08
  -2   2  14  837.28   47.64
  -2  -2  14  733.55   42.88
   2   2 -13   33.81   10.86
  -2  -2  13   31.81    7.67
   2  -2 -13   44.48    8.45
  -2  -2  13   11.34   14.08
  -2   2  13   38.45   13.38
   2   2 -13   40.25   13.10
   2  -2 -13   33.38   13.74
  -2  -2  13   45.89   11.48
  -2   2  13   32.87   11.65
   2  -2 -13   29.94   10.57
  -2  -2  13   30.83    9.36
  -2   2  13   21.36   10.20
   2   2 -13   33.69    9.32
   2   2 -12  766.46   49.48
  -2   2  12  905.56   51.73
   2  -2 -12  901.13   46.73
  -2  -2  12  906.21   56.74
   2  -2 -12  994.73   49.42
   2  -2 -12  736.11   51.72
   2   2 -12  828.91   51.88
  -2  -2  12  876.08   51.71
  -2  -2  12  790.68   49.85
  -2   2  12  901.94   50.43
   2   2 -12  718.85   47.79
  -2   2  12  867.62   48.92
   2  -2 -12  839.31   49.21
   2   2 -12  763.98   47.97
  -2  -2  12  911.26   48.31
  -2  -2  12  837.07   46.51
   2   2 -11  223.63   19.58
  -2   2  11  242.39   20.81
  -2  -2  11  292.83   25.68
   2  -2 -11  248.91   16.52
   2  -2 -11  277.26   18.94
  -2  -2  11  253.56   21.67
   2  -2 -11  223.09   21.35
   2   2 -11  254.51   21.54
  -2   2  11  244.91   19.47
   2   2 -11  236.81   18.21
  -2  -2  11  235.24   19.56
  -2   2  11  243.21   19.90
  -2  -2  11  258.64   18.09
   2  -2 -11  234.36   18.88
  -2   2  11  261.87   18.77
   2   2 -11  218.25   17.76
  -2  -2  11  255.80   16.64
  -2   2  10   63.49   11.23
  -2  -2  10   69.86   14.49
   2   2 -10   58.33   10.54
   2  -2 -10   67.51    7.54
   2  -2 -10   63.51   12.20
   2  -2 -10   64.97    9.33
   2   2 -10   63.84   11.76
  -2   2  10   69.27   10.22
  -2  -2  10   65.46   12.09
   2   2 -10   55.95    9.07
  -2   2  10   66.82   10.58
  -2  -2  10   72.65   10.53
   2   2 -10   64.19    8.78
   2  -2 -10   64.44    9.71
  -2  -2  10   64.70    8.64
  -2   2  10   82.24    9.88
   2   2  -9   50.47    9.77
  -2  -2   9   50.21   11.68
   2  -2  -9   51.92    6.43
   2  -2  -9   55.88    5.94
  -2   2   9   70.51   10.09
   2  -2  -9   53.37   10.49
   2   2  -9   39.11    9.74
  -2   2   9   52.77    8.88
  -2  -2   9   52.05   10.72
  -2   2   9   41.88    8.89
   2   2  -9   50.37    8.25
  -2  -2   9   58.01    9.30
   2  -2  -9   48.15    8.33
  -2   2   9   54.44    8.27
  -2  -2   9   56.77    7.54
   2   2  -9   46.76    7.31
   2  -2  -8   82.05    7.09
  -2  -2   8   63.24   10.62
   2   2  -8   86.97   10.70
  -2   2   8   73.29    9.72
  -2   2   8   87.22    9.71
   2  -2  -8   86.73   10.86
  -2  -2   8   92.45   11.65
   2   2  -8   62.78   10.64
  -2  -2   8   88.29    8.31
   2   2  -8   82.31    8.22
  -2   2   8   91.41    9.21
  -2   2   8   58.27    9.16
  -2  -2   8  100.04   10.20
   2   2  -8   75.12    8.88
   2  -2  -8   70.20    8.63
   2  -2  -8   87.28    6.82
   2   2  -7   13.44    7.20
  -2  -2   7    6.76    7.41
   2  -2  -7   10.72    3.71
  -2   2   7    6.83    5.79
   2  -2  -7   11.35    3.43
  -2   2   7    5.40    5.84
   2  -2  -7    2.34    6.77
   2   2  -7   15.69    7.19
  -2  -2   7   14.73    7.69
  -2   2   7    6.25    5.23
  -2   2   7    8.58    6.02
   2   2  -7   16.47    5.61
  -2  -2   7    6.45    6.10
  -2  -2   7    7.69    4.47
   2   2  -7    8.83    4.32
   2  -2  -7    9.10    5.25
   2  -2  -6  653.20   34.25
   2  -2  -6  617.55   31.85
  -2   2   6  579.66   33.65
   2   2  -6  598.83   35.72
  -2  -2   6  600.39   36.84
   2   2  -6  600.97   35.70
  -2  -2   6  602.04   35.62
  -2   2   6  590.58   33.94
   2  -2  -6  606.70   34.60
   2   2  -6  631.83   33.98
  -2  -2   6  602.16   34.53
  -2  -2   6  613.90   32.88
   2  -2  -6  590.27   33.43
  -2   2   6  584.46   34.45
   2  -2  -6  595.57   31.57
   2   2  -5  246.26   17.64
  -2   2   5  227.23   14.62
  -2  -2   5  252.65   18.29
   2  -2  -5  250.76   15.50
  -2  -2   5  230.25   14.05
  -2  -2   5  225.75   15.88
   2   2  -5  227.72   15.27
   2  -2  -5  239.55   14.87
  -2   2   5  221.99   15.53
  -2   2   5  249.98   15.44
  -2   2   5  255.17   16.00
  -2  -2   5  261.99   16.90
   2  -2  -5  239.91   15.98
   2   2  -5  208.49   16.33
   2   2  -4 4117.19  203.17
  -2   2   4 3878.28  199.45
   2  -2  -4 4272.14  200.90
   2  -2  -4 4125.30  201.14
   2   2  -4 3515.64  201.24
  -2   2   4 4089.30  201.16
  -2   2   4 3766.94  200.45
  -2  -2   4 4543.22  201.58
   2   2  -4 3809.25  200.77
  -2   2   4 3653.58  200.60
  -2  -2   4 3919.71  201.39
   2  -2  -4 3953.70  200.30
  -2  -2   4 3955.23  199.51
   2   2  -3   27.18    6.57
  -2   2   3   39.07    3.29
   2  -2  -3   32.94    5.91
  -2   2   3   40.86    5.65
   2  -2  -3   40.84    5.33
   2   2  -3   34.45    5.49
  -2   2   3   38.35    5.59
  -2  -2   3   36.82    5.20
   2  -2  -3   39.00    5.12
   2   2  -3   37.64    5.56
  -2   2   3   36.73    4.82
  -2  -2   3   39.23    4.00
   2   2  -3   42.56    5.01
  -2   2   2 3011.59  162.38
  -2   2   2 3650.87  163.18
   2   2  -2 3214.36  166.64
  -2   2   2 3220.66  164.49
   2  -2  -2 3353.60  164.25
  -2   2   2 3248.71  164.32
   2   2  -2 3074.19  163.80
   2  -2  -2 3423.70  164.79
  -2  -2   2 3440.33  163.27
  -2   2   2 3384.79  163.67
   2   2  -2 3227.67  164.82
   2   2  -2 3203.74  163.92
   2  -2  -1 1038.56   21.85
  -2   2   1 1021.91   22.47
   2   2  -1 1059.85   19.12
  -2   2   1 1034.18   22.67
   2  -2  -1 1118.67   23.69
   2   2  -1 1046.96   24.08
  -2  -2   1 1043.37   20.49
   2   2  -1 1052.26   21.57
   2  -2   0  255.12   14.27
   2  -2   0  212.45   14.18
  -2   2   0  281.56   14.60
   2  -2   0  275.61   15.26
   2   2   0  246.67   15.56
  -2  -2   0  230.35   14.01
   2   2   0  242.38   14.07
  -2   2  -1 2004.02   97.87
   2  -2   1 1805.12   97.81
   2   2   1 1984.89   96.12
   2  -2   1 1883.04   96.77
   2  -2   1 1979.79   97.58
   2   2   1 1853.32   98.21
   2  -2   1 1854.29   97.43
  -2  -2  -1 1880.98   97.16
   2   2   1 1785.72   96.62
   2   2   2  535.45   27.14
   2  -2   2  548.91   30.30
  -2   2  -2  539.34   29.91
   2  -2   2  533.95   28.10
   2   2   2  521.63   27.53
   2  -2   2  526.71   29.18
   2   2   2  486.58   29.81
   2   2   2  523.60   28.92
  -2  -2  -2  540.99   29.22
  -2   2  -3 1246.06   63.38
   2  -2   3 1237.98   60.84
   2  -2   3 1307.30   64.18
   2   2   3 1239.72   61.59
   2   2   3 1138.74   59.69
   2   2   3 1251.15   61.40
   2   2   3 1198.08   63.13
   2  -2   3 1256.91   62.37
   2   2   3 1213.26   62.12
   2  -2   3 1156.07   60.29
  -2  -2  -3 1267.67   62.62
  -2  -2  -3 1227.67   62.18
   2   2   3 1190.96   61.12
   2  -2   3 1131.44   60.09
   2   2   3 1245.46   60.89
   2  -2   4 1005.78   53.81
   2  -2   4 1090.88   58.02
   2   2   4 1071.90   55.00
  -2   2  -4 1044.89   56.76
  -2   2  -4  999.98   54.05
   2   2   4 1021.59   55.25
   2  -2   4 1052.02   53.93
   2  -2   4 1034.62   55.57
   2   2   4 1049.86   56.74
   2   2   4 1063.27   55.81
  -2  -2  -4 1110.87   54.09
  -2  -2  -4 1042.12   55.54
   2   2   4 1038.41   54.34
   2   2   4 1056.42   53.97
   2   2   5 1388.83   70.39
  -2   2  -5 1315.71   72.06
   2  -2   5 1465.98   74.28
  -2   2  -5 1341.47   69.08
   2  -2   5 1334.17   68.83
   2   2   5 1309.72   70.84
   2  -2   5 1419.52   71.12
   2  -2   5 1380.97   69.51
   2   2   5 1271.99   72.11
   2   2   5 1333.10   71.10
   2  -2   5 1403.92   71.72
   2   2   5 1336.47   69.45
  -2  -2  -5 1353.56   70.89
   2   2   5 1275.20   68.87
  -2   2  -6  526.01   32.91
   2  -2   6  514.42   29.26
   2  -2   6  578.98   35.26
   2   2   6  569.98   31.33
  -2   2  -6  548.57   29.57
  -2  -2  -6  593.56   30.68
   2   2   6  579.19   32.33
   2  -2   6  534.85   30.39
   2   2   6  514.31   33.14
   2  -2   6  570.46   31.93
   2   2   6  570.86   32.33
  -2  -2  -6  556.57   31.94
   2  -2   6  595.56   32.68
   2   2   6  535.10   30.14
   2  -2   7  647.67   37.75
  -2   2  -7  711.43   41.87
   2   2   7  733.58   40.49
   2  -2   7  745.31   44.66
  -2   2  -7  713.12   38.23
  -2  -2  -7  745.79   39.41
   2   2   7  721.10   41.28
  -2  -2  -7  588.30   40.29
   2  -2   7  701.30   39.43
  -2   2  -7  703.07   41.47
   2   2   7  724.84   41.18
   2  -2   7  734.04   40.69
  -2  -2  -7  818.80   38.68
  -2  -2  -7  814.28   38.50
   2  -2   7  708.94   41.10
  -2  -2  -7  694.59   40.74
  -2   2  -8  458.77   16.82
   2   2   8  500.79   21.07
  -2   2  -8  449.65   22.08
  -2  -2  -8  498.89   19.01
  -2  -2  -8  420.40   13.97
   2  -2   8  459.23   25.91
   2   2   8  471.97   21.98
  -2  -2  -8  339.37   19.95
   2  -2   8  446.25   19.81
   2  -2   8  472.58   20.71
   2   2   8  469.21   21.60
  -2   2  -8  478.61   22.38
   2  -2   8  461.87   19.20
   2  -2   8  477.08   21.35
  -2  -2  -8  540.56   17.64
  -2  -2  -8  536.06   17.43
  -2  -2  -8  500.80   21.72
  -2  -2  -9   46.95    7.39
   2  -2   9   55.02   12.84
   2   2   9   50.32    9.50
  -2  -2  -9   56.56    3.76
  -2  -2  -9   55.52    9.56
   2  -2   9   31.33    7.89
   2   2   9   34.04    9.28
  -2  -2  -9   38.01    8.25
  -2  -2  -9   28.45    3.51
  -2   2  -9   43.92    5.59
   2  -2   9   42.72    8.25
   2  -2   9   40.33    7.29
   2  -2   9   38.59    8.00
  -2   2  -9   38.84    9.40
   2   2   9   41.73    9.02
  -2  -2  -9   47.07    5.94
  -2  -2  -9   57.17    6.05
   2  -2  10   55.99    9.31
   2  -2  10   41.00   14.06
  -2  -2 -10   44.10    7.78
   2   2  10   44.85    9.98
  -2  -2 -10   57.28   10.15
  -2  -2 -10   49.59    4.48
  -2   2 -10   34.72    6.05
   2  -2  10   43.92    9.06
  -2  -2 -10   35.87    9.41
  -2  -2 -10   25.77    3.78
   2   2  10   42.85   10.31
   2  -2  10   56.81    8.43
   2   2  10   47.08    9.80
  -2  -2 -10   52.76    6.46
  -2   2 -10   46.19   10.21
  -2  -2 -10   42.60    6.37
   2  -2  10   61.00    9.33
  -2  -2 -11  829.19   40.76
  -2   2 -11  803.51   42.45
   2  -2  11  851.10   52.33
  -2  -2 -11  884.11   44.29
   2   2  11  877.17   47.46
   2   2  11  890.76   47.16
   2  -2  11  821.26   45.94
  -2  -2 -11  718.59   46.64
   2  -2  11  818.14   45.00
   2  -2  11  857.06   46.03
  -2  -2 -11  868.57   47.82
  -2   2 -11  792.31   47.22
   2   2  11  833.17   46.41
  -2  -2 -11  918.38   43.20
  -2  -2 -11  866.07   42.63
  -2  -2 -11  917.91   47.30
   2   2  12  243.57   19.74
  -2   2 -12  210.36   13.15
   2  -2  12  258.91   24.80
  -2  -2 -12  255.39   15.71
  -2  -2 -12  239.58   11.51
  -2  -2 -12  174.02   10.95
   2   2  12  243.54   18.82
   2  -2  12  202.26   17.44
   2  -2  12  232.74   16.84
  -2  -2 -12  260.03   19.57
   2  -2  12  237.77   17.56
  -2   2 -12  217.14   18.71
   2   2  12  256.47   18.82
  -2   2 -12  152.68    9.02
  -2  -2 -12  219.32   17.85
  -2  -2 -12  230.46   13.92
  -2   2 -12  105.60    9.11
  -2  -2 -12  203.84   13.19
   2   2  13  479.74   28.03
   2  -2  13  450.36   32.67
  -2  -2 -13  342.58   16.58
  -2  -2 -13  466.02   17.33
  -2   2 -13  361.78   18.63
   2   2  13  458.64   25.64
   2  -2  13  448.70   23.62
  -2  -2 -13  497.05   27.30
  -2   2 -13  445.34   26.66
  -2   2 -13  313.85   14.30
  -2  -2 -13  399.85   19.81
  -2  -2 -13  473.91   26.18
  -2  -2 -13  387.63   19.01
  -2   2 -14  182.36   13.05
   2  -2  14  327.08   29.40
   2   2  14  343.91   24.82
  -2  -2 -14  279.92   12.47
  -2  -2 -14  324.06   12.86
  -2  -2 -14  350.66   23.01
   2  -2  14  295.14   19.19
  -2   2 -14  292.59   21.84
  -2  -2 -14  267.77   15.18
  -2   2 -14   91.51    8.23
  -2   2 -14  207.14    9.28
  -2  -2 -14  254.52   14.12
  -2  -2 -14  313.82   20.97
   2  -2  15   86.51   21.23
  -2  -2 -15   92.34    7.24
  -2  -2 -15   86.37    7.24
  -2  -2 -15   94.53   14.34
  -2   2 -15   41.66    6.93
   2   2  15   89.02   13.63
   2  -2  15   99.39   13.64
  -2  -2 -15   65.17    8.24
  -2  -2 -15  112.77   15.80
  -2   2 -15   79.25   15.29
  -2  -2 -15   60.34    8.70
  -2   2 -15   -7.41    2.82
  -2   2 -15   54.16    3.81
  -2   2 -15   19.47    2.29
  -2  -2 -16   78.71   14.17
   2  -2  16   56.99   21.69
  -2   2 -16   41.66    7.70
  -2  -2 -16   76.32    7.66
  -2  -2 -16   75.98    7.40
   2   2  16   86.26   14.47
   2  -2  16   88.95   14.19
  -2  -2 -16   68.29    8.95
  -2  -2 -16   83.54   15.44
  -2   2 -16   48.86    4.08
  -2   2 -16   74.48   15.64
  -2  -2 -16   69.65    9.48
  -2   2 -16   11.35    3.37
  -2   2 -16   20.90    2.68
   2  -2  17   -9.13   19.71
  -2   2 -17   -1.02    6.59
  -2  -2 -17    0.42    5.78
  -2  -2 -17    3.45    6.06
   2   2  17   11.25   12.73
   2  -2  17    3.04   11.49
  -2  -2 -17   -3.35    7.26
  -2  -2 -17   11.51   13.51
  -2   2 -17    5.17    3.18
  -2   2 -17   10.80   13.37
  -2  -2 -17   -7.34    7.80
  -2  -2 -18  122.35   10.92
   2  -2  18   87.42   25.56
  -2   2 -18  101.87   12.02
   2  -2  18  118.27   17.41
   2   2  18  126.54   18.40
  -2  -2 -18  139.99   19.85
  -2   2 -18  126.43   19.74
  -2  -2 -18   99.92   11.81
   2  -2  19   85.45   26.89
  -2   2 -19   81.29   11.55
   2   2  19   82.37   16.99
   2  -2  19  103.41   17.08
  -2  -2 -19   68.98   18.55
  -2   2 -19   76.80   19.02
  -2  -2 -19   89.60   11.05
  -2   3  18  127.74   21.55
   2  -3 -18  116.89   22.00
   2   3 -18  103.62   15.25
  -2   3  18  137.17   18.75
  -2  -3  18  110.34   18.92
   2  -3 -18  157.90   19.03
   2   3 -18  112.94   16.73
   2   3 -18  148.81   14.45
  -2   3  17  -16.16   15.38
  -2  -3  17   18.88   16.81
   2   3 -17    7.92   10.51
   2  -3 -17  -13.99   16.21
  -2   3  17   17.77   12.80
  -2  -3  17   -9.20   12.44
   2  -3 -17   12.10   12.39
   2   3 -17   -1.21   10.12
  -2   3  16  126.90   18.87
  -2  -3  16   92.38   20.03
  -2  -3  16  101.64   12.20
   2   3 -16   95.68   14.11
   2  -3 -16   95.28   19.25
  -2   3  16   96.81   16.07
  -2  -3  16   83.11   15.21
   2  -3 -16  120.42   15.93
   2   3 -16   85.90   13.66
   2  -3 -15  293.39   19.60
  -2   3  15  355.76   27.08
  -2  -3  15  237.03   28.22
   2  -3 -15  249.77   26.78
  -2  -3  15  315.68   24.98
   2  -3 -15  281.27   23.49
   2   3 -15  216.82   21.37
  -2   3  15  312.69   24.56
  -2  -3  15  265.54   19.91
  -2  -3  14   16.96    8.01
  -2  -3  14   -5.08   14.41
   2  -3 -14   12.58    7.33
  -2   3  14   18.51   12.31
   2  -3 -14   13.60   13.41
  -2   3  14    0.55   10.93
  -2  -3  14    5.17   10.25
   2  -3 -14    8.86   10.40
   2   3 -14    0.49    8.44
  -2  -3  14   12.89    8.89
   2  -3 -13  712.59   38.35
  -2   3  13  713.73   43.34
  -2  -3  13  577.47   46.02
   2  -3 -13  593.30   44.64
  -2   3  13  733.16   42.95
   2  -3 -13  671.45   42.09
  -2  -3  13  701.87   40.21
  -2  -3  13  705.22   43.01
  -2   3  13  734.95   42.06
   2   3 -13  604.42   40.14
   2  -3 -13  652.94   38.19
  -2  -3  13  678.00   39.01
  -2   3  12  127.30   15.41
  -2  -3  12  106.07   17.19
   2  -3 -12  140.28   13.22
   2   3 -12   90.96   14.64
   2  -3 -12  122.67   10.63
   2  -3 -12  110.10   16.97
   2   3 -12  124.45   13.77
  -2  -3  12  126.49   17.38
  -2   3  12  118.43   14.15
  -2   3  12  120.08   14.81
  -2  -3  12  133.43   15.12
   2  -3 -12  108.51   14.02
   2   3 -12  106.26   12.50
  -2  -3  12  119.39   12.37
   2  -3 -12  116.31   10.68
   2   3 -11  404.83   29.42
  -2  -3  11  385.15   31.67
   2  -3 -11  467.16   27.40
  -2   3  11  424.41   28.70
   2  -3 -11  433.71   24.89
   2  -3 -11  403.37   29.96
  -2  -3  11  481.22   31.62
  -2   3  11  408.90   27.99
  -2  -3  11  433.73   26.47
  -2  -3  11  458.33   29.62
   2  -3 -11  408.10   27.75
   2   3 -11  376.36   26.55
  -2   3  11  458.39   28.22
   2   3 -11  449.17   27.28
  -2   3  11  380.81   28.39
   2  -3 -11  421.76   24.94
   2   3 -10  119.09   14.63
  -2  -3  10  118.77   16.65
   2  -3 -10  126.61   12.30
  -2   3  10  115.22   13.01
   2  -3 -10  131.69    9.93
   2  -3 -10  121.60   14.48
  -2   3  10  133.66   13.36
  -2  -3  10  132.63   16.45
  -2  -3  10  139.11   13.85
   2   3 -10  122.59   11.67
  -2   3  10  123.77   13.66
  -2   3  10  136.03   12.94
  -2  -3  10  125.63   11.32
   2   3 -10  117.39   12.12
   2  -3 -10  112.49   12.42
   2  -3 -10  108.53    9.73
   2   3  -9    6.14    8.97
  -2  -3   9   12.26   10.40
  -2   3   9   -4.11    6.97
  -2  -3   9    9.78    9.81
   2  -3  -9    9.34    6.40
   2  -3  -9    4.03    8.31
  -2   3   9    4.13    7.16
   2   3  -9    4.90    6.40
  -2   3   9    6.77    7.82
  -2  -3   9   -4.36    7.86
   2  -3  -9    3.47    6.81
   2  -3  -9    6.58    4.61
  -2  -3   9    4.57    5.56
   2   3  -9    2.63    5.50
   2   3  -8   37.36    9.98
  -2  -3   8   32.29   11.06
  -2   3   8   29.24    7.08
  -2  -3   8   22.39    9.70
   2  -3  -8   31.43    8.87
  -2   3   8   30.14    7.78
   2   3  -8   43.25    7.60
  -2  -3   8   37.75    8.33
  -2   3   8   27.23    8.19
  -2  -3   8   39.52    6.43
   2   3  -8   35.59    6.75
   2  -3  -8   27.25    7.45
   2  -3  -8   29.38    5.00
  -2  -3   7  190.00   18.84
  -2   3   7  212.62   14.04
   2   3  -7  212.01   17.84
  -2  -3   7  216.92   17.99
   2  -3  -7  187.92   15.78
  -2   3   7  212.12   15.17
  -2   3   7  207.16   15.18
  -2  -3   7  218.89   13.97
  -2   3   7  215.02   15.90
  -2  -3   7  202.22   15.98
   2   3  -7  208.22   14.86
   2  -3  -7  213.88   15.06
   2  -3  -7  197.56   12.40
   2   3  -6   32.93    9.25
  -2  -3   6   21.59    9.34
  -2   3   6   18.97    4.75
  -2   3   6   38.37    6.83
   2  -3  -6   27.58    7.54
  -2   3   6   22.12    6.78
  -2  -3   6   26.71    8.58
   2   3  -6   28.21    6.43
  -2   3   6   18.52    6.65
  -2  -3   6   21.08    6.79
  -2  -3   6   25.34    4.98
   2  -3  -6   23.93    6.26
  -2   3   5 1369.19   71.40
   2   3  -5 1503.42   76.94
   2   3  -5 1385.29   73.31
  -2  -3   5 1276.93   74.69
  -2   3   5 1327.58   72.91
  -2   3   5 1488.95   73.57
   2  -3  -5 1373.82   73.58
  -2  -3   5 1439.63   72.26
  -2  -3   5 1389.33   74.18
   2   3  -5 1365.30   73.37
   2  -3  -5 1406.13   73.18
  -2   3   4  156.98   11.14
   2   3  -4  125.65   13.10
  -2   3   4  138.01    8.58
   2  -3  -4  134.14   10.38
   2   3  -4  130.63   10.43
  -2  -3   4  116.06   11.74
  -2   3   4  140.99   10.96
   2  -3  -4  161.18   11.80
   2   3  -4  157.95   11.27
  -2  -3   4  144.48   11.77
   2  -3  -4  147.05   11.26
  -2  -3   4  136.84    9.69
   2   3  -4  143.52   10.15
  -2   3   3 2631.17  134.74
   2  -3  -3 2681.79  134.39
   2   3  -3 2496.00  137.27
   2   3  -3 2801.06  134.47
  -2   3   3 2571.11  132.66
  -2  -3   3 2360.56  134.87
  -2   3   3 2513.51  134.49
   2  -3  -3 2799.14  135.28
   2   3  -3 2694.56  135.39
  -2  -3   3 2660.03  136.09
   2   3  -3 2751.39  134.20
  -2   3   2  386.06   23.64
  -2   3   2  417.29   24.09
   2   3  -2  413.67   27.48
   2  -3  -2  418.29   23.78
   2   3  -2  452.65   23.64
  -2  -3   2  465.22   23.76
  -2   3   2  410.67   24.23
   2  -3  -2  437.29   24.82
   2   3  -2  431.92   25.16
  -2  -3   2  400.01   25.53
  -2   3   2  412.00   23.65
   2   3  -2  431.63   23.63
  -2   3   1 1176.20   64.89
   2  -3  -1 1260.53   64.76
  -2   3   1 1303.69   65.56
   2   3  -1 1247.25   64.26
  -2   3   1 1219.30   65.22
   2  -3  -1 1296.24   65.77
  -2  -3   1 1327.34   63.37
   2   3  -1 1241.95   66.09
  -2  -3   1 1249.86   66.93
  -2   3   1 1215.83   63.99
   2   3  -1 1203.04   64.49
  -2  -3   1 1149.22   64.31
   2   3   0  907.53   45.43
  -2   3   0  871.42   47.19
  -2   3   0  821.32   46.19
   2  -3   0  873.42   46.02
   2  -3   0  877.96   47.00
   2   3   0  933.83   48.05
  -2  -3   0  933.75   48.98
  -2  -3   0  896.36   46.40
  -2  -3   0  824.04   45.76
   2   3   1   78.10    5.32
  -2   3  -1   76.05    8.42
   2  -3   1   72.44    8.37
   2  -3   1   79.43    6.39
   2  -3   1   75.13    7.65
   2   3   1   99.22    9.01
  -2  -3  -1   93.64   10.23
   2  -3   1   73.23    7.23
  -2  -3  -1   88.20    7.36
   2   3   1   78.55    6.14
   2  -3   1   68.12    6.17
   2   3   2 1132.84   30.64
   2  -3   2 1014.70   35.17
   2  -3   2 1255.68   32.74
  -2   3  -2 1317.26   37.48
   2  -3   2 1210.75   34.53
   2   3   2 1196.51   36.74
   2  -3   2 1111.54   31.05
  -2  -3  -2 1259.86   39.57
   2  -3   2 1224.10   35.17
  -2  -3  -2 1225.46   34.67
   2   3   2 1187.65   33.22
   2   3   2 1209.25   32.52
   2  -3   2 1131.74   31.71
   2  -3   3  524.14   27.61
   2  -3   3  557.67   31.56
   2   3   3  502.77   26.49
  -2   3  -3  534.88   30.60
   2   3   3  444.94   26.51
  -2  -3  -3  598.86   27.64
   2  -3   3  504.92   27.09
   2  -3   3  533.55   29.37
   2   3   3  527.00   30.51
   2   3   3  519.39   29.08
  -2  -3  -3  557.85   29.33
  -2   3  -3  581.64   27.25
   2   3   3  535.50   28.16
   2  -3   3  498.16   26.74
   2   3   3  526.36   27.68
   2  -3   3  483.25   26.56
  -2   3  -4  957.44   49.90
   2   3   4  948.56   47.31
   2  -3   4  930.71   46.31
   2  -3   4  958.47   51.17
   2   3   4  897.69   45.14
  -2  -3  -4  857.83   47.14
   2   3   4  831.94   45.73
   2  -3   4  865.57   46.02
   2  -3   4  949.50   48.27
   2   3   4  892.51   48.06
  -2  -3  -4  867.05   48.11
  -2   3  -4 1013.44   46.57
   2   3   4  903.11   49.32
  -2  -3  -4  872.64   46.31
   2   3   4  885.25   46.94
   2  -3   4  830.73   44.94
   2   3   4  877.08   46.29
   2  -3   5  614.60   32.44
  -2   3  -5  631.02   36.34
   2  -3   5  724.43   38.79
   2   3   5  577.13   31.17
  -2   3  -5  603.97   32.81
   2   3   5  637.60   33.73
  -2  -3  -5  499.08   33.80
   2   3   5  634.00   32.81
   2  -3   5  640.42   32.65
   2   3   5  649.93   36.30
   2  -3   5  631.11   34.57
   2   3   5  641.59   34.97
  -2   3  -5  701.76   33.41
   2  -3   5  585.57   30.94
   2   3   5  630.31   33.38
  -2  -3  -5  617.28   34.18
  -2   3  -6  720.41   38.91
  -2  -3  -6  487.21   32.41
   2  -3   6  800.04   34.65
   2  -3   6  880.11   42.52
  -2   3  -6  791.20   35.04
   2   3   6  771.33   36.20
   2   3   6  741.72   35.40
  -2  -3  -6  559.00   36.31
   2  -3   6  794.56   35.17
   2   3   6  756.26   39.15
   2   3   6  780.72   37.62
   2  -3   6  820.16   37.33
  -2  -3  -6  781.08   36.78
   2   3   6  731.12   35.60
   2   3   7  617.21   27.17
  -2   3  -7  543.31   29.45
   2  -3   7  651.78   33.97
   2  -3   7  556.76   24.34
  -2   3  -7  568.22   24.94
  -2  -3  -7  432.50   27.27
   2   3   7  598.68   26.48
   2  -3   7  586.76   27.62
   2   3   7  580.86   30.31
   2  -3   7  590.67   25.61
   2   3   7  623.51   28.65
  -2   3  -7  568.97   28.55
  -2  -3  -7  692.89   25.79
  -2  -3  -7  548.14   26.94
  -2  -3  -7  679.36   25.52
   2   3   7  550.57   25.85
   2  -3   8   42.19   12.50
   2   3   8   45.15    8.25
  -2   3  -8   30.06    9.39
   2  -3   8   38.38    7.93
  -2  -3  -8   29.96    8.57
   2  -3   8   36.70    5.25
   2   3   8   35.20    7.58
  -2   3  -8   37.04    5.75
   2   3   8   41.79   10.62
   2  -3   8   38.02    6.60
   2   3   8   20.94    8.11
  -2   3  -8   44.78    9.07
  -2  -3  -8   39.08    5.93
  -2  -3  -8   39.20    8.43
  -2  -3  -8   40.35    5.93
   2  -3   8   46.77    8.20
   2   3   9  170.86   14.02
  -2   3  -9  165.06   15.59
   2  -3   9  169.02   19.68
  -2   3  -9  167.82   11.75
  -2  -3  -9  124.75    8.62
  -2  -3  -9  157.02   15.54
   2  -3   9  160.17   13.66
   2   3   9  164.74   13.80
   2   3   9  173.70   15.27
   2  -3   9  157.76   12.66
  -2   3  -9  208.97   16.28
   2  -3   9  197.12   14.57
   2  -3   9  180.46   14.47
  -2  -3  -9  202.72   12.23
  -2  -3  -9  170.72   14.17
  -2  -3  -9  196.00   12.33
   2   3  10  178.52   15.69
   2  -3  10  150.19   20.30
  -2   3 -10  155.06   12.52
  -2  -3 -10  174.14    9.89
  -2   3 -10  148.65   16.16
   2  -3  10  156.30   14.70
  -2  -3 -10  154.70   16.66
   2   3  10  159.88   14.80
   2  -3  10  153.24   13.80
  -2   3 -10  191.66   16.95
   2  -3  10  173.48   14.98
   2   3  10  180.16   16.25
  -2  -3 -10  167.66   15.21
  -2  -3 -10  180.60   13.04
  -2  -3 -10  195.67   13.06
   2  -3  10  185.08   15.50
   2  -3  11   46.04   14.62
   2   3  11   46.77   10.65
  -2  -3 -11   44.01    8.28
  -2   3 -11   46.60   11.48
  -2  -3 -11   34.08    9.91
  -2   3 -11   18.81    6.28
   2  -3  11   28.98    9.26
  -2  -3 -11   33.37    4.06
   2   3  11   23.04    9.51
  -2  -3 -11   49.84   11.51
   2  -3  11   21.12    8.00
  -2  -3 -11   41.22    7.38
   2  -3  11   40.22    9.80
  -2   3 -11   19.96   10.31
   2   3  11   20.99   10.03
  -2  -3 -11   32.59    7.01
   2   3  12  755.02   45.43
  -2  -3 -12  757.24   38.51
  -2   3 -12  701.65   41.06
   2  -3  12  739.49   51.64
  -2  -3 -12  835.62   47.54
   2   3  12  706.14   43.78
  -2   3 -12  693.47   45.98
   2  -3  12  729.10   43.11
  -2  -3 -12  720.16   45.67
  -2  -3 -12  761.96   44.87
  -2  -3 -12  727.58   41.64
  -2  -3 -12  693.93   41.06
   2  -3  13  272.36   28.64
  -2  -3 -13  244.32   14.13
  -2   3 -13  214.40   16.59
  -2  -3 -13  296.38   23.98
   2   3  13  227.16   20.11
   2  -3  13  223.82   19.06
  -2   3 -13  253.12   22.34
  -2  -3 -13  218.31   21.29
  -2  -3 -13  254.97   21.03
  -2  -3 -13  225.58   16.87
  -2  -3 -13  237.76   17.51
  -2   3 -14  104.00   12.23
   2  -3  14  124.41   23.95
  -2  -3 -14  158.47   10.52
  -2  -3 -14  179.18   11.37
  -2  -3 -14  207.23   20.81
   2  -3  14  182.82   16.66
  -2  -3 -14  182.47   19.23
  -2   3 -14  170.51   19.12
  -2  -3 -14  184.25   18.06
  -2  -3 -14  134.46   13.44
  -2  -3 -14  145.35   13.32
  -2  -3 -15  172.43   17.85
   2  -3  15  116.18   24.62
  -2  -3 -15  146.33    9.75
  -2  -3 -15  136.62   10.27
  -2  -3 -15  190.42   20.33
  -2   3 -15   71.21   10.59
   2  -3  15  145.56   15.70
  -2  -3 -15  151.86   18.28
  -2   3 -15  123.92   18.09
  -2  -3 -15  121.68   12.31
  -2  -3 -15  114.38   12.80
   2  -3  16   49.54   21.02
  -2  -3 -16   17.40   12.26
  -2  -3 -16   30.24    5.42
  -2   3 -16   11.57    6.71
  -2  -3 -16   19.74    5.96
   2   3  16   29.44   12.50
   2  -3  16   28.53   11.76
  -2  -3 -16    7.51    8.03
  -2  -3 -16   41.14   14.34
  -2   3 -16   47.60   14.43
   2  -3  17   26.86   22.02
  -2  -3 -17   82.13   15.30
  -2   3 -17   48.88    8.90
  -2  -3 -17   41.69    7.29
   2   3  17   51.57   14.84
   2  -3  17   69.88   14.08
  -2  -3 -17   75.86   15.84
  -2   3 -17   65.24   16.38
  -2  -3 -17   58.68   10.11
   2   3  18    3.02   17.71
   2  -3  18    7.40   22.25
  -2  -3 -18   33.18   14.15
  -2   3 -18   -1.16    8.06
   2   3  18   16.79   13.58
   2  -3  18    8.48   12.30
  -2  -3 -18   20.60   14.23
  -2   3 -18    8.01   14.53
  -2  -3 -18   13.98    8.61
  -2   4  17    9.74   14.13
  -2  -4  17   -5.27   15.80
   2   4 -17   27.00   11.38
  -2   4  17    8.70   13.34
  -2  -4  17   29.32   13.60
   2  -4 -17   11.41   12.37
   2   4 -17   22.43    9.14
  -2   4  16   81.35   16.47
  -2  -4  16   58.03   19.48
  -2   4  16   91.61   15.64
  -2  -4  16   78.95   15.81
   2  -4 -16   92.98   15.91
   2   4 -16   87.18   11.44
   2  -4 -15   10.14    7.71
  -2  -4  15    8.56   15.39
  -2   4  15    7.67   12.59
  -2   4  15    4.58   11.35
  -2  -4  15   -0.73   11.77
   2   4 -15    8.21    8.06
   2  -4 -15   11.84   12.00
  -2   4  14  262.97   23.44
  -2  -4  14  240.64   28.03
  -2  -4  14  289.47   24.33
   2  -4 -14  252.80   22.56
  -2   4  14  277.44   22.92
  -2  -4  14  272.19   19.67
   2  -4 -14  243.76   18.39
   2   4 -14  260.25   19.08
  -2   4  13   52.61   12.26
  -2  -4  13   29.80   16.51
   2  -4 -13   44.41    8.60
   2   4 -13   43.09   10.39
  -2   4  13   35.50   11.76
  -2  -4  13   59.21   13.12
   2  -4 -13   41.67   12.11
  -2  -4  13   31.87    9.17
   2   4 -13   42.79    8.84
  -2   4  12  486.11   31.55
  -2  -4  12  561.94   40.33
   2   4 -12  416.03   29.88
  -2  -4  12  482.25   34.65
  -2  -4  12  510.14   33.46
  -2  -4  12  488.54   29.58
   2  -4 -12  494.28   31.79
  -2   4  12  422.08   31.53
   2  -4 -12  463.32   28.02
   2   4 -12  472.56   28.92
  -2  -4  11  167.53   21.65
   2   4 -11  115.01   13.38
  -2   4  11  139.28   14.29
   2  -4 -11  149.35   13.87
  -2  -4  11  163.51   18.70
  -2  -4  11  168.25   17.20
  -2   4  11  141.23   15.27
  -2  -4  11  149.23   13.15
   2  -4 -11  147.89   15.48
   2   4 -11  139.97   12.84
   2  -4 -11  145.08   11.96
   2   4 -10  267.54   24.39
  -2  -4  10  347.47   29.01
   2   4 -10  260.21   20.98
  -2   4  10  313.78   21.38
   2  -4 -10  340.74   21.38
  -2  -4  10  357.95   26.43
  -2   4  10  318.06   22.28
  -2  -4  10  321.21   23.85
  -2  -4  10  323.34   20.62
  -2   4  10  297.37   22.66
   2  -4 -10  290.46   22.18
   2   4 -10  318.27   21.74
   2   4 -10  319.83   20.35
   2  -4 -10  297.95   19.10
   2   4  -9  391.96   27.24
  -2   4   9  326.96   21.81
  -2  -4   9  338.92   29.23
   2  -4  -9  372.27   22.82
   2   4  -9  292.21   22.61
  -2  -4   9  355.43   26.90
  -2   4   9  358.40   23.43
   2   4  -9  356.59   23.26
  -2   4   9  380.30   24.39
  -2  -4   9  359.19   25.04
  -2  -4   9  347.65   22.07
   2  -4  -9  333.80   23.53
   2   4  -9  353.73   21.95
   2  -4  -9  340.49   20.48
   2   4  -8    9.42    9.84
  -2  -4   8   18.87   12.00
  -2   4   8   10.02    5.52
  -2  -4   8   19.80   10.00
  -2   4   8   19.96    7.73
   2  -4  -8   12.58    6.42
   2   4  -8   12.51    6.51
  -2   4   8   10.32    7.57
   2   4  -8   14.06    7.44
  -2  -4   8   10.30    8.02
   2   4  -8   11.93    6.03
  -2  -4   8   15.48    5.86
   2  -4  -8   14.68    8.06
  -2   4   7  334.20   20.27
   2   4  -7  337.39   25.80
   2  -4  -7  351.34   21.63
   2   4  -7  293.81   21.58
  -2   4   7  337.73   22.04
  -2   4   7  365.65   22.53
  -2  -4   7  347.73   25.45
   2   4  -7  352.61   22.37
  -2  -4   7  377.82   23.81
  -2  -4   7  344.49   21.10
   2  -4  -7  340.54   22.55
   2   4  -7  361.02   21.18
  -2   4   6  537.12   30.37
   2   4  -6  601.16   37.09
   2   4  -6  561.59   32.28
   2   4  -6  557.78   32.80
  -2  -4   6  614.60   31.93
   2  -4  -6  545.35   32.88
  -2  -4   6  571.06   33.95
  -2  -4   6  559.53   35.10
  -2   4   6  540.34   32.34
   2  -4  -6  499.19   32.88
  -2   4   6  611.92   32.87
  -2   4   5  114.20   10.44
   2   4  -5  130.01   15.03
  -2   4   5  111.39    8.01
   2   4  -5   97.33    9.63
   2   4  -5  129.96   11.07
  -2  -4   5  117.83    9.67
  -2  -4   5  117.31   12.12
   2  -4  -5  105.34   11.27
  -2  -4   5  118.62   12.37
  -2   4   5  102.94   10.63
   2  -4  -5  122.79   11.50
  -2   4   4 1352.12   70.20
  -2   4   4 1401.13   72.38
   2   4  -4 1160.28   74.52
   2   4  -4 1417.24   71.98
  -2  -4   4 1461.99   73.89
   2  -4  -4 1426.53   73.07
  -2   4   4 1288.90   72.08
  -2  -4   4 1427.49   71.96
   2   4  -4 1396.99   73.09
  -2  -4   4 1457.54   74.41
  -2   4   4 1263.71   72.69
   2  -4  -4 1386.61   73.04
   2   4  -3   -3.58    8.28
   2   4  -3   -8.53    5.18
   2  -4  -3   -7.56    4.85
  -2   4   3   -7.23    5.26
  -2  -4   3    2.41    5.65
  -2   4   3   -2.56    6.15
   2  -4  -3   -9.59    6.75
  -2   4   3   -1.63    5.54
   2   4  -3  -12.69    6.77
  -2  -4   3   -6.24    7.75
   2   4  -3  -12.70    4.70
  -2   4   2  423.86   25.41
   2   4  -2  471.52   30.15
  -2   4   2  395.38   25.99
   2   4  -2  463.38   24.83
   2  -4  -2  453.36   25.11
  -2  -4   2  488.72   25.56
  -2   4   2  437.42   25.72
   2  -4  -2  427.25   26.18
   2   4  -2  459.26   26.90
  -2  -4   2  452.91   27.75
  -2   4   2  451.94   25.05
   2  -4  -2  422.26   26.03
   2   4  -2  431.97   24.88
  -2  -4   2  439.91   24.65
  -2   4   1    5.85    5.43
   2   4  -1   -1.96    3.52
   2  -4  -1    0.52    4.05
  -2   4   1    5.68    4.32
  -2  -4   1    2.13    2.42
   2  -4  -1    4.60    6.11
  -2   4   1    4.20    3.62
  -2  -4   1    5.39    7.17
   2   4  -1    4.56    6.06
  -2  -4   1    1.53    3.60
   2  -4  -1    1.78    4.59
   2   4   0  109.56    7.30
  -2   4   0  120.23   10.89
  -2   4   0   93.96    8.30
   2  -4   0  118.11    8.26
   2  -4   0  118.06   10.07
  -2  -4   0   82.35    5.96
  -2  -4   0  142.21    6.75
  -2  -4   0  122.13   12.09
  -2  -4   0  113.48    9.23
  -2   4   0  105.15    7.37
   2   4   0  108.51   10.40
  -2  -4   0  100.89    7.89
   2  -4   0  110.15    8.49
   2   4   0  107.52    8.41
   2   4   0   97.39    7.76
  -2   4  -1  221.30   15.09
   2   4   1  230.50   13.93
  -2   4  -1  239.66   17.53
   2  -4   1  252.16   15.01
  -2  -4  -1  289.51   13.60
   2  -4   1  256.59   16.45
  -2   4  -1  229.73   13.90
   2   4   1  254.14   17.45
  -2  -4  -1  269.13   16.32
  -2  -4  -1  260.68   19.02
  -2  -4  -1  236.33   14.82
   2   4   1  232.83   15.36
   2  -4   1  246.09   14.80
   2   4   1  240.08   14.87
   2   4   2   61.10    4.70
   2  -4   2   43.31    8.92
  -2   4  -2   44.50    8.65
  -2  -4  -2   68.49    5.83
   2  -4   2   53.95    7.49
   2  -4   2   49.38    5.62
  -2   4  -2   56.99    4.82
   2  -4   2   46.45    5.39
  -2  -4  -2   59.82   10.11
   2   4   2   59.47    8.92
   2  -4   2   61.25    7.47
   2   4   2   54.92    6.33
   2  -4   2   55.11    5.11
   2  -4   2   61.81    5.06
  -2  -4  -2   48.40    7.07
   2   4   2   54.46    5.87
   2  -4   3  718.62   37.44
  -2   4  -3  720.25   40.93
   2  -4   3  642.52   40.80
  -2  -4  -3  878.41   37.08
   2   4   3  702.98   36.40
  -2  -4  -3  709.60   38.11
   2   4   3  666.54   36.04
   2  -4   3  633.11   37.07
  -2  -4  -3  702.13   42.55
  -2   4  -3  700.46   36.71
   2  -4   3  736.83   39.43
  -2  -4  -3  692.83   38.96
   2   4   3  718.72   40.33
   2  -4   3  661.86   36.46
   2   4   3  672.05   38.10
   2  -4   3  694.77   36.34
   2   4   3  693.48   37.47
   2   4   4 1032.56   53.45
   2  -4   4 1053.87   54.47
  -2   4  -4 1056.34   58.32
   2  -4   4  885.46   57.47
   2   4   4 1067.42   55.40
   2   4   4  932.94   53.44
  -2  -4  -4 1056.94   56.24
   2  -4   4 1043.71   56.53
   2   4   4 1009.48   57.65
  -2   4  -4 1077.48   54.19
  -2  -4  -4  955.63   56.13
   2  -4   4  980.52   54.38
   2   4   4 1014.29   55.39
   2   4   4  998.86   54.52
   2  -4   5  285.23   16.25
  -2   4  -5  249.28   20.12
   2   4   5  259.28   14.95
   2  -4   5  234.16   20.95
   2   4   5  276.26   17.38
  -2  -4  -5  334.37   15.20
  -2  -4  -5  291.56   19.03
   2   4   5  237.29   15.46
   2   4   5  265.20   18.63
   2  -4   5  248.38   16.16
   2  -4   5  280.90   18.49
  -2  -4  -5  245.28   18.33
   2   4   5  280.59   20.04
  -2   4  -5  282.20   16.28
   2   4   5  232.16   16.95
   2  -4   5  261.66   14.58
   2   4   6 1013.93   54.03
  -2  -4  -6 1199.72   51.48
  -2   4  -6  992.59   56.98
   2   4   6  895.59   51.37
   2  -4   6 1053.03   59.77
  -2   4  -6  926.16   53.02
   2  -4   6 1002.65   52.74
  -2  -4  -6 1065.98   56.35
   2   4   6  914.44   52.32
   2  -4   6  983.36   53.04
   2   4   6  959.45   56.53
   2  -4   6  985.48   54.99
   2   4   6  993.50   55.26
  -2   4  -6 1007.49   53.15
   2   4   6  966.38   53.94
   2  -4   7   -3.64   10.84
   2   4   7    6.00    6.31
  -2   4  -7    5.95    8.82
  -2  -4  -7   -1.19    2.63
  -2  -4  -7    0.92    8.06
   2   4   7   -2.72    5.53
   2  -4   7    1.62    4.61
   2   4   7    0.27    2.89
  -2   4  -7    2.84    4.73
   2   4   7    6.01    8.93
  -2   4  -7   -0.47    5.37
   2  -4   7    0.23    5.00
  -2  -4  -7    2.55    6.37
   2  -4   7    5.63    6.71
   2   4   7   -0.38    8.08
   2   4   7   -1.17    5.63
  -2  -4  -7    3.92    4.82
  -2  -4  -7   -0.87    5.38
   2   4   8  161.36   13.75
  -2  -4  -8  178.59    9.66
   2  -4   8  174.00   19.82
  -2   4  -8  155.40   12.30
   2  -4   8  167.11   11.58
  -2   4  -8  141.72   15.98
  -2  -4  -8  176.42   16.47
   2   4   8  142.65   12.27
   2  -4   8  169.34   14.36
   2  -4   8  152.78   12.56
   2   4   8  152.73   16.55
   2   4   8  161.37   15.24
  -2   4  -8  160.90   13.03
  -2  -4  -8  175.60   12.49
  -2  -4  -8  162.15   13.58
  -2  -4  -8  175.42   12.65
  -2   4  -9  128.25   15.69
   2  -4   9  154.22   20.63
  -2  -4  -9  160.81    9.05
  -2   4  -9  125.12   11.63
   2   4   9  157.09   14.11
   2  -4   9  154.11   11.37
  -2  -4  -9  154.96   16.70
   2   4   9  151.31   12.71
   2  -4   9  140.42   12.63
   2   4   9  147.09   17.27
  -2   4  -9  158.81   15.50
   2   4   9  147.22   15.12
   2  -4   9  138.01   13.81
  -2  -4  -9  156.56   12.34
  -2  -4  -9  169.09   12.51
  -2  -4  -9  146.69   13.91
   2  -4  10   40.62   15.45
   2   4  10   18.02    9.07
  -2   4 -10   18.80   10.39
   2  -4  10   27.18    8.83
  -2  -4 -10   25.56    3.42
   2   4  10   11.18    7.97
   2  -4  10   17.35    8.41
  -2   4 -10   18.97    6.65
  -2  -4 -10   13.79   10.46
   2   4  10   19.93   11.51
   2  -4  10   24.16    7.38
   2  -4  10   21.96    8.26
  -2   4 -10   12.53    9.72
  -2  -4 -10   21.94    6.73
  -2  -4 -10   18.35    8.80
  -2  -4 -10   28.22    7.25
   2   4  10   22.04   10.07
   2  -4  11  391.71   34.21
  -2   4 -11  337.98   23.76
  -2  -4 -11  392.56   20.71
  -2  -4 -11  417.87   30.18
   2   4  11  353.47   24.89
   2  -4  11  371.85   25.04
  -2   4 -11  390.49   28.34
  -2  -4 -11  401.70   24.46
  -2  -4 -11  407.95   24.49
  -2  -4 -11  364.83   26.23
  -2  -4 -12   15.91   10.27
   2  -4  12   -1.14   15.13
  -2   4 -12   12.14    7.00
  -2  -4 -12    4.78    3.51
   2   4  12    3.95    9.26
  -2  -4 -12   12.13   12.76
   2  -4  12    8.96    8.44
  -2   4 -12   14.15   11.03
  -2  -4 -12    6.87    7.12
  -2  -4 -12    6.45    7.30
  -2   4 -13  438.53   30.14
   2  -4  13  493.69   42.74
  -2  -4 -13  528.26   27.03
   2   4  13  444.15   31.90
  -2  -4 -13  603.51   37.68
  -2   4 -13  495.74   35.55
   2  -4  13  548.51   32.91
  -2  -4 -13  513.06   35.31
  -2  -4 -13  500.80   33.97
  -2  -4 -13  474.23   31.07
  -2  -4 -13  482.93   30.52
   2  -4  14   63.90   21.19
  -2  -4 -14   61.48   13.51
  -2  -4 -14   69.45   15.73
  -2   4 -14   53.18    9.21
  -2  -4 -14   60.37    5.99
   2  -4  14   45.92   11.04
  -2  -4 -14   66.07    9.95
  -2  -4 -14   54.58   13.98
  -2   4 -14   51.05   14.00
   2  -4  15  254.07   31.46
  -2   4 -15  168.77   16.12
  -2  -4 -15  210.21   13.43
  -2  -4 -15  242.99   24.55
   2  -4  15  238.45   20.18
  -2  -4 -15  220.33   22.81
  -2   4 -15  229.98   23.27
  -2  -4 -15  282.05   22.64
  -2  -4 -15  243.14   17.98
   2  -4  16   80.67   24.32
  -2  -4 -16   82.04    8.52
  -2  -4 -16   95.12   16.11
  -2   4 -16   49.37    9.67
  -2  -4 -16  103.75   18.76
   2  -4  16   84.05   14.50
  -2  -4 -16  113.07   12.29
  -2  -4 -16  112.87   17.68
  -2   4 -16   79.38   16.36
   2  -4  17    4.60   20.48
   2   4  17   21.44   16.82
  -2  -4 -17   19.64   13.11
  -2   4 -17   -2.08    7.55
  -2  -4 -17  -14.10   15.98
   2   4  17   16.03   13.91
   2  -4  17   -1.88   11.52
  -2  -4 -17   12.00    9.27
  -2  -4 -17   10.84   13.89
  -2   4 -17    4.33   13.19
  -2  -5  16    7.33   17.98
  -2   5  16    3.94   12.58
   2  -5 -16   29.11   16.21
  -2   5  16    6.53   12.00
  -2  -5  16  -16.62   14.66
   2  -5 -16   -4.88   13.67
   2   5 -16   -5.90    8.77
  -2  -5  15  114.39   23.48
  -2   5  15  129.87   17.52
   2  -5 -15  116.82   20.85
  -2   5  15   94.03   16.18
  -2  -5  15  137.72   18.65
   2  -5 -15  115.53   17.80
   2   5 -15  115.63   12.73
  -2  -5  14   39.81   19.63
  -2   5  14   48.34   13.02
   2  -5 -14   50.57    9.44
   2   5 -14   26.39   11.00
   2  -5 -14   35.01   16.81
  -2   5  14   38.43   12.65
  -2  -5  14   49.76   14.33
   2   5 -14   48.88    9.68
   2  -5 -14   48.64   13.80
  -2  -5  13  208.14   27.55
  -2   5  13  157.70   16.97
   2   5 -13  140.03   16.02
   2  -5 -13  207.25   19.56
  -2  -5  13  225.80   20.99
  -2   5  13  162.63   18.15
   2  -5 -13  174.59   14.52
   2   5 -13  157.08   14.70
  -2  -5  12   51.82   18.84
  -2   5  12   44.62   10.44
   2   5 -12   52.57   10.71
  -2   5  12   40.04   11.27
  -2  -5  12   66.61   14.05
   2  -5 -12   46.18    8.70
   2  -5 -12   52.52   12.56
  -2  -5  12   65.62   10.21
   2   5 -12   51.96    9.17
  -2   5  11  302.70   21.37
   2   5 -11  258.54   21.84
  -2  -5  11  326.41   31.31
  -2  -5  11  255.53   25.84
  -2  -5  11  385.57   26.16
  -2  -5  11  291.86   21.09
  -2   5  11  309.99   23.52
   2  -5 -11  328.92   24.00
   2   5 -11  282.77   20.47
   2  -5 -11  327.08   20.10
   2   5 -10  197.05   17.47
  -2   5  10  217.34   16.25
  -2  -5  10  248.92   26.09
  -2  -5  10  224.72   21.51
  -2  -5  10  249.70   20.59
  -2   5  10  234.17   18.92
   2  -5 -10  197.03   18.55
  -2  -5  10  226.70   16.78
   2   5 -10  199.14   15.84
   2  -5 -10  195.89   14.77
  -2   5   9  105.80   10.20
   2  -5  -9  113.23   11.00
  -2  -5   9  122.07   15.85
   2   5  -9   80.57   11.55
  -2   5   9  112.28   12.18
  -2  -5   9   95.01   13.63
   2  -5  -9  102.14   12.93
  -2  -5   9   88.37   10.61
   2   5  -9   92.51   10.36
  -2   5   8  478.87   28.73
   2  -5  -8  584.53   30.51
   2   5  -8  502.02   35.86
   2   5  -8  452.44   30.75
  -2   5   8  510.90   31.07
  -2  -5   8  471.23   33.75
  -2   5   8  522.54   31.31
  -2  -5   8  502.92   32.85
  -2  -5   8  531.23   30.32
   2  -5  -8  485.98   31.70
   2   5  -8  504.79   29.68
   2  -5  -8  501.61   32.53
   2   5  -7  179.51   19.46
  -2   5   7  148.60   11.26
   2   5  -7  152.16   13.66
   2  -5  -7  144.35   12.88
  -2   5   7  184.27   14.14
  -2  -5   7  157.40   16.20
  -2   5   7  144.87   13.86
  -2  -5   7  177.80   16.32
  -2  -5   7  174.70   13.31
   2  -5  -7  155.83   14.75
   2   5  -7  143.17   12.29
   2  -5  -7  149.96   15.00
  -2   5   6  241.82   15.17
   2   5  -6  278.96   23.47
  -2   5   6  262.78   17.82
   2  -5  -6  253.44   16.94
   2   5  -6  253.99   17.34
  -2  -5   6  223.91   19.42
  -2   5   6  221.76   17.61
  -2  -5   6  264.45   20.24
   2  -5  -6  243.37   18.97
  -2   5   6  221.82   18.88
  -2  -5   6  274.95   17.44
   2   5  -6  231.62   16.28
   2  -5  -6  258.35   19.31
  -2   5   5  674.04   37.66
   2   5  -5  668.84   37.09
   2   5  -5  675.78   43.20
  -2   5   5  654.44   35.33
  -2  -5   5  671.36   39.04
  -2   5   5  601.25   37.32
   2   5  -5  661.23   38.38
  -2   5   5  627.21   38.25
  -2  -5   5  662.44   39.92
   2  -5  -5  691.68   39.05
  -2  -5   5  698.05   37.56
   2  -5  -5  651.60   38.73
   2   5  -4   29.01   10.51
  -2   5   4   30.53    4.77
   2   5  -4   28.04    6.28
  -2  -5   4   29.29    7.79
  -2   5   4   30.68    7.02
  -2   5   4   20.21    7.74
  -2  -5   4   34.30    9.29
  -2   5   4   19.55    7.24
   2  -5  -4   13.75    8.64
   2   5  -4   24.00    7.94
   2  -5  -4   24.83    7.77
  -2  -5   4   32.68    7.15
   2   5  -3  420.77   24.37
   2   5  -3  421.65   29.99
  -2   5   3  417.46   25.29
  -2   5   3  394.64   26.75
  -2   5   3  394.39   25.43
  -2  -5   3  486.51   25.62
   2   5  -3  467.35   27.11
  -2  -5   3  437.63   28.10
  -2   5   3  419.31   25.33
  -2  -5   3  405.06   24.17
   2  -5  -3  427.69   26.02
  -2   5   2    7.43    6.83
   2   5  -2   -6.90   11.00
   2   5  -2    4.12    4.45
  -2   5   2    7.45    5.48
  -2  -5   2    3.82    3.81
  -2  -5   2    5.91    4.85
   2  -5  -2    7.57    5.02
  -2   5   2   16.98    5.43
  -2  -5   2    0.45    8.51
   2   5  -2   11.36    7.17
  -2  -5   2    6.09    4.44
   2  -5  -2    2.10    5.39
   2   5  -1   84.18    7.24
  -2   5   1   93.19   10.34
   2  -5  -1   89.15    7.96
  -2   5   1   82.14    8.34
   2   5  -1  101.03   13.75
  -2  -5   1  104.55    7.16
  -2  -5   1   81.16    6.12
  -2   5   1   83.65    7.77
  -2  -5   1   94.56   12.17
   2   5  -1   84.93   10.24
   2   5  -1   93.19    8.62
   2  -5  -1   89.95    8.57
  -2  -5   1   89.66    7.85
   2   5  -1   80.23    7.72
  -2   5   0    9.99    7.55
   2   5   0    2.68    3.59
  -2  -5   0    6.52    2.90
   2  -5   0    5.11    4.47
  -2   5   0    5.67    4.81
  -2  -5   0    5.40    7.96
  -2  -5   0   12.86    6.33
  -2   5   0    9.63    4.07
   2   5   0   10.38    7.46
   2  -5   0    6.26    4.27
   2   5   0    5.91    4.38
  -2  -5   0    7.67    4.39
   2   5   0    7.45    4.84
   2  -5   0    8.57    4.46
  -2   5  -1   14.48    8.34
  -2  -5  -1    7.21    3.26
  -2   5  -1    5.32    4.64
   2  -5   1    5.00    4.35
   2   5   1    6.86    3.44
  -2  -5  -1   10.17    4.35
   2   5   1    1.53    6.96
  -2  -5  -1   -1.54    9.00
  -2   5  -1   12.71    4.13
   2  -5   1   10.89    3.96
   2   5   1    7.98    4.56
  -2  -5  -1   14.20    6.28
  -2  -5  -1    7.57    4.44
   2   5   1    9.84    5.08
   2  -5   1    3.58    3.98
  -2   5  -2  206.37   14.05
   2  -5   2  209.77   13.45
  -2   5  -2  203.08   17.35
   2   5   2  203.43   12.50
  -2  -5  -2  253.84   13.39
  -2  -5  -2  243.42   12.89
   2   5   2  227.41   16.73
   2  -5   2  191.98   13.83
  -2  -5  -2  238.43   19.42
   2  -5   2  229.04   15.74
  -2  -5  -2  196.83   15.21
  -2   5  -2  185.76   12.63
   2  -5   2  191.08   12.72
   2   5   2  211.51   14.60
   2  -5   2  187.01   12.45
   2   5   2  199.14   13.52
  -2  -5  -2  202.05   13.45
  -2   5  -3  250.61   16.82
   2  -5   3  264.38   16.44
  -2   5  -3  262.22   20.59
   2   5   3  272.14   15.56
  -2  -5  -3  341.00   16.20
  -2  -5  -3  331.96   17.44
  -2   5  -3  258.31   15.69
   2   5   3  273.92   19.84
   2  -5   3  259.05   16.75
  -2  -5  -3  244.29   22.48
  -2  -5  -3  244.06   18.26
   2  -5   3  264.80   18.48
   2  -5   3  240.68   15.34
   2   5   3  257.44   17.60
   2  -5   3  247.12   15.17
   2   5   3  274.11   16.73
   2  -5   4  334.18   19.81
   2   5   4  329.32   18.77
  -2   5  -4  338.31   24.57
   2  -5   4  312.57   25.04
  -2  -5  -4  411.12   19.28
  -2  -5  -4  371.40   21.78
   2   5   4  325.55   18.51
  -2   5  -4  327.38   19.30
   2  -5   4  290.95   19.90
   2   5   4  336.03   23.50
   2  -5   4  367.03   22.60
  -2  -5  -4  310.33   21.91
   2   5   4  299.71   20.83
   2   5   4  308.70   19.81
   2  -5   5  854.00   47.06
  -2   5  -5  849.01   51.57
   2  -5   5  753.04   52.00
   2   5   5  894.06   48.27
   2   5   5  907.55   46.20
  -2  -5  -5 1110.52   46.47
  -2  -5  -5 1002.44   50.30
   2   5   5  801.18   46.11
   2  -5   5  898.10   49.68
  -2   5  -5  894.15   46.89
   2  -5   5  872.41   47.52
   2   5   5  833.19   50.86
  -2  -5  -5  789.76   49.25
   2  -5   5  843.38   45.61
   2   5   5  786.45   48.28
  -2   5  -6   -2.64    9.96
   2  -5   6    9.44    9.78
   2   5   6    3.99    6.81
  -2  -5  -6    0.12    3.73
   2  -5   6   -1.02    5.47
   2   5   6   -1.56    4.11
  -2  -5  -6   -6.00    9.20
   2   5   6   -7.16    5.68
   2   5   6   -1.99    9.81
  -2   5  -6   -1.83    5.05
   2  -5   6   -5.50    6.17
   2   5   6   -0.97    6.57
   2  -5   6   -0.83    3.28
  -2  -5  -6   -0.39    8.18
   2  -5   6   -6.43    7.68
  -2   5  -7  417.93   30.64
   2   5   7  421.66   24.48
   2  -5   7  377.16   31.10
   2  -5   7  436.27   25.82
  -2   5  -7  402.10   26.36
   2   5   7  486.98   27.56
  -2  -5  -7  541.04   24.43
  -2  -5  -7  497.96   30.88
   2   5   7  391.69   25.26
   2  -5   7  449.04   26.57
   2   5   7  436.08   30.43
  -2   5  -7  442.96   26.23
   2  -5   7  454.03   28.42
   2   5   7  425.25   27.64
   2   5   8  160.27   13.38
  -2  -5  -8  145.37    8.87
   2  -5   8  148.52   18.31
  -2   5  -8  118.99   11.59
  -2   5  -8  101.11   15.67
   2  -5   8  125.02   10.86
  -2  -5  -8  171.37   17.05
   2   5   8  117.75   10.92
   2   5   8  116.34    9.25
   2  -5   8  151.04   12.16
   2   5   8  147.87   16.46
   2   5   8  202.89   15.72
  -2   5  -8  124.73   11.64
   2  -5   8  119.70   13.16
  -2  -5  -8  126.18   12.70
  -2  -5  -8  157.72   12.04
  -2  -5  -8  132.69   11.75
   2  -5   9   18.94   13.49
  -2   5  -9   16.08   11.29
   2   5   9   23.53    7.29
  -2  -5  -9   17.27    3.86
  -2   5  -9   19.53    7.10
  -2  -5  -9   21.42   11.45
   2  -5   9   10.86    5.96
  -2   5  -9   15.69    7.09
   2  -5   9   13.71    7.43
  -2  -5  -9   28.26    8.59
  -2  -5  -9   17.12    6.91
  -2  -5  -9   16.50    7.21
  -2  -5 -10  149.89    9.40
   2  -5  10  171.52   22.45
  -2   5 -10  134.66   12.88
  -2  -5 -10  141.23   17.65
   2   5  10  149.13   13.01
   2  -5  10  157.35   14.07
  -2   5 -10  113.95   13.09
  -2  -5 -10  156.04   12.91
  -2  -5 -10  139.49   14.43
  -2  -5 -10  162.76   13.40
   2  -5  11   37.50   17.62
   2   5  11    7.73    8.44
  -2  -5 -11   10.10    3.83
  -2   5 -11    7.77    7.27
  -2  -5 -11   23.98   12.81
   2  -5  11   20.56    8.96
  -2  -5 -11   10.91    9.79
  -2  -5 -11   13.78    7.77
  -2  -5 -12  424.68   23.14
   2  -5  12  439.20   39.58
  -2   5 -12  406.41   27.01
  -2  -5 -12  489.24   33.61
   2   5  12  386.44   27.19
   2  -5  12  456.26   28.97
  -2  -5 -12  437.93   27.25
  -2  -5 -12  406.01   29.29
   2  -5  13  -31.78   21.53
  -2  -5 -13   -7.91   14.21
   2   5  13   16.90   10.27
  -2  -5 -13   12.20    4.19
  -2   5 -13   -3.07    8.13
   2  -5  13    4.41    9.76
  -2  -5 -13    7.81   11.21
  -2  -5 -13   -1.50    8.42
   2  -5  14  271.44   36.46
  -2  -5 -14  350.89   19.74
  -2   5 -14  325.10   23.89
  -2  -5 -14  402.37   31.01
   2  -5  14  374.38   26.66
  -2  -5 -14  391.65   28.09
  -2  -5 -14  338.08   24.30
   2  -5  15   62.93   22.74
   2   5  15   73.98   15.90
  -2  -5 -15   50.12   14.49
  -2   5 -15   28.89    8.99
  -2  -5 -15   19.76   16.03
   2  -5  15   44.10   12.24
  -2  -5 -15   65.68   15.58
  -2  -5 -15   49.63   10.66
   2  -5  16   29.96   24.49
   2   5  16   80.48   17.97
  -2  -5 -16   86.92   15.99
  -2   5 -16   40.26    9.59
  -2  -5 -16   60.50   17.34
   2  -5  16   71.17   13.81
  -2  -5 -16   56.66   15.74
  -2  -5 -16   67.31   11.45
  -2   5 -16   67.08   16.59
  -2  -5 -17   57.63   15.43
   2  -5  17   19.78   23.91
   2   5  17   85.64   18.97
  -2  -5 -17   65.28   18.03
  -2   5 -17   37.02    9.70
   2  -5  17   63.17   14.34
  -2  -5 -17   48.99   11.94
  -2   5 -17   41.18   15.46
  -2  -6  15  -10.60   20.00
  -2   6  15    9.87   12.21
   2   6 -15   -7.10   10.22
   2  -6 -15   -3.60   17.32
  -2   6  15    4.02   11.97
  -2  -6  15    2.49   13.52
   2  -6 -15   -9.06   14.40
   2   6 -15    3.28    8.19
  -2  -6  14  113.76   24.73
  -2   6  14   92.48   15.50
   2  -6 -14  101.86   20.31
   2   6 -14  101.44   14.72
  -2  -6  14  100.30   18.47
  -2   6  14  105.26   16.20
   2  -6 -14  129.53   18.17
   2   6 -14  100.36   12.09
  -2   6  13   -2.30    9.97
   2  -6 -13   33.62   15.94
   2   6 -13   13.77   10.10
  -2   6  13   -1.58   11.06
  -2  -6  13   23.85   13.77
   2  -6 -13    8.69   12.84
   2   6 -13   20.20    8.59
   2  -6 -13    8.36    8.40
  -2   6  12  114.12   13.83
   2   6 -12  118.55   14.74
   2  -6 -12  145.85   19.42
  -2  -6  12  141.19   18.61
  -2   6  12  108.23   15.55
   2   6 -12  135.93   13.08
   2  -6 -12  117.80   12.70
   2  -6 -12  145.66   17.67
  -2   6  11   56.81   10.20
  -2  -6  11   51.56   15.16
   2  -6 -11   45.56   14.17
   2   6 -11   47.89   10.98
  -2  -6  11   77.11   14.61
   2  -6 -11   67.63    9.59
   2   6 -11   68.86   10.12
   2  -6 -11   72.07   13.92
  -2   6  10   37.01    8.35
  -2  -6  10   23.71   12.56
  -2   6  10   47.75   11.06
   2  -6 -10   42.89   12.91
   2   6 -10   25.46    9.43
  -2  -6  10   54.34   13.15
   2  -6 -10   41.18   12.01
  -2  -6  10   53.73    9.89
   2   6 -10   25.55    8.18
   2  -6 -10   51.44    8.56
  -2   6   9   83.54    9.52
   2   6  -9   82.02   11.75
  -2   6   9  100.02   12.72
   2  -6  -9   80.53   13.86
  -2  -6   9   81.32   14.66
  -2  -6   9  114.69   15.54
  -2   6   9  113.23   15.49
   2  -6  -9   79.29   13.57
  -2  -6   9  103.64   11.60
   2   6  -9   74.35   10.39
  -2   6   8   13.21    6.25
   2   6  -8   -3.74    7.74
   2  -6  -8   14.19   10.23
  -2   6   8    2.40    8.11
  -2  -6   8    6.90   10.18
  -2   6   8    2.19    9.20
  -2  -6   8    2.97   10.11
   2  -6  -8    3.84    9.90
  -2  -6   8    2.16    7.70
   2   6  -8   -1.71    7.01
  -2   6   7   81.79    8.36
   2   6  -7   57.45    9.63
   2  -6  -7   83.50   12.74
  -2   6   7  101.99   11.53
  -2  -6   7   83.52   12.93
  -2  -6   7   77.42   13.40
  -2   6   7   85.06   12.42
  -2  -6   7   81.62   10.45
   2  -6  -7   84.48   12.88
   2   6  -6  134.71   12.70
  -2   6   6  132.67   10.78
  -2   6   6  138.01   13.40
   2  -6  -6  151.06   12.47
  -2  -6   6  157.31   15.05
   2  -6  -6  111.33   14.08
  -2   6   6  145.71   13.84
  -2  -6   6  176.93   13.91
  -2   6   6  136.45   14.46
  -2  -6   6  139.04   16.08
   2  -6  -6  145.88   14.42
   2  -6  -6  152.58   15.71
  -2   6   5   82.95    7.94
   2   6  -5  108.00   16.94
   2  -6  -5   49.05   11.57
  -2  -6   5   70.68   11.00
   2   6  -5   79.51    9.49
  -2   6   5   80.47   10.22
  -2   6   5   72.40   11.19
   2  -6  -5   86.82    9.29
  -2  -6   5   86.28   13.27
  -2   6   5   75.33   11.07
  -2  -6   5   97.29   10.79
   2  -6  -5   66.55   12.30
   2  -6  -5   68.35   10.67
   2   6  -4  444.33   27.15
   2   6  -4  407.57   32.16
  -2   6   4  485.75   28.40
  -2   6   4  419.31   30.16
   2  -6  -4  490.32   27.35
  -2  -6   4  498.21   28.58
  -2   6   4  440.79   28.33
   2  -6  -4  474.74   29.72
  -2  -6   4  470.33   31.61
  -2   6   4  446.22   28.12
  -2  -6   4  529.53   29.08
   2  -6  -4  466.26   30.42
   2   6  -4  445.69   26.96
   2  -6  -4  438.03   28.82
   2   6  -3  -10.63   11.86
  -2   6   3   -0.92    9.03
   2   6  -3   -5.83    5.80
  -2   6   3   -4.16    6.49
  -2  -6   3  -11.51    5.62
  -2  -6   3   -3.58    6.62
   2  -6  -3   -8.83    9.40
  -2   6   3   -2.29    6.66
  -2  -6   3  -13.23   11.34
  -2  -6   3   -4.36    5.91
   2  -6  -3  -10.26    7.24
   2   6  -3  -14.49    6.58
   2   6  -2  220.53   14.33
  -2   6   2  196.55   17.40
   2   6  -2  197.43   21.01
  -2   6   2  211.85   15.51
  -2  -6   2  256.80   14.56
  -2  -6   2  212.12   13.18
   2  -6  -2  220.81   17.36
  -2   6   2  216.12   15.12
  -2  -6   2  224.26   19.67
  -2  -6   2  198.89   14.44
   2  -6  -2  214.01   15.66
   2  -6  -2  206.26   15.11
  -2   6   1   45.94   10.18
   2   6  -1   57.23   14.39
   2   6  -1   39.09    5.98
  -2  -6   1   46.14    5.29
   2  -6  -1   33.23    9.23
  -2   6   1   42.68    7.29
  -2  -6   1   63.93   12.70
  -2   6   1   41.28    6.72
   2  -6  -1   35.54    6.74
  -2  -6   1   33.89    6.36
   2  -6  -1   35.45    6.67
  -2   6   0   65.88   11.60
   2  -6   0   41.33    6.65
   2   6   0   43.53    5.98
  -2   6   0   37.81    7.20
  -2  -6   0   50.10    5.13
  -2  -6   0   59.22    9.44
  -2  -6   0   68.44   12.24
  -2   6   0   50.68    6.59
   2  -6   0   44.56    6.49
  -2  -6   0   45.81    6.65
   2   6   0   45.47    7.76
   2  -6   0   49.02    6.73
  -2   6  -1  117.41   14.19
   2  -6   1  122.79    9.98
   2   6   1  102.31    8.64
  -2  -6  -1  140.74    9.90
  -2   6  -1   88.23    9.91
  -2  -6  -1  112.93    8.02
  -2   6  -1  116.72    9.21
  -2  -6  -1  121.70   15.35
  -2  -6  -1  128.72   12.24
  -2  -6  -1  112.59    9.63
   2  -6   1   96.29    8.95
   2   6   1  111.73   10.94
   2  -6   1  106.61    8.94
   2   6   1  115.24    9.85
  -2   6  -2   48.09   11.15
  -2  -6  -2   53.04    6.36
   2  -6   2   30.90    6.40
   2   6   2   33.71    5.55
  -2  -6  -2   40.98    5.72
  -2   6  -2   28.82    6.75
   2  -6   2   37.90    7.48
  -2  -6  -2   42.45   12.76
  -2   6  -2   30.75    5.64
   2  -6   2   36.86    8.31
   2  -6   2   27.30    5.26
  -2  -6  -2   25.05    6.07
   2   6   2   30.31    6.32
   2  -6   2   28.88    5.26
   2   6   2   38.12    7.62
  -2  -6  -2   47.32    9.46
   2   6   3  171.55   11.63
  -2   6  -3  181.86   13.54
  -2   6  -3  160.10   17.29
   2  -6   3  177.10   12.64
  -2  -6  -3  214.76   12.31
  -2  -6  -3  204.73   12.70
  -2   6  -3  171.93   12.00
   2  -6   3  139.88   13.06
   2  -6   3  182.90   15.07
  -2  -6  -3  173.84   14.85
  -2  -6  -3  157.52   12.58
   2   6   3  143.25   13.66
   2   6   3  154.69   12.68
  -2   6  -4  188.73   14.67
   2  -6   4  197.97   13.96
   2   6   4  208.73   13.18
  -2   6  -4  193.25   19.53
  -2  -6  -4  259.47   13.71
  -2  -6  -4  251.59   15.92
   2  -6   4  160.59   14.59
   2  -6   4  213.92   16.61
  -2   6  -4  206.71   13.46
  -2  -6  -4  170.98   16.58
   2  -6   4  184.10   12.45
   2   6   4  185.90   15.73
  -2  -6  -5  106.70    8.28
   2  -6   5  102.22    9.43
  -2   6  -5   97.01   14.62
   2   6   5   97.57    8.32
   2  -6   5   85.23   15.18
   2   6   5  111.96   10.99
   2   6   5   79.38    7.91
  -2  -6  -5  103.71   11.94
  -2   6  -5   79.52    8.66
   2  -6   5   75.13    9.62
   2  -6   5   92.95    7.43
   2  -6   5   93.38   12.03
   2   6   5   85.24   10.68
  -2  -6  -5   78.14   11.90
   2   6   6  252.35   17.17
   2  -6   6  230.34   15.61
  -2   6  -6  184.65   19.99
  -2  -6  -6  276.29   14.41
   2   6   6  216.92   14.21
   2  -6   6  230.41   22.74
  -2  -6  -6  232.19   18.86
   2   6   6  194.71   14.27
  -2  -6  -6  211.57   18.34
   2  -6   6  207.57   16.07
  -2   6  -6  208.23   15.08
   2  -6   6  221.33   13.43
   2   6   6  194.88   17.05
  -2   6  -7    3.67   10.76
   2  -6   7   -8.36   13.24
  -2  -6  -7    9.99    4.59
   2   6   7    3.22    4.95
  -2  -6  -7   -1.50   10.11
   2   6   7   -5.01    6.21
   2  -6   7   -6.38    7.08
  -2   6  -7    6.10    6.14
   2  -6   7    2.13    4.05
   2   6   7    3.23    7.50
  -2  -6  -7    0.92    8.91
  -2  -6  -8  136.30    8.71
   2  -6   8  106.07   18.25
  -2   6  -8   93.45   11.31
   2   6   8  100.25    8.85
   2   6   8  102.54   10.18
  -2  -6  -8  118.47   15.72
   2  -6   8  122.29   12.24
  -2   6  -8   96.83   10.70
  -2  -6  -8  102.37   14.04
   2  -6   9   48.38   16.15
  -2  -6  -9   58.13    5.90
  -2  -6  -9   61.23   14.26
   2   6   9   50.98    6.43
   2   6   9   41.23    8.34
  -2   6  -9   43.84    9.16
  -2   6  -9   37.36    8.43
   2  -6   9   46.56    9.31
  -2  -6  -9   53.64   10.26
  -2  -6  -9   45.98    9.17
   2  -6  10   -1.96   15.35
  -2  -6 -10   16.35    4.57
  -2  -6 -10   15.60   12.47
  -2   6 -10   19.46    8.57
   2   6  10   14.57    8.07
   2  -6  10   16.39    8.86
  -2   6 -10   14.72    7.97
  -2  -6 -10   22.78    9.23
  -2  -6 -10   12.67    8.42
  -2  -6 -11  171.34   11.44
   2  -6  11  190.45   24.42
  -2   6 -11  166.26   15.66
  -2  -6 -11  206.10   21.45
   2   6  11  183.60   15.14
   2  -6  11  196.02   17.03
  -2   6 -11  135.13   15.35
  -2  -6 -11  210.78   16.29
  -2  -6 -11  181.23   17.03
   2  -6  12   22.95   15.87
  -2  -6 -12   15.52    4.45
  -2   6 -12    9.71    9.00
  -2  -6 -12    2.86   14.02
   2  -6  12    5.74   10.00
  -2  -6 -12  -12.20   11.59
  -2  -6 -12    5.48    8.91
  -2  -6 -13  134.73    9.89
   2  -6  13  113.34   23.61
  -2   6 -13  154.12   15.17
   2   6  13  160.10   18.60
  -2  -6 -13  152.03   20.88
   2  -6  13  140.43   16.62
  -2  -6 -13  162.33   15.40
  -2  -6 -13  174.55   18.28
   2  -6  14    2.52   17.76
   2   6  14   30.09   14.31
  -2  -6 -14   47.89   16.19
  -2   6 -14   19.30    9.92
   2  -6  14   14.72   11.17
  -2  -6 -14   30.34   13.07
  -2  -6 -14   22.10   10.05
   2  -6  15   31.94   19.19
  -2  -6 -15   39.56   14.55
   2   6  15   45.84   16.53
  -2   6 -15   36.10    9.89
  -2  -6 -15   63.90   17.27
   2  -6  15   43.15   13.33
  -2  -6 -15   45.04   11.08
  -2   7  14    8.04   11.03
   2   7 -14    1.00   10.43
   2  -7 -14   15.36   16.20
  -2  -7  14    6.96   15.12
  -2   7  14   26.66   12.52
   2  -7 -14   -0.71   14.29
  -2   7  13   52.92   13.15
   2   7 -13   40.33   12.25
   2  -7 -13   72.35   19.00
  -2   7  13   47.92   13.99
  -2  -7  13  114.03   20.13
   2  -7 -13  108.15   17.98
  -2   7  12   14.35    9.75
   2   7 -12   21.98   10.33
   2  -7 -12    8.55   14.91
  -2  -7  12   10.41   14.88
   2  -7 -12   12.92   13.78
   2  -7 -12    7.46    8.73
  -2   7  11   27.04    9.01
   2   7 -11   14.34    9.87
  -2   7  11   20.13   11.14
   2  -7 -11   32.57   14.17
  -2  -7  11   26.00   14.74
   2  -7 -11   34.55   13.58
   2  -7 -11   20.97    8.92
  -2   7  10   36.23    8.69
   2   7 -10   37.23   10.43
  -2  -7  10   15.91   12.54
  -2   7  10   33.34   11.12
   2  -7 -10   50.06   13.99
  -2  -7  10   34.06   13.61
   2  -7 -10   50.11   13.49
  -2   7   9   -3.41    7.03
   2   7  -9    6.52    8.35
  -2   7   9    8.22    9.49
   2  -7  -9    0.55   11.30
  -2  -7   9    8.07   10.61
  -2  -7   9   -6.89   11.79
   2   7  -9    2.83    6.66
   2  -7  -9   -3.39   11.01
  -2   7   8    1.29    6.52
  -2   7   8   -0.86    8.85
   2  -7  -8   -2.54   10.80
  -2  -7   8   -0.53    9.78
   2   7  -8   -2.86    8.10
  -2   7   8    9.18   10.84
  -2  -7   8   -3.97   11.25
   2  -7  -8   15.80   11.54
   2   7  -8   -1.38    6.28
  -2   7   7   21.77    6.82
   2   7  -7   24.89    8.57
   2  -7  -7   33.32   11.61
  -2   7   7   43.69   10.05
  -2  -7   7   32.24   10.63
  -2  -7   7   42.14   12.24
  -2   7   7   29.63   10.39
   2   7  -7   30.32    7.33
  -2  -7   7   37.64    9.75
   2   7  -7   17.27    8.16
   2  -7  -7   26.98   11.90
  -2   7   6   11.60    6.38
  -2  -7   6    9.74    8.77
   2  -7  -6    2.66   10.35
  -2   7   6    5.36    8.22
   2   7  -6    3.98    7.59
  -2  -7   6    5.62   10.98
  -2   7   6   13.56    9.28
   2  -7  -6    7.80   11.21
   2  -7  -6    7.88    8.74
  -2  -7   6   24.29    9.32
   2   7  -6    7.56    7.51
   2   7  -6    7.43    6.66
  -2   7   5   72.28    8.42
  -2   7   5   73.66   14.01
   2   7  -5   75.08    9.95
   2  -7  -5   70.53   12.89
  -2  -7   5   74.70   11.22
  -2   7   5   90.25   11.11
  -2  -7   5   84.59   14.08
  -2   7   5   82.99   11.26
   2  -7  -5   75.84   13.42
   2  -7  -5   54.37   10.69
  -2  -7   5   88.51   11.65
   2   7  -5   56.90   10.35
   2   7  -5   58.80    9.23
  -2   7   4   -4.47   11.42
   2  -7  -4  -16.68   11.62
  -2   7   4    4.85    7.88
  -2  -7   4   -4.19    6.03
  -2  -7   4   -1.53    7.87
   2   7  -4  -14.06    7.64
  -2   7   4   -5.90    8.84
  -2  -7   4    8.00   11.21
   2  -7  -4  -19.93   12.90
   2   7  -4   -5.43    6.76
   2  -7  -4   -5.19    8.03
  -2  -7   4   -3.09    8.68
   2   7  -4    2.35    7.34
  -2   7   3  377.74   24.10
   2   7  -3  368.47   22.60
  -2   7   3  321.80   26.42
  -2  -7   3  381.20   23.00
  -2  -7   3  344.19   20.95
   2  -7  -3  331.76   25.24
  -2   7   3  384.57   23.67
  -2  -7   3  382.17   28.53
   2  -7  -3  355.08   26.48
   2   7  -3  370.52   24.14
   2  -7  -3  364.85   24.05
   2   7  -3  360.61   22.79
   2  -7  -3  359.21   23.37
  -2   7   2   28.21   10.57
   2   7  -2   17.16    6.87
  -2  -7   2   39.89    7.25
  -2   7   2   17.96    8.08
  -2  -7   2   30.37    6.39
   2  -7  -2   26.72   10.47
  -2  -7   2   24.04   13.63
  -2   7   2   34.45    8.41
   2  -7  -2   17.51    7.53
   2   7  -2   17.40    7.38
   2  -7  -2   17.33    7.58
  -2   7   1  100.75   15.55
  -2   7   1   79.29   10.22
  -2  -7   1   75.51    7.54
   2  -7  -1   95.00   13.08
   2   7  -1   74.03    8.82
  -2   7   1  106.30   10.02
  -2  -7   1   97.09   15.93
  -2  -7   1  116.59   12.76
   2  -7  -1   87.22    9.52
   2  -7  -1   74.57    9.73
  -2   7   0  167.88   19.31
  -2   7   0  198.83   15.01
   2   7   0  187.15   13.58
   2  -7   0  191.94   16.78
  -2  -7   0  176.22   12.29
  -2   7   0  199.07   14.01
  -2  -7   0  200.28   21.22
  -2  -7   0  230.24   17.42
   2  -7   0  195.74   13.92
   2  -7   0  193.42   13.80
  -2   7  -1   17.15   11.80
   2   7   1    4.53    5.47
  -2  -7  -1   20.21    5.69
  -2   7  -1   -4.21    7.05
   2  -7   1    5.49    9.44
  -2  -7  -1   -1.19    6.28
  -2  -7  -1   26.69   12.92
  -2   7  -1   11.73    6.12
   2  -7   1    2.54    5.17
   2   7   1   -0.73    7.59
  -2  -7  -1   22.03    9.72
   2  -7   1   -0.19    5.36
  -2   7  -2  106.98   16.24
  -2  -7  -2  161.03   10.96
   2   7   2  120.67    9.98
  -2   7  -2  106.28   11.45
   2  -7   2  110.50   13.79
  -2  -7  -2  123.06    9.83
  -2   7  -2  112.43   10.17
   2  -7   2  100.13   12.26
  -2  -7  -2  131.65   17.92
   2  -7   2  120.11    9.69
  -2  -7  -2  130.77   13.99
   2   7   2   90.02   12.13
   2   7   2  118.78   11.29
  -2   7  -3   44.43   13.15
  -2   7  -3   32.25    8.32
   2   7   3   52.45    7.12
   2  -7   3   49.76   11.03
  -2  -7  -3   46.85    7.96
  -2  -7  -3   66.49    7.66
   2  -7   3   35.46    8.89
  -2   7  -3   38.70    6.92
  -2  -7  -3   35.33   10.65
   2   7   3   45.30    9.64
   2   7   4  101.48    9.23
  -2   7  -4   79.38   15.49
  -2  -7  -4  121.03    9.44
  -2   7  -4   81.34   10.66
   2  -7   4   74.05   12.37
  -2  -7  -4  102.83   10.93
   2  -7   4   74.44   10.91
  -2   7  -4   86.13    9.06
   2  -7   4   97.61    8.27
   2   7   4   90.46   11.93
  -2  -7  -4   99.49   12.96
  -2   7  -5   11.10   12.58
  -2  -7  -5   36.89    9.94
  -2   7  -5   29.11    8.64
   2   7   5   36.02    6.97
   2  -7   5   40.69   10.54
  -2  -7  -5   35.18    6.75
   2  -7   5   34.57    8.73
  -2   7  -5   25.45    6.69
   2  -7   5   34.54    5.87
   2   7   5   26.84    9.44
  -2  -7  -5   26.99   10.89
  -2  -7  -6   75.92   12.58
   2   7   6   69.89    8.60
   2  -7   6   52.80   11.99
  -2  -7  -6   88.56    8.37
   2  -7   6   79.37   10.55
  -2   7  -6   80.76    9.20
   2   7   6   57.52   10.89
   2  -7   6   70.51    7.33
  -2  -7  -6   69.29   12.49
  -2  -7  -7  102.77    8.64
  -2  -7  -7   90.96   14.34
   2   7   7   75.20    8.56
   2   7   7   69.99    8.86
   2  -7   7   69.34   11.00
  -2   7  -7   69.20    9.34
   2  -7   7   76.89    7.46
  -2  -7  -7   74.41   13.08
   2   7   7   53.32   11.55
   2  -7   8   -7.04   15.43
  -2  -7  -8   11.54    5.50
   2   7   8    8.20    5.79
  -2  -7  -8    1.13   10.89
   2  -7   8    7.83    8.59
  -2   7  -8   12.53    7.03
  -2  -7  -8   -6.46   10.29
   2  -7   9   23.74   16.71
  -2  -7  -9   21.78    5.91
  -2   7  -9   23.60    9.12
   2   7   9   18.22    6.29
  -2  -7  -9   15.51   12.51
   2  -7   9   21.50    9.64
  -2   7  -9   23.05    8.28
  -2  -7  -9   23.84   11.48
  -2  -7  -9   24.68   10.03
   2  -7  10   64.47   20.04
   2   7  10   54.36   12.10
  -2  -7 -10   54.18    6.77
  -2   7 -10   51.49   10.69
  -2  -7 -10   51.47   14.61
  -2   7 -10   32.72    9.52
   2  -7  10   63.98   11.77
  -2  -7 -10   47.53   11.80
   2  -7  11    6.14   17.55
   2   7  11    3.58   11.19
  -2  -7 -11   -2.78    5.00
  -2  -7 -11  -11.08   13.21
  -2   7 -11    2.15    8.97
   2  -7  11   -0.50   10.15
  -2  -7 -11   12.60   11.02
   2  -7  12   50.63   21.95
   2   7  12   84.88   14.71
  -2   7 -12   58.25   11.64
  -2  -7 -12   65.07   16.86
   2  -7  12   48.40   13.10
  -2  -7 -12   52.13   13.42
  -2  -7 -12   61.26   11.85
   2  -7  13   42.89   21.36
   2   7  13   53.66   14.75
  -2   7 -13   23.64   10.73
  -2  -7 -13   52.71   16.68
   2  -7  13   47.52   13.36
  -2  -7 -13   37.91   13.40
   2  -7  14   10.19   20.53
   2   7  14   20.75   14.32
  -2   7 -14    7.91    9.85
  -2  -7 -14   13.35   14.73
   2  -7  14   17.57   12.31
  -2  -7 -14   26.45   13.64
  -2   8  12   10.82   10.43
   2   8 -12    9.09   10.92
   2  -8 -12   38.60   16.72
  -2  -8  12   31.87   16.78
   2  -8 -12   19.72   16.16
   2   8 -12   16.01    9.77
  -2   8  11    0.37    9.28
   2   8 -11   12.32   10.55
  -2   8  11   27.78   12.46
   2  -8 -11   27.35   15.25
  -2  -8  11   18.95   15.90
   2  -8 -11    0.68   14.61
   2  -8 -11    9.40    9.65
   2   8 -11    9.39    9.38
  -2   8  10    7.30    8.24
   2   8 -10    4.32    9.65
  -2   8  10    2.05   10.82
   2  -8 -10    3.15   13.26
  -2  -8  10    3.96   14.27
   2  -8 -10   -4.55   14.35
   2   8 -10   10.52    8.95
  -2   8   9   11.60    7.97
   2   8  -9    8.56    9.49
  -2   8   9   23.53   11.29
   2  -8  -9   17.63   13.03
  -2  -8   9    5.29   11.45
  -2  -8   9    9.18   13.37
   2  -8  -9   16.01   10.73
   2   8  -9   16.22    9.35
   2  -8  -9   15.74   13.23
  -2   8   8    0.28    7.39
   2   8  -8    2.68    8.78
   2  -8  -8   -1.09   12.03
  -2   8   8    0.93   10.24
  -2  -8   8  -11.97   11.32
  -2  -8   8   16.31   13.19
   2  -8  -8   15.62    9.56
   2  -8  -8   12.20   12.67
   2   8  -8    2.46    8.66
  -2   8   7   -3.37    6.94
  -2   8   7   -5.60   12.08
   2   8  -7    7.94    8.75
  -2   8   7    2.64    9.43
   2  -8  -7   15.44   11.63
  -2  -8   7   19.72   10.86
  -2  -8   7    6.50   12.59
   2  -8  -7    0.40    9.24
   2   8  -7   -1.63    8.74
   2  -8  -7   27.93   12.68
  -2   8   6    9.47    7.10
  -2   8   6   14.28   12.40
   2   8  -6    1.69    8.50
  -2  -8   6   31.58   10.07
   2  -8  -6   16.42   11.63
  -2   8   6   15.11    9.70
  -2  -8   6   16.31    7.56
  -2   8   6   15.07    9.99
  -2  -8   6   37.10   13.99
   2  -8  -6   -4.11   10.13
   2   8  -6    6.04    9.28
   2  -8  -6   23.85   13.31
  -2   8   5   -1.93    6.90
  -2   8   5   -5.91   12.48
   2   8  -5    0.95    7.99
   2  -8  -5  -11.54   11.53
  -2   8   5    9.99    9.29
  -2  -8   5   17.70    8.80
  -2  -8   5   18.84    7.08
  -2   8   5   13.36    9.41
  -2  -8   5   18.54   13.68
   2  -8  -5  -13.83   12.95
   2  -8  -5    3.15    9.30
   2   8  -5   13.69    8.98
  -2   8   4   46.41   13.78
   2  -8  -4   46.81   13.11
   2   8  -4   54.02   10.04
  -2   8   4   75.44   11.75
  -2  -8   4   60.91    8.38
  -2  -8   4   67.67   10.92
  -2   8   4   59.68   11.12
  -2  -8   4   68.90   15.84
   2  -8  -4   83.98   15.65
   2  -8  -4   52.28   11.00
   2   8  -4   48.76   11.40
  -2   8   3   -4.00   10.77
   2  -8  -3   10.70   10.95
   2   8  -3   -2.55    7.13
  -2  -8   3   11.85    7.62
  -2   8   3    5.24    8.53
  -2  -8   3   -0.89    6.43
  -2  -8   3    5.03   13.19
   2  -8  -3   -9.96   12.27
  -2   8   3    6.94    8.44
   2  -8  -3   -7.78    8.17
   2   8  -3   -4.88    9.05
  -2   8   2   44.66   13.19
   2   8  -2   44.08    8.51
  -2   8   2   46.93   10.02
  -2  -8   2   60.19    8.50
  -2  -8   2   53.28    7.18
   2  -8  -2   41.95   12.19
  -2  -8   2   58.37   14.79
  -2   8   2   54.61    9.55
   2  -8  -2   36.56    8.92
   2   8  -2   28.26   10.33
  -2   8   1   28.21   13.40
   2   8  -1   40.71    7.91
  -2   8   1   32.80    8.99
   2  -8  -1   25.10   11.07
  -2  -8   1   32.33    6.58
  -2  -8   1   52.78   14.74
  -2  -8   1   54.74   11.90
  -2   8   1   46.64    8.51
   2  -8  -1   37.93    8.18
  -2   8   0   24.38   14.04
  -2  -8   0   20.87    6.06
   2   8   0   23.30    7.09
  -2   8   0   16.36    8.25
   2  -8   0   40.76   11.25
  -2  -8   0   32.99   15.06
  -2   8   0   24.02    7.55
  -2  -8   0   37.05   11.09
   2  -8   0   29.90    7.28
  -2   8  -1   83.04   16.26
   2   8   1   69.57    8.78
  -2  -8  -1   63.80    7.92
  -2   8  -1   52.89   10.23
  -2  -8  -1   55.02    9.63
   2  -8   1   35.02   12.16
  -2  -8  -1   67.60   17.33
  -2   8  -1   72.41    8.95
   2  -8   1   67.43    8.61
  -2  -8  -1  108.08   13.65
   2   8   2    9.13    6.84
  -2   8  -2    4.51    7.95
  -2  -8  -2    0.59    6.59
  -2  -8  -2   17.72    7.27
   2  -8   2    3.65   10.67
  -2   8  -2    3.97    6.37
  -2  -8  -2   14.08   10.67
   2   8   2   -0.44    9.09
  -2   8  -3   34.69    9.72
   2   8   3   47.34    8.13
  -2  -8  -3   69.87    8.93
  -2  -8  -3   64.49    8.91
   2  -8   3   32.18   12.20
   2  -8   3   42.01   10.47
  -2   8  -3   51.08    8.16
  -2  -8  -3   64.52   12.38
   2  -8   3   43.99    7.45
   2   8   3   45.93   11.37
  -2   8  -4   21.12    9.09
   2   8   4   27.93    7.53
   2  -8   4   23.55   11.15
  -2  -8  -4   26.51    9.29
  -2  -8  -4   31.18    7.61
   2  -8   4    7.00    9.21
  -2   8  -4   18.52    7.11
   2  -8   4   15.03    6.27
   2   8   4   25.82   10.58
  -2  -8  -4   22.64   11.67
   2  -8   5    1.27   11.63
  -2   8  -5   21.96    9.47
   2   8   5   19.52    7.31
  -2  -8  -5   29.54    7.46
  -2  -8  -5   32.10    9.96
   2  -8   5   24.74    9.70
  -2   8  -5   25.76    7.30
   2  -8   5   25.35    6.69
  -2  -8  -5   39.16   12.10
   2   8   5   22.81   10.53
  -2  -8  -6   14.14   11.15
  -2   8  -6   16.51    9.33
   2   8   6   25.04    7.57
   2  -8   6    9.53   11.67
  -2  -8  -6   24.32    7.16
   2  -8   6   20.14    9.66
  -2   8  -6   16.83    7.46
   2   8   6   12.27   10.47
  -2  -8  -6   17.31   12.08
  -2  -8  -7   -2.05   11.29
   2   8   7    5.17    6.70
   2  -8   7    3.12   11.02
  -2  -8  -7    9.30    6.51
   2  -8   7   -0.44    9.30
  -2   8  -7   -2.01    7.03
  -2  -8  -7    2.81   11.19
   2   8   8   20.78   10.88
   2  -8   8   12.52   11.64
   2   8   8   24.86    7.41
  -2  -8  -8   18.92   12.47
  -2  -8  -8   29.70    7.32
   2  -8   8   31.94   10.56
  -2   8  -8   24.81    8.15
  -2  -8  -8   13.51   12.17
   2   8   9   -3.23   10.42
  -2  -8  -9    5.00   12.37
   2  -8   9    6.58   10.09
  -2   8  -9    0.65    7.59
  -2  -8  -9    9.24   12.09
   2   8  10    3.02   10.98
  -2   8 -10   -4.11   10.06
  -2  -8 -10   -1.33   13.21
   2  -8  10    2.48   10.63
  -2  -8 -10    0.52   10.53
  -2  -8 -10   -7.72   12.65
   2   8  11   44.52   13.55
   2  -8  11   19.91   20.99
  -2  -8 -11   29.56   15.64
  -2   8 -11   22.94   11.39
   2  -8  11   36.04   12.46
  -2  -8 -11   44.63   14.44
  -2  -8 -11   34.01   11.99
  -2   8 -12   -4.51   10.65
  -2  -8 -12    2.84   14.29
   2   8  12   -6.42   12.77
   2  -8  12   12.68   21.47
  -2  -8 -12   14.82   12.34
  -2   9   9   -4.92    8.48
   2   9  -9    8.76   10.01
  -2  -9   9    2.17    9.35
  -2   9   9    1.04   11.65
   2  -9  -9    0.62   13.26
  -2  -9   9   22.91   15.97
   2  -9  -9  -17.25   15.12
   2   9  -9  -15.81   10.53
  -2   9   8   13.44    8.90
   2   9  -8   -9.97   11.27
   2  -9  -8   20.94   14.15
  -2  -9   8    6.30    9.13
  -2   9   8   28.50   12.08
  -2  -9   8   43.08   17.16
   2   9  -8   17.80   11.31
   2  -9  -8   34.88   15.60
  -2   9   7   -4.30    7.80
   2   9  -7   -3.94    9.56
   2  -9  -7   13.75   12.69
  -2   9   7   -2.38   10.76
  -2  -9   7   -9.29    8.86
  -2  -9   7    8.24   14.57
   2   9  -7    7.67   10.24
   2  -9  -7    3.93   13.77
  -2   9   6   12.28    7.95
   2   9  -6    3.35    9.18
   2  -9  -6   -2.10   12.74
  -2   9   6    5.48   10.16
  -2  -9   6   17.01    8.16
  -2  -9   6    9.80   14.66
   2  -9  -6    6.23   10.29
   2   9  -6    4.31    9.91
   2  -9  -6   14.12   14.59
  -2   9   5    8.98    7.99
   2   9  -5    6.71    9.42
   2  -9  -5   -2.98   12.74
  -2   9   5    3.50   10.52
  -2  -9   5   12.37    7.73
  -2  -9   5   12.99   14.96
   2  -9  -5  -18.65   11.26
   2   9  -5  -23.52   12.40
   2  -9  -5   27.59   15.03
   2  -9  -4   -6.77   11.43
   2   9  -4   -2.01    8.23
  -2   9   4   -7.65   10.12
  -2  -9   4    8.71    7.15
  -2  -9   4    4.84   14.15
   2  -9  -4    7.56   13.48
   2  -9  -4  -10.98    9.08
   2   9  -4   -6.71   10.52
   2  -9  -3    9.77   11.80
   2   9  -3    2.57    8.23
  -2   9   3    7.08    9.66
  -2  -9   3   11.03    8.60
  -2  -9   3    8.66    6.71
  -2  -9   3   14.67   15.05
   2  -9  -3    7.46   13.44
  -2   9   3    7.54    8.73
   2   9  -3    7.75   10.53
   2  -9  -3    0.32    8.88
   2   9  -2    5.26    7.73
  -2   9   2   12.13    9.21
   2  -9  -2   -7.74   11.67
  -2  -9   2    0.37    6.28
  -2  -9   2   -0.27    7.23
   2  -9  -2   11.59   12.86
  -2  -9   2   -4.93   14.20
  -2  -9   2    1.60   11.18
  -2   9   2   -0.67    7.95
   2   9  -2    5.82    9.83
   2  -9  -2   -2.69    7.88
  -2  -9   1   -1.63    6.13
   2   9  -1   -0.30    7.78
  -2   9   1   -2.77    9.19
   2  -9  -1   10.78   11.35
  -2  -9   1    7.58   14.68
  -2  -9   1   20.36   11.61
  -2   9   1   -0.32    7.57
   2  -9  -1   -0.28    7.28
   2   9  -1    5.35    9.98
  -2  -9   0    2.58    6.15
  -2   9   0    7.08    8.49
   2   9   0   -7.30    7.43
   2  -9   0   -5.74   11.08
  -2  -9   0    1.76   14.51
  -2   9   0    0.30    7.21
  -2  -9   0    6.47   11.24
   2   9   1    2.59    7.01
  -2   9  -1    2.36    8.64
  -2  -9  -1    6.44    6.43
   2  -9   1   14.17   11.32
  -2  -9  -1    9.03   15.58
  -2   9  -1    8.54    7.27
  -2  -9  -1    5.45   11.56
   2   9   2    6.86    7.62
  -2   9  -2    7.06    9.29
  -2  -9  -2   12.59    7.23
   2  -9   2   -1.78   12.18
  -2   9  -2    4.43    7.36
  -2  -9  -2    4.92   11.55
  -2   9  -3  -10.78   10.02
   2   9   3   -1.41    7.61
  -2  -9  -3    1.62    8.17
   2  -9   3   -3.59   12.00
  -2   9  -3   -0.83    7.37
   2   9   3   -6.98   10.73
  -2  -9  -3   -4.42   12.07
   2   9   4   12.82    8.14
  -2   9  -4   -0.82    9.91
   2  -9   4    3.65   12.61
  -2  -9  -4    1.63    9.51
   2  -9   4   -6.37   11.32
  -2   9  -4   -4.18    8.28
  -2  -9  -4    1.13   12.14
   2   9   4    7.18   11.14
   2   9   5   12.61   10.83
  -2  -9  -5   23.92   11.31
  -2   9  -5   -3.38   10.62
   2   9   5   13.72    8.85
   2  -9   5   -5.53   13.18
   2  -9   5    2.92   11.22
  -2   9  -5   18.65    8.23
  -2  -9  -5   32.56   13.58
   2   9   5    3.95   11.70
  -2  -9  -6    4.60   11.41
   2   9   6  -10.30    8.67
   2  -9   6    4.26   12.25
  -2   9  -6    2.62    9.82
   2   9   6   -7.66   10.62
  -2  -9  -6  -17.33   13.21
  -2   9  -7    3.14   10.58
  -2  -9  -7    0.52   11.51
   2  -9   7   -9.77   12.77
   2   9   7    5.83   11.09
  -2  -9  -7   12.95   13.15
  -2  -9  -8   12.13   12.96
   2  -9   8   19.20   12.84
   2   9   8   18.73   11.36
  -2  -9  -8    1.28   12.76
   2  -9   9   15.18   13.39
  -2  -9  -9   13.64   13.11
   2   9   9   -4.47   11.39
  -2  -9  -9   -2.67   13.58
  -2  10   4  -20.66    9.75
   2  10  -4  -11.65   10.59
  -2  10   4  -15.35   12.21
   2 -10  -4    6.66   12.72
  -2 -10   4  -17.19   18.01
  -2 -10   4    6.60   13.27
   2 -10  -4   -9.67   16.43
   2  10  -4  -17.24   13.91
   2 -10  -3    3.02   12.27
   2  10  -3   -2.52    9.08
  -2  10   3    1.37   10.21
  -2 -10   3  -16.25   17.03
  -2 -10   3   -4.79   13.34
   2 -10  -3   -1.37   14.40
   2  10  -3    1.68   11.01
   2 -10  -2  -10.76   11.92
   2  10  -2   10.85    8.81
  -2  10   2    8.99   10.54
  -2 -10   2   -7.43   16.96
   2 -10  -2  -12.86   15.23
  -2 -10   2   -4.20   13.12
   2  10  -2    5.10   11.21
   2  10  -1  -10.20    8.69
  -2  10   1    7.96    9.66
   2 -10  -1    0.48   11.65
   2 -10  -1    0.67   14.03
  -2 -10   1  -10.48   16.22
  -2 -10   1    7.22   12.67
   2  10  -1    0.57   11.02
   2  10   0    2.01    8.23
  -2  10   0    8.34    9.93
   2 -10   0   -7.17   12.31
  -2 -10   0  -10.70   16.53
   2  10   0   -1.16   11.24
  -2 -10   0   -1.21   12.61
   2  10   1   -1.97    8.04
  -2  10  -1    8.78    9.90
   2 -10   1  -14.66   12.48
  -2 -10  -1    1.21   12.40
   2  10   1   10.67   11.82
   2  10   2   -1.93    8.09
  -2  10  -2    0.44    9.68
   2 -10   2   -3.81   12.18
  -2 -10  -2    3.02   12.51
  -2  10  -3   -2.22   10.26
   2  10   3    4.83    8.52
   2 -10   3   -3.87   12.62
  -2 -10  -3    0.61   13.49
  -2  10  -4    8.65   11.15
   2  10   4   23.12    8.41
   2 -10   4    6.84   13.24
  -2 -10  -4    9.34   13.62
  -3   0  18    1.19   18.41
   3   0 -18   45.02   17.44
  -3   0  18   11.38   14.02
   3   0 -18   44.04   12.28
  -3   0  17   60.08   19.79
   3   0 -17   24.44   16.26
  -3   0  17   49.03   15.07
   3   0 -17   30.03   11.60
  -3   0  16  328.94   34.65
   3   0 -16  374.36   34.18
  -3   0  16  401.63   31.49
   3   0 -16  448.96   29.46
  -3   0  16  460.89   29.17
  -3   0  15   55.82   16.96
   3   0 -15   82.79   11.93
   3   0 -15   54.39   16.70
  -3   0  15   66.43   13.95
   3   0 -15   70.46   12.27
  -3   0  15   95.36   12.55
   3   0 -14  309.15   21.21
  -3   0  14  224.49   25.96
   3   0 -14  270.04   26.86
  -3   0  14  266.36   23.33
   3   0 -14  300.01   21.70
  -3   0  14  318.13   21.53
  -3   0  13  101.53   17.21
   3   0 -13  107.82   12.59
   3   0 -13   98.84   17.39
  -3   0  13   98.05   14.17
   3   0 -13  113.14   12.44
  -3   0  13  117.94   12.49
   3   0 -12   17.83    8.18
  -3   0  12   27.49   12.57
   3   0 -12   35.05   13.51
  -3   0  12   23.78    9.49
   3   0 -12   24.40    7.86
  -3   0  12   22.43    7.95
  -3   0  11   30.94   12.17
   3   0 -11   27.09    8.24
  -3   0  11   16.33    9.62
   3   0 -11   25.68    9.41
   3   0 -11   23.00   11.85
  -3   0  11   30.36    9.16
   3   0 -11   36.13    7.69
  -3   0  11   34.87    7.80
  -3   0  10   61.50   12.22
   3   0 -10   46.36    8.56
  -3   0  10   64.18   10.55
   3   0 -10   47.37   12.14
   3   0 -10   39.80    9.77
   3   0 -10   47.47    9.15
  -3   0  10   61.20    9.93
   3   0 -10   48.11    7.74
  -3   0  10   55.00    7.95
   3   0  -9  172.89   13.77
  -3   0   9  178.86   16.85
  -3   0   9  182.16   15.29
  -3   0   9  187.74   12.83
   3   0  -9  144.80   12.34
   3   0  -9  162.28   14.07
   3   0  -9  158.14   17.21
  -3   0   9  185.34   15.12
   3   0  -9  175.77   15.21
   3   0  -8  890.01   51.22
  -3   0   8  875.21   52.40
  -3   0   8 1006.73   52.93
  -3   0   8 1049.92   50.41
   3   0  -8  832.62   50.16
   3   0  -8  969.05   52.07
   3   0  -8  865.61   53.99
   3   0  -8  984.53   53.15
  -3   0   8 1056.56   52.70
   3   0  -7  634.97   36.06
  -3   0   7  664.99   37.27
  -3   0   7  642.64   36.93
   3   0  -7  627.26   36.34
  -3   0   7  729.73   34.70
   3   0  -7  543.25   34.47
   3   0  -7  600.66   37.96
  -3   0   7  717.59   36.89
   3   0  -7  660.09   37.64
   3   0  -6 4887.87  251.90
  -3   0   6 5000.01  253.04
   3   0  -6 4994.18  253.66
   3   0  -6 5368.99  253.84
  -3   0   6 5408.39  252.48
  -3   0   6 5251.19  252.97
   3   0  -6 4442.23  250.44
   3   0  -6 5184.20  252.46
   3   0  -5    5.55    4.79
   3   0  -5    5.80    6.06
   3   0  -5    7.34    6.55
  -3   0   5    2.38    5.32
   3   0  -5    0.63    4.81
  -3   0   5    6.71    5.13
   3   0  -5    7.08    2.79
   3   0  -4 2979.30  158.52
   3   0  -4 3213.22  160.08
  -3   0   4 3219.02  158.83
   3   0  -4 3007.82  159.46
  -3   0   4 3155.72  159.26
   3   0  -4 3164.53  158.97
   3   0  -3  566.80   32.26
   3   0  -3  612.68   33.47
  -3   0   3  636.87   32.49
   3   0  -3  610.32   32.93
   3   0  -3  583.38   32.33
  -3   0   3  605.52   32.77
  -3   0   3  593.26   31.27
   3   0  -2  269.69   16.19
   3   0  -2  248.60   15.53
  -3   0   2  285.39   15.63
   3   0  -2  278.48   15.99
   3   0  -2  263.97   15.42
  -3   0   2  271.77   15.85
  -3   0   2  243.94   15.15
   3   0  -1  813.99   44.74
   3   0  -1  831.52   46.03
  -3   0   1  920.61   45.81
   3   0  -1  936.50   46.10
   3   0  -1  897.21   44.74
   3   0  -1  879.18   45.67
  -3   0   1  973.65   46.39
  -3   0   1  803.56   46.12
   3   0   0   18.74    3.25
  -3   0   0   11.97    4.67
   3   0   0   10.83    3.40
   3   0   0   20.33    4.04
  -3   0   0   21.72    4.34
   3   0   0   16.30    3.44
   3   0   0   15.71    3.32
   3   0   1 1143.40   60.71
   3   0   1 1080.31   60.32
  -3   0  -1 1154.62   61.11
   3   0   1 1287.05   60.96
   3   0   1 1312.97   60.90
   3   0   1 1075.19   60.96
  -3   0  -1 1367.29   61.97
  -3   0  -1 1070.94   60.46
  -3   0  -1 1132.59   62.27
   3   0   1 1259.95   61.35
   3   0   2  286.59   15.88
   3   0   2  298.02   17.24
   3   0   2  310.37   16.70
  -3   0  -2  270.79   16.51
   3   0   2  247.35   17.16
   3   0   2  321.52   16.85
  -3   0  -2  297.06   16.98
   3   0   2  283.35   15.90
  -3   0  -2  279.54   18.64
   3   0   2  305.89   17.58
   3   0   3 2327.65  118.92
  -3   0  -3 2272.52  117.45
   3   0   3 2294.38  116.80
  -3   0  -3 2258.97  117.32
  -3   0  -3 2433.94  118.92
   3   0   3 2148.70  118.97
   3   0   3 2458.97  118.27
   3   0   3 2360.23  116.91
  -3   0  -3 2168.93  120.12
   3   0   3 2288.39  118.98
   3   0   4  736.71   40.08
   3   0   4  709.31   36.72
  -3   0  -4  696.57   37.20
  -3   0  -4  758.22   38.21
  -3   0  -4  743.48   39.90
   3   0   4  678.71   39.80
   3   0   4  705.82   38.79
   3   0   4  713.97   39.71
  -3   0  -5  650.35   33.54
   3   0   5  596.62   31.46
   3   0   5  631.73   35.86
  -3   0  -5  593.63   31.87
  -3   0  -5  669.50   35.73
   3   0   5  618.07   35.49
   3   0   5  581.76   34.33
   3   0   5  605.28   31.77
   3   0   5  626.25   31.70
   3   0   5  627.72   35.14
   3   0   6  546.84   31.08
  -3   0  -6  513.59   25.71
  -3   0  -6  543.79   28.13
   3   0   6  472.41   25.35
  -3   0  -6  515.92   30.26
   3   0   6  546.23   30.36
   3   0   6  464.09   25.69
   3   0   6  492.50   29.43
   3   0   6  469.06   25.50
  -3   0  -7  409.85   24.06
   3   0   7  409.27   27.44
  -3   0  -7  397.98   21.28
   3   0   7  403.40   24.49
  -3   0  -7  376.59   26.03
   3   0   7  413.96   26.11
   3   0   7  408.61   25.36
   3   0   8   16.37    6.84
  -3   0  -8   14.50    2.98
  -3   0  -8   10.43    6.04
  -3   0  -8    7.63    8.36
   3   0   8   13.33    9.55
   3   0   8   10.96    7.86
  -3   0  -8   10.41    7.54
  -3   0  -8   11.56    2.68
   3   0   8    8.70    6.84
  -3   0  -9 1145.23   64.90
   3   0   9 1217.21   69.37
  -3   0  -9 1257.53   61.80
   3   0   9 1220.95   66.15
  -3   0  -9 1118.64   67.47
   3   0   9 1212.47   67.06
  -3   0  -9 1181.37   61.43
  -3   0  -9 1243.97   68.42
   3   0   9 1206.29   66.27
  -3   0 -10  527.00   31.47
   3   0  10  551.01   36.66
  -3   0 -10  542.89   27.91
   3   0  10  491.31   32.67
   3   0  10  548.43   33.65
  -3   0 -10  506.47   27.36
   3   0  10  539.44   32.62
   3   0  11  814.60   49.58
  -3   0 -11  812.97   39.96
  -3   0 -11  758.74   43.60
   3   0  11  738.53   45.53
   3   0  11  855.24   46.53
   3   0  11  769.61   44.37
  -3   0 -11  709.19   39.19
   3   0  11  760.34   44.45
   3   0  12  313.56   26.64
  -3   0 -12  285.91   15.94
   3   0  12  257.65   22.19
   3   0  12  308.36   21.39
  -3   0 -12  252.47   14.91
   3   0  13  414.69   32.78
  -3   0 -13  413.68   21.11
   3   0  13  425.62   26.89
  -3   0 -13  332.74   19.85
  -3   0 -14   96.71    7.82
   3   0  14  139.77   20.69
   3   0  14  123.39   14.62
  -3   0 -14   81.43    6.35
  -3   0 -15   40.88    5.34
  -3   0 -15   28.93    3.95
   3   0  16  384.39   32.01
  -3   0 -16   94.62    9.39
   3   0  16  397.75   22.43
  -3   0 -16  133.10    8.71
   3   0  17  185.40   25.92
   3   0  17  124.64   16.06
   3   0  18  195.12   29.13
   3   0  18  196.26   19.83
  -3   0 -18  234.51   23.83
  -3   1  18    6.40   17.88
  -3  -1  18   12.00   17.97
   3  -1 -18   14.03   17.12
   3   1 -18   42.15   17.53
  -3   1  18   66.08   16.24
  -3  -1  18   24.29   14.19
   3  -1 -18   22.85   12.92
  -3   1  17  235.82   27.01
  -3  -1  17  188.90   26.64
   3  -1 -17  207.68   25.98
   3   1 -17  191.03   24.26
  -3   1  17  231.77   22.88
   3  -1 -17  249.38   21.13
  -3  -1  17  204.00   22.60
   3   1 -17  205.22   19.64
  -3   1  16   30.99   15.71
  -3  -1  16  -19.21   16.45
   3  -1 -16   -8.10   14.92
   3   1 -16   12.14   14.74
  -3   1  16    5.39   12.06
  -3  -1  16    7.16   12.02
  -3  -1  16    2.75    6.06
   3  -1 -16   29.49   11.53
   3   1 -16    6.84    9.57
  -3  -1  16   -2.94    9.65
  -3   1  15  373.43   34.37
  -3  -1  15  288.27   34.20
   3  -1 -15  438.07   35.57
   3   1 -15  419.29   34.61
  -3   1  15  445.01   32.10
  -3  -1  15  361.59   30.76
  -3   1  15  502.81   30.15
   3   1 -15  363.01   28.33
  -3  -1  15  563.10   29.76
   3  -1 -15  532.71   30.95
  -3  -1  15  445.09   25.26
  -3   1  14   51.66   15.50
  -3  -1  14   51.53   16.45
   3  -1 -14   95.39   10.83
   3   1 -14   67.89   12.13
   3   1 -14   65.44   16.24
   3  -1 -14   84.70   16.63
  -3   1  14   78.91   13.90
  -3  -1  14   55.46   12.73
  -3  -1  14   80.34   11.49
   3  -1 -14   92.89   12.68
   3   1 -14   73.07   10.86
  -3  -1  14   76.60    8.05
  -3   1  14   94.23   12.73
   3  -1 -13  388.95   23.80
   3   1 -13  341.84   25.47
  -3   1  13  300.38   28.52
  -3  -1  13  391.30   31.58
   3  -1 -13  329.73   29.82
   3   1 -13  373.22   30.35
  -3   1  13  351.51   26.99
  -3  -1  13  361.91   27.32
   3   1 -13  322.80   24.07
  -3   1  13  386.71   25.35
   3  -1 -13  397.53   25.83
  -3  -1  13  424.27   25.00
  -3  -1  13  390.30   21.79
   3  -1 -12  161.28   13.20
   3   1 -12  149.77   15.09
  -3   1  12  133.88   17.67
  -3  -1  12  153.23   19.10
   3   1 -12  154.56   18.85
  -3  -1  12  141.77   16.44
   3  -1 -12  118.80   18.01
  -3  -1  12  178.36   16.59
   3   1 -12  130.22   12.92
  -3   1  12  170.47   14.57
  -3   1  12  126.81   15.18
   3  -1 -12  178.57   14.90
  -3  -1  12  169.80   13.81
  -3  -1  12  153.26   10.99
  -3   1  11   -1.24   10.39
  -3  -1  11   35.61   11.75
   3  -1 -11   19.64    6.81
   3   1 -11   22.51    8.76
   3   1 -11   16.82   11.62
  -3   1  11    6.67    9.81
   3  -1 -11   34.55   12.21
  -3  -1  11   14.53    9.77
   3   1 -11   21.91    8.47
  -3   1  11   22.41    8.68
  -3  -1  11   12.60    8.79
  -3  -1  11   12.66    6.91
   3  -1 -11   12.46    7.56
   3   1 -11   20.72    6.37
  -3  -1  11   16.90    4.99
  -3   1  11   20.54    7.84
   3  -1 -10  204.03   14.49
   3   1 -10  200.71   16.57
  -3   1  10  188.42   18.61
  -3  -1  10  189.14   18.68
   3  -1 -10  200.89   19.54
   3   1 -10  164.66   19.14
  -3   1  10  225.97   17.54
  -3  -1  10  202.73   17.64
   3  -1 -10  242.99   17.57
   3   1 -10  217.47   16.47
   3  -1 -10  213.82   15.76
  -3   1  10  230.60   15.72
   3   1 -10  176.91   14.18
  -3  -1  10  240.59   17.94
  -3  -1  10  208.36   14.81
  -3   1  10  164.43   16.39
  -3  -1  10  218.56   13.02
   3  -1  -9  267.18   16.78
   3   1  -9  240.49   18.88
  -3   1   9  305.71   20.96
  -3  -1   9  264.46   21.50
   3  -1  -9  256.23   21.17
   3  -1  -9  281.05   19.66
  -3   1   9  282.07   19.37
   3   1  -9  208.97   21.31
  -3  -1   9  285.49   20.09
   3   1  -9  269.35   18.60
   3  -1  -9  256.07   17.76
  -3   1   9  287.86   17.63
  -3  -1   9  268.78   19.56
   3   1  -9  236.02   16.44
  -3   1   9  244.62   19.18
  -3  -1   9  252.91   16.82
  -3  -1   9  269.12   15.43
   3  -1  -8  243.76   15.30
   3   1  -8  242.43   17.64
  -3   1   8  267.96   18.86
  -3  -1   8  254.96   19.87
  -3   1   8  258.67   18.01
   3   1  -8  245.47   17.02
  -3  -1   8  270.13   18.37
   3  -1  -8  231.57   16.14
  -3   1   8  257.48   15.93
  -3  -1   8  226.07   15.15
   3   1  -8  225.44   14.97
   3  -1  -8  240.30   19.26
   3   1  -8  193.90   19.58
  -3   1   8  263.96   17.93
  -3  -1   8  252.18   18.02
   3  -1  -8  264.49   18.05
   3  -1  -7 1567.48   82.77
   3   1  -7 1527.20   85.05
  -3   1   7 1757.18   85.34
  -3  -1   7 1644.40   87.08
  -3   1   7 1647.95   85.28
   3   1  -7 1529.02   82.43
   3  -1  -7 1549.82   83.70
  -3  -1   7 1690.47   85.69
  -3  -1   7 1650.23   82.82
   3   1  -7 1625.34   84.60
   3   1  -7 1440.64   86.82
   3  -1  -7 1759.46   85.84
  -3   1   7 1635.01   84.79
  -3  -1   7 1752.82   85.15
   3  -1  -7 1481.39   85.70
   3  -1  -6  180.66   11.09
   3   1  -6  192.15   14.01
  -3   1   6  168.58   12.07
   3  -1  -6  204.44   14.22
  -3   1   6  202.28   13.70
   3  -1  -6  170.32   11.92
  -3  -1   6  197.44   14.05
   3  -1  -6  193.43   13.47
  -3  -1   6  155.72   10.37
   3   1  -6  203.71   13.45
   3   1  -6  168.48   15.24
   3  -1  -6  177.50   14.43
  -3   1   6  193.93   13.48
  -3  -1   6  216.05   13.69
   3   1  -5 2988.53  155.40
   3  -1  -5 3229.71  155.45
   3  -1  -5 2849.10  152.35
   3   1  -5 3035.88  154.60
  -3   1   5 3125.59  154.63
  -3  -1   5 3092.87  155.31
   3  -1  -5 2765.46  153.15
  -3  -1   5 3124.22  152.03
   3  -1  -5 3069.28  154.64
   3   1  -5 2943.05  155.86
  -3   1   5 3177.62  154.61
  -3  -1   5 3163.50  154.22
   3  -1  -5 2841.68  155.13
   3   1  -4  108.33   10.14
   3  -1  -4  116.11    9.49
  -3   1   4  100.73    8.14
  -3  -1   4  107.49    9.46
   3   1  -4  105.98    8.69
   3  -1  -4   94.60    7.10
   3  -1  -4  104.01    8.49
   3   1  -4  105.71    9.84
  -3   1   4   99.44    8.84
  -3  -1   4   98.05    8.10
   3  -1  -4   95.26    9.49
   3  -1  -3 1161.70   60.45
   3   1  -3  974.47   60.30
  -3   1   3 1254.17   60.27
  -3  -1   3 1110.96   59.20
   3  -1  -3 1234.15   60.80
   3   1  -3 1160.67   60.24
  -3   1   3 1190.84   59.52
   3   1  -3 1132.26   60.13
  -3  -1   3 1124.34   60.54
   3  -1  -3 1088.42   58.67
   3  -1  -3 1231.76   59.78
   3   1  -2  210.21   15.06
   3  -1  -2  219.10   13.71
  -3   1   2  229.36   13.75
  -3  -1   2  212.20   12.59
   3   1  -2  229.82   13.31
   3  -1  -2  216.17   14.06
   3   1  -2  209.36   14.10
   3   1  -2  216.20   13.63
  -3   1   2  210.06   12.63
  -3  -1   2  208.60   14.24
   3  -1  -2  221.91   12.29
   3  -1  -2  218.22   12.74
  -3  -1   2  221.00   12.93
   3  -1  -2  197.40   11.94
   3   1  -1   12.26    3.52
   3  -1  -1   13.22    3.99
  -3   1   1   15.83    4.54
  -3  -1   1    8.99    3.23
   3   1  -1    7.89    4.01
   3  -1  -1    8.19    4.74
  -3  -1   1   10.89    4.70
   3  -1  -1   15.95    2.93
   3   1  -1    6.60    4.02
  -3   1   1   13.09    3.13
   3  -1  -1   11.28    3.10
  -3  -1   1   12.18    3.67
   3  -1  -1   12.40    3.32
   3  -1   0 1256.67   64.31
   3  -1   0 1206.22   64.39
   3  -1   0 1400.51   65.32
   3   1   0 1185.91   63.88
  -3   1   0 1225.49   65.05
   3   1   0 1217.52   64.40
   3  -1   0 1323.19   63.52
   3  -1   0 1240.98   64.29
  -3  -1   0 1368.26   66.19
  -3   1   0 1213.44   63.96
   3   1   0 1225.59   65.03
   3   1   0 1179.82   63.45
  -3  -1   0 1188.45   63.74
  -3  -1   0 1360.92   65.28
   3   1   0 1188.95   64.28
   3  -1   0 1386.82   65.11
   3   1   1  579.44   32.12
   3   1   1  596.92   32.40
   3  -1   1  596.13   33.38
   3  -1   1  613.19   32.48
  -3   1  -1  613.82   33.01
  -3   1  -1  597.41   31.64
   3  -1   1  699.56   33.55
   3   1   1  608.31   32.14
   3  -1   1  564.32   31.53
   3   1   1  669.36   33.73
  -3  -1  -1  634.01   34.61
  -3  -1  -1  608.04   32.80
   3   1   1  601.56   32.36
   3  -1   1  641.45   33.09
   3  -1   1  702.03   34.12
  -3  -1  -1  707.51   34.32
   3   1   1  611.17   32.45
   3  -1   2 1941.68   95.26
  -3   1  -2 1944.96   95.09
   3   1   2 1824.92   95.67
   3  -1   2 1805.06   97.02
   3   1   2 1768.28   94.65
  -3   1  -2 1893.11   95.67
   3  -1   2 2046.61   96.28
   3   1   2 1858.10   94.98
   3  -1   2 1675.68   94.65
   3   1   2 1931.28   96.66
  -3  -1  -2 1960.58   98.06
  -3  -1  -2 1880.90   96.53
  -3   1  -2 1830.80   96.08
   3   1   2 1880.07   96.00
   3  -1   2 1977.17   96.55
   3   1   2 1883.67   95.22
   3  -1   2 1953.79   97.30
  -3  -1  -2 2047.42   97.61
  -3   1  -3 1368.67   67.53
   3   1   3 1343.33   68.10
   3   1   3 1326.14   66.15
   3  -1   3 1255.61   69.76
  -3   1  -3 1327.32   67.32
   3  -1   3 1332.43   66.86
  -3   1  -3 1313.30   68.55
   3   1   3 1373.96   68.75
   3  -1   3 1208.75   66.83
  -3  -1  -3 1258.84   68.98
   3  -1   3 1365.77   68.77
   3   1   3 1354.49   68.65
   3  -1   3 1247.61   69.30
   3   1   3 1312.10   66.87
   3  -1   3 1245.05   66.33
  -3   1  -4  853.74   44.34
   3   1   4  864.17   44.90
   3  -1   4  792.23   46.79
   3   1   4  818.75   41.94
   3  -1   4  840.45   42.90
  -3   1  -4  814.50   43.30
   3   1   4  777.60   45.10
   3  -1   4  802.98   43.76
  -3  -1  -4  818.19   45.94
   3  -1   4  864.08   45.47
  -3   1  -4  854.89   45.45
   3   1   4  828.90   45.29
   3  -1   4  843.67   42.29
   3  -1   4  782.38   45.84
   3   1   4  853.31   43.20
  -3   1  -5 1139.70   61.68
   3   1   5 1171.86   62.35
   3  -1   5 1129.94   64.58
   3  -1   5 1129.13   59.74
  -3   1  -5 1130.30   60.14
  -3  -1  -5 1245.76   61.20
   3   1   5 1227.96   61.68
   3   1   5 1137.50   62.70
   3  -1   5 1195.82   62.86
  -3  -1  -5 1122.02   63.41
  -3   1  -5 1211.89   63.04
   3   1   5 1132.62   62.80
   3  -1   5 1126.37   63.26
  -3  -1  -5 1284.95   60.21
   3  -1   5 1113.33   59.03
   3   1   5 1216.15   60.23
   3   1   5 1220.96   59.97
   3  -1   6    1.96    8.17
  -3  -1  -6    0.80    4.33
  -3   1  -6    3.89    5.23
   3   1   6   -0.31    5.77
   3  -1   6    2.94    6.09
   3  -1   6   -0.81    2.65
  -3   1  -6    2.39    3.01
   3   1   6    1.57    5.37
   3   1   6    5.84    6.05
   3   1   6   -5.42    6.41
   3   1   6    0.30    5.77
   3  -1   6    0.33    5.59
  -3   1  -6   -5.58    6.42
  -3  -1  -6    2.19    2.92
   3   1   6    4.08    3.20
  -3  -1  -6    0.79    6.49
   3   1   6    0.60    2.88
  -3  -1  -7  100.24    8.99
  -3   1  -7   99.10    6.97
   3  -1   7   90.54   10.75
   3   1   7   99.49   11.00
   3  -1   7   78.57    6.40
  -3   1  -7   97.88    9.92
   3  -1   7  105.70   13.86
  -3  -1  -7  101.92   11.63
   3   1   7   93.13   10.12
   3  -1   7  114.58   10.75
   3   1   7   98.88   11.16
   3  -1   7   85.75    8.93
   3   1   7  102.37   11.06
  -3  -1  -7   98.08    6.80
   3   1   7   86.80    9.80
  -3  -1  -7   91.36   11.36
  -3   1  -7   87.75   10.96
   3   1   7   85.48    7.25
  -3   1  -8  465.48   28.63
  -3  -1  -8  483.08   27.78
   3  -1   8  485.99   33.33
   3   1   8  476.24   30.23
  -3   1  -8  463.26   25.66
   3  -1   8  463.64   28.47
   3   1   8  461.83   29.35
   3   1   8  462.89   29.77
   3  -1   8  473.41   28.30
   3  -1   8  489.58   29.92
  -3   1  -8  449.54   30.13
  -3  -1  -8  453.30   30.47
  -3  -1  -8  501.36   25.59
   3   1   8  440.44   28.72
  -3  -1  -8  499.35   31.08
   3  -1   8  477.74   29.89
  -3  -1  -9    8.01    6.50
  -3   1  -9   13.98    7.43
   3   1   9   14.95    9.76
  -3  -1  -9    9.91    8.89
   3  -1   9   21.34   11.81
  -3   1  -9    8.11    3.87
   3   1   9   10.12    8.13
   3  -1   9    4.79    7.15
   3  -1   9    9.04    7.13
   3   1   9   12.52    8.35
   3  -1   9   17.17    7.97
  -3  -1  -9   12.13    9.09
   3   1   9    5.67    6.70
  -3  -1  -9    9.52    3.60
   3  -1   9   15.54    8.25
   3   1  10 1331.89   69.90
   3  -1  10 1373.38   72.89
  -3   1 -10 1366.97   67.09
  -3  -1 -10 1051.04   61.44
  -3   1 -10 1460.92   63.44
  -3  -1 -10 1126.69   61.28
   3  -1  10 1326.41   67.36
   3   1  10 1272.25   68.21
   3  -1  10 1405.84   68.57
  -3  -1 -10 1368.57   69.90
   3  -1  10 1377.03   66.78
   3   1  10 1338.69   68.60
  -3  -1 -10 1395.41   62.92
   3   1  10 1309.78   66.97
  -3  -1 -10 1465.15   70.43
   3  -1  10 1386.63   68.11
   3  -1  11  207.65   22.49
  -3   1 -11  208.41   16.46
   3   1  11  184.15   19.26
  -3   1 -11  184.36   12.12
  -3  -1 -11  164.85   10.07
   3  -1  11  184.32   16.86
   3   1  11  170.27   17.64
   3  -1  11  215.57   17.61
   3  -1  11  208.94   16.35
   3   1  11  204.87   17.63
  -3  -1 -11  182.33   11.48
   3   1  11  187.61   15.99
  -3  -1 -11  186.11   18.39
   3  -1  11  202.37   16.98
   3   1  12  701.60   44.26
   3  -1  12  738.12   47.23
  -3   1 -12  724.43   35.98
  -3  -1 -12  617.60   33.91
   3   1  12  615.44   41.20
   3  -1  12  657.22   40.90
  -3  -1 -12  638.37   34.23
   3  -1  12  740.18   40.02
  -3  -1 -12  703.21   42.59
   3  -1  13  214.32   23.93
  -3  -1 -13  163.04   10.40
  -3  -1 -13  149.09    9.87
  -3   1 -13  153.07   11.73
   3   1  13  201.11   21.60
   3   1  13  170.61   18.76
   3  -1  13  207.47   17.22
  -3  -1 -13  182.13   18.81
   3  -1  14  225.28   25.73
  -3  -1 -14  121.89    9.02
  -3   1 -14  130.73   10.76
  -3  -1 -14  145.89    9.80
   3   1  14  190.10   22.50
   3   1  14  166.06   16.70
   3  -1  14  215.82   17.32
   3  -1  15  180.04   24.83
  -3  -1 -15  119.69    8.32
  -3  -1 -15   73.12    6.91
   3   1  15  155.32   22.07
   3   1  15  157.84   16.52
   3  -1  15  149.79   15.60
  -3   1 -15   67.26    8.29
   3  -1  16   15.18   19.04
   3   1  16    3.01   16.17
  -3  -1 -16   -5.59    3.69
  -3   1 -16   -1.53    4.43
  -3  -1 -16    9.10    5.03
   3   1  16    7.56   12.35
   3  -1  16   -5.54   11.54
   3  -1  17  139.89   26.05
   3   1  17  140.36   23.55
  -3  -1 -17   53.19    5.99
  -3   1 -17   39.37    6.64
   3   1  17  106.62   16.59
   3  -1  17  148.59   16.62
  -3   1 -17  152.11   19.26
   3   1  18  295.33   31.77
   3  -1  18  299.73   34.59
  -3   1 -18  325.10   27.60
   3   1  18  284.95   23.42
   3  -1  18  315.20   24.08
  -3   2  17   -6.39   15.72
  -3  -2  17   -2.22   14.07
   3  -2 -17  -17.35   17.94
   3   2 -17    7.11   15.13
  -3   2  17    6.82   12.70
   3  -2 -17  -17.18   11.48
   3   2 -17    2.05    9.60
  -3   2  16  306.04   29.95
  -3  -2  16  264.01   29.11
   3   2 -16  325.52   29.11
   3  -2 -16  252.54   29.89
  -3   2  16  374.69   28.40
   3   2 -16  281.37   23.76
   3  -2 -16  379.71   26.37
  -3  -2  16  427.82   25.25
  -3   2  15   10.50   13.75
  -3  -2  15    6.97   12.49
   3  -2 -15   -5.36   15.55
   3   2 -15    5.95   13.56
  -3   2  15   -4.42   11.93
  -3  -2  15    4.68    9.25
   3  -2 -15   25.77   11.19
   3   2 -15    3.59    8.34
  -3  -2  15   11.18    7.11
   3  -2 -14  916.45   49.31
  -3   2  14  848.01   55.80
  -3  -2  14  737.03   57.01
   3  -2 -14  804.80   56.95
   3   2 -14  915.00   56.56
  -3   2  14  931.12   54.68
  -3  -2  14 1063.50   51.67
   3   2 -14  752.00   50.37
  -3   2  14  974.21   52.69
   3  -2 -14  983.20   52.92
  -3  -2  14  879.28   48.78
  -3   2  13  113.24   17.05
  -3  -2  13  117.16   19.10
   3  -2 -13  114.09   11.02
   3   2 -13   85.29   14.55
   3   2 -13  117.39   17.83
   3  -2 -13  123.81   19.06
  -3   2  13  143.36   14.61
  -3   2  13  135.46   16.24
  -3  -2  13  154.68   13.37
   3  -2 -13  125.25   14.15
  -3  -2  13  126.17   10.86
   3   2 -13  112.63   12.24
   3  -2 -12  583.34   31.08
   3   2 -12  498.49   34.62
  -3   2  12  405.25   34.87
  -3  -2  12  600.31   40.26
   3  -2 -12  535.95   38.01
   3   2 -12  523.15   37.59
  -3  -2  12  489.40   35.52
  -3   2  12  519.48   35.48
   3  -2 -12  565.28   34.01
  -3   2  12  643.03   34.37
   3   2 -12  487.88   32.10
  -3  -2  12  638.74   33.22
  -3  -2  12  540.92   30.86
   3  -2 -11  529.00   27.78
   3   2 -11  466.10   31.63
  -3   2  11  376.93   31.77
  -3  -2  11  519.95   36.51
   3  -2 -11  434.05   33.63
   3   2 -11  505.11   34.30
  -3  -2  11  407.83   31.69
  -3  -2  11  529.07   29.61
   3  -2 -11  500.98   30.58
  -3   2  11  407.59   31.15
  -3   2  11  548.95   30.63
   3   2 -11  474.21   28.90
  -3  -2  11  505.66   27.78
  -3   2  10    2.87    8.24
   3   2 -10    0.91    8.69
   3  -2 -10    2.68    4.75
  -3  -2  10    2.21   10.92
  -3  -2  10    1.88    9.06
   3   2 -10    5.95   10.08
   3  -2 -10  -13.26   10.44
   3   2 -10   -0.36    7.16
  -3   2  10    4.58    7.72
  -3  -2  10   -0.81    6.20
   3  -2 -10    4.55    7.16
   3   2 -10    6.45    5.67
   3  -2  -9  193.23   12.36
   3   2  -9  201.64   16.96
  -3   2   9  184.56   16.00
  -3  -2   9  224.21   20.21
  -3   2   9  169.02   15.65
   3  -2  -9  182.43   14.76
   3   2  -9  195.23   13.37
  -3  -2   9  194.64   14.07
   3   2  -9  220.40   15.58
   3  -2  -9  214.91   18.02
   3   2  -9  207.83   18.72
  -3  -2   9  195.01   16.78
   3  -2  -8  672.37   36.31
   3   2  -8  621.31   37.17
  -3   2   8  604.70   35.81
  -3  -2   8  570.53   39.14
   3  -2  -8  635.10   32.61
  -3   2   8  537.33   35.82
  -3  -2   8  671.51   34.31
   3  -2  -8  589.51   34.77
   3   2  -8  610.78   35.46
   3   2  -8  543.07   38.04
  -3  -2   8  641.83   36.73
   3  -2  -8  580.25   37.09
   3   2  -7  148.25   13.73
  -3   2   7  152.11   11.40
   3  -2  -7  147.19   12.18
  -3   2   7  126.10   11.85
   3   2  -7  141.04   11.85
  -3  -2   7  154.39   10.27
   3  -2  -7  115.72   10.66
   3   2  -7  122.02   14.14
  -3  -2   7  139.50   12.50
   3  -2  -7  126.58   13.07
   3   2  -6  815.40   48.19
  -3   2   6  866.97   45.01
   3  -2  -6  894.23   46.88
   3   2  -6  750.89   48.24
  -3  -2   6  910.07   46.55
   3  -2  -6  801.06   47.24
  -3   2   6  873.65   46.71
  -3  -2   6  886.67   44.69
   3  -2  -6  778.05   45.29
   3   2  -6  845.21   46.44
   3   2  -5   51.79    9.55
  -3  -2   5   49.97    6.76
   3  -2  -5   51.40    8.41
   3  -2  -5   66.06    7.77
  -3   2   5   63.49    8.18
   3   2  -5   55.24    8.78
  -3   2   5   66.66    7.17
  -3  -2   5   71.68    5.11
   3   2  -5   58.96    7.36
   3  -2  -5   48.09    6.26
   3  -2  -4  430.60   24.14
   3   2  -4  401.69   25.84
   3   2  -4  379.36   24.83
  -3  -2   4  420.74   22.74
   3  -2  -4  429.67   24.80
  -3   2   4  426.25   24.80
  -3   2   4  451.52   23.27
   3   2  -4  424.27   24.14
   3  -2  -4  410.83   23.06
   3  -2  -4  360.58   21.30
   3   2  -4  465.83   23.97
   3  -2  -3   15.52    3.27
   3   2  -3   12.94    6.87
   3  -2  -3   15.76    6.21
   3  -2  -3   24.02    5.33
   3   2  -3   23.04    5.97
  -3  -2   3   23.25    3.81
   3  -2  -3   21.03    4.75
  -3   2   3   19.39    3.79
   3   2  -3   15.64    4.98
   3   2  -3   19.61    4.84
  -3  -2   3   18.55    2.82
   3   2  -2  185.97   15.00
   3  -2  -2  191.45   12.26
   3   2  -2  169.86   12.06
  -3  -2   2  176.14   10.43
   3  -2  -2  224.56   13.65
  -3   2   2  168.83   10.41
   3   2  -2  199.62   13.00
  -3  -2   2  175.26   13.68
  -3  -2   2  195.86   10.53
   3   2  -2  196.19   12.07
   3  -2  -2  157.44   11.18
   3  -2  -1  968.32   48.02
   3   2  -1  972.86   47.27
   3  -2  -1 1052.91   49.17
   3  -2  -1  939.71   47.71
   3   2  -1  983.02   48.97
  -3   2   1  800.97   45.97
  -3  -2   1  904.36   49.60
  -3  -2   1 1000.75   47.10
   3   2  -1  970.79   47.89
   3  -2  -1  793.48   47.75
   3  -2   0  272.12   18.38
   3  -2   0  346.19   19.49
   3  -2   0  406.22   20.94
   3   2   0  369.20   18.24
  -3  -2   0  362.63   19.46
   3   2   0  342.32   20.62
   3  -2   0  342.51   19.63
  -3  -2   0  374.48   22.07
   3   2   0  333.82   19.37
   3  -2   0  315.02   20.11
   3  -2   1 1876.00   90.00
  -3   2  -1 1816.91   89.35
   3  -2   1 1710.73   90.55
  -3   2  -1 1759.83   90.33
   3  -2   1 1978.53   91.16
   3   2   1 1617.31   88.39
  -3  -2  -1 1808.75   90.64
   3   2   1 1784.01   91.42
  -3  -2  -1 1853.83   92.93
   3   2   1 1722.80   89.70
   3  -2   1 1816.03   90.56
   3   2   1 1751.41   89.81
  -3  -2  -1 1807.14   90.86
   3  -2   1 1714.08   91.40
   3   2   2 3324.74  173.62
  -3   2  -2 3583.51  173.76
   3  -2   2 3599.73  175.37
  -3   2  -2 3456.01  173.80
   3  -2   2 3543.14  173.40
   3   2   2 3469.24  172.71
   3  -2   2 3651.57  174.55
   3   2   2 3217.18  172.14
   3   2   2 3308.22  172.62
  -3  -2  -2 3636.60  175.04
   3   2   2 3515.53  175.14
  -3  -2  -2 3528.31  176.95
   3  -2   2 3478.26  174.46
   3   2   2 3415.23  173.87
   3   2   2 3305.34  173.25
  -3  -2  -2 3539.45  174.82
   3  -2   2 3479.83  175.54
  -3   2  -3  586.76   32.37
   3  -2   3  633.21   34.57
   3   2   3  594.08   32.01
   3  -2   3  599.30   31.23
  -3   2  -3  583.16   31.60
   3   2   3  541.45   29.92
   3   2   3  576.41   29.84
   3   2   3  600.98   31.49
   3  -2   3  607.64   32.82
  -3  -2  -3  628.98   33.81
   3   2   3  587.24   33.40
   3   2   3  623.18   32.52
   3  -2   3  596.30   33.96
  -3  -2  -3  630.95   31.44
   3   2   4 1706.40   90.55
  -3   2  -4 1617.47   91.01
   3  -2   4 1820.78   93.74
   3  -2   4 1735.07   89.36
  -3   2  -4 1704.56   89.79
   3   2   4 1746.77   90.52
   3  -2   4 1901.27   91.65
  -3  -2  -4 1815.17   92.57
  -3   2  -4 1783.41   91.63
   3   2   4 1678.18   91.92
   3   2   4 1754.09   91.22
   3  -2   4 1674.20   88.83
  -3  -2  -4 1885.14   89.72
   3   2   4 1761.36   89.77
   3  -2   4 1741.15   92.52
   3   2   4 1771.50   89.42
   3  -2   5   25.94    8.50
   3   2   5   15.16    5.46
  -3   2  -5   17.10    6.09
   3  -2   5   23.18    6.59
   3  -2   5   16.46    3.53
  -3   2  -5   10.49    3.75
   3   2   5   18.74    5.96
   3   2   5   12.46    6.65
   3  -2   5   13.96    3.71
   3   2   5   14.39    3.75
  -3  -2  -5   14.54    6.81
   3  -2   5   10.94    5.76
  -3  -2  -5   14.43    3.88
  -3   2  -5    7.12    5.98
   3   2   5   15.97    4.29
   3   2   5   18.00    6.42
  -3   2  -6  486.57   27.33
   3   2   6  527.70   29.52
   3  -2   6  478.24   26.79
  -3   2  -6  472.99   29.72
   3  -2   6  507.50   33.22
   3   2   6  477.49   29.60
  -3   2  -6  509.63   30.35
  -3  -2  -6  543.31   31.39
   3   2   6  515.99   30.70
   3   2   6  520.74   30.06
   3  -2   6  530.83   29.94
   3  -2   6  473.83   27.53
  -3  -2  -6  541.21   27.26
   3  -2   6  489.10   30.59
   3   2   6  492.97   27.63
   3   2   6  480.87   26.93
   3  -2   7   19.78   10.02
   3   2   7   24.18    7.51
  -3   2  -7   34.42    7.84
  -3  -2  -7   30.42    8.07
   3  -2   7   44.65    8.81
   3  -2   7   20.50    4.25
  -3   2  -7   19.99    4.42
   3   2   7   17.10    7.64
   3   2   7   28.35    8.10
   3  -2   7   16.86    5.11
   3   2   7   25.86    7.74
   3  -2   7   25.00    7.28
  -3   2  -7   19.27    7.96
  -3  -2  -7   31.57    4.66
   3   2   7   21.72    4.90
  -3  -2  -7   26.71    8.20
   3   2   8  193.55   16.08
  -3   2  -8  203.29   16.23
   3  -2   8  212.97   20.49
  -3   2  -8  208.80   13.06
   3  -2   8  176.44   12.28
   3   2   8  215.99   16.88
   3   2   8  197.56   17.43
  -3  -2  -8  210.94   17.64
   3  -2   8  204.77   16.04
   3   2   8  219.21   16.79
   3  -2   8  185.53   14.07
  -3  -2  -8  215.03   12.85
   3  -2   8  217.97   17.02
  -3  -2  -8  226.33   17.51
   3   2   8  197.86   13.55
  -3   2  -9  708.04   41.42
   3   2   9  714.94   41.83
   3  -2   9  656.03   45.58
   3  -2   9  637.45   37.23
  -3   2  -9  728.06   37.95
   3   2   9  741.37   42.17
   3  -2   9  709.06   40.70
   3  -2   9  672.44   39.35
   3   2   9  713.36   43.40
  -3  -2  -9  708.21   42.92
   3  -2   9  675.84   41.01
   3   2   9  695.63   41.70
  -3  -2  -9  709.26   42.33
   3  -2   9  683.08   41.69
  -3  -2  -9  757.94   37.70
   3  -2  10   63.97   15.60
  -3   2 -10   55.96   10.60
   3   2  10   37.89   11.01
   3  -2  10   31.29    9.74
  -3  -2 -10   43.61   10.57
  -3   2 -10   42.28    6.31
   3   2  10   39.12   10.99
   3  -2  10   29.08    9.11
   3  -2  10   49.67    8.64
   3  -2  10   42.73    9.81
   3   2  10   35.87   10.07
  -3  -2 -10   40.39   11.32
  -3  -2 -10   50.37    5.99
  -3   2 -11 1402.27   75.37
   3   2  11 1417.94   77.07
   3  -2  11 1318.67   81.32
  -3   2 -11 1396.45   71.73
   3   2  11 1351.05   76.08
   3  -2  11 1299.09   74.97
   3  -2  11 1398.43   75.72
  -3  -2 -11 1410.25   77.60
   3   2  11 1330.80   75.91
   3  -2  11 1296.82   73.74
  -3  -2 -11 1374.72   76.88
   3  -2  12  107.99   19.83
  -3   2 -12   94.10    9.34
   3   2  12  101.32   15.76
  -3  -2 -12   98.75   14.57
   3   2  12   97.64   14.48
   3  -2  12  105.64   12.43
   3  -2  13  544.50   41.18
  -3   2 -13  440.26   27.67
   3   2  13  487.73   35.14
   3   2  13  484.31   33.25
   3  -2  13  495.45   31.12
  -3  -2 -13  487.78   33.79
   3  -2  14   86.78   21.20
   3   2  14  108.14   17.88
  -3  -2 -14   98.32   15.51
   3  -2  14   90.40   13.37
  -3   2 -14   67.35    8.67
   3  -2  15  -16.75   19.35
   3   2  15    8.80   14.78
  -3  -2 -15   21.06   12.36
  -3   2 -15    4.06    5.26
  -3  -2 -15    1.90    2.18
  -3  -2 -15    2.78    1.98
   3   2  15   12.00   11.56
   3  -2  15    1.05   10.12
   3  -2  16   47.98   21.46
   3   2  16   61.71   18.42
  -3  -2 -16   35.45   13.62
  -3  -2 -16   10.08    2.72
  -3   2 -16    3.37    4.87
  -3  -2 -16   22.48    3.12
   3   2  16   30.16   12.98
   3  -2  16   37.63   12.52
  -3   2 -16   21.80   14.46
   3  -2  17   99.46   25.63
   3   2  17  111.32   21.12
   3   2  17  107.97   16.58
   3  -2  17  125.62   16.04
  -3   2 -17  118.48   18.68
   3  -2  18   34.65   23.38
   3   2  18   13.04   18.38
  -3   2 -18   -0.33    5.75
   3   2  18    3.94   13.75
   3  -2  18   -0.61   12.65
  -3   2 -18   13.62   15.53
  -3  -3  17   83.82   22.26
  -3   3  17  171.43   23.08
   3  -3 -17  110.26   22.00
  -3   3  17  181.41   20.22
   3  -3 -17  153.01   17.98
  -3   3  16   -2.34   14.38
  -3  -3  16    7.62   15.57
   3  -3 -16  -10.57   16.63
  -3   3  16   10.42   13.26
   3  -3 -16   11.16   11.35
   3   3 -16   13.39    8.87
  -3   3  15  456.72   33.41
  -3  -3  15  347.44   35.71
   3  -3 -15  301.46   33.41
  -3   3  15  443.47   31.49
   3  -3 -15  418.93   29.74
  -3  -3  15  458.28   27.79
  -3  -3  15  407.56   25.79
  -3   3  14   18.60   12.93
  -3  -3  14   26.17   15.99
  -3  -3  14   33.66    8.11
   3  -3 -14   38.02   16.87
  -3   3  14   44.08   12.79
  -3  -3  14   17.21    8.67
   3  -3 -14   26.48   11.37
  -3   3  13  673.46   42.53
  -3  -3  13  669.45   48.83
   3  -3 -13  619.57   44.27
   3   3 -13  660.94   43.03
  -3  -3  13  676.03   38.59
   3  -3 -13  623.14   40.04
  -3   3  13  682.68   41.99
  -3  -3  13  632.81   37.17
   3   3 -12  221.54   20.84
  -3   3  12  221.13   20.28
  -3  -3  12  276.18   27.28
   3  -3 -12  224.97   23.04
   3   3 -12  219.59   21.12
  -3  -3  12  178.81   21.01
  -3  -3  12  239.70   17.34
   3  -3 -12  239.48   19.12
  -3   3  12  219.84   20.32
   3   3 -11   99.74   14.38
  -3   3  11   95.89   13.62
  -3  -3  11  130.95   19.78
   3   3 -11   94.02   14.49
  -3  -3  11  113.07   14.87
   3  -3 -11   98.91   15.83
  -3   3  11  121.90   14.21
   3  -3 -11  100.41   12.66
  -3  -3  11  109.16   11.06
  -3   3  10  353.20   25.50
   3   3 -10  370.94   27.28
  -3  -3  10  406.92   31.82
   3   3 -10  381.68   27.15
   3  -3 -10  398.92   27.86
  -3  -3  10  304.17   26.29
   3  -3 -10  374.31   24.73
  -3  -3  10  424.32   23.71
  -3   3  10  344.01   25.78
   3   3  -9  147.94   16.46
  -3   3   9  149.88   14.15
  -3  -3   9  196.69   19.98
   3   3  -9  143.48   15.64
  -3  -3   9  133.96   15.18
   3  -3  -9  186.94   17.10
  -3   3   9  159.86   14.98
   3   3  -9  179.50   14.58
  -3  -3   9  175.62   12.53
   3  -3  -9  167.00   14.05
   3  -3  -9  158.95    9.93
  -3   3   8  118.98   11.77
   3   3  -8  156.46   15.51
   3   3  -8  106.12   13.04
  -3  -3   8  133.36   13.69
   3  -3  -8  124.33   14.04
   3   3  -8  142.25   12.52
  -3   3   8  119.07   12.50
  -3  -3   8  147.19   10.52
   3  -3  -8  146.53   12.10
   3  -3  -8  128.30    8.28
   3  -3  -7  582.22   28.81
  -3   3   7  448.97   26.69
   3   3  -7  494.92   31.27
   3   3  -7  369.42   27.97
   3  -3  -7  495.90   29.66
  -3  -3   7  506.55   29.02
   3   3  -7  514.22   28.34
  -3  -3   7  504.71   26.06
   3  -3  -7  471.82   27.33
  -3   3   7  392.70   27.63
   3  -3  -7  425.77   24.18
  -3   3   6   49.34    5.99
   3   3  -6   38.87   10.62
   3  -3  -6   39.20    9.12
   3  -3  -6   54.64    7.95
  -3  -3   6   49.84    8.18
  -3   3   6   45.09    8.34
   3   3  -6   22.47    7.14
  -3   3   6   34.91    6.91
   3   3  -6   50.68    7.81
  -3  -3   6   51.60    5.65
   3   3  -6   41.53    7.39
   3  -3  -6   45.38    7.42
  -3   3   5  752.93   42.19
   3   3  -5  872.07   48.64
   3  -3  -5  862.67   44.88
   3   3  -5  721.09   44.32
   3  -3  -5  806.17   45.64
  -3  -3   5  879.59   44.13
  -3   3   5  860.81   45.68
   3   3  -5  842.80   45.19
  -3  -3   5  811.74   42.72
   3  -3  -5  823.79   44.35
  -3   3   5  804.45   44.42
   3   3  -5  860.30   44.49
   3   3  -4   14.86    7.32
   3  -3  -4   17.70    7.06
  -3  -3   4   23.63    4.78
   3  -3  -4   22.42    5.85
   3   3  -4   17.76    5.13
  -3   3   4   22.84    6.55
  -3   3   4   26.57    5.23
   3   3  -4   19.69    6.05
  -3  -3   4   29.12    4.14
   3   3  -4   25.53    5.56
   3  -3  -4   16.95    6.05
  -3   3   3  261.38   17.55
   3   3  -3  253.76   20.11
   3  -3  -3  266.76   16.88
   3  -3  -3  255.90   18.01
  -3  -3   3  248.56   14.85
   3   3  -3  275.97   17.88
  -3  -3   3  268.46   15.66
  -3  -3   3  280.75   15.45
  -3   3   3  275.14   15.86
   3   3  -3  291.27   16.92
   3   3  -2   61.38   10.46
   3  -3  -2   53.59    6.77
   3  -3  -2   78.95    8.73
  -3   3   2   71.49    5.20
  -3  -3   2   69.13    6.23
   3   3  -2   62.76    8.05
   3   3  -2   68.68    7.02
   3  -3  -1   -0.57    4.09
   3  -3  -1   -0.79    6.17
   3   3  -1    0.93    3.72
   3   3  -1    2.84    5.35
  -3  -3   1    3.31    3.73
   3   3  -1   -0.18    4.27
  -3   3   0  928.17   54.94
   3  -3   0 1091.65   55.33
   3   3   0 1084.88   54.52
   3  -3   0 1107.81   56.63
   3  -3   0 1051.12   55.84
   3   3   0 1085.45   56.98
  -3  -3   0 1084.83   55.34
   3   3   0 1011.95   55.15
  -3   3  -1  954.51   55.98
   3   3   1 1118.63   54.45
   3  -3   1 1074.30   55.42
   3  -3   1 1082.86   56.72
   3   3   1 1098.96   57.64
   3  -3   1 1072.48   56.37
  -3  -3  -1 1140.89   56.26
  -3   3  -2  914.59   51.27
   3   3   2  926.51   48.46
   3  -3   2  833.99   51.51
   3  -3   2  989.74   49.86
  -3   3  -2  965.71   50.32
   3  -3   2  961.92   51.13
   3   3   2  937.52   51.94
  -3  -3  -2 1011.92   51.27
   3  -3   2  948.38   51.12
  -3  -3  -2  973.36   49.84
  -3   3  -3 2032.82  103.35
   3   3   3 1867.25   99.36
   3  -3   3 2095.93  104.51
   3  -3   3 2045.06  100.96
  -3   3  -3 1978.20  101.41
   3   3   3 1953.99  101.61
   3  -3   3 2002.86  102.22
   3   3   3 1926.44  103.32
   3   3   3 1994.83  102.14
   3  -3   3 2096.45  102.74
  -3  -3  -3 2125.48  103.13
  -3  -3  -3 2161.63  101.20
   3   3   3 1987.68  101.36
   3   3   3 2019.04  100.92
   3  -3   3 1828.08  100.21
  -3   3  -4  150.66   12.50
  -3   3  -4  138.49    9.73
   3  -3   4  154.11    9.28
   3  -3   4  135.57   13.43
   3   3   4  131.07   10.31
   3   3   4  110.91    6.74
   3   3   4  128.37    8.13
   3  -3   4  122.80    7.36
   3   3   4  140.43   12.31
   3  -3   4  134.76   11.06
   3   3   4  141.37   11.32
  -3  -3  -4  135.85   11.92
  -3  -3  -4  137.88    9.36
   3   3   4  140.52    9.77
   3  -3   4  126.83    7.53
   3   3   4  140.13    9.14
  -3   3  -5  863.99   41.89
  -3   3  -5  908.46   45.25
   3  -3   5  876.21   41.25
   3  -3   5  970.47   47.88
   3   3   5  848.07   42.71
   3   3   5  804.78   41.14
  -3  -3  -5  873.24   44.83
   3  -3   5  792.71   40.27
   3  -3   5  891.58   43.80
   3   3   5  850.82   44.86
   3   3   5  933.31   44.13
  -3  -3  -5  922.85   41.69
   3   3   5  848.90   42.06
   3   3   5  853.62   41.34
   3  -3   5  894.95   45.07
   3  -3   6    6.52    9.13
   3   3   6    8.23    6.24
  -3   3  -6    9.52    7.90
   3  -3   6    4.52    6.81
   3  -3   6    4.06    4.11
  -3   3  -6    1.73    4.52
   3   3   6    9.69    5.75
   3   3   6    3.34    7.23
   3  -3   6    4.95    3.75
  -3  -3  -6   14.33    7.84
  -3  -3  -6    1.38    6.69
   3  -3   6    8.64    6.32
   3   3   6    0.82    4.11
  -3   3  -6   13.32    6.98
  -3  -3  -6    2.89    4.25
   3   3   6    8.57    4.87
   3   3   6   -3.28    6.95
   3  -3   7  124.72    9.78
  -3   3  -7  140.71   14.15
   3  -3   7  159.15   17.29
  -3   3  -7  135.58   10.36
   3   3   7  152.46   12.47
   3   3   7  126.68   11.43
   3  -3   7  126.52    9.94
   3   3   7  143.95   14.30
   3   3   7  141.70   13.15
  -3  -3  -7  148.17   14.12
   3  -3   7  128.85   12.52
  -3  -3  -7  151.96   10.31
   3   3   7  131.04   10.77
  -3  -3  -7  143.97   13.14
   3  -3   7  134.42   13.38
   3   3   8  187.90   14.74
  -3   3  -8  177.84   16.15
   3  -3   8  151.99   18.92
  -3   3  -8  151.88   11.95
   3  -3   8  158.84   11.49
   3   3   8  144.31   13.59
   3  -3   8  177.88   12.42
  -3  -3  -8  182.70   16.59
   3   3   8  184.03   16.85
   3   3   8  190.84   15.42
   3  -3   8  192.53   15.08
  -3  -3  -8  180.46   11.98
   3   3   8  172.87   12.99
   3  -3   8  174.40   15.43
  -3  -3  -8  152.11   15.03
   3   3   9  159.85   14.48
  -3   3  -9  159.25   15.47
   3  -3   9  127.08   18.13
  -3   3  -9  148.50   11.38
   3  -3   9  139.42   10.48
   3   3   9  138.72   13.40
   3  -3   9  135.65   11.62
   3   3   9  148.50   16.11
   3  -3   9  143.66   13.86
   3   3   9  124.03   14.23
  -3  -3  -9  140.28   15.27
  -3  -3  -9  144.91   10.80
   3  -3   9  165.86   15.05
  -3  -3  -9  162.17   15.11
   3   3  10 1088.37   57.72
  -3   3 -10 1008.69   57.90
   3  -3  10 1014.02   63.42
  -3   3 -10 1063.21   54.32
   3  -3  10  970.06   53.21
   3  -3  10  978.34   56.68
   3   3  10  970.42   56.22
   3  -3  10  921.45   54.68
  -3  -3 -10 1031.19   58.99
   3   3  10 1030.30   60.20
   3  -3  10 1017.65   56.99
   3   3  10 1039.91   57.77
  -3  -3 -10 1014.94   58.07
   3  -3  11   13.84   14.55
   3   3  11   11.49   10.53
  -3   3 -11    9.73   10.24
  -3  -3 -11   19.22   10.61
  -3   3 -11   10.41    6.39
   3   3  11    8.47    9.75
   3  -3  11   17.69    7.65
  -3  -3 -11   17.58   10.83
   3   3  12  782.95   46.82
   3  -3  12  681.53   52.14
  -3   3 -12  768.89   42.05
   3   3  12  763.61   44.91
   3  -3  12  704.33   43.25
  -3  -3 -12  728.21   47.07
  -3  -3 -12  793.03   46.92
   3  -3  13   99.06   21.67
  -3  -3 -13  104.00   15.17
   3   3  13  114.18   16.81
  -3   3 -13   93.40   10.34
   3   3  13  127.05   14.79
   3  -3  13   83.19   12.02
  -3  -3 -13   86.30   15.38
   3  -3  14   67.11   20.95
   3   3  14   67.92   15.89
  -3  -3 -14   79.89   14.68
  -3   3 -14   54.01    8.84
   3  -3  14   82.83   12.30
   3  -3  15   57.20   20.62
   3   3  15   37.71   15.71
  -3  -3 -15   59.60   14.44
  -3   3 -15   24.19    7.25
   3  -3  15   52.85   11.62
  -3   3 -15   22.90   13.29
   3  -3  16   24.75   21.91
  -3  -3 -16   32.30   13.91
   3   3  16   35.56   16.42
  -3   3 -16    2.15    5.42
   3  -3  16   20.89   11.17
  -3   3 -16   -2.58   13.63
   3  -3  17   47.17   22.89
  -3  -3 -17   20.39   13.97
   3   3  17    9.75   17.35
  -3   3 -17   -4.10    6.02
   3   3  17    5.93   13.27
   3  -3  17   17.42   11.77
  -3   3 -17   11.64   14.37
  -3   4  16  255.07   24.03
  -3  -4  16  159.74   26.88
   3   4 -16  175.82   19.46
   3  -4 -16  191.79   26.04
  -3   4  16  183.85   21.85
  -3  -4  16  199.60   23.18
   3   4 -16  219.16   18.38
   3  -4 -16  202.89   20.93
  -3   4  15   28.33   13.84
  -3  -4  15   19.98   18.76
  -3  -4  15   21.77    8.38
   3  -4 -15   21.25   17.04
   3   4 -15   37.03   11.83
  -3   4  15   18.96   13.17
  -3  -4  15   29.50   14.34
   3  -4 -15   26.57   12.06
   3   4 -15   29.90    9.96
  -3   4  14  208.38   20.51
  -3  -4  14  215.68   27.79
   3   4 -14  183.86   18.87
   3  -4 -14  186.27   24.11
  -3  -4  14  259.97   23.53
  -3  -4  14  196.94   16.74
  -3   4  14  252.81   21.60
   3   4 -14  184.08   17.13
  -3  -4  14  194.62   16.01
   3  -4 -14  186.55   19.52
  -3   4  13   72.04   13.54
  -3  -4  13   60.49   19.02
   3  -4 -13   73.28   16.97
   3   4 -13   67.70   12.51
  -3   4  13   57.65   13.82
  -3  -4  13   82.15   14.99
   3  -4 -13   61.87   12.58
  -3  -4  13   60.33   10.20
   3   4 -13   62.56   10.73
  -3  -4  12   38.76   17.89
  -3   4  12   41.87   11.69
   3  -4 -12   43.07    6.40
  -3  -4  12   22.19   13.12
   3  -4 -12   63.65   15.17
   3   4 -12   42.97   10.65
  -3   4  12   36.79   11.78
  -3  -4  12   62.87   13.83
  -3  -4  12   52.67    8.93
   3   4 -12   57.37   10.41
   3  -4 -12   60.90   11.70
  -3   4  11   95.51   12.69
  -3  -4  11   58.98   14.56
   3  -4 -11  104.04   16.03
   3   4 -11   77.94   12.26
  -3   4  11   86.68   13.32
  -3  -4  11  109.21   14.80
   3  -4 -11   76.98   12.11
  -3  -4  11   84.48    9.97
   3  -4 -11   84.89    7.72
   3   4 -11   86.46   11.05
  -3   4  10   12.83    8.51
   3   4 -10    3.80   11.36
   3  -4 -10    5.23    4.60
  -3  -4  10   -3.25   10.08
   3  -4 -10    9.59   11.15
   3   4 -10    4.95    7.95
  -3   4  10   -6.48    8.91
  -3  -4  10    2.87    9.85
  -3  -4  10    1.93    6.02
   3   4 -10   -4.73    7.47
   3  -4 -10    4.03    8.24
   3   4  -9  124.50   16.10
  -3   4   9  100.13   11.38
   3  -4  -9  104.25   14.16
  -3  -4   9   65.19   12.57
   3   4  -9   75.64   11.55
  -3   4   9  114.53   12.97
  -3  -4   9   99.59    9.55
  -3  -4   9  104.25   13.91
   3  -4  -9  114.00   12.31
   3   4  -9   98.91   10.92
   3  -4  -9   97.68    7.82
  -3   4   8  430.78   24.73
   3   4  -8  457.05   30.84
   3   4  -8  360.93   25.71
  -3   4   8  442.83   26.26
  -3   4   8  441.19   26.70
   3  -4  -8  388.39   27.37
  -3  -4   8  436.72   28.21
   3   4  -8  467.95   26.54
   3  -4  -8  415.46   25.88
  -3  -4   8  441.89   24.05
  -3   4   8  397.28   26.42
   3  -4  -8  367.18   21.98
  -3   4   7  314.84   19.04
   3   4  -7  361.86   25.89
   3   4  -7  297.28   20.86
  -3  -4   7  279.69   18.60
   3   4  -7  332.12   21.26
  -3  -4   7  318.81   22.84
   3  -4  -7  299.00   20.85
  -3   4   7  318.13   21.45
  -3  -4   7  259.63   21.43
  -3   4   7  324.99   21.19
   3  -4  -7  307.74   22.74
  -3   4   7  312.44   21.56
  -3   4   6 1339.12   71.53
   3   4  -6 1522.29   79.33
   3  -4  -6 1495.38   73.98
   3   4  -6 1385.76   73.90
  -3   4   6 1359.48   73.92
  -3   4   6 1451.94   74.78
   3  -4  -6 1415.22   75.32
  -3  -4   6 1371.45   74.21
   3   4  -6 1401.77   74.50
  -3  -4   6 1349.06   72.17
   3  -4  -6 1378.01   74.03
  -3   4   6 1285.99   73.85
   3   4  -5    3.71   10.55
  -3   4   5   -0.97    5.18
  -3   4   5    1.80    3.61
   3  -4  -5    3.65    8.49
   3  -4  -5   -9.31    6.64
   3   4  -5   -9.88    6.73
  -3   4   5   -3.65    7.36
  -3  -4   5   -4.66    6.36
  -3   4   5   -3.76    7.42
  -3   4   5    1.40    5.94
   3   4  -5   -0.68    6.82
  -3  -4   5    4.52    4.84
   3   4  -5   -6.08    6.63
   3  -4  -5   -3.39    7.43
  -3   4   4  794.41   43.02
   3  -4  -4  882.55   45.89
  -3   4   4  799.13   44.90
   3   4  -4  744.06   48.71
  -3   4   4  885.63   46.71
   3   4  -4  887.71   45.69
  -3   4   4  835.62   46.20
   3  -4  -4  902.71   47.52
  -3  -4   4  902.00   44.60
   3   4  -4  889.21   47.06
   3  -4  -4  863.56   46.67
  -3  -4   4  877.79   44.81
  -3   4   4  696.61   45.02
   3   4  -4  858.59   45.67
  -3   4   3  105.10    6.53
   3  -4  -3  111.23    9.48
  -3   4   3  114.21    9.54
  -3   4   3   96.35    9.85
   3   4  -3   91.27   13.69
   3   4  -3  105.78    9.26
  -3   4   3  109.50   10.29
  -3  -4   3  115.51    7.10
   3  -4  -3  108.62   11.35
   3   4  -3  122.80   11.41
  -3   4   3  108.15    8.62
  -3   4   3   72.10    8.11
   3   4  -3  122.00    9.78
   3  -4  -2  104.62    9.10
   3   4  -2  107.98    8.45
  -3   4   2  100.85    9.22
   3   4  -2  107.54   13.93
  -3   4   2   94.65    9.37
  -3   4   2   99.76   10.03
   3  -4  -2   97.63   10.81
   3   4  -2  107.58   10.71
  -3   4   2   95.50    7.22
  -3  -4   2   99.79    8.70
  -3   4   2   83.68    7.38
   3   4  -2   96.69    8.85
   3   4  -1  265.64   12.00
  -3   4   1  317.76   14.70
   3  -4  -1  264.52   12.86
   3  -4  -1  273.07   15.16
   3   4  -1  280.10   15.25
  -3  -4   1  280.37   13.23
  -3   4   1  257.49   10.22
   3   4  -1  271.32   12.93
  -3   4   0   40.87    7.45
   3   4   0   27.91    4.63
   3  -4   0   31.03    5.79
   3  -4   0   40.87    8.34
   3   4   0   39.17    7.77
   3  -4   0   21.52    5.71
   3  -4   0   34.48    6.35
  -3  -4   0   34.80    6.29
   3   4   1  453.35   25.21
  -3   4  -1  535.78   29.22
   3  -4   1  486.27   26.68
   3  -4   1  521.61   28.53
   3   4   1  502.44   29.35
  -3  -4  -1  484.53   27.51
   3  -4   1  470.14   27.82
   3   4   1  437.49   26.22
   3  -4   1  447.12   26.59
  -3   4  -2  320.02   21.01
   3   4   2  292.44   16.23
   3  -4   2  267.85   20.10
   3  -4   2  296.75   17.78
   3  -4   2  303.37   19.65
   3   4   2  317.39   20.86
   3  -4   2  306.69   19.47
  -3  -4  -2  311.73   19.38
   3   4   2  310.21   18.47
   3  -4   2  262.77   17.13
   3   4   2  302.46   17.70
  -3   4  -3  656.21   36.20
   3  -4   3  607.45   32.53
  -3   4  -3  587.05   33.05
   3  -4   3  473.48   34.76
   3   4   3  572.76   30.85
   3  -4   3  606.17   34.20
   3  -4   3  632.20   34.66
   3   4   3  605.04   35.42
  -3  -4  -3  627.16   34.55
  -3  -4  -3  629.00   32.75
   3   4   3  595.71   33.20
   3  -4   3  572.83   31.53
   3   4   3  623.09   32.61
   3   4   4  438.80   23.85
  -3   4  -4  452.77   26.92
  -3   4  -4  416.60   23.35
   3  -4   4  433.89   22.72
   3  -4   4  385.11   26.33
   3   4   4  390.72   20.73
   3  -4   4  407.08   24.35
   3   4   4  406.21   25.98
   3  -4   4  364.76   20.86
   3  -4   4  427.29   24.91
  -3  -4  -4  395.70   25.04
  -3  -4  -4  441.22   23.06
   3  -4   4  370.55   20.99
   3   4   4  421.74   23.63
   3  -4   4  356.95   20.84
   3   4   4  410.24   22.78
   3  -4   5   86.44    7.37
   3   4   5   84.85    9.20
   3  -4   5   85.28   12.97
   3   4   5   65.74    4.62
  -3   4  -5   77.64   11.55
  -3   4  -5   75.49    7.96
   3   4   5   64.70    5.56
   3   4   5   81.83   11.16
   3  -4   5   60.63    5.91
   3   4   5   77.60    9.87
  -3  -4  -5   80.16   10.32
  -3  -4  -5   79.40    7.58
   3  -4   5   84.51    9.71
   3   4   5   79.14    8.28
   3   4   5   77.21    7.39
   3   4   6  368.55   22.43
  -3   4  -6  345.87   21.41
   3  -4   6  353.13   20.66
  -3   4  -6  364.62   25.60
   3  -4   6  396.86   28.10
   3   4   6  320.82   19.69
   3  -4   6  335.35   19.97
   3  -4   6  373.53   23.41
   3   4   6  354.14   24.63
   3   4   6  378.43   23.71
  -3  -4  -6  362.24   24.13
  -3  -4  -6  391.44   21.32
  -3  -4  -6  342.84   22.88
   3   4   6  360.45   22.07
   3   4   6  353.04   20.88
   3  -4   7  106.55    9.29
   3  -4   7  110.52   16.57
  -3   4  -7  107.05    9.84
   3   4   7  100.86   10.95
  -3   4  -7  113.91   14.29
   3   4   7  110.77    9.00
   3   4   7  112.48   13.81
   3  -4   7  110.53    8.89
  -3  -4  -7  109.39   13.13
  -3  -4  -7  114.32    9.56
   3  -4   7  109.39   11.67
   3   4   7  101.35   10.39
  -3  -4  -7   95.89   11.42
   3   4   7  122.17   12.92
   3  -4   8   -5.69   11.81
   3   4   8   12.55    7.82
  -3   4  -8   16.90    9.96
   3  -4   8    6.58    8.03
  -3   4  -8    5.12    5.85
   3   4   8    8.58    6.24
   3  -4   8    3.20    5.27
   3   4   8    3.86    9.47
   3  -4   8    4.16    5.30
   3  -4   8    7.79    7.59
  -3  -4  -8    2.50    8.09
   3   4   8   17.11    9.18
  -3  -4  -8    0.49    8.77
  -3  -4  -8    0.45    5.40
   3   4   8    1.27    6.34
   3   4   9  551.72   33.57
  -3   4  -9  485.52   35.26
   3  -4   9  563.91   40.52
  -3   4  -9  533.00   31.46
   3  -4   9  544.64   30.47
   3   4   9  478.22   31.09
   3  -4   9  550.75   31.29
  -3  -4  -9  501.59   34.90
   3   4   9  565.11   36.73
   3   4   9  608.15   35.15
  -3  -4  -9  622.58   31.43
  -3  -4  -9  512.22   33.79
   3  -4  10   63.05   16.90
   3   4  10   78.63   12.01
  -3   4 -10   62.11   13.13
  -3   4 -10   63.68    8.97
   3   4  10   58.16    9.63
   3  -4  10   47.32    7.58
   3  -4  10   59.32    9.09
  -3  -4 -10   59.34   13.01
  -3  -4 -10   87.64   12.34
   3   4  11  438.59   28.69
   3  -4  11  408.42   36.21
  -3   4 -11  421.08   25.18
   3   4  11  349.51   25.50
   3  -4  11  391.60   25.54
  -3  -4 -11  404.57   29.57
  -3  -4 -11  402.45   28.53
   3  -4  12   91.16   20.39
   3   4  12   88.62   14.67
  -3  -4 -12   94.15   14.53
  -3   4 -12   95.95   10.86
   3   4  12   81.49   12.27
   3  -4  12   93.07   11.84
  -3  -4 -12   90.15   15.22
   3   4  13  206.07   20.49
   3  -4  13  198.21   27.58
  -3   4 -13  205.75   15.78
   3   4  13  148.81   16.83
   3  -4  13  183.08   16.46
  -3  -4 -13  213.23   20.32
  -3  -4 -13  197.99   20.56
   3  -4  14   54.04   21.11
   3   4  14   77.13   16.18
  -3  -4 -14   62.20   14.61
  -3   4 -14   57.86    9.68
   3  -4  14   66.73   11.47
  -3  -4 -14   57.05   14.80
  -3   4 -14   57.56   15.34
   3  -4  15   22.54   21.05
   3   4  15   20.36   15.06
  -3  -4 -15   31.38   13.10
  -3   4 -15    7.80    7.23
   3  -4  15   11.14    9.75
  -3   4 -15   31.29   13.81
   3  -4  16   82.76   26.59
   3   4  16  121.06   20.35
  -3  -4 -16  112.42   17.76
  -3   4 -16   57.52    9.86
   3  -4  16   98.90   14.27
  -3   4 -16  107.34   18.32
   3  -4  17   84.03   25.89
  -3  -4 -17   76.00   16.67
  -3   4 -17   21.97    7.41
   3  -4  17   70.22   13.20
  -3   5  15  111.11   17.06
   3   5 -15  107.96   15.90
  -3   5  15   85.46   17.06
  -3  -5  15  108.23   19.01
   3  -5 -15   93.72   17.17
   3   5 -15  118.07   13.79
  -3   5  14   47.30   13.68
   3   5 -14   51.08   12.18
  -3   5  14   40.60   13.27
  -3  -5  14   55.68   15.08
   3  -5 -14   22.80   12.56
   3   5 -14   48.49   10.59
  -3   5  13   31.46   11.38
   3   5 -13   20.30   10.50
  -3   5  13   30.14   12.56
  -3  -5  13   31.56   14.17
   3  -5 -13   48.66   12.80
  -3  -5  13   36.30    8.66
   3   5 -13   42.20   10.04
  -3   5  12   31.58   10.49
   3   5 -12   25.76   10.30
  -3  -5  12   49.56   14.27
  -3   5  12   26.23   11.80
   3  -5 -12   69.84   12.50
  -3  -5  12   32.13    8.31
   3   5 -12   34.95    9.89
  -3   5  11    7.13    8.73
   3  -5 -11    1.29   12.54
  -3  -5  11   13.71   11.54
   3   5 -11    3.94    8.19
  -3   5  11   -0.50    9.73
  -3  -5  11    4.65   11.54
   3  -5 -11   21.24   10.48
  -3  -5  11   -6.04    7.10
   3   5 -11   -1.47    7.93
   3  -5 -11    3.57    5.48
  -3   5  10   40.71    9.15
   3  -5 -10   69.26   14.18
  -3  -5  10   40.67   12.10
   3   5 -10   37.16    9.81
  -3   5  10   44.82   10.86
  -3  -5  10   44.30   12.78
   3  -5 -10   29.65   10.66
  -3  -5  10   37.01    7.91
   3   5 -10   42.22    9.29
   3  -5 -10   37.95    6.53
  -3   5   9   71.82    9.57
   3  -5  -9   66.13   13.95
  -3   5   9   80.02   11.76
  -3  -5   9   59.62   13.16
   3   5  -9   73.55   11.06
  -3   5   9   97.09   12.21
  -3  -5   9   85.42   13.91
   3  -5  -9   70.54   12.06
   3  -5  -9   71.75    7.51
  -3  -5   9   70.66    9.10
   3   5  -9   77.87   10.46
  -3   5   8  107.20   10.27
   3  -5  -8   97.58   14.99
  -3   5   8  141.01   13.86
  -3  -5   8   76.05   13.83
   3   5  -8   96.26   12.28
  -3  -5   8  115.77   10.76
  -3  -5   8  161.34   16.27
  -3   5   8  119.40   13.35
   3   5  -8  127.38   12.18
   3  -5  -8  145.14   14.58
  -3   5   7  516.55   29.26
   3   5  -7  560.44   38.44
   3   5  -7  552.94   32.19
   3  -5  -7  513.48   33.90
  -3   5   7  583.02   33.23
  -3  -5   7  610.25   35.88
  -3  -5   7  565.63   30.63
   3  -5  -7  544.58   32.92
  -3   5   7  600.53   33.03
   3   5  -6   79.68   15.79
  -3   5   6   66.13    9.87
  -3   5   6   52.87    6.45
   3  -5  -6   54.98   12.35
   3   5  -6   42.77    9.35
  -3   5   6   64.56   10.13
  -3   5   6   40.93   10.30
  -3  -5   6   54.47   10.13
  -3  -5   6   78.27   12.39
  -3   5   6   51.17   10.19
  -3   5   6   72.17   10.29
   3   5  -6   73.24   10.93
   3  -5  -6   49.86   11.14
  -3  -5   6   72.59    8.37
  -3   5   5 1210.67   66.65
   3  -5  -5 1388.46   69.56
   3   5  -5 1318.11   75.71
  -3   5   5 1236.11   69.54
  -3   5   5 1343.32   70.51
   3   5  -5 1405.74   69.69
  -3   5   5 1320.83   69.98
   3  -5  -5 1319.15   71.36
  -3  -5   5 1204.00   69.29
   3   5  -5 1368.34   71.05
  -3  -5   5 1350.25   68.91
  -3  -5   5 1389.42   73.10
  -3   5   5 1206.26   69.42
   3  -5  -5 1352.66   71.00
  -3   5   5 1298.16   69.64
  -3   5   4   75.45    6.13
  -3   5   4   72.84    9.01
   3   5  -4   50.66   13.05
   3   5  -4   76.66    9.33
   3  -5  -4   83.66   11.70
   3  -5  -4   86.27    9.37
  -3   5   4   70.34    9.83
  -3   5   4   80.59   10.63
  -3  -5   4   69.32    8.70
   3  -5  -4   91.13   11.36
  -3   5   4   80.10    8.86
  -3  -5   4   67.10   12.30
   3   5  -4   79.26   11.08
   3  -5  -4   65.51   10.70
  -3  -5   4   98.17    9.23
   3   5  -4   77.11    9.40
   3   5  -3  353.97   21.21
  -3   5   3  348.97   22.31
  -3   5   3  372.73   23.43
   3   5  -3  342.34   27.30
   3  -5  -3  355.40   21.66
  -3   5   3  328.36   22.39
   3  -5  -3  370.77   23.96
   3   5  -3  363.68   23.68
  -3  -5   3  390.32   25.74
  -3   5   3  339.28   20.57
   3   5  -3  316.82   21.35
   3  -5  -3  332.90   22.96
   3   5  -2  184.08   12.37
  -3   5   2  192.37   15.07
  -3   5   2  166.15   13.49
   3   5  -2  176.77   19.13
   3  -5  -2  169.68   12.77
   3  -5  -2  167.21   15.01
   3   5  -2  196.95   15.75
  -3   5   2  160.55   11.15
  -3  -5   2  187.36   17.43
  -3  -5   2  182.53   13.66
   3  -5  -2  163.04   14.06
  -3   5   1   22.64    8.25
   3   5  -1    2.12    4.43
   3  -5  -1   -1.83    5.34
  -3   5   1   -2.84    6.14
   3  -5  -1    9.67    8.03
  -3  -5   1    6.45   10.06
  -3   5   1   13.06    3.45
   3   5  -1    5.41    7.57
   3  -5  -1    2.78    5.87
  -3  -5   1    7.06    5.10
  -3  -5   1    5.96    6.69
   3   5   0  200.34    7.86
  -3   5   0  234.83   14.04
   3  -5   0  208.48    9.93
   3  -5   0  199.69   12.70
   3   5   0  217.52   13.17
  -3  -5   0  211.33   16.06
  -3  -5   0  216.23   11.28
  -3  -5   0  200.26    9.49
   3   5   0  202.66   10.65
   3   5   0  198.67    9.49
   3  -5   0  199.88   10.03
  -3   5  -1   22.00    9.11
   3   5   1   10.85    3.99
   3  -5   1    8.72    5.34
   3  -5   1   24.22    8.58
  -3  -5  -1   33.85   11.16
  -3   5  -1   -0.31    1.80
   3   5   1   33.20    9.07
   3  -5   1   21.60    7.24
  -3  -5  -1   22.26    7.25
   3   5   1    7.62    5.94
   3  -5   1    8.32    4.78
   3   5   1    8.27    5.11
  -3   5  -2  380.80   24.91
   3  -5   2  385.14   21.23
   3   5   2  354.39   19.40
   3  -5   2  342.74   22.96
   3   5   2  384.31   24.65
  -3  -5  -2  377.22   27.58
   3  -5   2  394.77   23.25
  -3  -5  -2  369.31   22.65
  -3   5  -2  309.95   18.50
   3   5   2  375.02   22.01
   3  -5   2  342.97   20.21
   3   5   2  377.80   21.14
   3  -5   2  338.72   19.91
  -3   5  -3  101.42   13.51
   3  -5   3   99.81    8.88
   3  -5   3   80.78   12.77
   3   5   3   95.52    7.01
   3  -5   3   90.48   11.15
   3   5   3  103.83   12.67
  -3  -5  -3  109.33   16.21
  -3  -5  -3  105.44   11.25
  -3  -5  -3  106.86    9.13
   3  -5   3  106.15   11.15
   3  -5   3   85.41    7.35
   3   5   3   99.41    8.95
   3  -5   3   75.03    7.09
   3   5   3   89.86    9.63
   3   5   4  315.02   17.93
  -3   5  -4  329.51   20.68
  -3   5  -4  370.47   24.93
   3  -5   4  346.58   19.85
   3  -5   4  304.22   24.47
   3   5   4  350.78   20.91
   3  -5   4  314.44   21.74
   3   5   4  314.99   23.06
   3  -5   4  267.92   18.23
  -3  -5  -4  324.83   22.01
  -3   5  -4  393.85   18.98
   3  -5   4  379.16   22.68
  -3  -5  -4  347.25   20.14
   3  -5   4  315.42   18.06
   3   5   4  337.37   21.13
   3  -5   4  301.41   17.84
   3   5   4  325.47   19.85
  -3   5  -5  228.35   15.95
   3  -5   5  256.74   15.18
  -3   5  -5  214.56   19.83
   3   5   5  227.50   16.23
   3  -5   5  227.50   20.08
   3   5   5  212.28   12.74
   3  -5   5  222.99   17.24
   3   5   5  231.49   19.05
   3  -5   5  195.74   13.53
   3  -5   5  234.44   17.41
  -3  -5  -5  207.13   17.66
  -3  -5  -5  261.91   15.60
   3  -5   5  219.07   12.61
   3   5   5  225.10   16.28
   3   5   5  213.41   15.04
   3  -5   6    1.22    9.89
   3   5   6    0.63    7.12
  -3   5  -6   -6.01   10.21
   3  -5   6    1.06    5.52
  -3   5  -6   -5.00    6.09
   3   5   6    2.35    2.87
   3   5   6    1.63    4.04
   3  -5   6    3.27    4.58
   3   5   6    8.52    9.60
  -3  -5  -6    2.14    8.25
  -3  -5  -6    1.87    7.42
   3  -5   6    1.18    7.36
   3  -5   6   -1.49    2.88
  -3  -5  -6    7.08    5.68
   3   5   6   17.98    7.23
   3  -5   7   25.62   11.40
   3   5   7   23.63    8.19
  -3   5  -7   31.59   11.66
   3  -5   7   35.46    6.77
  -3   5  -7   22.15    7.17
   3   5   7   21.90    5.15
   3  -5   7   25.43    5.99
  -3  -5  -7   19.50    9.41
   3  -5   7   23.96    8.74
  -3  -5  -7   35.93    8.91
  -3  -5  -7   23.99    6.48
   3   5   7   30.84    8.12
   3   5   8  256.42   17.92
  -3   5  -8  229.94   21.08
   3  -5   8  227.83   23.17
  -3   5  -8  214.68   16.43
   3  -5   8  240.22   15.57
   3   5   8  201.17   14.27
  -3  -5  -8  206.71   18.87
   3  -5   8  211.65   15.06
   3   5   8  240.93   19.30
  -3  -5  -8  232.60   15.86
  -3  -5  -8  205.71   17.62
   3   5   8  202.40   16.92
   3  -5   9   59.28   16.90
   3   5   9   32.14   10.04
  -3   5  -9   35.27   12.72
   3   5   9   28.47    7.33
  -3   5  -9   36.23    8.43
   3  -5   9   35.13    7.69
  -3  -5  -9   19.56   10.76
  -3  -5  -9   43.58   10.23
  -3  -5  -9   50.21    8.20
   3   5  10  357.56   24.31
   3  -5  10  368.25   32.86
  -3   5 -10  359.28   22.55
   3   5  10  289.70   20.64
  -3  -5 -10  288.93   25.23
   3  -5  10  340.86   21.97
  -3  -5 -10  329.30   24.67
   3  -5  11  159.09   24.49
   3   5  11  126.75   16.16
  -3   5 -11  150.56   13.66
   3   5  11  128.63   12.84
   3  -5  11  135.45   13.11
  -3  -5 -11  122.93   16.78
  -3  -5 -11  133.38   15.86
   3  -5  12  122.93   24.67
   3   5  12  125.31   16.40
  -3   5 -12  118.32   12.84
   3  -5  12  122.94   13.37
  -3  -5 -12  125.07   17.32
  -3  -5 -12  132.13   15.97
   3  -5  13   52.59   21.57
   3   5  13   79.30   15.32
  -3  -5 -13   64.25   14.40
  -3   5 -13   70.75   10.81
   3  -5  13   84.15   11.86
  -3  -5 -13   76.09   15.54
   3  -5  14   68.59   22.16
   3   5  14   57.58   15.42
  -3  -5 -14   56.47   14.67
  -3   5 -14   45.16    9.81
   3  -5  14   41.75   10.90
  -3  -5 -14   50.67   14.72
  -3  -5 -15   96.40   16.73
   3  -5  15   90.75   25.33
  -3   5 -15   62.83   10.72
   3  -5  15   90.90   13.59
  -3  -5 -15   74.22   16.44
  -3  -5 -16   22.86   14.02
  -3   5 -16   -2.75    7.57
   3  -5  16   24.88   10.80
  -3  -5 -16   12.55   13.61
  -3   6  14   86.92   15.35
   3   6 -14   78.11   15.02
  -3   6  14   97.25   16.93
  -3  -6  14  124.86   19.94
   3  -6 -14  117.68   17.73
   3   6 -14  106.78   13.55
  -3   6  13   21.77   11.38
   3   6 -13   40.70   12.35
  -3   6  13    4.39   12.54
  -3  -6  13   44.59   16.03
   3   6 -13   36.10   10.61
   3  -6 -13   62.42   14.16
  -3   6  12   33.61   10.97
   3   6 -12   32.59   11.43
  -3   6  12   68.11   13.74
  -3  -6  12   42.74   15.23
   3  -6 -12   59.44   13.85
   3   6 -12   43.71   10.54
  -3   6  11   31.85    9.89
   3   6 -11   44.34   11.26
  -3  -6  11   30.27   14.55
  -3  -6  11   57.40   15.14
  -3   6  11   39.76   12.46
   3  -6 -11   60.57   13.37
  -3  -6  11   64.81    9.89
   3   6 -11   49.46   10.48
  -3   6  10   12.06    7.60
   3   6 -10   13.49    9.36
  -3   6  10    1.99    9.96
  -3  -6  10    1.20   11.60
  -3   6  10   16.63   11.63
  -3   6  10    7.15   10.16
  -3  -6  10   12.98   13.09
   3  -6 -10   17.02   11.09
  -3  -6  10   16.57    7.96
   3  -6 -10    5.54    6.26
   3   6 -10    9.16    8.84
  -3   6   9   51.25    8.31
  -3   6   9   84.24   12.21
   3   6  -9   53.63   10.84
  -3  -6   9   37.32   13.02
  -3   6   9   65.78   13.23
  -3   6   9   47.87   11.17
  -3  -6   9   61.68   14.57
   3  -6  -9   48.82   12.29
  -3  -6   9   64.48    9.26
   3   6  -9   55.53   10.32
  -3   6   8   71.51    8.45
   3   6  -8   66.28   11.30
  -3   6   8   73.71   12.29
  -3  -6   8   48.34   12.77
  -3  -6   8   92.49   15.11
  -3   6   8   69.79   12.60
  -3   6   8   71.76   12.18
  -3  -6   8   90.44   10.17
   3   6  -8   76.31   10.88
   3  -6  -8   79.91   13.29
  -3   6   7   29.25    9.87
  -3   6   7   27.20    6.21
   3   6  -7   17.88    9.15
  -3   6   7   44.64   10.59
  -3  -6   7   20.46   10.11
  -3  -6   7   29.33   12.07
  -3   6   7   37.68    9.77
  -3   6   7   39.22    9.81
  -3  -6   7   33.39    7.86
   3   6  -7   28.83    8.76
   3  -6  -7   46.91   11.57
  -3   6   6  310.18   17.90
   3   6  -6  313.59   21.09
  -3   6   6  349.99   22.51
  -3   6   6  328.72   22.28
  -3  -6   6  344.12   25.24
  -3   6   6  311.73   21.29
   3  -6  -6  316.71   23.49
  -3  -6   6  361.23   21.17
  -3   6   5   -3.64    8.29
  -3   6   5   -0.95    4.50
   3   6  -5   -7.27    7.43
  -3   6   5   -0.76    8.35
  -3  -6   5   -1.40    7.92
  -3  -6   5   -2.98   11.12
  -3   6   5   -6.16    7.47
  -3  -6   5   -4.25    7.26
   3  -6  -5   -6.26   10.18
  -3   6   4  183.54   11.76
  -3   6   4  192.35   15.59
   3   6  -4  181.16   14.10
  -3   6   4  195.60   16.18
  -3  -6   4  161.16   13.84
  -3  -6   4  200.40   14.80
  -3  -6   4  215.72   19.28
  -3   6   4  193.64   13.97
   3  -6  -4  189.88   17.22
   3  -6  -4  159.69   15.96
  -3   6   3   41.78   10.51
   3   6  -3   29.04    6.81
  -3   6   3   37.28    8.37
  -3  -6   3   26.79    3.99
  -3   6   3   31.46    6.34
  -3  -6   3   51.43   12.52
  -3  -6   3   48.04    9.11
   3  -6  -3   29.96    8.59
  -3   6   2   79.11   12.71
   3   6  -2   59.32   15.54
   3   6  -2   79.68    8.17
  -3   6   2   70.94   10.05
  -3  -6   2   85.99   14.20
  -3   6   2   83.53    7.82
  -3  -6   2   90.65   10.66
   3   6  -2   73.10    9.41
   3  -6  -2   82.75   10.00
  -3   6   1  150.05   13.17
  -3   6   1  139.36   15.45
   3   6  -1  132.98   10.89
   3   6  -1  143.00   19.20
  -3   6   1  147.00   10.03
  -3  -6   1  173.35   17.65
  -3  -6   1  175.02   14.11
   3   6  -1  160.45   13.18
   3  -6  -1  141.89   12.49
   3   6  -1  147.91   11.96
  -3   6   0   36.61   11.26
   3   6   0   20.39    5.41
  -3   6   0    5.87    6.87
  -3  -6   0   29.72   12.59
  -3   6   0   35.75    4.70
   3   6   0   15.75    8.93
  -3  -6   0   35.65    8.91
   3  -6   0   12.24    5.93
   3   6   0   22.31    6.49
   3   6   0   11.49    7.27
   3  -6   0   13.74    6.40
  -3   6  -1  288.40   21.81
   3   6   1  224.78   14.91
  -3   6  -1  255.05   14.31
  -3  -6  -1  257.33   23.33
   3  -6   1  250.76   18.47
  -3  -6  -1  282.66   18.75
   3   6   1  247.85   17.89
   3  -6   1  225.00   15.90
   3   6   1  239.33   16.54
   3  -6   1  235.15   15.66
  -3   6  -2  143.88   16.77
   3   6   2  136.51    9.99
  -3   6  -2  149.17    9.53
  -3  -6  -2  137.11   19.12
  -3  -6  -2  155.70   14.36
   3  -6   2  159.18   14.07
   3  -6   2  126.51   10.46
   3   6   2  143.43   13.03
   3  -6   2  146.15   10.39
   3   6   2  125.17   11.77
  -3   6  -3   85.43   14.92
   3   6   3  107.44    8.24
  -3  -6  -3  102.74   17.21
  -3   6  -3  114.63    8.22
   3  -6   3  106.09   12.46
   3  -6   3  106.14    8.41
   3  -6   3  100.49    8.24
   3   6   3   96.81   10.11
   3   6   3   88.69   11.00
  -3  -6  -3   82.06   12.07
   3   6   4  174.75   11.41
  -3   6  -4  200.83   19.22
   3   6   4  176.16   14.43
   3  -6   4  145.43   12.03
  -3  -6  -4  175.76   15.90
  -3   6  -4  204.13   12.13
   3  -6   4  165.71   10.97
   3   6   4  159.14   14.73
   3   6   4  165.89   13.34
  -3   6  -5   17.45   12.48
   3   6   5   30.65    8.39
   3  -6   5   51.88   12.70
  -3   6  -5   18.51    7.40
   3   6   5   24.36    4.92
   3  -6   5   20.16    5.83
  -3   6  -5   29.49    6.19
  -3  -6  -5   16.15    9.53
   3  -6   5   25.85    4.44
   3   6   5   17.12    7.95
  -3   6  -6   63.48   13.64
   3   6   6   60.98    6.08
   3   6   6   74.19   10.34
   3  -6   6   74.27   14.76
  -3   6  -6   67.21    9.69
   3  -6   6   63.40   11.52
   3  -6   6   58.77    7.73
  -3   6  -6   73.16    8.59
  -3  -6  -6   65.62   11.62
   3  -6   6   68.26    5.85
   3   6   6   69.72   10.31
   3   6   7   39.20    9.10
   3  -6   7   36.43   14.08
  -3   6  -7   34.65   13.14
  -3   6  -7   34.45    8.32
   3   6   7   23.17    4.33
   3   6   7   27.82    5.37
   3  -6   7   32.59    6.86
  -3  -6  -7   46.05   10.77
  -3  -6  -7   35.69    9.65
   3   6   7   11.96    8.85
   3  -6   8   27.59   14.16
   3   6   8   19.38    9.18
  -3   6  -8   16.09    8.24
   3   6   8   25.15    5.84
   3  -6   8   18.82    6.98
  -3  -6  -8   11.59    9.18
  -3  -6  -8   23.32   11.08
   3   6   8   22.20    9.05
   3  -6   9  106.02   19.39
   3   6   9  138.37   14.87
  -3   6  -9  129.32   13.19
   3  -6   9  132.55   12.28
  -3  -6  -9  109.88   15.48
  -3  -6  -9  123.65   14.26
   3  -6  10    3.75   14.50
   3   6  10   11.92   10.81
  -3   6 -10    9.68    8.40
   3  -6  10   14.43    8.17
  -3  -6 -10    6.04   11.29
  -3  -6 -10   -3.99   10.09
   3   6  11  235.05   20.10
   3  -6  11  149.91   23.78
  -3   6 -11  235.33   17.86
   3  -6  11  190.87   16.53
  -3  -6 -11  176.97   20.41
  -3  -6 -11  198.65   19.55
   3  -6  12    8.87   16.77
   3   6  12   42.67   13.63
  -3   6 -12   27.06    9.85
   3  -6  12   32.04   10.08
  -3  -6 -12   17.13   13.95
  -3  -6 -12   56.43   13.66
   3  -6  13   23.79   18.48
  -3   6 -13   51.16   11.11
   3  -6  13   56.31   11.56
  -3  -6 -13   49.38   14.81
  -3  -6 -13   75.14   15.05
  -3   6 -14   43.55   11.00
   3  -6  14   39.85   19.90
  -3  -6 -14   56.73   15.42
  -3  -6 -14   42.55   15.47
  -3   7  12   25.15   10.65
   3   7 -12   32.24   11.79
   3  -7 -12   55.73   18.31
  -3   7  12   31.28   12.97
  -3  -7  12   67.42   18.61
   3  -7 -12   41.93   15.04
   3   7 -12   35.02   10.94
  -3   7  11   28.04    9.28
   3   7 -11   19.20   10.47
  -3   7  11   33.82   11.96
   3  -7 -11   19.17   15.74
  -3  -7  11   12.33   14.87
  -3   7  11   11.67   11.74
   3  -7 -11   53.53   14.50
  -3   7  10   60.70    9.82
   3   7 -10   56.18   12.44
  -3   7  10   65.74   13.33
  -3  -7  10   56.26   15.96
   3  -7 -10   83.36   16.79
  -3  -7  10   87.03   17.12
  -3   7  10   53.53   13.10
   3  -7 -10   91.72   15.71
  -3   7   9    6.44    7.01
   3   7  -9   -0.40    9.62
   3  -7  -9    0.61   12.96
  -3   7   9   16.37   11.06
  -3  -7   9    9.30   13.01
  -3  -7   9   15.78   14.20
  -3   7   9   -3.74   11.00
  -3   7   9    1.82   10.53
   3  -7  -9    8.92   11.96
  -3   7   8   22.91   11.17
  -3   7   8    9.39    6.08
   3   7  -8   -4.87    8.85
   3  -7  -8   -1.15   12.96
  -3   7   8   20.34   10.64
  -3  -7   8    9.34   10.96
  -3  -7   8    8.71   12.78
  -3   7   8   -5.23   10.81
  -3   7   8   15.75    9.61
  -3  -7   8   11.22    8.30
   3  -7  -8   16.26   11.84
  -3   7   7   34.68   11.60
  -3   7   7   32.77    6.87
   3   7  -7   38.20    9.86
   3  -7  -7   36.78   13.36
  -3   7   7   45.71   11.00
  -3  -7   7   38.13   11.83
  -3  -7   7   61.27   14.26
  -3   7   7   42.99   10.52
  -3  -7   7   43.56    9.79
   3  -7  -7   63.89   13.44
  -3   7   6    4.70    9.60
  -3   7   6    4.92    5.19
   3   7  -6    2.88    7.69
   3  -7  -6   19.26   11.83
  -3   7   6   18.69    9.61
  -3  -7   6    7.24    8.86
  -3  -7   6   20.76   12.19
  -3   7   6   12.01    8.81
  -3  -7   6    8.43    8.57
   3  -7  -6    0.52   11.33
  -3   7   5   13.46    9.59
  -3   7   5   32.81    5.94
   3   7  -5   13.27    8.44
   3  -7  -5   38.61   12.62
  -3   7   5   36.89   10.08
  -3  -7   5   31.81    5.86
  -3  -7   5   14.73    7.96
  -3   7   5   34.23    8.23
  -3  -7   5   45.27   13.82
  -3  -7   5   36.35    9.22
   3   7  -5   24.87    9.29
   3  -7  -5   37.53   12.12
  -3   7   4   -1.53    9.91
  -3   7   4    4.63    4.84
   3   7  -4   -0.54    6.55
  -3   7   4   -5.45    8.23
  -3  -7   4    1.22    4.28
  -3  -7   4   -2.71    6.38
  -3   7   4   -8.36    7.16
   3  -7  -4   -4.55   10.45
  -3  -7   4   -4.82   12.95
  -3  -7   4    4.63    7.90
  -3   7   3   42.39   11.81
   3   7  -3   41.11    7.81
  -3   7   3   20.71    8.86
  -3  -7   3   32.17    4.29
  -3  -7   3   36.96   13.52
  -3  -7   3   28.13    9.61
   3  -7  -3   34.13   12.08
  -3   7   3   30.12    6.80
   3  -7  -3   31.85    8.75
  -3   7   2    2.15   10.84
   3   7  -2   13.16    6.35
  -3   7   2   16.44    8.31
  -3  -7   2   11.95   11.74
  -3  -7   2   32.06    9.77
  -3   7   2   17.04    5.83
   3  -7  -2   16.97    7.46
   3  -7  -2   17.15    7.57
  -3   7   1   21.88   12.24
   3   7  -1    4.72    5.66
  -3   7   1    9.63    7.73
  -3  -7   1    5.07   11.95
  -3   7   1    9.21    5.45
   3  -7  -1    0.25    6.51
   3   7  -1    0.73    7.62
   3  -7  -1    0.85    6.66
  -3  -7   1   11.21    9.17
  -3   7   0  145.92   17.74
   3   7   0  132.23   10.71
  -3   7   0  113.27   12.84
  -3   7   0  134.75    9.94
  -3  -7   0  146.85   18.79
   3  -7   0  134.34   11.93
   3   7   0  142.19   12.40
   3   7   0  115.32   13.51
   3  -7   0  130.01   11.46
  -3  -7   0  140.43   14.29
  -3   7  -1   89.29   16.11
   3   7   1  114.10    9.38
  -3   7  -1   95.96   11.79
  -3   7  -1  107.74    8.40
  -3  -7  -1  130.58   18.91
   3  -7   1   92.77    9.64
   3   7   1   96.34   11.08
   3  -7   1   79.45    9.47
   3   7   1   74.46   12.06
  -3  -7  -1  121.09   13.75
  -3   7  -2   81.38   16.27
   3   7   2  104.14    8.98
  -3   7  -2   92.76   11.42
  -3   7  -2   92.31    8.38
  -3  -7  -2   91.70   18.83
   3   7   2   77.29   10.63
   3  -7   2  100.44    9.18
   3   7   2   91.40   12.37
  -3  -7  -2  106.99   13.72
   3  -7   2   83.80    8.86
   3   7   3  203.75   13.78
  -3   7  -3  194.24   21.05
  -3  -7  -3  189.44   18.09
  -3   7  -3  214.19   13.36
   3  -7   3  189.21   13.35
   3   7   3  198.67   17.52
  -3   7  -4  -19.66   14.19
   3   7   4   -4.91    5.41
  -3   7  -4   -2.28    5.48
  -3  -7  -4   -7.84   11.04
   3   7   4    0.41    8.62
  -3   7  -5   96.29   16.17
   3   7   5  109.88   12.47
   3   7   5  109.37    9.04
   3  -7   5   88.17   10.13
  -3   7  -5  109.83    9.88
  -3  -7  -5  101.11   14.16
   3  -7   5  103.69    8.48
   3   7   5  117.56   13.32
   3   7   6   14.00    9.35
  -3   7  -6    1.49    8.52
   3   7   6    2.08    4.96
   3  -7   6    7.61    6.33
  -3   7  -6    5.38    6.65
  -3  -7  -6    2.55   10.51
   3   7   6    4.97    8.80
   3   7   7   42.62   10.29
   3  -7   7   40.81   15.96
  -3   7  -7   42.50    9.77
   3   7   7   30.21    5.53
   3  -7   7   27.66    7.72
  -3   7  -7   34.25    8.11
  -3  -7  -7   40.42   11.93
   3   7   7   29.09   10.07
   3   7   8   25.62   10.36
   3  -7   8    6.86   15.32
  -3   7  -8   14.76    8.97
  -3  -7  -8    6.36    5.98
   3  -7   8    6.32    7.28
  -3   7  -8   17.83    7.96
  -3  -7  -8   11.33   11.10
  -3  -7  -8   11.53    9.87
   3   7   8    5.95    9.38
   3   7   9   52.12   11.94
   3  -7   9   54.80   18.97
  -3   7  -9   40.54   10.28
  -3  -7  -9    7.26    7.12
   3  -7   9   36.08    8.73
  -3  -7  -9   20.38   12.19
  -3  -7  -9   32.01   11.55
  -3   7 -10  154.63   15.54
   3  -7  10  136.51   23.90
   3   7  10  165.76   17.06
  -3  -7 -10  153.97   18.11
  -3  -7 -10  150.40   16.61
  -3   7 -11    0.92    9.75
   3  -7  11  -10.80   19.47
  -3  -7 -11    5.36   12.80
  -3  -7 -11   11.76   11.42
  -3   7 -12   75.51   13.07
   3  -7  12   48.55   22.21
  -3  -7 -12   55.33   15.53
  -3  -7 -12   76.94   15.24
  -3   7 -13   26.62   11.18
   3  -7  13   -2.67   18.75
  -3  -7 -13    3.73   14.42
  -3  -7 -13   16.06   13.38
  -3   8  10   -6.83    7.78
   3   8 -10    3.11   10.14
  -3   8  10   11.67   11.99
   3  -8 -10    1.39   14.42
  -3  -8  10    7.73   15.45
  -3   8  10    9.31   10.70
   3  -8 -10    1.91   13.63
   3   8 -10   -4.70    9.78
  -3   8   9   34.52    8.11
   3   8  -9   18.40   10.58
   3  -8  -9   41.11   15.83
  -3   8   9   56.97   13.18
  -3  -8   9   56.60   16.10
  -3   8   9   50.66   12.13
   3  -8  -9   20.51   14.26
   3   8  -9   38.57   11.14
  -3   8   8   -4.57    7.48
   3   8  -8   -7.82   10.11
   3  -8  -8   15.93   14.35
  -3   8   8   -1.03   11.51
  -3  -8   8   28.40   15.79
   3   8  -8   -8.98   10.67
   3  -8  -8   12.72   13.57
  -3   8   7    7.42    6.47
   3   8  -7    1.10    9.18
   3  -8  -7   28.36   13.78
  -3  -8   7    2.97    6.61
  -3   8   7    1.47   10.41
  -3   8   7    4.52    9.14
  -3  -8   7    7.13   13.68
   3  -8  -7   11.09   10.40
   3   8  -7   -1.32    9.69
   3  -8  -7    4.15   12.92
  -3   8   6   46.37   11.50
  -3   8   6   12.03    6.71
   3   8  -6   12.65    9.51
   3  -8  -6   28.94   13.95
  -3   8   6   36.67   11.28
  -3  -8   6   24.75    6.63
  -3   8   6   28.03    9.31
  -3  -8   6   39.88   15.60
   3  -8  -6    7.59   10.80
   3   8  -6   33.79   10.92
   3  -8  -6   19.43   13.80
  -3   8   5   -6.47   11.26
  -3   8   5    8.36    5.74
   3   8  -5   -1.28    8.14
   3  -8  -5  -20.00   12.75
  -3   8   5  -14.22   10.02
  -3  -8   5   -2.91    5.34
  -3  -8   5   -2.35    7.26
  -3   8   5   -3.89    7.72
  -3  -8   5   14.12   14.20
   3  -8  -5   -1.49    9.62
   3   8  -5    5.58    9.12
   3  -8  -5   -8.13   12.86
  -3   8   4   -3.80   12.58
  -3   8   4   14.83    5.95
   3  -8  -4    5.08   12.18
   3   8  -4    7.45    7.80
  -3   8   4    1.70    9.58
  -3  -8   4   12.62    4.82
  -3  -8   4    4.96    6.59
  -3  -8   4   11.81   13.87
  -3  -8   4    2.29   10.07
  -3   8   4   10.83    7.40
   3  -8  -4    1.38    8.81
   3   8  -4   11.55    9.86
   3  -8  -4   24.13   13.34
  -3   8   3    7.04   12.31
   3  -8  -3   -4.88   11.64
   3   8  -3    2.79    6.96
  -3   8   3    0.41    8.79
  -3  -8   3    1.59    4.24
  -3  -8   3    6.25    4.03
  -3  -8   3    3.16   13.35
  -3  -8   3    5.53   10.67
   3  -8  -3    1.13   11.50
  -3   8   3    3.47    6.26
   3  -8  -3   -9.25    7.88
  -3   8   2   10.17   11.98
   3   8  -2    7.61    6.93
  -3   8   2   25.47    9.41
   3  -8  -2    8.10   11.41
  -3  -8   2   35.36   14.78
  -3   8   2    4.70    6.18
   3  -8  -2   -2.65    7.79
  -3  -8   2    2.32    9.85
  -3   8   1   16.10   13.49
   3   8  -1   15.86    7.00
  -3   8   1   27.80    9.61
   3  -8  -1   20.92   12.17
  -3  -8   1   39.93   15.23
  -3   8   1   22.34    6.33
   3  -8  -1   13.63    7.66
  -3  -8   1   40.65   10.92
  -3   8   0   12.97   13.06
   3   8   0    5.95    6.46
  -3   8   0    8.96    8.74
   3  -8   0   11.47   11.43
  -3  -8   0   14.31   14.67
  -3   8   0    3.15    5.83
   3  -8   0    5.15    6.87
   3   8   0   -1.31    9.61
  -3  -8   0   13.21   10.43
  -3   8  -1    5.96   14.05
   3   8   1   51.48    7.94
  -3   8  -1   43.58   10.36
   3  -8   1   58.12   13.72
  -3  -8  -1   48.62   16.70
  -3   8  -1   40.50    6.98
   3  -8   1   46.85    8.26
   3   8   1   34.10   11.09
  -3  -8  -1   62.04   12.28
   3  -8   1   48.38    8.39
  -3   8  -2   31.13   14.65
   3   8   2   29.17    7.46
  -3   8  -2   18.58    9.76
   3  -8   2   31.44   12.87
  -3  -8  -2   41.13   17.76
  -3   8  -2   33.75    6.53
   3   8   2   29.99   11.15
   3  -8   2   39.75    7.67
  -3  -8  -2   40.69   12.05
   3   8   3    9.41    6.64
  -3   8  -3    3.11    8.71
   3  -8   3    5.03   12.15
  -3   8  -3    2.80    6.00
   3   8   3    6.03    9.98
  -3  -8  -3    0.50   11.20
   3   8   4   90.92    9.18
   3   8   4   87.48   12.32
   3  -8   4   72.00   14.12
  -3   8  -4   79.97    8.85
  -3  -8  -4   69.34   13.96
   3   8   4   74.68   12.89
   3   8   5   -5.14    9.58
   3   8   5   -4.94    5.89
   3  -8   5  -12.14   11.80
  -3   8  -5    3.51    6.17
  -3  -8  -5    8.05   11.48
   3   8   5   -2.01   10.09
   3   8   6   32.80   10.66
   3  -8   6    0.48   12.28
  -3   8  -6   17.01    7.40
  -3  -8  -6   36.96   12.35
   3   8   6   30.32   11.13
  -3   8  -7   10.02    9.46
   3  -8   7   10.32   11.88
   3   8   7    5.26   10.22
  -3  -8  -7   18.17   11.95
   3   8   7    8.68   10.67
  -3   8  -8   16.77   10.20
   3  -8   8   27.88   12.82
   3   8   8   30.35   11.40
  -3  -8  -8   21.37   12.66
  -3  -8  -8   13.96   11.02
  -3   8  -9   23.04   11.12
   3  -8   9   21.10   13.78
  -3  -8  -9   11.88    7.21
  -3  -8  -9   33.90   13.63
  -3  -8  -9   35.91   12.26
  -3   8 -10    8.81   10.68
   3  -8  10    4.41   13.86
  -3  -8 -10    2.01   13.22
  -3  -8 -10   17.80   12.13
  -3   9   7  -12.08    8.57
   3   9  -7   -6.67   11.08
   3  -9  -7    8.66   15.10
  -3   9   7  -13.62   13.02
  -3  -9   7    0.90   17.43
   3   9  -7   -7.57   12.82
   3  -9  -7   -4.57   15.34
  -3   9   6    0.91    7.06
   3   9  -6   -3.33    9.45
   3  -9  -6   -2.92   14.67
  -3   9   6    7.98   11.10
  -3  -9   6   12.44   16.58
   3   9  -6   21.48   11.11
   3  -9  -6   10.36   14.98
  -3   9   5   11.54    7.80
   3   9  -5    8.71   10.58
   3  -9  -5    6.73   14.72
  -3   9   5    8.16   11.93
  -3  -9   5   30.16   13.41
  -3  -9   5    9.66   17.81
   3  -9  -5  -15.35   12.81
   3   9  -5   10.00   12.67
   3  -9  -5   38.01   16.10
  -3   9   4   -7.21    6.71
   3  -9  -4    6.01   13.02
   3   9  -4    4.93    8.86
  -3   9   4   -2.78   10.29
  -3  -9   4    6.35   12.23
  -3  -9   4    1.77   16.53
   3  -9  -4    5.01    9.12
   3   9  -4    7.96   10.76
   3  -9  -4   -1.28   13.96
   3  -9  -3   -2.11   12.76
   3   9  -3    5.30    8.18
  -3   9   3    1.36    9.96
  -3  -9   3    7.13   15.14
   3  -9  -3   22.01   14.02
   3  -9  -3   -6.31    9.07
   3   9  -3   15.51   11.15
  -3  -9   3   15.40   12.09
   3   9  -2   16.36    8.31
  -3   9   2   14.23   10.22
   3  -9  -2   13.34   12.61
   3  -9  -2   25.41   14.41
  -3  -9   2    2.68   15.78
   3  -9  -2    3.39    8.60
  -3  -9   2   13.24   11.99
   3   9  -1    7.68    7.55
  -3   9   1    1.32    9.39
   3  -9  -1   15.66   12.53
  -3  -9   1    0.92   15.28
  -3  -9   1   19.74   12.05
   3  -9  -1    7.40    7.66
   3   9   0   16.18    7.49
  -3   9   0  -10.42   10.10
   3  -9   0   34.34   12.62
  -3  -9   0   10.44   15.79
   3  -9   0   17.14    7.75
  -3  -9   0   -0.53   11.61
   3   9   1   -0.53    6.96
  -3   9  -1    3.02    9.51
   3  -9   1    4.94   12.31
  -3  -9  -1  -16.66   16.76
   3   9   1    2.57   10.54
  -3  -9  -1    4.30   11.69
   3   9   2    9.16    7.43
  -3   9  -2  -12.12   10.82
   3  -9   2    1.98   12.72
   3   9   2    8.46   10.87
  -3  -9  -2    9.84   11.26
   3   9   3    3.28    7.01
  -3   9  -3    6.12   10.04
   3  -9   3  -10.93   12.75
   3   9   3   -1.63   10.86
  -3  -9  -3    6.17   12.00
  -3   9  -4    3.55    9.98
   3  -9   4  -14.56   13.02
   3   9   4    8.31   10.41
   3   9   4   -3.34   11.55
  -3  -9  -4    5.75   12.60
   3  -9   5    1.03   13.59
   3   9   5   11.66   10.60
  -3  -9  -5    1.77   12.85
   3   9   5   11.52   11.85
   3  -9   6   16.08   13.06
  -3  -9  -6   -9.79   12.80
   3   9   6   12.45   11.13
   3  -9   7   -6.40   13.02
  -3  -9  -7   10.19   12.39
   3   9   7    4.24   11.69
  -4   0  17    6.78   12.71
  -4   0  17   21.02   14.07
   4   0 -17    3.69   16.76
   4   0 -16  679.74   44.11
  -4   0  16  583.38   38.94
  -4   0  15   21.39   13.18
   4   0 -15   66.56   18.31
  -4   0  15   70.18   14.19
  -4   0  15   54.65   11.29
  -4   0  14  246.12   25.26
  -4   0  14  276.75   23.84
   4   0 -14  266.80   19.65
  -4   0  14  318.19   20.71
   4   0 -14  254.60   27.28
  -4   0  13  189.96   20.09
   4   0 -13  166.30   21.05
  -4   0  13  198.87   18.59
   4   0 -13  142.98   13.58
  -4   0  13  179.02   14.78
  -4   0  12   13.04   11.77
   4   0 -12    9.38    7.51
   4   0 -12   -3.85   13.35
  -4   0  12    1.60    7.12
  -4   0  12   10.95    9.62
   4   0 -12   10.06    6.27
  -4   0  11    6.06   10.81
   4   0 -11   13.34    7.36
   4   0 -11   17.75   12.57
   4   0 -11    7.40    8.60
  -4   0  11   13.68    6.58
  -4   0  11   22.25    9.90
   4   0 -11   14.02    5.49
   4   0 -10  293.87   19.27
  -4   0  10  302.32   23.47
  -4   0  10  344.90   23.01
   4   0 -10  317.36   21.29
   4   0 -10  322.90   25.12
  -4   0  10  346.86   22.42
   4   0  -9   89.58    9.89
   4   0  -9   78.16    7.42
   4   0  -9   99.63   11.36
  -4   0   9  113.43   12.40
   4   0  -9   82.51   14.41
   4   0  -9  110.53   12.95
  -4   0   9  108.92   12.08
   4   0  -8  453.78   26.43
  -4   0   8  512.41   28.95
   4   0  -8  392.96   24.00
   4   0  -8  482.25   27.95
   4   0  -8  469.62   30.47
  -4   0   8  501.66   28.28
   4   0  -8  527.12   29.71
   4   0  -7   61.83    7.91
   4   0  -7   56.88    8.72
  -4   0   7   66.69    9.36
   4   0  -7   68.02   10.05
   4   0  -7   56.05   11.11
  -4   0   7   63.98    8.94
   4   0  -6  745.96   42.41
  -4   0   6  796.25   44.27
   4   0  -6  814.32   43.49
  -4   0   6  823.76   43.47
   4   0  -6  816.25   44.93
   4   0  -6  743.04   44.73
   4   0  -5   55.53    6.41
   4   0  -5   48.87    7.08
  -4   0   5   57.70    7.62
   4   0  -5   56.81    8.25
   4   0  -5   40.02    8.50
  -4   0   5   47.91    7.24
   4   0  -4  182.44   12.31
   4   0  -4  196.65   14.17
  -4   0   4  176.60   13.25
   4   0  -4  194.34   12.96
   4   0  -4  190.09   14.16
  -4   0   4  197.86   13.06
   4   0  -3 2074.35  107.89
   4   0  -3 2032.50  106.70
  -4   0   3 2155.99  107.00
   4   0  -3 1996.86  107.60
   4   0  -3 2048.82  106.96
  -4   0   3 2181.93  107.77
   4   0  -2  525.85   30.10
   4   0  -2  576.40   32.26
   4   0  -2  547.82   31.65
  -4   0   2  632.78   31.75
   4   0  -2  616.79   32.42
   4   0  -2  589.21   31.57
  -4   0   2  655.35   32.58
  -4   0   2  572.82   31.65
   4   0  -1 2353.38  128.03
   4   0  -1 2307.01  129.07
   4   0  -1 2671.65  129.51
   4   0  -1 2579.58  128.88
  -4   0   1 2916.45  130.11
   4   0  -1 2554.64  127.31
  -4   0   1 2462.77  129.85
   4   0   0 2850.27  154.15
   4   0   0 2707.20  154.35
   4   0   0 3112.27  154.95
   4   0   0 3138.50  154.49
  -4   0   0 3501.42  155.93
   4   0   0 3242.64  153.99
  -4   0   0 2809.26  155.88
   4   0   1 1161.43   62.94
   4   0   1 1113.23   62.28
   4   0   1 1349.86   63.28
   4   0   1 1277.39   62.99
   4   0   1 1330.33   62.83
  -4   0  -1 1389.71   64.41
  -4   0  -1 1068.64   62.02
  -4   0  -1 1126.58   64.75
   4   0   1 1191.37   62.45
   4   0   2 1118.67   59.57
   4   0   2 1066.30   57.97
   4   0   2 1173.70   58.97
  -4   0  -2 1091.71   58.79
   4   0   2 1140.90   59.60
   4   0   2 1205.52   58.75
   4   0   2 1128.70   58.15
  -4   0  -2 1045.04   61.31
   4   0   3  491.83   26.43
   4   0   3  516.11   29.27
   4   0   3  495.46   27.59
   4   0   3  468.55   28.66
   4   0   3  501.58   27.56
  -4   0  -3  469.99   28.10
   4   0   3  510.53   26.63
   4   0   3  497.21   28.76
  -4   0  -3  483.71   30.70
   4   0   4  799.72   40.96
   4   0   4  827.85   44.83
  -4   0  -4  765.83   41.80
   4   0   4  741.40   43.91
   4   0   4  762.78   42.52
  -4   0  -4  829.44   43.85
   4   0   4  802.28   41.17
   4   0   4  827.22   44.05
  -4   0  -4  726.45   45.88
   4   0   5   56.89    4.66
   4   0   5   52.99    9.66
  -4   0  -5   66.72   10.43
  -4   0  -5   64.36    6.59
  -4   0  -5   60.83    5.77
   4   0   5   56.19    7.13
   4   0   5   54.79    8.82
  -4   0  -5   77.69    8.95
   4   0   5   69.37    8.55
  -4   0  -6  472.94   25.41
   4   0   6  417.08   22.90
   4   0   6  459.58   29.19
  -4   0  -6  432.16   23.73
   4   0   6  445.90   27.87
  -4   0  -6  456.38   27.92
   4   0   6  405.31   25.99
   4   0   6  419.26   23.46
   4   0   6  423.77   27.08
   4   0   6  471.73   23.41
  -4   0  -6  446.74   29.72
   4   0   7  793.79   44.25
  -4   0  -7  796.79   39.89
  -4   0  -7  720.23   37.55
   4   0   7  677.88   36.82
   4   0   7  792.14   40.73
   4   0   7  728.44   42.19
  -4   0  -7  753.06   42.49
   4   0   7  739.54   40.99
   4   0   7  739.15   41.57
   4   0   7  677.90   37.45
   4   0   7  715.53   37.26
  -4   0  -7  793.73   44.72
  -4   0  -8   26.77    6.80
   4   0   8   29.71   11.30
   4   0   8   27.96    7.95
  -4   0  -8   23.99    3.87
   4   0   8   23.08    8.12
   4   0   8   29.40    9.41
  -4   0  -8   16.95    8.47
   4   0   8   19.59    7.76
  -4   0  -9 1470.58   72.01
   4   0   9 1474.43   77.37
  -4   0  -9 1268.90   68.39
   4   0   9 1331.22   72.89
   4   0   9 1427.82   74.65
  -4   0  -9 1308.69   74.76
   4   0   9 1366.75   74.33
   4   0   9 1387.12   73.47
  -4   0 -10  226.54   16.19
   4   0  10  238.66   22.38
  -4   0 -10  195.43   11.96
   4   0  10  229.44   19.14
  -4   0 -10  210.43   19.23
   4   0  10  221.09   17.94
   4   0  11  301.25   26.52
  -4   0 -11  249.42   14.49
   4   0  11  279.29   21.41
  -4   0 -11  276.10   22.62
   4   0  12   61.44   16.35
  -4   0 -12   52.17    5.01
   4   0  12   67.43   11.63
  -4   0 -12   54.29   12.97
   4   0  13   18.43   16.06
  -4   0 -13   13.90    3.82
   4   0  13   28.12   10.49
  -4   0 -13    7.22   11.27
  -4   0 -14   18.63    4.12
   4   0  14   13.47   10.54
  -4   0 -14   11.38   12.53
   4   0  15  162.31   24.54
  -4   0 -15  104.55    7.99
  -4   0 -15  105.51    8.40
   4   0  15  156.35   16.51
  -4   0 -15  211.91   20.93
   4   0  16   48.74   21.26
   4   0  16   47.33   13.50
  -4   0 -16   64.82   16.80
   4   0  17  362.26   37.41
  -4   0 -17  410.16   33.11
   4   0  17  369.90   29.08
  -4   1  16    4.84   11.18
  -4  -1  16   -8.70   15.63
  -4   1  16   10.18   12.33
  -4  -1  16   13.93   12.49
   4   1 -16    7.57   15.59
   4  -1 -16    1.92   17.43
  -4  -1  15  331.63   31.14
   4  -1 -15  347.62   30.89
   4   1 -15  358.52   30.10
  -4   1  15  308.83   25.71
  -4  -1  15  322.62   26.34
  -4   1  14   79.37   14.07
  -4  -1  14  113.32   19.50
   4   1 -14  118.75   19.14
   4  -1 -14  120.74   19.84
  -4   1  14   94.69   14.71
  -4  -1  14  102.40   15.76
   4  -1 -14  114.27   12.54
   4   1 -14   82.41   10.07
  -4  -1  14  106.82   11.84
  -4   1  13   29.95   10.92
  -4  -1  13   25.55   14.33
   4   1 -13   43.41    9.92
   4   1 -13   28.32   14.66
   4  -1 -13   40.44   15.55
  -4   1  13   37.25   10.65
  -4  -1  13   47.05   12.16
   4  -1 -13   22.61    8.73
   4   1 -13   18.45    7.06
  -4  -1  13   29.97    7.90
   4  -1 -12  188.16   13.49
   4   1 -12  199.58   16.38
  -4   1  12  149.32   17.10
  -4  -1  12  212.79   21.94
  -4   1  12  171.21   17.43
  -4  -1  12  233.85   19.29
   4   1 -12  150.30   13.00
  -4  -1  12  184.70   14.07
   4  -1 -12  189.71   14.89
   4   1 -12  190.83   21.32
   4  -1 -12  166.65   21.04
   4  -1 -11  137.20   10.52
  -4   1  11  112.94   14.41
  -4  -1  11  139.04   18.03
   4   1 -11  131.44   13.52
   4   1 -11  111.61    9.99
  -4  -1  11  136.97   10.91
  -4   1  11  115.84   14.18
   4  -1 -11  114.19   11.39
  -4  -1  11  137.69   15.83
  -4  -1  11  132.39   14.97
   4  -1 -11   98.08   16.97
   4   1 -11  119.14   17.51
   4  -1 -10  135.17   10.36
  -4   1  10  130.45   14.48
   4   1 -10  126.23   13.41
  -4   1  10  137.02   14.57
  -4  -1  10  153.10   15.32
   4   1 -10  148.86   13.87
  -4  -1  10  154.59   10.51
   4  -1 -10  130.51   11.34
   4   1 -10  108.41    9.51
   4  -1 -10  149.74   17.32
  -4  -1  10  145.66   14.82
   4   1 -10  121.37   17.00
   4  -1  -9  505.02   27.25
   4   1  -9  513.58   30.58
  -4   1   9  496.45   30.35
  -4   1   9  568.64   31.86
  -4  -1   9  562.75   32.56
  -4  -1   9  422.22   26.29
   4  -1  -9  463.95   28.17
   4   1  -9  549.95   30.74
   4  -1  -9  506.18   33.44
   4   1  -9  444.27   33.71
  -4   1   9  593.22   31.67
  -4  -1   9  580.90   31.52
   4   1  -8  115.46   11.50
   4  -1  -8  127.70   12.61
   4  -1  -8  100.00    7.77
   4   1  -8   85.99   13.82
   4   1  -8   91.58   12.16
  -4   1   8  128.86   12.03
   4  -1  -8   95.03   13.36
  -4  -1   8  127.81   11.99
   4  -1  -8   98.26    8.88
   4   1  -8  100.68   10.91
  -4   1   8  115.87   11.90
  -4  -1   8  107.39   12.52
   4  -1  -7 1226.92   60.98
   4   1  -7 1240.63   64.58
   4  -1  -7 1501.71   66.39
   4   1  -7 1230.23   67.17
  -4   1   7 1407.77   64.91
  -4  -1   7 1420.69   64.56
   4   1  -7 1326.96   66.49
   4  -1  -7 1327.09   66.60
  -4   1   7 1467.76   65.49
  -4  -1   7 1487.90   66.64
   4  -1  -7 1265.07   62.29
   4  -1  -7 1365.87   64.93
   4   1  -7 1378.95   64.73
   4   1  -6   12.64    6.71
   4   1  -6    1.22    8.25
   4  -1  -6    6.58    6.60
   4  -1  -6    0.36    7.88
   4   1  -6    6.07    7.34
  -4   1   6    0.80    6.22
  -4  -1   6    5.00    5.77
   4  -1  -6    5.47    6.13
   4   1  -6    3.30    5.92
  -4   1   6   -1.63    5.82
  -4  -1   6    4.12    6.77
   4  -1  -6    8.51    4.06
  -4  -1   6   -0.17    2.88
   4  -1  -5  582.12   31.82
   4   1  -5  517.45   31.43
   4   1  -5  518.20   32.14
   4  -1  -5  545.51   32.01
  -4   1   5  586.17   31.01
  -4  -1   5  546.52   30.03
   4   1  -5  591.33   32.53
   4   1  -5  565.78   30.85
   4  -1  -5  504.42   28.39
  -4   1   5  537.80   30.64
  -4  -1   5  548.78   31.68
   4  -1  -5  568.87   30.82
  -4  -1   5  499.47   28.58
   4   1  -4  205.75   15.60
   4  -1  -4  225.16   15.14
  -4   1   4  238.19   14.80
  -4  -1   4  207.17   13.54
   4  -1  -4  214.78   15.49
   4   1  -4  267.47   16.40
   4   1  -4  215.29   15.52
   4   1  -4  205.07   14.26
  -4   1   4  224.10   14.06
  -4  -1   4  217.38   15.44
   4  -1  -4  196.41   11.81
   4  -1  -4  191.57   11.84
   4  -1  -4  238.48   14.37
  -4  -1   4  207.65   12.93
   4   1  -3    3.40    5.55
   4  -1  -3    4.72    6.44
   4  -1  -3    5.29    5.19
   4   1  -3    0.27    5.27
   4   1  -3    2.46    5.46
  -4   1   3    2.92    5.44
  -4  -1   3   -4.71    4.39
   4  -1  -3    1.56    4.40
   4   1  -3   -1.54    4.85
  -4   1   3    0.34    4.03
  -4  -1   3    5.45    5.91
   4  -1  -3    4.89    2.86
  -4  -1   3   -0.88    4.17
   4  -1  -3   -1.02    2.80
   4  -1  -2 1233.38   64.34
   4   1  -2 1125.23   65.44
  -4   1   2 1430.38   64.54
  -4  -1   2 1145.85   63.07
   4  -1  -2 1271.31   64.89
   4   1  -2 1186.74   63.83
   4   1  -2 1219.07   64.59
   4   1  -2 1176.62   64.08
  -4   1   2 1228.79   63.50
  -4  -1   2 1278.58   65.39
   4  -1  -2 1166.25   62.61
   4  -1  -2 1312.29   63.41
  -4  -1   2 1172.59   64.16
   4  -1  -1  878.88   45.48
   4   1  -1  861.85   47.05
   4  -1  -1  826.73   46.89
   4   1  -1  805.92   45.87
   4  -1  -1  950.70   47.92
   4   1  -1  866.64   46.55
  -4   1   1  901.86   48.33
   4   1  -1  874.39   47.21
  -4   1   1  925.60   46.49
  -4  -1   1  963.65   48.73
   4  -1  -1  864.27   46.17
   4  -1  -1  970.71   46.12
   4   1  -1  842.01   46.91
   4  -1  -1  873.59   46.20
  -4  -1   1  909.46   47.98
   4   1   0 1629.03   88.22
   4  -1   0 1807.08   88.74
   4   1   0 1617.81   88.49
   4  -1   0 1659.87   88.73
   4  -1   0 1977.39   90.02
   4   1   0 1775.94   88.50
  -4   1   0 1862.36   90.20
   4  -1   0 1985.00   87.93
   4   1   0 1768.10   89.39
  -4  -1   0 1940.34   91.07
  -4   1   0 1799.13   88.68
   4   1   0 1580.04   87.28
   4  -1   0 1734.67   88.72
  -4  -1   0 1472.11   87.24
  -4  -1   0 1827.74   90.57
   4  -1   0 1969.00   89.11
   4   1   0 1736.45   88.80
   4   1   1 1648.47   89.03
   4  -1   1 1691.12   89.99
   4  -1   1 1666.97   88.96
   4   1   1 1620.36   88.57
   4  -1   1 1949.39   90.30
   4   1   1 1739.08   88.81
  -4   1  -1 1727.54   90.12
   4  -1   1 1795.45   88.13
   4   1   1 1770.32   89.96
  -4  -1  -1 1635.43   88.56
  -4  -1  -1 1838.04   91.66
   4  -1   1 1747.82   89.73
   4   1   1 1684.45   88.50
   4   1   1 1705.85   89.04
   4  -1   1 1924.97   90.22
  -4  -1  -1 1855.19   91.74
   4   1   2  791.88   43.79
   4  -1   2  826.53   43.14
   4  -1   2  790.84   45.20
   4   1   2  777.77   42.50
   4  -1   2  890.14   44.48
   4   1   2  815.74   43.03
  -4   1  -2  826.89   44.12
  -4  -1  -2  858.15   43.90
   4  -1   2  757.69   42.27
   4   1   2  835.79   44.40
  -4  -1  -2  812.47   46.12
   4  -1   2  832.16   44.56
   4   1   2  836.25   43.60
  -4  -1  -2  888.74   46.50
   4   1   2  806.63   43.12
   4  -1   2  918.21   45.31
  -4   1  -3  923.59   48.33
   4   1   3  956.92   50.03
   4  -1   3  865.49   51.54
   4   1   3  916.73   47.76
  -4   1  -3  936.14   49.49
   4  -1   3  926.01   48.45
   4  -1   3  945.06   49.83
   4   1   3  887.07   48.52
   4  -1   3  835.36   48.02
   4   1   3  998.79   50.24
   4  -1   3  952.65   50.65
   4   1   3  962.35   49.92
  -4   1  -3  913.94   49.86
  -4  -1  -3  980.94   50.40
   4  -1   3  948.46   48.04
  -4  -1  -3 1053.40   52.96
   4   1   3  929.98   48.55
   4  -1   3  996.70   51.20
  -4   1  -4   34.84    5.10
   4   1   4   27.29    6.92
  -4  -1  -4   32.79    8.62
   4  -1   4   27.44    8.63
   4  -1   4   33.61    4.37
   4   1   4   32.58    3.22
   4  -1   4   34.09    6.40
  -4   1  -4   36.35    5.51
   4  -1   4   33.62    4.57
   4   1   4   27.01    6.15
   4  -1   4   26.62    6.92
   4   1   4   35.47    6.86
   4  -1   4   37.41    3.86
   4  -1   4   27.01    6.76
  -4  -1  -4   32.54    7.25
  -4   1  -4   32.96    6.73
  -4   1  -5  159.90   11.01
   4   1   5  162.20   13.20
   4   1   5  147.91    8.22
   4  -1   5  147.24   14.99
   4  -1   5  145.71    9.54
  -4   1  -5  172.81   10.61
  -4   1  -5  166.04   13.16
   4   1   5  151.56   12.24
   4  -1   5  122.66   10.28
   4  -1   5  155.17   13.06
   4   1   5  166.60   13.02
  -4  -1  -5  155.73   13.32
  -4  -1  -5  146.08   14.74
   4   1   5  147.33    9.89
   4   1   5  166.17    9.85
   4  -1   5  140.68   13.12
  -4   1  -6  347.26   20.49
   4   1   6  333.54   22.49
   4  -1   6  324.42   18.44
   4  -1   6  339.11   25.08
  -4   1  -6  354.86   19.35
   4   1   6  319.85   20.84
   4   1   6  326.46   21.67
   4  -1   6  350.38   22.78
   4  -1   6  289.00   19.98
  -4  -1  -6  312.43   22.82
  -4   1  -6  356.03   22.77
   4   1   6  335.73   22.35
  -4  -1  -6  369.07   24.64
   4  -1   6  329.42   17.72
   4   1   6  331.02   19.05
   4  -1   6  345.77   17.77
   4   1   6  345.37   18.76
   4  -1   6  311.20   22.30
  -4   1  -7   81.68    6.99
   4  -1   7   68.77    6.11
  -4  -1  -7   84.06    8.60
  -4   1  -7   81.21    8.93
   4   1   7   80.86   11.16
   4  -1   7   80.37   13.95
   4   1   7   70.01    9.43
   4   1   7   65.22    9.86
   4  -1   7   68.60    8.81
   4   1   7   68.24   10.36
   4  -1   7   79.89   11.04
   4  -1   7   62.59   10.25
  -4  -1  -7   81.10   11.30
  -4   1  -7   86.01   11.19
   4   1   7   76.26    6.97
   4   1   7   85.46    6.59
  -4   1  -8 1450.96   76.50
   4   1   8 1583.06   79.81
   4  -1   8 1483.95   82.18
  -4   1  -8 1467.15   74.28
   4  -1   8 1373.77   73.51
  -4  -1  -8 1555.57   76.17
   4   1   8 1442.47   77.47
   4  -1   8 1527.35   79.05
   4   1   8 1425.47   78.22
   4  -1   8 1354.50   77.18
  -4   1  -8 1552.39   79.43
  -4  -1  -8 1430.72   79.47
   4  -1   8 1428.63   76.22
   4   1   8 1400.37   78.30
   4   1   8 1354.19   74.38
   4  -1   8 1475.22   78.66
  -4  -1  -9   66.72    8.78
  -4   1  -9   65.36    9.38
   4   1   9   77.72   13.40
   4  -1   9   73.10   15.62
   4  -1   9   65.14   10.25
   4   1   9   48.46   10.47
  -4   1  -9   57.39    6.36
   4   1   9   65.37   11.86
   4  -1   9   65.57    9.64
   4   1   9   70.33   11.32
   4  -1   9   51.48   11.06
  -4  -1  -9   51.17   11.43
  -4   1  -9   89.70   12.22
   4  -1   9   56.09   10.90
  -4  -1 -10  887.97   48.41
  -4   1 -10  870.65   49.01
   4   1  10  934.18   53.53
   4  -1  10  918.88   55.93
  -4   1 -10  874.85   45.87
   4   1  10  796.63   50.38
   4  -1  10  866.99   50.03
  -4  -1 -10  918.06   52.88
   4  -1  10  917.36   51.70
   4   1  10  873.06   52.24
  -4   1 -10  848.07   51.93
   4   1  10  857.20   51.04
   4  -1  10  886.00   49.00
  -4  -1 -10  829.29   45.45
   4  -1  11  148.85   20.67
  -4   1 -11  139.46    9.56
   4   1  11  120.08   17.77
  -4  -1 -11  121.83   16.52
   4  -1  11  100.71   13.73
   4   1  11  106.45   14.59
   4   1  11  138.02   16.54
   4  -1  11  113.65   13.16
  -4  -1 -11  136.54   16.77
  -4   1 -11  133.91   15.91
  -4  -1 -11  116.50    8.70
   4  -1  12  120.32   20.48
  -4   1 -12  103.14    8.32
   4   1  12   79.82   16.41
  -4  -1 -12  129.14   16.41
   4   1  12   93.24   14.18
   4   1  12   96.22   16.21
   4  -1  12   95.62   12.71
  -4  -1 -12   78.19    7.15
  -4  -1 -12  110.95   15.86
  -4   1 -12  106.04   15.14
   4  -1  13   86.13   20.28
  -4   1 -13   94.96    8.18
   4   1  13   98.02   18.49
  -4  -1 -13   99.17   15.84
   4  -1  13   92.40   12.75
  -4  -1 -13   69.10    6.69
  -4  -1 -13  112.13   16.60
  -4   1 -13  111.84   15.85
   4  -1  14   30.78   18.86
   4   1  14   -9.19   16.20
  -4   1 -14   15.67    5.65
   4   1  14   22.37   11.25
   4  -1  14   25.97   10.85
  -4  -1 -14   21.42   13.69
  -4  -1 -14    9.78    3.83
  -4   1 -14   25.54   13.01
   4  -1  15  103.53   23.54
   4   1  15   97.22   20.69
  -4   1 -15   68.15    8.29
   4   1  15  120.50   15.68
   4  -1  15  107.81   14.60
  -4  -1 -15  102.59   17.90
  -4   1 -15   90.23   16.86
   4  -1  16  284.58   32.20
   4   1  16  284.71   29.90
  -4  -1 -16  326.88   26.71
  -4   1 -16  287.76   26.14
   4   1  16  312.66   23.38
   4  -1  16  249.96   21.65
   4  -1  17   91.40   25.04
   4   1  17   97.34   23.60
   4   1  17   55.36   14.93
   4  -1  17   60.42   14.75
  -4  -1 -17   28.84   15.81
  -4   1 -17   59.27   16.66
  -4   2  16   43.43   15.48
  -4  -2  16  105.50   21.76
  -4   2  16  126.48   17.87
  -4  -2  16  126.99   18.18
   4  -2 -16  111.78   21.51
   4   2 -16  121.14   20.16
  -4   2  15   13.42   11.59
  -4  -2  15   39.03   17.20
   4   2 -15   72.18   17.36
   4  -2 -15   37.02   17.50
  -4   2  15   37.23   13.32
  -4  -2  15   59.38   13.92
  -4   2  14   54.01   13.31
  -4  -2  14   94.54   19.76
   4   2 -14   69.44   16.81
   4  -2 -14   58.79   18.28
  -4   2  14   68.88   13.55
  -4  -2  14   78.80   15.22
   4  -2 -14   75.87   11.50
  -4  -2  14   64.85    7.27
  -4  -2  14   82.97   10.56
  -4   2  13   69.10   13.57
  -4  -2  13   96.50   19.26
   4   2 -13   82.16   13.53
   4  -2 -13   91.23   18.41
   4   2 -13  102.59   17.16
  -4   2  13   79.96   13.55
  -4  -2  13  128.04   16.43
   4  -2 -13  102.93   12.27
  -4  -2  13   87.93    8.14
  -4  -2  13  102.34   10.72
  -4   2  12   -1.03    9.01
  -4  -2  12    2.78    4.71
   4   2 -12   -4.30    9.80
   4  -2 -12   -1.49   13.58
   4   2 -12   -6.25   12.35
  -4   2  12    6.76    9.00
  -4  -2  12   18.47   11.50
   4  -2 -12   -5.40    8.04
  -4  -2  12    4.52    6.37
   4   2 -11  323.72   24.53
  -4   2  11  311.84   23.27
   4  -2 -11  343.48   19.50
   4  -2 -11  357.35   28.45
   4   2 -11  350.10   28.03
  -4  -2  11  363.03   25.79
  -4   2  11  317.14   24.75
  -4  -2  11  430.02   27.61
   4  -2 -11  336.66   22.63
  -4  -2  11  337.01   20.87
  -4  -2  11  338.35   19.66
   4   2 -10  590.40   37.42
  -4   2  10  535.18   34.93
  -4   2  10  587.58   37.44
  -4  -2  10  733.77   40.08
   4  -2 -10  595.89   35.25
  -4  -2  10  605.11   33.38
   4  -2 -10  642.41   40.27
   4   2 -10  629.56   40.56
  -4  -2  10  659.95   38.07
   4   2  -9  469.74   31.15
  -4   2   9  411.13   27.84
  -4   2   9  477.83   30.94
  -4  -2   9  578.13   33.19
   4  -2  -9  462.18   28.91
  -4  -2   9  550.36   26.89
   4   2  -9  520.60   30.54
   4   2  -9  418.20   33.18
  -4  -2   9  505.73   31.02
   4  -2  -9  473.45   32.84
   4   2  -8 2027.46  110.31
   4  -2  -8 2201.94  110.08
   4   2  -8 1827.96  111.67
  -4   2   8 2132.44  109.40
  -4  -2   8 2167.58  109.02
   4  -2  -8 1885.99  110.68
  -4   2   8 2118.81  109.52
   4  -2  -8 1864.67  107.42
  -4  -2   8 2269.56  111.38
  -4  -2   8 2113.86  105.33
   4   2  -8 2165.49  109.34
   4   2  -7   22.88    9.16
  -4  -2   7   35.63    7.86
   4  -2  -7   29.22    8.58
   4  -2  -7   22.76    9.79
   4   2  -7   17.17   10.23
  -4   2   7   25.20    8.47
   4   2  -7   22.74    7.57
  -4   2   7   23.71    7.64
  -4  -2   7   39.94    9.32
   4  -2  -7   21.14    6.30
   4   2  -6  889.13   49.41
   4  -2  -6  917.69   48.13
   4   2  -6  772.52   49.33
  -4   2   6  918.96   47.68
  -4  -2   6  870.31   46.33
   4  -2  -6  853.77   48.77
   4   2  -6  851.44   47.42
  -4   2   6  856.10   46.89
  -4  -2   6  896.52   48.97
   4  -2  -6  797.80   45.63
   4   2  -5   23.53    8.79
   4  -2  -5    4.15    7.44
   4  -2  -5   22.36    6.84
   4   2  -5   22.34    8.37
  -4   2   5    9.90    6.72
  -4  -2   5    9.30    5.03
   4   2  -5   10.01    6.12
  -4   2   5   17.60    5.36
  -4  -2   5    3.75    7.10
   4  -2  -5    6.36    4.58
   4  -2  -4  119.49   10.36
   4   2  -4  118.05   12.30
   4   2  -4  108.30   11.27
  -4   2   4  133.83   10.79
  -4  -2   4  101.99    8.35
   4  -2  -4  112.15   11.56
   4   2  -4  130.14   10.59
  -4   2   4  104.84    8.67
  -4  -2   4  131.27   11.90
   4  -2  -4   98.75    8.55
   4   2  -4  125.16   10.29
   4   2  -3   83.32   10.51
   4  -2  -3   96.51    8.79
   4  -2  -3   88.43   10.22
   4   2  -3   92.85    9.35
  -4   2   3   89.21    8.99
  -4  -2   3   74.86    6.64
   4   2  -3   88.45    8.93
  -4   2   3   81.34    6.77
  -4  -2   3  105.67   10.63
   4  -2  -3   92.16    7.64
   4  -2  -3   96.79    7.38
   4   2  -3   96.92    8.71
   4  -2  -3   79.53    5.95
   4   2  -2   -2.15    7.35
   4  -2  -2    4.00    5.01
  -4  -2   2    6.82    3.54
  -4   2   2    6.62    5.85
  -4   2   2    7.66    6.13
   4   2  -2    6.54    5.37
   4   2  -2    8.96    5.36
   4  -2  -2    6.44    6.59
  -4  -2   2    4.49    6.70
   4   2  -2    9.01    5.47
  -4   2   2    5.17    3.12
   4  -2  -2    6.15    3.94
  -4  -2   2    6.41    4.93
   4   2  -2    4.06    5.08
   4  -2  -2    3.10    4.13
   4  -2  -1  735.38   38.49
  -4   2   1  748.36   39.72
   4  -2  -1  804.68   40.03
   4   2  -1  759.21   38.85
   4   2  -1  718.01   37.63
   4   2  -1  763.12   39.45
  -4  -2   1  801.61   41.19
  -4   2   1  605.60   36.17
  -4  -2   1  682.15   36.31
   4  -2  -1  730.35   38.11
   4   2  -1  754.60   38.53
  -4  -2   1  752.88   39.12
   4  -2  -1  755.58   38.37
   4  -2   0  283.91   16.47
   4  -2   0  324.28   18.46
  -4   2   0  281.68   17.67
   4   2   0  277.06   15.37
   4   2   0  292.94   16.45
   4   2   0  265.55   17.41
  -4  -2   0  297.69   19.53
   4  -2   0  290.90   16.69
  -4  -2   0  285.36   15.73
   4   2   0  279.65   16.52
  -4  -2   0  281.09   17.54
   4  -2   0  294.40   17.38
   4   2   1 1105.49   59.10
   4  -2   1 1173.31   59.27
  -4   2  -1 1142.20   60.15
   4  -2   1 1021.84   59.28
  -4   2  -1 1094.39   57.48
   4  -2   1 1288.71   60.82
   4   2   1 1112.83   57.90
   4   2   1 1125.33   58.63
   4  -2   1 1215.34   60.05
   4   2   1 1133.58   60.37
  -4  -2  -1 1238.19   62.79
  -4  -2  -1 1093.30   59.42
   4  -2   1 1085.75   60.59
   4   2   1 1124.42   59.21
  -4  -2  -1 1244.95   61.14
   4   2   2  914.05   49.31
  -4   2  -2  951.29   47.97
   4   2   2  891.83   47.93
  -4   2  -2  947.52   49.88
   4  -2   2  922.65   50.58
   4  -2   2  958.72   48.98
   4  -2   2 1030.69   50.58
   4   2   2  868.16   47.68
   4  -2   2  992.69   50.32
   4   2   2  978.29   50.85
  -4  -2  -2 1029.46   53.33
  -4  -2  -2  909.56   50.14
   4   2   2  909.81   49.08
   4  -2   2  879.04   50.89
   4   2   2  890.14   48.91
  -4  -2  -2  984.97   51.60
   4  -2   3   36.90    8.24
   4   2   3   24.52    5.84
  -4   2  -3   37.78    4.98
   4  -2   3   28.47    6.96
   4  -2   3   38.22    5.19
   4   2   3   33.16    3.51
   4   2   3   32.69    4.98
  -4   2  -3   35.73    5.93
   4  -2   3   33.64    7.01
   4   2   3   37.15    4.48
   4   2   3   30.02    6.78
  -4  -2  -3   34.31    6.87
   4  -2   3   36.41    6.79
  -4  -2  -3   30.89    7.99
   4   2   3   36.95    6.44
   4   2   4  512.17   27.26
  -4   2  -4  515.76   26.19
  -4   2  -4  478.35   26.26
   4  -2   4  557.47   30.56
   4  -2   4  507.69   25.46
   4   2   4  454.20   23.47
   4   2   4  478.92   23.49
   4   2   4  494.62   26.16
   4   2   4  425.50   24.53
   4  -2   4  482.40   27.20
   4  -2   4  358.18   23.66
   4   2   4  483.86   27.83
  -4  -2  -4  496.35   28.71
   4   2   4  521.08   27.35
   4  -2   4  559.58   28.42
   4  -2   4  397.25   23.78
   4  -2   4  484.74   28.92
   4   2   4  514.42   25.99
   4   2   4  520.45   25.53
  -4  -2  -4  501.05   29.30
   4  -2   4  504.57   24.22
  -4   2  -5  549.32   28.79
  -4   2  -5  550.06   29.28
   4   2   5  549.10   30.20
   4  -2   5  535.70   33.51
   4  -2   5  527.62   27.77
   4   2   5  498.92   29.28
  -4   2  -5  520.07   30.57
   4   2   5  490.93   30.52
   4  -2   5  407.62   26.89
  -4  -2  -5  509.17   31.56
   4   2   5  554.16   30.43
   4  -2   5  530.93   30.84
   4  -2   5  470.62   27.10
   4  -2   5  520.75   31.73
   4  -2   5  512.70   26.28
   4   2   5  561.34   28.49
   4   2   5  549.43   28.02
  -4  -2  -5  554.92   32.51
   4  -2   6   -3.51   10.09
  -4   2  -6   15.72    6.16
   4   2   6    5.60    7.12
  -4  -2  -6    7.03    8.10
   4  -2   6    2.21    7.76
   4  -2   6    7.33    3.92
  -4   2  -6    9.91    4.85
   4   2   6    8.80    6.79
   4   2   6    7.46    7.22
   4  -2   6    4.67    4.29
   4  -2   6    9.85    4.42
   4   2   6   12.15    4.30
  -4  -2  -6   10.89    7.61
   4  -2   6    8.41    7.22
  -4  -2  -6   -1.02    4.45
  -4   2  -6    6.71    7.33
   4   2   6    7.39    4.77
   4  -2   6    6.59    1.67
   4   2   6    8.06    7.25
  -4   2  -7  816.03   47.20
   4  -2   7  871.68   44.78
   4   2   7  900.47   48.56
   4  -2   7  802.27   51.80
  -4   2  -7  856.81   45.57
   4   2   7  772.10   47.51
   4   2   7  825.70   48.72
   4  -2   7  781.28   46.07
  -4   2  -7  880.45   49.08
   4  -2   7  888.20   48.69
  -4  -2  -7  849.25   49.94
   4   2   7  880.76   48.46
   4  -2   7  774.83   45.32
  -4  -2  -7  966.23   45.54
   4  -2   7  869.13   49.47
   4   2   7  824.25   45.62
   4   2   7  868.38   44.99
   4  -2   8  106.86   16.36
  -4   2  -8  130.46   12.21
  -4   2  -8  102.24    9.17
   4   2   8  109.23   13.46
   4  -2   8  114.27   13.54
   4  -2   8  110.24    8.55
   4   2   8  108.82   12.81
   4   2   8  103.09   13.06
   4  -2   8   99.12    9.75
   4   2   8  109.15   12.85
  -4  -2  -8  122.58    9.26
   4  -2   8  103.14   12.40
  -4  -2  -8  115.48   14.36
  -4   2  -8  118.98   13.53
   4   2   8  109.64    9.70
  -4   2  -9 1085.37   59.78
   4   2   9 1098.97   61.43
   4  -2   9 1022.41   65.27
  -4   2  -9 1116.38   57.16
   4  -2   9 1018.53   56.09
   4   2   9 1022.35   60.54
  -4   2  -9 1173.02   62.40
   4   2   9 1097.63   61.95
   4  -2   9 1082.56   60.79
  -4  -2  -9 1151.56   63.04
   4   2   9 1062.38   60.74
   4  -2   9 1011.27   57.88
  -4  -2  -9 1149.64   56.87
   4   2   9 1041.24   57.48
   4  -2   9 1112.25   61.69
   4  -2  10   77.98   17.40
  -4   2 -10   74.62   11.48
   4   2  10   59.87   12.91
  -4   2 -10   73.64    7.99
   4   2  10   65.08   12.81
   4   2  10   49.81   12.62
   4  -2  10   63.99    9.35
   4   2  10   67.37   11.96
  -4  -2 -10   73.06   13.25
  -4  -2 -10   73.86    7.45
  -4   2 -10   68.78   12.69
  -4   2 -11  893.68   46.04
   4   2  11  880.95   51.99
   4  -2  11  843.05   56.74
   4   2  11  819.94   50.46
  -4   2 -11  828.44   51.79
  -4  -2 -11  887.95   52.46
   4  -2  11  771.03   47.39
  -4  -2 -11  834.70   45.29
  -4  -2 -11  849.19   52.02
  -4   2 -12  133.60   11.16
   4  -2  12  116.34   22.28
   4   2  12  127.45   17.66
  -4  -2 -12  166.10   18.09
   4   2  12  133.22   16.77
   4  -2  12  128.44   13.57
  -4  -2 -12  116.41   10.03
  -4  -2 -12  159.17   18.20
  -4   2 -12  129.24   17.54
  -4   2 -13  123.22   10.66
   4  -2  13  139.19   23.29
   4   2  13  136.89   19.30
  -4  -2 -13  142.07   18.60
   4   2  13  100.62   16.20
   4  -2  13  107.07   13.30
  -4  -2 -13   96.26    9.25
  -4  -2 -13  147.79   18.37
  -4   2 -13  120.92   17.08
   4   2  14  275.21   26.26
   4  -2  14  358.54   33.59
  -4   2 -14  267.93   16.85
   4  -2  14  281.04   20.59
  -4   2 -14  248.60   24.24
  -4  -2 -14  322.58   25.88
  -4  -2 -14  165.41   14.83
  -4  -2 -14  268.46   24.29
   4  -2  15  121.12   25.50
   4   2  15  120.29   20.52
  -4  -2 -15  130.68   18.18
  -4   2 -15   78.94    9.70
   4  -2  15   97.90   14.49
  -4  -2 -15   97.62   18.45
  -4   2 -15  101.04   17.71
   4  -2  16  100.43   24.97
   4   2  16  104.26   21.44
  -4   2 -16   48.26    8.44
   4   2  16   73.82   15.59
   4  -2  16  113.89   15.55
  -4  -2 -16  111.13   19.33
  -4   2 -16   89.94   18.11
   4  -2  17  285.24   34.42
   4   2  17  267.56   29.50
   4  -2  17  296.35   21.83
   4   2  17  294.66   23.30
  -4  -2 -17  309.28   26.79
  -4   2 -17  238.28   25.48
  -4   3  16   27.50   13.62
  -4  -3  16   42.49   18.79
   4  -3 -16   36.97   19.07
  -4   3  16   29.58   13.68
  -4  -3  16   58.60   15.14
   4   3 -16   22.78   11.55
   4  -3 -15   78.58   19.72
   4   3 -15   71.44   17.01
  -4   3  15   58.63   14.82
  -4  -3  15   87.49   16.88
   4   3 -15  100.39   13.72
  -4   3  14   25.45   11.39
   4  -3 -14   68.51   18.38
   4   3 -14   64.81   16.08
  -4   3  14   57.38   13.11
  -4  -3  14   51.90   14.86
   4  -3 -14   67.21   12.03
   4   3 -14   60.65   12.02
  -4   3  13   19.25    9.67
  -4  -3  13   12.43    6.31
   4  -3 -13   23.14   15.81
   4   3 -13   16.95   12.88
  -4   3  13   -2.37    9.69
  -4  -3  13    5.80   12.26
  -4  -3  13   27.95    8.25
   4  -3 -13   14.93    9.50
   4   3 -13    5.76    9.37
  -4   3  12  115.08   15.35
   4   3 -12  150.26   18.59
   4  -3 -12  177.11   21.21
  -4  -3  12  233.68   20.82
   4  -3 -12  178.62   15.70
  -4   3  12  128.39   16.13
  -4  -3  12  198.55   13.91
   4   3 -12  143.68   15.63
   4   3 -11   89.01   14.35
  -4   3  11   86.18   12.31
  -4  -3  11   92.55   14.15
   4   3 -11   91.83   14.67
   4  -3 -11  108.55   17.21
  -4   3  11   80.28   12.56
  -4  -3  11  136.57   16.21
  -4  -3  11  122.21   10.40
   4  -3 -11   94.36   12.21
   4   3 -10  349.90   26.07
  -4   3  10  293.02   21.22
  -4   3  10  285.08   23.34
   4  -3 -10  337.53   22.60
  -4  -3  10  389.20   26.89
  -4  -3  10  377.57   20.92
   4  -3 -10  341.42   27.01
   4   3 -10  336.87   25.82
  -4  -3  10  330.66   24.63
   4   3  -9  773.08   42.75
   4   3  -9  642.49   41.14
  -4  -3   9  788.69   40.27
   4  -3  -9  778.45   42.96
   4  -3  -9  678.97   38.28
  -4   3   9  762.98   40.43
  -4  -3   9  806.75   42.72
  -4  -3   9  817.32   36.73
   4   3  -8  139.65   16.12
   4   3  -8  117.79   14.71
   4  -3  -8  165.07   16.44
  -4  -3   8  140.65   13.35
   4   3  -8  160.07   14.00
  -4  -3   8  152.31   10.39
  -4   3   8  126.98   13.18
   4  -3  -8  135.81   12.27
  -4  -3   8  154.31   15.43
   4   3  -8  138.63   13.47
   4   3  -7 1594.70   64.82
  -4   3   7 1543.65   60.64
  -4  -3   7 1518.89   58.85
   4  -3  -7 1467.71   62.39
   4   3  -7 1562.08   60.82
  -4   3   7 1589.61   60.10
  -4  -3   7 1594.12   63.29
   4  -3  -7 1420.54   58.53
   4   3  -7 1613.32   60.43
   4   3  -6   -2.71   10.15
  -4  -3   6   12.80    5.88
   4  -3  -6   -6.18    9.61
   4  -3  -6   12.48    7.11
  -4   3   6    9.72    7.68
   4   3  -6    7.76    7.51
   4   3  -6   15.18    7.18
  -4   3   6    9.71    5.96
  -4  -3   6   14.72    3.84
  -4  -3   6   10.17    9.01
  -4  -3   6   -5.32    2.41
   4   3  -6    5.37    6.83
   4  -3  -6   13.66    6.22
   4   3  -5  414.87   27.22
   4  -3  -5  415.80   23.31
   4   3  -5  338.01   22.59
  -4   3   5  405.15   23.32
  -4  -3   5  369.30   20.64
   4  -3  -5  393.86   24.61
  -4   3   5  380.02   21.40
   4   3  -5  427.67   23.71
  -4  -3   5  473.67   25.98
  -4  -3   5  402.75   19.24
  -4  -3   5  357.65   19.29
   4  -3  -5  372.69   21.85
   4   3  -5  431.17   23.01
   4  -3  -5  276.44   18.75
   4   3  -4   26.02    8.57
   4  -3  -4   16.64    4.11
   4  -3  -4   25.68    8.58
   4  -3  -4   14.49    6.28
  -4   3   4   16.51    7.24
   4   3  -4   12.77    5.63
  -4  -3   4   16.22    4.35
  -4  -3   4   14.83    8.14
  -4  -3   4   35.37    2.93
  -4   3   4   20.83    4.60
   4   3  -4   19.46    7.01
   4   3  -4   13.93    6.49
   4  -3  -4   22.82    6.22
  -4  -3   4   20.99    3.74
   4   3  -3   11.97    9.33
   4  -3  -3   13.48    4.50
   4  -3  -3   31.81    8.54
   4  -3  -3   26.07    6.17
  -4   3   3   25.04    7.21
  -4  -3   3   18.45    3.54
   4   3  -3    9.18    4.98
  -4  -3   3   26.19    8.29
   4   3  -3   22.88    6.78
  -4   3   3   16.76    3.54
  -4  -3   3   15.54    3.90
   4   3  -3   17.61    6.05
   4  -3  -2  232.53   15.54
   4   3  -2  237.79   19.79
   4   3  -2  216.04   13.40
  -4   3   2  224.33   16.39
   4  -3  -2  266.28   17.65
   4  -3  -2  258.72   15.60
   4   3  -2  255.40   16.84
  -4  -3   2  279.35   18.83
  -4  -3   2  236.98   14.19
   4   3  -2  226.16   15.52
   4  -3  -2  216.70   15.15
   4  -3  -1   29.10    6.48
   4  -3  -1   49.28    6.74
  -4   3   1   42.61    7.28
   4  -3  -1   51.56    8.86
  -4  -3   1   50.14    9.89
   4   3  -1   55.88    8.19
  -4  -3   1   47.79    6.25
   4  -3  -1   47.02    6.64
   4   3  -1   44.76    6.84
   4  -3   0  954.21   43.57
  -4   3   0  901.02   44.46
  -4   3   0  706.06   40.37
   4  -3   0  976.24   45.37
  -4  -3   0  887.40   43.56
   4   3   0  911.84   45.04
  -4  -3   0  952.13   47.69
   4  -3   0  951.00   44.21
   4   3   0  872.92   43.34
   4  -3   0  714.22   44.14
  -4   3  -1  457.23   24.86
   4  -3   1  367.10   26.07
   4   3   1  484.01   25.49
   4  -3   1  464.59   26.48
  -4   3  -1  461.31   27.35
   4  -3   1  522.40   28.59
  -4  -3  -1  509.66   27.97
   4   3   1  510.77   28.62
  -4  -3  -1  547.88   31.51
   4  -3   1  501.53   27.61
   4   3   1  458.38   26.52
  -4  -3  -1  517.23   28.45
   4  -3   1  421.43   28.13
   4   3   2  360.11   21.39
  -4   3  -2  365.46   20.39
   4  -3   2  327.27   22.35
  -4   3  -2  366.82   21.93
   4  -3   2  360.46   20.90
   4   3   2  343.44   19.38
   4  -3   2  358.15   22.69
   4   3   2  348.58   19.87
  -4  -3  -2  366.56   23.08
   4   3   2  377.11   23.37
  -4  -3  -2  373.14   26.26
   4  -3   2  376.03   22.37
  -4  -3  -2  389.77   23.19
   4  -3   2  352.78   23.42
   4   3   3  706.20   38.36
   4   3   3  651.16   35.64
  -4   3  -3  724.70   38.04
  -4   3  -3  716.73   38.59
   4  -3   3  728.43   40.79
   4  -3   3  725.38   37.60
   4   3   3  663.38   35.93
   4  -3   3  702.97   39.25
  -4  -3  -3  747.80   40.53
   4  -3   3  696.25   39.23
   4   3   3  734.00   40.24
   4   3   3  728.71   38.58
   4  -3   3  714.74   40.91
  -4  -3  -3  740.00   40.10
   4   3   3  713.68   37.58
   4  -3   4   33.51    9.35
   4   3   4   29.24    6.65
  -4   3  -4   32.27    6.64
   4  -3   4   35.48    8.49
   4  -3   4   38.23    5.53
  -4   3  -4   32.62    6.25
   4   3   4   24.38    4.40
   4  -3   4   34.62    7.80
   4   3   4   21.89    3.36
   4   3   4   39.86    8.25
  -4  -3  -4   46.45    9.14
  -4  -3  -4   34.93    8.48
   4  -3   4   35.02    7.50
  -4  -3  -4   26.68    5.61
   4   3   4   34.13    5.63
   4   3   4   30.88    6.20
   4   3   4   30.60    7.27
   4  -3   5    6.86    9.51
   4   3   5   15.96    6.64
  -4   3  -5   23.04    6.96
   4  -3   5   15.04    7.80
   4  -3   5   17.02    4.93
  -4   3  -5   23.79    5.76
   4  -3   5    8.44    7.35
   4   3   5   20.36    5.46
   4   3   5   12.32    7.59
   4   3   5   11.35    4.92
  -4  -3  -5   12.00    7.90
   4  -3   5   14.94    7.22
  -4  -3  -5   16.59    5.39
  -4  -3  -5   15.86    7.74
   4   3   5   10.32    5.47
   4  -3   5    7.61    2.47
   4   3   5   13.58    6.76
   4   3   6  625.92   33.16
  -4   3  -6  582.33   33.21
   4  -3   6  584.76   30.47
   4  -3   6  634.64   37.79
  -4   3  -6  582.38   31.43
   4   3   6  539.00   31.05
   4  -3   6  485.10   28.77
   4   3   6  570.63   34.11
  -4  -3  -6  650.15   35.69
   4  -3   6  444.59   29.04
   4   3   6  619.88   33.46
   4  -3   6  625.78   34.01
  -4  -3  -6  648.58   31.25
   4  -3   6  651.09   35.76
   4   3   6  571.63   31.44
   4   3   6  599.24   30.72
   4  -3   7   11.75   11.75
   4   3   7   12.53    7.53
  -4   3  -7    5.42    7.73
   4  -3   7   19.61    9.56
   4  -3   7    9.20    4.99
  -4   3  -7   11.12    5.98
   4   3   7   21.18    7.60
   4   3   7   17.85    8.78
   4  -3   7   11.10    4.36
  -4  -3  -7   26.59    9.70
   4  -3   7    2.79    7.64
   4   3   7   14.88    5.46
  -4  -3  -7   11.17    5.54
  -4   3  -7    5.64    8.30
   4   3   7   10.88    6.19
   4   3   7   17.35    8.79
   4  -3   8  994.42   50.95
   4   3   8  963.94   54.18
  -4   3  -8  941.00   54.30
  -4   3  -8 1019.71   51.92
   4  -3   8  956.26   59.16
   4   3   8  871.07   52.57
   4  -3   8  892.89   50.59
  -4   3  -8 1004.95   55.51
   4   3   8  939.08   55.44
  -4  -3  -8  994.30   56.53
   4   3   8  978.94   54.42
   4  -3   8  997.49   54.60
  -4  -3  -8 1003.63   51.50
   4  -3   8 1028.73   56.13
   4   3   8  873.33   51.88
   4  -3   9   74.14   16.69
   4   3   9   70.94   11.92
  -4   3  -9   71.31   11.84
  -4   3  -9   67.82    8.53
   4   3   9   60.55   10.81
   4  -3   9   70.63    7.57
   4   3   9   66.95   12.49
   4  -3   9   67.44    8.07
  -4  -3  -9   56.03   12.88
  -4  -3  -9   67.96    8.20
  -4   3  -9   67.46   12.67
   4   3   9   54.05    8.77
   4   3   9   85.76   12.21
  -4   3 -10  733.19   37.72
  -4   3 -10  659.90   40.60
   4   3  10  696.09   41.32
   4  -3  10  636.11   46.50
   4  -3  10  609.83   36.00
   4   3  10  607.04   39.08
   4  -3  10  591.73   36.95
  -4  -3 -10  729.10   43.22
  -4   3 -10  695.57   42.39
  -4  -3 -10  674.70   42.17
  -4  -3 -10  713.24   37.10
   4  -3  11   66.10   18.42
   4   3  11   83.69   14.27
  -4  -3 -11   84.75   14.69
  -4   3 -11   96.24   10.08
   4   3  11   75.64   12.84
   4  -3  11   82.44   10.17
  -4  -3 -11   77.08   15.13
  -4   3 -11   95.96   15.30
  -4  -3 -11   90.32    9.32
  -4   3 -12  303.26   19.07
   4   3  12  290.07   24.15
   4  -3  12  234.33   28.91
   4   3  12  255.56   21.69
   4  -3  12  245.21   19.06
  -4  -3 -12  308.91   25.22
  -4   3 -12  267.60   24.26
  -4  -3 -12  244.22   17.74
  -4  -3 -12  298.99   24.59
   4  -3  13  197.66   27.24
   4   3  13  188.08   20.69
  -4  -3 -13  178.81   19.88
  -4   3 -13  188.84   14.56
   4  -3  13  158.74   15.12
  -4  -3 -13  136.24   12.89
  -4  -3 -13  212.78   21.36
  -4   3 -13  198.21   20.87
   4  -3  14   -1.26   18.91
   4   3  14   32.69   15.59
  -4  -3 -14   13.19   12.62
  -4   3 -14   -3.28    6.95
   4  -3  14    2.61    8.84
  -4  -3 -14   11.34   12.99
  -4   3 -14    6.38   12.63
  -4  -3 -14    5.79    5.34
   4  -3  15  179.59   28.77
   4   3  15  198.69   23.44
  -4   3 -15  120.68   13.36
  -4  -3 -15  204.61   21.57
   4  -3  15  147.07   16.01
  -4  -3 -15  190.86   21.79
  -4   3 -15  184.61   21.61
   4  -3  16  236.78   32.93
   4   3  16  221.27   25.11
  -4  -3 -16  232.11   23.50
   4  -3  16  191.34   18.01
  -4  -3 -16  206.83   22.93
  -4   3 -16  207.01   23.11
   4  -4 -15   38.50   19.46
   4   4 -15   38.64   13.16
  -4   4  15    7.13   13.71
   4   4 -15   51.54   11.89
  -4   4  14   48.47   13.40
   4  -4 -14  112.25   21.05
   4   4 -14  104.18   15.89
  -4   4  14  101.05   16.55
   4  -4 -14  112.26   14.58
   4   4 -14  112.14   13.42
   4   4 -13   90.10   14.01
   4  -4 -13   57.68   17.70
  -4   4  13   54.11   13.49
   4  -4 -13   63.14   12.46
   4   4 -13   86.87   12.08
  -4   4  12   10.50    7.68
   4  -4 -12   14.45   14.51
   4   4 -12   -2.01   10.10
  -4   4  12    9.58   10.12
  -4  -4  12   12.00    7.24
   4  -4 -12   16.68    9.91
   4   4 -12    6.38    8.85
  -4   4  11   20.28    7.91
  -4  -4  11   45.47   11.46
   4  -4 -11   53.34   14.88
   4   4 -11   27.53   10.85
  -4   4  11   38.89   10.47
   4  -4 -11   53.91   10.26
  -4  -4  11   39.85    7.97
   4   4 -11   45.58   10.07
  -4   4  10   86.66   10.08
  -4  -4  10  123.82   14.03
   4   4 -10   95.77   13.75
  -4  -4  10  119.14   10.62
  -4   4  10   76.55   12.13
   4  -4 -10  117.10   12.89
   4   4  -9   43.07   13.91
  -4  -4   9   48.93   10.68
   4  -4  -9   51.94   13.68
  -4   4   9   38.58    9.44
   4  -4  -9   52.35    9.86
  -4  -4   9   59.02    7.31
   4   4  -8  460.32   33.51
   4  -4  -8  532.14   32.64
  -4  -4   8  465.31   28.73
  -4   4   8  400.86   28.56
  -4  -4   8  542.46   33.18
  -4  -4   8  459.66   26.22
   4  -4  -8  447.93   28.53
   4   4  -7   60.31   13.60
  -4  -4   7   38.17    7.86
   4  -4  -7   47.40   11.78
  -4   4   7   50.76   10.38
   4   4  -7   22.33    9.05
  -4   4   7   41.99    8.21
  -4  -4   7   40.44   11.56
   4  -4  -7   29.94    3.66
  -4  -4   7   40.11    5.69
   4   4  -7   40.02    9.03
   4  -4  -7   32.25    8.45
   4   4  -6  390.02   29.87
   4   4  -6  354.48   24.70
  -4  -4   6  365.68   22.18
   4  -4  -6  412.87   26.84
  -4   4   6  383.25   25.53
  -4   4   6  371.93   23.42
   4   4  -6  379.49   25.03
  -4  -4   6  390.13   27.29
   4  -4  -6  386.48   24.16
  -4  -4   6  385.46   21.50
   4   4  -6  386.22   24.55
   4   4  -5   43.30   13.09
   4  -4  -5   46.19   10.65
  -4   4   5   49.89    9.63
  -4  -4   5   46.24    5.82
   4   4  -5   43.16    8.48
  -4  -4   5   48.05   10.82
  -4  -4   5   53.34    6.75
  -4   4   5   55.27    7.09
   4   4  -5   45.92    9.09
  -4  -4   5   48.33    5.44
   4   4  -5   52.66    8.87
   4  -4  -5   39.45    8.66
   4  -4  -4  147.87   12.21
   4   4  -4  106.80   14.77
   4   4  -4  146.55   12.01
   4  -4  -4  133.40   14.05
  -4  -4   4  120.31    8.34
  -4   4   4  124.09    9.50
  -4  -4   4  136.44   14.62
   4   4  -4  144.71   12.95
   4  -4  -4  141.30   12.62
  -4  -4   4  156.05   10.50
  -4  -4   4  147.16    9.41
   4   4  -4  130.63   11.90
   4  -4  -3  544.54   28.28
   4   4  -3  500.17   33.25
   4   4  -3  490.35   27.69
   4  -4  -3  521.87   30.14
   4   4  -3  529.10   29.48
  -4  -4   3  499.10   31.23
  -4  -4   3  500.23   25.98
  -4  -4   3  541.06   26.93
   4   4  -3  519.59   28.12
   4  -4  -2  101.36    9.57
   4   4  -2  109.55   15.55
   4  -4  -2  103.01   11.99
   4   4  -2   88.38    8.88
  -4  -4   2  106.63   13.53
   4  -4  -2   97.93    9.63
  -4  -4   2   99.61    9.03
   4   4  -2   78.78   10.90
   4   4  -2   76.17    9.24
   4   4  -1  674.86   29.80
   4  -4  -1  686.50   31.03
   4  -4  -1  699.07   33.34
   4   4  -1  667.08   32.97
  -4  -4   1  670.67   35.50
  -4  -4   1  694.54   30.90
   4  -4  -1  709.60   31.91
   4   4  -1  661.14   30.90
  -4   4   0  536.72   30.76
  -4   4   0  593.18   33.62
   4  -4   0  562.08   32.52
   4   4   0  583.59   31.50
   4   4   0  591.71   34.77
  -4  -4   0  610.88   37.90
   4  -4   0  597.80   33.62
  -4  -4   0  626.21   33.62
   4  -4   0  609.96   34.84
   4   4   1  391.46   21.51
  -4   4  -1  349.69   22.38
  -4   4  -1  368.17   23.81
   4  -4   1  367.04   22.83
   4  -4   1  434.24   25.55
   4  -4   1  408.50   24.43
   4   4   1  395.58   25.30
  -4  -4  -1  432.84   28.86
  -4  -4  -1  420.36   24.58
  -4   4  -2  352.87   22.56
  -4   4  -2  300.33   21.84
   4   4   2  354.94   19.75
   4  -4   2  313.32   22.92
   4  -4   2  396.56   21.83
   4   4   2  391.06   22.42
   4  -4   2  376.08   23.81
  -4  -4  -2  422.22   24.32
   4   4   2  420.80   25.04
  -4  -4  -2  389.04   28.36
   4  -4   2  409.60   23.69
   4  -4   2  404.95   25.03
   4   4   2  353.00   22.28
   4   4   2  376.64   21.66
   4  -4   2  320.97   21.26
   4   4   3  146.38   11.47
  -4   4  -3  111.84   11.67
   4   4   3  121.02    7.89
   4  -4   3  159.59   10.80
   4  -4   3  101.78   12.23
   4  -4   3  137.48   13.69
  -4   4  -3  138.65   11.61
   4  -4   3  118.08   12.71
  -4  -4  -3  144.09   13.27
   4   4   3  133.00   13.45
  -4  -4  -3  125.08   16.45
   4  -4   3  145.04   12.34
  -4  -4  -3  135.39   10.67
  -4  -4  -3  145.32   13.05
   4   4   3  128.04   10.94
   4  -4   3  115.90    9.30
   4   4   3  151.34   10.71
   4   4   4  235.56   15.59
  -4   4  -4  238.07   16.92
   4  -4   4  232.29   14.30
   4  -4   4  218.44   17.63
   4   4   4  187.76   11.33
  -4   4  -4  243.43   15.52
   4   4   4  186.52   11.50
   4  -4   4  255.36   16.96
  -4  -4  -4  227.74   17.67
   4   4   4  242.29   17.73
   4  -4   4  219.43   16.29
  -4  -4  -4  240.51   14.81
  -4  -4  -4  241.12   16.99
   4   4   4  230.09   15.32
   4  -4   4  203.17   12.44
   4   4   4  254.79   14.66
   4  -4   4  266.88   18.84
   4  -4   5   15.92   10.68
   4   4   5    9.96    6.69
  -4   4  -5   21.20    8.54
   4  -4   5   19.32    9.24
   4  -4   5   17.13    5.37
  -4   4  -5   14.42    6.27
   4  -4   5    8.62    7.86
   4   4   5   10.83    8.55
   4   4   5   23.42    8.41
  -4  -4  -5   20.97    9.23
   4  -4   5   12.05    2.80
   4   4   5   16.71    5.81
   4  -4   5    9.51    7.35
  -4  -4  -5    9.38    5.82
   4  -4   5    9.86    2.75
   4   4   5   20.78    6.81
  -4  -4  -5   16.51    8.16
   4   4   6  138.83   12.36
   4  -4   6  133.64   10.39
   4  -4   6  141.48   17.32
  -4   4  -6  137.60   11.44
  -4   4  -6  122.15   13.94
   4  -4   6  150.03   13.41
   4   4   6   96.82    8.02
   4   4   6  155.17   14.82
   4   4   6  176.17   13.90
  -4  -4  -6  153.99   11.26
  -4  -4  -6  133.93   14.86
   4  -4   6  121.95   12.93
   4   4   6  135.74   11.88
   4  -4   6  169.23   15.35
   4   4   6  140.09   10.68
   4   4   7  329.02   21.59
   4  -4   7  329.16   19.02
  -4   4  -7  322.35   23.39
  -4   4  -7  364.88   20.65
   4  -4   7  329.36   27.18
   4   4   7  258.54   17.45
   4  -4   7  261.74   16.87
  -4  -4  -7  335.99   24.19
   4   4   7  298.84   23.23
   4   4   7  358.64   22.79
   4  -4   7  369.47   22.87
  -4  -4  -7  341.30   19.85
   4   4   7  313.48   20.41
   4  -4   7  347.06   24.25
   4   4   7  305.99   19.20
   4  -4   8  -13.28   14.42
   4   4   8    6.43    8.43
  -4   4  -8   -0.99   10.24
   4  -4   8    7.93    5.94
   4   4   8    1.09    5.94
  -4   4  -8    2.92    6.71
   4  -4   8    0.91    4.75
  -4  -4  -8   -4.64   10.67
  -4  -4  -8    7.72    6.27
   4   4   8    9.88    7.20
   4   4   8   -2.18    9.39
   4   4   9  683.22   39.85
  -4   4  -9  636.07   40.82
  -4   4  -9  687.77   37.53
   4  -4   9  667.18   46.22
   4  -4   9  683.73   36.23
   4   4   9  566.63   35.94
   4  -4   9  604.08   35.38
  -4  -4  -9  695.94   42.24
  -4  -4  -9  711.42   37.17
   4   4   9  628.56   37.89
   4  -4  10   64.84   18.00
   4   4  10   88.75   13.72
  -4  -4 -10   88.81   14.68
  -4   4 -10   78.28   10.40
   4   4  10   84.06   10.41
   4  -4  10   80.66    8.95
   4  -4  10   83.42    9.08
  -4  -4 -10   77.11   14.70
  -4  -4 -10   84.96    9.91
  -4   4 -11  206.07   15.12
   4   4  11  190.97   18.62
   4  -4  11  165.93   24.57
   4  -4  11  166.96   13.33
  -4  -4 -11  175.49   18.74
   4  -4  11  156.88   13.70
  -4  -4 -11  165.32   13.98
  -4  -4 -11  186.44   19.69
  -4   4 -11  167.87   19.30
   4  -4  12   69.70   20.27
   4   4  12   60.09   13.96
  -4  -4 -12   79.22   15.10
  -4   4 -12   67.43   10.12
   4  -4  12   54.45    9.35
  -4  -4 -12   69.10   14.61
  -4  -4 -12   56.03    8.98
  -4   4 -12   68.82   15.24
   4  -4  13    3.80   18.04
   4   4  13    5.42   12.73
  -4  -4 -13   -2.76   12.42
  -4   4 -13   -1.49    7.65
   4  -4  13   11.52    8.08
  -4  -4 -13   -9.53   12.90
  -4   4 -13   -2.26   12.45
  -4   4 -14   54.98    9.85
   4  -4  14   63.25   21.99
   4   4  14   55.33   16.25
  -4  -4 -14   61.15   15.46
  -4  -4 -14   50.22   14.99
  -4   4 -14   37.80   14.74
  -4   4 -15   47.23    9.70
   4  -4  15   22.70   22.70
   4   4  15   52.46   17.05
  -4  -4 -15   60.31   16.09
  -4   4 -15   44.20   15.05
   4  -5 -14   44.76   19.64
   4   5 -14   40.94   13.22
  -4   5  14   47.20   14.45
   4  -5 -14   44.26   13.41
   4   5 -14   52.97   11.95
   4  -5 -13    5.14   16.77
   4   5 -13   14.63   10.77
  -4   5  13   23.79   12.37
   4  -5 -13   11.18   11.04
   4   5 -13   24.39   10.27
  -4   5  12   32.56    9.11
   4  -5 -12   35.67   16.34
   4   5 -12   51.98   11.78
  -4   5  12   39.47   12.28
   4  -5 -12   51.57   12.12
   4   5 -12   52.82   11.06
  -4   5  11    9.11    7.37
  -4  -5  11   23.62   10.28
   4   5 -11   23.67   10.04
   4  -5 -11   35.56   15.93
  -4   5  11   22.78   10.94
   4  -5 -11   35.29   11.17
  -4  -5  11   22.33    7.26
   4   5 -11   33.21   10.13
  -4   5  10   -1.45    5.96
  -4  -5  10    8.33    8.82
   4  -5 -10    4.60   13.76
   4   5 -10    0.44    8.79
  -4   5  10    6.93    9.37
   4  -5 -10   11.58    9.87
  -4  -5  10    4.51    6.12
   4   5 -10    3.22    8.85
  -4   5   9   37.60    5.75
  -4   5   9   41.76    5.69
  -4  -5   9   53.54   10.48
   4  -5  -9   63.32   14.63
   4   5  -9   41.40   10.23
  -4   5   9   43.05    9.73
   4  -5  -9   64.49   11.24
  -4  -5   9   51.61    7.60
  -4  -5   8   17.60    8.72
   4  -5  -8   24.58   12.97
  -4   5   8   32.57   10.51
   4   5  -8    8.87    8.71
  -4   5   8   20.81    8.08
   4  -5  -8   23.18    4.56
  -4  -5   8   18.76    6.02
   4  -5  -8   24.21    9.55
   4   5  -7  194.72   16.33
  -4  -5   7  194.66   14.30
   4  -5  -7  197.48   19.41
   4  -5  -7  192.53   16.59
  -4  -5   7  189.37   13.38
  -4   5   7  148.43   14.63
  -4  -5   6    5.83    5.47
   4  -5  -6   -5.32   11.12
  -4   5   6   -1.31    8.66
   4   5  -6   -5.95    7.95
  -4   5   6   -4.43    7.42
  -4   5   6   -0.30    6.43
  -4  -5   6    1.55    5.27
   4   5  -6   -2.67    7.66
   4  -5  -6    2.59    8.74
   4   5  -5  186.29   20.63
   4   5  -5  173.42   14.35
  -4  -5   5  148.97   10.52
   4  -5  -5  206.43   17.83
  -4   5   5  171.52   15.55
  -4   5   5  156.48   12.66
  -4  -5   5  191.12   13.47
   4  -5  -5  165.92   15.73
  -4  -5   5  191.72   12.43
  -4   5   5  170.18   13.01
   4   5  -5  177.04   14.72
   4   5  -4  141.15   17.65
  -4   5   4  162.99   14.91
   4   5  -4  169.15   13.43
   4  -5  -4  172.59   16.45
  -4   5   4  152.91   11.42
  -4  -5   4  170.57   11.88
  -4   5   4  151.94   11.09
   4  -5  -4  175.97   15.31
  -4  -5   4  177.20   13.02
   4   5  -4  165.06   13.69
   4   5  -3  -13.69   12.69
   4   5  -3   -2.19    6.63
   4  -5  -3  -12.55   10.76
  -4   5   3   -4.45    4.00
  -4  -5   3   -1.23    5.55
   4   5  -3   -6.29    7.32
  -4  -5   3   -3.99    6.59
   4   5  -2  597.25   20.49
   4  -5  -2  607.28   25.62
  -4  -5   2  607.86   21.66
   4   5  -1  355.15   19.81
   4   5  -1  348.60   28.92
   4  -5  -1  348.43   23.57
   4   5  -1  346.40   23.83
   4  -5  -1  368.36   22.28
  -4  -5   1  399.92   22.12
   4  -5  -1  295.10   21.76
   4   5   0  360.57   21.77
  -4   5   0  303.92   23.50
   4  -5   0  429.62   23.99
   4  -5   0  416.58   26.61
   4   5   0  429.25   26.33
   4  -5   0  441.30   25.31
  -4  -5   0  449.79   25.06
   4  -5   0  344.51   23.76
  -4   5  -1  370.63   27.72
   4   5   1  436.55   24.89
  -4   5  -1  451.18   27.88
   4  -5   1  477.01   26.81
   4  -5   1  473.27   29.26
   4   5   1  489.65   29.90
   4  -5   1  467.13   28.47
  -4  -5  -1  522.09   28.87
   4   5   1  463.34   27.76
   4   5   1  505.31   27.02
   4  -5   1  400.18   26.43
  -4   5  -2  134.38   12.42
   4   5   2  125.77    9.07
   4  -5   2  139.40   11.40
  -4   5  -2  112.98   13.61
   4  -5   2  135.85   14.41
   4  -5   2  185.26   14.29
   4   5   2  196.04   16.39
  -4  -5  -2  153.20   14.12
   4   5   2  149.72   12.59
   4  -5   2  115.83   10.39
   4   5   2  146.98   11.53
  -4  -5  -2  145.91   11.78
  -4   5  -3  236.95   18.96
   4  -5   3  231.22   15.25
   4   5   3  212.44   12.82
  -4   5  -3  225.26   16.41
   4   5   3  215.03   15.91
   4  -5   3  193.11   17.48
  -4  -5  -3  228.57   22.72
   4  -5   3  228.79   17.52
  -4  -5  -3  267.12   18.63
  -4  -5  -3  245.01   15.66
   4   5   3  221.90   16.35
   4  -5   3  200.09   13.76
   4   5   3  231.42   15.47
   4  -5   4   56.14    7.33
   4   5   4   31.52    4.06
  -4   5  -4   50.33    8.41
   4  -5   4   36.35    9.93
   4   5   4   30.01    7.98
   4  -5   4   50.54   11.26
  -4   5  -4   32.62   10.76
  -4  -5  -4   49.36   10.44
   4   5   4   46.69    7.37
  -4  -5  -4   45.15    9.78
   4  -5   4   39.56    4.84
   4  -5   4   39.76    9.12
  -4  -5  -4   45.20    7.39
   4  -5   4   38.63    4.94
   4   5   4   52.01    8.67
   4   5   5  136.44   11.94
   4  -5   5  126.28   10.17
   4  -5   5  128.35   15.06
  -4   5  -5  111.94   11.14
   4   5   5   78.53    5.87
  -4   5  -5  142.35   14.80
   4  -5   5  135.90   13.26
   4  -5   5  159.40   13.19
  -4  -5  -5  139.38   10.97
  -4  -5  -5  138.77   14.26
   4   5   5  119.18   11.62
   4  -5   5  113.84    7.01
   4   5   5  141.40   10.56
  -4   5  -6   23.90    7.65
   4  -5   6   28.08    9.67
   4  -5   6   20.36   10.68
   4   5   6   21.57    8.08
  -4   5  -6   26.88   11.25
  -4  -5  -6   41.04   10.85
   4   5   6   28.81    7.02
   4  -5   6   13.99    2.56
   4   5   6   20.00    7.81
  -4   5  -7  123.40   11.44
   4  -5   7  117.91   16.67
   4   5   7  111.92   12.22
  -4   5  -7  123.84   15.53
   4  -5   7  116.32   13.51
   4   5   7   69.38    5.48
   4  -5   7   76.39    6.14
  -4  -5  -7   99.79   14.13
   4   5   7  104.42   11.64
   4   5   8  482.80   27.99
  -4   5  -8  408.69   30.31
  -4   5  -8  442.58   26.37
   4  -5   8  416.68   33.41
  -4  -5  -8  468.93   30.57
   4  -5   8  354.01   22.52
   4   5   8  414.16   26.85
   4  -5   9    0.96   17.03
   4   5   9   21.86   10.85
  -4   5  -9    5.71    7.89
   4  -5   9    5.97    5.66
  -4  -5  -9    7.55   12.04
  -4  -5  -9    9.11   10.87
   4   5   9   10.72    8.95
   4   5  10  201.21   18.52
  -4   5 -10  209.01   16.55
   4  -5  10  195.40   25.65
   4  -5  10  172.64   13.62
  -4  -5 -10  208.99   20.52
  -4  -5 -10  187.94   18.83
  -4   5 -11   73.34   10.84
   4  -5  11   40.78   19.28
   4   5  11   49.45   13.40
  -4  -5 -11   58.37   14.68
  -4  -5 -11   63.51   13.68
  -4   5 -12    5.36    8.77
   4  -5  12   15.08   18.48
   4   5  12   18.70   12.27
  -4  -5 -12    5.87   12.17
  -4  -5 -12    4.33   12.65
  -4   5 -13   15.93    9.39
   4  -5  13   -1.35   19.38
   4   5  13   10.60   13.11
  -4  -5 -13   22.81   13.20
  -4  -5 -13   20.13   13.54
  -4   5 -14   18.89    9.09
   4  -5  14   15.84   21.07
   4   5  14   21.10   14.67
  -4  -5 -14   24.67   13.57
  -4  -5 -14   25.44   14.24
   4   6 -12   -4.07    9.98
   4  -6 -12    3.22   16.18
  -4   6  12    1.68   11.21
  -4  -6  12  -16.44   15.92
   4  -6 -12   -8.47   11.58
   4   6 -12    4.02   10.02
   4   6 -11   48.47   11.94
   4  -6 -11   38.00   16.58
  -4   6  11   28.70   12.91
   4  -6 -11   60.07   13.45
   4   6 -11   48.31   11.13
  -4   6  10   53.27    9.44
   4   6 -10   35.41   11.65
   4  -6 -10   59.30   16.45
  -4   6  10   40.31   13.44
  -4   6  10   44.85   11.94
   4  -6 -10   49.32   12.64
   4   6 -10   50.35   11.46
  -4   6   9   49.35    8.37
   4   6  -9   28.03   11.01
  -4  -6   9   37.17   10.27
   4  -6  -9   40.32   15.05
  -4   6   9   38.32   12.30
  -4   6   9   36.33   11.82
  -4   6   9   35.37   10.89
  -4  -6   9   31.99    8.15
   4  -6  -9   43.18   12.34
   4   6  -9   44.02   10.68
  -4   6   8  160.79   11.27
   4   6  -8  131.56   15.49
   4  -6  -8  170.50   19.51
  -4   6   8  145.81   16.35
  -4  -6   8  153.43   13.61
  -4   6   8  150.02   14.96
  -4   6   8  105.75   13.35
   4  -6  -8  182.16   16.74
   4   6  -8  155.08   14.99
  -4  -6   8  146.15   12.17
  -4   6   7   21.29    5.97
  -4   6   7   -3.25    5.53
   4   6  -7   -2.61    8.69
  -4  -6   7    5.62    6.77
   4  -6  -7   11.83   13.00
  -4   6   7    4.86    9.58
  -4   6   7   -7.32    8.15
  -4   6   7    0.38    7.32
  -4  -6   7   -8.43    6.86
   4  -6  -7   -0.45    9.92
  -4   6   6  122.49    8.54
  -4   6   6  114.82    9.46
   4   6  -6  119.97   12.91
   4  -6  -6  111.48   15.99
  -4   6   6  144.83   14.52
  -4  -6   6  104.80    8.92
  -4   6   6  109.96   10.92
  -4  -6   6  134.72   12.57
  -4  -6   6  109.83   10.56
   4  -6  -6  119.25   14.55
  -4   6   5    6.45    3.87
   4   6  -5    3.70    7.61
   4  -6  -5    3.03   10.87
  -4   6   5   21.00    9.25
  -4  -6   5    4.43    3.02
  -4   6   5   -1.29    5.83
  -4   6   5    1.10    5.99
  -4  -6   5   11.34    8.26
  -4  -6   5   12.29    6.45
   4   6  -5    3.02    7.72
   4  -6  -5    5.29   10.14
  -4   6   4   47.48    6.75
  -4   6   4   22.99    3.85
   4   6  -4   32.48    7.80
   4  -6  -4   29.19   11.72
  -4   6   4   34.24    9.55
  -4   6   4   20.55    5.38
  -4   6   4   16.46    6.02
   4  -6  -4   31.81   10.78
  -4  -6   4   29.38    7.09
  -4  -6   4   30.83    8.58
  -4   6   3   67.31    4.90
  -4   6   3   99.80   10.25
   4   6  -3   89.10    8.91
  -4   6   3   82.79   11.14
   4  -6  -3   94.18   13.62
  -4   6   3   73.29    6.56
  -4  -6   3   93.65    9.14
  -4  -6   3  111.04   10.83
   4  -6  -3   89.85   11.53
   4   6  -2    7.28    5.95
   4  -6  -2   12.88   11.27
  -4   6   2    7.92    8.56
   4   6  -2    1.90    7.18
   4  -6  -2    7.16    7.99
  -4  -6   2    6.25    8.04
   4   6  -1  213.58   14.46
  -4   6   1  224.10   18.21
   4  -6  -1  249.05   20.07
   4  -6  -1  241.81   17.83
  -4  -6   1  256.80   17.63
   4   6  -1  191.01   16.58
   4   6  -1  203.02   15.79
   4  -6  -1  197.52   16.44
   4   6   0  139.42   10.36
  -4   6   0  119.70   14.51
   4  -6   0  123.15   15.23
   4  -6   0  147.78   14.01
   4   6   0  126.18   11.99
   4   6   0  115.35   12.87
   4  -6   0  112.67   11.95
   4   6   1  137.29   10.08
  -4   6  -1  138.30   15.66
   4  -6   1  132.92   15.68
  -4  -6  -1  173.70   14.86
   4   6   1  141.98   13.54
   4  -6   1  128.00   11.53
   4   6   1  146.79   12.51
   4   6   2  180.60   11.76
  -4   6  -2  168.67   18.17
  -4   6  -2  170.68   15.15
   4  -6   2  196.19   17.38
  -4  -6  -2  224.54   17.30
   4   6   2  200.02   15.80
   4  -6   2  172.11   12.81
   4   6   2  196.61   14.56
   4  -6   2  161.66   12.53
   4   6   3   12.09    4.46
  -4   6  -3   24.88    8.25
   4  -6   3    7.85   10.39
   4   6   3   14.87    8.12
  -4   6  -3   24.79   11.70
  -4  -6  -3   -2.61   10.10
   4  -6   3   16.23    5.09
   4   6   3   11.52    6.81
   4  -6   3   13.95    5.09
   4   6   3    8.27    8.01
  -4   6  -4  113.53   12.52
   4  -6   4  124.45   14.43
   4   6   4  133.86   12.27
   4   6   4  114.90    8.14
  -4   6  -4  119.07   16.72
  -4  -6  -4  141.30   14.93
   4  -6   4  108.36    8.47
   4  -6   4  107.32    8.42
   4   6   4  122.84   11.36
   4   6   4  103.45   12.25
  -4   6  -5   22.21    8.53
   4   6   5   18.72    3.81
   4  -6   5   16.85   10.41
   4   6   5   23.94    8.74
   4  -6   5   23.38   11.70
  -4   6  -5   26.77   12.69
  -4  -6  -5   18.33   10.19
   4   6   5   26.51    7.59
   4   6   5    8.95    8.68
  -4   6  -6   15.68    8.06
   4  -6   6    6.88   10.43
   4   6   6   24.99    9.09
   4  -6   6   22.26   13.47
  -4   6  -6   25.76   12.56
  -4  -6  -6   18.50   10.86
   4   6   6   20.09    8.97
  -4   6  -7  129.74   13.23
   4  -6   7  116.89   15.04
   4  -6   7  109.39   18.53
   4   6   7  124.85   13.76
  -4   6  -7  100.99   17.00
  -4  -6  -7  123.77   15.88
   4   6   7  112.36   13.51
  -4   6  -8   -5.08    8.52
   4  -6   8   -3.23   11.71
   4  -6   8   -0.84   14.83
   4   6   8   -0.87    9.85
  -4  -6  -8  -17.45   12.14
   4   6   8   -4.51    9.50
   4   6   9  165.14   17.24
  -4   6  -9  193.54   16.17
   4  -6   9  113.73   20.74
  -4  -6  -9  179.25   19.38
  -4  -6  -9  196.91   18.29
   4   6   9  135.14   16.14
  -4   6 -10    8.15    9.23
   4  -6  10    8.33   15.28
   4   6  10    6.16   11.47
  -4  -6 -10   21.80   13.41
  -4  -6 -10   17.49   12.65
  -4   6 -11   79.33   12.48
   4  -6  11   52.78   17.41
   4   6  11  101.35   15.43
  -4  -6 -11   55.16   15.93
  -4  -6 -11   77.48   14.91
  -4   6 -12   39.58   10.97
   4  -6  12   13.21   17.39
   4   6  12   50.02   13.80
  -4  -6 -12   28.36   14.16
  -4  -6 -12   35.81   13.34
  -4   6 -13   11.74    9.90
   4  -6  13    6.20   18.16
   4   6  13   -3.99   13.23
  -4  -6 -13   -0.70   12.82
  -4  -6 -13    6.93   13.62
   4   7 -10   24.63   12.47
  -4   7  10   45.08   13.87
  -4  -7  10   67.87   17.70
  -4   7  10   42.74   12.86
   4  -7 -10   42.81   14.05
   4   7 -10   53.92   11.76
   4   7  -9   60.08   13.71
  -4   7   9   71.64   15.12
  -4  -7   9  122.09   19.99
  -4   7   9   79.24   14.14
   4  -7  -9   98.15   16.24
  -4   7   8   22.57    7.17
   4   7  -8   11.84   10.10
  -4   7   8   24.18   12.14
  -4  -7   8    4.77   15.73
  -4   7   8   21.84   10.12
   4  -7  -8   17.76   12.63
  -4   7   7  148.07   11.02
   4   7  -7  141.51   15.40
  -4   7   7  158.36   16.79
  -4  -7   7  181.97   21.26
  -4   7   7  133.23   13.70
  -4  -7   7  140.46   13.95
   4  -7  -7  172.20   18.49
  -4   7   6   -6.40   10.07
  -4   7   6    0.69    4.82
   4   7  -6   -7.35    8.51
  -4  -7   6    6.19    3.97
  -4   7   6    1.46    9.83
  -4  -7   6    2.87    3.35
  -4   7   6    1.84    6.69
  -4  -7   6    0.76   13.52
  -4  -7   6    6.59    9.88
  -4   7   6   -3.22    7.21
  -4  -7   6   -1.22    7.88
   4  -7  -6   13.71   11.60
  -4   7   5   45.76   10.41
  -4   7   5   27.37    5.05
   4   7  -5   26.02    8.72
  -4   7   5   44.04   10.88
  -4   7   5   25.67    6.62
  -4  -7   5   32.49   14.41
  -4   7   5   15.44    6.89
  -4  -7   5   38.03    8.55
  -4  -7   5   44.37   10.61
   4  -7  -5   36.07   12.44
  -4   7   4    9.19    9.60
  -4   7   4    3.28    3.88
   4   7  -4    0.56    7.35
  -4   7   4    0.45    9.02
  -4  -7   4   16.77   13.71
  -4   7   4    3.54    5.40
   4  -7  -4   13.08   11.14
  -4   7   4    7.03    5.01
  -4  -7   4    8.15    7.48
   4   7  -4    5.33    8.87
  -4  -7   4    5.84    9.30
  -4   7   3   12.74    9.94
  -4   7   3   11.75    4.12
   4   7  -3   10.14    6.95
  -4   7   3   11.99    9.19
   4  -7  -3   24.27   11.28
  -4  -7   3   25.98   14.43
  -4   7   3    5.38    5.20
  -4   7   3   16.44    4.42
  -4  -7   3   16.49    9.45
  -4  -7   3    7.90    7.56
   4   7  -3    0.80    8.55
  -4   7   2   20.09   10.72
   4   7  -2   18.54    6.84
  -4   7   2   24.36    9.27
  -4  -7   2   43.44   15.20
  -4   7   2   20.75    4.39
  -4   7   2   16.47    3.27
   4   7  -2   27.31    9.52
  -4  -7   2   11.11    9.34
  -4   7   1   -4.95   10.91
   4   7  -1    1.49    5.98
   4  -7  -1    2.84   11.43
  -4  -7   1    3.94   13.05
   4  -7  -1    3.28    7.10
   4   7  -1   -0.39    8.28
   4  -7  -1    3.11    7.35
  -4  -7   1    6.08    9.56
  -4   7   0   81.45   14.13
   4   7   0   66.56    7.95
   4  -7   0   75.69   14.34
  -4  -7   0   74.77   16.92
   4  -7   0   56.27    8.99
   4   7   0   76.85   11.51
   4  -7   0   57.03    9.26
  -4  -7   0   80.61   12.27
   4   7   1   44.19    7.04
   4  -7   1   22.61   12.48
  -4   7  -1   55.73   14.03
   4  -7   1   56.14    8.22
   4   7   1   53.33   10.75
   4  -7   1   44.95    8.13
  -4  -7  -1   78.99   12.17
   4   7   2   43.26    6.40
   4  -7   2   30.68   12.72
  -4   7  -2   33.45   14.17
  -4  -7  -2   38.52   11.59
   4  -7   2   37.53    6.96
   4   7   2   25.12    9.72
   4   7   3   70.41    7.28
  -4   7  -3   55.83   11.05
   4  -7   3   38.90   13.22
   4   7   3   68.14   10.88
  -4   7  -3   70.92   16.15
  -4  -7  -3   79.22   13.23
   4   7   3   60.45   11.71
   4  -7   3   61.88    7.40
   4   7   4   29.60    5.70
  -4   7  -4   34.52    9.80
   4  -7   4   31.96   11.59
   4   7   4   33.47    9.67
  -4   7  -4   30.66   14.47
  -4  -7  -4   44.85   12.21
   4   7   4   35.80   10.19
  -4   7  -5   12.93    9.02
   4  -7   5    7.45   11.47
   4   7   5    9.26    9.11
  -4   7  -5   15.58   13.00
  -4  -7  -5   -1.07   11.40
   4   7   5   10.66    9.61
  -4   7  -6   67.01   11.43
   4  -7   6   61.10   13.85
   4   7   6   75.33   12.12
  -4  -7  -6   54.25   13.39
   4   7   6   48.68   11.47
  -4   7  -7   -6.79    9.20
   4  -7   7  -18.11   12.44
   4   7   7   -1.28    9.61
  -4  -7  -7   -3.57   12.29
   4   7   7    6.38   10.14
  -4   7  -8  100.09   13.97
   4  -7   8   96.05   16.16
   4   7   8  108.23   14.16
   4  -7   8  107.85   20.55
  -4  -7  -8   92.23   15.83
  -4  -7  -8   81.59   14.20
   4   7   8   92.87   14.42
  -4   7  -9   20.23   10.49
   4  -7   9  -12.12   13.47
   4   7   9   19.36   11.64
   4  -7   9    6.10   16.87
  -4  -7  -9   11.29   13.35
  -4  -7  -9    5.59   11.15
   4   7   9    0.53   10.84
  -4   7 -10   85.62   13.63
   4  -7  10   52.42   15.04
   4  -7  10   71.17   21.68
   4   7  10   92.83   15.42
  -4  -7 -10   77.03   16.62
  -4  -7 -10   77.64   14.95
  -4   7 -11   10.07   10.61
   4  -7  11   22.07   14.18
   4  -7  11    5.85   18.70
   4   7  11   12.30   12.94
  -4  -7 -11   11.81   14.04
  -4  -7 -11   10.13   12.65
   4   8  -8    7.62   12.16
   4  -8  -8   38.52   17.26
  -4   8   8   21.35   13.61
  -4  -8   8   55.32   19.22
  -4   8   8   39.72   11.68
   4   8  -8   15.86   13.23
   4  -8  -8   32.73   15.68
   4   8  -7   -0.37    9.13
   4  -8  -7  -14.76   15.95
  -4   8   7    2.16   11.01
  -4  -8   7  -12.96   15.99
  -4  -8   7    0.92   10.86
  -4   8   7    2.90    9.00
   4   8  -7   -3.39   10.31
   4  -8  -7  -20.70   13.31
   4   8  -6   31.50   10.71
  -4   8   6   44.87   12.61
  -4  -8   6   57.90   17.44
  -4  -8   6   60.80   12.82
  -4   8   6   38.95    9.71
   4   8  -6   34.92   12.49
   4  -8  -6   45.19   14.78
  -4   8   5   -2.31    4.98
   4   8  -5    0.96    8.33
  -4   8   5   19.12   11.03
  -4  -8   5   19.73   15.72
  -4   8   5    3.02    7.30
  -4  -8   5   -9.19   11.46
   4  -8  -5   12.60   13.07
  -4   8   4   19.23    5.11
   4   8  -4   11.32    7.89
  -4   8   4   15.24   10.59
  -4  -8   4   31.72   15.41
  -4   8   4    7.47    6.44
   4  -8  -4   16.63    9.93
   4  -8  -4   30.20   13.62
  -4  -8   4   24.45   11.71
  -4   8   3    8.79    5.02
   4   8  -3   12.16    7.37
  -4   8   3   -4.14    9.97
  -4  -8   3   13.75   15.27
  -4   8   3    6.47    5.13
   4  -8  -3   18.54   12.71
   4  -8  -3    3.39    8.58
  -4  -8   3    9.19   10.85
   4   8  -2   -2.57    6.78
  -4   8   2    6.74    9.37
  -4  -8   2   11.31   14.74
  -4   8   2   -4.71    5.20
   4  -8  -2    2.48    8.20
   4   8  -2   -9.58   10.24
  -4  -8   2    4.17   10.37
   4   8  -1   19.65    7.15
  -4   8   1   32.79   10.49
  -4  -8   1   34.39   16.38
   4  -8  -1   17.49    8.56
   4   8  -1   23.75   10.65
  -4  -8   1   10.83   10.75
  -4   8   0   -8.17   13.93
   4   8   0    5.61    6.74
  -4  -8   0  -11.00   15.61
   4  -8   0   -0.76    7.44
   4   8   0   -0.92    9.90
  -4  -8   0    2.91   11.23
  -4   8  -1   16.24   13.79
   4   8   1   11.24    6.65
  -4  -8  -1   22.80   16.82
   4  -8   1   21.65    7.37
   4   8   1    8.46   10.29
  -4  -8  -1   17.00   11.24
  -4   8  -2   16.97   13.74
   4   8   2   30.24    6.71
  -4  -8  -2   27.49   17.51
  -4  -8  -2   27.38   12.17
   4   8   2   12.42   10.34
   4  -8   2   18.69    6.68
  -4   8  -3   -4.23   13.85
   4   8   3   -4.68    9.24
  -4  -8  -3   -5.90   11.50
   4   8   3   12.68   10.01
  -4   8  -4   27.03   10.59
   4   8   4   29.95   10.55
  -4  -8  -4   21.26   12.40
   4   8   4   25.39   11.22
  -4   8  -5   31.67   10.74
   4   8   5   13.94   10.23
  -4  -8  -5    5.24   12.16
   4   8   5    6.21   10.49
  -4   8  -6  -13.45   10.80
   4   8   6    8.86   10.15
  -4  -8  -6    3.04   12.07
   4   8   6   -9.69   11.21
  -4   8  -7   38.22   11.75
   4   8   7   65.46   12.93
  -4  -8  -7   39.42   13.90
   4   8   7   54.30   13.48
  -4   8  -8   15.23   11.30
   4   8   8   -2.93   11.60
  -4  -8  -8   -4.64   12.79
  -4  -8  -8    6.81   12.08
   4   8   8  -19.71   12.76
   4  -9  -2    9.59   14.62
   4   9  -2   15.37    8.66
  -4   9   2   14.12   11.40
   4  -9  -2   -3.09   14.71
  -4  -9   2  -10.69   18.81
   4  -9  -2   11.08    9.69
  -4  -9   2    7.40   12.42
   4   9  -1    2.16    8.02
  -4   9   1  -15.44   12.07
   4  -9  -1    2.77   13.84
  -4  -9   1  -13.92   18.35
   4  -9  -1   11.61    8.62
   4   9  -1   -1.59   11.71
  -4  -9   1   -1.61   12.56
  -4   9   0   -0.48   11.21
   4  -9   0    5.99   13.85
  -4  -9   0  -10.25   19.07
   4   9   0   18.72   11.98
  -4  -9   0  -24.13   13.83
   4  -9   1    1.08   13.81
  -4  -9  -1   -8.42   18.50
   4   9   1    4.88   12.00
  -4  -9  -1    2.81   12.69
   4  -9   2  -10.80   13.77
  -4  -9  -2   -2.30   12.82
   4   9   2    3.80   11.38
   4  -9   3   -4.89   13.62
   4   9   3   10.67   10.54
  -4  -9  -3   13.01   13.19
   4   9   3   18.90   12.20
  -5   0  15  170.03   20.10
   5   0 -15  117.31   22.33
  -5   0  14   10.89   11.96
   5   0 -14   -0.90   15.98
  -5   0  13  466.56   31.63
   5   0 -13  321.57   32.88
  -5   0  12  469.33   31.82
   5   0 -12  372.63   33.43
  -5   0  11  338.80   25.40
   5   0 -11  270.75   26.69
  -5   0  10 1038.69   56.25
   5   0 -10  848.14   57.49
   5   0  -9   79.85    8.48
   5   0  -9   82.55   11.39
  -5   0   9   85.68   12.87
   5   0  -9   61.54   14.87
  -5   0   9   79.91   12.44
   5   0  -8  224.16   15.38
   5   0  -8  247.26   18.23
   5   0  -8  236.26   21.12
  -5   0   8  235.29   18.59
   5   0  -7   28.53    6.01
   5   0  -7   41.27    8.45
  -5   0   7   31.09    8.59
  -5   0   7   32.14    8.53
   5   0  -7   51.16   11.69
   5   0  -6   82.43    7.95
   5   0  -6  100.24   10.22
  -5   0   6  104.23   10.83
   5   0  -6  117.12   11.88
  -5   0   6  100.08   10.47
   5   0  -6   90.80   12.51
   5   0  -5   27.95    3.66
   5   0  -5   36.05    5.37
   5   0  -5   32.11    6.91
  -5   0   5   42.42    8.15
   5   0  -5   41.30    8.31
   5   0  -5   29.83    9.34
  -5   0   5   40.08    7.42
   5   0  -4   -0.14    4.61
   5   0  -4   -0.22    2.91
  -5   0   4    9.44    6.49
   5   0  -4    7.16    5.82
   5   0  -4   -1.58    7.37
   5   0  -4   -1.82    6.45
  -5   0   4    0.22    5.84
   5   0  -3  900.23   49.08
   5   0  -3  902.68   50.14
   5   0  -3  977.59   51.88
   5   0  -3 1028.95   51.24
  -5   0   3 1042.83   52.24
  -5   0   3  997.39   51.04
   5   0  -3  943.71   52.10
   5   0  -2  633.16   34.12
   5   0  -2  550.35   34.53
   5   0  -2  654.59   35.99
   5   0  -2  687.76   35.40
  -5   0   2  750.55   36.89
   5   0  -2  665.95   36.37
   5   0  -1  977.81   54.80
   5   0  -1  971.19   55.50
   5   0  -1 1071.61   56.22
   5   0  -1 1071.55   55.37
   5   0   0 1505.26   82.69
   5   0   0 1434.84   82.39
   5   0   0 1669.73   83.36
   5   0   0 1652.40   82.53
  -5   0   0 1876.03   84.64
   5   0   0 1641.17   81.21
   5   0   0 1477.31   82.62
   5   0   1   18.86    6.63
  -5   0  -1    7.33    6.80
   5   0   1   16.45    4.75
   5   0   1   20.24    6.35
   5   0   1   23.12    4.92
   5   0   1   19.12    4.95
   5   0   1   12.34    5.00
   5   0   2  608.11   33.88
   5   0   2  577.01   31.52
   5   0   2  601.49   32.81
   5   0   2  641.31   32.25
  -5   0  -2  516.88   31.59
   5   0   2  649.90   32.86
  -5   0  -2  514.56   35.18
   5   0   2  577.69   31.79
   5   0   3  604.48   34.72
   5   0   3  592.84   31.25
   5   0   3  597.99   32.69
   5   0   3  565.75   31.98
  -5   0  -3  559.35   32.43
   5   0   3  625.35   33.57
  -5   0  -3  509.23   35.66
   5   0   3  584.97   31.51
   5   0   4   24.73    9.58
  -5   0  -4   23.21    9.18
   5   0   4   23.82    4.27
   5   0   4   26.03    6.51
   5   0   4   34.08    5.87
   5   0   4   35.70    7.47
  -5   0  -4   32.41    7.14
   5   0   4   27.69    4.81
   5   0   5  698.29   40.74
   5   0   5  695.84   34.83
   5   0   5  630.61   36.62
   5   0   5  655.10   38.65
   5   0   5  583.43   36.38
  -5   0  -5  706.31   38.47
  -5   0  -5  690.50   41.80
   5   0   6    4.76   10.09
   5   0   6   11.73    3.35
   5   0   6    4.54    6.24
   5   0   6    8.76    5.84
   5   0   6   19.14    8.08
   5   0   6    7.06    7.40
  -5   0  -6   13.57    8.08
   5   0   6   17.71    4.41
   5   0   6    9.49    4.01
   5   0   7 1838.01   96.62
   5   0   7 1699.19   88.52
   5   0   7 1670.20   93.59
   5   0   7 1666.84   91.62
  -5   0  -7 2008.60   94.75
   5   0   7 1806.97   93.66
   5   0   7 1727.44   89.38
   5   0   7 1791.09   89.16
  -5   0  -8    6.46    6.45
   5   0   8   17.62   12.49
   5   0   8    3.25    7.92
   5   0   8   -3.37    7.25
   5   0   8   -3.22    9.01
  -5   0  -8   -0.98    9.32
   5   0   8    2.87    4.02
   5   0   9 1425.13   77.65
  -5   0  -9 1390.39   70.98
   5   0   9 1399.19   74.15
   5   0   9 1215.98   72.11
  -5   0  -9 1346.76   74.55
   5   0   9 1215.50   72.19
   5   0  10  156.93   20.52
   5   0  10  154.76   15.73
   5   0  10  131.74   15.32
  -5   0 -10  167.02   17.42
   5   0  11  145.80   21.03
   5   0  11  130.14   15.76
  -5   0 -11  135.03   16.86
   5   0  12  178.06   23.59
   5   0  12  185.16   16.76
  -5   0 -12  150.93   18.86
   5   0  13  136.15   22.44
   5   0  13  109.95   14.41
  -5   0 -13  106.37   17.02
   5   0  14   38.34   19.04
   5   0  14   49.95   12.31
  -5   0 -14   24.65   14.02
   5   0  15  300.20   31.52
  -5   0 -15  266.90   26.12
   5   0  15  205.93   20.85
  -5   1  15   39.40   12.86
  -5  -1  15   39.03   14.64
   5   1 -15   33.56   17.22
   5  -1 -15   -2.93   17.12
  -5   1  14  141.16   18.36
  -5  -1  14  169.69   19.95
   5   1 -14  157.41   22.50
   5  -1 -14  141.69   23.37
  -5   1  13   71.03   14.12
  -5  -1  13   77.20   15.70
   5   1 -13   72.37   18.11
   5  -1 -13   41.20   17.88
  -5   1  12  247.48   21.96
  -5  -1  12  271.10   23.57
   5  -1 -12  234.40   25.66
   5   1 -12  212.87   24.82
  -5   1  11  397.53   28.30
  -5  -1  11  425.54   29.52
   5  -1 -11  387.31   31.41
   5   1 -11  316.37   30.21
  -5   1  10  130.59   14.86
  -5  -1  10  141.16   16.33
   5  -1 -10  122.10   17.68
   5   1 -10  107.00   17.38
   5   1  -9  780.48   36.56
  -5   1   9  987.45   40.25
  -5  -1   9 1034.27   41.88
   5  -1  -9  876.93   42.35
   5   1  -9  813.51   42.72
  -5  -1   9  902.95   38.51
   5   1  -8   -2.14    7.50
   5   1  -8   -3.79    7.70
  -5   1   8    9.42    8.32
  -5  -1   8    7.43    9.02
   5   1  -8   12.22   11.81
   5  -1  -8   -3.63   11.04
  -5  -1   8    2.78    7.92
   5   1  -7  273.81   18.99
  -5   1   7  315.24   20.05
  -5  -1   7  302.70   21.02
   5  -1  -7  249.17   19.11
   5   1  -7  318.02   19.78
   5   1  -7  229.08   21.81
  -5   1   7  274.76   19.78
  -5  -1   7  256.31   18.92
   5  -1  -7  257.78   21.49
   5   1  -6   36.66    8.15
   5  -1  -6   37.37    8.10
   5   1  -6   40.46    7.97
  -5   1   6   43.38    8.17
  -5  -1   6   45.70    9.56
   5  -1  -6   38.91    8.99
   5   1  -6   36.96    9.42
   5  -1  -6   43.07   10.56
  -5   1   6   38.60    8.66
  -5  -1   6   54.32    8.13
   5   1  -6   47.34   10.98
   5   1  -5   25.01    7.39
  -5  -1   5   23.01    4.49
   5  -1  -5   11.50    8.82
   5  -1  -5   20.90    7.63
   5   1  -5   30.40    8.31
  -5   1   5   23.15    7.44
  -5  -1   5   22.25    6.54
   5   1  -5   22.13    8.98
   5  -1  -5   26.76    7.05
   5   1  -5   24.29    7.01
  -5   1   5   18.32    6.47
  -5  -1   5   27.69    8.30
   5  -1  -4  511.59   29.13
   5   1  -4  520.69   29.61
   5   1  -4  522.64   29.72
  -5   1   4  508.87   28.78
  -5  -1   4  466.60   27.42
   5  -1  -4  490.16   29.96
   5   1  -4  442.15   29.39
   5   1  -4  518.75   28.60
  -5   1   4  473.02   28.13
  -5  -1   4  502.18   29.96
   5  -1  -4  480.38   28.05
  -5  -1   4  447.73   27.08
   5  -1  -3  239.49   15.52
   5   1  -3  189.24   15.39
   5   1  -3  231.32   15.92
   5   1  -3  220.29   13.07
  -5  -1   3  190.77   13.80
  -5   1   3  221.56   15.23
   5  -1  -3  206.32   16.29
   5   1  -3  187.22   15.47
   5   1  -3  219.46   14.99
  -5   1   3  219.61   14.51
  -5  -1   3  250.80   16.96
   5  -1  -3  225.43   14.40
  -5  -1   3  210.89   14.75
   5   1  -2 1175.08   58.17
   5   1  -2 1144.43   61.00
   5   1  -2 1268.99   60.14
   5  -1  -2 1188.01   59.85
   5  -1  -2 1224.26   60.85
   5   1  -2 1247.59   59.91
   5   1  -2 1207.61   59.74
   5  -1  -2  951.46   57.08
  -5   1   2 1264.80   59.31
  -5  -1   2 1346.82   61.97
   5  -1  -2  963.91   56.82
   5  -1  -2 1334.64   59.00
   5   1  -2 1274.70   60.13
  -5  -1   2 1122.67   60.22
   5   1  -1  926.17   48.07
   5   1  -1  928.44   47.23
   5  -1  -1  874.00   45.85
   5  -1  -1  751.11   45.63
   5  -1  -1  952.04   48.30
   5  -1  -1 1027.92   49.60
   5   1  -1  987.58   48.28
   5   1  -1 1009.84   48.64
   5  -1  -1  804.87   46.73
  -5  -1   1 1077.07   50.89
  -5   1   1  974.06   47.98
   5  -1  -1 1065.45   47.38
   5   1  -1  948.30   48.40
  -5  -1   1  825.21   49.43
   5   1   0  502.26   29.18
   5  -1   0  545.63   29.35
   5   1   0  492.01   29.11
   5  -1   0  559.11   29.69
   5  -1   0  595.61   31.04
   5   1   0  533.74   29.60
   5  -1   0  618.87   28.74
   5   1   0  559.44   30.18
   5  -1   0  447.72   28.99
  -5  -1   0  544.60   32.12
   5   1   0  482.16   29.50
  -5  -1   0  468.25   31.48
   5   1   1  919.05   49.51
   5   1   1  973.70   50.53
   5  -1   1  973.85   51.15
   5  -1   1  927.94   49.89
   5  -1   1 1067.72   51.57
   5   1   1  965.35   50.07
   5  -1   1 1052.44   49.11
   5   1   1 1068.76   51.13
   5  -1   1  889.01   50.49
  -5  -1  -1  775.01   48.63
  -5  -1  -1 1009.94   53.26
   5   1   1  886.25   48.89
   5   1   1  924.56   50.12
  -5  -1  -1  898.27   53.03
   5  -1   1 1124.92   51.08
   5   1   2    4.93    6.17
  -5  -1  -2    6.67    8.26
   5  -1   2   11.41    7.43
   5  -1   2    2.69    4.49
   5   1   2    9.97    4.03
  -5   1  -2    4.77    6.42
   5  -1   2    6.76    6.47
   5   1   2    7.53    5.39
   5  -1   2    6.14    3.48
   5   1   2   12.33    5.62
   5  -1   2    4.38    5.80
   5  -1   2    8.84    4.48
  -5  -1  -2    1.98    4.78
   5  -1   2    6.93    5.62
   5   1   2   12.92    5.10
   5   1   2    8.80    4.94
   5   1   3   63.39    5.53
   5   1   3   57.92    8.53
   5  -1   3   61.26    6.38
  -5  -1  -3   55.93   10.70
   5  -1   3   58.83   10.42
  -5   1  -3   66.70    8.12
   5  -1   3   57.05    8.49
   5   1   3   63.96    7.21
   5  -1   3   55.30    5.48
   5   1   3   60.98    7.56
   5  -1   3   67.11    6.13
   5  -1   3   58.37    8.44
  -5  -1  -3   65.02    7.61
   5   1   3   60.54    6.76
   5  -1   3   60.41    8.36
   5   1   3   68.96    7.80
   5   1   4  546.82   32.41
   5  -1   4  493.94   33.84
   5  -1   4  563.99   29.45
   5   1   4  556.69   28.54
   5  -1   4  522.80   31.20
   5   1   4  475.22   29.76
  -5   1  -4  575.10   31.10
   5  -1   4  473.22   28.91
  -5   1  -4  531.86   31.28
   5   1   4  578.85   31.54
   5  -1   4  541.41   32.52
  -5  -1  -4  582.64   31.76
   5   1   4  554.73   31.45
   5  -1   4  574.79   29.07
  -5  -1  -4  582.59   35.20
   5  -1   4  574.19   32.43
   5   1   5   47.46    3.92
  -5   1  -5   56.16    6.37
   5   1   5   42.17    9.61
  -5  -1  -5   47.40   11.24
   5  -1   5   41.82   11.32
   5  -1   5   42.58    5.31
  -5   1  -5   49.21    7.03
   5  -1   5   32.93    7.76
   5   1   5   37.93    6.71
   5   1   5   49.37    7.70
   5  -1   5   34.64    5.53
   5   1   5   47.28    8.53
   5  -1   5   56.48    9.42
  -5  -1  -5   49.67    8.86
  -5   1  -5   49.26    8.39
   5  -1   5   46.20    4.83
   5  -1   5   45.90    8.51
  -5   1  -6 1515.10   68.27
   5   1   6 1545.41   72.37
   5  -1   6 1353.67   73.90
   5  -1   6 1418.95   66.63
   5   1   6 1082.14   65.08
   5   1   6 1349.66   69.11
   5   1   6 1220.73   67.48
   5  -1   6 1306.96   68.88
  -5   1  -6 1450.38   68.19
  -5  -1  -6 1531.00   71.59
   5  -1   6 1499.38   71.95
   5  -1   6 1208.84   67.30
   5   1   6 1352.77   69.54
  -5   1  -6 1519.01   71.10
   5   1   6 1479.04   70.82
   5  -1   6 1419.81   66.19
   5   1   6 1452.63   67.52
  -5  -1  -6 1450.07   74.20
   5  -1   6 1363.97   70.81
   5   1   6 1508.29   67.19
  -5   1  -7   11.45    6.27
   5   1   7   16.73   10.46
  -5  -1  -7   28.30   11.77
   5  -1   7    9.87   12.08
   5  -1   7   17.14    4.26
   5   1   7   24.48    8.06
  -5   1  -7    2.62    5.41
   5  -1   7   10.56    5.81
   5   1   7    6.18    7.46
   5   1   7   15.25    8.84
   5  -1   7   17.24    3.40
   5   1   7   22.26    5.12
   5  -1   7   24.53    9.41
  -5  -1  -7   11.52    8.36
  -5   1  -7   15.05    8.80
   5   1   7   18.34    5.34
   5  -1   7   17.78    3.35
   5  -1   7   14.61    8.37
  -5   1  -8 1135.43   58.57
   5   1   8 1180.78   63.31
   5  -1   8 1145.32   65.43
  -5   1  -8 1085.87   56.94
   5  -1   8 1031.21   55.78
   5   1   8 1054.36   59.70
  -5   1  -8 1226.33   62.28
  -5  -1  -8 1085.16   61.88
   5  -1   8 1193.23   62.13
   5   1   8 1023.60   59.97
   5  -1   8  989.45   58.14
   5   1   8 1159.99   61.08
   5  -1   8 1061.40   58.25
   5   1   8 1053.90   56.89
  -5  -1  -8 1202.13   64.87
   5   1   8 1065.74   56.31
   5  -1   9   52.05   15.95
  -5   1  -9   54.03    9.01
   5   1   9   48.80   14.05
  -5  -1  -9   64.17   14.18
   5  -1   9   63.10   10.86
   5   1   9   67.06   11.54
  -5   1  -9   64.05    6.93
   5  -1   9   47.82    5.68
   5   1   9   50.43   11.08
   5  -1   9   37.12    9.29
   5  -1   9   70.11    9.84
   5   1   9   60.61   11.48
   5  -1   9   63.85   12.33
  -5  -1  -9   66.73   12.10
  -5   1  -9   70.42   12.61
   5   1   9   59.70    7.15
   5   1  10  289.20   24.29
   5  -1  10  255.98   25.90
  -5   1 -10  253.53   15.50
   5   1  10  241.09   20.67
  -5  -1 -10  226.97   21.44
   5   1  10  233.79   21.02
   5  -1  10  237.01   19.55
   5  -1  10  239.75   18.32
  -5   1 -10  282.21   22.49
  -5  -1 -10  248.64   23.61
   5  -1  11  138.51   21.12
  -5   1 -11  119.14    9.63
   5   1  11  187.23   21.25
   5   1  11  135.58   15.87
   5   1  11  129.71   16.56
   5  -1  11  138.63   13.72
  -5  -1 -11  136.32   16.95
  -5   1 -11  121.30   16.58
   5  -1  12   10.90   16.72
   5   1  12   17.62   14.87
  -5   1 -12   -2.48    4.78
   5  -1  12    8.30    9.20
  -5  -1 -12   17.24   11.68
  -5   1 -12    0.71   10.97
   5  -1  13  143.93   24.26
  -5   1 -13  127.74    9.97
   5   1  13  154.20   22.91
   5  -1  13  151.14   15.59
  -5  -1 -13  167.66   19.78
  -5   1 -13  156.81   18.77
   5  -1  14  288.64   30.90
  -5   1 -14  203.20   14.39
   5   1  14  313.81   29.55
  -5  -1 -14  289.56   25.63
   5   1  14  292.64   22.23
   5  -1  14  273.16   20.73
  -5   1 -14  237.49   24.15
   5  -1  15   63.94   23.44
   5   1  15   61.83   21.07
   5   1  15   95.52   15.21
   5  -1  15   77.93   13.81
  -5  -1 -15   90.10   17.78
  -5   1 -15   60.35   16.85
   5  -2 -14    5.67   16.25
   5   2 -14    3.05   15.01
  -5   2  14    9.48    9.93
  -5  -2  14    9.59   13.52
   5  -2 -13   30.66   16.44
   5   2 -13    5.22   13.96
  -5   2  13    2.53   10.73
  -5  -2  13    7.49   13.40
   5  -2 -12  136.82   20.32
   5   2 -12  127.43   19.10
  -5   2  12   96.37   15.26
  -5  -2  12  154.53   18.35
   5   2 -11  101.55   17.60
   5  -2 -11   95.11   18.00
  -5   2  11   88.73   14.09
  -5  -2  11  119.32   16.26
   5  -2 -10  565.99   37.82
   5   2 -10  519.76   37.42
  -5  -2  10  503.89   34.02
  -5   2  10  583.37   34.96
  -5  -2  10  578.24   36.76
   5  -2 -10  516.54   30.57
   5   2  -9   52.08   10.69
   5  -2  -9   43.65   13.82
  -5  -2   9   56.82   10.48
   5   2  -9   44.60   13.18
  -5   2   9   60.27   10.76
  -5  -2   9   53.88   12.34
   5  -2  -9   42.70    7.07
  -5  -2   9   28.80    3.97
   5   2  -8  743.79   42.66
   5   2  -8  734.40   45.30
  -5  -2   8  770.72   40.99
   5  -2  -8  773.14   44.67
  -5   2   8  830.55   42.20
  -5  -2   8  862.86   44.74
   5  -2  -8  695.75   38.62
  -5  -2   8  632.21   37.40
   5   2  -7  125.78   13.74
   5  -2  -7  134.16   15.77
   5   2  -7  132.21   15.75
  -5  -2   7  142.06   12.07
   5   2  -7  147.68   13.33
   5  -2  -7  133.24   10.02
  -5  -2   7  166.01   15.67
  -5   2   7  118.72   12.15
  -5  -2   7  113.74    9.22
   5   2  -6  189.60   16.03
   5   2  -6  166.82   16.83
  -5   2   6  163.13   14.42
  -5  -2   6  174.34   12.66
   5  -2  -6  182.02   16.53
   5   2  -6  169.32   15.77
   5  -2  -6  150.57   11.07
   5   2  -6  172.88   14.12
  -5   2   6  159.20   13.01
   5  -2  -6  173.53   11.13
  -5  -2   6  186.57   16.50
  -5  -2   6  155.18   11.48
   5   2  -6  182.50   14.57
   5   2  -5  886.93   48.17
   5   2  -5  713.24   47.05
  -5   2   5  933.57   46.39
  -5  -2   5  798.88   43.87
   5  -2  -5  804.20   47.36
   5   2  -5  885.07   47.65
   5   2  -5  836.63   45.83
  -5   2   5  800.17   44.36
  -5  -2   5  913.31   48.22
   5  -2  -5  876.94   43.38
   5  -2  -5  742.32   42.98
   5   2  -5  921.34   46.50
  -5  -2   5  747.25   44.08
   5   2  -4  120.70   13.89
   5  -2  -4  134.02   11.76
   5   2  -4  128.27   13.29
  -5   2   4  122.55   11.85
  -5  -2   4  105.89    9.29
   5  -2  -4  144.57   13.63
   5   2  -4  157.39   13.22
   5   2  -4  133.32   11.67
  -5   2   4  119.60    9.76
  -5  -2   4  139.07   13.56
   5  -2  -4  129.12    9.21
   5  -2  -4  105.40    8.67
   5   2  -4  145.22   12.05
  -5  -2   4  136.23   10.84
   5   2  -3  851.27   53.03
   5  -2  -3 1032.09   51.96
   5   2  -3  912.15   52.12
  -5   2   3 1104.43   52.31
   5  -2  -3 1045.28   53.52
   5   2  -3 1017.97   52.64
   5   2  -3  956.18   51.89
   5  -2  -3  959.56   49.98
  -5   2   3  845.98   49.61
  -5  -2   3 1051.04   54.26
   5  -2  -3  888.59   49.63
   5   2  -3  990.82   51.81
  -5  -2   3  933.96   51.65
   5   2  -2  369.96   26.22
   5  -2  -2  403.82   23.19
   5   2  -2  388.84   23.15
   5  -2  -2  427.43   24.96
   5   2  -2  406.52   23.64
  -5   2   2  394.23   24.91
   5  -2  -2  384.62   21.95
   5   2  -2  372.28   23.35
  -5  -2   2  411.64   25.80
  -5   2   2  330.53   20.74
   5   2  -2  371.63   23.25
  -5  -2   2  395.58   24.06
   5  -2  -1  931.10   50.52
   5   2  -1  953.90   50.53
   5   2  -1  908.83   49.70
   5  -2  -1 1045.97   52.39
  -5   2   1  957.71   52.42
   5   2  -1  975.39   50.10
   5   2  -1  921.83   51.20
  -5  -2   1  983.17   53.52
   5  -2  -1  956.35   50.18
   5   2  -1  953.38   50.75
   5  -2  -1  869.13   49.48
  -5  -2   1  898.19   51.99
   5   2   0  247.21   14.95
   5  -2   0  238.07   15.19
   5   2   0  271.28   14.95
   5  -2   0  262.18   17.29
   5   2   0  252.57   14.61
  -5   2   0  268.53   17.43
   5   2   0  245.93   16.38
  -5  -2   0  271.19   19.21
  -5  -2   0  176.93   12.39
   5  -2   0  238.94   15.45
   5   2   0  238.19   15.48
   5  -2   0  234.53   15.20
  -5  -2   0  261.39   17.98
   5   2   1  581.19   33.00
   5  -2   1  639.49   33.09
   5  -2   1  503.19   32.28
   5   2   1  593.61   32.07
   5  -2   1  652.80   34.98
   5   2   1  595.32   31.94
  -5   2  -1  637.47   34.88
  -5  -2  -1  532.91   31.67
   5   2   1  602.30   34.13
  -5  -2  -1  624.68   36.95
   5  -2   1  640.84   34.01
   5   2   1  595.79   33.14
   5  -2   1  660.42   34.32
  -5  -2  -1  644.42   36.25
   5   2   2  435.24   25.99
   5   2   2  432.80   24.15
   5  -2   2  435.74   26.64
   5  -2   2  467.46   25.37
   5  -2   2  492.42   27.51
   5   2   2  396.24   24.16
  -5   2  -2  467.58   27.15
  -5  -2  -2  449.13   25.56
   5   2   2  463.85   26.87
  -5  -2  -2  439.30   29.79
   5   2   2  437.10   24.96
   5  -2   2  498.66   27.11
   5   2   2  425.68   25.48
   5  -2   2  448.22   27.29
  -5  -2  -2  487.80   29.63
   5  -2   3    8.71    8.17
   5   2   3   -0.80    6.34
  -5  -2  -3    9.45    9.09
   5  -2   3    4.09    4.73
   5   2   3    5.38    3.30
  -5   2  -3   -1.71    6.55
   5  -2   3   -1.71    7.13
   5   2   3    5.44    4.44
   5   2   3   -2.12    6.54
   5  -2   3    0.36    6.71
   5  -2   3    3.86    6.42
  -5  -2  -3    3.26    6.10
   5   2   3    0.41    5.73
  -5   2  -4  209.55   12.63
   5   2   4  209.54   15.35
  -5   2  -4  211.47   14.65
   5  -2   4  178.38   17.02
   5  -2   4  202.48   12.98
   5   2   4  196.32   10.93
   5   2   4  184.06   13.33
   5  -2   4  186.72   15.04
   5   2   4  178.78   12.24
   5   2   4  192.71   15.08
   5  -2   4  220.82   15.95
   5   2   4  206.21   14.50
  -5  -2  -4  186.24   15.24
   5  -2   4  194.73   11.72
  -5  -2  -4  243.35   18.92
   5  -2   4  190.09   15.94
  -5   2  -5  581.75   27.98
   5   2   5  620.39   31.07
   5  -2   5  569.55   34.03
   5  -2   5  594.47   27.57
  -5   2  -5  601.20   29.28
   5   2   5  580.92   29.20
   5  -2   5  587.77   30.17
   5   2   5  475.84   26.85
   5  -2   5  354.29   25.18
   5   2   5  553.82   30.39
   5  -2   5  644.31   31.84
   5   2   5  640.67   30.37
  -5  -2  -5  563.22   31.53
   5  -2   5  396.33   25.33
  -5  -2  -5  628.29   34.22
   5  -2   5  606.75   26.09
   5   2   5  584.56   28.34
   5   2   5  600.33   27.83
   5  -2   5  568.03   31.91
   5  -2   6   31.88   12.05
  -5   2  -6   24.72    6.41
   5   2   6   42.51    9.35
  -5  -2  -6   35.52   11.01
   5  -2   6   26.08    5.30
   5   2   6   17.06    7.91
  -5   2  -6   29.08    6.74
   5   2   6   18.47    5.54
   5  -2   6   32.44    8.80
   5   2   6   24.36    8.16
   5  -2   6   16.81    4.34
   5  -2   6   20.64    4.08
   5   2   6   25.70    5.61
   5  -2   6   23.65    8.67
  -5  -2  -6   12.48    8.57
  -5   2  -6   21.80    8.58
   5  -2   6   20.27    8.82
   5   2   6   36.55    6.56
   5   2   6   32.15    8.62
  -5   2  -7  889.87   46.37
   5   2   7  926.25   49.34
   5  -2   7  877.58   44.50
   5  -2   7  833.08   52.30
  -5   2  -7  895.09   45.97
   5   2   7  808.29   47.45
  -5   2  -7  917.26   49.10
   5  -2   7  670.13   43.94
   5   2   7  863.68   48.23
   5  -2   7  988.26   49.68
   5   2   7  961.71   48.61
  -5  -2  -7  827.61   49.64
   5  -2   7  724.07   44.20
  -5  -2  -7  959.56   52.16
   5   2   7  901.73   45.74
   5   2   7  904.34   45.00
   5  -2   7  803.73   48.99
   5  -2   8  198.89   13.18
  -5   2  -8  193.77   15.40
   5  -2   8  209.18   22.04
   5   2   8  217.90   18.69
  -5   2  -8  217.58   14.56
   5   2   8  166.94   16.82
   5   2   8  223.95   17.96
   5  -2   8  162.40   13.53
   5  -2   8  227.64   18.33
   5   2   8  230.97   17.96
  -5   2  -8  226.14   18.60
  -5  -2  -8  233.32   19.59
   5  -2   8  165.26   13.44
  -5  -2  -8  242.79   21.11
   5   2   8  234.34   14.80
   5   2   8  208.71   13.64
  -5   2  -9  170.57   14.46
   5  -2   9  181.81   21.84
   5   2   9  199.67   18.48
  -5   2  -9  187.68   13.29
   5  -2   9  182.39   11.73
   5   2   9  141.44   16.24
   5   2   9  190.88   17.32
   5  -2   9  145.71   13.33
  -5   2  -9  184.78   17.81
   5   2   9  198.76   17.06
   5  -2   9  152.44   12.84
  -5  -2  -9  175.41   18.35
  -5  -2  -9  182.44   19.02
   5   2   9  167.97   13.17
   5  -2  10   76.27   17.88
   5   2  10   69.44   14.12
  -5  -2 -10   79.38   14.95
  -5   2 -10   67.49    8.33
   5   2  10   42.83   12.11
   5  -2  10   58.85    8.67
  -5  -2 -10   70.45   13.95
  -5   2 -10   62.51   13.22
   5  -2  11    2.99   15.93
   5   2  11   16.97   13.12
  -5   2 -11    6.53    6.21
   5  -2  11    4.14    7.30
  -5  -2 -11    1.42   11.63
  -5   2 -11   25.45   11.30
   5  -2  12   56.10   19.52
   5   2  12   92.99   17.48
  -5   2 -12   82.56    9.16
   5  -2  12   81.36   11.24
  -5  -2 -12   93.52   16.55
  -5   2 -12   82.40   15.36
   5  -2  13   79.13   21.46
   5   2  13   74.12   18.10
  -5   2 -13   74.53    9.15
   5  -2  13   91.43   11.69
  -5  -2 -13   88.95   16.98
  -5   2 -13   78.64   15.82
   5  -2  14  131.91   26.62
  -5   2 -14  154.83   12.72
   5   2  14  145.93   23.10
  -5  -2 -14  178.39   22.22
  -5  -2 -14  175.57   22.00
  -5   2 -14  171.19   20.64
   5   2  15  423.89   37.22
   5  -2  15  418.17   41.36
  -5  -2 -15  499.97   36.55
  -5   2 -15  375.49   33.55
  -5  -2 -15  432.92   35.03
   5  -3 -14    8.64   17.91
   5   3 -14   17.69   14.14
  -5   3  14   13.93   10.33
  -5  -3  14   34.17   15.02
   5   3 -14   49.57   11.92
   5  -3 -13   44.16   18.21
   5   3 -13   45.68   14.76
  -5   3  13   29.11   11.42
  -5  -3  13   69.94   16.00
   5   3 -12   11.20   12.69
   5  -3 -12   31.49   16.82
  -5   3  12   32.52   10.70
  -5  -3  12   45.58   14.63
   5   3 -11  130.77   18.29
   5  -3 -11  174.98   21.70
  -5   3  11  170.89   17.25
  -5  -3  11  192.64   19.91
   5   3 -10   65.74   14.01
   5  -3 -10  101.31   17.16
  -5  -3  10   69.33   12.24
  -5   3  10   89.08   12.60
  -5  -3  10  122.37   16.09
   5  -3 -10   81.14   10.51
   5   3 -10   94.68   12.81
   5   3  -9  607.14   38.12
   5   3  -9  513.20   37.12
  -5  -3   9  557.43   34.83
   5  -3  -9  562.93   38.79
  -5   3   9  608.65   35.82
   5  -3  -9  523.77   33.21
  -5  -3   9  717.11   40.23
   5   3  -9  638.58   36.29
   5   3  -8   13.77   10.74
   5  -3  -8   12.66   12.46
   5   3  -8   -5.19   10.33
  -5  -3   8    0.78    7.60
  -5   3   8   14.26    7.77
  -5  -3   8   18.84   11.60
   5  -3  -8    4.34    6.61
   5   3  -8    4.62    8.63
   5   3  -7  353.02   26.67
   5   3  -7  326.19   24.60
  -5  -3   7  354.28   21.97
   5  -3  -7  391.80   27.20
  -5   3   7  364.48   22.93
  -5  -3   7  408.74   27.34
   5  -3  -7  338.65   21.77
   5   3  -7  388.06   24.44
   5   3  -6  313.83   23.35
   5   3  -6  239.68   19.71
  -5  -3   6  260.18   16.80
   5  -3  -6  266.90   21.82
  -5   3   6  271.50   17.61
  -5  -3   6  291.54   22.19
   5  -3  -6  263.03   17.29
   5   3  -6  301.55   19.87
   5   3  -5    6.23   11.05
   5  -3  -5   12.90    9.97
   5   3  -5    7.19    7.40
  -5  -3   5    6.76    4.95
  -5  -3   5   -1.50    9.21
   5   3  -5    2.80    7.35
  -5   3   5    4.31    5.05
   5   3  -5    8.72    7.57
   5  -3  -5    7.76    5.90
   5  -3  -5    1.21    5.85
   5   3  -4  679.83   40.79
   5   3  -4  578.94   36.90
  -5  -3   4  617.46   34.75
   5  -3  -4  737.24   40.14
  -5   3   4  743.27   40.24
   5   3  -4  732.58   39.84
   5   3  -4  720.18   38.55
  -5   3   4  559.96   34.75
  -5  -3   4  712.72   40.96
   5  -3  -4  783.59   37.03
   5  -3  -4  665.02   36.39
   5   3  -4  733.13   38.35
  -5  -3   4  685.90   37.74
   5  -3  -3  243.68   15.30
   5   3  -3  218.59   18.57
   5   3  -3  212.57   13.71
   5  -3  -3  242.45   17.54
  -5   3   3  240.06   17.23
   5   3  -3  236.05   16.26
   5   3  -3  223.24   15.77
  -5  -3   3  220.43   18.32
   5  -3  -3  209.45   13.97
   5  -3  -3  249.82   14.44
   5   3  -3  256.03   15.70
  -5  -3   3  227.48   15.57
   5  -3  -3  184.77   11.80
   5  -3  -2  742.66   39.91
   5   3  -2  748.18   44.51
   5   3  -2  581.38   37.56
   5  -3  -2  818.19   42.37
  -5   3   2  764.93   42.01
   5   3  -2  753.01   40.67
   5   3  -2  720.35   40.69
  -5  -3   2  771.00   43.62
   5  -3  -2  787.10   39.72
   5   3  -2  766.41   40.30
  -5  -3   2  728.97   40.85
   5  -3  -2  685.88   38.53
   5  -3  -1  407.92   22.99
   5  -3  -1  409.27   25.23
  -5   3   1  390.91   24.80
   5   3  -1  459.30   23.58
   5   3  -1  392.02   24.17
  -5  -3   1  415.67   27.06
   5  -3  -1  423.51   23.12
  -5  -3   1  321.30   19.72
   5   3  -1  389.77   23.22
  -5  -3   1  425.52   24.76
   5  -3  -1  332.09   22.39
   5  -3   0  651.27   35.90
   5   3   0  625.57   35.53
   5  -3   0  673.24   38.03
  -5   3   0  640.36   37.55
   5   3   0  649.04   35.48
   5   3   0  629.84   37.29
   5  -3   0  716.96   36.69
  -5  -3   0  703.02   40.40
  -5  -3   0  600.65   34.53
   5   3   0  608.87   35.88
  -5  -3   0  697.47   38.23
   5  -3   0  613.71   36.66
   5   3   1  284.43   18.25
  -5   3  -1  274.29   19.55
   5   3   1  285.66   17.08
   5  -3   1  290.91   18.02
   5  -3   1  282.81   20.24
   5  -3   1  295.99   19.18
   5   3   1  304.92   20.01
  -5  -3  -1  315.47   23.26
  -5  -3  -1  290.62   18.29
   5   3   1  259.57   18.15
  -5  -3  -1  311.03   21.25
   5  -3   1  259.15   19.51
   5   3   2  124.81    8.42
   5   3   2  120.29   10.86
  -5   3  -2  142.12   12.09
   5  -3   2   88.08    9.66
   5  -3   2  133.59   10.12
   5   3   2  117.47    8.38
   5  -3   2   90.84   11.84
  -5   3  -2  114.59    7.56
   5  -3   2  125.37   12.68
   5  -3   2  147.03   12.07
   5   3   2  123.95   12.01
  -5  -3  -2  123.64   15.47
  -5  -3  -2  115.65   10.99
  -5  -3  -2  154.68   14.07
  -5   3  -3  166.14   10.81
   5   3   3  185.43   13.54
  -5   3  -3  182.02   13.96
   5  -3   3  150.01   14.76
   5  -3   3  184.29   12.35
   5   3   3  162.06   10.07
   5   3   3  178.24   10.16
   5  -3   3  183.54   14.92
   5   3   3  178.93   14.89
  -5  -3  -3  142.57   13.79
   5  -3   3  180.76   14.41
   5  -3   3  166.43   15.39
  -5  -3  -3  166.38   15.88
  -5   3  -4  123.34    8.17
   5   3   4  124.73   10.79
   5   3   4   66.67    4.61
   5  -3   4  112.92   13.36
   5  -3   4  124.82    8.72
   5   3   4   77.51    4.73
   5  -3   4   96.30   11.91
  -5   3  -4  102.38    9.97
   5  -3   4  106.04   11.32
   5   3   4   59.21    5.11
   5   3   4   64.58    6.06
   5   3   4  129.29   11.81
   5   3   4  123.09   10.40
   5  -3   4  146.74   12.09
  -5  -3  -4  108.35   11.58
   5   3   4  100.85    9.27
   5   3   4  117.16    8.91
  -5  -3  -4  154.17   14.03
   5  -3   5   37.97   11.46
  -5   3  -5   29.79    6.56
   5   3   5   34.78    8.59
   5  -3   5   34.92    9.72
   5  -3   5   45.68    6.40
  -5   3  -5   42.27    8.03
   5  -3   5   37.53    9.22
   5   3   5   24.37    4.34
   5   3   5   25.51    6.05
   5   3   5   32.41    8.76
  -5  -3  -5   31.65    9.22
   5  -3   5   56.90    9.50
   5  -3   5   36.73    3.77
   5   3   5   41.90    7.31
  -5  -3  -5   32.29   10.89
   5   3   5   48.85    8.76
   5  -3   5   31.87    4.36
   5   3   5   28.32    6.36
  -5   3  -6  865.21   45.29
   5   3   6  909.21   47.12
   5  -3   6  852.55   43.88
   5  -3   6  901.67   51.06
  -5   3  -6  928.29   45.91
   5   3   6  658.35   43.74
   5  -3   6  800.32   46.36
   5   3   6  655.34   42.20
   5   3   6  897.27   47.80
   5   3   6  934.89   46.90
  -5  -3  -6  869.46   49.02
   5  -3   6  950.72   47.99
   5  -3   6  831.72   49.02
   5   3   6  884.90   45.24
   5   3   6  893.28   44.36
  -5  -3  -6  960.09   50.24
   5  -3   7   58.47   14.76
  -5   3  -7   69.58    9.56
   5   3   7   63.01   10.90
  -5  -3  -7   60.53   13.51
   5  -3   7   60.25    7.63
  -5   3  -7   69.21    9.29
   5  -3   7   64.65   11.16
   5   3   7   54.17    9.48
   5   3   7   79.74   11.66
   5   3   7   66.99    8.24
   5  -3   7   88.78   11.54
  -5  -3  -7   79.85   13.08
   5   3   7   71.65    9.11
   5   3   7   69.40   11.50
  -5   3  -8  370.42   21.73
   5  -3   8  359.95   19.95
  -5   3  -8  357.59   22.58
   5   3   8  380.41   24.60
   5  -3   8  332.23   28.67
   5   3   8  315.55   21.33
   5   3   8  387.31   24.13
  -5  -3  -8  333.98   25.77
  -5  -3  -8  388.49   27.21
   5   3   8  340.76   21.32
   5   3   8  344.30   20.16
   5  -3   9   63.80   17.87
  -5   3  -9   79.69   11.45
   5   3   9   92.24   13.82
  -5  -3  -9   94.06   15.61
   5  -3   9   89.58    8.80
  -5   3  -9   99.59   10.33
   5  -3   9   69.97    7.47
  -5  -3  -9   97.38   14.85
  -5   3  -9   89.57   13.64
   5   3   9   89.13   10.46
   5  -3  10   19.25   15.63
   5   3  10   28.77   12.18
  -5   3 -10   26.42    7.73
   5  -3  10   49.15    6.69
  -5  -3 -10   26.64   12.34
  -5   3 -10   34.61   12.16
   5   3  10   33.44    8.40
  -5   3 -11   54.48    8.94
   5  -3  11   29.26   17.73
   5   3  11   49.34   13.70
  -5  -3 -11   63.30   14.87
  -5  -3 -11   50.53    8.04
  -5   3 -11   50.95   13.55
  -5   3 -12   11.36    7.53
   5  -3  12    8.98   16.72
   5   3  12   15.29   13.65
  -5  -3 -12   28.63   13.59
  -5  -3 -12    5.37    6.11
  -5   3 -12   26.16   13.14
   5  -3  13  142.66   25.91
  -5   3 -13  139.42   13.67
   5   3  13  146.09   20.15
  -5  -3 -13  215.33   21.92
  -5   3 -13  155.22   20.07
   5  -3  14  203.91   29.81
  -5   3 -14  180.51   16.20
   5   3  14  214.20   25.09
  -5  -3 -14  213.89   24.16
  -5   3 -14  265.94   24.29
  -5  -3 -14  242.26   25.03
   5   4 -13  158.59   17.72
   5  -4 -13  132.41   22.29
  -5  -4  13  170.42   20.74
   5   4 -13  125.55   14.94
   5  -4 -12  123.38   21.61
  -5  -4  12  153.04   19.86
  -5  -4  11  126.21   14.63
   5  -4 -11  127.74   20.21
  -5   4  11   93.30   14.21
  -5  -4  10  290.72   21.42
   5  -4 -10  350.00   27.90
   5  -4 -10  275.04   20.64
  -5   4  10  247.96   21.88
  -5  -4  10  356.67   27.55
   5  -4  -9   29.62   14.10
  -5  -4   9   21.93    8.49
  -5   4   9   12.85    8.83
  -5  -4   9   22.72   12.93
   5  -4  -9   16.38    8.36
   5   4  -9   -3.76   10.30
  -5  -4   8  187.55   14.22
   5  -4  -8  211.62   20.80
  -5   4   8  173.10   15.33
  -5  -4   8  223.34   20.39
   5  -4  -8  178.86   15.13
   5   4  -8  204.38   17.14
   5   4  -7    3.95   12.15
   5  -4  -7   18.86   12.50
  -5  -4   7    3.97    5.80
  -5  -4   7   -1.23   10.96
  -5   4   7    3.88    6.52
   5  -4  -7    5.66    7.04
   5   4  -7   -2.65    8.69
   5   4  -6   64.78   14.86
   5  -4  -6   60.26   12.70
  -5  -4   6   52.70    6.41
  -5  -4   6   48.38   12.23
  -5   4   6   44.37    7.14
   5   4  -6   70.98   10.24
   5  -4  -6   47.83    8.67
   5   4  -5   80.94   15.23
   5  -4  -5   81.68   13.63
  -5  -4   5   73.28    6.17
  -5  -4   5   88.86   13.72
  -5   4   5   62.77    6.60
   5   4  -5  104.67   11.27
   5  -4  -5   69.19    5.34
   5  -4  -5   76.46    9.57
   5   4  -4    3.42    9.79
   5  -4  -4   -6.80    5.43
   5  -4  -4   -0.45   10.25
  -5   4   4    9.23    9.33
   5   4  -4    4.71    7.62
  -5  -4   4    0.56   10.07
  -5   4   4   -2.30    2.54
  -5   4   4    2.11    2.37
   5  -4  -4    5.71    6.64
   5   4  -4   -2.91    7.33
   5  -4  -4    1.96    7.48
   5   4  -3  491.90   33.17
   5   4  -3  462.24   27.70
   5  -4  -3  547.47   31.23
  -5   4   3  506.42   30.18
  -5  -4   3  434.84   23.93
  -5  -4   3  431.04   24.57
  -5  -4   3  512.71   32.14
   5  -4  -3  469.23   27.98
   5  -4  -3  535.54   28.32
   5  -4  -3  436.59   26.57
   5   4  -3  512.08   28.47
   5   4  -2  220.76   22.21
   5   4  -2  228.84   16.13
   5  -4  -2  255.18   19.72
  -5   4   2  224.18   18.36
   5  -4  -2  282.60   17.46
  -5  -4   2  199.93   14.76
  -5  -4   2  245.01   13.44
  -5  -4   2  250.47   21.42
   5  -4  -2  201.84   16.33
   5   4  -2  243.42   17.20
   5   4  -1  360.37   20.60
   5  -4  -1  400.99   24.78
  -5   4   1  379.45   23.81
   5   4  -1  337.24   23.34
  -5  -4   1  287.50   20.58
  -5  -4   1  345.07   26.11
   5  -4  -1  373.17   22.58
   5   4  -1  331.84   21.64
   5  -4  -1  269.79   22.02
  -5  -4   1  375.00   23.66
  -5   4   0  492.93   28.75
   5   4   0  475.86   25.55
   5  -4   0  452.69   29.06
   5   4   0  477.22   26.72
   5   4   0  475.10   28.84
  -5  -4   0  377.99   26.81
  -5  -4   0  493.12   32.72
   5  -4   0  499.51   28.14
   5   4   0  414.84   26.77
   5  -4   0  336.86   27.59
  -5  -4   0  515.74   29.52
   5   4   1   21.66    7.11
   5  -4   1   19.93    7.73
  -5   4  -1   24.35    2.49
   5  -4   1   24.48    6.61
  -5   4  -1    7.45    8.28
   5   4   1   24.59    5.77
   5  -4   1    8.25    9.42
   5   4   1   15.86    4.88
  -5  -4  -1   42.15   13.21
   5   4   1   32.88    9.18
  -5  -4  -1   11.60    8.07
   5  -4   1   15.21    7.74
  -5  -4  -1   42.99   10.25
   5   4   2  230.75   15.61
  -5   4  -2  186.04   12.32
   5   4   2  200.85   12.46
  -5   4  -2  224.86   16.61
   5  -4   2  224.17   14.84
   5  -4   2  208.24   17.44
   5   4   2  220.55   13.17
   5   4   2  227.84   17.16
  -5  -4  -2  230.22   17.25
   5  -4   2  239.39   16.88
  -5  -4  -2  267.11   22.36
   5  -4   2  163.34   17.15
  -5  -4  -2  230.85   17.78
   5   4   3   86.98    6.26
  -5   4  -3   92.89    7.84
   5   4   3   70.19    5.81
   5  -4   3   77.74   10.59
   5   4   3   93.11   10.23
   5  -4   3   87.65   12.29
   5  -4   3   86.32    8.84
  -5   4  -3   90.25   10.56
   5  -4   3  108.08   12.46
   5   4   3   89.50   11.84
  -5  -4  -3  107.90   12.88
  -5  -4  -3   86.09   11.90
   5  -4   3   99.33   11.15
   5   4   3  102.77   10.04
   5   4   3   87.73    9.15
   5  -4   3   75.30    8.04
   5  -4   4   29.49    6.51
  -5   4  -4   19.72    7.95
   5  -4   4    9.60    9.17
   5  -4   4   19.81    8.61
   5   4   4   29.63    7.97
  -5   4  -4   26.68    6.45
   5  -4   4   30.54   10.24
  -5  -4  -4   19.79    9.46
   5  -4   4   23.69    8.59
  -5  -4  -4   29.98   10.14
   5   4   4   28.06    7.72
   5  -4   4   21.16    4.72
   5   4   4   36.53    6.91
   5   4   5  310.84   19.71
  -5   4  -5  249.53   18.16
  -5   4  -5  316.71   19.70
   5  -4   5  301.53   17.64
   5  -4   5  257.91   22.28
   5  -4   5  280.09   20.71
  -5  -4  -5  292.83   22.06
   5  -4   5  311.29   20.90
   5  -4   5  307.35   22.95
   5   4   5  278.26   18.69
   5  -4   5  214.86   14.65
   5   4   5  304.11   17.80
  -5  -4  -5  352.25   22.76
   5  -4   6    9.01   12.24
   5   4   6   15.25    8.67
  -5   4  -6    4.58    7.34
   5  -4   6   12.06    6.26
  -5   4  -6   27.51    8.21
   5  -4   6   -3.85    9.93
   5   4   6   13.72    8.93
   5   4   6    8.07    6.46
  -5  -4  -6   12.43   10.51
  -5  -4  -6   14.50   11.02
   5   4   6   25.10    8.09
   5   4   7  621.03   36.82
  -5   4  -7  508.04   35.62
   5  -4   7  644.16   33.92
   5  -4   7  568.17   41.15
  -5   4  -7  625.68   35.67
   5  -4   7  554.43   36.52
  -5  -4  -7  661.71   40.08
   5   4   7  661.62   37.03
   5   4   7  585.07   35.35
   5   4   7  568.64   33.92
  -5  -4  -7  635.97   39.12
   5  -4   8   20.68    6.90
  -5   4  -8   12.99    7.87
   5  -4   8    1.25   10.44
   5  -4   8    2.49   15.83
   5   4   8   18.55   10.40
  -5   4  -8   15.10    9.14
  -5  -4  -8   18.76   12.41
  -5  -4  -8   13.47   12.08
   5   4   8   31.70    8.79
   5   4   9  399.79   27.78
   5  -4   9  375.38   33.49
  -5   4  -9  402.90   25.73
  -5  -4  -9  465.24   31.63
  -5  -4  -9  391.41   29.90
   5   4   9  346.91   25.47
  -5   4 -10   78.67   11.04
   5  -4  10   73.51   19.19
   5   4  10   88.71   14.51
  -5  -4 -10   87.76   16.29
   5   4  10   72.52   11.70
  -5   4 -11   29.36    9.06
   5  -4  11   34.22   18.43
   5   4  11   45.23   13.31
  -5  -4 -11   30.25   14.04
  -5   4 -12   94.99   12.27
   5  -4  12   93.42   22.28
   5   4  12   88.46   16.70
  -5  -4 -12  112.84   18.37
  -5   4 -13   51.11   10.77
   5  -4  13   69.75   21.61
   5   4  13   89.27   16.97
  -5  -4 -13   62.98   16.64
  -5  -4 -13   98.79   17.73
   5  -5 -12  147.91   22.71
   5   5 -12   90.62   15.28
  -5  -5  12  163.43   22.42
   5   5 -12  144.64   16.03
   5  -5 -11  163.33   22.56
   5   5 -11  145.98   17.48
  -5  -5  11  216.78   23.46
   5   5 -11  167.12   17.29
   5  -5 -10   68.21   17.33
   5   5 -10   43.65   11.95
  -5  -5  10   62.03   16.22
  -5   5  10   45.82   11.26
   5  -5 -10   87.15   11.53
   5   5  -9  171.91   17.94
   5  -5  -9  247.02   23.48
  -5   5   9  186.10   16.99
  -5  -5   9  270.88   23.69
  -5  -5   9  169.23   12.93
   5  -5  -9  222.10   17.54
   5  -5  -8   16.69   13.87
  -5  -5   8    1.89    6.50
   5   5  -8    3.30    8.79
  -5  -5   8   -5.70   13.28
  -5   5   8    1.58    7.81
   5  -5  -8    7.52    8.80
   5   5  -8    3.72    9.63
  -5  -5   8    1.37    5.38
   5  -5  -7   57.85   14.36
  -5   5   7   50.84   12.26
  -5  -5   7   39.86    6.33
   5   5  -7   32.48    9.61
  -5  -5   7   58.95   14.65
  -5   5   7   36.31    8.61
  -5   5   7   55.04    8.14
   5   5  -7   56.85   10.96
  -5  -5   7   33.41    6.33
   5  -5  -7   43.29    9.66
   5  -5  -6    9.65   11.82
  -5  -5   6   -4.38    2.63
   5   5  -6   -1.06    7.68
  -5  -5   6   10.67   12.17
  -5   5   6   -0.80    5.67
  -5   5   6    4.91    5.24
  -5  -5   6   21.15    3.84
   5   5  -6    1.13    8.79
   5  -5  -6    2.75    8.52
  -5  -5   6    3.49    5.44
   5  -5  -5   24.56   12.53
   5   5  -5   22.49    7.95
  -5   5   5   12.84    3.33
  -5  -5   5   26.70   12.29
  -5   5   5   12.13    4.00
  -5  -5   5   11.62    5.88
  -5  -5   5   18.59    4.31
   5   5  -5   15.39    8.52
   5  -5  -5   33.75    9.29
   5  -5  -4   91.33   14.55
   5   5  -4   71.44   10.00
  -5  -5   4   91.06   15.15
  -5  -5   4   79.61    8.80
  -5  -5   4   65.71    6.80
   5  -5  -4  104.86   11.21
   5   5  -4   80.96   11.04
   5  -5  -4   73.51   11.28
   5  -5  -3    3.70   11.23
  -5   5   3   17.94    9.55
   5   5  -3   12.72    7.28
  -5  -5   3   11.81   12.06
   5  -5  -3   10.18    9.04
  -5  -5   3   13.83    6.93
  -5  -5   3   12.75    4.92
   5  -5  -3   16.87    8.02
   5   5  -3    9.76    8.12
  -5   5   2  278.29   20.50
   5   5  -2  259.70   17.50
   5  -5  -2  290.68   21.90
  -5  -5   2  245.77   15.88
  -5  -5   2  297.97   24.32
   5  -5  -2  304.05   19.70
  -5  -5   2  277.56   18.39
   5   5  -2  259.83   18.71
   5   5  -1  316.16   19.09
  -5   5   1  310.05   22.24
   5  -5  -1  321.39   23.55
   5  -5  -1  344.25   21.94
  -5  -5   1  335.86   26.66
  -5  -5   1  357.73   21.77
   5  -5   0   43.27   10.23
   5   5   0   59.23    7.12
  -5   5   0   76.79   10.91
   5  -5   0   64.17   12.91
  -5  -5   0   90.31   15.72
  -5  -5   0   74.16   11.62
   5  -5   0   55.49   10.60
   5  -5   0   59.36    9.46
  -5   5  -1  213.50   14.39
  -5   5  -1  285.63   19.92
   5   5   1  273.51   15.68
   5   5   1  301.39   18.77
   5  -5   1  292.04   21.51
  -5  -5  -1  338.04   21.27
  -5  -5  -1  309.11   25.60
   5  -5   1  341.38   20.58
  -5  -5  -1  310.86   21.20
   5   5   1  286.83   19.33
   5   5   1  291.44   18.09
   5  -5   1  239.68   17.89
   5  -5   1  198.24   20.53
   5   5   2   71.65    9.81
  -5   5  -2   55.37    6.90
   5  -5   2   58.85   11.51
   5   5   2   53.10    5.95
  -5   5  -2   71.02   10.65
   5  -5   2   69.83   12.17
  -5  -5  -2  104.16   17.41
  -5  -5  -2   94.20   13.01
   5  -5   2   59.38   10.67
  -5  -5  -2   83.55   12.35
   5   5   2   84.64   10.15
   5  -5   2   57.91    7.86
   5   5   2   79.89    9.21
   5   5   3   22.84    3.97
  -5   5  -3   34.26    8.66
   5  -5   3   23.92   10.64
   5   5   3   32.84    8.70
  -5   5  -3   30.97    6.95
   5  -5   3   26.64   10.75
  -5  -5  -3   29.93   11.14
   5  -5   3   32.19    9.17
  -5  -5  -3   39.36   10.75
   5   5   3   26.64    8.31
   5  -5   3   35.92    5.63
   5   5   3   27.17    7.28
   5   5   4  158.77   13.81
  -5   5  -4  151.42   14.01
   5  -5   4  147.84   15.52
  -5   5  -4  124.14   12.76
   5  -5   4  153.74   15.47
  -5  -5  -4  191.25   17.63
   5   5   4  164.69   14.19
  -5  -5  -4  166.80   15.75
   5   5   4  160.17   12.62
   5  -5   4  129.91    9.88
  -5   5  -5   15.42    8.36
   5  -5   5   -4.18   10.59
   5  -5   5    1.06   11.24
   5   5   5   -2.85    8.62
  -5   5  -5   15.06    8.31
  -5  -5  -5   21.55   10.40
  -5  -5  -5    3.44   11.12
   5   5   5    7.39    6.99
   5   5   5   15.26    8.30
   5   5   6  415.78   25.59
  -5   5  -6  287.48   24.90
   5  -5   6  295.92   26.56
  -5   5  -6  402.85   25.14
   5  -5   6  378.03   26.36
  -5  -5  -6  426.16   29.37
   5   5   6  391.04   25.03
  -5  -5  -6  402.11   27.98
   5   5   6  366.66   23.26
  -5   5  -7    6.95    8.83
   5  -5   7  -12.38   11.66
   5  -5   7   -1.87   11.80
   5   5   7   -5.89   10.09
  -5   5  -7   -7.82    9.80
  -5  -5  -7   -9.69   13.40
   5   5   7   10.73    8.65
  -5  -5  -7    2.27   11.39
   5   5   8  467.87   30.16
  -5   5  -8  391.58   30.53
   5  -5   8  398.02   34.32
  -5   5  -8  485.88   29.25
   5  -5   8  421.25   30.27
  -5  -5  -8  469.00   33.29
   5   5   8  444.62   29.16
  -5  -5  -8  476.39   32.34
  -5   5  -9   19.48    9.72
   5  -5   9   11.58   12.32
   5  -5   9    3.72   16.38
   5   5   9   18.42   11.54
  -5  -5  -9   11.31   12.35
  -5  -5  -9   26.74   14.05
   5   5   9   25.67    9.94
   5  -5  10  187.08   19.36
   5   5  10  206.97   19.18
   5  -5  10  144.06   24.98
  -5   5 -10  193.35   16.92
  -5  -5 -10  190.56   21.26
   5   5  10  150.68   16.63
  -5   5 -11   89.89   12.98
   5  -5  11   72.43   21.96
   5   5  11   97.35   15.81
  -5  -5 -11   99.40   17.52
  -5   5 -12   -3.59    9.27
   5  -5  12    2.49   17.74
   5   5  12  -20.68   13.93
  -5  -5 -12    2.35   13.60
   5  -6 -10  168.68   21.85
   5   6 -10   86.97   15.71
  -5  -6  10  186.60   22.67
  -5   6  10   71.33   12.81
   5   6 -10  167.38   16.51
   5  -6  -9   18.85   15.87
   5   6  -9    9.97   10.31
  -5  -6   9   19.60   14.71
  -5   6   9   11.71    8.67
   5  -6  -9   25.00   10.75
   5  -6  -8  116.79   18.73
  -5   6   8  111.76   15.81
   5   6  -8  100.01   14.21
  -5  -6   8  143.49   19.47
  -5  -6   8  133.07   12.11
  -5   6   8   79.13   11.92
   5  -6  -8  130.99   14.86
   5   6  -7   15.65    9.34
   5  -6  -7   11.10   14.01
  -5   6   7    8.03   10.62
  -5  -6   7   10.72   14.17
  -5   6   7    2.52    6.67
   5   6  -7   11.88    9.79
  -5  -6   7   11.54    7.79
   5  -6  -7    8.72    9.90
   5   6  -6   41.33   10.47
   5  -6  -6   42.17   14.21
  -5   6   6   48.18   12.02
  -5  -6   6   41.03   14.59
  -5   6   6   25.66    6.02
   5   6  -6   38.84   10.79
   5  -6  -6   39.10   11.26
  -5  -6   6   34.47    8.78
   5   6  -5   46.49    9.77
   5  -6  -5   74.63   14.58
  -5  -6   5   58.53   15.28
  -5  -6   5   36.02    6.89
   5   6  -5   42.78   10.34
   5  -6  -5   33.04   11.23
  -5  -6   5   53.55    9.19
   5   6  -4   -1.47    7.76
   5  -6  -4    9.01   11.76
  -5  -6   4   14.89   13.88
  -5  -6   4    1.35    5.46
   5  -6  -4    7.96    9.86
  -5  -6   4   -1.21    8.03
   5   6  -3  110.12   11.29
   5  -6  -3  103.40   16.37
  -5  -6   3  121.96   18.26
   5  -6  -3  109.48   14.25
  -5  -6   3  140.74   13.07
  -5  -6   3  107.54   10.04
   5   6  -2   44.25    8.00
  -5   6   2   47.93   11.20
   5  -6  -2   50.96   13.63
  -5  -6   2   69.23   15.60
  -5  -6   2   51.51   11.09
   5   6  -1  106.27    9.92
  -5   6   1  118.97   13.75
   5  -6  -1  116.28   15.77
  -5  -6   1  115.88   18.33
  -5  -6   1  127.29   13.79
   5   6  -1  121.93   13.29
   5  -6  -1   93.76   12.44
   5   6   0   82.40    7.34
  -5   6   0   84.27   11.59
   5  -6   0   88.55   13.69
  -5  -6   0  118.40   18.11
  -5  -6   0  115.45   13.10
   5   6   0   80.17   11.35
  -5   6  -1   10.15    6.14
   5  -6   1   25.76   10.84
   5   6   1   17.70    5.34
  -5   6  -1   25.71    9.53
   5  -6   1   26.65   11.73
  -5  -6  -1   27.76   14.66
  -5  -6  -1   40.52   11.43
   5   6   1   26.68    9.26
   5   6   2   89.43    7.48
   5   6   2  105.02   11.61
  -5   6  -2   62.34    9.83
  -5   6  -2  106.41   12.52
   5  -6   2  101.62   14.43
  -5  -6  -2   95.92   18.44
  -5  -6  -2  107.53   14.07
   5   6   2  102.95   12.11
  -5   6  -3   43.23   10.01
   5  -6   3   29.95   11.78
   5   6   3   29.78    9.26
  -5   6  -3    7.55    8.00
  -5  -6  -3   55.41   12.52
   5  -6   3   24.58    5.76
  -5  -6  -3   41.39   11.28
   5   6   3   29.02    9.48
  -5   6  -4   22.49    9.51
   5  -6   4    3.22   11.61
   5   6   4   38.55    9.59
  -5   6  -4   20.70    8.88
  -5  -6  -4   19.63   11.71
  -5  -6  -4   26.54   10.86
   5   6   4   33.93    9.77
   5   6   5  157.91   14.66
  -5   6  -5  151.13   15.16
  -5   6  -5   95.17   14.69
   5  -6   5  117.34   16.31
  -5  -6  -5  207.43   19.20
   5   6   5  177.38   15.62
  -5  -6  -5  129.08   16.26
  -5   6  -6    8.11    9.23
   5  -6   6  -16.08   12.59
   5   6   6   -0.41    9.37
   5  -6   6  -21.17   14.30
  -5   6  -6    0.51    9.65
  -5  -6  -6  -10.24   13.47
   5   6   6    4.27    9.23
  -5  -6  -6   -9.28   11.46
   5   6   7  227.07   18.76
   5  -6   7  177.64   22.27
  -5   6  -7  168.50   19.86
  -5   6  -7  233.77   18.58
   5  -6   7  173.76   19.54
  -5  -6  -7  253.84   23.14
   5   6   7  201.98   18.29
  -5  -6  -7  210.29   20.20
  -5   6  -8    5.80    9.82
   5  -6   8    5.56   12.53
   5  -6   8   -4.87   15.36
   5   6   8   12.40   11.17
  -5  -6  -8    9.97   13.99
  -5  -6  -8   10.34   12.73
   5   6   8   10.28    9.77
  -5   6  -9  100.21   13.98
   5  -6   9   98.26   15.88
   5  -6   9   81.03   18.61
   5   6   9  100.34   14.88
  -5  -6  -9   70.97   17.13
   5   6   9   98.80   14.04
  -5   6 -10   42.92   11.44
   5  -6  10   43.52   13.73
   5  -6  10   26.29   16.05
   5   6  10   42.44   13.25
  -5  -6 -10   25.92   15.50
   5   6  10   44.39   11.94
   5   7  -7   55.09   11.92
   5  -7  -7   42.63   16.77
  -5   7   7   30.25   13.56
   5  -7  -7   51.58   13.44
   5   7  -6   54.10   11.13
   5  -7  -6   71.01   16.41
  -5   7   6   77.66   14.17
   5  -7  -6   53.89   13.45
  -5  -7   6   59.78   11.48
   5   7  -5    6.60    8.13
   5  -7  -5   -2.37   14.27
  -5   7   5    8.94   11.07
   5  -7  -5   -1.45   12.01
  -5  -7   5    1.84    9.41
   5   7  -4   93.01   11.53
   5  -7  -4  105.48   17.27
  -5  -7   4  117.37   19.21
   5  -7  -4   81.81   15.34
  -5  -7   4  113.05   14.00
   5  -7  -3   12.55   13.53
   5   7  -3   19.34    7.99
  -5  -7   3   14.26   15.47
   5  -7  -3    0.97   11.92
   5   7  -3    7.03   10.14
  -5  -7   3   19.73   10.54
   5   7  -2   57.20    8.82
   5  -7  -2   70.08   14.94
  -5  -7   2   77.94   17.90
  -5  -7   2   77.58   12.87
   5   7  -2   69.60   11.92
  -5   7   1   12.07    3.07
   5   7  -1   13.58    6.56
  -5   7   1   43.16   10.86
   5  -7  -1   19.20   13.30
  -5  -7   1   43.70   16.63
  -5  -7   1   22.02   11.76
   5   7  -1   21.04   10.24
   5   7   0   54.13    7.52
  -5   7   0   55.47   11.62
   5  -7   0   42.90   13.63
  -5  -7   0   51.59   17.37
  -5  -7   0   73.77   13.33
   5   7   0   53.49   11.37
  -5   7  -1   38.00   11.04
   5  -7   1   46.50   13.74
  -5  -7  -1   57.03   17.95
  -5  -7  -1   61.90   13.26
   5  -7   1   47.05    8.18
   5   7   1   40.32   11.15
   5   7   2   19.31    9.57
  -5   7  -2   18.05   10.12
   5  -7   2   14.49   12.47
  -5  -7  -2   29.42   16.33
  -5  -7  -2   19.74   11.92
   5   7   2    6.56    9.84
  -5   7  -3   37.22   10.92
   5  -7   3   32.38   13.05
   5   7   3   49.96   10.37
  -5  -7  -3   28.23   12.99
  -5  -7  -3   50.63   12.35
   5   7   3   48.02   11.43
  -5   7  -4   17.01   10.52
   5  -7   4   11.53   12.11
   5   7   4    0.40    9.23
  -5  -7  -4   11.34   12.66
  -5  -7  -4   28.00   11.96
   5   7   4   31.83   10.77
  -5   7  -5   14.92   10.36
   5  -7   5  -10.75   12.86
   5   7   5   21.33   10.04
  -5  -7  -5   18.99   13.28
  -5  -7  -5   20.68   11.68
   5   7   5   16.54   10.25
  -5   7  -6   98.94   14.00
   5  -7   6   64.52   15.21
   5   7   6   91.42   13.59
  -5  -7  -6   98.82   17.37
  -5  -7  -6  102.82   15.28
   5   7   6   73.19   13.44
  -5   7  -7   24.26   10.99
   5  -7   7    3.18   13.11
   5   7   7   19.93   11.44
  -5  -7  -7    8.42   14.32
   5   7   7   30.55   11.69
  -5  -7  -7    6.51   12.46
  -5   7  -8   18.46   11.34
   5  -7   8   30.82   14.03
   5   7   8   14.95   11.60
  -5  -7  -8   30.94   14.34
  -5  -7  -8   27.52   13.30
   5   7   8    4.25   11.53
   5  -8  -3   21.71   14.60
   5   8  -3   48.35    9.24
   5  -8  -3   17.97   13.95
   5  -8  -3   26.50   10.77
   5   8  -3   52.52   12.93
  -5  -8   3   58.92   13.38
   5  -8  -2   21.08   14.59
   5  -8  -2   16.27   13.95
  -5  -8   2   29.61   12.85
   5  -8  -2   13.64    9.79
   5   8  -2   16.49   11.65
   5  -8  -1   54.67   15.35
  -5  -8   1   43.80   13.53
   5   8  -1   44.06   12.68
  -5   8   0   -0.49   10.72
   5  -8   0   25.73   14.47
  -5  -8   0    8.08   12.67
   5   8   0    7.86   11.49
  -5   8  -1    7.37   10.98
   5  -8   1   -1.08   13.13
  -5  -8  -1    3.94   12.99
   5   8   1   16.42   10.84
  -5   8  -2   18.22   11.40
   5  -8   2    7.56   13.03
   5   8   2   15.09   10.35
  -5  -8  -2   24.00   13.66
   5   8   2   21.10   11.60
  -5   8  -3    8.45   10.36
   5  -8   3   27.68   13.18
   5   8   3    5.89    9.84
  -5  -8  -3   -1.84   13.27
   5   8   3   -3.61   10.99
  -6   0  12  651.87   40.74
   6   0 -12  465.26   41.31
  -6   0  11   48.01   14.12
   6   0 -11   56.75   16.97
  -6   0  10  825.34   47.01
   6   0 -10  646.66   48.41
  -6   0   9  111.32   14.73
   6   0  -9   95.87   17.08
  -6   0   8  157.72   16.21
   6   0  -8  152.27   18.88
  -6   0   7  344.86   23.50
   6   0  -7  294.92   21.57
   6   0  -7  306.33   24.90
  -6   0   6   14.08    8.78
   6   0  -6   24.23    8.11
  -6   0   6    8.83    7.81
   6   0  -6   25.20   11.01
  -6   0   5  581.35   34.28
   6   0  -5  587.59   33.16
  -6   0   5  539.79   32.92
   6   0  -5  552.44   35.19
  -6   0   4   20.20    8.07
   6   0  -4   24.69    7.12
   6   0  -4   28.56    9.91
   6   0  -3  773.47   43.88
   6   0  -3  971.39   47.70
   6   0  -3  795.66   44.00
  -6   0   3 1018.69   48.56
   6   0  -3  974.19   46.76
   6   0  -3  925.38   48.24
   6   0  -2  141.68   11.75
   6   0  -2  123.64    9.99
   6   0  -2  127.72   10.41
   6   0  -2  134.34   12.99
   6   0  -2  158.22   11.47
  -6   0   2  169.66   13.42
   6   0  -1  579.08   36.01
   6   0  -1  626.23   36.48
   6   0  -1  632.96   36.58
   6   0  -1  702.56   37.80
   6   0  -1  711.33   36.58
  -6   0   1  770.12   38.75
   6   0  -1  681.36   37.19
   6   0   0  353.94   23.46
   6   0   0  359.18   22.69
   6   0   0  429.10   24.26
   6   0   0  435.47   22.97
   6   0   0  376.25   23.20
   6   0   1  112.74    9.19
   6   0   1  102.61   11.26
   6   0   1  113.24   10.84
   6   0   1  127.48    9.42
   6   0   1  116.31    8.01
   6   0   1  103.29    9.59
   6   0   2   80.11    7.47
   6   0   2   83.62   11.05
   6   0   2   88.95    9.59
   6   0   2   80.09    7.79
   6   0   2   91.16    7.98
   6   0   2   70.29    8.03
   6   0   3  739.68   44.44
   6   0   3  750.97   40.20
   6   0   3  755.08   41.92
   6   0   3  715.99   40.73
   6   0   3  831.51   41.88
   6   0   3  755.95   40.70
   6   0   4  114.34    8.16
   6   0   4   94.94   13.66
   6   0   4  103.23   10.85
  -6   0  -4  101.40   10.02
   6   0   4   89.55    9.03
   6   0   4  128.39   11.49
   6   0   4  108.30    8.80
   6   0   5  883.22   52.60
   6   0   5  928.47   46.01
   6   0   5  874.75   48.24
   6   0   5  749.09   47.15
  -6   0  -5  909.72   48.88
   6   0   5  963.03   49.82
   6   0   6  160.78   18.45
   6   0   6  154.03   13.38
  -6   0  -6  157.14   14.48
   6   0   6  160.32   14.76
   6   0   6  167.98   11.22
   6   0   6  165.62   11.02
   6   0   7  279.39   25.18
   6   0   7  290.38   19.64
  -6   0  -7  320.86   22.03
   6   0   7  306.84   21.61
   6   0   7  270.49   16.97
   6   0   8   89.68   11.16
   6   0   8   90.71   12.11
   6   0   8  101.63   17.89
   6   0   8   89.87   13.05
  -6   0  -8   88.42   13.32
   6   0   9   78.80   11.57
  -6   0  -9   88.37   13.99
   6   0  10  245.93   26.63
  -6   0 -10  234.56   22.01
   6   0  11   70.14   19.21
   6   0  11   68.79   11.38
  -6   0 -11   52.65   13.84
   6   0  12  444.35   36.06
  -6   0 -12  327.94   29.06
   6   0  13  497.50   40.49
  -6   0 -13  433.39   34.73
  -6   1  12  143.57   18.33
  -6  -1  12  148.62   19.79
   6  -1 -12  127.26   21.76
   6   1 -12   94.76   20.94
  -6   1  11  545.43   36.36
  -6  -1  11  560.27   37.59
   6  -1 -11  537.87   39.97
   6   1 -11  438.54   38.24
  -6   1  10   -0.52   10.73
  -6  -1  10   -2.43   11.77
   6  -1 -10   10.07   14.31
   6   1 -10  -12.58   14.27
  -6   1   9  257.42   21.64
  -6  -1   9  320.06   23.98
   6  -1  -9  267.21   24.64
   6   1  -9  241.04   24.83
  -6   1   8  107.01   12.54
  -6  -1   8  105.71   14.56
   6   1  -8   90.01   16.43
  -6  -1   8   75.84   11.61
   6  -1  -8   96.44   15.65
  -6  -1   7   30.39   10.52
   6   1  -7   18.33    8.56
  -6   1   7   16.10    8.55
   6   1  -7   16.39   12.31
  -6  -1   7   17.31    8.37
   6  -1  -7   25.86   11.72
   6   1  -6  409.67   22.97
  -6   1   6  411.77   26.44
  -6  -1   6  479.27   28.77
   6   1  -6  432.65   26.39
   6   1  -6  405.90   29.06
  -6  -1   6  388.65   25.27
   6  -1  -6  429.22   29.17
   6   1  -5   66.01    6.70
   6  -1  -5   71.48   12.16
  -6  -1   5   53.86    8.74
  -6   1   5   56.65   10.05
   6   1  -5   73.23   12.67
  -6   1   5   62.29    9.27
  -6  -1   5   58.56   11.18
   6  -1  -5   89.21    9.48
   6   1  -5   72.17    9.61
   6   1  -4  745.40   40.47
   6   1  -4  778.75   43.72
   6  -1  -4  775.12   44.56
   6   1  -4  729.86   44.18
   6   1  -4  782.75   42.88
  -6   1   4  720.42   42.33
  -6  -1   4  827.79   44.92
   6  -1  -4  747.49   42.28
   6   1  -4  826.74   43.77
   6   1  -3  328.54   19.54
   6   1  -3  325.83   22.14
   6   1  -3  346.79   21.79
   6  -1  -3  320.34   22.91
   6   1  -3  320.47   22.36
   6   1  -3  343.15   21.39
  -6  -1   3  385.54   23.91
  -6   1   3  316.85   20.91
   6  -1  -3  340.75   20.75
   6   1  -3  336.74   22.07
   6   1  -2  563.76   32.44
   6   1  -2  465.38   33.52
   6   1  -2  610.68   33.87
   6  -1  -2  607.48   33.80
   6  -1  -2  638.84   35.42
   6   1  -2  604.35   34.36
   6   1  -2  593.89   33.79
  -6  -1   2  690.95   36.68
  -6   1   2  609.39   33.44
   6  -1  -2  614.09   32.89
   6   1  -2  611.43   34.15
  -6  -1   2  547.28   34.21
   6   1  -1  423.48   24.36
   6   1  -1  380.23   24.25
   6   1  -1  377.19   26.42
   6  -1  -1  396.50   24.57
   6  -1  -1  453.87   26.59
   6   1  -1  421.82   25.18
   6   1  -1  412.59   24.93
  -6  -1   1  468.36   27.95
   6  -1  -1  450.12   23.74
   6   1  -1  397.76   24.93
  -6  -1   1  384.64   26.38
   6  -1   0   39.89    5.90
   6  -1   0   36.21    5.56
   6   1   0   45.60    7.69
  -6  -1   0   43.10    9.59
   6   1   0   48.53    7.67
   6  -1   0   35.12    6.74
   6   1   0   48.09    6.51
   6  -1   0   60.67    9.38
  -6  -1   0   57.23   10.18
   6  -1   0   48.57    5.87
   6   1   0   61.36    7.59
   6  -1   0   45.70    5.72
   6   1   0   47.64    7.63
   6   1   1  143.49   12.70
   6  -1   1  144.05   11.25
   6  -1   1  136.12   12.13
   6   1   1  156.52   10.79
  -6  -1  -1  113.80   14.41
   6  -1   1  164.76   13.41
   6   1   1  148.79   11.96
   6  -1   1  166.58   11.48
   6   1   1  161.09   12.03
   6  -1   1  166.25   10.15
   6  -1   1  148.61   11.33
   6   1   1  138.14   11.57
   6   1   2  322.13   20.40
   6  -1   2  285.73   20.22
   6   1   2  286.36   17.13
   6  -1   2  292.45   17.81
   6  -1   2  318.69   20.05
   6   1   2  284.02   18.40
   6  -1   2  288.89   16.58
   6  -1   2  321.14   19.25
   6   1   2  316.63   18.97
   6   1   2  275.40   16.98
   6  -1   2  310.10   17.82
   6   1   2  268.19   18.17
  -6  -1  -2  254.34   22.15
   6  -1   3   25.59   10.07
   6   1   3   27.83    9.06
  -6  -1  -3   11.81    9.71
   6  -1   3   30.18    5.64
   6   1   3   29.82    4.82
   6  -1   3   30.28    8.42
   6   1   3   33.14    7.08
   6  -1   3   22.61    4.46
   6   1   3   20.03    6.84
   6  -1   3   23.49    7.55
   6  -1   3   30.98    5.73
  -6  -1  -3   19.24    5.85
   6   1   3   23.20    6.26
   6   1   3   27.71    6.40
   6   1   4 1267.90   65.06
   6  -1   4 1151.80   65.45
   6  -1   4 1215.12   60.64
   6   1   4 1176.71   59.68
   6  -1   4 1186.75   62.72
   6   1   4 1122.15   61.19
  -6  -1  -4 1190.64   61.97
   6  -1   4 1164.45   63.59
   6  -1   4  988.15   59.59
   6   1   4 1167.64   62.13
   6   1   4 1250.24   62.02
   6  -1   4 1233.50   60.42
  -6  -1  -4 1220.19   67.43
   6  -1   5   35.46   11.98
   6   1   5   38.46   11.60
  -6  -1  -5   42.29   12.52
   6  -1   5   31.42    5.36
   6  -1   5   26.34    8.74
   6   1   5   18.11    7.36
   6   1   5   17.35    7.24
   6  -1   5   27.73    8.71
   6  -1   5   27.76    9.24
  -6  -1  -5   21.74    8.31
   6   1   5   30.74    8.36
   6   1   6  785.68   44.72
   6  -1   6  712.07   45.43
   6   1   6  683.89   40.62
   6  -1   6  704.49   40.68
   6   1   6  640.72   39.10
   6  -1   6  751.62   42.86
   6   1   6  609.86   40.50
  -6   1  -6  731.43   41.47
  -6  -1  -6  761.55   42.02
   6   1   6  736.23   41.49
   6  -1   6  730.01   37.70
   6   1   6  719.46   38.95
   6   1   6  736.88   38.59
  -6  -1  -6  788.31   46.80
   6  -1   7   54.59   15.10
   6   1   7   49.79   13.72
  -6  -1  -7   51.47   13.47
   6  -1   7   56.52   10.11
   6   1   7   46.63    8.43
   6   1   7   61.87    9.07
   6  -1   7   40.11    7.92
   6   1   7   65.83   10.95
   6  -1   7   65.36   11.62
  -6  -1  -7   73.26   11.79
  -6   1  -7   64.87   11.00
   6   1   7   74.07    7.21
   6   1   7   56.24    7.37
   6  -1   8  174.60   21.51
   6   1   8  173.85   19.61
   6  -1   8  184.95   15.74
   6   1   8  154.07   13.84
   6  -1   8  203.58   18.02
  -6  -1  -8  182.71   17.21
  -6   1  -8  198.68   17.57
   6   1   8  204.83   17.10
   6  -1   8  171.04   13.61
  -6  -1  -8  205.52   21.06
   6   1   8  162.12   12.64
   6   1   9   75.53   10.56
   6  -1   9   95.07   12.10
   6  -1   9   96.84   18.84
   6   1   9   90.19   16.91
  -6  -1  -9   66.18   15.48
  -6  -1  -9  105.48   14.45
  -6   1  -9   91.33   13.90
   6  -1  10    4.55   15.84
   6   1  10   -6.20   14.25
  -6  -1 -10   -7.47   11.12
  -6   1 -10    2.37   10.90
   6  -1  11  256.16   29.10
   6   1  11  254.07   26.93
  -6   1 -11  281.03   24.21
  -6  -1 -11  254.28   23.20
   6  -1  12  266.63   30.39
   6   1  12  300.37   28.98
  -6   1 -12  273.92   25.11
  -6  -1 -12  224.01   23.51
   6  -1  13  133.96   25.85
   6   1  13  129.12   23.71
  -6  -1 -13  151.07   19.97
  -6   1 -13  142.05   19.76
   6  -2 -12  173.66   24.67
   6   2 -12  179.45   22.27
  -6   2  12  177.51   19.92
  -6  -2  12  199.69   22.57
   6   2 -11   43.73   16.19
   6  -2 -11   44.04   17.23
  -6   2  11   59.10   13.20
  -6  -2  11   55.00   15.44
   6   2 -11   55.37   12.38
   6   2 -10  115.42   18.12
   6  -2 -10  108.12   18.86
  -6   2  10   98.61   14.59
  -6  -2  10  148.12   18.19
   6   2 -10  115.27   14.97
  -6  -2   9   13.12    8.93
   6  -2  -9   12.82   13.43
   6   2  -9    0.65   12.57
  -6   2   9   14.98    9.55
  -6  -2   9   12.11   12.28
   6   2  -9   16.73   10.22
   6  -2  -8   93.61   15.83
  -6  -2   8   80.66   10.64
   6   2  -8   56.02   14.31
  -6  -2   8  107.79   15.22
  -6   2   8   74.85   11.39
   6   2  -8   90.16   12.58
   6  -2  -7  116.88   16.37
  -6  -2   7  114.59   11.49
   6   2  -7  118.80   16.07
  -6  -2   7  118.06   15.50
  -6   2   7  127.61   12.36
   6   2  -7  136.11   14.18
  -6  -2   6   17.62    5.32
   6  -2  -6   22.45   11.40
   6   2  -6   12.86   10.80
  -6  -2   6   16.95    6.88
  -6  -2   6   18.63   10.57
  -6   2   6   20.22    7.52
   6   2  -6   25.14    9.27
   6   2  -5  631.08   43.34
  -6  -2   5  676.36   39.42
   6  -2  -5  797.20   44.25
   6   2  -5  778.42   42.03
  -6   2   5  688.12   39.89
  -6  -2   5  887.26   45.29
   6   2  -5  806.36   42.62
  -6  -2   5  713.76   40.03
   6   2  -4  553.09   32.00
   6   2  -4  522.33   28.62
   6   2  -4  464.13   32.23
   6  -2  -4  522.14   32.77
   6   2  -4  517.76   30.87
  -6   2   4  438.61   28.31
  -6  -2   4  603.47   34.15
   6   2  -4  566.19   31.40
  -6  -2   4  508.23   30.18
   6   2  -3  471.88   24.44
   6   2  -3  419.24   27.65
   6   2  -3  473.86   26.74
   6   2  -3  418.28   27.03
   6  -2  -3  506.96   28.70
   6   2  -3  460.66   26.40
  -6  -2   3  534.42   29.90
  -6   2   3  372.55   23.26
   6  -2  -3  367.13   22.08
   6   2  -3  490.28   26.58
  -6  -2   3  400.54   26.20
   6   2  -2  713.80   36.72
   6   2  -2  712.90   37.85
   6   2  -2  647.15   40.07
   6   2  -2  693.11   38.20
   6  -2  -2  707.01   39.74
   6   2  -2  717.98   38.23
  -6  -2   2  746.07   41.24
   6  -2  -2  580.12   34.90
   6   2  -2  703.04   38.10
  -6  -2   2  600.94   38.89
   6   2  -1   20.13    6.45
   6   2  -1   31.88   10.55
  -6  -2   1   14.44    8.57
   6  -2  -1   28.66    9.57
   6  -2  -1   27.01    7.15
   6   2  -1   28.43    6.51
   6   2  -1   17.53    7.23
  -6  -2   1   17.93    9.93
   6   2  -1   20.58    7.45
   6  -2  -1   31.35    5.54
   6   2  -1   21.90    7.57
   6   2   0  305.28   19.33
   6  -2   0  311.82   19.26
   6   2   0  282.30   18.21
   6  -2   0  362.86   21.93
   6   2   0  315.90   19.06
   6   2   0  280.58   19.67
   6  -2   0  264.06   18.71
  -6  -2   0  335.23   23.63
  -6  -2   0  280.98   22.31
   6   2   0  299.04   19.40
   6   2   1   58.51    8.79
  -6  -2  -1   49.52   10.89
   6  -2   1   62.51    7.78
   6   2   1   51.96    7.49
   6   2   1   60.92    6.70
  -6   2  -1   74.57   10.45
   6  -2   1   79.97   10.69
  -6  -2  -1   69.18   12.62
   6   2   1   67.75    8.94
   6  -2   1   61.72    8.22
   6  -2   1   41.91    7.84
   6   2   1   54.29    8.22
   6   2   2  168.45   13.45
   6  -2   2  119.72   11.73
   6   2   2  148.86    9.80
   6  -2   2  159.65   11.44
  -6  -2  -2  133.76   15.64
   6  -2   2  166.36   14.24
   6   2   2  134.97   10.52
  -6   2  -2  159.28   13.82
   6   2   2  143.95   12.71
   6  -2   2  160.49   12.84
  -6  -2  -2  117.31    9.75
   6   2   2  135.93   11.58
   6  -2   2  144.20   12.64
   6  -2   2  158.58   10.83
   6   2   3  344.50   21.84
   6  -2   3  283.19   21.34
   6  -2   3  312.92   19.08
   6  -2   3  345.39   22.02
   6   2   3  286.06   18.33
  -6   2  -3  354.42   22.07
   6   2   3  308.74   21.01
   6  -2   3  313.70   21.62
   6   2   3  322.08   19.02
  -6  -2  -3  304.06   19.17
   6  -2   3  316.41   18.32
  -6  -2  -3  341.31   25.26
   6  -2   3  295.82   21.32
   6   2   4  132.85   13.80
   6  -2   4  107.15   14.69
   6  -2   4  141.63   10.52
  -6  -2  -4  152.65   17.17
   6  -2   4  129.96   13.63
   6   2   4  118.66   10.03
  -6   2  -4  157.43   13.51
   6  -2   4  157.75   14.26
  -6  -2  -4  135.78   12.03
   6   2   4  117.99   12.36
   6  -2   4  140.62    9.50
   6  -2   4  110.82   13.11
   6   2   5 1385.71   69.86
   6  -2   5 1223.31   70.79
   6  -2   5 1284.73   65.61
   6  -2   5 1235.73   68.03
   6   2   5 1047.51   64.88
  -6   2  -5 1277.99   67.89
   6   2   5 1243.37   68.21
  -6  -2  -5 1320.44   68.24
   6  -2   5 1354.32   70.12
   6  -2   5 1284.59   64.41
  -6  -2  -5 1397.78   73.24
   6   2   5 1270.05   66.45
   6  -2   5 1196.99   69.02
   6   2   5 1311.37   65.99
   6  -2   6   -7.43   12.28
   6   2   6    3.25   10.03
  -6  -2  -6    4.76   12.08
  -6   2  -6    6.05    7.39
   6  -2   6   -5.16    9.08
   6   2   6    4.49    5.97
   6   2   6   12.11    8.36
   6  -2   6  -12.19   10.20
  -6  -2  -6   -9.35    8.97
   6   2   6   11.39    6.69
   6   2   6   15.95    5.98
   6   2   7  631.41   39.08
   6  -2   7  586.94   41.53
  -6   2  -7  642.33   34.61
   6  -2   7  595.68   36.48
   6   2   7  520.67   33.40
  -6   2  -7  647.68   35.63
  -6  -2  -7  652.19   38.53
   6   2   7  570.71   36.92
   6  -2   7  693.30   39.45
  -6  -2  -7  689.89   42.50
   6   2   7  615.71   34.72
   6   2   7  628.93   34.03
  -6   2  -8   97.81   10.51
   6  -2   8  118.48   13.52
   6   2   8   80.91    9.66
   6  -2   8   82.02   17.17
  -6   2  -8  106.00   10.36
   6   2   8  136.80   16.17
  -6  -2  -8  116.99   17.00
  -6  -2  -8   85.23   13.70
  -6   2  -8  100.09   13.75
   6   2   8   91.32   10.09
   6  -2   9   17.43   10.09
  -6   2  -9   25.64    7.60
   6  -2   9   12.17   14.90
   6   2   9   43.40   13.60
  -6  -2  -9   33.23   14.31
  -6  -2  -9   45.55   11.41
  -6   2  -9   31.59   11.40
   6   2   9   23.73    7.33
   6  -2  10   67.84   12.68
  -6   2 -10   49.05    8.40
   6  -2  10   42.45   16.88
   6   2  10   74.23   15.75
  -6  -2 -10   59.65   16.02
  -6  -2 -10   53.73   13.12
  -6   2 -10   58.02   13.70
  -6   2 -11   97.43    9.84
   6  -2  11   55.39   19.87
   6   2  11   81.42   17.13
  -6  -2 -11   96.89   18.23
  -6  -2 -11   73.45   14.56
  -6   2 -11   90.25   15.83
   6  -2  12   27.23   19.58
   6   2  12   18.47   16.19
  -6  -2 -12   16.63   14.10
  -6  -2 -12   17.32   13.47
  -6   2 -12   25.32   13.65
   6  -3 -11  180.53   24.02
  -6   3  11  181.98   19.33
  -6  -3  11  255.86   24.71
   6   3 -11  191.71   19.09
   6  -3 -10   30.12   15.35
  -6   3  10   16.71   10.46
  -6  -3  10   15.50   14.39
   6   3 -10   18.88   10.91
   6  -3  -9   57.27   15.90
  -6  -3   9   86.13   15.58
  -6   3   9   65.47   11.06
   6   3  -9   63.85   12.54
   6  -3  -8   13.30   13.10
  -6  -3   8   12.82    7.37
  -6  -3   8   21.36   13.06
  -6   3   8    6.16    7.87
   6   3  -8   10.68    9.52
  -6  -3   8    3.14    5.81
   6  -3  -7   23.36   12.93
  -6  -3   7   17.07    6.71
  -6  -3   7   25.79   12.10
  -6   3   7   22.73    7.29
   6   3  -7   19.06    9.79
  -6  -3   7   21.01    6.86
  -6  -3   6  244.89   16.13
   6  -3  -6  296.63   22.99
  -6   3   6  237.50   16.58
  -6  -3   6  303.56   23.44
   6   3  -6  303.99   20.42
  -6  -3   6  256.12   18.01
   6  -3  -5  118.58   14.90
  -6   3   5   64.49    7.13
  -6  -3   5  103.69   14.70
   6   3  -5  101.70   12.44
  -6  -3   5   80.45   10.27
   6  -3  -4  543.80   33.45
  -6  -3   4  581.61   35.00
   6  -3  -4  481.23   27.82
   6   3  -4  562.69   31.40
  -6  -3   4  435.36   30.45
   6  -3  -3  589.48   35.57
   6   3  -3  602.91   34.09
  -6  -3   3  652.98   37.54
   6  -3  -3  529.89   30.87
   6   3  -3  599.10   33.72
  -6  -3   3  548.05   34.23
   6   3  -2  151.62   12.74
   6   3  -2  127.21   16.55
   6   3  -2  138.49   11.68
   6  -3  -2  139.28   15.32
  -6   3   2  155.12   15.25
  -6  -3   2  148.65   16.60
   6  -3  -2  131.41   11.26
   6   3  -2  141.79   12.84
  -6  -3   2  125.86   14.37
   6   3  -1  495.01   27.59
   6   3  -1  437.35   27.22
   6   3  -1  423.14   32.13
   6  -3  -1  474.04   30.16
  -6   3   1  514.45   30.58
  -6  -3   1  482.24   32.44
   6   3  -1  462.71   28.24
  -6  -3   1  432.33   30.33
   6   3   0    2.32    6.58
   6   3   0    0.62    5.33
  -6   3   0    2.14    8.79
   6  -3   0    2.67    9.08
  -6  -3   0   26.52   11.41
   6   3   0  -10.23    8.23
  -6  -3   0    7.27   10.12
   6   3   0    1.38    6.99
   6   3   1   75.97    9.40
  -6   3  -1   85.48   11.60
   6  -3   1   99.64   12.42
  -6  -3  -1   90.68   14.28
   6   3   1   83.41   10.56
   6  -3   1   61.67    9.56
  -6  -3  -1  101.85   13.66
   6  -3   1  111.33   10.81
  -6  -3  -1   61.23    6.13
   6   3   1   82.72    9.51
   6   3   2  182.99   14.22
   6   3   2  153.41   10.90
  -6  -3  -2  178.91   17.79
   6  -3   2  158.47   15.58
  -6   3  -2  210.41   15.96
  -6  -3  -2  162.49   11.95
   6   3   2  172.03   14.79
   6  -3   2  197.10   15.09
   6  -3   2  134.34   14.47
   6   3   3  169.86   13.86
   6  -3   3  103.78   12.00
   6  -3   3  162.71   11.78
   6   3   3  115.84    8.89
  -6  -3  -3  167.47   17.77
   6  -3   3  163.78   15.07
  -6   3  -3  176.87   14.69
  -6  -3  -3  168.43   12.55
   6   3   3  151.56   13.72
   6  -3   3  178.38   14.67
   6  -3   3  132.91   14.11
   6   3   4  748.44   40.28
   6  -3   4  587.90   40.13
   6  -3   4  659.02   37.58
   6  -3   4  675.82   40.44
  -6   3  -4  757.06   40.63
   6  -3   4  772.80   41.42
  -6  -3  -4  696.89   39.77
   6  -3   4  668.28   35.99
  -6  -3  -4  795.57   44.74
   6   3   4  648.52   38.51
   6   3   4  693.59   37.92
   6  -3   4  601.35   40.81
   6  -3   5   16.74    6.14
  -6   3  -5   21.84    8.87
   6  -3   5   18.31    9.88
   6  -3   5    5.52   10.92
  -6   3  -5   14.37    5.16
   6   3   5    0.40    9.56
  -6  -3  -5    1.94   12.73
   6  -3   5   16.01    9.56
  -6  -3  -5   17.67    9.01
   6   3   5   16.76    7.47
   6   3   5   11.22    6.71
  -6   3  -6  732.45   43.32
   6   3   6  856.60   47.47
  -6   3  -6  823.00   46.02
   6  -3   6  780.78   49.50
   6  -3   6  789.53   46.51
   6  -3   6  949.29   48.69
  -6  -3  -6  755.19   47.50
  -6  -3  -6  942.69   51.81
   6   3   6  798.90   44.82
   6   3   6  786.64   43.91
  -6   3  -7   20.72    8.42
   6  -3   7    8.39   10.45
   6  -3   7    4.86   12.83
  -6   3  -7   19.93    6.94
   6   3   7   21.35   10.96
  -6  -3  -7    2.11   12.78
   6   3   7   18.84    7.12
  -6  -3  -7   20.30   10.31
   6   3   7   23.51    8.17
   6  -3   8  177.66   17.65
  -6   3  -8  185.71   15.20
   6   3   8  211.40   19.45
   6  -3   8  186.89   22.38
  -6   3  -8  224.62   16.42
  -6  -3  -8  168.10   18.70
  -6  -3  -8  222.03   22.34
   6   3   8  182.88   15.33
   6   3   8  200.28   14.33
  -6   3  -9   59.39    9.92
   6  -3   9   66.06   12.67
   6  -3   9   56.47   17.87
   6   3   9   57.80   14.17
  -6  -3  -9   55.97   14.86
  -6  -3  -9   49.13   13.29
   6   3   9   52.20    9.51
  -6   3 -10    4.72    7.93
   6  -3  10    9.77   11.35
   6  -3  10   15.63   15.61
   6   3  10   15.43   13.12
  -6  -3 -10   16.41   13.68
  -6  -3 -10   11.40   11.59
   6  -3  11   67.08   13.54
  -6   3 -11   49.69    9.71
   6  -3  11   46.31   18.48
   6   3  11   48.24   15.60
  -6  -3 -11   86.73   17.28
  -6  -3 -11   64.93   15.43
  -6   3 -12  110.24   12.99
   6  -3  12  108.78   22.90
   6   3  12  161.39   21.56
  -6  -3 -12  149.84   21.09
  -6  -3 -12  159.18   20.59
  -6   3 -12  178.02   19.68
   6  -4 -10  243.10   25.81
  -6   4  10  206.19   19.89
  -6  -4  10  279.74   26.07
   6   4 -10  260.18   21.53
   6  -4  -9   10.26   14.71
  -6  -4   9   22.43   14.39
  -6   4   9   18.93    9.38
  -6  -4   9   15.09    7.31
   6   4  -9   27.24   11.00
   6  -4  -8   39.95   15.31
  -6  -4   8   82.33   16.09
  -6   4   8   47.57    8.79
  -6  -4   8   50.95    8.71
   6   4  -8   60.31   12.15
   6  -4  -7  113.16   16.91
  -6  -4   7  121.90   17.11
  -6   4   7   72.85    8.68
  -6  -4   7   81.19   10.57
   6   4  -7  117.80   13.54
   6  -4  -6    7.21   12.44
  -6  -4   6   13.96   12.57
  -6   4   6    3.97    4.45
  -6  -4   6    5.98    7.71
   6   4  -6    2.79    8.97
   6  -4  -5  243.49   21.10
  -6  -4   5  272.48   23.08
   6   4  -5  222.27   18.21
  -6  -4   5  207.64   17.83
   6  -4  -4   41.76   13.19
  -6   4   4   45.48   11.87
   6   4  -4   50.38   10.13
  -6  -4   4   58.67   13.70
   6   4  -4   62.16   10.74
  -6  -4   4   34.26   10.36
   6  -4  -4   47.25    8.35
   6   4  -3  342.74   27.22
   6   4  -3  361.59   23.48
   6  -4  -3  387.38   27.07
  -6   4   3  401.28   26.56
  -6  -4   3  399.90   28.90
   6  -4  -3  329.64   22.60
   6   4  -3  385.37   24.33
  -6  -4   3  348.69   25.05
   6   4  -2  116.93   17.03
   6  -4  -2  120.70   14.84
  -6   4   2  130.90   14.56
   6   4  -2   96.83   11.07
  -6  -4   2  147.77   17.59
   6  -4  -2  103.84   11.33
   6   4  -2  110.53   12.27
  -6  -4   2  101.10   13.92
   6   4  -1  101.87   10.07
   6   4  -1  118.64   11.19
  -6   4   1  121.53   14.00
   6  -4  -1  104.39   14.44
  -6  -4   1  137.05   17.30
  -6  -4   1   91.09   14.19
   6   4  -1  111.71   11.89
   6   4   0  240.13   15.94
   6   4   0  202.13   13.71
   6  -4   0  247.72   19.09
  -6   4   0  247.96   18.37
  -6  -4   0  249.39   22.09
  -6  -4   0  252.21   19.92
   6   4   1   52.41    9.11
  -6   4  -1   58.66   10.88
   6  -4   1   36.74   11.19
   6   4   1   47.36    6.32
  -6  -4  -1   59.50   14.48
  -6  -4  -1   41.57    7.15
  -6  -4  -1   54.11   12.17
  -6   4  -2   42.21   10.29
   6  -4   2   27.20   11.21
   6   4   2   49.23    8.92
  -6  -4  -2   51.51   12.39
  -6  -4  -2   39.05    8.11
  -6   4  -3  347.95   23.04
   6   4   3  326.37   21.60
   6  -4   3  316.11   23.36
  -6  -4  -3  288.27   21.48
   6   4   3  300.14   21.03
  -6  -4  -3  379.51   26.20
   6  -4   3  252.31   22.65
  -6   4  -4    2.04    8.49
   6  -4   4   -5.35   10.57
  -6   4  -4    5.77    4.20
   6   4   4    6.97    8.93
  -6  -4  -4    4.70    8.22
   6   4   4    8.02    8.01
  -6  -4  -4   -4.86   12.64
  -6   4  -5  393.07   23.80
   6   4   5  446.46   27.86
  -6   4  -5  495.46   28.33
   6  -4   5  419.61   28.32
  -6  -4  -5  358.66   28.10
   6   4   5  395.64   26.40
  -6  -4  -5  485.85   32.17
  -6   4  -6   32.01    9.65
   6  -4   6   17.06   11.42
   6  -4   6   65.42   12.56
  -6   4  -6   26.18    6.78
   6   4   6   22.51   10.33
  -6  -4  -6   30.74   13.77
  -6  -4  -6   20.53   10.46
   6   4   6   22.81    8.59
   6  -4   7  172.85   17.57
  -6   4  -7  151.79   13.93
   6   4   7  193.48   17.52
   6  -4   7  188.11   21.38
  -6  -4  -7  167.72   20.22
  -6   4  -7  205.40   16.49
  -6  -4  -7  160.37   18.37
   6   4   7  183.51   15.74
  -6   4  -8   44.99   10.34
   6  -4   8   51.08   12.45
   6  -4   8   24.71   15.32
   6   4   8   38.24   12.47
  -6  -4  -8   36.18   14.39
  -6  -4  -8   69.48   13.84
   6   4   8   49.60   10.19
  -6   4  -9   31.25   10.10
   6  -4   9   20.21   12.08
   6  -4   9   39.58   16.29
   6   4   9   46.77   13.27
  -6  -4  -9   54.02   15.19
  -6  -4  -9   22.69   13.19
   6   4   9   26.81    9.74
  -6   4 -10  116.67   14.02
   6  -4  10  106.84   16.18
   6  -4  10  144.49   21.92
   6   4  10  120.56   17.25
  -6  -4 -10  108.86   18.64
  -6  -4 -10  151.65   18.92
   6   4  10  128.17   13.55
  -6   4 -11   24.28   10.00
   6  -4  11   29.57   13.83
   6  -4  11    5.43   18.14
   6   4  11   32.04   14.63
  -6  -4 -11   28.06   14.95
  -6  -4 -11   28.31   14.86
   6  -5  -8   65.97   16.71
   6   5  -8   62.09   12.28
  -6  -5   8   93.65   17.75
   6   5  -8   86.18   13.54
   6  -5  -7    0.63   13.79
   6   5  -7    7.23    9.26
  -6  -5   7   15.22   13.39
   6   5  -7   19.50   10.35
   6  -5  -6  144.37   18.92
   6   5  -6  134.53   14.36
  -6  -5   6  131.26   18.97
   6   5  -6  152.94   15.61
   6  -5  -5   14.95   12.91
  -6   5   5   -0.54   10.86
   6   5  -5    1.69    8.33
  -6  -5   5   -8.04   13.68
   6   5  -5   -3.16    9.51
   6   5  -4  177.32   15.47
   6  -5  -4  179.41   19.72
  -6   5   4  213.01   19.17
  -6  -5   4  170.53   20.99
   6   5  -4  184.41   16.79
  -6  -5   4  227.25   18.96
   6  -5  -3   23.38   12.23
  -6   5   3    4.60   10.56
   6   5  -3   15.32    8.14
  -6  -5   3   23.87   13.81
   6  -5  -3   24.73    9.76
  -6  -5   3   38.55   11.49
   6   5  -3   26.25   10.01
   6   5  -2  220.97   16.12
   6  -5  -2  212.78   20.90
  -6   5   2  238.88   20.10
  -6  -5   2  229.74   23.36
   6  -5  -2  211.46   17.70
  -6  -5   2  257.94   20.88
   6   5  -1   96.86   10.98
   6   5  -1   63.34    8.66
  -6   5   1   79.83   12.86
   6  -5  -1   79.14   14.11
  -6  -5   1   59.53    5.63
  -6  -5   1   82.66   16.76
  -6  -5   1   76.19    7.92
   6   5   0   16.61    8.29
   6   5   0   36.62    6.11
  -6   5   0   36.82   10.80
   6  -5   0   32.84   11.92
  -6  -5   0   52.14   15.44
  -6  -5   0   19.80    7.27
  -6  -5   0   38.97   12.22
   6   5   1   62.54    9.83
  -6   5  -1   66.13   11.98
   6  -5   1   32.70   12.15
  -6  -5  -1   87.64   16.99
  -6  -5  -1   55.76    9.60
   6   5   1   54.07   10.22
  -6  -5  -1   84.78   13.92
  -6   5  -2  113.27   13.64
   6  -5   2   79.20   14.10
   6   5   2  105.11   11.78
  -6  -5  -2   71.49   11.51
  -6  -5  -2  111.30   15.67
   6   5   2   93.27   11.92
  -6   5  -3   -4.48   10.05
   6  -5   3   10.39   11.55
   6   5   3    5.39    8.62
  -6  -5  -3   -8.94    9.08
  -6  -5  -3   -8.94   12.24
   6   5   3    8.35    8.29
   6   5   4  294.01   20.83
  -6   5  -4  313.73   21.95
   6  -5   4  245.06   22.12
  -6  -5  -4  229.12   21.72
   6   5   4  273.87   20.42
  -6  -5  -4  300.40   24.53
  -6   5  -5   60.26   11.24
   6  -5   5   51.38   13.15
   6   5   5   55.30   11.77
  -6  -5  -5   38.14   12.47
  -6  -5  -5   36.41   14.15
   6   5   5   59.74   10.98
  -6   5  -6  121.50   14.40
   6  -5   6  111.89   15.35
   6   5   6  134.83   14.84
  -6  -5  -6  130.97   17.01
  -6  -5  -6  105.32   17.25
   6   5   6  117.27   13.52
  -6   5  -7   25.36   10.70
   6  -5   7   40.59   12.49
   6   5   7   36.42   11.83
  -6  -5  -7   33.80   14.41
  -6  -5  -7   31.99   12.82
   6   5   7   48.10   10.59
  -6   5  -8   66.92   11.84
   6  -5   8   44.78   13.59
   6   5   8   60.64   13.40
  -6  -5  -8   47.65   15.02
  -6  -5  -8   64.91   15.12
   6   5   8   42.82   11.20
  -6   5  -9   44.80   11.76
   6  -5   9   49.92   13.81
   6   5   9   28.39   13.17
  -6  -5  -9   64.28   16.07
  -6  -5  -9   41.66   15.08
   6   5   9   28.84   11.13
   6   6  -6    4.86    9.79
   6  -6  -6    7.51   14.09
  -6  -6   6   -8.35   15.63
   6   6  -6    2.14    9.96
   6   6  -5   95.80   13.35
   6  -6  -5  118.00   18.99
  -6   6   5  140.45   16.72
  -6  -6   5  112.75   19.56
   6   6  -5  134.78   14.92
   6   6  -4   25.63    9.58
   6  -6  -4   33.80   14.52
  -6   6   4   30.36   12.84
  -6  -6   4   32.63   16.25
   6   6  -3   86.02   11.13
   6  -6  -3   97.05   17.21
  -6   6   3  100.48   15.12
  -6  -6   3   85.30   18.33
   6  -6  -3  137.07   14.14
   6  -6  -2   55.42   14.77
  -6   6   2   31.90   12.34
  -6  -6   2   65.73   18.08
   6  -6  -2   65.01   12.38
  -6  -6   2   75.09   14.97
  -6   6   1   44.77   12.11
   6  -6  -1   57.80   14.03
  -6  -6   1   29.96   15.50
  -6  -6   1   20.91    8.60
  -6  -6   1   52.11   13.61
   6   6  -1   29.71   10.42
   6   6   0   61.24   10.50
  -6   6   0   62.37   12.68
   6  -6   0   38.38   13.36
  -6  -6   0   65.27   17.24
  -6  -6   0   28.99    9.99
  -6  -6   0   46.51   13.20
   6   6   0   57.34   11.12
   6   6   1    9.50    8.97
  -6   6  -1   12.36   10.49
   6  -6   1   -0.50   11.59
  -6  -6  -1   23.92   15.54
  -6  -6  -1    7.09    9.17
  -6  -6  -1   13.24   12.18
   6   6   1    4.06    9.19
  -6   6  -2    9.72   10.47
   6  -6   2   41.44   12.75
   6   6   2   20.71    9.60
  -6  -6  -2   19.07   10.43
   6   6   2   16.37   10.06
  -6  -6  -2   16.95   12.11
  -6   6  -3   61.59   12.77
   6  -6   3   50.08   13.79
   6   6   3   92.57   11.88
  -6  -6  -3   78.84   14.94
  -6  -6  -3   69.24   13.69
   6   6   3   71.45   11.94
  -6   6  -4   -1.93   10.66
   6  -6   4    9.45   12.59
   6   6   4  -10.11    9.65
  -6  -6  -4   10.05   11.73
  -6  -6  -4    1.90   12.87
   6   6   4   11.89    9.63
   6  -6   5  157.45   18.76
   6   6   5  185.64   17.04
  -6   6  -5  198.61   18.19
  -6  -6  -5  179.43   20.61
  -6  -6  -5  188.81   20.46
   6   6   5  157.07   16.94
  -6   6  -6    7.45   10.72
   6  -6   6    9.32   12.82
   6   6   6   16.09   11.15
  -6  -6  -6    7.43   13.06
  -6  -6  -6   17.67   13.70
   6   6   6   21.30   10.76
   7   0  -9  207.49   24.66
  -7   0   9  229.18   21.71
   7   0  -8   24.23   14.46
  -7   0   8   21.51   11.97
   7   0  -7  644.37   43.72
  -7   0   7  699.25   42.01
   7   0  -6  354.27   26.80
  -7   0   6  319.30   24.55
   7   0  -5  371.70   27.97
  -7   0   5  402.82   26.78
   7   0  -4  283.35   23.57
  -7   0   4  285.29   22.35
   7   0  -3  127.52   14.77
  -7   0   3  134.95   13.81
   7   0  -3  138.93   13.26
   7   0  -2  276.08   20.59
  -7   0   2  261.45   19.94
   7   0  -2  281.72   19.30
   7   0  -1    6.89    8.96
   7   0  -1    5.00    7.46
   7   0   0  302.40   19.69
   7   0   0  255.58   18.21
   7   0   1  328.86   21.16
   7   0   1  302.82   19.81
   7   0   2  231.59   16.52
   7   0   2  202.96   14.74
   7   0   3 1235.82   64.84
   7   0   3 1181.03   63.45
   7   0   4   17.47    8.54
   7   0   5  339.73   22.80
   7   0   5  377.13   27.49
   7   0   6   57.96   10.17
   7   0   6   66.75   15.68
   7   0   7    9.05    8.36
   7   0   7   -1.46   13.78
  -7   0  -7    0.37    8.58
   7   0   8   56.12   16.39
  -7   0  -8   15.70   10.27
   7   0   9   97.71   19.41
  -7   0  -9   80.79   14.25
   7  -1  -8  322.55   28.05
  -7   1   8  285.51   23.85
  -7  -1   8  331.10   26.56
   7   1  -8  365.99   24.86
   7  -1  -7   50.18   14.79
  -7   1   7   47.57   10.73
  -7  -1   7   43.28   12.78
   7   1  -7   56.92   12.05
   7  -1  -6  472.62   33.44
  -7   1   6  439.78   30.04
  -7  -1   6  483.86   32.81
   7   1  -6  564.20   32.12
   7  -1  -5  268.32   22.39
  -7  -1   5  294.37   22.26
  -7   1   5  219.63   18.69
   7   1  -5  293.47   20.66
   7   1  -4  318.69   23.01
   7  -1  -4  286.90   22.95
  -7  -1   4  355.27   23.76
   7   1  -4  323.90   21.74
   7  -1  -3  267.34   20.81
   7   1  -3  258.91   20.20
  -7  -1   3  266.01   21.16
  -7   1   3  230.92   17.63
   7   1  -3  297.09   19.56
   7  -1  -2   17.85   10.09
   7   1  -2   44.12    9.54
  -7  -1   2   20.65   10.18
   7   1  -2   25.84    8.56
   7  -1  -1  154.46   15.24
   7   1  -1  173.80   14.25
  -7  -1   1  169.25   16.45
   7  -1  -1  165.03   13.65
   7   1  -1  156.46   13.73
   7  -1   0  150.17   14.39
   7  -1   0  157.67   12.49
   7   1   0  135.29   12.55
   7  -1   1  169.70   14.52
   7  -1   1  139.78   11.75
   7   1   1  135.72   12.26
   7  -1   2  873.78   46.19
   7   1   2  836.58   47.03
   7  -1   2  812.38   43.81
   7   1   2  750.09   44.15
   7  -1   3    9.68    9.10
   7   1   3    5.56   10.67
   7  -1   3   10.09    5.94
   7   1   3   -0.88    6.20
   7  -1   4  687.75   41.53
   7   1   4  783.20   45.28
   7  -1   5   45.37    9.94
   7   1   5   44.63   13.57
  -7  -1  -5   25.99    7.61
   7   1   5   35.37    7.28
   7   1   6  201.86   20.42
   7  -1   6  163.78   15.53
  -7  -1  -6  151.53   14.60
   7  -1   7   42.44   10.83
   7   1   7   26.53   14.50
  -7  -1  -7   54.96   11.02
   7  -1   8   10.90    9.80
   7   1   8   -2.25   14.91
  -7  -1  -8    8.22   10.23
   7   1   9  176.04   22.97
   7  -1   9  128.24   15.92
  -7   1  -9  186.09   17.82
  -7  -1  -9  171.41   18.06
   7  -2  -8   20.39   13.71
  -7  -2   8   -4.49   12.52
   7   2  -8    8.31   10.81
   7  -2  -7  230.48   22.30
  -7  -2   7  261.42   22.10
   7   2  -7  233.88   19.27
   7  -2  -6    5.95   12.47
  -7   2   6   12.18    7.44
  -7  -2   6    9.83   11.54
   7   2  -6   12.79    9.82
   7  -2  -5  431.29   29.67
  -7  -2   5  493.92   30.97
   7   2  -5  506.68   28.01
   7  -2  -4  162.22   17.44
  -7  -2   4  172.61   17.94
   7   2  -4  152.05   15.22
  -7  -2   3  106.66   11.89
   7  -2  -3  109.62   14.69
  -7  -2   3  135.52   15.95
   7   2  -3  132.15   13.26
   7  -2  -2  234.60   20.12
  -7  -2   2  264.75   22.03
   7   2  -2  247.35   18.20
  -7  -2   2  247.38   19.24
  -7  -2   1  143.21   15.73
   7  -2  -1  163.32   15.99
  -7  -2   1  173.76   18.23
   7   2  -1  165.41   14.15
   7   2   0   48.52    8.78
  -7  -2   0   14.86   10.18
   7  -2   0   24.82   10.40
  -7  -2   0   17.23   11.22
   7   2   0   24.10    8.07
   7  -2   1  529.99   29.88
   7   2   1  472.48   28.64
   7  -2   1  462.17   26.44
   7   2   1  415.45   26.95
  -7  -2  -1  380.75   30.68
   7  -2   2    8.79    9.70
   7   2   2   11.91    9.51
  -7  -2  -2   -4.94   11.49
   7  -2   2    6.66    6.07
   7   2   2   12.99    7.27
   7  -2   3  773.05   42.96
   7   2   3  771.35   43.70
   7  -2   4    7.72    9.64
   7   2   4   26.46   11.39
  -7  -2  -4   12.68   12.68
  -7  -2  -4    4.37    6.02
   7   2   5  469.76   30.10
   7  -2   5  404.12   27.29
  -7  -2  -5  356.27   24.77
   7   2   5  405.92   24.95
  -7  -2  -5  480.28   33.21
   7  -2   6   56.22   11.73
   7   2   6   78.23   14.64
  -7  -2  -6   71.13   16.22
  -7  -2  -6   44.30   10.37
   7   2   6   68.62    9.21
   7  -2   7  145.66   15.52
   7   2   7  138.78   18.38
  -7  -2  -7  130.42   19.69
  -7  -2  -7  129.12   14.93
   7   2   8  260.03   24.83
   7  -2   8  253.90   21.07
  -7  -2  -8  242.80   21.32
  -7  -2  -8  265.29   26.29
   7  -2   9   43.43   12.31
   7   2   9   36.15   15.74
  -7  -2  -9   18.59   15.63
  -7  -2  -9   32.52   12.43
   7  -3  -7    7.29   13.95
  -7  -3   7   -1.36   13.47
   7   3  -7    0.45   10.25
   7  -3  -6  277.23   25.72
  -7  -3   6  335.79   26.92
   7   3  -6  325.49   23.64
  -7  -3   5   43.65    9.14
   7  -3  -5   44.53   13.65
  -7  -3   5   60.70   14.80
   7   3  -5   41.99   11.33
   7  -3  -4  279.00   22.68
  -7  -3   4  252.11   23.64
   7   3  -4  282.23   19.92
  -7  -3   4  208.43   18.72
  -7  -3   3  134.88   14.94
   7  -3  -3  154.55   16.99
  -7  -3   3  146.46   18.37
   7   3  -3  152.60   14.48
  -7  -3   2  -11.16   10.37
   7  -3  -2   -2.73   11.06
  -7  -3   2    4.35   11.74
   7   3  -2   -2.04    8.93
   7   3  -1   83.76   10.21
  -7  -3   1   38.63   12.49
   7  -3  -1   86.78   13.35
  -7  -3   1  115.46   15.98
   7   3  -1   64.97   10.52
   7   3   0  220.84   16.70
  -7  -3   0  188.08   19.72
   7  -3   0  232.55   19.27
  -7  -3   0  230.65   21.97
   7   3   0  201.40   16.28
   7  -3   1    9.90   10.82
   7   3   1   14.92    8.96
  -7  -3  -1   -3.74   11.52
   7  -3   2  579.24   34.96
  -7   3  -2  578.98   35.49
   7   3   2  580.75   34.16
  -7   3  -3    4.64    9.79
   7  -3   3    2.43   10.57
   7   3   3    9.42   10.25
  -7  -3  -3    7.72   12.73
  -7  -3  -3    9.54    5.19
   7   3   4  406.28   26.25
   7  -3   4  407.60   25.85
  -7   3  -4  386.75   25.88
  -7  -3  -4  411.10   30.61
   7   3   4  353.96   23.21
  -7   3  -5   23.84   10.09
   7  -3   5   33.95   11.53
   7   3   5   20.82   11.37
  -7  -3  -5   20.51   14.06
  -7  -3  -5   18.65    8.41
   7   3   5   33.69    8.61
   7   3   6  210.16   20.20
   7  -3   6  191.17   18.54
  -7   3  -6  215.13   18.26
  -7  -3  -6  194.04   17.47
  -7  -3  -6  238.57   24.17
   7   3   6  202.72   16.12
  -7   3  -7   87.56   12.95
   7  -3   7   83.14   14.28
   7   3   7  102.50   15.75
  -7  -3  -7   97.30   18.71
  -7  -3  -7   97.39   13.60
   7  -4  -5  153.55   19.52
   7   4  -5  145.95   15.68
  -7  -4   5  178.02   21.08
   7   4  -5  183.73   16.66
  -7  -4   5  151.42   16.25
   7  -4  -4  115.37   16.95
   7   4  -4  103.48   12.88
  -7  -4   4  108.81   18.20
   7   4  -4  145.57   14.50
  -7  -4   4   89.20   13.80
   7  -4  -3   93.60   15.19
  -7  -4   3  102.41   17.26
  -7  -4   3   66.39   12.98
   7   4  -3   74.79   11.93
   7   4  -2  111.82   11.57
   7  -4  -2   95.07   15.11
  -7  -4   2  104.34   17.36
   7   4  -2   92.86   12.30
  -7  -4   2   91.98   15.14
   7   4  -1   -5.16    8.54
  -7  -4   1   -2.97   12.29
   7  -4  -1   11.30   11.74
  -7   4   1   -7.53   11.18
  -7  -4   1    2.89   13.67
   7   4  -1   -1.69    8.46
   7   4   0   98.84   11.91
  -7  -4   0   72.94   15.24
  -7  -4   0   82.51   16.86
  -7   4   0   91.10   14.63
   7  -4   0  111.99   15.35
  -7   4  -1  174.73   17.25
   7  -4   1  132.45   16.78
   7   4   1  149.98   14.52
  -7  -4  -1  152.37   19.13
  -7   4  -2   44.56   12.58
   7  -4   2   47.66   12.88
   7   4   2   35.34   10.41
  -7  -4  -2   23.75   14.49
   7   4   2   38.84    9.47
   7  -4   3  460.41   32.13
  -7   4  -3  529.46   33.00
   7   4   3  507.20   31.52
  -7  -4  -3  561.31   37.50
   7   4   3  423.51   29.87
  -7   4  -4   14.93   11.03
   7  -4   4   10.82   11.96
   7   4   4   25.78   11.02
   7   4   4   -3.12    9.02
  -7   4  -5  158.03   17.14
   7  -4   5  167.38   17.48
   7   4   5  165.18   17.29
  -7  -4  -5  179.71   22.00
   7   4   5  147.26   14.70
  -7   4  -6   51.60   12.23
   7  -4   6   46.08   13.07
   7   4   6   22.16   12.38
  -7  -4  -6   57.07   16.63
  -7  -4  -6   27.44   10.61
   7   4   6   35.05   10.15
   7   5   0    8.46    9.39
  -7   5   0   13.91   11.79
   7  -5   0   14.52   12.45
  -7  -5   0   19.17   15.46
  -7  -5   0   11.40   13.76
   0   0   0    0.00    0.00


TITL Vg9177-95_2a in P2(1)/m
REM P2(1)/m (#11 in standard setting)
CELL 0.71073   5.878375   7.837835  14.813988  90.0000  88.8335  90.0000
ZERR    2.00   0.000160   0.000387   0.000591   0.0000   0.0030   0.0000
LATT  1
SYMM -x, y+1/2,-z
SFAC C H N Cl Se W
UNIT 4.00 6.00 2.00 8.00 2.00 2.00
TREF
HKLF 4
END
_computing_structure_solution     'SHELXT 2014/5 (Sheldrick, 2014)'
;
_shelx_hkl_checksum              85589
_shelx_fab_file
;
-7 0 1 -1.5574 2.4817
-7 0 2 -3.8932 0.3627
-7 0 3 -4.4193 -2.5437
-7 0 4 -2.4377 -0.2829
-7 0 5 -0.1974 3.3597
-7 0 6 1.1998 1.1080
-7 0 7 1.9278 -2.2385
-7 0 8 1.9910 -0.1707
-7 0 9 1.4829 1.9408
-7 1 1 2.4029 -0.3731
-7 1 2 1.7606 1.4616
-7 1 3 -0.3060 0.3957
-7 1 4 -1.5185 -1.6712
-7 1 5 -1.6389 -0.3097
-7 1 6 -1.6198 1.8985
-7 1 7 -1.2588 0.4952
-7 1 8 -0.4710 -0.7261
-7 2 1 -1.5060 -0.2514
-7 2 2 -0.0013 -0.7051
-7 2 3 0.0873 -0.1161
-7 2 4 0.0007 0.3606
-7 2 5 0.7418 -0.0121
-7 2 6 0.8637 0.3833
-7 2 7 -0.0795 0.6667
-7 2 8 -0.5542 -0.2094
-7 3 1 0.2157 0.2040
-7 3 2 1.5896 0.4785
-7 3 3 1.7247 -0.6135
-7 3 4 0.2287 -0.5216
-7 3 5 -0.3368 0.4685
-7 3 6 0.7291 0.9109
-7 3 7 1.2684 1.2790
-7 4 1 -1.1957 -0.4300
-7 4 2 -0.6085 0.1964
-7 4 3 1.2538 -0.1011
-7 4 4 1.9219 -0.7075
-7 4 5 0.8827 0.0819
-6 0 1 0.1070 -6.4388
-6 0 2 -0.7987 -2.5011
-6 0 3 1.9346 2.7720
-6 0 4 3.7440 1.2431
-6 0 5 3.5924 -2.6876
-6 0 6 3.1941 -1.1543
-6 0 7 2.4415 1.2423
-6 0 8 1.4883 0.2016
-6 0 9 1.1216 0.7054
-6 0 10 1.0084 1.5621
-6 0 11 0.6714 -1.8733
-6 0 12 0.1166 -4.0649
-6 1 1 2.3176 -0.5075
-6 1 2 -1.0956 -2.7144
-6 1 3 -2.3857 -0.8567
-6 1 4 -1.0279 2.0579
-6 1 5 0.0677 0.8916
-6 1 6 0.7228 -0.9502
-6 1 7 0.9992 0.4847
-6 1 8 -0.0063 0.4301
-6 1 9 -1.2939 -1.6800
-6 1 10 -1.5055 -0.2700
-6 1 11 -0.9715 1.6285
-6 1 12 -0.3894 -0.6077
-6 2 1 2.3909 -0.1851
-6 2 2 2.3028 0.0048
-6 2 3 0.3351 0.0724
-6 2 4 -0.8305 0.5900
-6 2 5 -1.8815 0.8394
-6 2 6 -2.8725 -0.7228
-6 2 7 -1.9933 -1.2426
-6 2 8 -0.4925 0.6492
-6 2 9 -0.5169 0.7454
-6 2 10 -1.0693 -0.4658
-6 2 11 -0.8120 1.0066
-6 2 12 -0.3334 2.5482
-6 3 1 -2.0653 0.0025
-6 3 2 0.4942 -0.6044
-6 3 3 1.2244 0.2347
-6 3 4 1.5544 0.4723
-6 3 5 1.7646 0.1226
-6 3 6 -0.1747 0.0689
-6 3 7 -2.5925 -0.5466
-6 3 8 -2.6203 -0.5450
-6 3 9 -1.6559 0.7624
-6 3 10 -1.6885 1.2073
-6 3 11 -1.7694 0.9369
-6 4 1 -3.3499 0.6890
-6 4 2 -2.8221 -0.1967
-6 4 3 -2.0291 -0.3209
-6 4 4 -1.4860 0.6882
-6 4 5 0.5342 0.1576
-6 4 6 2.4844 -0.7557
-6 4 7 1.8292 -0.3258
-6 4 8 0.2601 0.3307
-6 4 9 -0.0131 0.7628
-6 4 10 0.1211 1.1479
-6 5 1 0.2437 0.1898
-6 5 2 -0.5218 0.2857
-6 5 3 -0.7661 -0.6036
-6 5 4 -1.6793 -0.0234
-6 5 5 -2.1697 0.8749
-6 5 6 -0.8325 0.1622
-6 5 7 0.5241 -0.9207
-6 5 8 0.3654 -1.3033
-6 6 1 -0.7496 -0.0937
-6 6 2 -0.5465 0.5125
-6 6 3 -0.0353 0.0246
-6 6 4 -0.0867 -0.2101
-6 6 5 -1.1843 0.4136
-6 6 6 -1.6575 0.5789
-5 0 1 -0.6944 8.9909
-5 0 2 1.1361 3.4084
-5 0 3 1.0375 -1.8379
-5 0 4 -1.5250 -0.5804
-5 0 5 -2.5527 0.9921
-5 0 6 -0.7487 -0.9042
-5 0 7 2.7002 0.2991
-5 0 8 5.6496 2.5822
-5 0 9 5.9588 -1.0259
-5 0 10 3.4977 -3.3982
-5 0 11 -0.2263 0.7487
-5 0 12 -2.9899 2.2731
-5 0 13 -3.0461 -0.5619
-5 0 14 -1.1612 -0.0615
-5 0 15 0.6220 1.9127
-5 1 1 -0.1824 2.1776
-5 1 2 -0.5254 3.0067
-5 1 3 1.9484 -0.1196
-5 1 4 2.8572 -2.0244
-5 1 5 1.5297 0.2188
-5 1 6 -0.0598 0.7314
-5 1 7 -0.5625 -1.4913
-5 1 8 0.9760 -0.0938
-5 1 9 3.6923 2.1160
-5 1 10 5.4496 -0.4178
-5 1 11 5.1333 -1.9975
-5 1 12 2.9235 0.4624
-5 1 13 0.3481 0.9559
-5 1 14 -0.9108 -0.5343
-5 1 15 -0.7970 -0.0353
-5 2 1 1.9074 0.0474
-5 2 2 -1.3185 0.7977
-5 2 3 -1.6623 0.5790
-5 2 4 0.1438 -0.9448
-5 2 5 1.4034 -1.2631
-5 2 6 1.5896 0.7962
-5 2 7 0.2690 1.1290
-5 2 8 -1.7955 -0.7759
-5 2 9 -2.2216 -0.6631
-5 2 10 -0.6264 0.3183
-5 2 11 1.3806 -0.4121
-5 2 12 2.4889 -0.2652
-5 2 13 2.2887 1.1115
-5 2 14 1.3341 1.0488
-5 3 1 3.7452 0.2683
-5 3 2 1.6369 0.5649
-5 3 3 -0.9985 0.0102
-5 3 4 -1.6505 0.0548
-5 3 5 -1.3476 -0.1377
-5 3 6 -0.3917 -0.7523
-5 3 7 1.2474 -0.2897
-5 3 8 1.6452 0.3245
-5 3 9 0.4912 0.1736
-5 3 10 -0.3848 0.2757
-5 3 11 -0.4370 0.3438
-5 3 12 -0.3255 -0.1419
-5 3 13 -0.3913 -0.4436
-5 3 14 -0.3988 -0.5881
-5 4 1 1.3124 -0.2549
-5 4 2 2.2715 0.7928
-5 4 3 1.1215 0.4023
-5 4 4 -0.0098 -0.9888
-5 4 5 -0.5781 -0.5866
-5 4 6 -1.6401 0.3777
-5 4 7 -2.0872 0.2030
-5 4 8 -1.3562 0.0454
-5 4 9 -1.0515 0.2898
-5 4 10 -1.5249 0.1501
-5 4 11 -1.7067 -0.1599
-5 4 12 -1.2258 -0.1439
-5 4 13 -0.5151 -0.0694
-5 5 1 -2.1403 -0.0186
-5 5 2 -1.3782 -0.3338
-5 5 3 -1.1380 0.4392
-5 5 4 -1.3583 0.1946
-5 5 5 -0.7562 -0.6101
-5 5 6 -0.2807 -0.3301
-5 5 7 -0.9398 0.1627
-5 5 8 -1.3524 0.1563
-5 5 9 -0.7734 0.3691
-5 5 10 -0.1669 0.5426
-5 5 11 -0.1196 -0.0358
-5 5 12 -0.3612 -0.6681
-5 6 1 0.5985 0.4831
-5 6 2 0.3579 0.0815
-5 6 3 -0.1202 -0.2286
-5 6 4 -1.0709 -0.2175
-5 6 5 -1.6418 -0.2384
-5 6 6 -1.1731 -0.0551
-5 6 7 -0.9201 0.1920
-5 6 8 -1.6311 0.1809
-5 6 9 -2.2241 0.3899
-5 6 10 -1.8644 0.9755
-5 7 1 0.0075 0.2049
-5 7 2 1.1999 -0.1720
-5 7 3 1.2007 -0.1544
-5 7 4 0.3535 0.0338
-5 7 5 -0.7628 -0.0136
-5 7 6 -1.3384 0.0026
-5 7 7 -0.9914 -0.0569
-5 8 1 -3.7561 0.4899
-5 8 2 -2.4067 0.2184
-5 8 3 -0.8262 -0.4873
-4 0 1 -2.9375 -8.0101
-4 0 2 -6.0553 -2.4070
-4 0 3 -8.6099 0.0437
-4 0 4 -7.4559 -1.3021
-4 0 5 -3.6109 0.6286
-4 0 6 0.1817 3.2108
-4 0 7 0.5759 -1.0973
-4 0 8 -3.1665 -4.0393
-4 0 9 -7.3141 1.0965
-4 0 10 -8.7177 3.1289
-4 0 11 -7.0759 -0.8244
-4 0 12 -3.5343 -0.9896
-4 0 13 -0.8662 0.4846
-4 0 14 -0.2176 -1.2612
-4 0 15 0.3922 -0.2720
-4 0 16 1.0734 3.1437
-4 0 17 0.5995 2.2943
-4 1 1 3.2229 -3.3469
-4 1 2 4.2074 -2.5202
-4 1 3 1.3740 1.0467
-4 1 4 -2.2251 1.2025
-4 1 5 -3.4619 -1.4435
-4 1 6 -1.1561 -0.0202
-4 1 7 3.5580 2.3122
-4 1 8 6.4576 -0.6114
-4 1 9 5.0271 -2.0754
-4 1 10 1.2306 1.1102
-4 1 11 -2.1631 0.9486
-4 1 12 -3.0692 -1.2804
-4 1 13 -1.2240 0.4880
-4 1 14 0.6659 1.4768
-4 1 15 1.3188 -0.2837
-4 1 16 1.9015 0.9123
-4 2 1 1.1495 -0.4450
-4 2 2 3.7702 -1.5138
-4 2 3 4.6762 -0.8022
-4 2 4 2.4148 1.2091
-4 2 5 -1.4884 1.2377
-4 2 6 -5.0076 -0.6646
-4 2 7 -5.5377 -0.3273
-4 2 8 -2.2417 0.5253
-4 2 9 1.7196 -0.7311
-4 2 10 3.4595 -0.2264
-4 2 11 2.7457 1.5382
-4 2 12 0.5638 0.1564
-4 2 13 -0.9276 -1.1387
-4 2 14 -0.7888 0.2449
-4 2 15 -0.6045 0.0525
-4 2 16 -0.6267 -1.4861
-4 3 1 -1.7943 -0.7627
-4 3 2 -1.0789 -0.6859
-4 3 3 1.1791 0.3251
-4 3 4 2.8261 0.2882
-4 3 5 2.4620 0.2946
-4 3 6 0.1499 0.2805
-4 3 7 -3.2254 -0.2397
-4 3 8 -5.1769 -0.0903
-4 3 9 -4.2335 -0.0018
-4 3 10 -1.8172 -0.3963
-4 3 11 0.3394 0.2638
-4 3 12 1.0891 0.7492
-4 3 13 0.2357 -0.3091
-4 3 14 -0.5129 -0.9004
-4 3 15 -0.3505 -0.7831
-4 3 16 -0.2935 -1.3009
-4 4 1 -1.2265 0.3385
-4 4 2 -1.5096 -1.0473
-4 4 3 -1.2198 -0.2467
-4 4 4 0.6326 1.0619
-4 4 5 2.9016 0.4252
-4 4 6 4.4552 -0.3999
-4 4 7 4.8099 -0.3687
-4 4 8 3.7793 -0.2677
-4 4 9 2.2934 -0.0360
-4 4 10 1.2863 0.3828
-4 4 11 0.9498 0.5241
-4 4 12 1.2467 0.0398
-4 4 13 1.2955 -0.8359
-4 4 14 0.6040 -1.1099
-4 4 15 0.2629 -0.8787
-4 5 1 0.1622 0.1776
-4 5 2 0.4652 0.0914
-4 5 3 -0.2695 -0.3575
-4 5 4 -1.0572 0.2661
-4 5 5 -0.8213 0.5026
-4 5 6 -0.3086 -0.3218
-4 5 7 0.2872 -0.4850
-4 5 8 1.0576 0.2181
-4 5 9 1.2197 0.3374
-4 5 10 0.5156 -0.1065
-4 5 11 -0.5246 -0.0049
-4 5 12 -1.1512 0.1650
-4 5 13 -0.8807 -0.7425
-4 5 14 -0.3405 -1.5719
-4 6 1 -0.7770 -0.0359
-4 6 2 -0.3245 -0.1331
-4 6 3 0.4644 -0.1414
-4 6 4 0.3686 0.2131
-4 6 5 0.3847 0.4905
-4 6 6 0.6163 0.0851
-4 6 7 0.1120 -0.5226
-4 6 8 -0.1977 -0.4128
-4 6 9 0.2500 0.2457
-4 6 10 0.4190 0.3992
-4 6 11 0.2249 0.0766
-4 6 12 0.1591 0.3160
-4 7 1 1.6241 0.1300
-4 7 2 -0.2929 0.1664
-4 7 3 -0.9028 -0.1595
-4 7 4 -1.0760 0.0965
-4 7 5 -1.5789 0.3389
-4 7 6 -1.2353 -0.1389
-4 7 7 -0.7175 -0.4542
-4 7 8 -0.6965 -0.1529
-4 7 9 0.1268 0.1412
-4 7 10 1.0786 0.2107
-4 8 1 3.3667 -0.1557
-4 8 2 3.1022 0.1542
-4 8 3 1.3795 -0.1092
-4 8 4 0.6343 -0.2997
-4 8 5 -0.1204 0.3493
-4 8 6 -1.1300 0.4163
-4 8 7 -1.4380 -0.6071
-4 8 8 -2.0294 -1.0354
-4 9 1 -2.8218 -0.1080
-4 9 2 -0.5226 0.1515
-3 0 1 -9.0711 2.9778
-3 0 2 -4.1680 -1.1005
-3 0 3 2.1630 0.8407
-3 0 4 5.0919 3.3888
-3 0 5 4.3965 -1.1449
-3 0 6 1.8212 -4.4161
-3 0 7 -0.6902 0.9803
-3 0 8 -0.9717 3.6287
-3 0 9 0.4015 -0.5459
-3 0 10 1.2112 -0.7333
-3 0 11 1.2168 0.9173
-3 0 12 0.3249 -1.9920
-3 0 13 -1.2341 -1.4406
-3 0 14 -1.2582 2.9957
-3 0 15 -0.2889 1.1515
-3 0 16 -0.9005 -2.5711
-3 0 17 -1.1945 -0.1205
-3 0 18 0.7107 2.2891
-3 1 1 -9.4538 2.8161
-3 1 2 -12.9147 0.9954
-3 1 3 -10.7388 -1.8057
-3 1 4 -5.5447 -0.1444
-3 1 5 -0.9624 2.3319
-3 1 6 1.5689 -0.3537
-3 1 7 1.2434 -2.0458
-3 1 8 -0.9590 1.2285
-3 1 9 -2.2839 1.1653
-3 1 10 -2.1861 -1.7521
-3 1 11 -1.4901 0.0838
-3 1 12 -0.3861 1.4050
-3 1 13 -0.1888 -1.6318
-3 1 14 -0.9406 -1.1252
-3 1 15 -0.3827 2.0720
-3 1 16 0.4861 0.7350
-3 1 17 -0.6085 -1.2865
-3 1 18 -1.4859 0.0481
-3 2 1 7.6507 0.2937
-3 2 2 3.0300 1.1590
-3 2 3 -1.2630 0.7902
-3 2 4 -2.7032 -0.6070
-3 2 5 -1.5975 -0.4654
-3 2 6 1.2222 0.4399
-3 2 7 4.5337 -0.6031
-3 2 8 5.8149 -0.4648
-3 2 9 4.5170 1.3781
-3 2 10 2.6657 0.0456
-3 2 11 1.3849 -1.8109
-3 2 12 1.2231 0.1331
-3 2 13 2.1555 1.1636
-3 2 14 2.1172 -0.3903
-3 2 15 0.8036 0.0308
-3 2 16 0.4847 1.2176
-3 2 17 0.8088 0.4666
-3 3 1 1.4114 0.8045
-3 3 2 1.2520 0.4241
-3 3 3 -0.3101 -0.3947
-3 3 4 -3.0558 0.1046
-3 3 5 -5.7547 0.0068
-3 3 6 -6.9251 -0.1771
-3 3 7 -5.5021 0.1351
-3 3 8 -2.0952 -0.2646
-3 3 9 0.8476 -0.2558
-3 3 10 2.0341 0.3897
-3 3 11 1.8409 -0.0265
-3 3 12 0.7629 -0.2503
-3 3 13 0.1949 0.5632
-3 3 14 0.7665 0.4635
-3 3 15 0.5803 -0.2728
-3 3 16 -0.7575 -0.5245
-3 3 17 -1.2309 -1.0208
-3 4 1 -0.6893 -0.4799
-3 4 2 -0.7785 1.1396
-3 4 3 0.3829 0.2473
-3 4 4 1.6290 -0.4879
-3 4 5 0.4713 0.1887
-3 4 6 -2.5313 -0.0268
-3 4 7 -5.1987 -0.5026
-3 4 8 -6.1338 0.0655
-3 4 9 -5.2129 0.4483
-3 4 10 -3.3681 0.0715
-3 4 11 -1.4827 -0.2394
-3 4 12 -0.5397 0.0280
-3 4 13 -1.0119 0.4037
-3 4 14 -1.1885 -0.0217
-3 4 15 -0.0475 -0.6687
-3 4 16 0.5717 -0.5933
-3 5 1 0.2874 -0.6120
-3 5 2 0.1768 0.2492
-3 5 3 -0.5343 0.7731
-3 5 4 0.6699 -0.2028
-3 5 5 2.3528 -0.4044
-3 5 6 2.2474 0.2774
-3 5 7 1.1507 0.0332
-3 5 8 0.1241 -0.5185
-3 5 9 -0.7585 -0.0748
-3 5 10 -1.4208 0.5789
-3 5 11 -1.5513 0.2684
-3 5 12 -0.8340 -0.3152
-3 5 13 -0.2587 -0.0881
-3 5 14 -0.8540 0.0227
-3 5 15 -1.1907 -0.7030
-3 6 1 -1.9105 -0.0856
-3 6 2 -1.7139 0.0046
-3 6 3 -2.3890 0.3627
-3 6 4 -2.7952 0.2206
-3 6 5 -1.8013 -0.3030
-3 6 6 -1.1516 -0.4041
-3 6 7 -1.5813 -0.0451
-3 6 8 -2.1854 0.1877
-3 6 9 -2.6210 0.0572
-3 6 10 -2.5712 0.0529
-3 6 11 -2.2176 0.2682
-3 6 12 -1.9323 -0.0009
-3 6 13 -1.0433 -0.4328
-3 6 14 0.0451 -0.2621
-3 7 1 -0.7268 -0.1278
-3 7 2 -0.1654 0.0823
-3 7 3 0.3956 0.2081
-3 7 4 0.7122 -0.1936
-3 7 5 1.7330 -0.2113
-3 7 6 2.8998 0.1720
-3 7 7 3.2593 0.0019
-3 7 8 3.1898 -0.2595
-3 7 9 2.0404 0.0120
-3 7 10 -0.0677 0.2039
-3 7 11 -0.8351 0.3817
-3 7 12 -0.3693 0.8885
-3 8 1 1.6916 0.0281
-3 8 2 0.3342 -0.3491
-3 8 3 -0.0578 0.1753
-3 8 4 0.0154 0.2859
-3 8 5 0.8693 -0.3424
-3 8 6 2.2268 -0.1964
-3 8 7 2.3946 0.3703
-3 8 8 2.4697 0.1006
-3 8 9 3.7083 -0.2662
-3 8 10 3.4198 -0.1991
-3 9 1 2.9533 0.4252
-3 9 2 1.8804 0.1189
-3 9 3 0.4702 -0.2354
-3 9 4 -0.4647 0.0014
-3 9 5 -0.8513 0.0728
-3 9 6 0.7059 0.0475
-3 9 7 2.5743 0.4925
-2 0 1 6.2713 2.5936
-2 0 2 7.5407 4.4805
-2 0 3 7.5452 -0.4839
-2 0 4 3.7735 -4.1256
-2 0 5 -0.5538 0.5910
-2 0 6 -3.5801 3.3801
-2 0 7 -6.0937 -0.5947
-2 0 8 -7.2173 -0.9637
-2 0 9 -6.4333 0.8175
-2 0 10 -4.4946 -2.1905
-2 0 11 -2.3544 -1.5811
-2 0 12 -1.1312 3.7129
-2 0 13 0.1299 1.6753
-2 0 14 2.6619 -3.3252
-2 0 15 4.5423 -1.0038
-2 0 16 4.6877 1.5750
-2 0 17 4.0720 -0.1822
-2 0 18 2.2301 0.5591
-2 0 19 -0.1145 2.6949
-2 1 1 -5.3204 -1.3341
-2 1 2 -3.7163 0.7950
-2 1 3 0.0661 2.1940
-2 1 4 3.5729 -0.7175
-2 1 5 4.8106 -2.3642
-2 1 6 4.7880 0.8439
-2 1 7 3.0564 1.0854
-2 1 8 -0.1214 -1.7349
-2 1 9 -2.5444 0.1843
-2 1 10 -3.4749 1.7976
-2 1 11 -3.0176 -1.4584
-2 1 12 -2.0167 -1.1300
-2 1 13 -1.9704 2.1740
-2 1 14 -1.7117 0.3550
-2 1 15 0.1100 -1.6138
-2 1 16 1.7521 0.7339
-2 1 17 2.3044 0.9544
-2 1 18 2.1747 -0.9153
-2 1 19 0.8565 0.1249
-2 2 1 0.5111 -0.1660
-2 2 2 -0.2446 -0.0668
-2 2 3 -1.4161 0.0740
-2 2 4 -1.4722 0.1897
-2 2 5 -0.5382 -0.8758
-2 2 6 1.9139 -0.6141
-2 2 7 4.8285 1.4172
-2 2 8 5.0671 0.3718
-2 2 9 3.1192 -1.5917
-2 2 10 1.3339 0.2647
-2 2 11 0.1117 1.3137
-2 2 12 0.0734 -0.4333
-2 2 13 0.7534 -0.0911
-2 2 14 0.1785 0.6019
-2 2 15 -0.7000 -1.0327
-2 2 16 -0.1092 -0.7288
-2 2 17 0.8061 1.3302
-2 2 18 0.8878 1.0563
-2 3 1 9.6716 -0.7691
-2 3 2 10.7567 0.1784
-2 3 3 10.1186 0.5443
-2 3 4 8.0531 -0.2646
-2 3 5 5.4412 -0.2480
-2 3 6 3.2202 -0.2715
-2 3 7 3.5078 -0.0872
-2 3 8 5.0810 0.6954
-2 3 9 4.8908 0.2670
-2 3 10 3.8321 -0.4059
-2 3 11 3.1172 0.0407
-2 3 12 2.2370 -0.1391
-2 3 13 2.1984 -0.4174
-2 3 14 2.7272 0.4524
-2 3 15 1.7066 0.4011
-2 3 16 0.0859 -0.5066
-2 3 17 -0.0101 -0.4476
-2 3 18 0.7940 -0.6653
-2 4 1 -2.5901 -0.0090
-2 4 2 -0.8384 -0.8491
-2 4 3 1.6994 0.3935
-2 4 4 2.8422 0.1470
-2 4 5 3.2252 -0.7365
-2 4 6 2.8395 0.1262
-2 4 7 1.6209 0.7368
-2 4 8 1.4126 0.0058
-2 4 9 1.6368 -0.4851
-2 4 10 0.7724 -0.2122
-2 4 11 0.0044 0.2448
-2 4 12 -0.3877 0.2244
-2 4 13 -0.8837 -0.1304
-2 4 14 -0.2720 -0.0181
-2 4 15 0.8949 0.0119
-2 4 16 0.7634 -0.3645
-2 4 17 0.1183 -0.0727
-2 5 1 -1.2075 0.6395
-2 5 2 -1.2846 -0.6724
-2 5 3 -0.0314 -0.5112
-2 5 4 0.8454 0.6445
-2 5 5 0.1354 0.1381
-2 5 6 -0.0913 -0.5991
-2 5 7 0.0965 0.0974
-2 5 8 -0.2164 0.5418
-2 5 9 -0.0162 -0.1086
-2 5 10 0.4011 -0.4346
-2 5 11 0.3213 0.0558
-2 5 12 0.2303 0.2316
-2 5 13 -0.1885 -0.1648
-2 5 14 -0.6246 0.0183
-2 5 15 -0.0431 0.5240
-2 5 16 0.4725 0.0814
-2 6 1 -3.5934 0.3168
-2 6 2 -2.9155 0.0225
-2 6 3 -1.6219 -0.4009
-2 6 4 0.5774 -0.1441
-2 6 5 1.3519 0.2080
-2 6 6 0.3589 0.0966
-2 6 7 0.0194 -0.0041
-2 6 8 0.3082 0.0682
-2 6 9 0.3306 -0.0517
-2 6 10 0.3117 -0.2671
-2 6 11 0.0350 -0.0479
-2 6 12 -0.3293 0.4370
-2 6 13 -0.6655 0.3038
-2 6 14 -1.4356 -0.1630
-2 6 15 -1.6470 0.0933
-2 7 1 -3.0421 0.4058
-2 7 2 -5.2421 -0.2548
-2 7 3 -6.3824 -0.3968
-2 7 4 -5.8529 0.1959
-2 7 5 -3.6638 0.1899
-2 7 6 -2.1192 -0.1641
-2 7 7 -1.9619 0.0655
-2 7 8 -2.1596 0.2127
-2 7 9 -2.2071 -0.1148
-2 7 10 -1.6121 -0.1624
-2 7 11 -0.6652 0.0504
-2 7 12 -0.0155 0.1105
-2 7 13 0.8386 0.2111
-2 7 14 1.5082 0.3579
-2 8 1 2.2689 0.3431
-2 8 2 2.2604 0.4719
-2 8 3 1.6447 -0.4747
-2 8 4 0.3667 -0.3805
-2 8 5 -0.5858 0.3982
-2 8 6 -0.6016 0.1469
-2 8 7 -0.0991 -0.1753
-2 8 8 0.5271 0.1897
-2 8 9 0.6425 -0.0212
-2 8 10 0.4979 -0.5244
-2 8 11 0.9680 -0.0423
-2 8 12 1.2002 0.6042
-2 9 1 -0.7356 -0.3467
-2 9 2 -0.2519 0.1228
-2 9 3 0.7956 0.1698
-2 9 4 1.2358 -0.3222
-2 9 5 1.0340 -0.0739
-2 9 6 0.4656 0.2470
-2 9 7 -0.5802 -0.1018
-2 9 8 -1.3339 0.0091
-2 9 9 -1.1940 0.5090
-2 10 1 0.6266 0.0061
-2 10 2 -0.2370 -0.1511
-2 10 3 0.7144 0.0711
-2 10 4 1.7251 0.2597
-1 0 1 -2.0656 -6.7979
-1 0 2 12.0039 -5.9609
-1 0 3 7.0339 -0.1753
-1 0 4 -4.1060 2.8643
-1 0 5 -9.8255 -0.0137
-1 0 6 -9.2863 -0.5312
-1 0 7 -3.9835 0.7227
-1 0 8 1.7531 -2.3622
-1 0 9 4.1672 -1.8943
-1 0 10 3.8048 3.9169
-1 0 11 1.1210 2.2580
-1 0 12 -2.0007 -3.3723
-1 0 13 -2.1295 -1.0467
-1 0 14 -0.5839 1.8779
-1 0 15 0.1513 -0.4378
-1 0 16 0.8214 0.0829
-1 0 17 1.2653 1.6916
-1 0 18 1.2501 -1.7705
-1 0 19 1.7407 -3.9214
-1 1 1 -33.5342 -0.2060
-1 1 2 -18.1268 -2.1047
-1 1 3 -1.3244 -1.8196
-1 1 4 4.1082 1.0847
-1 1 5 1.1571 1.3435
-1 1 6 -5.1190 -1.2062
-1 1 7 -9.8816 0.1711
-1 1 8 -9.4898 1.7652
-1 1 9 -6.3155 -1.4166
-1 1 10 -3.0480 -1.3114
-1 1 11 -0.5500 2.4604
-1 1 12 -0.7680 0.6162
-1 1 13 -2.2155 -2.1057
-1 1 14 -1.7314 0.4409
-1 1 15 -0.7007 0.6437
-1 1 16 -0.4805 -1.9568
-1 1 17 -0.1659 -0.1321
-1 1 18 -0.1702 1.8947
-1 1 19 -0.2715 -0.3629
-1 2 1 -17.7572 -0.1125
-1 2 2 -24.1322 -0.8671
-1 2 3 -18.6888 -0.6487
-1 2 4 -7.6474 0.0701
-1 2 5 2.3500 1.5557
-1 2 6 7.0928 0.7186
-1 2 7 4.5501 -1.5616
-1 2 8 -0.3421 -0.3128
-1 2 9 -2.7191 1.1804
-1 2 10 -3.3599 -0.3860
-1 2 11 -2.4572 -0.1935
-1 2 12 -0.7376 0.9016
-1 2 13 -1.0291 -1.0674
-1 2 14 -1.9468 -1.3928
-1 2 15 -1.0722 1.1101
-1 2 16 -0.1753 0.7713
-1 2 17 -0.1805 -0.4061
-1 2 18 -0.1956 1.3000
-1 2 19 -0.3560 2.0438
-1 3 1 2.5830 0.6375
-1 3 2 -3.5278 -0.7832
-1 3 3 -10.4667 -0.3645
-1 3 4 -13.9913 0.4560
-1 3 5 -12.5482 -0.0025
-1 3 6 -6.2429 0.2785
-1 3 7 -0.1648 0.2946
-1 3 8 1.3357 -0.5468
-1 3 9 0.9910 -0.1347
-1 3 10 0.8379 0.2857
-1 3 11 0.2280 -0.2753
-1 3 12 0.8765 0.0701
-1 3 13 2.2252 0.2683
-1 3 14 1.2936 -0.5181
-1 3 15 -0.5779 -0.0721
-1 3 16 -1.3605 0.7364
-1 3 17 -1.8994 0.4551
-1 3 18 -2.0766 1.0857
-1 4 1 7.5200 0.6630
-1 4 2 9.7754 0.1668
-1 4 3 8.7465 -1.1696
-1 4 4 4.9797 0.2326
-1 4 5 0.0637 1.1982
-1 4 6 -3.1942 -0.1530
-1 4 7 -2.4774 -0.6811
-1 4 8 -0.5063 -0.0166
-1 4 9 0.2968 0.1687
-1 4 10 1.3431 0.1151
-1 4 11 2.0064 0.0736
-1 4 12 1.4911 -0.1172
-1 4 13 2.0215 -0.3228
-1 4 14 3.2224 -0.2936
-1 4 15 3.1169 0.4670
-1 4 16 2.5887 1.0430
-1 4 17 1.9566 0.1602
-1 4 18 0.6624 -0.4600
-1 5 1 -1.0915 -0.5238
-1 5 2 0.2645 0.6844
-1 5 3 2.4063 0.0126
-1 5 4 3.3592 -0.8035
-1 5 5 3.1312 0.2685
-1 5 6 1.5580 0.7514
-1 5 7 -0.2781 -0.2421
-1 5 8 -0.5950 -0.4778
-1 5 9 -0.4173 0.1663
-1 5 10 -0.3395 0.1126
-1 5 11 0.4949 -0.3532
-1 5 12 0.8623 -0.0162
-1 5 13 0.3094 0.5273
-1 5 14 0.1249 0.0937
-1 5 15 -0.2740 -0.2647
-1 5 16 -0.9153 0.4719
-1 5 17 -0.4886 0.7263
-1 6 1 4.1626 -0.3807
-1 6 2 3.2990 -0.2905
-1 6 3 2.5594 0.0661
-1 6 4 1.6106 0.1080
-1 6 5 0.2820 0.1495
-1 6 6 -0.0319 0.2029
-1 6 7 0.3069 -0.0989
-1 6 8 0.8428 -0.4038
-1 6 9 1.8306 -0.0839
-1 6 10 2.3306 0.4951
-1 6 11 2.2737 0.2814
-1 6 12 2.2506 -0.4397
-1 6 13 1.7800 -0.3191
-1 6 14 1.4378 0.2999
-1 6 15 1.5559 0.3561
-1 6 16 0.7251 0.4309
-1 7 1 0.4916 -0.3804
-1 7 2 2.1245 0.3046
-1 7 3 2.7634 0.1240
-1 7 4 3.4865 -0.3675
-1 7 5 3.1807 0.0850
-1 7 6 1.7642 0.4122
-1 7 7 0.8576 -0.0669
-1 7 8 0.4421 -0.2057
-1 7 9 0.1799 0.0379
-1 7 10 -0.0042 -0.0441
-1 7 11 -0.5114 -0.0853
-1 7 12 -0.7011 0.0178
-1 7 13 -0.5151 -0.0352
-1 7 14 -0.7978 -0.0418
-1 8 1 -1.9670 -0.6393
-1 8 2 -1.8936 -0.4424
-1 8 3 -1.8696 0.5320
-1 8 4 -1.5184 0.1994
-1 8 5 -0.3207 -0.2904
-1 8 6 0.2889 0.2189
-1 8 7 0.1836 0.1310
-1 8 8 0.1748 -0.4940
-1 8 9 0.0269 -0.0404
-1 8 10 -0.2376 0.5508
-1 8 11 -0.7324 0.0224
-1 8 12 -1.3698 -0.5947
-1 9 1 2.4597 0.0702
-1 9 2 0.6908 -0.3548
-1 9 3 -0.8676 -0.0076
-1 9 4 -1.7172 0.4527
-1 9 5 -1.4189 0.0033
-1 9 6 -0.6802 -0.2205
-1 9 7 -0.3891 0.1556
-1 9 8 0.3181 0.0125
-1 9 9 1.4800 -0.1261
-1 9 10 1.9621 0.5013
-1 10 1 0.9999 -0.1646
-1 10 2 3.3764 -0.0908
-1 10 3 3.3210 0.0389
-1 10 4 1.8085 0.2050
-1 10 5 0.7064 0.2813
-1 10 6 0.5970 0.1698
0 0 2 38.8867 3.3481
0 0 3 7.8561 -0.3714
0 0 4 -0.7805 -0.1487
0 0 5 3.5238 1.0117
0 0 6 9.2508 -2.2372
0 0 7 8.5550 -1.7549
0 0 8 3.6171 4.1705
0 0 9 0.6354 2.5906
0 0 10 0.4277 -3.6546
0 0 11 2.8508 -1.7634
0 0 12 7.4416 1.5483
0 0 13 10.0697 -0.5647
0 0 14 9.1676 0.3187
0 0 15 6.4637 2.5228
0 0 16 2.5167 -1.2767
0 0 17 -0.0378 -2.9971
0 0 18 0.9110 1.4115
0 0 19 1.8844 2.1990
0 0 20 1.1456 -1.0918
0 1 1 32.0158 -0.1137
0 1 2 37.2377 2.4880
0 1 3 20.9512 1.1299
0 1 4 2.7565 -1.2574
0 1 5 -6.5145 0.5021
0 1 6 -5.0078 1.8551
0 1 7 1.0226 -1.5357
0 1 8 3.1078 -1.7966
0 1 9 0.8729 1.9620
0 1 10 -2.4163 0.5163
0 1 11 -5.2036 -2.2175
0 1 12 -4.6585 0.5770
0 1 13 -0.7536 1.3451
0 1 14 2.5308 -1.4976
0 1 15 4.2835 0.0920
0 1 16 4.4622 2.2851
0 1 17 1.8542 -0.5533
0 1 18 -0.6262 -1.8315
0 1 19 -0.5536 0.5487
0 2 0 -24.5487 -1.2189
0 2 1 -16.2221 -0.3585
0 2 2 -0.6634 1.0428
0 2 3 8.3354 1.5644
0 2 4 7.5719 0.1725
0 2 5 0.1624 -1.7305
0 2 6 -7.3988 -0.5618
0 2 7 -8.3256 0.9703
0 2 8 -3.8951 -0.2929
0 2 9 0.2167 -0.2922
0 2 10 1.7499 0.8832
0 2 11 -0.1624 -0.6697
0 2 12 -3.8985 -1.0511
0 2 13 -4.8061 1.5267
0 2 14 -2.9827 1.1635
0 2 15 -1.2928 -1.1540
0 2 16 1.0530 -0.5048
0 2 17 3.1127 0.2240
0 2 18 2.2937 -1.0164
0 2 19 0.7912 -1.1613
0 3 1 -6.0344 -0.3831
0 3 2 -6.7495 0.9183
0 3 3 -2.3609 0.1426
0 3 4 4.0432 -0.2235
0 3 5 8.1314 0.1660
0 3 6 6.2228 -0.3657
0 3 7 0.6150 -0.3273
0 3 8 -3.4236 0.2544
0 3 9 -4.4184 0.0189
0 3 10 -2.8529 0.1396
0 3 11 -0.3400 0.3869
0 3 12 -0.3597 -0.2660
0 3 13 -2.2060 -0.2516
0 3 14 -2.2668 0.2763
0 3 15 -1.7622 -0.1994
0 3 16 -1.9550 -0.3739
0 3 17 -0.5352 0.1257
0 3 18 1.1808 -0.0322
0 3 19 0.6787 0.0170
0 4 0 -1.2451 -0.0103
0 4 1 -2.6696 -1.2919
0 4 2 -5.8623 0.5022
0 4 3 -8.3205 1.5662
0 4 4 -7.6480 -0.3706
0 4 5 -3.6629 -1.0929
0 4 6 0.5857 0.0397
0 4 7 2.0992 0.2230
0 4 8 1.0659 -0.0420
0 4 9 -1.2358 0.2474
0 4 10 -3.4373 0.1869
0 4 11 -3.3262 -0.3090
0 4 12 -1.6122 -0.3091
0 4 13 -1.4703 0.3712
0 4 14 -2.0532 0.5554
0 4 15 -1.5178 -0.3782
0 4 16 -1.8210 -0.7750
0 4 17 -2.5634 -0.0434
0 4 18 -1.0732 0.0225
0 5 1 0.6644 -0.0291
0 5 2 0.8767 -0.6687
0 5 3 0.0388 0.5018
0 5 4 -1.0111 0.6259
0 5 5 -1.0186 -0.6712
0 5 6 -0.3835 -0.5790
0 5 7 0.0155 0.4057
0 5 8 0.2900 0.2737
0 5 9 0.4860 -0.1715
0 5 10 0.0162 0.2124
0 5 11 -0.4956 0.4345
0 5 12 0.4106 -0.2579
0 5 13 1.6130 -0.5786
0 5 14 1.3373 0.0589
0 5 15 1.1354 0.0679
0 5 16 1.6783 -0.5969
0 5 17 0.8035 -0.2520
0 6 0 1.0187 -0.2129
0 6 1 0.4148 0.0104
0 6 2 -0.4598 0.0202
0 6 3 -0.9626 0.2851
0 6 4 -1.2512 0.3225
0 6 5 -0.5983 -0.2602
0 6 6 0.6274 -0.4651
0 6 7 0.8564 0.0978
0 6 8 0.2762 0.4897
0 6 9 -0.0352 0.1827
0 6 10 -0.1999 -0.2968
0 6 11 -0.7362 -0.2790
0 6 12 -1.2599 -0.0267
0 6 13 -1.0794 -0.0714
0 6 14 -0.9064 -0.0220
0 6 15 -1.5070 0.0602
0 6 16 -1.5405 -0.4578
0 7 1 0.5474 0.2733
0 7 2 -0.0629 -0.2434
0 7 3 -0.8585 0.1338
0 7 4 -1.6383 0.4328
0 7 5 -2.1126 -0.2551
0 7 6 -0.9826 -0.4628
0 7 7 0.7507 0.1554
0 7 8 1.1697 0.1923
0 7 9 0.6069 -0.1374
0 7 10 0.1458 0.0405
0 7 11 0.3523 0.1868
0 7 12 0.9076 -0.0570
0 7 13 0.8350 -0.2996
0 7 14 0.4740 -0.3225
0 7 15 0.4469 -0.1090
0 8 0 0.8675 -0.3489
0 8 1 1.4716 0.4500
0 8 2 1.8717 0.1403
0 8 3 1.3528 -0.2642
0 8 4 0.7514 0.2671
0 8 5 -0.5190 0.1406
0 8 6 -1.9181 -0.6027
0 8 7 -1.6706 -0.1038
0 8 8 -0.4477 0.6888
0 8 9 0.2226 0.1138
0 8 10 -0.0790 -0.5310
0 8 11 -0.7994 -0.1626
0 8 12 -0.2935 0.2138
0 8 13 1.1280 0.1452
0 9 1 -3.5955 0.0848
0 9 2 -3.9396 0.3809
0 9 3 -2.3803 -0.0397
0 9 4 -0.2433 -0.1704
0 9 5 1.8570 0.1608
0 9 6 2.3858 -0.0675
0 9 7 1.7317 -0.3253
0 9 8 1.1845 0.0978
0 9 9 0.7212 0.0969
0 9 10 0.3907 -0.5201
0 10 0 3.2010 -0.0449
0 10 1 1.2063 0.0743
0 10 2 -1.4823 0.1303
0 10 3 -1.5030 0.0381
0 10 4 -0.0364 -0.0819
0 10 5 1.4990 -0.1971
0 10 6 2.1469 -0.3600
1 0 0 -22.4568 3.4226
1 0 1 -25.3610 0.4441
1 0 2 -11.8525 0.9260
1 0 3 1.8194 1.1719
1 0 4 8.8345 -2.6720
1 0 5 7.8381 -2.5430
1 0 6 0.2172 3.7004
1 0 7 -5.6334 2.9095
1 0 8 -4.5079 -3.4431
1 0 9 -0.1130 -1.8806
1 0 10 3.5200 1.7307
1 0 11 4.8630 -0.4582
1 0 12 3.0233 0.1911
1 0 13 -0.9371 2.6750
1 0 14 -4.9360 -1.3763
1 0 15 -6.6556 -3.6089
1 0 16 -4.0660 1.4120
1 0 17 0.3181 2.8108
1 0 18 1.7129 -1.0320
1 0 19 0.7235 -1.5361
1 1 0 30.1990 3.0101
1 1 1 14.1493 0.4572
1 1 2 3.3346 -1.5988
1 1 3 1.4862 0.0592
1 1 4 4.6842 1.3812
1 1 5 10.2776 -1.6585
1 1 6 11.9183 -1.8786
1 1 7 6.4103 2.1849
1 1 8 -0.2595 1.0834
1 1 9 -2.7571 -2.0968
1 1 10 -0.9361 0.3989
1 1 11 3.7168 1.4126
1 1 12 8.0770 -1.5640
1 1 13 9.3562 -0.2272
1 1 14 7.5783 2.0465
1 1 15 3.5412 -0.7667
1 1 16 -0.5033 -1.8408
1 1 17 -1.1319 0.9739
1 1 18 0.6090 1.2875
1 1 19 1.0149 0.1184
1 2 0 -5.8339 0.9045
1 2 1 0.6656 0.8253
1 2 2 1.7222 -0.0318
1 2 3 0.7818 -1.4202
1 2 4 -1.7148 -0.6290
1 2 5 -1.7601 0.8781
1 2 6 2.9509 -0.1040
1 2 7 6.9110 -0.0944
1 2 8 5.9814 1.2195
1 2 9 1.6179 -0.4470
1 2 10 -3.4733 -1.4377
1 2 11 -5.7572 0.9669
1 2 12 -3.6293 0.9377
1 2 13 -0.4103 -1.1533
1 2 14 1.2600 -0.3464
1 2 15 1.8721 0.5910
1 2 16 1.0516 -0.1926
1 2 17 -0.7960 0.2821
1 2 18 -1.1953 0.6800
1 2 19 -0.3737 -0.2657
1 3 0 -3.7996 1.2080
1 3 1 -2.2969 -0.0884
1 3 2 -0.7413 -0.6263
1 3 3 0.8323 0.3583
1 3 4 0.0199 -0.0577
1 3 5 -3.3465 -0.3548
1 3 6 -4.0872 0.2898
1 3 7 -0.5593 0.0936
1 3 8 4.0031 0.0650
1 3 9 7.1218 0.3152
1 3 10 6.4411 -0.4591
1 3 11 1.6729 -0.5509
1 3 12 -2.3021 0.2874
1 3 13 -2.3844 0.1867
1 3 14 -1.1203 0.1698
1 3 15 -0.0998 0.4787
1 3 16 1.1583 -0.2806
1 3 17 1.3635 -0.5182
1 3 18 0.2070 0.1171
1 3 19 -0.2598 -0.5745
1 4 0 4.7439 0.5995
1 4 1 3.4671 1.4936
1 4 2 2.8065 -0.6332
1 4 3 3.0586 -1.1181
1 4 4 3.4395 0.2991
1 4 5 1.2074 0.2515
1 4 6 -2.1876 -0.1475
1 4 7 -3.5014 0.3271
1 4 8 -3.0462 0.2190
1 4 9 -1.0947 -0.4105
1 4 10 2.2872 -0.4274
1 4 11 3.9361 0.2238
1 4 12 2.5795 0.6086
1 4 13 1.3440 -0.0502
1 4 14 1.3949 -0.4931
1 4 15 1.1666 0.1933
1 4 16 1.0451 0.2265
1 4 17 1.6960 -0.4594
1 4 18 1.6294 -0.0989
1 5 0 0.6227 -0.6053
1 5 1 0.3265 0.4041
1 5 2 0.4309 0.4327
1 5 3 0.2732 -0.7105
1 5 4 0.8242 -0.2662
1 5 5 1.0526 0.6686
1 5 6 -0.3871 0.1130
1 5 7 -1.7749 -0.4166
1 5 8 -2.3953 0.1149
1 5 9 -2.8719 0.3472
1 5 10 -2.1640 -0.2711
1 5 11 -0.6248 -0.5019
1 5 12 -0.3054 0.2005
1 5 13 -0.6401 0.4842
1 5 14 -0.1741 -0.0805
1 5 15 0.2059 -0.0592
1 5 16 -0.1882 0.3028
1 5 17 -0.2551 -0.1465
1 6 0 3.3458 0.0962
1 6 1 1.7300 0.3299
1 6 2 1.7098 0.3203
1 6 3 2.1243 -0.3226
1 6 4 1.8453 -0.5060
1 6 5 1.5315 0.1428
1 6 6 0.8466 0.4311
1 6 7 0.1099 0.0186
1 6 8 0.0146 -0.2983
1 6 9 -0.1751 -0.1648
1 6 10 0.0537 0.0476
1 6 11 1.3073 0.0577
1 6 12 1.6486 0.1765
1 6 13 0.6522 0.3421
1 6 14 0.2838 0.0133
1 6 15 0.6194 -0.2040
1 6 16 0.6067 0.2230
1 7 0 1.4960 -0.2577
1 7 1 1.6229 0.1068
1 7 2 1.1747 0.3461
1 7 3 1.5452 -0.2948
1 7 4 1.7244 -0.4271
1 7 5 1.7840 0.2196
1 7 6 1.6254 0.2345
1 7 7 0.4420 -0.1743
1 7 8 -0.9096 0.0011
1 7 9 -2.1476 0.2396
1 7 10 -3.3101 -0.0083
1 7 11 -2.7731 -0.2667
1 7 12 -1.2461 -0.0999
1 7 13 -1.0263 0.4414
1 7 14 -1.0268 0.7610
1 8 0 -1.0828 0.0275
1 8 1 -0.1110 -0.2789
1 8 2 0.3926 0.3385
1 8 3 1.1504 0.1640
1 8 4 0.7822 -0.6452
1 8 5 -0.6229 -0.1596
1 8 6 -0.1576 0.6616
1 8 7 1.7565 0.1631
1 8 8 2.7597 -0.4156
1 8 9 2.5183 -0.0762
1 8 10 1.0216 0.1562
1 8 11 -0.3462 -0.1409
1 8 12 0.2283 -0.4741
1 9 0 -3.4181 0.4021
1 9 1 -3.9382 -0.1749
1 9 2 -4.9696 -0.2909
1 9 3 -4.2961 0.1818
1 9 4 -1.6387 0.0004
1 9 5 -1.1167 -0.2833
1 9 6 -2.4931 0.1407
1 9 7 -1.8522 0.2279
1 9 8 0.4890 -0.1831
1 9 9 2.4324 0.0073
1 9 10 2.9923 0.3773
1 10 0 -1.8624 0.0782
1 10 1 -2.5554 0.0541
1 10 2 -2.6627 -0.0496
1 10 3 -3.6460 -0.0536
1 10 4 -2.5628 -0.1093
1 10 5 0.2526 -0.0738
1 10 6 0.7021 0.2967
2 0 0 6.0269 1.4493
2 0 1 3.3017 1.0039
2 0 2 -2.6805 -2.8222
2 0 3 -8.7792 -1.9790
2 0 4 -14.1920 3.8835
2 0 5 -17.2978 3.0999
2 0 6 -14.6553 -3.3378
2 0 7 -7.5333 -2.4844
2 0 8 -1.4721 1.3102
2 0 9 0.2777 -0.4535
2 0 10 -0.6278 0.1865
2 0 11 -1.2444 3.0759
2 0 12 -1.6283 -1.0554
2 0 13 -2.2646 -3.8973
2 0 14 -1.5034 1.4570
2 0 15 0.0242 3.1231
2 0 16 -0.3005 -1.0076
2 0 17 -1.6311 -1.0301
2 0 18 -1.9250 0.6027
2 0 19 -1.6623 -1.0096
2 1 0 7.0996 -1.4899
2 1 1 9.7647 1.2425
2 1 2 10.5559 1.3782
2 1 3 9.7598 -1.6176
2 1 4 7.7331 -1.7365
2 1 5 2.3863 1.8509
2 1 6 -4.3263 1.0144
2 1 7 -7.2781 -2.0970
2 1 8 -5.3407 0.1759
2 1 9 -1.8170 1.5049
2 1 10 -0.0177 -1.4643
2 1 11 0.0540 -0.1452
2 1 12 0.0250 2.5448
2 1 13 -0.2212 -0.5582
2 1 14 -0.4343 -1.9511
2 1 15 0.8100 1.0473
2 1 16 2.2531 0.3724
2 1 17 1.9518 -1.7715
2 1 18 1.0826 -0.3108
2 1 19 0.7824 -0.0050
2 2 0 0.5908 -0.6411
2 2 1 1.8129 -0.7125
2 2 2 3.0401 -0.2521
2 2 3 3.5228 0.5880
2 2 4 5.3840 -0.0149
2 2 5 6.8326 -0.1642
2 2 6 4.0695 0.8688
2 2 7 -1.2205 -0.5058
2 2 8 -4.7452 -1.4832
2 2 9 -4.5422 1.1539
2 2 10 -1.3748 1.5545
2 2 11 1.8957 -0.9019
2 2 12 3.0844 -0.4588
2 2 13 2.1720 0.3006
2 2 14 0.1686 -1.0387
2 2 15 -0.8255 -0.2004
2 2 16 0.2828 1.1089
2 2 17 1.5727 -0.2889
2 2 18 1.7750 -0.2341
2 2 19 1.6787 1.4715
2 3 0 -8.6103 -0.8348
2 3 1 -7.2716 0.5509
2 3 2 -4.9777 0.2686
2 3 3 -3.6974 -0.6721
2 3 4 -2.7186 0.0363
2 3 5 -0.0376 0.1761
2 3 6 1.7834 -0.0722
2 3 7 0.6935 0.4046
2 3 8 -1.6472 -0.0650
2 3 9 -4.2807 -0.4780
2 3 10 -6.3448 0.3126
2 3 11 -6.1582 0.1769
2 3 12 -4.1993 -0.2982
2 3 13 -2.3713 0.1554
2 3 14 -1.7608 -0.1718
2 3 15 -1.9983 -0.3884
2 3 16 -1.5444 0.6127
2 3 17 -0.3788 0.2256
2 3 18 0.0392 -0.7639
2 4 0 -2.6747 -0.7819
2 4 1 -2.9225 -0.8619
2 4 2 -2.8570 0.6580
2 4 3 -2.0865 0.0469
2 4 4 -1.5925 -0.5569
2 4 5 0.1162 0.4870
2 4 6 3.0574 0.4113
2 4 7 4.2443 -0.5447
2 4 8 3.9894 -0.2953
2 4 9 3.9257 0.4134
2 4 10 2.9686 0.4981
2 4 11 1.1415 -0.0301
2 4 12 -0.0449 -0.5060
2 4 13 -0.4154 -0.1994
2 4 14 -0.2652 0.0271
2 4 15 0.0275 -0.1385
2 4 16 0.2618 0.3202
2 4 17 0.7917 0.1772
2 5 0 1.3866 0.2484
2 5 1 1.3953 -0.7896
2 5 2 -0.0926 -0.1240
2 5 3 -1.3066 0.6181
2 5 4 -1.8054 -0.2244
2 5 5 -2.2795 -0.3871
2 5 6 -1.5853 0.5502
2 5 7 -0.5177 0.4807
2 5 8 -0.5782 -0.3480
2 5 9 -0.4516 -0.4240
2 5 10 0.1100 0.0894
2 5 11 0.1874 0.1903
2 5 12 0.5491 -0.1223
2 5 13 0.9005 -0.0399
2 5 14 0.2086 0.0610
2 5 15 -0.6250 -0.3346
2 5 16 -0.8960 0.1220
2 5 17 -0.7061 1.1584
2 6 0 -3.1105 0.0755
2 6 1 -0.6576 -0.3564
2 6 2 0.7434 -0.2824
2 6 3 0.0045 0.3151
2 6 4 -0.1929 0.3544
2 6 5 0.3614 0.0106
2 6 6 0.6929 -0.0759
2 6 7 0.8798 -0.1502
2 6 8 0.3253 -0.2165
2 6 9 -0.1435 0.0001
2 6 10 0.4380 0.3037
2 6 11 0.2271 0.2755
2 6 12 -0.7600 -0.2463
2 6 13 -0.5174 -0.5317
2 6 14 -0.0918 -0.1780
2 6 15 -0.5124 -0.3755
2 7 0 0.2093 0.1593
2 7 1 -0.6860 -0.3551
2 7 2 0.6059 -0.2096
2 7 3 1.0037 0.4133
2 7 4 0.6377 0.0907
2 7 5 1.0488 -0.3889
2 7 6 1.5080 0.1109
2 7 7 2.1011 0.3877
2 7 8 2.6887 -0.1359
2 7 9 2.2863 -0.3327
2 7 10 2.3932 -0.0527
2 7 11 3.3302 0.1430
2 7 12 2.7817 0.0735
2 7 13 1.5304 -0.3610
2 7 14 1.1608 -0.6055
2 8 0 1.6859 0.1821
2 8 1 1.2107 -0.0251
2 8 2 1.5401 -0.5581
2 8 3 0.8688 0.0654
2 8 4 -0.8194 0.7078
2 8 5 -0.6910 0.0302
2 8 6 0.0131 -0.4394
2 8 7 -1.2281 -0.0414
2 8 8 -2.4695 -0.0660
2 8 9 -2.6771 -0.2128
2 8 10 -2.8521 0.2502
2 8 11 -2.0417 0.4998
2 8 12 -0.6543 0.3676
2 9 0 -0.2628 -0.1842
2 9 1 -1.2505 0.0292
2 9 2 0.3836 -0.0233
2 9 3 2.6520 -0.0918
2 9 4 1.3537 0.1818
2 9 5 -0.6506 0.0684
2 9 6 1.2537 -0.2537
2 9 7 3.7332 0.0773
2 9 8 3.2748 0.1896
2 9 9 2.0843 -0.5114
2 10 0 1.9137 0.0549
2 10 1 1.0148 -0.0367
2 10 2 -0.2442 -0.2333
2 10 3 1.6549 0.0081
2 10 4 3.7313 0.4405
3 0 0 -8.3826 -6.7330
3 0 1 -4.4962 -3.5479
3 0 2 -2.2704 2.8088
3 0 3 -2.2325 2.3285
3 0 4 -1.6748 -2.9239
3 0 5 0.4782 -2.0015
3 0 6 3.2441 1.4983
3 0 7 5.0148 0.0221
3 0 8 4.2927 0.4693
3 0 9 2.1180 3.2049
3 0 10 1.0181 -0.8717
3 0 11 0.4370 -4.3981
3 0 12 -1.2092 0.8540
3 0 13 -2.8968 3.4390
3 0 14 -3.6053 -0.6678
3 0 15 -2.7923 -1.1520
3 0 16 0.3682 0.4473
3 0 17 3.6297 -1.8682
3 0 18 3.7663 -2.8946
3 1 0 3.3726 -0.1418
3 1 1 -0.3541 -2.7078
3 1 2 -1.2719 -1.4045
3 1 3 -2.3517 2.0385
3 1 4 -4.3415 1.2574
3 1 5 -5.3451 -1.4092
3 1 6 -4.3650 0.5151
3 1 7 -1.8756 1.6825
3 1 8 0.6084 -1.3828
3 1 9 1.2640 -0.6208
3 1 10 0.8927 2.2568
3 1 11 1.5348 -0.6035
3 1 12 2.4065 -2.6476
3 1 13 2.1168 0.5993
3 1 14 0.6976 0.9014
3 1 15 -2.0474 -1.2386
3 1 16 -4.6004 0.5646
3 1 17 -4.2081 2.0120
3 1 18 -1.9192 0.2184
3 2 0 9.1353 -0.1444
3 2 1 7.4014 -0.2458
3 2 2 5.6816 -0.0393
3 2 3 5.5927 0.5592
3 2 4 5.3502 1.2539
3 2 5 3.9513 -0.1835
3 2 6 2.4264 -1.3925
3 2 7 1.3160 0.7146
3 2 8 0.9519 1.2459
3 2 9 1.3540 -1.2571
3 2 10 1.4790 -1.0510
3 2 11 1.4870 0.4086
3 2 12 2.2722 -0.4990
3 2 13 3.1982 0.0064
3 2 14 3.8226 1.6195
3 2 15 3.7962 0.2670
3 2 16 1.8272 -0.5998
3 2 17 -0.9771 1.1824
3 2 18 -1.8367 1.4171
3 3 0 -0.5846 0.4752
3 3 1 0.1801 -0.6868
3 3 2 -0.0897 -0.0469
3 3 3 -0.4087 0.6918
3 3 4 0.1919 0.2551
3 3 5 0.8950 0.1733
3 3 6 1.6402 -0.2869
3 3 7 2.4884 -0.8368
3 3 8 2.2279 -0.0457
3 3 9 1.3679 0.3656
3 3 10 1.2538 -0.0183
3 3 11 1.1627 0.2698
3 3 12 0.6825 0.0520
3 3 13 0.4046 -0.4524
3 3 14 0.2598 0.4428
3 3 15 0.5928 0.7073
3 3 16 1.3678 -0.1223
3 3 17 1.2559 0.7062
3 4 0 -0.9924 0.6945
3 4 1 -1.8044 0.2341
3 4 2 -2.2946 -0.5689
3 4 3 -2.9206 0.6337
3 4 4 -3.6274 0.6996
3 4 5 -4.2301 -0.7288
3 4 6 -4.5154 -0.6540
3 4 7 -3.0992 0.3555
3 4 8 -0.9146 0.4796
3 4 9 -0.7301 -0.0385
3 4 10 -1.5819 -0.4182
3 4 11 -1.4616 -0.1440
3 4 12 -1.2352 0.1950
3 4 13 -1.1069 0.0066
3 4 14 -0.3321 0.2848
3 4 15 0.2842 0.5386
3 4 16 0.2258 -0.5393
3 4 17 -0.0136 -0.9905
3 5 0 0.8644 -0.0166
3 5 1 1.1872 0.8065
3 5 2 0.8977 -0.1559
3 5 3 0.9192 -0.4036
3 5 4 0.9385 0.6022
3 5 5 0.8841 0.3477
3 5 6 0.1383 -0.6848
3 5 7 -0.8538 -0.5424
3 5 8 -0.0695 0.2001
3 5 9 1.1512 0.3111
3 5 10 0.4867 -0.0616
3 5 11 -0.0668 -0.0925
3 5 12 0.7037 0.1927
3 5 13 0.9197 -0.0120
3 5 14 0.9435 -0.1375
3 5 15 2.0138 0.5163
3 5 16 2.7585 0.4746
3 6 0 -1.7384 -0.2403
3 6 1 -1.4643 0.3294
3 6 2 -1.9040 0.2219
3 6 3 -2.1340 -0.1089
3 6 4 -2.1288 0.0618
3 6 5 -2.1082 -0.0762
3 6 6 -1.8004 -0.4902
3 6 7 -2.3013 -0.2113
3 6 8 -3.0241 0.3537
3 6 9 -2.0346 0.3715
3 6 10 -1.2279 -0.0349
3 6 11 -2.1183 -0.2868
3 6 12 -2.1338 0.0437
3 6 13 -1.0342 0.3937
3 6 14 -0.9602 0.0988
3 7 0 0.9802 -0.3193
3 7 1 1.4450 0.4452
3 7 2 1.8313 0.1963
3 7 3 2.1117 -0.4456
3 7 4 2.1031 0.0386
3 7 5 0.9705 0.4042
3 7 6 -0.0697 -0.3078
3 7 7 -0.2734 -0.4943
3 7 8 -1.4203 0.2349
3 7 9 -2.4141 0.5176
3 7 10 -1.0430 0.2269
3 7 11 0.3364 -0.1098
3 7 12 0.0994 -0.3735
3 7 13 0.2401 -0.2933
3 8 0 2.9499 -0.4605
3 8 1 2.6728 0.0031
3 8 2 1.5091 0.5535
3 8 3 1.4206 -0.0402
3 8 4 2.9303 -0.3476
3 8 5 3.4300 0.1449
3 8 6 1.7632 -0.0471
3 8 7 1.0598 -0.4168
3 8 8 1.6494 0.3189
3 8 9 0.3571 0.9323
3 8 10 -1.4908 0.4682
3 9 0 -1.7270 -0.0553
3 9 1 0.3814 0.0462
3 9 2 0.1548 0.2841
3 9 3 -1.7925 -0.1077
3 9 4 -1.5423 -0.3881
3 9 5 1.3485 0.2527
3 9 6 2.3872 0.3737
3 9 7 0.5794 -0.6575
4 0 0 -2.9447 9.5913
4 0 1 -4.8812 4.5517
4 0 2 -7.0191 -1.3942
4 0 3 -9.5383 -1.2893
4 0 4 -9.9295 0.8506
4 0 5 -5.9902 -0.6052
4 0 6 -1.1706 0.1593
4 0 7 0.4986 3.0015
4 0 8 -0.4314 -0.7873
4 0 9 -1.9300 -4.4852
4 0 10 -3.3359 0.5248
4 0 11 -4.0467 3.3604
4 0 12 -3.3215 -0.6877
4 0 13 -1.9610 -1.2128
4 0 14 -1.3437 0.6748
4 0 15 -1.1709 -1.0872
4 0 16 -0.6464 -0.8078
4 0 17 -0.0361 2.5048
4 1 0 -0.0663 2.2098
4 1 1 2.0483 3.2146
4 1 2 2.6896 0.5019
4 1 3 1.0652 -1.9166
4 1 4 -3.2694 -0.2186
4 1 5 -6.5859 0.8200
4 1 6 -5.6358 -1.5035
4 1 7 -2.2896 -0.5081
4 1 8 0.3456 2.2298
4 1 9 1.3465 -0.4828
4 1 10 0.6448 -2.5413
4 1 11 -1.4003 0.6907
4 1 12 -2.8870 1.2661
4 1 13 -2.1838 -0.7484
4 1 14 -0.6858 0.7498
4 1 15 -0.4787 1.5934
4 1 16 -0.9895 -0.1404
4 1 17 -1.0536 0.9489
4 2 0 -0.0383 0.3850
4 2 1 0.6916 1.1939
4 2 2 2.4808 0.6389
4 2 3 4.3664 -0.9469
4 2 4 3.9251 -1.6453
4 2 5 0.3828 0.3225
4 2 6 -3.2982 1.1296
4 2 7 -4.5115 -0.7297
4 2 8 -3.3604 -0.6032
4 2 9 -0.8511 0.5399
4 2 10 1.8542 -0.3746
4 2 11 2.8528 0.1415
4 2 12 1.2513 1.7303
4 2 13 -0.3955 0.3117
4 2 14 0.5758 -0.8746
4 2 15 2.1416 0.0672
4 2 16 1.5108 -0.8731
4 2 17 0.1398 -1.9916
4 3 0 1.2569 0.1805
4 3 1 1.0332 0.8231
4 3 2 1.8552 -0.1149
4 3 3 4.1934 -0.4917
4 3 4 6.8946 -0.3741
4 3 5 7.1872 -0.5569
4 3 6 4.4701 0.1067
4 3 7 0.9337 0.5975
4 3 8 -1.4045 0.2401
4 3 9 -2.1863 0.3358
4 3 10 -1.7801 0.0634
4 3 11 -0.3748 -0.5165
4 3 12 0.5707 0.1938
4 3 13 -0.8487 0.3224
4 3 14 -2.6314 -0.7575
4 3 15 -1.5567 -0.2940
4 3 16 0.4617 0.3810
4 4 0 -1.4783 -0.6616
4 4 1 -1.6829 0.6402
4 4 2 -1.6439 0.6413
4 4 3 -1.1297 -0.9348
4 4 4 0.8111 -0.7041
4 4 5 3.3313 0.5045
4 4 6 4.2140 0.5723
4 4 7 2.8135 0.1335
4 4 8 0.6773 -0.2347
4 4 9 -0.1882 -0.3183
4 4 10 -0.0904 -0.0404
4 4 11 -0.5100 0.0508
4 4 12 -0.6115 0.2760
4 4 13 -0.0883 0.4807
4 4 14 -0.9857 -0.2667
4 4 15 -2.3340 -0.6687
4 5 0 -0.0254 -0.1681
4 5 1 -0.3319 -0.3704
4 5 2 -0.4000 0.5673
4 5 3 -0.7995 0.1494
4 5 4 -1.3619 -0.7725
4 5 5 -0.9467 -0.3255
4 5 6 0.3547 0.3042
4 5 7 1.5931 0.2509
4 5 8 1.7144 0.1753
4 5 9 0.9381 0.1477
4 5 10 1.0444 -0.0065
4 5 11 1.6076 -0.1695
4 5 12 0.9774 -0.0644
4 5 13 0.6219 0.2778
4 5 14 1.2977 0.0998
4 6 0 -0.2658 0.1902
4 6 1 0.0066 -0.2028
4 6 2 0.2948 -0.0164
4 6 3 1.0400 -0.0849
4 6 4 1.4320 -0.5049
4 6 5 1.3485 -0.0022
4 6 6 0.7613 0.7980
4 6 7 -0.2301 0.4971
4 6 8 -0.5606 -0.2889
4 6 9 -0.4963 -0.4839
4 6 10 -0.7479 -0.1600
4 6 11 -0.4981 0.1508
4 6 12 -0.2530 0.2779
4 6 13 -0.8777 0.4539
4 7 0 -2.8156 0.1209
4 7 1 -2.7096 -0.3811
4 7 2 -2.7443 0.0843
4 7 3 -2.7667 0.5567
4 7 4 -2.3000 -0.0824
4 7 5 -1.3015 -0.5039
4 7 6 0.2389 0.0765
4 7 7 0.9177 0.4484
4 7 8 0.2876 0.1342
4 7 9 0.0988 -0.2815
4 7 10 0.4464 -0.4865
4 7 11 0.4190 -0.3625
4 8 0 1.3112 0.5984
4 8 1 0.1940 -0.0348
4 8 2 0.6245 -0.4100
4 8 3 0.3761 0.0400
4 8 4 -0.9723 -0.0045
4 8 5 -2.5816 -0.3172
4 8 6 -3.2772 0.2022
4 8 7 -2.5733 0.7061
4 8 8 -1.8536 0.4605
4 9 0 2.6016 0.2867
4 9 1 -0.6719 0.0086
4 9 2 -2.4336 -0.3950
4 9 3 -1.6333 0.2149
5 0 0 0.3303 -7.7475
5 0 1 2.0865 -2.4539
5 0 2 0.6931 0.0162
5 0 3 1.6497 -1.0352
5 0 4 7.5438 0.3410
5 0 5 9.9883 2.9561
5 0 6 5.7408 -0.5030
5 0 7 1.0529 -4.2544
5 0 8 -0.9851 0.1442
5 0 9 -1.2036 3.5283
5 0 10 0.3378 -0.0422
5 0 11 1.8050 -1.0830
5 0 12 0.8103 0.6940
5 0 13 -1.2953 -1.2376
5 0 14 -1.7964 -1.4208
5 0 15 -0.6749 2.3964
5 1 0 -2.4409 -3.3309
5 1 1 -2.9964 -2.7245
5 1 2 -4.0927 0.6316
5 1 3 -8.1969 1.2001
5 1 4 -8.6962 -1.0738
5 1 5 -3.0990 -0.2765
5 1 6 1.3408 2.2691
5 1 7 1.2274 0.0145
5 1 8 -0.6649 -2.3077
5 1 9 -2.8138 0.5787
5 1 10 -3.7279 1.4009
5 1 11 -1.6660 -1.1131
5 1 12 1.1513 0.1240
5 1 13 1.2114 1.7277
5 1 14 -0.8797 -0.1162
5 1 15 -1.9638 0.7332
5 2 0 4.0303 -0.6062
5 2 1 4.2214 -1.6235
5 2 2 4.5408 -0.6516
5 2 3 2.3766 1.2050
5 2 4 -3.0989 1.5686
5 2 5 -5.8580 -0.2714
5 2 6 -3.5213 -0.7423
5 2 7 -0.1415 0.1654
5 2 8 1.8452 -0.6147
5 2 9 1.8518 -0.3581
5 2 10 -0.6462 1.6763
5 2 11 -3.0434 0.6802
5 2 12 -1.8212 -1.1878
5 2 13 1.6500 -0.0365
5 2 14 2.9114 -0.0864
5 2 15 1.1339 -1.7742
5 3 0 -2.9988 -0.2214
5 3 1 -1.3489 -0.6962
5 3 2 0.1466 0.3311
5 3 3 1.6110 0.2985
5 3 4 0.7612 -0.0907
5 3 5 -2.3138 0.2061
5 3 6 -3.7564 0.0299
5 3 7 -2.6159 -0.0547
5 3 8 -0.8913 0.0262
5 3 9 0.6423 -0.3865
5 3 10 1.3056 0.1283
5 3 11 -0.0985 0.7433
5 3 12 -2.4309 -0.3626
5 3 13 -2.6771 -0.7252
5 3 14 -0.5690 0.2009
5 4 0 -0.5633 0.5646
5 4 1 -1.1368 -1.1115
5 4 2 -0.5990 -0.7618
5 4 3 0.5873 0.9955
5 4 4 1.4811 0.7448
5 4 5 0.3723 -0.2092
5 4 6 -1.7347 -0.2338
5 4 7 -2.2022 -0.2706
5 4 8 -1.0805 -0.2517
5 4 9 -0.1496 0.0916
5 4 10 0.2224 0.3410
5 4 11 0.7209 0.4223
5 4 12 1.0471 -0.0640
5 4 13 0.5441 -0.5857
5 5 0 2.0447 0.2076
5 5 1 1.2612 0.2089
5 5 2 0.6192 -0.4391
5 5 3 0.4719 0.0930
5 5 4 0.9023 0.5749
5 5 5 0.9231 -0.0858
5 5 6 -0.2320 -0.3194
5 5 7 -1.3981 0.0878
5 5 8 -1.3151 -0.0020
5 5 9 -0.4130 -0.2395
5 5 10 -0.0157 0.0756
5 5 11 -0.5274 0.5325
5 5 12 -0.8871 0.3252
5 6 0 0.5665 0.0736
5 6 1 0.1837 -0.1626
5 6 2 -0.2396 -0.4233
5 6 3 -0.4557 0.0881
5 6 4 -0.1649 0.7001
5 6 5 0.1179 0.2863
5 6 6 -0.6249 -0.4651
5 6 7 -1.6464 -0.4805
5 6 8 -1.6485 -0.0703
5 6 9 -1.0801 0.1179
5 6 10 -0.6835 0.0663
5 7 0 1.5748 -0.1433
5 7 1 2.2409 0.3820
5 7 2 1.8023 -0.0776
5 7 3 0.6820 -0.1968
5 7 4 -0.1653 0.2764
5 7 5 0.3045 0.1950
5 7 6 0.8679 -0.2155
5 7 7 -0.0592 -0.4141
5 7 8 -0.9707 -0.7572
5 8 0 -2.8931 -0.4623
5 8 1 -0.4782 0.0777
5 8 2 1.5855 0.2043
5 8 3 2.4228 -0.1218
6 0 0 3.6351 3.5549
6 0 1 5.3893 -0.6116
6 0 2 6.7347 0.5195
6 0 3 7.9308 3.0052
6 0 4 4.6378 -0.3476
6 0 5 -0.4033 -3.8333
6 0 6 -0.6604 0.1822
6 0 7 1.5906 3.4918
6 0 8 1.9335 0.0684
6 0 9 1.5681 -1.4010
6 0 10 1.1714 0.4725
6 0 11 0.1972 -1.0442
6 0 12 0.2177 -1.7975
6 0 13 1.1170 1.7567
6 1 0 -3.3220 2.5686
6 1 1 -2.4326 1.1656
6 1 2 -1.9051 -1.3816
6 1 3 0.7761 -0.1888
6 1 4 4.3241 2.1123
6 1 5 3.1481 0.2848
6 1 6 -0.6946 -1.9340
6 1 7 -1.6793 -0.0505
6 1 8 -0.7020 0.7473
6 1 9 0.1982 -1.2186
6 1 10 1.2568 -0.2370
6 1 11 1.2430 1.9211
6 1 12 0.0215 1.0701
6 1 13 -0.1644 1.1578
6 2 0 0.1816 0.4040
6 2 1 -1.2966 1.1325
6 2 2 -2.5469 0.5603
6 2 3 -4.1964 -0.2940
6 2 4 -3.0136 -0.4124
6 2 5 0.1009 -0.1443
6 2 6 0.3955 -0.5813
6 2 7 -1.6340 -0.3946
6 2 8 -2.7379 0.7828
6 2 9 -2.3404 0.4664
6 2 10 -0.4893 -0.2994
6 2 11 1.8652 0.9655
6 2 12 2.3426 1.9711
6 3 0 4.1579 0.3900
6 3 1 4.3557 0.8384
6 3 2 4.0558 -0.2367
6 3 3 2.8034 -0.3519
6 3 4 0.7078 0.2107
6 3 5 0.5627 0.0013
6 3 6 2.0734 -0.4376
6 3 7 2.0877 -0.2206
6 3 8 0.2545 0.4882
6 3 9 -1.6565 0.6645
6 3 10 -2.3614 -0.0244
6 3 11 -1.4768 -0.4365
6 3 12 -0.1915 -0.4245
6 4 0 -1.8665 -0.3690
6 4 1 0.1139 0.7358
6 4 2 1.0958 0.5294
6 4 3 1.5640 -0.4610
6 4 4 1.1989 -0.4017
6 4 5 0.2520 0.0500
6 4 6 0.4550 -0.1006
6 4 7 1.5111 -0.1219
6 4 8 1.3695 0.3919
6 4 9 -0.2316 0.5116
6 4 10 -1.5876 -0.0502
6 4 11 -1.4004 -0.2222
6 5 0 -1.1672 -0.1036
6 5 1 -0.9494 0.2482
6 5 2 -0.3876 0.0192
6 5 3 -0.2580 -0.3407
6 5 4 -0.0959 -0.0929
6 5 5 0.0093 0.2634
6 5 6 0.0597 0.0765
6 5 7 0.7748 -0.2526
6 5 8 1.8643 0.0415
6 5 9 1.9586 0.7237
6 6 0 -1.0812 -0.6788
6 6 1 -1.2209 0.1555
6 6 2 -0.6197 0.4671
6 6 3 -0.1881 -0.3923
6 6 4 -0.4764 -0.2904
6 6 5 -0.7188 0.7602
6 6 6 -0.5316 1.0675
7 0 0 -0.3615 0.0377
7 0 1 -0.1963 3.0078
7 0 2 0.1681 0.7830
7 0 3 -0.1883 -3.1686
7 0 4 -0.6549 -1.1347
7 0 5 0.0942 2.7346
7 0 6 0.0332 0.8416
7 0 7 -1.6439 -1.3346
7 0 8 -2.2390 0.5801
7 0 9 -1.4236 0.4249
7 1 0 -1.5286 -1.7616
7 1 1 -0.8805 -0.5620
7 1 2 -0.0711 1.3885
7 1 3 0.9905 0.3880
7 1 4 0.9169 -1.3730
7 1 5 0.9118 0.1761
7 1 6 2.3354 1.3146
7 1 7 3.0254 -0.9504
7 1 8 1.9952 -1.8989
7 1 9 0.9824 -1.1150
7 2 0 -3.2150 -0.5694
7 2 1 -4.2795 -0.1850
7 2 2 -4.7038 0.4011
7 2 3 -3.6559 0.3621
7 2 4 -1.9704 -0.4447
7 2 5 -1.7182 -0.5300
7 2 6 -2.0070 0.4378
7 2 7 -1.0814 0.0487
7 2 8 0.2498 -0.8062
7 2 9 0.9042 0.1475
7 3 0 0.3399 -0.6332
7 3 1 -0.1578 -0.6396
7 3 2 -1.2722 0.3486
7 3 3 -2.3770 0.5820
7 3 4 -2.1128 0.0720
7 3 5 -0.8150 -0.4889
7 3 6 -0.3550 -0.3415
7 3 7 -0.7524 -0.2017
7 4 0 -0.1984 0.1829
7 4 1 0.9715 -0.3368
7 4 2 1.7318 -0.0487
7 4 3 1.7219 -0.1885
7 4 4 0.8637 -0.2352
7 4 5 0.2190 0.2577
7 4 6 0.2545 0.4584
7 5 0 -0.9641 1.2609
0 0 0 0.0 0.0
;
_shelx_fab_checksum              20136
_olex2_submission_special_instructions 'No special instructions were received'
_oxdiff_exptl_absorpt_empirical_details
;
Empirical correction (ABSPACK) includes:
- Absorption correction using spherical harmonics
- Frame scaling
;
_oxdiff_exptl_absorpt_empirical_full_max 2.579
_oxdiff_exptl_absorpt_empirical_full_min 0.467
loop_
_space_group_symop_operation_xyz
'x, y, z'
'-x, y+1/2, -z'
'-x, -y, -z'
'x, -y-1/2, z'
loop_
_atom_site_label
_atom_site_type_symbol
_atom_site_fract_x
_atom_site_fract_y
_atom_site_fract_z
_atom_site_U_iso_or_equiv
_atom_site_adp_type
_atom_site_occupancy
_atom_site_site_symmetry_order
_atom_site_calc_flag
_atom_site_refinement_flags_posn
_atom_site_refinement_flags_adp
_atom_site_refinement_flags_occupancy
_atom_site_disorder_assembly
_atom_site_disorder_group
W1 W 0.41484(5) 0.750000 0.70115(2) 0.03260(15) Uani 1 2 d S T P . .
Se1 Se 0.64901(15) 0.750000 0.81781(6) 0.0457(3) Uani 1 2 d S T P . .
Cl1 Cl 0.5970(2) 0.5397(3) 0.61587(10) 0.0410(4) Uani 1 1 d . . . . .
Cl2 Cl 0.1555(3) 0.5463(2) 0.75162(10) 0.0392(4) Uani 1 1 d . . . . .
N1 N 0.1791(12) 0.750000 0.5766(5) 0.040(2) Uani 1 2 d S T P . .
C1 C 0.0632(13) 0.750000 0.5149(6) 0.0341(19) Uani 1 2 d S T P . .
C2 C -0.0793(15) 0.750000 0.4370(6) 0.039(2) Uani 1 2 d S T P . .
H2A H -0.109141 0.867862 0.418593 0.058 Uiso 0.5 1 calc R U P A -1
H2B H -0.223578 0.693049 0.451990 0.058 Uiso 0.5 1 calc R U P A -1
H2C H -0.002145 0.689089 0.387367 0.058 Uiso 0.5 1 calc R U P A -1
loop_
_atom_site_aniso_label
_atom_site_aniso_U_11
_atom_site_aniso_U_22
_atom_site_aniso_U_33
_atom_site_aniso_U_23
_atom_site_aniso_U_13
_atom_site_aniso_U_12
W1 0.00957(18) 0.0686(3) 0.01969(19) 0.000 -0.00051(12) 0.000
Se1 0.0128(4) 0.1032(9) 0.0212(4) 0.000 -0.0041(3) 0.000
Cl1 0.0210(7) 0.0755(12) 0.0265(7) -0.0018(7) 0.0015(5) 0.0082(7)
Cl2 0.0241(7) 0.0670(11) 0.0264(7) 0.0027(7) 0.0017(5) -0.0055(7)
N1 0.010(3) 0.089(6) 0.021(3) 0.000 -0.005(3) 0.000
C1 0.012(3) 0.056(5) 0.034(4) 0.000 0.006(3) 0.000
C2 0.018(4) 0.069(7) 0.029(4) 0.000 -0.003(3) 0.000
loop_
_atom_type_symbol
_atom_type_description
_atom_type_scat_dispersion_real
_atom_type_scat_dispersion_imag
_atom_type_scat_source
C C 0.0033 0.0016 'International Tables Vol C Tables 4.2.6.8 and 6.1.1.4'
H H 0.0000 0.0000 'International Tables Vol C Tables 4.2.6.8 and 6.1.1.4'
Cl Cl 0.1484 0.1585 'International Tables Vol C Tables 4.2.6.8 and 6.1.1.4'
N N 0.0061 0.0033 'International Tables Vol C Tables 4.2.6.8 and 6.1.1.4'
Se Se -0.0929 2.2259 'International Tables Vol C Tables 4.2.6.8 and 6.1.1.4'
W W -0.8490 6.8722 'International Tables Vol C Tables 4.2.6.8 and 6.1.1.4'
loop_
_geom_angle_atom_site_label_1
_geom_angle_atom_site_label_2
_geom_angle_atom_site_label_3
_geom_angle
_geom_angle_site_symmetry_1
_geom_angle_site_symmetry_3
_geom_angle_publ_flag
Se1 W1 Cl1 97.83(4) . . ?
Se1 W1 Cl1 97.83(4) . 4_575 ?
Se1 W1 Cl2 99.32(4) . . ?
Se1 W1 Cl2 99.32(4) . 4_575 ?
Se1 W1 N1 178.40(18) . . ?
Cl1 W1 Cl1 90.30(9) . 4_575 ?
Cl1 W1 N1 81.05(13) 4_575 . ?
Cl1 W1 N1 81.05(13) . . ?
Cl2 W1 Cl1 162.78(6) . 4_575 ?
Cl2 W1 Cl1 162.78(6) 4_575 . ?
Cl2 W1 Cl1 88.83(6) . . ?
Cl2 W1 Cl1 88.83(6) 4_575 4_575 ?
Cl2 W1 Cl2 86.95(9) 4_575 . ?
Cl2 W1 N1 81.83(14) . . ?
Cl2 W1 N1 81.83(14) 4_575 . ?
C1 N1 W1 179.8(7) . . ?
N1 C1 C2 179.3(9) . . ?
C1 C2 H2A 109.5 . . ?
C1 C2 H2B 109.5 . . ?
C1 C2 H2C 109.5 . . ?
H2A C2 H2B 109.5 . . ?
H2A C2 H2C 109.5 . . ?
H2B C2 H2C 109.5 . . ?
loop_
_geom_bond_atom_site_label_1
_geom_bond_atom_site_label_2
_geom_bond_distance
_geom_bond_site_symmetry_2
_geom_bond_publ_flag
W1 Se1 2.2312(9) . ?
W1 Cl1 2.3248(17) 4_575 ?
W1 Cl1 2.3248(17) . ?
W1 Cl2 2.3208(17) 4_575 ?
W1 Cl2 2.3208(17) . ?
W1 N1 2.330(7) . ?
N1 C1 1.151(12) . ?
C1 C2 1.440(13) . ?
C2 H2A 0.9800 . ?
C2 H2B 0.9800 . ?
C2 H2C 0.9800 . ?
loop_
_smtbx_masks_void_nr
_smtbx_masks_void_average_x
_smtbx_masks_void_average_y
_smtbx_masks_void_average_z
_smtbx_masks_void_volume
_smtbx_masks_void_count_electrons
_smtbx_masks_void_content
1 0.289 -0.456 0.000 252.1 106.0 '2.5 C6H6'
