#------------------------------------------------------------------------------
#$Date: 2022-04-12 02:20:05 +0300 (Tue, 12 Apr 2022) $
#$Revision: 274464 $
#$URL: file:///home/coder/svn-repositories/cod/cif/7/70/99/7709999.cif $
#------------------------------------------------------------------------------
#
# This file is available in the Crystallography Open Database (COD),
# http://www.crystallography.net/
#
# All data on this site have been placed in the public domain by the
# contributors.
#
data_7709999
loop_
_publ_author_name
'Jiang, Lin-Tao'
'Li, Ming-Ze'
'Jiang, Xiao-Ming'
'Liu, Bin-Wen'
'Guo, Guo-Cong'
_publ_section_title
;
 AIn4S6Cl (A = Rb and Cs) and Pb5Sn3Q10Cl2 (Q = S and Se): quaternary
 chalcohalides with mixed anionic coordination exhibit photocurrent
 responses
;
_journal_name_full               'Dalton Transactions'
_journal_paper_doi               10.1039/D2DT00350C
_journal_year                    2022
_chemical_formula_moiety         'Cl2 Pb5 Se10 Sn3'
_chemical_formula_sum            'Cl2 Pb5 Se10 Sn3'
_chemical_formula_weight         2252.52
_chemical_melting_point          ?
_chemical_name_common            Pb5Sn3Se10Cl2
_space_group_crystal_system      orthorhombic
_space_group_IT_number           65
_space_group_name_Hall           '-C 2 2'
_space_group_name_H-M_alt        'C m m m'
_audit_creation_method           SHELXL-2013
_audit_update_record
;
2022-01-27 deposited with the CCDC.	2022-03-15 downloaded from the CCDC.
;
_cell_angle_alpha                90
_cell_angle_beta                 90
_cell_angle_gamma                90
_cell_formula_units_Z            2
_cell_length_a                   21.2415(9)
_cell_length_b                   12.3226(5)
_cell_length_c                   4.0333(2)
_cell_measurement_reflns_used    4917
_cell_measurement_temperature    293(2)
_cell_measurement_theta_max      28.7530
_cell_measurement_theta_min      1.8530
_cell_volume                     1055.72(8)
_computing_cell_refinement       'CrysAlisPro 1.171.40.59a (Rigaku OD, 2019)'
_computing_data_collection       'CrysAlisPro 1.171.40.59a (Rigaku OD, 2019)'
_computing_data_reduction        'CrysAlisPro 1.171.40.59a (Rigaku OD, 2019)'
_computing_publication_material  'SHELXL-2013 (Sheldrick, 2013)'
_computing_structure_refinement  'SHELXL-2013 (Sheldrick, 2013)'
_computing_structure_solution    'SHELXL-2013 (Sheldrick, 2013)'
_diffrn_ambient_temperature      293(2)
_diffrn_detector_area_resol_mean 10.0000
_diffrn_measured_fraction_theta_full 0.978
_diffrn_measured_fraction_theta_max 1.002
_diffrn_measurement_device_type  'ROD, Synergy Custom DW system, HyPix'
_diffrn_measurement_method       CCD_Profile_fitting
_diffrn_radiation_type           MoK\a
_diffrn_radiation_wavelength     0.71073
_diffrn_reflns_av_R_equivalents  0.0960
_diffrn_reflns_av_unetI/netI     0.0517
_diffrn_reflns_Laue_measured_fraction_full 0.978
_diffrn_reflns_Laue_measured_fraction_max 1.002
_diffrn_reflns_limit_h_max       25
_diffrn_reflns_limit_h_min       -25
_diffrn_reflns_limit_k_max       14
_diffrn_reflns_limit_k_min       -14
_diffrn_reflns_limit_l_max       4
_diffrn_reflns_limit_l_min       -4
_diffrn_reflns_number            5292
_diffrn_reflns_point_group_measured_fraction_full 0.978
_diffrn_reflns_point_group_measured_fraction_max 1.002
_diffrn_reflns_theta_full        25.242
_diffrn_reflns_theta_max         25.019
_diffrn_reflns_theta_min         1.911
_exptl_absorpt_coefficient_mu    60.676
_exptl_absorpt_correction_T_max  1.00000
_exptl_absorpt_correction_T_min  0.09601
_exptl_absorpt_correction_type   multi-scan
_exptl_absorpt_process_details
;
CrysAlisPro 1.171.41.64a (Rigaku Oxford Diffraction, 2020)
Empirical absorption correction using spherical harmonics,
 implemented in SCALE3 ABSPACK scaling algorithm.
;
_exptl_crystal_colour            black
_exptl_crystal_density_diffrn    7.086
_exptl_crystal_density_meas      ?
_exptl_crystal_description       acicular
_exptl_crystal_F_000             1868
_exptl_crystal_size_max          0.125
_exptl_crystal_size_mid          0.120
_exptl_crystal_size_min          0.085
_refine_diff_density_max         4.275
_refine_diff_density_min         -4.606
_refine_diff_density_rms         1.146
_refine_ls_extinction_coef       0.0039(3)
_refine_ls_extinction_expression Fc^*^=kFc[1+0.001xFc^2^\l^3^/sin(2\q)]^-1/4^
_refine_ls_extinction_method     SHELXL
_refine_ls_goodness_of_fit_ref   0.999
_refine_ls_hydrogen_treatment    undef
_refine_ls_matrix_type           full
_refine_ls_number_parameters     40
_refine_ls_number_reflns         584
_refine_ls_number_restraints     0
_refine_ls_restrained_S_all      0.999
_refine_ls_R_factor_all          0.0548
_refine_ls_R_factor_gt           0.0536
_refine_ls_shift/su_max          0.009
_refine_ls_shift/su_mean         0.002
_refine_ls_structure_factor_coef Fsqd
_refine_ls_weighting_details
;
 w=1/[\s^2^(Fo^2^)+(0.0953P)^2^]
 where P=(Fo^2^+2Fc^2^)/3
;
_refine_ls_weighting_scheme      calc
_refine_ls_wR_factor_gt          0.1106
_refine_ls_wR_factor_ref         0.1119
_reflns_Friedel_coverage         0.000
_reflns_number_gt                559
_reflns_number_total             584
_reflns_threshold_expression     'I > 2\s(I)'
_cod_data_source_file            d2dt00350c2.cif
_cod_data_source_block           Pb5Sn3Se10Cl2
_cod_depositor_comments
;
The following automatic conversions were performed:

data item '_chemical_melting_point' value 'not measured' was changed
to '?' -- the value is undefined or not given.

data item '_exptl_crystal_density_meas' value 'not measured' was
changed to '?' -- the value is perceived as not measured.

Automatic conversion script
Id: cif_fix_values 7556 2019-12-06 15:28:31Z antanas 
;
_cod_database_code               7709999
_shelx_space_group_comment
;
The symmetry employed for this shelxl refinement is uniquely defined
by the following loop, which should always be used as a source of
symmetry information in preference to the above space-group names.
They are only intended as comments.
;
_shelxl_version_number           2013-2
_shelx_res_file
;
TITL a         C 2 2 2      R = 0.05  New: Cmmm
CELL  0.71073   21.2415   12.3226    4.0333    90.000    90.000    90.000
ZERR        2    0.0009    0.0005    0.0002     0.000     0.000     0.000
LATT   7
SYMM             - X ,            - Y ,              Z
SYMM               X ,            - Y ,            - Z
SYMM             - X ,              Y ,            - Z
SFAC Cl Pb Se Sn
UNIT     4   10  20   6
acta
Shel 999 0.84
L.S. 4
BOND
FMAP 2
PLAN 20
omit -3 51.0
WGHT    0.095300
EXTI    0.003916
FVAR       0.07130
PB1   2    0.355887    0.185298    0.000000    10.50000    0.02819    0.01867 =
         0.02120    0.00000    0.00000    0.00325
PB2   2    0.000000    0.000000    1.000000    10.12500    0.02401    0.11021 =
         0.05096    0.00000    0.00000    0.00000
SN1   4    0.500000    0.000000    0.500000    10.12500    0.00724    0.01174 =
         0.01523    0.00000    0.00000    0.00000
SN2   4    0.165030    0.000000    0.500000    10.25000    0.01001    0.01326 =
         0.01203    0.00000    0.00000    0.00000
SE1   3    0.500000    0.150318    0.000000    10.25000    0.00729    0.00814 =
         0.01461    0.00000    0.00000    0.00000
SE2   3    0.239144    0.000000    0.000000    10.25000    0.00780    0.01531 =
         0.01329    0.00000    0.00000    0.00000
SE3   3    0.415252    0.349673    0.500000    10.50000    0.01154    0.00944 =
         0.02092    0.00000    0.00000    0.00005
SE4   3    0.374353    0.000000    0.500000    10.25000    0.00819    0.00801 =
         0.01315    0.00000    0.00000    0.00000
CL1   1    0.250000    0.250000    0.500000    10.25000    0.01496    0.01235 =
         0.02479    0.00000    0.00000    0.00125

HKLF 4 1  0.0000  1.0000  0.0000  1.0000  0.0000  0.0000  0.0000  0.0000 -1.0000

REM  a         C 2 2 2      R = 0.05  New: Cmmm
REM R1 =  0.0536 for     559 Fo > 4sig(Fo)  and  0.0548 for all     584 data
REM     40 parameters refined using      0 restraints

END

WGHT      0.0692      0.0000

REM Highest difference peak  4.275,  deepest hole -4.606,  1-sigma level  1.146
Q1    1   0.0000  0.0000  1.1506  10.25000  0.05    4.28
Q2    1   0.1642  0.0000  0.3341  10.50000  0.05    3.61
Q3    1   0.3541  0.1799  0.1934  11.00000  0.05    3.52
Q4    1   0.5000  0.0000  0.3668  10.25000  0.05    3.35
Q5    1   0.2827  0.0000  0.1156  10.50000  0.05    3.18
Q6    1   0.3799  0.0000  0.3438  10.50000  0.05    3.08
Q7    1   0.4471  0.0000  0.3912  10.50000  0.05    3.07
Q8    1   0.5000  0.1618  0.1536  10.50000  0.05    3.06
Q9    1   0.2305  0.0000  0.1758  10.50000  0.05    2.99
Q10   1   0.4124  0.3327  0.6279  11.00000  0.05    2.85
Q11   1   0.4025  0.1754  0.1019  11.00000  0.05    2.67
Q12   1   0.3120  0.1743  0.0957  11.00000  0.05    2.62
Q13   1   0.0502  0.0000  1.1199  10.50000  0.05    2.60
Q14   1   0.4299  0.0000  0.1239  10.50000  0.05    2.36
Q15   1   0.2387  0.1727  0.3681  11.00000  0.05    2.34
Q16   1   0.2124  0.0000  0.4018  10.50000  0.05    2.22
Q17   1   0.4260  0.3313  0.8737  11.00000  0.05    2.20
Q18   1   0.3302  0.0000  0.3761  10.50000  0.05    2.17
Q19   1   0.1226  0.0000  0.4483  10.50000  0.05    2.13
Q20   1   0.4637  0.3309  0.6288  11.00000  0.05    2.04
;
_shelx_res_checksum              82909
_shelx_hkl_file
;
   0 -24   0  207.93   17.80
   0 -22   0  298.14   34.22
   0 -22   0 1099.20   37.27
   0 -20   0  289.76   31.75
   0 -20   0 1062.68   35.33
   0 -18   0  194.05   10.70
   0 -18   0   65.79    9.20
   0 -16   0   35.91    5.75
   0 -16   0   75.92    6.08
   0 -14   0  944.04   51.54
   0 -12   0  884.35   48.07
   0 -10   0  184.85   11.57
   0  -8   0 1145.49   60.64
   0  -6   0  584.91   31.37
   0  -4   0  301.37   16.36
   0  -2   0   18.64    1.35
   0   4   0  327.89   17.75
   0   6   0  675.39   36.08
   0   8   0 1325.75   70.01
   0  10   0  228.89   13.96
   0  12   0 1015.59   54.98
   0  14   0 1204.14   65.15
   0  16   0   42.31    5.05
   0  18   0   76.58    7.47
   0  20   0  345.31   22.26
   0  22   0  374.96   24.20
   0  24   0  248.46   17.96
  -1 -25   0   80.20   10.33
  -1 -23   0    3.68    3.77
   1 -21   0  108.82    7.93
  -1 -21   0  100.90    9.04
   1 -19   0   10.62    3.49
  -1 -19   0   22.90    5.01
  -1 -19   0   15.19    4.65
  -1 -17   0   70.83    6.55
   1 -17   0   60.00    5.19
  -1 -15   0  460.51   38.09
  -1 -15   0  965.54   39.62
   1 -13   0  100.53    8.01
  -1 -13   0  105.10    9.33
  -1 -13   0   88.56    7.83
  -1 -11   0  258.22   16.20
  -1 -11   0  282.54   17.69
   1 -11   0  277.45   16.26
  -1  -9   0   57.31    4.41
   1  -9   0   51.34    4.14
  -1  -7   0  469.82   27.57
   1  -7   0  517.28   26.70
  -1  -7   0  472.77   26.71
   1  -5   0   44.46    3.23
  -1  -5   0   42.91    3.29
  -1  -5   0   48.55    3.97
  -1  -3   0   28.01    2.15
  -1  -3   0   33.85    2.62
   1  -3   0   28.55    2.10
   1  -1   0    3.80    0.45
  -1  -1   0    4.25    0.62
  -1  -1   0    5.22    0.64
   1  -1   0    4.10    0.54
   1   1   0    4.42    0.62
  -1   1   0    4.80    0.58
   1   3   0   29.84    2.25
   1   3   0   27.60    2.17
   1   3   0   36.24    2.76
  -1   3   0   29.42    2.13
   1   5   0   46.17    3.53
  -1   5   0   47.09    3.36
  -1   7   0  523.23   29.23
   1   7   0  563.77   29.64
   1   9   0   57.86    4.81
  -1   9   0   57.04    4.60
   1  11   0  345.55   19.61
  -1  11   0  315.75   19.19
   1  13   0  119.75    8.83
  -1  13   0  111.66    8.40
  -1  15   0  512.50   29.96
   1  15   0  525.91   30.44
   1  17   0   30.11    4.45
  -1  17   0   39.46    4.60
   1  19   0    6.29    3.04
  -1  19   0    4.47    2.58
  -1  21   0   31.34    5.05
   1  21   0   33.77    5.54
   1  23   0    2.97    3.41
  -1  23   0    1.06    3.32
  -1  25   0  103.96   10.23
   1  25   0   97.99   10.16
  -2 -24   0  298.03   22.47
  -2 -22   0   12.33    4.41
   2 -20   0  246.79   11.92
  -2 -20   0  266.42   15.60
   2 -18   0 1787.29   69.65
  -2 -18   0 1978.90   74.33
  -2 -16   0  543.84   22.64
  -2 -16   0  188.36   18.88
  -2 -14   0  134.88   11.77
   2 -14   0  140.85   10.29
  -2 -14   0  122.36   10.08
  -2 -12   0  120.87    9.27
   2 -12   0  130.09    9.33
  -2 -12   0  118.73   10.44
  -2 -10   0  302.93   19.44
   2 -10   0  309.63   17.99
  -2 -10   0  272.81   17.90
  -2  -8   0   25.84    3.41
  -2  -8   0   20.47    3.18
   2  -8   0   30.73    2.83
  -2  -8   0   28.90    2.84
  -2  -6   0   68.00    4.58
   2  -6   0   78.05    4.55
  -2  -6   0   77.13    5.45
  -2  -4   0  739.36   37.42
   2  -4   0  714.22   36.50
  -2  -4   0  661.74   36.78
  -2  -4   0  671.67   36.80
   2  -4   0  678.20   36.46
   2  -2   0   48.58    3.09
  -2  -2   0   53.28    3.12
  -2  -2   0   48.63    3.56
   2  -2   0   50.28    3.31
   2  -2   0   45.10    3.39
  -2  -2   0   44.54    3.45
  -2   0   0   33.87    2.67
   2   0   0   39.42    2.75
   2   2   0   45.59    4.16
   2   2   0   50.12    3.54
   2   2   0   43.07    3.12
  -2   2   0   52.09    3.47
  -2   2   0   57.88    3.75
   2   4   0  682.39   36.18
   2   4   0  699.86   37.03
  -2   4   0  711.66   36.74
   2   4   0  700.18   36.96
  -2   6   0   76.25    5.22
  -2   6   0   75.53    5.14
   2   6   0   81.31    5.57
   2   6   0   75.98    5.33
  -2   8   0   30.84    2.92
   2   8   0   26.92    2.81
   2   8   0   31.47    3.24
  -2   8   0   26.43    2.69
   2  10   0  381.69   20.45
  -2  10   0  333.12   19.70
  -2  10   0  323.46   19.47
   2  12   0  151.99   10.66
  -2  12   0  149.51   10.21
   2  14   0  169.46   11.78
  -2  14   0  159.06   11.19
   2  16   0  251.03   16.05
  -2  16   0  219.95   15.29
   2  18   0  813.32   43.33
  -2  18   0  690.13   42.13
  -2  20   0   93.96    8.62
   2  20   0   86.79    8.69
  -2  22   0   11.76    3.70
   2  22   0   10.01    4.01
   2  24   0  373.47   24.55
  -2  24   0  347.99   23.70
   3 -25   0   20.69    5.87
  -3 -25   0   17.96    5.47
  -3 -23   0  144.55   13.45
  -3 -21   0  267.64   20.04
   3 -19   0  580.39   21.99
  -3 -19   0  158.57   22.10
  -3 -17   0    4.48    4.25
   3 -17   0    3.69    1.73
  -3 -17   0   -0.39    2.78
  -3 -15   0   29.18    5.38
  -3 -15   0    9.41    3.11
  -3 -13   0  595.00   38.24
  -3 -13   0  610.85   39.78
   3 -13   0  658.22   38.36
   3 -11   0  396.19   23.38
  -3 -11   0  377.99   24.75
  -3 -11   0  373.33   23.44
  -3  -9   0  115.52   10.26
  -3  -9   0  134.48    9.75
  -3  -9   0  119.71    8.64
   3  -9   0  139.62    8.61
   3  -7   0 1750.82   83.95
  -3  -7   0 1679.11   84.38
  -3  -7   0 1719.37   85.36
  -3  -5   0  747.39   42.65
   3  -5   0  762.52   42.10
  -3  -5   0  829.77   43.38
   3  -5   0  788.21   42.08
   3  -5   0  844.36   42.18
  -3  -3   0  715.27   38.41
   3  -3   0  746.97   37.62
  -3  -3   0  577.18   40.27
   3  -3   0  783.74   37.98
  -3  -3   0  729.80   37.41
   3  -3   0  733.05   37.73
   3  -3   0  612.73   37.92
  -3  -3   0  665.45   38.23
   3  -1   0  389.70   19.59
  -3  -1   0  320.87   21.78
  -3  -1   0  375.65   18.62
  -3  -1   0  361.87   19.83
   3   1   0  394.12   20.90
  -3   1   0  389.74   20.92
   3   3   0  738.37   39.17
  -3   3   0  808.92   38.68
  -3   3   0  751.02   39.04
   3   5   0  809.42   43.86
   3   5   0  795.77   42.77
  -3   5   0  838.09   43.54
  -3   5   0  809.74   43.69
   3   5   0  825.67   43.87
  -3   5   0  840.42   43.33
   3   7   0 1717.06   94.17
  -3   7   0 1780.71   93.94
   3   7   0 1789.49   94.47
  -3   7   0 1873.55   93.80
  -3   9   0  142.36    9.15
   3   9   0  146.10    9.61
   3   9   0  154.44   10.12
  -3   9   0  143.97    9.43
  -3  11   0  409.85   24.65
   3  11   0  419.83   24.79
   3  11   0  485.17   25.84
  -3  11   0  441.60   24.61
   3  13   0  704.08   40.68
  -3  13   0  685.38   40.65
  -3  13   0  755.64   40.61
  -3  15   0   10.39    2.62
  -3  15   0   14.06    2.82
   3  15   0   12.85    3.15
   3  17   0    2.05    2.09
  -3  17   0    1.73    2.09
  -3  19   0  189.73   14.20
   3  19   0  222.55   15.38
  -3  21   0  347.92   23.30
   3  21   0  391.99   24.51
  -3  23   0  164.91   13.60
   3  23   0  190.21   14.62
   3  25   0   26.01    5.77
  -3  25   0   28.43    5.60
  -4 -24   0   40.37    7.27
  -4 -22   0   25.39    5.67
   4 -20   0    0.78    1.78
  -4 -20   0   -0.46    2.95
  -4 -18   0  152.12   22.20
   4 -18   0  506.61   21.05
  -4 -16   0  181.04   14.34
  -4 -14   0   55.66    7.26
  -4 -14   0  158.77   11.87
   4 -12   0   18.84    2.72
  -4 -12   0   15.09    2.67
  -4 -12   0   17.55    3.39
  -4 -12   0   25.53    5.30
  -4 -10   0  114.27    8.74
  -4 -10   0  145.25   12.10
   4 -10   0  122.48    8.43
  -4 -10   0  125.75    9.83
   4  -8   0  402.67   24.34
  -4  -8   0  422.94   25.91
   4  -8   0  414.85   24.47
  -4  -8   0  376.11   27.64
   4  -6   0  261.16   15.81
  -4  -6   0  302.94   17.56
  -4  -6   0  255.11   16.55
   4  -6   0  279.94   15.95
   4  -6   0  298.46   15.99
   4  -4   0  148.87    9.09
   4  -4   0  138.59    8.64
   4  -4   0  159.64    9.43
  -4  -4   0  130.33    9.44
  -4  -4   0  137.65    9.52
  -4  -4   0  148.96   12.88
  -4  -4   0  141.25    8.35
   4  -4   0  139.39    8.76
  -4  -2   0  255.13   17.54
   4  -2   0  229.62   14.11
  -4  -2   0  215.61   13.44
   4  -2   0  230.31   13.11
  -4  -2   0  239.26   13.75
   4  -2   0  228.89   13.49
  -4  -2   0  214.96   13.89
  -4   0   0  464.15   27.03
   4   0   0  494.65   26.92
   4   0   0  470.11   26.53
   4   0   0  399.91   27.41
  -4   0   0  507.46   25.94
   4   2   0  244.91   13.73
  -4   2   0  242.70   15.48
   4   2   0  211.59   12.23
   4   2   0  231.75   13.64
  -4   2   0  236.94   13.68
   4   4   0  146.85    8.59
  -4   4   0  140.96    9.62
  -4   4   0  162.98    9.33
   4   4   0  174.29   10.48
   4   4   0  141.20    9.74
   4   6   0  299.35   17.89
   4   6   0  348.19   18.94
  -4   6   0  321.03   17.32
   4   6   0  299.73   16.78
   4   6   0  285.65   17.78
  -4   6   0  283.45   17.67
   4   8   0  427.68   24.15
   4   8   0  442.10   25.82
  -4   8   0  416.97   25.51
  -4   8   0  444.48   25.32
   4   8   0  460.08   25.75
  -4   8   0  484.12   25.17
  -4  10   0  128.16    9.33
  -4  10   0  128.29    9.05
   4  10   0  126.29    7.85
   4  10   0  127.47    9.23
   4  10   0  145.56    9.94
  -4  10   0  134.84    8.83
  -4  12   0   16.33    2.56
  -4  12   0   16.82    2.67
   4  12   0   22.76    3.49
   4  12   0   18.01    2.77
  -4  14   0   60.39    5.42
  -4  14   0   57.07    5.66
   4  14   0   73.03    6.78
   4  16   0  234.47   15.05
  -4  16   0  176.65   13.32
  -4  18   0  159.19   12.66
   4  18   0  214.01   14.48
  -4  20   0   -0.30    2.48
   4  20   0    1.44    2.95
   4  22   0   42.76    6.54
  -4  22   0   44.60    6.10
   4  24   0   67.71    8.38
  -4  24   0   59.24    7.34
  -5 -23   0    7.84    4.35
  -5 -21   0  102.17   10.80
  -5 -19   0   13.80    4.00
  -5 -17   0  268.64   19.50
  -5 -15   0  515.14   38.34
   5 -15   0  689.13   34.85
  -5 -13   0    6.17    5.25
  -5 -13   0    4.44    2.49
   5 -13   0    3.60    1.17
   5 -11   0  539.22   32.37
  -5 -11   0  511.09   34.04
   5 -11   0  584.39   31.24
  -5  -9   0    6.80    2.48
   5  -9   0    8.04    1.55
   5  -9   0    6.31    1.65
   5  -9   0    7.71    1.91
  -5  -9   0    4.59    1.74
  -5  -9   0    7.62    3.97
   5  -7   0  706.84   40.56
   5  -7   0  851.43   40.82
  -5  -7   0  770.54   42.43
  -5  -7   0  733.10   41.66
   5  -7   0  707.73   40.54
   5  -5   0  295.74   18.25
   5  -5   0  358.44   18.96
   5  -5   0  308.47   18.22
   5  -5   0  326.59   18.71
  -5  -5   0  298.48   19.25
  -5  -5   0  319.37   19.45
  -5  -5   0  321.68   17.78
  -5  -3   0  437.13   27.10
   5  -3   0  447.48   25.98
  -5  -3   0  439.15   26.76
   5  -3   0  483.40   26.56
  -5  -3   0  443.61   26.24
   5  -1   0  324.94   18.58
  -5  -1   0  270.86   17.88
  -5  -1   0  285.69   16.20
   5  -1   0  301.59   17.52
  -5   1   0  291.26   18.71
   5   1   0  296.03   18.55
   5   1   0  314.83   18.36
   5   1   0  329.84   19.92
   5   3   0  443.70   25.09
  -5   3   0  432.64   26.66
   5   3   0  458.57   26.81
   5   5   0  330.96   19.63
  -5   5   0  310.89   19.34
   5   5   0  315.97   17.91
   5   7   0  823.76   43.94
   5   7   0  754.75   45.06
   5   7   0  796.67   45.17
  -5   7   0  871.26   44.48
   5   7   0  946.09   46.56
  -5   7   0  776.78   44.98
   5   9   0    6.20    1.94
   5   9   0    6.36    1.24
   5   9   0    9.66    2.78
  -5   9   0    9.98    1.95
   5   9   0    7.02    2.06
  -5   9   0    8.62    2.08
   5  11   0  566.61   33.56
  -5  11   0  635.09   32.97
  -5  11   0  568.84   33.23
   5  11   0  621.98   34.27
   5  11   0  557.52   31.63
  -5  11   0  547.37   33.50
   5  13   0    2.48    2.26
  -5  13   0    3.57    1.92
   5  13   0    2.40    0.97
  -5  13   0    2.15    1.77
  -5  13   0    1.55    1.62
  -5  15   0  583.89   33.35
  -5  15   0  547.22   33.63
   5  15   0  560.41   31.07
  -5  17   0  318.89   20.92
   5  17   0  323.02   18.74
   5  19   0   22.53    4.71
  -5  19   0   20.71    4.20
   5  21   0  140.23   12.15
  -5  21   0  129.10   11.03
  -5  23   0    3.50    3.16
   5  23   0    4.75    3.79
  -6 -22   0  147.12   14.01
  -6 -20   0   54.14    7.83
  -6 -18   0    2.26    3.08
  -6 -16   0    0.42    2.48
  -6 -14   0  619.75   59.73
   6 -14   0 1224.90   57.18
   6 -12   0  663.82   33.62
  -6 -12   0  504.98   36.59
   6 -10   0   49.71    4.88
  -6 -10   0   49.96    6.02
   6 -10   0   42.85    4.62
  -6 -10   0   70.66    9.44
  -6 -10   0   44.22    5.44
   6 -10   0   70.22    4.58
   6  -8   0  585.18   35.01
   6  -8   0  568.68   34.82
  -6  -8   0  627.23   36.88
  -6  -8   0  589.85   36.30
   6  -6   0  572.88   34.35
   6  -6   0  556.73   34.21
  -6  -6   0  615.33   33.75
  -6  -6   0  554.17   35.58
  -6  -6   0  587.77   35.75
   6  -6   0  626.32   34.89
  -6  -4   0  345.25   23.54
   6  -4   0  350.63   22.18
   6  -4   0  383.97   22.80
  -6  -4   0  361.53   23.27
  -6  -4   0  392.80   22.60
  -6  -2   0   45.68    4.77
   6  -2   0   41.85    4.49
   6  -2   0   42.77    4.15
  -6  -2   0   49.47    3.62
  -6   0   0 3446.73  200.71
   6   0   0 3309.74  200.68
   6   0   0 3773.90  200.19
   6   0   0 3887.11  199.86
  -6   0   0 3937.73  198.76
   6   2   0   47.10    4.64
  -6   2   0   44.81    4.96
   6   2   0   55.45    5.03
   6   4   0  457.51   23.07
  -6   4   0  337.86   21.87
  -6   4   0  496.95   24.55
   6   4   0  343.33   19.92
   6   4   0  363.97   21.96
  -6   6   0  579.86   35.50
   6   6   0  606.04   33.61
   6   6   0  659.06   35.80
   6   8   0  664.94   40.20
   6   8   0  704.19   40.26
  -6   8   0  751.82   39.50
  -6   8   0  646.94   40.21
  -6  10   0   59.73    5.06
   6  10   0   55.26    4.42
   6  10   0   48.23    5.36
   6  10   0   54.05    5.68
  -6  10   0   43.30    5.27
  -6  12   0  474.20   30.82
   6  12   0  535.60   31.48
   6  12   0  548.99   28.91
  -6  12   0  534.46   29.96
   6  14   0  781.90   39.53
   6  14   0  795.54   42.88
  -6  14   0  637.95   41.55
  -6  14   0  682.77   41.27
   6  16   0    1.19    1.21
  -6  16   0    1.34    2.33
   6  16   0    1.38    2.65
  -6  16   0    3.99    2.33
   6  18   0    6.24    1.57
  -6  18   0    4.38    2.54
   6  18   0    5.66    3.18
  -6  18   0    8.83    3.24
   6  20   0   76.90    8.63
  -6  20   0   69.24    7.84
  -6  20   0   78.37    7.92
   6  22   0  207.63   15.60
  -6  22   0  174.08   13.87
  -6  22   0  161.74   14.18
  -7 -21   0    1.60    3.69
  -7 -19   0   66.99    8.88
  -7 -17   0  152.56   13.65
  -7 -15   0  217.97   17.03
  -7 -13   0  257.91   30.06
   7 -13   0  668.34   28.68
  -7 -11   0    1.39    2.24
  -7 -11   0    0.30    1.81
   7 -11   0    0.40    1.63
   7 -11   0    2.98    1.58
  -7  -9   0  205.84   16.11
  -7  -9   0  204.71   16.24
   7  -9   0  204.23   14.85
  -7  -7   0   84.58    8.00
  -7  -7   0   88.07    8.15
  -7  -7   0   88.21    6.33
   7  -7   0   80.81    6.75
   7  -7   0   92.19    7.37
   7  -7   0   81.78    6.88
  -7  -5   0   59.26    6.61
  -7  -5   0   70.63    5.62
   7  -5   0   62.75    5.54
   7  -5   0   75.55    6.25
  -7  -5   0   54.41    6.13
   7  -3   0  390.61   24.36
  -7  -3   0  351.16   25.12
  -7  -3   0  420.60   24.63
   7  -3   0  363.03   23.71
   7  -1   0  104.48    7.97
   7  -1   0  100.19    8.22
  -7  -1   0  107.42    6.98
  -7  -1   0  122.12    9.44
  -7  -1   0  102.94    9.06
   7   1   0  108.56    8.05
  -7   1   0   83.82    8.31
  -7   1   0  111.22    7.25
   7   1   0  102.43    8.19
  -7   3   0  362.56   25.11
   7   3   0  382.34   24.73
  -7   5   0   62.59    6.31
   7   5   0   64.46    4.48
   7   5   0   68.86    6.32
  -7   7   0   88.48    7.79
   7   7   0   92.17    7.86
   7   7   0   84.50    5.76
   7   7   0   92.55    7.76
  -7   9   0  207.17   15.39
  -7   9   0  253.84   14.89
   7   9   0  227.74   15.71
   7   9   0  220.29   13.52
   7  11   0   -0.83    2.16
  -7  11   0    0.56    1.81
  -7  11   0   -0.28    2.09
  -7  13   0  272.38   20.36
   7  13   0  302.21   20.99
   7  15   0  288.33   19.79
   7  15   0  310.78   16.70
  -7  17   0  172.18   14.04
   7  17   0  207.91   15.19
  -7  19   0   65.61    7.37
  -7  19   0   55.49    7.15
  -7  21   0    9.49    3.79
  -7  21   0    7.62    3.70
   7  21   0    9.64    4.10
  -8 -22   0   18.62    5.87
  -8 -20   0   50.58    8.00
  -8 -18   0  252.25   19.48
  -8 -16   0  180.83   15.10
  -8 -14   0  241.21   18.01
   8 -12   0  307.45   27.45
  -8 -12   0  318.50   28.94
   8 -10   0  344.65   25.80
  -8 -10   0  393.34   27.80
  -8 -10   0  355.94   27.41
  -8  -8   0    5.99    2.75
   8  -8   0    4.96    1.91
   8  -8   0   10.54    2.36
  -8  -8   0    6.18    2.72
   8  -6   0  100.76    8.18
  -8  -6   0  113.97    9.56
  -8  -6   0  104.28    9.79
  -8  -6   0  109.13    7.93
  -8  -4   0  821.13   45.04
   8  -4   0  745.05   44.92
   8  -4   0  646.05   44.12
  -8  -4   0  685.11   46.19
  -8  -2   0   35.62    3.10
   8  -2   0   31.16    3.82
  -8  -2   0   33.30    4.88
   8  -2   0   27.46    3.92
  -8  -2   0   35.29    4.63
   8   0   0   62.08    6.06
  -8   0   0   64.80    6.84
   8   0   0   68.63    6.14
  -8   0   0   66.18    4.95
   8   2   0   31.14    4.08
  -8   2   0   33.97    3.59
   8   2   0   32.24    4.14
  -8   2   0   28.54    4.47
   8   4   0  751.41   46.41
  -8   4   0  695.75   46.89
   8   6   0  113.12    7.16
  -8   6   0  103.32    9.45
   8   8   0    5.03    2.51
   8   8   0    2.94    2.78
  -8   8   0    4.95    2.40
   8   8   0    4.64    1.20
  -8  10   0  342.68   23.83
   8  10   0  415.66   24.39
   8  10   0  389.98   21.43
   8  12   0  368.22   23.23
   8  12   0  367.97   20.55
  -8  12   0  330.88   22.89
   8  14   0  281.12   18.39
  -8  14   0  230.99   17.58
   8  16   0  228.49   16.17
  -8  16   0  180.35   14.97
   8  18   0  347.54   23.31
  -8  18   0  314.59   22.35
  -8  20   0   53.69    7.50
   8  20   0   73.24    8.77
  -9 -21   0   32.37    6.95
  -9 -19   0   49.08    7.85
  -9 -17   0    1.89    3.53
  -9 -15   0   40.31    6.46
  -9 -13   0  161.54   13.69
  -9 -11   0   81.85    8.30
   9 -11   0   59.86    6.27
  -9 -11   0   74.26    8.06
  -9  -9   0   93.90    9.88
  -9  -9   0   96.45    9.78
   9  -9   0   87.04    8.33
  -9  -7   0  247.45   18.91
  -9  -7   0  254.55   16.21
  -9  -7   0  250.13   18.34
   9  -7   0  217.34   16.51
   9  -5   0  184.20   14.41
  -9  -5   0  172.35   16.06
  -9  -3   0  170.95   13.97
   9  -3   0  155.21   11.77
  -9  -1   0   15.72    3.79
   9  -1   0   19.01    3.21
  -9  -1   0   27.84    2.72
  -9  -1   0   29.30    4.69
  -9   1   0   21.60    2.67
   9   1   0   15.83    3.24
  -9   1   0   23.20    4.36
  -9   3   0  188.33   15.66
  -9   3   0  216.27   14.08
   9   3   0  222.18   15.32
  -9   5   0  206.04   16.49
   9   5   0  267.17   16.95
  -9   7   0  238.27   17.09
   9   9   0  100.44    6.46
  -9   9   0   95.59    9.19
   9   9   0  103.65    9.22
   9  11   0   64.32    4.84
   9  11   0   73.29    7.49
  -9  11   0   69.94    7.55
   9  13   0  219.52   15.38
   9  13   0  200.83   12.19
  -9  13   0  181.11   14.80
   9  15   0   53.16    7.01
  -9  15   0   46.90    6.43
   9  15   0   42.79    4.41
  -9  17   0    2.07    3.18
   9  17   0    0.42    3.43
   9  19   0   63.61    8.39
  -9  19   0   54.00    7.66
 -10 -20   0    0.52    4.03
 -10 -18   0   16.29    5.29
 -10 -16   0    6.55    4.15
 -10 -14   0   14.56    4.56
 -10 -12   0   62.18    7.72
  10 -12   0   48.71    5.73
 -10 -12   0   61.28    7.57
 -10 -10   0  372.64   24.19
  10 -10   0  342.38   21.94
 -10 -10   0  380.76   24.76
 -10  -8   0  221.00   16.78
 -10  -8   0  250.04   13.76
 -10  -6   0  436.45   28.83
  10  -6   0  395.87   25.81
  10  -4   0  136.52   11.15
 -10  -4   0  152.89   13.54
  10  -2   0  158.50   12.54
 -10  -2   0  188.60   15.21
  10  -2   0  184.71   12.93
 -10   0   0  322.43   24.25
  10   0   0  350.45   22.69
 -10   0   0  372.56   21.05
  10   2   0  207.74   15.25
 -10   2   0  232.12   13.94
 -10   4   0  215.56   13.28
 -10   4   0  167.17   14.55
 -10   6   0  430.62   27.82
  10   8   0  260.93   17.30
 -10   8   0  214.08   17.04
  10  10   0  415.26   22.80
  10  10   0  451.35   26.82
 -10  10   0  383.73   26.59
 -10  12   0   70.56    8.16
  10  12   0   73.61    7.95
  10  14   0   15.38    4.77
 -10  14   0   12.33    4.37
 -10  16   0    5.16    3.65
  10  16   0    6.30    4.12
  10  18   0   19.29    5.57
 -10  18   0   13.11    4.81
 -11 -17   0  260.71   20.18
 -11 -15   0  232.74   18.40
 -11 -13   0   26.43    5.65
  11 -13   0   17.29    3.88
 -11 -13   0   28.62    5.73
  11 -11   0  139.39   11.14
 -11 -11   0  155.78   13.18
 -11 -11   0  160.33   13.81
 -11  -9   0    4.99    3.54
  11  -9   0    3.88    2.41
 -11  -7   0  209.73   16.72
 -11  -7   0  239.12   13.76
 -11  -5   0  243.73   18.82
  11  -5   0  193.62   15.31
 -11  -3   0  234.49   18.11
  11  -3   0  182.09   14.69
 -11  -1   0  331.22   17.04
 -11  -1   0  292.58   21.30
 -11   1   0  260.57   20.03
 -11   1   0  282.03   16.22
 -11   3   0  272.25   15.91
 -11   3   0  220.98   18.54
 -11   5   0  306.30   17.34
 -11   5   0  205.72   18.35
 -11   7   0  234.22   17.97
  11   9   0    2.55    3.16
 -11   9   0    3.07    3.47
  11  11   0  163.11   13.20
 -11  11   0  147.09   13.39
 -11  13   0   24.46    5.50
  11  13   0   27.39    5.51
  11  15   0  285.39   19.84
 -11  15   0  242.68   19.33
  11  17   0  335.72   22.35
 -11  17   0  264.23   21.25
 -12 -16   0   11.66    4.79
 -12 -14   0    8.91    4.41
  12 -14   0    5.80    3.43
  12 -12   0  115.85   10.01
 -12 -12   0  133.00   12.77
  12 -10   0   11.89    3.38
 -12 -10   0   13.91    5.14
  12  -8   0   92.27    8.14
 -12  -8   0  100.98   11.01
 -12  -6   0   30.13    4.31
 -12  -6   0   22.75    5.92
  12  -6   0   20.32    3.92
 -12  -4   0   -0.51    3.64
  12  -4   0    0.52    2.12
 -12  -2   0    6.94    3.93
  12  -2   0    6.23    2.58
 -12   0   0  843.44   43.35
 -12   0   0  672.02   47.53
 -12   2   0    6.91    2.09
 -12   2   0   10.06    4.12
 -12   4   0    1.89    2.19
 -12   4   0    4.84    4.11
 -12   6   0   19.93    5.34
 -12   6   0   31.96    4.63
 -12   8   0  108.58   11.53
  12   8   0  126.43   11.21
  12  10   0   11.34    4.25
 -12  10   0   16.74    5.03
  12  12   0  147.45   12.77
 -12  12   0  144.00   13.48
  12  14   0    8.92    4.40
 -12  14   0    1.51    4.08
 -13 -15   0   73.21    9.50
  13 -13   0  148.75   11.93
 -13 -11   0   46.11    7.91
  13 -11   0   43.97    5.83
  13  -9   0  149.68   11.70
 -13  -9   0  166.51   14.91
  13  -7   0    0.82    2.65
 -13  -7   0   -0.55    4.21
  13  -5   0   63.37    6.80
 -13  -5   0   89.61   10.44
 -13  -3   0  496.83   29.37
  13  -3   0  348.87   23.76
 -13  -1   0   89.31   10.29
  13  -1   0   65.43    7.08
 -13   1   0   93.82   10.84
 -13   3   0  477.01   32.04
 -13   5   0   82.38   10.14
 -13   7   0    0.52    3.90
  13   9   0  180.45   14.70
 -13   9   0  173.16   15.52
 -13  11   0   49.54    8.31
  13  11   0   59.92    8.09
  14 -14   0    9.95    3.81
  14 -12   0  109.41    9.95
  14 -10   0  133.55   10.91
 -14  -8   0    4.06    4.98
  14  -8   0    2.02    2.88
  14  -6   0   19.41    4.24
 -14  -6   0   23.09    6.48
 -14  -4   0   82.05   10.48
  14  -4   0   64.15    7.18
 -14  -2   0   55.69    8.59
  14  -2   0   34.96    5.37
 -14   0   0   73.50    9.97
  14   0   0   64.66    7.16
 -14   2   0   52.57    8.56
 -14   4   0   71.70    9.82
 -14   6   0   22.45    6.24
  14   8   0    1.72    3.99
 -14   8   0    1.71    4.51
  15 -11   0   -0.33    3.41
  15  -9   0   26.33    5.06
  15  -7   0   23.22    4.71
  15  -5   0   12.16    3.91
  15  -3   0    5.26    3.40
  15  -1   0   12.02    4.03
  15   1   0   11.68    3.89
  16  -6   0   95.46    9.19
  16  -4   0   75.64    8.05
  16  -2   0   93.96    9.10
  16   0   0  190.92   14.57
   0 -24  -1  510.91   34.89
   0 -24   1  523.76   34.04
   0 -22   1  134.00   12.26
   0 -22  -1  115.02   12.53
   0 -20  -1  522.15   34.20
   0 -18  -1   34.97    6.17
   0 -18  -1   52.06    5.64
   0 -16  -1   15.52    4.20
   0 -16  -1   29.07    4.21
   0 -14   1  574.12   33.19
   0 -14  -1  581.29   33.26
   0 -12   1   49.91    4.62
   0 -12  -1   46.80    4.51
   0 -12  -1   47.24    5.78
   0 -10  -1  353.56   22.28
   0 -10   1  348.23   20.36
   0 -10  -1  361.31   20.42
   0  -8  -1  695.99   37.80
   0  -8   1  652.36   37.71
   0  -6  -1  572.53   33.10
   0  -6   1  610.22   33.15
   0  -4   1   23.19    2.30
   0  -4  -1   22.15    1.84
   0  -4  -1   27.54    2.79
   0  -2  -1   16.46    1.26
   0  -2  -1   19.16    1.60
   0  -2  -1   19.04    1.89
   0  -2   1   17.39    1.79
   0  -2   1   15.73    1.26
   0   0  -1  216.58   11.35
   0   0  -1  192.74   11.91
   0   2   1   18.24    1.80
   0   2   1   17.18    1.24
   0   2  -1   17.44    1.28
   0   2  -1   16.77    1.91
   0   2  -1   17.12    1.70
   0   2   1   18.47    1.61
   0   4   1   21.73    1.89
   0   4   1   26.33    2.30
   0   4  -1   20.98    1.92
   0   4  -1   28.32    2.45
   0   6  -1  680.44   36.58
   0   6   1  758.07   36.98
   0   6   1  716.31   37.59
   0   6   1  647.55   36.36
   0   8  -1  775.05   30.04
   0   8   1  368.38   29.26
   0   8  -1  353.62   29.37
   0   8   1  751.64   29.83
   0  10  -1  420.36   20.70
   0  10   1  412.03   20.50
   0  12   1   58.42    5.21
   0  12  -1   62.08    5.42
   0  14   1  774.09   42.28
   0  14  -1  740.62   42.35
   0  16   1   35.28    4.55
   0  16  -1   38.01    4.80
   0  18  -1   35.90    5.18
   0  18   1   53.89    5.69
   0  20   1  619.13   37.44
   0  20  -1  672.04   38.12
   0  22  -1  144.69   12.40
   0  22   1  159.64   12.41
   0  24  -1  640.28   37.50
   0  24   1  581.93   36.59
  -1 -25  -1   38.05    7.61
   1 -25  -1   36.39    7.91
  -1 -25   1   32.73    6.82
   1 -25   1   44.61    7.49
   1 -23  -1   -1.73    4.00
  -1 -23   1    0.49    3.65
  -1 -23  -1   -1.09    3.71
  -1 -21   1   30.13    5.74
   1 -21  -1   23.99    6.00
  -1 -21  -1   15.88    5.24
  -1 -19  -1   15.56    5.33
  -1 -19   1    9.02    3.46
  -1 -19  -1    6.22    3.39
   1 -19  -1    4.86    3.33
   1 -17  -1  441.86   31.85
  -1 -17  -1  391.62   31.14
  -1 -15  -1   92.01    9.23
   1 -15  -1   74.27    8.32
  -1 -15  -1   66.65    7.86
   1 -13  -1   71.95    6.26
   1 -13  -1   72.18    7.80
  -1 -13  -1   77.62    6.41
  -1 -13  -1   74.15    7.81
   1 -13   1   79.87    6.38
  -1 -13   1   77.42    6.40
  -1 -11  -1    6.43    2.29
   1 -11   1    3.44    1.38
  -1 -11  -1    4.56    1.52
   1 -11  -1    1.47    1.63
  -1 -11  -1    8.84    2.64
  -1 -11   1    4.29    1.49
   1 -11  -1    4.23    1.46
  -1  -9   1  532.66   30.52
   1  -9  -1  488.02   31.89
   1  -9   1  540.93   30.45
  -1  -9  -1  572.54   30.67
   1  -9  -1  560.44   30.47
   1  -7  -1    1.73    0.78
  -1  -7  -1    1.35    0.78
   1  -7   1    1.54    0.79
  -1  -7   1    0.70    0.72
   1  -7  -1    1.54    1.22
   1  -5   1  123.56    7.84
   1  -5  -1  124.77    7.81
  -1  -5  -1  145.64    8.07
   1  -5  -1  137.96    8.94
  -1  -5   1  127.76    7.94
   1  -3   1  577.77   30.31
  -1  -3   1  573.43   30.41
   1  -3  -1  482.46   30.75
  -1  -3  -1  645.24   30.57
  -1  -3   1  562.98   30.51
  -1  -3  -1  576.63   31.65
   1  -3  -1  593.38   30.30
  -1  -1  -1   50.95    3.92
   1  -1   1   49.68    2.95
  -1  -1   1   49.48    3.61
   1  -1  -1   52.46    3.50
   1  -1  -1   51.62    2.96
  -1  -1   1   48.51    3.05
   1  -1   1   47.13    3.85
  -1  -1  -1   51.92    3.10
   1  -1  -1   51.08    3.09
  -1   1   1   57.50    3.17
   1   1   1   53.05    3.82
   1   1   1   49.37    3.18
   1   1  -1   56.78    3.18
   1   1   1   56.62    3.21
   1   1   1   42.89    3.76
   1   1   1   50.02    3.72
  -1   1  -1   48.81    3.86
   1   1  -1   46.05    3.11
   1   1   1   51.41    3.08
  -1   1   1   49.13    3.09
   1   1  -1   46.85    3.50
  -1   1  -1   48.14    3.75
  -1   1  -1   51.93    3.14
  -1   1   1   44.42    3.75
  -1   1   1   53.90    3.64
  -1   3   1  613.78   30.73
  -1   3  -1  369.47   30.67
   1   3   1  594.16   30.28
  -1   3  -1  445.37   30.98
   1   3  -1  607.55   30.24
  -1   3  -1  604.64   30.13
   1   3   1  586.02   31.24
  -1   3   1  618.20   30.10
   1   3  -1  488.95   30.58
   1   3   1  593.02   30.24
   1   3  -1  639.98   30.42
   1   5  -1  141.37    7.96
  -1   5  -1   78.45    8.54
  -1   5  -1  152.37    8.31
   1   5   1  191.22   10.46
  -1   5   1  142.96    8.17
   1   5  -1  131.41    8.36
   1   5   1  127.12    8.21
  -1   5   1  146.90    8.57
   1   5   1  181.11    9.69
   1   7  -1    1.29    0.73
  -1   7  -1   -0.65    1.35
   1   7  -1    2.54    0.98
  -1   7   1    1.67    1.00
   1   7   1    1.71    0.89
  -1   7   1    2.13    0.80
  -1   7  -1    2.92    0.92
   1   7   1    0.94    1.09
  -1   7   1    2.14    1.10
   1   7   1    2.46    1.48
  -1   9   1  343.99   28.82
  -1   9   1  694.05   29.90
   1   9   1  587.61   29.79
  -1   9  -1  658.64   29.91
  -1   9   1  693.75   30.43
   1   9  -1  544.43   29.82
   1   9  -1  647.44   30.19
   1   9   1  335.54   29.67
   1  11  -1    3.74    1.52
  -1  11   1    4.28    1.39
   1  11   1    3.66    1.47
   1  11   1    6.20    1.94
  -1  11  -1    7.65    1.74
  -1  13   1   84.27    6.81
   1  13   1   96.72    7.34
  -1  13  -1   80.71    6.87
   1  13  -1   90.45    7.47
  -1  13   1   87.44    7.04
   1  15   1   94.32    7.73
  -1  15   1   90.33    7.47
  -1  15  -1   89.03    7.58
   1  15  -1   93.63    7.90
   1  17   1  545.70   31.04
  -1  17  -1  520.93   30.91
  -1  17   1  488.34   30.50
   1  17  -1  553.87   31.39
  -1  19   1   10.99    3.18
  -1  19  -1    9.03    3.18
   1  19   1    7.41    3.19
   1  19  -1    9.83    3.29
   1  21  -1   33.37    5.41
  -1  21   1   29.74    4.85
  -1  21  -1   25.67    4.76
   1  21   1   28.88    4.99
   1  23  -1    7.20    4.09
   1  23   1   -2.83    3.49
  -1  23   1    0.35    3.16
  -1  23  -1    2.95    3.52
   1  25  -1   50.20    7.44
   1  25   1   57.47    7.34
  -1  25   1   47.66    7.02
  -1  25  -1   48.77    7.28
  -2 -24  -1    7.18    4.49
  -2 -24   1    7.58    4.57
   2 -24  -1    5.98    4.42
  -2 -22   1    5.63    4.07
   2 -22  -1    7.25    4.29
  -2 -22  -1   -1.11    3.51
  -2 -20   1    0.43    2.85
   2 -20  -1    2.59    3.53
  -2 -20  -1    1.01    3.12
  -2 -20  -1   -0.52    5.90
  -2 -18   1    8.04    3.29
  -2 -18  -1    9.23    3.77
   2 -18  -1   12.37    4.09
  -2 -18  -1   19.17    6.17
  -2 -16  -1   43.22    7.30
  -2 -16   1   32.49    4.97
  -2 -16  -1   28.13    5.26
   2 -16  -1   33.81    5.45
   2 -14  -1  240.50   14.78
  -2 -14  -1  238.96   18.52
   2 -14   1  235.22   14.70
   2 -14  -1  236.11   16.73
  -2 -14  -1  215.76   14.57
  -2 -14   1  204.79   14.33
  -2 -14   1  253.32   16.17
   2 -12   1   77.43    6.09
  -2 -12   1   70.86    5.98
  -2 -12  -1   75.58    6.13
  -2 -12  -1   77.64    9.22
   2 -12  -1   75.87    6.08
   2 -10  -1  300.94   17.11
  -2 -10  -1  331.11   21.88
  -2 -10  -1  286.42   17.12
   2 -10   1  291.62   17.09
  -2 -10   1  270.53   16.95
  -2  -8  -1   60.90    4.70
  -2  -8   1   55.58    4.52
   2  -8   1   54.90    4.43
  -2  -8  -1   61.43    6.60
   2  -8  -1   58.93    4.46
   2  -6  -1 1116.19   58.80
  -2  -6  -1 1163.02   59.15
   2  -6   1 1107.32   58.84
  -2  -6   1 1087.52   58.97
  -2  -4   1 1297.96   66.65
   2  -4  -1 1278.27   67.03
   2  -4   1 1266.70   67.06
   2  -2  -1   10.68    1.21
   2  -2   1   10.91    1.19
   2  -2  -1   12.04    1.18
  -2  -2   1   10.87    1.32
  -2  -2   1    9.30    1.30
   2  -2   1   12.47    1.31
   2  -2  -1   12.37    1.24
  -2  -2  -1   10.89    1.38
  -2  -2   1   11.71    1.14
   2   0  -1  642.30   32.50
   2   0   1  649.36   33.32
  -2   0   1  641.15   32.69
  -2   0  -1  628.02   32.67
  -2   0  -1  582.49   33.14
   2   0   1  639.58   33.62
   2   0   1  691.76   32.63
   2   2  -1   11.19    1.18
  -2   2  -1   10.18    1.88
  -2   2   1   11.64    1.57
  -2   2  -1    9.73    1.26
   2   2   1   10.78    1.39
  -2   2   1   10.86    1.28
   2   2  -1    9.38    1.26
   2   2   1    9.30    1.55
  -2   2  -1    6.77    1.49
   2   2   1    8.98    1.46
   2   2   1    9.66    1.46
  -2   4   1 1254.45   65.22
  -2   4  -1 1283.49   65.33
  -2   4  -1 1315.69   65.15
  -2   4   1 1285.80   65.12
  -2   4   1 1356.67   65.68
  -2   4  -1 1349.91   64.43
   2   4   1 1415.12   66.78
   2   4  -1 1357.68   65.49
   2   4  -1 1089.05   65.19
   2   4   1 1294.10   65.25
   2   4  -1 1244.50   65.35
   2   4   1 1008.66   66.51
   2   4   1 1311.44   65.49
   2   6   1 1200.25   57.70
   2   6  -1 1156.77   57.52
   2   6   1 1173.12   57.59
   2   6   1 1263.89   59.01
  -2   6  -1 1189.56   57.38
  -2   6   1 1254.89   57.89
   2   6  -1 1260.10   57.96
  -2   6   1 1202.57   57.31
   2   8   1   63.98    4.95
   2   8  -1   69.41    5.38
   2   8   1  101.93    7.18
  -2   8  -1   65.89    4.93
  -2   8   1   62.68    4.82
   2   8  -1   64.03    4.95
  -2   8   1   51.80    4.18
   2   8  -1   80.77    4.30
   2   8   1   39.70    5.19
   2   8   1   69.32    5.23
  -2   8   1   62.91    5.07
   2  10  -1  335.19   18.28
  -2  10  -1  322.36   18.98
  -2  10   1  324.68   18.89
   2  10  -1  311.56   18.85
   2  10  -1  339.02   19.52
   2  10   1  315.72   18.86
   2  10   1  319.41   19.21
  -2  10   1  343.89   19.24
   2  12   1   89.47    7.36
   2  12  -1   93.30    7.61
  -2  12  -1   92.61    7.27
  -2  12   1   91.51    7.11
  -2  12   1  105.52    7.57
   2  14   1  277.73   17.46
  -2  14  -1  266.55   17.18
  -2  14   1  267.61   17.04
   2  14  -1  289.49   17.81
  -2  16  -1   34.83    4.58
   2  16  -1   34.57    4.85
  -2  16   1   39.80    4.74
   2  16   1   41.71    5.08
  -2  18  -1   11.91    3.33
   2  18   1   12.63    3.45
  -2  18   1   10.42    3.10
   2  18  -1    9.25    3.19
   2  20   1    1.87    2.70
  -2  20  -1    0.31    2.67
   2  20  -1    2.01    2.99
  -2  20   1    1.16    2.55
   2  22  -1    4.60    3.57
   2  22   1    8.92    3.97
  -2  22  -1    6.90    3.33
  -2  22   1    3.87    2.98
   2  24   1    9.45    4.32
  -2  24   1    8.84    3.98
   2  24  -1    2.54    3.64
  -2  24  -1    4.13    3.50
   3 -25  -1   53.75    9.29
  -3 -23   1   63.31    8.48
   3 -23  -1   70.08    9.95
  -3 -21   1  804.36   49.24
   3 -21  -1  867.94   51.19
  -3 -19   1   44.35    6.70
   3 -19  -1   52.51    7.62
  -3 -17  -1   92.66   10.95
  -3 -17   1   40.15    6.07
  -3 -15  -1  418.67   35.08
  -3 -15   1  647.60   33.74
   3 -13   1  856.92   45.10
   3 -13  -1  861.84   45.09
  -3 -13   1  814.93   46.36
  -3 -13  -1  863.88   45.36
  -3 -13   1  831.95   45.06
  -3 -11  -1   47.48    4.56
   3 -11   1   49.08    4.34
  -3 -11   1   43.56    4.33
  -3 -11   1   47.37    5.12
   3 -11  -1   49.82    4.38
   3  -9   1  621.13   32.83
  -3  -9   1  546.78   33.46
  -3  -9   1  592.51   32.96
  -3  -9  -1  635.17   33.25
   3  -9  -1  645.13   32.85
   3  -7  -1  960.76   48.64
  -3  -7  -1  746.72   51.78
   3  -7   1  894.43   47.99
  -3  -7   1  893.49   48.69
   3  -7  -1  912.58   47.99
   3  -5  -1   33.35    2.84
  -3  -5   1   31.26    3.13
  -3  -5  -1   34.29    3.23
   3  -5   1   34.74    2.91
  -3  -5   1   34.87    3.12
   3  -5  -1   31.30    3.11
  -3  -3   1   40.34    3.80
  -3  -3   1   52.42    3.57
   3  -3  -1   53.69    3.75
   3  -3   1   47.13    3.58
   3  -3  -1   51.40    3.59
   3  -3   1   55.42    3.82
  -3  -3  -1   39.53    3.75
  -3  -1   1 1890.63   93.37
   3  -1   1 1803.55   94.72
  -3  -1  -1 1694.36   94.30
   3  -1  -1 1883.48   93.97
   3  -1   1 1954.13   94.05
  -3  -1  -1 1842.06   94.46
  -3  -1   1 1781.17   94.32
  -3   1  -1 1722.39   94.50
   3   1  -1 1839.09   93.65
  -3   1   1 1831.40   94.60
   3   1   1 2077.20   95.14
   3   1   1 1832.47   94.68
   3   1  -1 1974.96   94.48
  -3   1  -1 1359.07   95.00
   3   1   1 1984.67   94.64
   3   1   1 1552.15   94.80
   3   3   1   57.17    5.24
   3   3  -1   46.08    3.07
   3   3  -1   50.71    3.98
   3   3   1   50.64    4.02
  -3   3   1   48.03    3.78
  -3   3  -1   35.20    4.39
   3   3   1   43.46    3.94
  -3   3   1   57.03    4.19
   3   3   1   51.96    4.51
   3   3   1   47.93    3.99
  -3   3  -1   44.61    3.74
   3   5   1   33.53    3.11
   3   5   1   33.23    3.79
  -3   5  -1   33.09    3.12
   3   5   1   36.01    3.57
   3   5   1   28.93    3.83
   3   5  -1   35.50    3.30
  -3   5   1   36.47    3.30
  -3   5  -1   35.06    2.37
   3   5   1   31.36    3.15
   3   5  -1   32.06    3.13
  -3   5   1   32.85    3.06
   3   5   1   33.89    3.12
  -3   5  -1   23.90    3.82
  -3   7   1  994.56   51.48
  -3   7   1  968.99   51.69
   3   7   1 1092.37   53.50
  -3   7  -1  968.28   51.51
  -3   7  -1 1010.55   50.76
   3   7   1  987.46   51.92
   3   7  -1  957.56   51.74
  -3   7  -1  971.68   51.75
  -3   7   1 1050.68   52.04
   3   7  -1 1031.94   52.27
   3   7   1 1015.49   51.96
   3   9  -1  773.60   38.20
   3   9  -1  682.79   37.27
   3   9   1  967.27   40.70
  -3   9   1  700.69   37.47
   3   9   1  457.92   37.82
  -3   9  -1  692.25   36.39
  -3   9   1  641.44   36.90
  -3   9  -1  660.15   37.04
   3   9   1  660.49   37.23
   3   9   1  740.71   37.85
   3  11   1   59.21    5.45
   3  11  -1   59.43    3.60
  -3  11   1   50.23    4.78
  -3  11  -1   49.41    4.84
  -3  11  -1   53.96    4.43
   3  11   1   58.51    6.19
   3  11  -1   63.20    5.73
   3  11  -1   54.69    5.06
   3  11   1   55.22    5.01
  -3  13  -1  983.06   56.11
   3  13  -1 1097.85   57.27
  -3  13   1  989.39   55.97
   3  13   1 1045.41   56.18
   3  13  -1 1152.66   54.83
   3  13   1 1069.74   56.85
   3  13  -1  954.41   55.98
  -3  13  -1  956.90   55.24
   3  15   1  725.08   42.23
  -3  15  -1  735.98   41.70
  -3  15   1  712.39   41.43
   3  15  -1  819.41   43.01
  -3  15  -1  747.39   40.85
   3  17  -1   59.38    6.56
   3  17   1   57.56    6.23
  -3  17   1   48.53    5.54
  -3  17  -1   55.91    5.86
   3  19  -1   59.06    7.09
   3  19   1   65.35    6.95
  -3  19  -1   52.95    6.23
  -3  19   1   55.00    6.23
   3  21  -1 1047.39   56.39
  -3  21  -1  912.68   54.77
  -3  21   1  912.16   54.53
   3  21   1 1063.42   55.93
  -3  23   1   65.16    7.76
   3  23  -1   91.21    9.45
   3  23   1   82.33    8.80
  -3  23  -1   83.76    8.72
   4 -24  -1   55.73    8.97
  -4 -24   1   44.84    7.45
   4 -22  -1   30.54    6.47
  -4 -22   1   24.36    5.46
  -4 -20   1   -0.81    2.72
  -4 -18   1  186.89   14.59
  -4 -16   1   43.09    5.64
  -4 -16  -1   33.26    8.31
  -4 -14   1    2.64    2.13
  -4 -14  -1   -1.42    4.58
  -4 -12   1   15.32    3.05
   4 -12  -1   21.19    2.91
   4 -12   1   16.52    2.60
  -4 -12  -1   17.15    2.91
  -4 -12   1   19.94    2.91
   4 -10  -1   38.22    3.68
  -4 -10   1   36.35    4.24
   4 -10   1   38.70    3.70
   4  -8   1   71.44    5.27
  -4  -8   1   55.79    5.32
   4  -8  -1   70.74    5.23
   4  -8  -1   70.28    5.64
  -4  -6   1  710.15   37.81
   4  -6  -1  707.17   37.30
   4  -6   1  705.95   37.30
  -4  -6  -1  680.64   38.03
  -4  -6   1  702.29   38.08
   4  -6  -1  728.92   37.82
   4  -4   1   57.12    4.30
   4  -4  -1   59.03    4.30
   4  -4  -1   61.04    4.51
   4  -4  -1   58.55    4.70
   4  -4   1   65.10    4.60
   4  -4   1   52.99    3.61
  -4  -4  -1   53.85    5.45
  -4  -4  -1   45.98    4.64
  -4  -4   1   55.71    4.86
  -4  -4   1   56.89    4.41
  -4  -2  -1   12.31    1.98
   4  -2  -1    9.77    1.80
   4  -2   1   11.67    1.13
  -4  -2  -1   10.67    1.81
   4  -2  -1    8.98    1.58
  -4  -2   1    8.33    1.77
  -4  -2   1    9.94    1.29
   4  -2   1   10.94    1.73
  -4  -2  -1    7.73    1.65
  -4   0  -1   63.62    5.50
  -4   0   1   69.54    5.67
   4   0   1   72.92    6.05
   4   0   1   73.38    5.62
  -4   0  -1   73.79    5.49
   4   0  -1   71.74    5.33
   4   0   1   70.73    5.39
   4   0  -1   83.32    4.87
   4   2   1   11.96    2.04
   4   2   1   10.22    1.91
   4   2  -1   13.15    1.68
  -4   2  -1   12.01    1.91
   4   2   1    9.92    1.73
   4   2   1   12.37    1.99
   4   2  -1    7.42    1.61
  -4   2   1   10.87    1.88
  -4   2  -1   12.84    2.13
   4   2   1   11.44    2.36
  -4   2  -1    8.24    2.14
  -4   4   1   72.77    5.14
   4   4   1   57.96    4.84
   4   4   1   62.71    5.50
  -4   4  -1   39.35    5.47
   4   4   1   59.30    4.71
   4   4   1   66.75    5.06
  -4   4   1   58.32    4.71
   4   4  -1   57.86    4.78
   4   4  -1   50.19    3.36
   4   4   1   51.10    5.43
  -4   4  -1   58.06    4.73
   4   4  -1   71.12    5.16
   4   6   1  770.11   41.13
  -4   6  -1  747.30   40.95
   4   6   1  764.17   40.61
   4   6   1  777.35   41.12
  -4   6  -1  442.50   42.03
   4   6  -1  773.11   41.16
   4   6   1  731.29   40.74
   4   6  -1  741.62   40.99
   4   6   1  479.68   41.19
  -4   6   1  860.57   41.20
  -4   6   1  743.62   40.85
  -4   6  -1  842.12   39.71
   4   6   1  962.64   42.91
   4   8   1   97.92    7.63
  -4   8  -1   72.12    5.80
  -4   8   1   75.17    5.81
   4   8   1   68.91    5.54
   4   8  -1   75.31    6.30
  -4   8   1   76.31    6.02
  -4   8  -1   72.21    6.00
  -4   8  -1   77.58    5.08
   4   8   1   74.76    6.06
   4   8   1   77.89    6.17
   4   8  -1   80.75    6.17
   4   8   1   58.98    6.65
   4  10  -1   39.84    4.59
   4  10   1   52.30    5.79
   4  10   1   44.50    4.59
  -4  10  -1   41.10    4.10
  -4  10   1   41.39    4.08
  -4  10  -1   46.21    3.60
   4  10  -1   35.79    4.07
   4  10   1   39.58    4.22
  -4  10   1   39.01    4.16
  -4  10  -1   38.56    4.27
   4  10   1   36.29    5.08
   4  10   1   41.33    3.88
  -4  12   1   13.96    2.70
  -4  12  -1   16.24    2.75
   4  12   1   18.16    2.89
   4  12   1   25.22    4.71
   4  12   1   13.86    2.84
   4  12  -1   20.64    3.57
  -4  12  -1   17.59    2.36
   4  12   1   25.75    4.19
   4  12  -1   20.24    3.00
   4  14  -1   -1.42    2.00
  -4  14  -1    0.42    1.74
  -4  14  -1    1.50    1.60
   4  14   1    1.05    2.09
  -4  14   1    0.41    1.45
  -4  16  -1   40.54    5.32
  -4  16  -1   52.24    5.02
   4  16   1   59.65    6.46
  -4  16   1   42.21    5.40
   4  16  -1   57.75    6.59
   4  16  -1   65.19    3.87
   4  18   1  232.96   16.44
   4  18  -1  259.61   17.22
  -4  18  -1  228.03   15.87
  -4  18   1  217.26   15.51
  -4  20   1   -0.29    2.48
   4  20  -1    5.30    3.68
   4  20   1    7.70    3.49
  -4  20  -1    0.92    2.49
   4  22  -1   37.64    6.38
  -4  22   1   26.95    4.98
  -4  22  -1   25.30    4.94
   4  22   1   37.13    6.30
   4  24  -1   53.79    7.87
   4  24   1   58.72    7.73
  -4  24  -1   53.28    7.16
  -4  24   1   50.51    6.79
  -5 -23   1   25.68    5.77
  -5 -23  -1   32.49    7.34
   5 -23  -1   42.75    7.61
  -5 -21  -1    3.53    4.00
  -5 -21   1    1.69    3.07
  -5 -19  -1   10.03    4.53
  -5 -19   1    8.85    3.70
  -5 -17  -1  599.98   35.81
  -5 -17   1  496.95   32.33
  -5 -15  -1   16.49    4.48
  -5 -15   1   12.82    3.36
  -5 -13   1   91.84    7.36
  -5 -13  -1   92.47    9.29
   5 -11   1  241.78   14.31
   5 -11  -1  257.19   14.41
   5 -11  -1  249.33   14.95
  -5 -11   1  245.60   15.37
  -5 -11  -1  258.92   17.59
  -5  -9   1  840.56   45.27
  -5  -9  -1  831.12   47.47
   5  -9   1  881.28   44.55
   5  -9  -1  869.37   44.50
   5  -9  -1  837.19   44.96
  -5  -7   1  332.81   20.59
   5  -7   1  329.35   19.66
  -5  -7  -1  278.73   26.34
   5  -7  -1  348.50   19.68
  -5  -7  -1  324.39   20.50
  -5  -7  -1  381.83   22.45
   5  -7  -1  342.02   20.13
  -5  -7   1  363.92   20.50
   5  -5  -1   67.38    5.73
   5  -5  -1   81.15    5.83
   5  -5   1   74.22    4.91
  -5  -5   1   77.89    5.85
   5  -5   1   82.91    5.90
   5  -5   1   72.41    5.50
  -5  -5  -1   81.76    7.22
  -5  -5  -1   60.37    5.92
  -5  -5   1   75.48    6.36
   5  -5  -1   71.83    5.44
   5  -3   1 1358.72   67.09
  -5  -3  -1 1166.86   67.57
  -5  -3   1 1255.41   67.79
   5  -3   1 1296.02   67.62
   5  -3   1 1265.17   65.68
   5  -3  -1 1334.73   66.94
   5  -3  -1 1223.25   67.07
  -5  -3  -1 1241.87   67.17
  -5  -3   1 1188.38   66.28
   5  -1  -1   53.38    3.99
   5  -1  -1   48.57    4.43
  -5  -1   1   50.34    4.95
  -5  -1  -1   47.35    4.85
   5  -1  -1   53.31    4.83
  -5  -1  -1   49.55    4.49
   5  -1   1   54.14    4.63
  -5  -1  -1   52.27    5.09
  -5  -1   1   55.90    3.21
  -5   1   1   53.85    5.00
  -5   1  -1   51.15    4.91
   5   1   1   49.18    4.52
  -5   1  -1   52.81    4.70
   5   1   1   53.33    4.76
   5   1   1   52.20    4.83
   5   1  -1   62.93    4.58
   5   1   1   54.02    5.18
   5   1  -1   51.85    4.66
   5   3   1 1213.41   67.97
   5   3   1 1466.68   69.55
  -5   3   1 1293.08   68.76
  -5   3  -1 1286.83   68.73
  -5   3  -1 1368.48   69.17
   5   3  -1 1427.51   68.42
   5   3   1 1255.00   68.75
   5   3   1 1329.87   68.72
   5   3  -1 1288.64   68.55
   5   5  -1  100.39    6.98
  -5   5  -1   59.52    7.30
   5   5  -1   77.25    6.09
   5   5   1   75.54    6.13
   5   5  -1   81.93    6.31
  -5   5  -1   74.78    6.07
   5   5   1   75.20    5.63
  -5   5   1   39.38    4.82
   5   5   1   80.82    6.12
  -5   5   1   80.50    6.15
   5   5   1   94.68    7.31
   5   5   1   67.83    6.72
   5   7   1  465.90   24.19
  -5   7   1  436.19   21.86
  -5   7   1  368.66   22.29
  -5   7  -1  420.97   21.12
   5   7   1  361.08   21.81
   5   7   1  369.82   22.05
   5   7   1  276.54   22.58
   5   7   1  368.38   22.17
   5   7   1  374.19   22.43
   5   7  -1  366.67   22.29
   5   7  -1  373.89   22.49
  -5   7  -1  367.55   22.33
   5   9   1 1128.25   52.35
   5   9   1  927.48   50.30
  -5   9  -1  870.76   50.07
  -5   9   1  854.80   49.92
   5   9   1  718.99   50.71
   5   9  -1  919.18   50.11
  -5   9  -1 1004.80   48.77
   5   9   1  885.22   49.18
   5   9   1  888.27   50.06
   5   9  -1  954.37   50.61
   5  11   1  272.69   17.63
   5  11   1  250.23   16.25
  -5  11   1  254.88   16.91
  -5  11  -1  292.39   16.16
  -5  11  -1  256.60   17.00
   5  11   1  363.13   20.35
  -5  11   1  284.73   17.18
   5  11   1  287.13   17.51
   5  11  -1  275.90   17.35
  -5  11   1  250.34   17.20
   5  11  -1  315.96   18.48
   5  11   1  300.88   18.96
  -5  11  -1  264.40   17.46
   5  13  -1  123.11    9.68
  -5  13  -1  111.28    8.54
  -5  13   1  100.41    8.56
  -5  13   1  102.33    8.30
  -5  13  -1  114.71    7.56
  -5  13  -1   98.88    8.67
   5  13   1  114.15    9.21
   5  13   1   95.33    7.48
  -5  15   1   16.25    3.32
   5  15   1   20.90    4.07
   5  15  -1   18.91    4.09
  -5  15  -1   16.32    3.47
   5  15   1   15.91    2.71
  -5  15  -1   18.61    3.52
  -5  15   1   18.28    3.37
  -5  15  -1   18.92    2.82
  -5  17  -1  619.82   36.57
  -5  17   1  612.74   36.41
  -5  17   1  574.79   36.66
   5  17  -1  746.19   38.74
  -5  17  -1  593.58   36.99
   5  17   1  698.09   38.00
  -5  19  -1   17.15    4.06
   5  19   1   11.75    3.94
   5  19  -1   16.61    4.37
  -5  19  -1   15.20    3.84
  -5  19   1   11.74    3.34
   5  21  -1    4.93    3.60
  -5  21  -1    2.97    2.83
  -5  21   1    5.98    3.21
   5  21   1    1.89    3.00
   5  23  -1   52.30    7.68
  -5  23   1   42.51    6.06
   5  23   1   46.60    7.02
  -5  23  -1   33.39    5.99
  -6 -22  -1   25.55    6.98
  -6 -22   1   17.95    5.15
  -6 -20   1  313.46   22.93
  -6 -20  -1  384.05   26.54
  -6 -18   1   59.80    7.28
  -6 -18  -1   67.78    9.21
  -6 -16   1   35.31    5.30
  -6 -16  -1   34.82    6.45
  -6 -14   1  152.31   12.38
  -6 -14  -1  180.22   14.79
  -6 -12  -1    5.16    3.14
  -6 -12   1    6.16    2.52
   6 -12  -1    6.31    2.40
  -6 -10   1  339.78   21.52
   6 -10  -1  361.79   20.55
   6 -10   1  345.01   20.52
   6 -10  -1  331.04   20.92
  -6 -10  -1  343.11   23.22
  -6 -10  -1  339.58   30.30
  -6  -8  -1  513.24   40.37
   6  -8  -1  498.15   29.83
   6  -8   1  519.70   29.49
  -6  -8  -1  519.06   30.78
  -6  -8   1  541.41   30.45
  -6  -8   1  522.04   30.85
  -6  -8  -1  541.31   32.49
   6  -8  -1  546.29   29.56
   6  -6  -1  161.67   10.80
   6  -6  -1  149.32   10.16
  -6  -6  -1  130.10   10.91
   6  -6   1  143.12    9.53
  -6  -6   1  180.52    9.10
  -6  -6  -1  161.13   12.32
   6  -6   1  173.16   11.11
  -6  -6   1  149.33   10.50
  -6  -6   1  151.23   11.33
   6  -6   1  156.27   10.26
  -6  -4   1  100.82    8.41
  -6  -4   1   97.19    7.24
   6  -4   1   98.62    6.59
  -6  -4  -1  104.65    7.75
  -6  -4  -1   99.01   11.91
  -6  -4  -1   95.60    8.20
   6  -4   1  109.88    7.74
   6  -4  -1  108.62    7.66
   6  -4  -1   96.59    7.66
  -6  -2  -1   79.36    7.21
  -6  -2   1   95.38    7.66
   6  -2  -1   74.42    6.65
   6  -2   1   84.11    5.83
   6  -2   1   95.88    6.98
   6  -2   1   97.35    7.74
  -6  -2  -1   95.14    6.88
   6  -2  -1   89.60    6.77
  -6  -2  -1   84.69    7.17
   6   0  -1  133.68    9.40
  -6   0  -1  134.76    9.22
  -6   0  -1  125.27    9.87
  -6   0  -1  126.90   10.45
   6   0   1  131.18   10.16
  -6   0   1  146.16   10.29
   6   0   1  138.18    9.53
   6   0  -1  151.82    9.00
   6   2  -1   94.45    7.02
   6   2   1   97.64    7.19
   6   2  -1  112.11    7.13
  -6   2   1   90.59    7.30
  -6   2  -1   75.70    6.94
   6   2   1  103.42    7.78
   6   2   1   85.71    6.45
  -6   2  -1   79.00    8.05
  -6   2  -1   95.82    7.04
   6   4  -1  127.82    8.42
   6   4  -1  103.77    8.02
   6   4   1  110.09    8.23
   6   4   1   99.84    7.34
  -6   4  -1  123.44    8.88
  -6   4   1  111.42    8.38
   6   4   1  116.37    8.41
  -6   4  -1  111.51    8.43
   6   4   1  100.00    8.72
  -6   6  -1  172.67   14.63
   6   6  -1  176.80   11.86
   6   6   1  175.62   11.42
   6   6  -1  155.16   11.26
   6   6  -1  205.46   12.69
   6   6   1  172.36   11.61
  -6   6  -1  155.62   11.43
  -6   6   1  199.82   11.99
   6   6   1  123.18   11.52
   6   6   1  154.27   10.56
   6   6   1  170.21   11.44
  -6   6   1  152.18   11.35
   6   8   1  530.21   34.93
   6   8   1  582.39   34.59
   6   8   1  637.26   35.02
   6   8  -1  776.23   37.51
  -6   8  -1  513.96   35.01
   6   8   1  619.52   35.53
  -6   8   1  620.42   35.07
  -6   8  -1  683.49   34.08
   6   8  -1  600.55   35.30
   6   8   1  506.01   35.91
  -6   8   1  544.56   35.15
   6   8  -1  611.57   35.67
  -6  10  -1  442.92   22.11
   6  10  -1  388.80   23.75
   6  10   1  380.91   22.50
  -6  10   1  410.08   23.18
  -6  10  -1  353.99   23.39
   6  10  -1  378.73   23.34
   6  10   1  391.95   23.43
  -6  10   1  340.70   23.15
   6  10   1  380.30   24.50
   6  10   1  382.06   22.95
   6  10   1  371.22   23.29
   6  12   1    5.52    1.94
   6  12   1    6.38    2.56
   6  12  -1    6.41    2.68
  -6  12   1    5.67    2.42
  -6  12  -1    6.09    2.46
  -6  12  -1    7.59    2.00
  -6  14  -1  195.73   13.54
  -6  14  -1  202.77   12.31
  -6  14  -1  162.88   13.45
   6  14   1  207.52   14.33
  -6  14   1  180.51   13.61
   6  14   1  182.40   12.16
   6  14  -1  217.08   14.95
   6  16   1   43.06    5.70
   6  16  -1   38.10    5.66
  -6  16  -1   38.38    4.98
  -6  16   1   33.15    4.63
  -6  16  -1   40.65    4.29
  -6  16  -1   28.41    4.81
  -6  16   1   32.17    4.87
   6  16   1   29.02    3.71
  -6  18  -1   74.78    7.67
   6  18   1   87.79    8.60
  -6  18   1   75.66    7.54
   6  18  -1   96.40    9.30
  -6  18   1   65.41    7.57
   6  18   1   67.56    6.09
  -6  18  -1   70.59    7.93
   6  20  -1  458.89   26.81
  -6  20  -1  382.64   24.60
  -6  20   1  389.89   24.42
  -6  20   1  337.61   24.39
  -6  20  -1  353.22   24.81
   6  20   1  360.51   22.23
   6  20   1  439.52   25.98
  -6  22   1   16.43    4.92
  -6  22   1   17.16    4.36
   6  22  -1   20.53    5.55
   6  22   1   25.06    5.53
  -6  22  -1   27.09    5.06
  -6  22  -1   21.87    5.21
  -7 -23   1   30.99    6.44
  -7 -21   1   60.81    8.22
  -7 -21  -1   83.24   10.68
  -7 -19  -1   15.16    5.20
  -7 -19   1   23.31    5.06
  -7 -17   1   70.27    8.18
  -7 -17  -1   85.53   10.05
  -7 -15   1  112.43   10.29
  -7 -15  -1  117.83   11.95
  -7 -13  -1   26.27    5.42
  -7 -13   1   31.41    4.92
  -7 -11   1  451.44   28.51
  -7 -11  -1  478.19   30.65
   7 -11  -1  439.48   27.76
   7 -11   1  519.29   27.56
   7  -9   1  218.60   13.16
  -7  -9  -1  164.51   13.13
  -7  -9   1  173.29   13.28
   7  -9  -1  174.00   12.35
  -7  -9   1  171.06   12.73
  -7  -9  -1  206.64   15.26
   7  -7   1  206.95   13.83
   7  -7  -1  220.51   13.89
  -7  -7  -1  247.05   16.68
  -7  -7   1  233.77   12.15
   7  -7  -1  218.84   14.42
   7  -7   1  199.03   13.15
  -7  -7   1  212.48   14.45
  -7  -7  -1  206.34   15.18
  -7  -7   1  211.05   15.28
  -7  -5   1   12.17    2.38
   7  -5   1   16.45    2.61
   7  -5  -1   18.84    2.73
  -7  -5  -1   19.07    3.41
  -7  -5  -1   18.39    2.99
   7  -5   1   23.56    3.18
   7  -5  -1   15.27    2.74
  -7  -5   1   13.81    3.12
  -7  -5  -1   27.73    8.12
   7  -5   1   20.33    3.38
   7  -5   1   15.14    2.07
   7  -5  -1   15.74    2.72
  -7  -3   1    1.00    1.65
  -7  -3   1    2.86    1.89
  -7  -3  -1    1.95    1.70
   7  -3  -1    4.17    1.86
   7  -3   1   10.65    2.35
   7  -3   1    4.28    1.30
  -7  -3  -1    3.54    1.77
   7  -3  -1    3.94    1.86
   7  -3   1    3.35    2.12
  -7  -3  -1    4.72    2.09
   7  -1  -1    3.81    1.46
   7  -1   1   11.97    2.94
   7  -1   1    2.54    1.81
  -7  -1  -1    4.40    1.65
  -7  -1  -1    5.16    2.23
   7  -1  -1    3.20    1.69
  -7  -1  -1    5.55    2.54
  -7  -1   1    4.34    2.10
   7  -1  -1    3.09    1.56
  -7  -1   1    5.82    2.20
   7   1  -1    5.09    1.64
  -7   1   1    4.60    2.12
  -7   1  -1    3.21    1.98
   7   1   1    5.82    2.04
   7   1  -1    3.99    1.79
  -7   1  -1    1.64    2.39
  -7   1  -1    3.37    1.67
   7   1   1    3.11    2.08
  -7   1   1    1.91    2.02
  -7   3   1    4.91    2.03
  -7   3  -1    4.37    1.94
  -7   3  -1    1.58    2.40
   7   3   1    4.01    1.63
   7   3  -1    4.02    1.95
  -7   3   1    3.83    2.48
   7   3  -1    4.91    1.98
  -7   3  -1    5.74    2.14
   7   3   1    5.12    2.04
  -7   5   1   17.83    3.30
  -7   5  -1   15.56    3.24
   7   5   1   14.51    3.25
   7   5  -1   23.41    3.53
   7   5  -1   16.50    3.04
   7   5   1   14.84    2.97
   7   5   1   15.24    2.40
  -7   5  -1   26.52    4.00
  -7   5   1   24.01    4.24
   7   5   1   19.50    3.22
   7   7  -1  324.75   18.01
   7   7   1  241.13   16.10
   7   7  -1  239.18   16.02
   7   7   1  213.98   16.45
   7   7   1  210.92   14.73
   7   7  -1  260.96   16.71
   7   7   1  255.35   16.04
  -7   7   1  215.73   15.98
  -7   7  -1  216.44   16.11
  -7   7  -1  322.79   21.83
   7   7   1  231.66   15.98
   7   9   1  216.39   15.05
   7   9  -1  209.76   14.41
  -7   9  -1  176.10   13.85
   7   9   1  201.31   13.12
  -7   9   1  180.48   13.86
   7   9   1  208.18   13.52
   7   9   1  191.16   13.79
   7  11   1  559.97   30.53
   7  11   1  518.17   30.18
  -7  11  -1  464.16   31.09
  -7  11  -1  577.54   29.73
   7  11   1  492.96   31.01
  -7  11   1  476.91   31.17
   7  11  -1  493.87   31.38
  -7  13  -1   25.91    4.71
  -7  13  -1   46.10    4.30
  -7  13   1   35.48    5.16
   7  13   1   39.71    4.46
   7  13  -1   42.85    5.69
   7  13   1   28.04    4.78
   7  15   1  141.40   10.09
   7  15  -1  147.43   12.33
  -7  15   1  122.94   11.20
  -7  15  -1  133.00   11.63
   7  15   1  150.85   12.08
  -7  15  -1  162.42   10.31
   7  17   1   90.13    8.92
   7  17  -1   88.87    9.25
  -7  17  -1   76.71    8.38
  -7  17   1   72.07    8.12
   7  17   1   86.89    6.86
  -7  19  -1   22.35    4.81
   7  19   1   25.42    5.10
   7  19  -1   29.89    5.69
   7  19   1   20.62    3.39
  -7  19   1   28.22    5.14
   7  21   1   91.35    9.68
   7  21  -1   96.30   10.41
  -7  21  -1   86.97    9.56
  -7  21   1   66.31    8.57
  -8 -22   1    2.93    3.44
  -8 -20  -1    6.63    4.60
  -8 -20   1   13.73    4.55
  -8 -18  -1   78.28   10.48
  -8 -18   1   71.70    9.23
  -8 -16  -1   33.91    6.59
   8 -16   1   51.99    5.45
  -8 -16   1   38.06    6.04
  -8 -14   1  243.70   19.30
  -8 -14  -1  286.60   21.66
   8 -12  -1    2.64    2.31
  -8 -12  -1    8.39    3.82
  -8 -12   1    2.80    2.33
   8 -12   1    0.22    2.27
   8 -10   1  438.47   24.05
  -8 -10  -1  389.69   25.19
  -8 -10   1  393.29   25.34
  -8 -10   1  389.71   24.26
   8 -10  -1  352.51   23.56
  -8 -10  -1  421.01   26.95
  -8  -8  -1   99.80    9.51
  -8  -8   1  112.65   10.01
  -8  -8   1  110.58    8.93
   8  -8   1  109.12    7.92
   8  -8   1  132.14    9.28
   8  -8  -1  104.77    8.69
  -8  -8  -1  132.56   11.32
   8  -6  -1  420.82   26.81
   8  -6   1  410.80   25.48
  -8  -6  -1  415.60   28.12
   8  -6   1  483.82   27.45
  -8  -6   1  446.46   28.54
  -8  -6  -1  475.23   26.89
  -8  -6   1  414.70   26.60
   8  -4  -1 1205.54   58.92
   8  -4   1 1058.96   57.23
   8  -4   1 1123.84   59.29
   8  -4   1 1279.38   59.23
  -8  -4  -1 1190.37   59.24
   8  -4  -1 1068.26   58.70
  -8  -4  -1 1102.53   60.51
  -8  -4   1 1127.98   60.68
  -8  -2  -1   34.29    4.71
  -8  -2  -1   29.80    4.68
   8  -2   1   30.00    3.30
   8  -2  -1   30.84    4.11
   8  -2   1   31.44    4.53
  -8  -2   1   37.31    5.15
   8  -2  -1   32.44    4.09
   8  -2   1   33.39    4.24
  -8  -2   1   20.97    4.41
   8  -2  -1   40.47    3.73
  -8  -2  -1   37.06    4.11
  -8   0  -1 1263.64   77.80
  -8   0   1 1317.35   78.07
  -8   0   1  987.89   77.36
  -8   0  -1 1507.82   76.33
  -8   0   1 1568.24   74.07
   8   0   1 1279.40   77.22
  -8   0  -1 1419.81   78.78
   8   0  -1 1354.62   76.67
   8   0   1 1374.99   76.83
   8   0   1 1338.65   76.71
   8   0  -1 1558.20   76.41
  -8   2   1   30.71    4.77
  -8   2  -1   33.73    4.79
  -8   2   1   43.25    6.51
   8   2   1   39.10    4.73
  -8   2  -1   41.61    4.51
   8   2   1   28.84    4.45
  -8   2  -1   32.87    5.71
   8   2  -1   38.55    4.55
   8   2   1   36.73    4.54
   8   2  -1   45.83    4.76
  -8   4  -1 1106.74   71.57
   8   4  -1 1208.03   70.99
   8   4   1 1255.24   71.23
  -8   4   1 1926.38   76.24
  -8   4  -1 1416.80   71.65
   8   4   1 1221.79   69.96
  -8   4   1 1099.87   71.58
  -8   4  -1 1644.13   76.66
   8   4  -1 1566.79   72.02
   8   6  -1  675.84   32.74
  -8   6   1  438.51   31.21
  -8   6  -1  430.78   31.22
   8   6   1  495.68   31.64
  -8   6  -1  581.65   32.39
   8   6   1  466.51   29.61
   8   6   1  561.05   31.46
   8   8   1  139.83   10.30
   8   8   1  130.22   10.99
   8   8   1  115.94    8.97
   8   8   1  124.90   10.35
  -8   8   1  111.25   10.36
  -8   8  -1  120.43   10.64
   8   8  -1  124.58   10.66
   8  10   1  495.83   25.87
  -8  10  -1  389.51   26.24
   8  10   1  410.10   24.54
   8  10  -1  604.03   29.58
  -8  10   1  413.00   26.35
   8  10   1  570.21   28.13
   8  10   1  427.58   26.07
   8  10  -1  441.50   26.73
   8  10  -1  407.35   22.27
   8  12   1    4.83    3.00
   8  12  -1    0.66    2.41
   8  12   1    1.96    2.22
  -8  12   1    4.46    2.90
   8  12   1    1.84    2.06
  -8  12  -1    2.28    2.61
   8  14  -1  317.07   21.02
  -8  14   1  286.99   20.26
  -8  14  -1  261.50   20.04
   8  14   1  307.11   18.69
  -8  14  -1  342.33   18.71
   8  14   1  287.31   18.71
   8  14   1  291.39   20.17
   8  16   1   40.95    6.14
  -8  16  -1   40.90    6.30
   8  16   1   46.79    5.48
  -8  16   1   39.92    6.03
   8  16   1   49.18    5.19
   8  16  -1   44.83    6.69
   8  18   1   94.16    9.60
   8  18  -1   99.40   10.32
  -8  18  -1   80.02    9.11
  -8  18   1   83.19    9.03
   8  20   1   13.83    4.84
   8  20  -1   14.16    5.11
  -8  20   1   11.40    4.23
  -8  20  -1   14.97    4.84
  -9 -21   1  222.61   17.98
  -9 -19  -1   21.77    6.06
  -9 -19   1   22.68    5.25
  -9 -17  -1   -0.56    3.82
  -9 -17   1    0.41    3.29
   9 -17   1    1.51    2.30
  -9 -15  -1  193.14   17.42
  -9 -15   1  191.90   15.59
   9 -15   1  236.95   14.06
   9 -13   1  208.42   12.76
   9 -13  -1  158.75   13.12
  -9 -13  -1  202.07   16.39
  -9 -13   1  174.90   13.90
  -9 -11  -1   15.38    4.15
  -9 -11  -1   14.49    4.46
  -9 -11   1    8.50    3.05
  -9 -11   1   10.41    3.79
   9 -11   1   11.13    2.84
   9 -11  -1   11.78    3.32
  -9  -9  -1  260.29   18.38
  -9  -9   1  266.71   17.24
   9  -9   1  296.90   16.99
   9  -9   1  223.42   15.44
   9  -9  -1  232.61   16.49
  -9  -9  -1  289.75   19.73
  -9  -9   1  262.88   18.48
   9  -7   1  117.26    9.23
   9  -7  -1  117.06   10.19
  -9  -7   1  133.39   10.60
  -9  -7   1  176.42    9.17
   9  -7   1  156.90   10.91
  -9  -7  -1  147.20   12.18
  -9  -7   1  142.74   12.13
  -9  -5  -1    9.48    2.59
  -9  -5   1    5.67    3.10
   9  -5   1    6.99    1.92
   9  -5   1    9.52    2.95
   9  -5  -1   11.68    2.80
  -9  -5  -1    8.10    3.19
  -9  -5   1   16.10    2.79
  -9  -3  -1    3.29    2.58
  -9  -3   1    1.88    2.51
   9  -3  -1    3.01    1.65
   9  -3   1    2.59    1.60
   9  -3  -1    2.93    2.14
  -9  -3  -1    3.30    2.31
   9  -3   1    1.29    2.30
  -9  -1   1  536.80   32.47
  -9  -1  -1  485.87   30.87
  -9  -1   1  485.49   30.94
   9  -1   1  455.02   29.08
   9  -1  -1  407.65   28.66
  -9  -1  -1  546.83   31.32
  -9  -1  -1  544.33   28.81
   9  -1  -1  532.72   28.59
  -9   1  -1  437.54   30.09
  -9   1  -1  501.17   28.40
   9   1   1  434.83   28.98
  -9   1   1  623.72   33.70
  -9   1   1  453.86   30.29
   9   1  -1  570.35   29.37
  -9   3   1    5.57    2.75
  -9   3  -1    1.04    2.10
   9   3  -1    3.55    2.42
  -9   3  -1    1.37    1.99
  -9   3   1    5.82    4.16
   9   3   1    3.26    2.73
  -9   5   1   14.03    3.68
  -9   5  -1   22.45    4.34
   9   5  -1   14.64    3.47
  -9   5   1   25.67    6.26
  -9   5  -1   14.69    3.63
   9   5   1   10.92    2.50
   9   7   1  131.59   10.15
   9   7  -1  138.29   12.00
   9   7   1  156.23   12.26
  -9   7   1  133.43   12.08
  -9   7  -1  136.87   12.29
   9   9   1  366.99   21.29
   9   9   1  267.12   18.03
   9   9   1  357.20   20.23
  -9   9   1  261.99   20.09
  -9   9  -1  262.54   20.23
   9   9   1  297.36   20.01
   9   9  -1  312.32   20.65
   9  11  -1   14.04    3.88
   9  11   1   15.56    3.89
   9  11   1   12.15    2.55
  -9  11   1   13.00    3.59
  -9  11  -1   10.04    3.63
   9  11   1   14.33    3.47
  -9  13   1  188.63   15.23
   9  13   1  197.77   13.37
  -9  13  -1  176.13   15.12
   9  13   1  253.48   14.73
   9  13   1  193.57   15.04
   9  13  -1  232.51   16.25
   9  15   1  201.49   14.24
   9  15   1  238.80   16.74
  -9  15   1  181.97   15.67
  -9  15  -1  198.14   16.18
   9  15   1  251.11   14.99
   9  15  -1  234.50   17.19
   9  17   1   -0.41    3.68
   9  17  -1    0.45    3.70
  -9  17  -1   -2.55    3.49
   9  17   1   -1.46    2.61
  -9  17   1    0.41    3.25
  -9  19  -1   24.23    5.84
   9  19   1   28.00    5.98
   9  19  -1   31.91    6.48
  -9  19   1   31.66    6.06
   9  19   1   26.99    4.57
 -10 -20   1    6.79    3.94
 -10 -18   1  450.76   31.01
 -10 -18  -1  559.01   34.66
 -10 -16  -1   76.11   10.31
 -10 -16   1   54.33    7.88
 -10 -14  -1   26.50    6.30
 -10 -14   1   19.57    4.60
  10 -14   1   34.26    4.23
  10 -14  -1   24.98    4.66
 -10 -12  -1    3.99    3.69
 -10 -12   1    7.02    3.32
  10 -12   1    4.21    2.70
 -10 -12  -1   12.18    3.73
  10 -12  -1    8.71    3.03
 -10 -12   1    7.35    3.56
 -10 -10  -1  145.68   12.45
 -10 -10   1  136.41   12.24
  10 -10  -1  117.85   10.19
 -10 -10  -1  150.90   13.18
 -10 -10   1  122.52   10.55
  10 -10   1  161.98   10.53
  10 -10   1  118.20    9.31
 -10  -8  -1   -0.40    2.94
 -10  -8   1   -0.42    2.98
  10  -8   1    0.70    1.59
  10  -8  -1    2.64    2.13
  10  -8   1    0.69    2.60
 -10  -8   1    0.09    1.13
  10  -6   1  297.06   21.42
  10  -6   1  433.36   23.42
 -10  -6   1  378.04   25.38
  10  -6  -1  316.78   22.73
 -10  -6  -1  376.97   23.06
 -10  -6  -1  349.68   25.00
  10  -4  -1   58.80    6.63
 -10  -4   1   86.66    9.11
  10  -4   1   72.18    6.85
  10  -4   1   60.41    5.80
 -10  -4  -1   72.81    8.45
  10  -4  -1   76.96    6.38
  10  -2  -1   51.60    6.16
  10  -2   1   65.38    6.53
  10  -2   1   57.44    5.48
 -10  -2  -1   85.38    6.58
 -10  -2   1   60.42    7.70
  10  -2  -1   71.83    6.11
 -10  -2  -1   68.42    8.02
 -10   0  -1  126.04   11.80
 -10   0   1  118.48   11.59
 -10   0  -1  137.70    9.74
  10   0   1  130.90   10.62
  10   0  -1  141.13   10.16
 -10   2   1   74.41    8.45
 -10   2  -1   59.81    7.79
  10   2  -1   83.29    7.45
  10   2   1   68.93    7.36
 -10   2  -1   70.40    6.63
  10   4  -1  106.46    8.78
 -10   4   1   73.85    8.57
 -10   4  -1   72.73    8.59
 -10   4  -1   85.89    7.93
  10   4   1   87.71    8.34
 -10   6   1  335.53   27.30
 -10   6  -1  349.12   27.55
  10   6   1  423.12   25.65
 -10   8   1    2.78    3.05
 -10   8  -1    0.80    2.91
  10   8   1   -1.59    2.61
  10   8  -1   -0.35    2.73
  10   8  -1    1.53    3.11
  10   8   1    0.53    1.71
 -10   8   1    1.36    3.98
  10   8   1    4.11    3.12
  10  10   1  155.42   10.36
 -10  10   1  125.34   12.21
 -10  10  -1  143.67   12.82
  10  10   1  157.35   12.33
  10  10  -1  166.66   12.97
  10  12   1    5.50    2.29
 -10  12  -1   11.00    3.52
  10  12   1   10.30    3.50
  10  12  -1   10.94    3.87
 -10  12   1   12.74    3.93
  10  14   1   31.89    5.51
  10  14  -1   32.11    5.92
  10  14   1   26.63    3.78
 -10  14   1   19.88    4.98
 -10  14  -1   19.10    4.92
  10  14   1   42.09    5.24
  10  16  -1   85.61    9.64
 -10  16  -1   67.77    8.77
 -10  16   1   72.23    8.80
  10  16   1   81.91    9.03
  10  18   1  624.35   36.06
 -10  18   1  509.10   34.89
  10  18  -1  696.66   37.58
 -10  18  -1  472.00   34.85
 -11 -19   1   17.23    5.28
 -11 -17   1  214.51   16.79
 -11 -15   1   10.89    4.30
  11 -15  -1    3.74    3.29
 -11 -15  -1    7.80    4.57
  11 -13   1   20.00    3.48
 -11 -13  -1   18.83    5.51
 -11 -13   1   18.67    4.40
 -11 -13   1   15.86    5.01
  11 -13  -1   12.97    3.92
 -11 -13  -1   16.82    5.16
 -11 -11  -1  227.39   17.22
 -11 -11   1  223.99   17.15
  11 -11   1  166.80   13.12
  11 -11  -1  170.44   14.02
 -11 -11   1  209.77   15.27
  11 -11   1  254.23   13.95
 -11  -9  -1  396.25   27.18
 -11  -9   1  437.55   27.81
  11  -9   1  368.90   23.69
  11  -9  -1  349.45   24.58
  11  -7  -1  224.09   17.58
  11  -7   1  222.82   16.41
 -11  -7  -1  263.90   20.14
 -11  -7   1  262.94   20.19
  11  -5  -1    2.51    2.47
 -11  -5   1    1.41    3.30
  11  -5   1    1.31    1.76
  11  -5  -1   -0.20    1.85
  11  -5   1    1.42    2.38
 -11  -5  -1    3.20    3.52
 -11  -5   1    2.53    2.50
 -11  -3   1  670.78   40.24
  11  -3   1  518.00   35.44
 -11  -3  -1  643.92   39.83
  11  -3  -1  526.26   36.60
  11  -3  -1  658.36   36.42
  11  -3   1  714.94   37.46
  11  -1   1    0.40    1.81
  11  -1  -1    9.14    2.84
  11  -1  -1    3.79    2.86
  11  -1   1    1.64    2.66
 -11  -1  -1    2.12    2.44
 -11  -1  -1    2.71    2.91
 -11  -1   1    1.37    3.57
 -11   1  -1    0.64    2.06
 -11   1   1    1.35    0.82
  11   1  -1    0.83    2.37
 -11   1  -1    1.77    2.85
 -11   1   1    3.14    3.54
  11   1   1    3.57    2.82
  11   3   1  715.26   41.65
  11   3  -1  835.42   42.42
 -11   3   1  639.86   43.11
 -11   3  -1  624.22   42.95
 -11   3  -1  761.94   40.94
 -11   5   1    2.86    6.00
 -11   5   1    0.44    2.92
 -11   5  -1    3.04    3.35
  11   5  -1    3.59    3.30
  11   5   1    4.81    3.23
 -11   7   1  259.45   19.69
 -11   7  -1  280.72   20.18
  11   9   1  464.01   26.41
  11   9   1  464.47   28.83
  11   9  -1  498.33   29.73
 -11   9   1  426.48   29.76
 -11   9  -1  427.68   29.83
  11  11   1  242.39   14.77
 -11  11   1  213.99   17.64
 -11  11  -1  205.69   17.70
  11  11   1  242.65   17.29
  11  11  -1  246.42   17.82
  11  13   1   21.75    4.96
  11  13  -1   15.31    4.86
 -11  13   1   16.66    4.93
 -11  13  -1   24.86    5.67
  11  15   1    6.57    4.17
  11  15  -1    8.99    4.60
 -11  15   1   12.47    4.76
 -11  15  -1    4.75    4.26
  11  17   1  293.74   21.38
 -12 -18   1    6.61    4.10
 -12 -16   1    3.69    3.52
 -12 -14  -1    5.71    4.69
 -12 -14   1    8.84    4.14
  12 -14  -1    5.53    3.37
  12 -12   1    7.94    3.21
 -12 -12   1    5.68    4.29
 -12 -12   1    9.45    3.63
  12 -12  -1    2.68    3.18
 -12 -12  -1    5.52    4.17
 -12 -10   1   10.67    4.74
  12 -10   1    4.59    2.48
 -12 -10  -1   13.33    4.73
  12 -10   1   14.94    3.50
  12 -10  -1    4.31    2.99
  12  -8  -1    1.52    2.63
  12  -8   1    1.46    2.10
 -12  -8  -1    4.89    3.86
 -12  -8   1   -2.01    3.76
  12  -8   1    3.32    2.95
  12  -6   1   10.52    3.30
  12  -6   1    7.47    2.63
  12  -6  -1    9.58    3.29
 -12  -6  -1   11.52    4.76
 -12  -6   1    8.74    4.67
  12  -4   1   62.67    6.20
 -12  -4   1   37.19    7.24
  12  -4   1   39.57    4.80
  12  -4  -1   43.27    5.97
 -12  -4  -1   54.98    8.08
 -12  -2  -1    4.50    3.91
 -12  -2   1    4.59    3.99
  12  -2   1    3.64    2.27
  12  -2   1    6.16    3.00
  12  -2  -1    5.85    3.03
 -12  -2   1    9.05    3.75
 -12   0  -1   74.30    9.35
  12   0  -1   55.61    7.00
  12   0   1   75.10    7.31
 -12   0   1   75.50    9.53
 -12   0  -1   78.22    7.03
 -12   2  -1    6.82    3.71
 -12   2   1    6.89    4.28
  12   2   1    5.72    3.17
 -12   2  -1    5.87    2.77
 -12   4   1   54.06    8.13
 -12   4  -1   40.71    7.13
 -12   6   1   10.15    4.31
 -12   6  -1    9.68    4.84
 -12   8   1    0.48    3.57
 -12   8  -1   -2.44    3.80
  12   8   1    2.94    3.35
  12   8  -1    0.81    3.53
 -12  10   1    8.00    4.54
 -12  10  -1   10.11    4.55
  12  10   1    8.61    4.07
  12  10  -1   13.13    4.64
 -12  12  -1    2.55    4.24
  12  12   1    7.38    3.85
  12  12  -1    3.83    3.85
 -12  12   1    7.51    4.57
 -12  14  -1   12.51    4.40
  12  14   1   11.42    4.19
  12  14  -1   12.06    4.55
 -12  14   1    7.63    4.21
  13 -13  -1    3.94    3.63
  13 -11  -1  362.48   28.16
 -13 -11  -1  424.02   31.43
 -13 -11   1  431.93   31.63
 -13  -9  -1   15.35    5.08
  13  -9  -1   18.65    4.24
 -13  -9   1   23.40    6.32
  13  -9   1   25.19    3.98
  13  -7   1  176.42   13.80
  13  -7  -1  183.52   15.00
 -13  -7  -1  217.91   18.22
 -13  -7   1  260.27   19.28
  13  -7   1  286.28   15.20
 -13  -5   1    1.68    4.57
 -13  -5  -1    3.27    4.52
  13  -5   1    0.23    2.79
  13  -5   1    0.45    2.28
  13  -5  -1    1.27    2.77
 -13  -3  -1  138.96   13.33
  13  -3   1  105.58    8.98
 -13  -3   1  121.66   12.75
  13  -3  -1   91.69    9.53
  13  -3   1  145.94   10.11
  13  -1  -1    5.88    3.58
 -13  -1  -1    9.19    4.43
  13  -1   1    7.19    3.22
  13  -1   1    1.41    2.31
 -13  -1   1    6.60    4.06
  13   1  -1    6.80    3.37
 -13   1  -1    7.13    4.06
 -13   1   1    5.00    4.34
  13   1   1    7.62    3.61
 -13   3  -1  129.32   13.66
 -13   3   1  132.96   13.73
  13   3   1  170.38   12.06
 -13   5   1    4.80    4.27
 -13   5  -1    3.19    4.47
 -13   7   1  244.72   19.43
 -13   7  -1  233.42   19.30
 -13   9   1   18.64    5.64
 -13   9  -1   11.83    5.36
  13   9   1   23.82    5.28
  13   9  -1   22.56    5.46
 -13  11   1  449.96   31.70
 -13  11  -1  439.19   31.78
  13  11  -1  521.49   31.39
  13  11   1  466.09   30.14
  14 -10  -1   35.00    5.94
  14 -10   1   71.75    6.07
  14  -8   1    6.88    3.15
 -14  -8   1    2.35    4.70
  14  -8  -1    3.68    3.34
  14  -6   1  137.41    9.46
 -14  -6  -1  112.30   12.61
 -14  -6   1  130.69   13.23
  14  -4   1  402.75   28.29
  14  -4  -1  396.55   29.39
  14  -4   1  651.33   29.99
 -14  -4   1  571.93   34.95
 -14  -4  -1  595.75   35.25
 -14  -2  -1    8.92    4.58
 -14  -2   1   14.54    5.31
  14  -2  -1    4.83    3.44
  14  -2   1    0.50    2.57
  14  -2   1    7.33    3.63
  14   0  -1  322.24   24.85
 -14   0  -1  434.57   29.39
 -14   0   1  456.33   29.78
  14   0   1  342.16   23.97
  14   0   1  552.61   26.00
  14   2  -1    0.72    3.24
 -14   2  -1   10.11    4.88
 -14   2   1    9.00    4.56
 -14   4  -1  506.47   35.22
 -14   4   1  549.26   35.68
 -14   6   1  104.31   12.05
 -14   6  -1  100.38   11.79
  14   8   1   -0.41    3.84
 -14   8   1    3.48    4.34
  15  -1  -1    3.97    3.85
   0 -24  -2  141.12   15.13
   0 -22  -2  155.36   15.40
   0 -20  -2  141.02   14.12
   0 -18  -2   39.10    6.80
   0 -16  -2   14.22    4.17
   0 -14  -2  614.33   34.44
   0 -14   2  600.02   34.23
   0 -14  -2  611.51   37.93
   0 -12  -2  551.29   30.04
   0 -12  -2  574.84   33.73
   0 -12   2  494.18   29.64
   0 -10  -2  140.98    9.25
   0 -10   2  123.31    8.92
   0  -8  -2  762.42   39.93
   0  -8   2  712.94   39.66
   0  -8  -2  746.73   42.82
   0  -6   2  469.64   25.45
   0  -6  -2  390.14   25.58
   0  -6  -2  471.47   23.87
   0  -6   2  409.82   23.64
   0  -4   2  293.37   17.01
   0  -4  -2  301.62   16.94
   0  -4  -2  297.73   15.09
   0  -4   2  247.35   14.94
   0  -2  -2    9.12    1.42
   0  -2   2    7.37    1.97
   0  -2   2    8.40    1.78
   0   0   2 1707.42   87.28
   0   0  -2 1756.29   86.05
   0   0   2 1571.70   87.54
   0   0  -2 1746.28   87.52
   0   0   2 1483.82   86.22
   0   2   2    9.16    1.66
   0   2  -2    7.93    1.93
   0   2   2   10.98    1.67
   0   2   2    7.68    1.94
   0   2  -2    9.39    1.32
   0   4   2  324.75   17.41
   0   4  -2  296.15   15.97
   0   4   2  297.30   15.84
   0   4   2  299.73   16.02
   0   4   2  313.82   17.02
   0   6  -2  476.63   25.48
   0   6   2  475.53   25.33
   0   6   2  489.41   26.36
   0   6  -2  494.32   26.36
   0   8  -2  838.94   43.59
   0   8   2  802.52   43.28
   0   8   2 1236.32   46.40
   0   8  -2  476.27   44.24
   0   8  -2  810.79   44.17
   0   8   2  905.02   44.43
   0  10  -2  160.69   10.69
   0  10   2  152.22   10.41
   0  10  -2  166.16   11.16
   0  10   2  171.61   11.38
   0  12  -2  676.30   33.20
   0  12   2  602.01   32.62
   0  12  -2  669.82   33.96
   0  14  -2  760.11   34.80
   0  14   2  722.57   34.17
   0  14  -2  733.52   35.65
   0  16  -2   28.88    4.13
   0  16   2   23.94    3.65
   0  16   2   21.55    3.15
   0  16  -2   21.44    4.03
   0  18  -2   71.26    7.06
   0  18   2   60.45    6.42
   0  20  -2  244.31   16.54
   0  20   2  211.78   15.51
   0  22  -2  263.11   18.39
   0  22   2  244.35   17.50
   0  24  -2  195.80   15.23
   0  24   2  170.44   14.05
  -1 -23  -2   -1.34    4.63
   1 -23  -2    5.16    4.39
  -1 -23   2    0.91    3.59
  -1 -21  -2   19.47    5.83
   1 -21  -2   23.31    6.19
  -1 -19  -2    3.51    3.47
   1 -19  -2    0.55    3.27
  -1 -17  -2    7.57    3.82
   1 -17  -2    5.54    3.61
  -1 -15  -2  340.51   22.91
   1 -15  -2  264.44   20.97
  -1 -13  -2   67.11    8.11
   1 -13  -2   59.11    5.37
   1 -13   2   62.31    5.38
   1 -13  -2   55.42    7.22
  -1 -13  -2   53.60    5.18
  -1 -13   2   51.49    5.02
   1 -11  -2  173.30   11.33
   1 -11   2  161.42   11.08
   1 -11  -2  172.35   13.57
  -1 -11  -2  189.45   11.49
  -1 -11   2  162.06   11.03
   1  -9  -2   45.47    5.40
   1  -9  -2   42.43    3.87
   1  -9   2   38.38    3.72
  -1  -9   2   47.85    3.90
  -1  -9  -2   40.93    3.85
  -1  -9  -2   46.85    5.98
   1  -7  -2  265.03   16.89
   1  -7   2  265.88   16.86
  -1  -7   2  374.63   18.48
  -1  -7  -2  333.61   20.10
  -1  -7  -2  333.52   17.34
  -1  -7   2  311.71   17.10
   1  -7  -2  296.62   19.16
   1  -5  -2   15.98    1.81
   1  -5   2   16.06    1.80
   1  -5  -2   24.54    2.99
   1  -5  -2   25.64    2.74
  -1  -5   2   21.86    2.78
   1  -5   2   27.19    3.45
  -1  -5  -2   22.15    3.36
  -1  -5  -2   27.11    2.31
  -1  -5   2   20.41    2.01
   1  -3  -2    9.69    1.01
   1  -3   2    7.88    0.99
  -1  -3   2   15.94    2.46
  -1  -3   2   11.82    1.92
   1  -3  -2   14.15    1.91
   1  -3   2   13.17    2.44
   1  -1  -2    8.10    1.44
  -1  -1  -2    8.28    2.08
  -1  -1   2    6.58    1.74
  -1  -1   2    6.92    1.59
   1  -1   2    6.47    1.77
   1   1  -2    6.79    1.75
   1   1   2    4.65    1.35
  -1   1   2    5.67    1.10
  -1   1  -2    7.24    0.97
   1   1  -2    6.22    1.34
   1   1   2    5.67    1.06
  -1   1   2    4.50    1.48
  -1   1  -2    6.04    1.81
  -1   3   2   15.57    1.83
   1   3  -2   10.51    1.19
   1   3   2    8.77    1.04
  -1   3  -2   16.15    1.41
   1   3   2   13.63    1.42
   1   3  -2   12.85    1.32
  -1   3   2   17.10    2.13
  -1   3   2   15.11    1.33
   1   3  -2   12.41    2.14
  -1   3  -2   13.05    2.39
  -1   3  -2   12.66    1.31
   1   3   2   16.84    1.86
  -1   3   2   14.68    2.66
   1   3   2   17.21    2.45
   1   5   2   33.27    3.48
   1   5  -2   19.72    2.12
   1   5   2   17.54    1.92
  -1   5   2   32.43    3.07
  -1   5  -2   25.55    2.16
  -1   5   2   24.31    2.08
  -1   5   2   28.27    3.00
   1   5   2   28.69    2.78
   1   5  -2   21.37    2.94
  -1   5  -2   19.85    3.15
  -1   5  -2   23.75    3.00
   1   5   2   22.99    2.24
   1   5  -2   24.96    2.22
   1   7   2  490.67   21.80
   1   7  -2  301.59   19.27
   1   7   2  302.00   19.04
   1   7   2  377.07   19.49
  -1   7  -2  375.60   19.35
  -1   7   2  383.38   19.23
   1   7  -2  363.64   19.37
  -1   7   2  404.94   20.49
   1   7   2  353.92   20.00
   1   7  -2  278.90   20.30
  -1   7  -2  237.64   20.51
  -1   7  -2  310.98   20.21
   1   9  -2   51.99    4.18
   1   9  -2   50.61    4.39
   1   9   2   45.99    4.08
   1   9   2   64.38    5.87
  -1   9  -2   58.15    4.48
  -1   9   2   44.34    3.98
   1   9   2   48.00    4.18
   1   9   2   48.35    4.65
  -1   9   2   47.59    4.66
   1   9   2   62.10    5.95
   1   9  -2   34.31    4.97
  -1   9  -2   46.81    5.11
   1  11  -2  206.86   13.38
   1  11   2  210.50   13.12
  -1  11  -2  214.93   13.34
  -1  11   2  201.56   13.00
  -1  11   2  226.55   13.94
   1  11   2  172.74   13.78
   1  11   2  190.10   13.52
  -1  11   2  226.68   13.96
   1  11  -2  220.51   12.94
  -1  11  -2  189.92   14.44
   1  13   2   69.55    5.73
  -1  13  -2   68.94    5.87
  -1  13   2   63.32    5.52
   1  13  -2   69.31    6.01
   1  13  -2   77.86    5.60
  -1  13   2   45.42    5.03
   1  13   2   37.88    5.06
  -1  13  -2   62.31    6.74
   1  15  -2  428.79   21.74
   1  15   2  441.78   21.36
  -1  15  -2  393.40   21.06
  -1  15   2  357.22   20.40
  -1  15  -2  318.68   22.05
   1  15   2  257.96   19.64
  -1  15   2  234.39   18.71
   1  15  -2  402.74   20.51
  -1  17   2   10.53    3.06
  -1  17  -2   12.84    4.08
   1  17  -2   13.45    3.50
   1  17   2   16.10    3.60
  -1  17  -2   17.75    3.62
  -1  19  -2    4.57    2.92
  -1  19   2    9.53    3.07
   1  19   2    1.94    2.61
   1  19  -2    7.57    3.49
   1  21  -2   39.85    5.98
  -1  21  -2   29.74    5.23
   1  21   2   30.96    5.06
  -1  21   2   31.01    4.96
  -1  23  -2    4.16    3.91
  -1  23   2    3.64    3.32
   1  23   2   -0.34    3.40
   1  23  -2    0.77    3.73
  -2 -24   2  231.81   17.87
   2 -24  -2  192.16   18.59
  -2 -22  -2    8.78    4.70
   2 -22  -2    7.61    4.53
  -2 -22   2   13.76    4.55
  -2 -20   2   58.81    7.19
  -2 -20  -2   44.42    8.09
   2 -20  -2   48.58    7.84
  -2 -18  -2  381.66   27.64
  -2 -18   2  434.39   25.20
  -2 -16  -2  150.34   13.36
   2 -16  -2   90.78   10.37
   2 -14  -2  121.72    8.69
  -2 -14  -2  114.14    8.60
  -2 -14  -2  123.54   12.08
   2 -12   2   82.75    6.39
   2 -12  -2   66.30    7.61
   2 -12  -2   78.25    6.37
  -2 -12  -2   90.08    6.75
  -2 -12   2   71.75    6.15
  -2 -12  -2   83.62    9.39
   2 -10  -2  170.78   12.78
   2 -10   2  139.41   10.25
   2 -10  -2  159.88   10.54
  -2 -10  -2  177.01   11.05
  -2 -10   2  177.27   10.75
  -2 -10  -2  203.39   14.66
   2  -8   2   13.21    1.91
   2  -8  -2   11.40    1.87
  -2  -8  -2   15.67    3.57
   2  -8  -2   12.17    2.63
  -2  -8   2   16.39    2.19
  -2  -8  -2   16.31    2.32
   2  -6   2   24.56    2.54
   2  -6  -2   26.33    2.56
   2  -6  -2   30.84    3.35
  -2  -6   2   29.59    3.15
   2  -6   2   26.07    3.86
  -2  -6  -2   33.70    4.49
   2  -6  -2   29.97    3.57
   2  -4   2  365.23   20.99
   2  -4  -2  389.50   21.04
  -2  -4   2  407.96   22.04
   2  -4  -2  394.53   22.13
  -2  -4  -2  408.17   23.78
   2  -4   2  339.26   22.99
   2  -4  -2  433.70   21.91
   2  -2   2   15.49    1.44
   2  -2  -2   17.49    1.47
   2  -2  -2   17.95    2.28
  -2  -2   2   17.99    2.53
   2  -2   2   13.07    2.63
   2   0   2   17.68    1.44
   2   0  -2   18.99    2.38
   2   0  -2   18.37    1.47
   2   0   2   17.99    1.55
  -2   0   2   16.31    2.38
  -2   0  -2   16.49    1.63
  -2   0   2   15.90    1.57
   2   0   2   22.53    2.61
  -2   0  -2   21.36    3.09
  -2   0   2   17.48    1.45
   2   2   2   16.25    1.73
   2   2   2   11.30    2.51
  -2   2   2   16.30    1.71
  -2   2  -2   12.99    1.60
  -2   2  -2   16.01    2.61
  -2   2  -2   15.37    2.48
  -2   2   2   17.13    1.52
   2   2   2   15.19    1.67
   2   2  -2   15.77    2.23
  -2   2   2   17.86    2.78
   2   2   2   16.75    2.47
   2   2   2   16.83    1.48
   2   2  -2   17.03    1.65
   2   2  -2   15.43    1.59
   2   4   2  390.74   21.64
   2   4  -2  414.34   21.95
   2   4   2  369.94   21.97
  -2   4  -2  348.71   23.07
   2   4   2  409.73   22.10
  -2   4   2  470.14   23.16
   2   4   2  361.22   23.55
   2   4  -2  366.10   22.42
  -2   4  -2  361.54   23.53
  -2   4   2  418.52   21.87
  -2   4  -2  409.67   21.89
   2   4   2  418.47   23.41
   2   4  -2  388.39   21.89
   2   4   2  473.59   23.89
   2   6   2   32.82    3.88
   2   6   2   26.68    2.66
   2   6  -2   28.78    2.87
  -2   6  -2   31.01    2.72
  -2   6   2   29.25    2.66
  -2   6   2   31.24    3.46
  -2   6   2   28.18    2.77
  -2   6  -2   31.18    2.93
  -2   6  -2   24.78    3.52
   2   6  -2   21.50    3.05
   2   6   2   32.42    4.28
  -2   6  -2   22.24    3.70
   2   6   2   30.24    2.97
   2   6  -2   31.06    2.96
   2   6   2   28.53    2.99
   2   8   2   13.40    2.02
   2   8  -2   14.87    2.23
   2   8   2   18.84    3.69
  -2   8  -2   15.34    2.05
  -2   8   2   14.50    1.95
   2   8   2   18.86    3.34
  -2   8   2   17.42    2.80
   2   8   2   10.65    2.14
   2   8  -2    9.70    2.26
  -2   8  -2   10.79    3.08
  -2   8  -2    9.99    2.67
   2   8   2   15.44    2.24
   2   8  -2   13.16    2.08
   2  10   2  199.04   12.62
   2  10  -2  187.26   12.79
   2  10   2  172.87   12.31
   2  10  -2  202.89   12.57
   2  10   2  274.55   15.53
  -2  10  -2  217.05   12.67
  -2  10   2  198.30   12.29
   2  10   2  164.28   13.40
  -2  10   2  268.59   13.29
  -2  10   2  217.24   13.38
  -2  10  -2  141.91   13.60
   2  12  -2  109.41    7.93
   2  12   2   91.33    7.21
   2  12   2  101.77    7.30
   2  12   2  137.67    9.83
   2  12  -2   91.59    7.10
  -2  12  -2   92.30    7.11
  -2  12   2   91.51    6.98
   2  12  -2   92.44    6.08
  -2  12   2   83.87    6.80
   2  12   2   71.97    7.49
  -2  12  -2   59.08    7.88
   2  14  -2  154.69   10.08
   2  14   2  137.68    9.32
  -2  14  -2  149.07    9.50
  -2  14   2  127.49    8.83
   2  14   2  134.99    9.05
   2  14  -2  139.77    9.18
   2  14   2   85.88    8.69
  -2  14   2   74.67    7.16
   2  14  -2  135.12    7.71
  -2  14  -2   85.65   10.13
   2  16  -2  165.44   11.30
   2  16   2  142.69   10.39
  -2  16  -2  136.31   10.33
  -2  16   2  135.01    9.97
   2  16   2  118.28    9.88
  -2  16  -2  106.56   12.00
   2  18   2  501.48   29.17
  -2  18  -2  459.95   28.90
  -2  18   2  434.18   28.31
   2  20  -2   84.79    8.45
   2  20   2   73.76    7.68
  -2  20  -2   64.17    7.28
  -2  20   2   65.96    7.04
   2  22  -2   13.82    4.67
  -2  22  -2   13.95    4.25
  -2  22   2    9.95    3.67
   2  22   2   11.15    4.07
   2  24  -2  290.48   19.82
   2  24   2  264.74   18.53
  -2  24  -2  276.82   19.16
  -2  24   2  223.64   17.74
  -3 -23   2  110.74   10.95
   3 -23  -2   98.08   12.04
  -3 -23  -2   87.84   12.39
   3 -21  -2  168.04   16.33
  -3 -21   2  209.13   15.76
  -3 -21  -2  172.39   17.31
   3 -19  -2   96.31   11.15
  -3 -19   2  130.54   11.08
  -3 -19  -2  105.14   12.64
  -3 -17  -2    3.05    3.70
  -3 -17   2    1.03    2.56
   3 -17  -2    1.46    2.38
   3 -15  -2   -0.43    2.39
  -3 -15   2    3.21    2.31
   3 -13   2  377.22   23.09
   3 -13  -2  388.94   23.21
   3 -13  -2  263.38   24.20
  -3 -13   2  409.86   24.37
  -3 -13  -2  474.44   24.36
  -3 -13   2  431.61   23.66
  -3 -13  -2  526.19   29.56
   3 -11   2  244.86   15.67
   3 -11  -2  254.64   15.74
   3 -11  -2  214.07   17.15
  -3 -11   2  238.72   16.29
  -3 -11  -2  313.54   16.85
  -3 -11   2  276.16   16.15
  -3 -11  -2  312.64   20.52
   3  -9  -2   83.28    7.70
   3  -9   2   91.76    6.65
   3  -9  -2   91.94    6.65
   3  -9  -2   92.30    7.51
  -3  -9  -2  113.44   10.04
   3  -7   2 1079.01   57.43
   3  -7  -2 1110.65   57.48
   3  -7  -2 1177.66   58.75
  -3  -7   2 1189.94   57.66
  -3  -7  -2 1138.54   61.20
   3  -5  -2  344.11   22.66
   3  -5   2  431.92   22.35
   3  -5  -2  434.83   22.31
  -3  -5   2  351.74   22.16
   3  -5  -2  428.30   23.47
  -3  -5   2  458.66   22.79
   3  -5   2  381.82   24.63
  -3  -5  -2  445.22   25.59
  -3  -3   2  512.50   25.88
  -3  -3  -2  462.05   26.47
   3  -3   2  473.85   26.10
   3  -3  -2  485.61   26.09
  -3  -3   2  499.66   26.55
   3  -3  -2  479.40   27.34
  -3  -3   2  495.27   27.43
   3  -3   2  440.63   28.43
   3  -1   2  221.24   12.34
   3  -1  -2  231.46   13.69
  -3  -1   2  215.69   13.48
   3  -1  -2  228.57   12.46
   3  -1   2  227.30   14.56
   3  -1   2  225.93   12.55
  -3  -1  -2  199.44   12.72
  -3  -1   2  214.24   12.79
   3   1  -2  239.17   13.76
   3   1   2  213.77   11.95
  -3   1  -2  200.72   12.72
  -3   1   2  216.32   12.82
  -3   1   2  221.72   13.67
  -3   1  -2  200.82   13.96
   3   1   2  215.47   14.24
  -3   1  -2  222.12   14.10
   3   1   2  244.25   14.50
   3   1  -2  214.72   12.45
   3   1   2  231.80   12.67
   3   1   2  218.28   13.84
   3   3  -2  481.91   26.15
   3   3   2  530.72   26.50
  -3   3  -2  404.66   27.32
  -3   3   2  487.40   27.91
   3   3  -2  505.77   26.48
   3   3   2  427.07   27.37
  -3   3  -2  428.12   27.50
   3   3   2  429.91   25.69
   3   3   2  513.37   27.60
   3   3   2  502.38   27.68
  -3   3   2  499.43   26.35
   3   3   2  458.82   25.78
   3   3  -2  525.87   26.28
  -3   3  -2  484.26   26.36
   3   5   2  526.45   26.36
   3   5   2  463.91   24.51
   3   5  -2  419.20   24.19
  -3   5   2  440.77   24.16
  -3   5   2  522.74   25.44
   3   5   2  421.10   25.69
   3   5  -2  355.80   23.88
  -3   5  -2  354.14   25.43
   3   5   2  517.62   26.36
   3   5   2  436.95   25.22
  -3   5  -2  435.50   24.17
  -3   5  -2  318.12   25.03
   3   5   2  435.50   23.92
   3   5  -2  502.27   24.53
   3   7   2 1161.31   62.34
   3   7  -2 1302.22   63.01
   3   7   2 1389.20   64.72
   3   7  -2 1003.26   62.37
  -3   7  -2 1273.36   60.74
  -3   7   2 1341.54   63.55
  -3   7  -2 1135.49   62.42
   3   7   2 1134.60   64.93
   3   7   2 1248.70   62.83
   3   7   2 1163.98   64.52
  -3   7   2 1190.65   62.41
   3   7  -2 1187.72   62.56
  -3   7  -2  915.83   64.06
   3   7   2 1171.58   63.36
   3   9   2  111.78    7.69
   3   9  -2  115.64    8.10
   3   9  -2  106.65    7.64
   3   9   2  128.98    9.43
  -3   9  -2  108.48    7.46
  -3   9   2  106.26    7.31
  -3   9   2  126.57    8.45
  -3   9  -2  105.20    7.62
   3   9   2   95.06    8.63
   3   9   2  100.42    9.24
   3   9  -2   79.91    7.52
  -3   9  -2   90.45    9.44
   3   9   2  117.97    7.92
  -3   9  -2   59.37    8.17
  -3   9  -2  103.12    6.26
  -3   9   2  102.93    7.50
   3  11  -2  340.51   19.43
   3  11   2  407.52   21.71
  -3  11  -2  319.19   18.48
  -3  11   2  298.87   18.22
  -3  11  -2  327.12   18.92
  -3  11   2  467.47   19.41
   3  11   2  240.35   19.19
  -3  11  -2  134.80   18.71
   3  11   2  341.24   18.91
   3  11  -2  310.28   18.60
   3  11   2  298.19   18.62
   3  13  -2  518.96   24.32
   3  13   2  462.26   23.23
  -3  13  -2  523.42   23.45
  -3  13   2  499.20   22.98
  -3  13   2  268.03   20.49
   3  13   2  296.77   22.64
  -3  13  -2  185.44   23.02
   3  13   2  526.00   23.62
   3  13  -2  502.92   23.37
   3  15  -2    6.50    2.73
   3  15   2    4.39    2.08
  -3  15  -2    5.94    2.48
  -3  15   2    5.21    2.14
   3  15   2    4.01    2.26
   3  17  -2    2.89    2.96
   3  17   2    3.89    2.65
  -3  17   2    1.43    2.20
  -3  17  -2    0.78    2.28
   3  19   2  132.38   10.69
  -3  19  -2  126.23   10.53
  -3  19   2  107.89    9.76
   3  21   2  263.18   17.58
  -3  21  -2  232.99   17.18
  -3  21   2  211.69   16.36
   3  21  -2  294.50   18.79
   3  23   2  128.81   11.54
  -3  23  -2  123.84   11.22
  -3  23   2  109.72   10.48
   4 -24  -2   43.86    8.18
  -4 -24   2   37.76    6.87
  -4 -22  -2   30.74    7.58
  -4 -22   2   24.70    5.49
   4 -22  -2   25.74    6.20
  -4 -20  -2   -1.38    4.52
  -4 -20   2    1.57    2.71
   4 -20  -2   -1.13    3.64
   4 -18  -2  113.64   11.63
  -4 -18   2  105.40    9.92
  -4 -18  -2  106.67   12.42
  -4 -16   2  140.84   10.64
  -4 -16  -2  140.19   13.61
  -4 -14   2   42.35    5.16
   4 -14  -2   28.00    5.21
  -4 -14  -2   49.23    7.52
  -4 -12  -2    6.36    3.35
   4 -12  -2    9.35    2.28
   4 -12  -2    3.86    2.37
  -4 -12   2    5.41    2.16
   4 -12   2    9.21    2.06
   4 -10   2   88.08    6.48
   4 -10  -2   87.80    6.49
  -4 -10   2   95.79    7.10
  -4 -10  -2   79.90    8.97
  -4  -8   2  227.83   14.37
   4  -8   2  229.03   14.09
   4  -8  -2  234.12   14.11
   4  -8  -2  240.35   15.29
  -4  -8   2  271.89   13.61
  -4  -8  -2  244.43   17.71
   4  -6  -2  149.47   10.19
  -4  -6   2  149.45    9.64
   4  -6   2  160.22    9.85
   4  -6  -2  158.70    9.84
   4  -6  -2  143.57   10.53
  -4  -6   2  173.12    9.64
  -4  -6  -2  163.34   12.70
  -4  -4   2   64.16    4.22
  -4  -4  -2   57.35    4.99
  -4  -4   2   62.19    5.11
   4  -4   2   61.52    4.62
   4  -4  -2   62.11    4.57
   4  -4  -2   67.18    5.64
   4  -4  -2   65.22    4.33
   4  -2   2  137.00    8.60
   4  -2  -2  133.55    8.55
   4  -2  -2  154.74    8.87
   4  -2   2  165.85    9.08
  -4  -2  -2  147.86   10.42
  -4  -2   2  151.67    9.28
  -4  -2  -2  122.08    9.09
  -4  -2   2  136.07    9.28
   4  -2  -2  122.09    9.48
  -4   0  -2  246.05   15.54
  -4   0   2  265.22   15.70
   4   0  -2  255.49   16.02
   4   0  -2  268.27   15.10
  -4   0  -2  247.60   16.41
   4   0   2  289.48   15.33
   4   0   2  251.13   13.83
   4   0   2  291.09   17.26
   4   0   2  257.68   16.15
  -4   0   2  275.41   15.58
   4   0   2  264.39   16.76
  -4   2   2  140.08    9.28
  -4   2  -2  128.39    9.09
  -4   2   2  152.09    9.96
   4   2   2  136.25   10.07
  -4   2  -2  118.26    9.89
   4   2   2  143.87   10.56
   4   2   2  131.46    9.78
   4   2  -2  139.38    8.90
   4   2   2  146.24    9.13
   4   4   2   70.21    6.08
   4   4  -2   64.69    5.21
   4   4   2   71.03    5.49
   4   4  -2   63.27    4.77
   4   4   2   78.40    6.92
   4   4   2   59.55    5.85
  -4   4  -2   52.74    6.08
  -4   4   2   66.90    5.40
  -4   4  -2   55.32    5.12
   4   4   2   58.94    4.84
   4   4  -2   75.75    5.51
   4   4   2   69.75    6.36
   4   6   2  210.81   12.80
   4   6   2  182.90   11.19
   4   6  -2  162.97   10.75
  -4   6   2  190.82   11.64
   4   6   2  212.06   13.41
   4   6   2  164.24   11.80
   4   6  -2  145.73    9.89
  -4   6  -2  158.37   12.39
   4   6   2  158.07   11.23
  -4   6   2  162.35   10.64
  -4   6  -2  152.42   10.60
  -4   6  -2  124.03   12.11
   4   6   2  153.65   10.30
   4   6  -2  168.23   10.88
   4   8   2  270.63   16.33
   4   8  -2  308.70   17.17
   4   8   2  295.18   18.11
   4   8   2  240.08   17.48
  -4   8   2  285.59   17.08
   4   8   2  273.35   16.71
   4   8  -2  270.53   16.49
   4   8   2  268.48   17.85
  -4   8  -2  259.36   16.48
  -4   8  -2  311.41   14.54
   4   8  -2  234.49   15.72
  -4   8   2  258.27   16.36
  -4   8  -2  212.21   17.92
   4   8   2  260.64   16.82
   4  10   2  104.26    7.82
   4  10  -2  118.80    8.51
  -4  10  -2  113.71    6.21
   4  10   2  109.74    9.27
  -4  10  -2  105.37    7.93
  -4  10   2  106.27    7.84
   4  10  -2   91.05    7.46
   4  10   2  105.90    7.99
   4  10  -2  105.09    7.85
   4  10   2   96.65    7.87
   4  12   2    8.81    2.47
   4  12  -2   11.66    2.91
  -4  12   2    9.41    2.45
  -4  12  -2    9.12    2.39
  -4  12  -2   10.94    2.80
  -4  12  -2    9.90    1.64
  -4  12   2    8.45    1.59
   4  12   2    5.65    2.49
   4  12   2   11.36    2.56
   4  12   2    6.33    2.38
  -4  12   2    7.35    2.17
   4  12  -2    9.53    2.51
   4  14   2   52.91    5.59
   4  14  -2   59.10    6.31
  -4  14  -2   47.92    5.21
  -4  14   2   48.16    5.09
  -4  14  -2   51.68    4.26
  -4  14   2   44.13    5.17
  -4  14  -2   51.80    5.68
   4  14   2   37.87    5.28
  -4  16  -2  134.63   10.71
   4  16  -2  130.30   10.92
   4  16   2  121.60   10.23
  -4  16  -2  141.29   10.46
  -4  16   2  133.68   10.08
  -4  16  -2  139.48    9.03
   4  16   2  119.26   10.34
   4  18  -2  154.61   12.04
   4  18   2  127.33   10.82
  -4  18  -2  124.26   10.51
  -4  18   2  118.76   10.09
  -4  18  -2  141.59    9.44
   4  20  -2   -0.79    3.50
   4  20   2   -1.34    3.36
  -4  20  -2    1.58    2.85
  -4  20   2   -0.29    2.47
   4  22  -2   42.04    6.71
   4  22   2   31.79    5.80
  -4  22   2   26.40    4.92
  -4  22  -2   32.28    5.64
  -5 -23   2    6.17    3.72
   5 -23  -2    2.51    4.50
  -5 -21   2   88.21    9.18
   5 -21  -2   90.04   11.13
  -5 -21  -2   92.10   12.23
  -5 -19  -2   13.99    5.29
   5 -19  -2   11.73    4.76
  -5 -19   2   10.29    3.38
  -5 -17   2  183.72   14.06
   5 -17  -2  190.13   16.11
  -5 -17  -2  212.96   18.22
  -5 -15   2  349.69   22.17
   5 -15  -2  306.05   23.60
  -5 -13  -2    3.70    3.34
   5 -13  -2    2.26    2.07
  -5 -13   2    0.96    1.72
  -5 -11   2  310.30   18.02
   5 -11   2  346.99   18.10
   5 -11  -2  353.59   18.14
  -5 -11  -2  369.15   22.95
  -5  -9  -2   10.25    3.75
  -5  -9   2    6.67    1.76
   5  -9  -2    8.31    1.95
   5  -9  -2    4.07    1.88
   5  -9   2    6.17    1.92
  -5  -7   2  489.64   27.95
   5  -7   2  509.17   28.17
   5  -7  -2  511.46   28.14
  -5  -7  -2  539.88   32.14
  -5  -5  -2  160.64   11.48
  -5  -5   2  181.86   11.82
   5  -5  -2  168.98   10.72
   5  -5   2  174.57   10.86
   5  -5  -2  176.39   10.81
   5  -5  -2  182.10   12.01
  -5  -5   2  178.93   10.44
   5  -3   2  262.26   15.50
   5  -3  -2  259.88   15.39
   5  -3  -2  259.47   16.56
   5  -3  -2  286.14   15.75
   5  -3   2  298.10   15.99
  -5  -3  -2  244.57   16.23
  -5  -3   2  248.68   16.39
   5  -1  -2  184.80   13.23
  -5  -1  -2  170.74   12.90
  -5  -1   2  196.41   13.29
  -5  -1   2  218.47   12.48
   5  -1  -2  213.21   12.59
   5  -1   2  206.78   14.14
   5  -1   2  216.57   12.80
   5  -1   2  219.93   13.65
  -5  -1  -2  208.39   14.01
   5  -1   2  217.78   14.75
  -5   1  -2  176.76   12.77
  -5   1   2  203.32   13.18
   5   1   2  217.22   12.75
  -5   1   2  207.12   12.66
  -5   1  -2  200.52   13.63
   5   1   2  199.69   13.70
  -5   1  -2  170.49   13.47
   5   1   2  212.36   14.24
   5   1  -2  200.09   12.37
   5   1   2  219.79   13.67
   5   3  -2  270.79   16.29
   5   3   2  297.13   16.77
  -5   3   2  245.11   16.53
  -5   3  -2  249.63   16.50
  -5   3  -2  220.54   17.44
   5   3   2  327.71   18.89
  -5   3  -2  265.74   17.47
   5   3   2  256.03   17.09
   5   3   2  309.13   18.06
   5   3   2  288.40   17.48
   5   5  -2  179.02   11.85
   5   5   2  190.54   12.20
   5   5   2  203.32   13.82
   5   5  -2  179.78   10.62
   5   5   2  170.98   12.29
   5   5   2  215.17   13.62
   5   5   2  201.62   13.00
  -5   5  -2  155.78   13.63
  -5   5   2  178.77   12.01
  -5   5  -2  164.55   11.84
   5   5   2  157.13   11.24
   5   5  -2  194.09   12.14
   5   7   2  669.71   32.62
   5   7   2  596.55   30.76
   5   7  -2  573.26   30.37
   5   7   2  475.70   31.19
   5   7   2  500.19   29.65
   5   7   2  546.39   31.08
   5   7  -2  516.75   28.63
   5   7   2  521.37   30.56
  -5   7   2  538.14   30.24
  -5   7  -2  530.85   30.32
   5   7  -2  608.38   30.73
   5   9   2    6.66    2.16
   5   9  -2   10.94    2.71
  -5   9  -2    7.81    1.21
  -5   9   2    8.92    2.45
  -5   9  -2    7.95    2.46
   5   9   2    9.14    2.91
   5   9  -2    4.87    1.57
   5   9   2    9.04    2.93
   5   9   2    6.59    2.34
   5   9   2    6.76    2.25
   5   9  -2    6.39    2.27
   5  11   2  391.12   22.91
   5  11  -2  439.87   24.02
   5  11   2  377.21   23.96
  -5  11  -2  431.59   20.80
  -5  11  -2  364.84   22.94
   5  11   2  400.25   23.11
   5  11  -2  384.74   22.85
   5  11  -2  345.14   21.79
   5  11   2  370.29   22.66
  -5  11   2  362.62   22.67
   5  13   2    6.08    2.34
   5  13  -2    2.10    2.31
  -5  13   2    4.27    2.20
  -5  13  -2    2.14    2.17
  -5  13  -2    3.36    1.41
   5  13   2    1.41    2.68
   5  13   2    1.83    2.35
   5  13   2    2.31    2.11
   5  15   2  466.63   28.07
   5  15  -2  538.93   29.48
  -5  15  -2  498.29   28.03
  -5  15   2  463.45   27.60
  -5  15  -2  504.43   26.01
  -5  15   2  430.15   27.77
   5  15   2  363.69   27.52
   5  15   2  439.74   27.35
  -5  15  -2  470.98   28.45
  -5  17  -2  214.38   16.75
   5  17   2  246.25   17.00
  -5  17  -2  239.49   16.55
  -5  17   2  243.26   16.41
  -5  17   2  218.31   16.48
  -5  17  -2  266.55   14.96
   5  17   2  222.16   15.86
   5  19  -2   18.37    4.72
   5  19   2   15.99    3.98
  -5  19   2   18.36    4.08
  -5  19  -2   12.73    3.83
  -5  19  -2   15.38    4.03
  -5  19   2   14.11    3.81
   5  19   2   13.75    3.57
   5  21  -2  125.19   11.22
   5  21   2  109.92    9.99
  -5  21  -2   93.15    9.39
  -5  21   2   89.13    8.86
  -5  21  -2   87.36    9.47
  -5  21   2   86.02    9.11
   5  21   2   91.60    8.31
   5  23   2    4.32    3.97
  -5  23   2    1.60    3.43
  -5  23  -2    1.77    3.45
   5  23  -2    1.84    4.58
  -5  23  -2    1.55    3.82
  -5  23   2    1.75    3.58
   5  23   2    2.22    3.02
   6 -24  -2   74.87   11.04
  -6 -22   2   91.87    9.97
   6 -22  -2  129.17   13.36
   6 -20  -2   51.03    8.08
  -6 -20  -2   40.24    8.08
  -6 -20   2   36.60    5.99
  -6 -18  -2    2.60    4.28
  -6 -18   2    3.76    2.63
   6 -18  -2    5.10    3.59
  -6 -16  -2    4.28    3.86
  -6 -16   2   -0.60    2.47
   6 -16  -2    0.88    2.23
  -6 -14   2  370.53   22.57
   6 -14  -2  304.90   23.33
  -6 -12   2  279.48   16.67
   6 -12  -2  282.02   17.40
  -6 -10   2   43.80    4.51
   6 -10   2   38.23    4.21
   6 -10  -2   39.45    4.20
  -6 -10  -2   38.15    6.44
   6  -8   2  412.92   23.82
   6  -8  -2  414.77   23.78
  -6  -8  -2  390.38   24.68
  -6  -8  -2  447.32   28.14
  -6  -8   2  420.05   23.89
  -6  -6  -2  353.32   22.00
  -6  -6   2  379.46   22.40
   6  -6   2  365.62   21.02
   6  -6  -2  353.07   20.91
  -6  -6   2  366.22   20.51
   6  -4   2  233.42   14.57
   6  -4  -2  231.82   14.49
   6  -4  -2  249.81   14.84
   6  -4   2  273.54   15.20
  -6  -4  -2  224.64   15.55
  -6  -4   2  245.67   15.89
  -6  -2  -2   17.93    3.14
  -6  -2   2   15.51    3.06
   6  -2  -2   18.08    3.19
  -6  -2  -2   26.50    3.91
   6  -2  -2   19.30    2.73
   6  -2   2   21.59    2.95
  -6  -2   2   22.87    2.40
  -6  -2  -2   13.43    3.07
   6  -2   2   21.19    4.26
  -6   0  -2 2117.55  125.60
  -6   0   2 2307.22  126.00
  -6   0  -2 2569.36  126.40
  -6   0   2 2660.78  124.22
   6   0   2 2312.87  126.31
   6   0  -2 2315.30  124.75
   6   0   2 2454.91  125.03
   6   0   2 2207.41  126.71
   6   0   2 2558.67  126.07
   6   0  -2 2090.01  125.51
  -6   2  -2   22.02    3.39
  -6   2   2   19.41    3.36
  -6   2   2   21.90    2.96
   6   2   2   35.86    5.23
  -6   2  -2   22.01    3.54
   6   2   2   18.56    3.40
  -6   2  -2   18.43    3.75
   6   2   2   25.28    3.57
   6   2   2   18.41    3.70
   6   2  -2   18.68    2.90
   6   2   2   18.03    2.93
  -6   4   2  238.62   16.50
  -6   4  -2  240.47   16.42
   6   4  -2  248.64   15.94
   6   4   2  258.41   16.26
   6   4   2  254.17   17.46
  -6   4  -2  271.03   17.48
   6   4   2  251.20   16.63
   6   4   2  276.46   17.35
   6   4   2  280.50   17.37
   6   6  -2  383.83   23.05
   6   6   2  405.08   23.45
   6   6   2  350.07   23.94
   6   6   2  388.44   23.41
   6   6   2  456.52   24.66
  -6   6   2  367.02   23.35
  -6   6  -2  369.18   23.32
   6   6   2  365.32   22.58
   6   6  -2  416.77   23.50
   6   8   2  487.55   26.01
   6   8  -2  470.71   25.65
   6   8   2  334.02   25.67
   6   8  -2  425.74   23.21
   6   8   2  419.65   25.77
   6   8   2  447.63   25.92
  -6   8   2  429.77   25.59
  -6   8  -2  408.76   25.55
   6   8   2  394.08   24.83
   6   8  -2  480.54   26.11
   6  10   2   47.85    5.37
   6  10   2   51.52    5.71
   6  10   2   28.29    4.85
   6  10  -2   41.67    3.69
   6  10  -2   45.14    5.15
  -6  10   2   43.84    5.14
  -6  10  -2   40.23    5.08
   6  10   2   47.03    5.13
   6  10   2   46.67    5.07
   6  10  -2   50.28    5.64
   6  12   2  335.30   21.38
   6  12  -2  396.89   22.80
   6  12   2  340.72   22.13
   6  12   2  254.26   21.19
   6  12  -2  318.71   19.75
  -6  12   2  335.06   21.53
  -6  12  -2  344.19   21.82
   6  12   2  321.26   20.91
  -6  12  -2  397.53   19.39
   6  14   2  536.34   29.39
   6  14  -2  566.75   30.54
  -6  14  -2  547.52   26.73
   6  14   2  470.72   29.64
  -6  14   2  449.99   28.77
  -6  14  -2  446.38   29.01
   6  14   2  355.75   28.03
   6  14   2  443.91   27.98
   6  16   2    1.59    2.37
   6  16  -2    4.13    3.08
  -6  16   2    1.59    2.57
  -6  16  -2    4.78    2.89
  -6  16  -2    1.00    1.74
   6  16   2    0.38    3.16
   6  16   2    0.92    2.90
   6  16   2    2.22    2.44
   6  18   2    7.21    3.32
   6  18  -2    7.70    3.85
  -6  18   2    6.88    3.22
  -6  18  -2    9.32    3.60
   6  18   2    5.07    2.68
   6  20  -2   67.82    7.92
   6  20   2   61.19    7.21
  -6  20  -2   49.78    6.66
  -6  20  -2   43.24    6.86
  -6  20   2   52.28    6.78
   6  20   2   50.41    5.98
   6  22  -2  163.36   13.58
   6  22   2  131.59   11.95
  -6  22  -2  124.09   11.59
  -6  22   2  126.70   11.30
  -6  22   2  105.97   11.23
  -6  22  -2  132.47   12.39
  -7 -23   2   11.13    4.29
   7 -23  -2    8.70    5.18
  -7 -21   2    3.56    3.31
   7 -21  -2    0.59    3.92
  -7 -19   2   41.59    6.06
  -7 -19  -2   46.93    8.71
   7 -19  -2   43.50    7.32
  -7 -17   2  111.28   10.04
   7 -17  -2  108.97   11.25
  -7 -17  -2  136.15   13.98
  -7 -15   2  179.60   13.28
  -7 -15  -2  174.72   16.52
  -7 -13   2  172.65   12.72
   7 -13  -2  183.69   13.43
  -7 -11   2    1.64    1.85
   7 -11  -2    2.84    2.61
  -7  -9  -2  146.61   11.36
   7  -9  -2  144.62   11.03
  -7  -9   2  149.39   10.33
  -7  -7  -2   54.55    6.31
  -7  -7   2   75.56    7.14
   7  -7   2   62.21    5.68
   7  -7  -2   61.77    5.58
  -7  -7   2   74.91    4.41
  -7  -7   2   64.48    5.37
   7  -5   2   44.41    4.38
   7  -5  -2   43.54    4.29
   7  -5   2   49.73    4.77
  -7  -5  -2   45.84    5.39
  -7  -5   2   44.24    5.39
   7  -3   2  262.39   15.69
   7  -3   2  211.19   13.61
   7  -3   2  284.65   17.39
   7  -3  -2  276.61   15.94
   7  -3   2  286.00   16.22
  -7  -3  -2  256.43   17.02
  -7  -3   2  257.80   17.25
   7  -3  -2  326.64   14.50
   7  -1  -2   54.18    3.65
   7  -1   2   52.65    3.77
  -7  -1  -2   49.03    5.73
   7  -1   2   68.87    7.19
  -7  -1   2   50.25    5.93
  -7  -1  -2   56.16    6.07
  -7  -1   2   63.42    4.19
   7  -1  -2   51.71    5.10
   7  -1   2   56.66    5.41
  -7   1  -2   54.43    5.96
  -7   1   2   49.16    5.84
  -7   1  -2   54.03    5.84
   7   1   2   50.62    5.87
  -7   1   2   57.84    4.61
   7   1  -2   51.40    5.13
   7   1   2   61.57    5.59
   7   1   2   57.27    6.53
  -7   3   2  265.20   18.05
  -7   3  -2  251.89   17.71
   7   3   2  261.68   18.18
   7   3   2  263.69   17.63
   7   3   2  288.51   18.74
   7   3  -2  279.51   17.26
   7   3   2  295.63   17.59
  -7   5   2   48.41    5.79
  -7   5  -2   38.48    5.38
   7   5  -2   48.57    5.25
   7   5   2   51.65    5.48
   7   5   2   55.73    6.26
   7   5   2   48.25    5.40
   7   5   2   53.49    6.07
   7   5   2   49.07    5.10
   7   5  -2   62.64    6.00
   7   7  -2   78.73    6.85
   7   7   2   89.59    7.31
   7   7   2   66.78    6.53
   7   7   2   78.26    7.32
   7   7   2   60.03    6.88
  -7   7   2   62.95    6.72
  -7   7  -2   60.23    6.69
   7   7   2   59.50    6.07
   7   7  -2   76.55    7.07
   7   9  -2  163.44    8.23
   7   9   2  164.83   11.21
   7   9   2  118.98   10.71
   7   9   2  195.57   12.19
  -7   9   2  163.73   11.44
  -7   9  -2  155.73   11.40
   7   9   2  145.11   10.53
   7   9  -2  180.25   11.86
   7  11   2    1.58    2.26
   7  11  -2   -0.32    2.57
   7  11   2    0.84    2.19
  -7  11   2   -0.29    2.27
  -7  11  -2    0.30    2.28
   7  11   2    1.89    2.49
   7  11   2    4.60    2.82
   7  13   2  214.19   14.33
   7  13  -2  223.16   15.20
   7  13   2  185.99   14.07
   7  13   2  155.15   13.42
  -7  13   2  176.75   13.82
  -7  13  -2  196.43   14.45
   7  13   2  187.75   13.42
   7  15   2  230.99   15.70
   7  15  -2  243.10   16.81
  -7  15  -2  237.92   13.24
   7  15   2  226.02   15.77
  -7  15   2  182.55   15.06
  -7  15  -2  185.53   15.35
   7  15   2  186.13   14.75
   7  15   2  186.87   14.14
   7  17   2  153.33   12.20
   7  17  -2  166.19   13.33
   7  17   2  144.37   12.09
  -7  17   2  132.22   11.74
  -7  17  -2  118.69   11.79
   7  17   2  135.21   10.63
   7  19   2   52.91    7.04
   7  19  -2   63.14    8.11
   7  19   2   49.51    7.17
  -7  19   2   54.34    7.10
  -7  19  -2   52.22    7.29
   7  19   2   55.75    6.25
   7  21  -2    3.79    3.98
   7  21   2    4.81    3.79
  -7  21   2    5.82    3.65
  -7  21  -2    4.09    3.41
  -8 -22   2   11.15    4.55
   8 -22  -2   17.32    6.13
  -8 -20   2   45.97    6.86
   8 -20  -2   46.29    7.94
   8 -18  -2  187.77   15.93
  -8 -18   2  188.30   14.62
  -8 -16   2  117.24   10.31
   8 -14  -2  180.89   13.83
  -8 -14   2  183.52   13.46
   8 -12  -2  214.08   15.44
  -8 -12   2  216.94   14.70
   8 -10  -2  225.83   15.56
  -8 -10   2  217.84   14.42
  -8  -8   2    4.89    1.81
  -8  -8  -2    6.37    2.91
   8  -8  -2    5.10    2.58
  -8  -8   2    5.33    2.90
   8  -6  -2   77.95    7.28
   8  -6   2   82.69    7.74
  -8  -6  -2   66.27    7.27
  -8  -6   2   78.48    7.78
   8  -4   2  412.10   26.07
   8  -4  -2  428.98   25.97
   8  -4   2  381.18   24.22
   8  -4   2  576.81   29.54
   8  -4  -2  503.50   26.75
   8  -4   2  501.66   26.94
  -8  -4  -2  439.11   27.91
  -8  -4   2  485.91   28.56
   8  -4  -2  575.35   25.35
  -8  -2  -2   13.57    3.39
  -8  -2   2   21.95    4.15
   8  -2   2   12.03    1.70
   8  -2  -2   15.00    2.92
   8  -2   2   20.10    3.42
   8  -2   2   24.77    4.62
   8  -2  -2   19.57    2.29
   8   0  -2   44.53    3.82
  -8   0  -2   39.41    5.55
  -8   0   2   37.57    5.54
   8   0   2   39.20    5.61
  -8   0   2   52.92    3.58
   8   0  -2   45.29    4.86
   8   0   2   38.15    4.82
  -8   2  -2   10.11    3.08
  -8   2   2   16.86    3.74
  -8   2   2   22.63    2.93
   8   2  -2   15.98    2.96
   8   2   2   17.50    3.26
   8   2   2   17.01    4.04
  -8   4   2  490.14   30.01
  -8   4  -2  469.80   29.76
   8   4   2  418.12   29.18
   8   4   2  486.09   29.03
   8   4  -2  494.20   28.93
   8   4   2  511.53   29.27
  -8   6   2   66.38    7.21
  -8   6  -2   80.18    7.75
   8   6   2   63.88    7.08
   8   6   2   74.59    6.86
  -8   6   2   49.90    5.35
   8   6   2   93.97    8.18
   8   6   2   73.81    6.76
   8   6  -2   89.09    7.79
  -8   8   2    1.63    2.48
  -8   8  -2    2.99    2.46
   8   8   2   11.02    3.02
   8   8  -2    1.82    2.44
   8   8   2    7.28    2.70
   8   8   2    1.47    2.33
  -8   8   2    1.43    1.69
   8   8   2    1.80    2.49
   8  10   2  250.97   16.42
   8  10   2  195.77   16.41
   8  10   2  282.28   17.37
  -8  10   2  246.76   17.32
  -8  10  -2  229.86   17.19
   8  10   2  249.06   16.64
   8  10  -2  279.11   17.73
   8  12   2  244.79   16.70
   8  12   2  216.14   16.78
   8  12   2  269.56   17.35
  -8  12   2  240.40   17.39
  -8  12  -2  229.39   17.39
   8  12   2  260.26   17.22
   8  12  -2  278.08   18.32
   8  14   2  210.46   15.38
   8  14  -2  256.85   17.06
   8  14   2  201.17   14.93
   8  14   2  197.06   15.00
  -8  14   2  174.56   14.93
  -8  14  -2  200.48   15.63
   8  14   2  231.47   15.32
   8  16   2  146.00   12.47
   8  16  -2  168.74   13.87
   8  16   2  158.61   12.45
  -8  16   2  138.29   12.48
  -8  16  -2  130.10   12.55
   8  16   2  169.39   12.24
   8  18   2  270.97   18.56
   8  18  -2  302.84   20.13
   8  18   2  261.79   18.02
  -8  18   2  212.16   17.71
  -8  18  -2  222.46   18.25
   8  18   2  240.75   16.85
   8  20   2   49.69    7.25
   8  20  -2   66.82    8.71
   8  20   2   52.11    7.29
  -8  20   2   52.94    7.58
  -8  20  -2   49.50    7.61
   8  22   2   11.96    4.85
   9 -21  -2   27.91    6.42
  -9 -17   2    2.08    2.94
   9 -17   2   -1.04    3.14
  -9 -15   2   29.73    4.89
   9 -15   2   35.65    5.23
   9 -13  -2  122.83   11.01
  -9 -13   2  122.71   10.25
   9 -11   2   63.91    6.78
   9 -11  -2   47.81    6.13
  -9 -11   2   47.89    5.33
  -9  -9  -2   71.14    7.96
  -9  -9   2   86.53    8.76
   9  -9  -2   66.23    7.23
  -9  -9   2   70.04    6.47
  -9  -7  -2  139.07   12.42
  -9  -7   2  164.16   13.24
   9  -7  -2  144.52   11.84
   9  -5   2  107.11    7.60
   9  -5  -2  113.08    9.92
   9  -5   2  141.96   10.98
  -9  -5  -2  129.10   11.16
  -9  -5   2  145.05   11.74
   9  -5  -2  153.39    8.64
   9  -3   2  112.58    7.84
   9  -3  -2  113.48   10.15
   9  -3   2  141.95   11.10
  -9  -3  -2  120.54   10.98
  -9  -3   2  146.38   11.98
   9  -3  -2  165.21    9.11
   9  -1  -2   16.25    2.55
   9  -1   2   12.78    1.96
   9  -1   2    8.51    3.25
  -9  -1  -2    8.75    3.38
  -9  -1   2   10.30    3.72
   9   1  -2   12.03    2.37
  -9   1  -2   12.45    3.64
  -9   1   2   13.54    1.77
  -9   1   2   11.72    3.63
   9   1   2   10.33    3.28
   9   3  -2  144.20    9.24
  -9   3   2  142.17   11.35
  -9   3  -2  129.47   10.83
   9   3   2  138.01   10.21
  -9   5   2  145.90   11.33
  -9   5  -2  146.48   11.30
   9   5   2  123.63   10.22
   9   5   2  142.71   10.03
   9   5   2  157.85   11.29
  -9   7   2  166.79   13.51
  -9   7  -2  165.22   13.47
   9   7   2  130.19   11.67
   9   7   2  162.65   11.98
   9   7   2  195.18   13.58
   9   7   2  161.94   12.22
   9   7  -2  177.85   13.20
   9   9   2   75.48    7.34
   9   9   2   65.16    7.62
   9   9   2   93.15    8.58
  -9   9   2   76.26    8.35
   9   9   2   77.67    7.57
   9   9  -2   91.43    8.75
  -9   9  -2   81.45    8.73
   9  11   2   52.29    5.85
   9  11   2   42.55    5.90
   9  11   2   49.29    6.35
  -9  11   2   57.58    6.96
  -9  11  -2   49.57    6.76
   9  11   2   49.16    6.00
   9  11  -2   65.44    7.24
   9  13   2  141.35   11.15
   9  13   2  134.99   11.68
   9  13   2  151.39   11.83
  -9  13   2  133.88   12.16
  -9  13  -2  149.15   12.73
   9  13   2  142.40   11.85
   9  13  -2  167.19   13.25
   9  15  -2   49.83    7.22
   9  15   2   34.68    6.04
   9  15   2   37.43    5.30
   9  15   2   53.99    6.38
  -9  15   2   29.27    5.81
  -9  15  -2   32.28    6.32
   9  15   2   38.86    5.64
   9  17   2    2.36    3.69
   9  17  -2    0.47    4.29
   9  17   2    1.27    3.14
  -9  17   2   -0.83    3.29
  -9  17  -2    3.59    3.68
   9  17   2    0.60    3.07
   9  19   2   31.11    6.33
   9  19  -2   48.60    7.91
   9  19   2   42.60    6.38
  -9  19   2   32.23    6.38
  -9  19  -2   36.22    6.82
   9  21   2   29.46    5.82
  10 -16   2    4.00    3.45
 -10 -14  -2   10.43    5.43
  10 -14  -2   11.27    3.95
  10 -14   2   12.45    4.08
  10 -12  -2   36.94    5.73
  10 -12   2   52.05    6.53
 -10 -12   2   39.77    5.15
 -10 -10  -2  281.47   19.94
 -10 -10   2  309.11   20.64
  10 -10   2  313.64   19.11
  10 -10  -2  255.06   18.39
 -10 -10   2  248.65   17.20
 -10  -8  -2  145.60   13.04
 -10  -8   2  161.18   13.71
  10  -8  -2  152.84   12.28
  10  -8   2  175.56   12.53
  10  -6  -2  266.63   20.02
  10  -6   2  334.09   20.70
  10  -6  -2  341.25   18.50
 -10  -6  -2  292.31   21.43
 -10  -6   2  297.10   21.75
  10  -4   2   95.51    7.25
  10  -4   2  125.64   10.10
  10  -4  -2   97.79    9.46
 -10  -4  -2  116.69   10.98
 -10  -4   2  129.34   11.65
  10  -4  -2  155.88    8.71
  10  -2   2  118.04    8.56
  10  -2  -2  109.77   10.56
  10  -2   2  126.98   10.93
 -10  -2  -2  143.61   12.44
 -10  -2   2  137.94   12.53
 -10   0   2  258.38   19.01
  10   0  -2  206.95   16.89
  10   0   2  214.18   16.84
 -10   0  -2  230.67   18.23
  10   2  -2  197.99   12.02
 -10   2  -2  132.88   12.86
 -10   2   2  155.29   13.56
  10   2   2  128.57   11.94
 -10   2   2  170.78    9.83
  10   4  -2  140.65    9.90
 -10   4   2  123.16   11.47
 -10   4  -2  124.85   11.32
 -10   6   2  320.21   22.36
 -10   6  -2  307.41   22.15
  10   6   2  269.68   20.18
  10   6   2  355.04   20.91
  10   6   2  317.42   20.84
  10   6  -2  371.41   22.33
 -10   8   2  170.84   14.35
 -10   8  -2  168.87   14.36
  10   8   2  166.53   12.53
  10   8   2  148.94   12.82
  10   8   2  206.80   14.25
  10   8   2  167.35   12.94
  10   8  -2  185.44   14.10
  10  10   2  311.15   19.77
  10  10   2  266.92   19.89
  10  10   2  359.65   21.35
  10  10   2  296.67   20.19
  10  10  -2  355.25   21.92
 -10  10   2  269.72   21.14
 -10  10  -2  313.89   22.04
  10  12   2   51.44    6.03
  10  12   2   49.13    6.30
  10  12   2   51.76    6.71
  10  12   2   54.90    6.65
  10  12  -2   49.16    7.05
 -10  12   2   40.39    6.73
 -10  12  -2   39.29    6.78
  10  14   2    9.84    3.77
  10  14  -2   13.27    4.98
  10  14   2   12.10    3.57
  10  14   2   14.41    3.91
  10  14   2   15.27    4.33
 -10  14   2    9.95    4.28
 -10  14  -2   13.66    4.96
  10  16   2   11.54    4.28
  10  16  -2    6.67    4.75
  10  16   2    6.58    3.15
 -10  16   2    6.27    3.94
 -10  16  -2    4.76    3.86
  10  16   2    3.51    3.60
  10  18   2   13.39    4.04
  11 -15   2  207.98   14.46
  11 -13  -2   17.34    4.82
  11 -13   2   17.89    4.06
 -11 -11  -2  127.19   11.90
 -11 -11   2  128.36   12.31
  11 -11  -2  100.50   10.10
  11 -11   2  131.03   10.25
 -11  -9  -2    4.49    3.64
  11  -9  -2    3.63    3.04
  11  -9   2    6.49    3.37
 -11  -9   2    1.89    3.39
  11  -7   2  172.67   12.39
  11  -7  -2  132.51   11.93
 -11  -7  -2  160.09   13.78
 -11  -7   2  166.18   14.24
  11  -5  -2  136.75   12.17
  11  -5   2  159.58   12.24
 -11  -5  -2  177.14   14.53
 -11  -5   2  187.02   15.02
  11  -3  -2  124.29   11.24
  11  -3   2  147.66   11.49
 -11  -3  -2  132.90   12.68
 -11  -3   2  158.77   13.92
  11  -1  -2  250.40   13.18
  11  -1   2  164.67   11.32
  11  -1  -2  144.23   13.14
 -11  -1  -2  202.92   15.89
 -11  -1   2  207.60   16.23
  11  -1   2  157.86   13.20
 -11   1  -2  190.29   15.88
  11   1  -2  156.24   13.91
  11   1   2  159.92   13.58
 -11   1   2  195.61   16.22
 -11   3  -2  159.53   14.72
 -11   3   2  164.48   15.03
  11   3   2  133.64   12.50
 -11   5   2  181.78   15.37
 -11   5  -2  174.96   15.08
 -11   7   2  178.10   15.00
 -11   7  -2  168.94   14.85
  11   7   2  161.77   13.18
  11   7   2  184.99   13.12
  11   7   2  159.38   13.20
  11   7  -2  210.63   15.05
 -11   9   2    0.46    3.64
 -11   9  -2    1.88    3.71
  11   9   2    5.98    3.20
  11   9  -2    5.59    4.04
  11   9   2    0.54    2.78
  11   9   2    2.51    3.12
  11  11   2  125.71    9.90
  11  11   2   99.86    9.92
  11  11   2  146.61   11.47
  11  11   2  111.41   10.27
  11  11  -2  132.42   11.74
 -11  11   2  107.86   11.63
 -11  11  -2  101.79   11.56
 -11  13   2   11.56    4.57
 -11  13  -2   13.07    5.05
  11  13   2   20.26    4.98
  11  13  -2   21.48    5.85
  11  13   2   19.69    4.10
  11  13   2   25.15    4.79
  11  13   2   19.89    4.73
 -11  15   2  180.68   16.61
 -11  15  -2  204.53   17.56
  11  15   2  212.99   16.40
  12 -14   2    6.66    3.21
 -12 -12  -2   96.12   11.16
  12 -12   2  113.97    9.40
  12 -10  -2    9.82    3.86
 -12 -10  -2   17.66    5.33
 -12 -10   2   16.53    5.49
  12 -10   2    8.17    3.44
 -12  -8  -2   86.23    9.56
 -12  -8   2   64.44    8.89
  12  -8  -2   60.50    7.58
  12  -8   2   75.84    7.57
 -12  -6  -2   24.49    5.80
 -12  -6   2   24.18    6.15
  12  -6  -2   14.65    4.12
  12  -6   2   20.98    4.60
  12  -4  -2    1.38    2.87
 -12  -4  -2   -0.50    3.64
 -12  -4   2    0.52    3.81
  12  -4   2   -2.02    3.47
 -12  -2  -2    8.69    4.57
 -12  -2   2    8.52    4.10
  12  -2  -2    2.50    3.13
  12  -2   2    2.02    2.98
  12   0  -2  391.35   27.51
 -12   0  -2  497.77   30.79
 -12   0   2  535.52   31.52
  12   0   2  417.01   26.69
  12   2  -2    3.37    3.09
 -12   2  -2    9.82    4.72
 -12   2   2   11.11    4.40
  12   2   2    5.67    3.24
 -12   4  -2    4.05    4.04
 -12   4   2   -1.02    4.09
  12   4   2    0.31    2.85
  12   6  -2   16.56    4.87
 -12   6   2   18.53    5.85
 -12   6  -2   15.44    5.23
 -12   8   2   84.35   10.16
 -12   8  -2   75.58   10.05
  12   8   2  101.10    8.60
  12   8   2   82.49    8.43
  12   8   2   79.13    8.69
  12   8  -2  104.81   10.20
 -12  10   2   14.36    5.07
 -12  10  -2   10.51    5.02
  12  10   2   14.66    4.62
  12  10  -2    8.58    4.68
  12  10   2   17.77    3.91
  12  10   2   14.01    4.28
 -12  12   2  106.07   12.11
 -12  12  -2  116.49   12.58
  12  12   2  108.70   10.58
  12  12  -2  132.15   12.26
  13 -11   2   44.95    5.85
 -13  -9  -2  121.48   12.98
 -13  -9   2  144.08   14.27
  13  -9   2  132.84   10.60
 -13  -7  -2    0.53    4.20
  13  -7  -2    3.31    3.45
 -13  -7   2    7.18    5.13
  13  -7   2    0.27    3.18
  13  -5  -2   46.65    6.54
  13  -5   2   38.17    5.62
 -13  -5  -2   75.76    9.56
 -13  -5   2   62.32    9.15
  13  -3  -2  287.42   20.96
  13  -3   2  281.33   19.65
 -13  -3  -2  372.64   24.78
 -13  -3   2  389.34   25.43
  13  -1  -2   48.46    6.92
  13  -1   2   47.66    6.17
 -13  -1   2   63.00    9.11
 -13   1  -2   64.04    9.02
  13   1  -2   47.34    6.84
  13   1   2   44.49    6.14
 -13   3  -2  399.64   25.69
 -13   3   2  379.38   25.49
  13   3  -2  297.68   21.92
  13   3   2  288.40   20.53
 -13   5  -2   67.18    9.39
 -13   5   2   53.03    8.87
  13   5   2   57.11    6.65
  13   7   2    2.23    3.19
  13   7  -2    0.44    4.20
 -13   7   2   -2.25    4.77
 -13   7  -2    3.40    4.96
 -13   9   2  130.47   13.78
 -13   9  -2  150.93   14.52
  13   9   2  130.20   12.05
  13   9  -2  154.69   13.43
  14 -10   2  124.72    9.77
  14  -8   2    0.95    3.05
 -14  -6   2   10.79    5.80
  14  -6   2   13.12    3.83
  14  -4   2   47.92    5.97
 -14  -4  -2   50.12    8.97
 -14  -4   2   56.53    9.91
 -14  -2  -2   41.91    8.16
 -14  -2   2   46.51    8.86
  14  -2   2   31.77    5.31
 -14   0  -2   74.85   10.30
  14   0   2   52.64    6.51
 -14   0   2   65.18   10.30
 -14   2  -2   40.32    8.26
 -14   2   2   37.89    8.24
 -14   4  -2   61.05    9.65
 -14   4   2   61.00   10.10
  14   6   2   18.30    5.21
 -14   6   2   21.15    6.38
   0 -22  -3   42.31    8.83
   0 -20  -3  225.44   20.98
   0 -18  -3   23.53    6.48
   0 -16  -3    4.42    3.92
   0 -14  -3  246.96   20.86
   0 -14  -3  284.92   17.20
   0 -12  -3   29.14    5.71
   0 -12  -3   29.72    3.52
   0 -12   3   25.69    3.20
   0 -10  -3  192.77   15.43
   0 -10  -3  218.71   12.51
   0 -10   3  182.60   11.95
   0  -8   3  405.02   23.70
   0  -8  -3  376.00   24.03
   0  -8  -3  405.47   21.24
   0  -8   3  344.97   20.74
   0  -6   3  331.98   21.16
   0  -4   3    7.26    2.62
   0  -2   3   11.35    2.10
   0  -2  -3   20.41    2.47
   0  -2   3   19.57    3.61
   0  -2   3   14.47    3.00
   0   0   3  116.63    9.61
   0   0   3  110.18    9.08
   0   0   3   96.18    7.60
   0   2  -3   17.32    2.13
   0   2  -3   14.99    3.19
   0   2   3   12.46    3.35
   0   2   3   20.65    3.48
   0   2   3   16.34    2.47
   0   4   3    5.26    1.66
   0   4  -3    6.96    1.53
   0   4   3    4.96    1.89
   0   4   3    3.82    2.43
   0   6  -3  324.91   18.31
   0   6   3  354.01   20.29
   0   6  -3  336.23   19.28
   0   6   3  329.11   18.33
   0   6  -3  326.76   18.35
   0   6   3  299.98   22.18
   0   6   3  347.05   18.64
   0   6  -3  340.35   18.49
   0   8   3  428.24   23.11
   0   8  -3  414.54   23.02
   0   8  -3  423.61   22.90
   0   8   3  382.43   22.56
   0   8   3  422.09   24.49
   0  10   3  245.37   14.28
   0  10  -3  248.84   14.22
   0  10   3  224.94   13.74
   0  10  -3  235.15   14.16
   0  10   3  195.10   17.64
   0  12  -3   35.57    3.96
   0  12   3   33.43    3.74
   0  12   3   38.18    4.05
   0  12  -3   33.82    3.89
   0  14  -3  339.21   19.48
   0  14   3  296.20   18.63
   0  14   3  305.18   19.97
   0  16  -3    9.77    2.97
   0  16   3    9.49    2.52
   0  16   3    2.02    1.94
   0  18  -3   34.82    5.19
   0  18   3   33.24    4.60
   0  20  -3  351.79   22.10
   0  20   3  315.51   20.92
   0  22  -3   83.59    8.61
   0  22   3   64.46    7.37
   1 -23  -3    0.79    4.23
  -1 -21  -3    7.81    5.41
   1 -21  -3    2.25    4.24
  -1 -19  -3   10.96    5.16
   1 -19  -3    6.30    4.36
  -1 -17  -3  212.17   18.43
   1 -17  -3  163.19   16.60
  -1 -15  -3   24.84    6.18
   1 -15  -3   20.22    5.44
   1 -13  -3   34.88    6.38
  -1 -13  -3   58.23    8.17
  -1 -13  -3   58.93    5.25
  -1 -13   3   46.71    4.60
   1 -13  -3   44.07    4.61
   1 -13   3   38.10    4.26
  -1 -11  -3    7.12    3.30
   1 -11  -3    3.31    2.47
  -1 -11  -3    6.00    2.00
  -1 -11   3    8.66    2.03
   1 -11  -3    7.14    1.94
   1 -11   3    3.95    1.51
  -1  -9   3  346.59   18.91
  -1  -9  -3  319.26   20.47
   1  -9  -3  293.28   19.18
  -1  -9   3  286.87   16.23
   1  -9  -3  273.08   16.14
   1  -9   3  238.40   15.81
  -1  -7  -3   11.24    3.25
   1  -7  -3    6.65    2.33
   1  -7  -3    5.23    1.26
   1  -7   3    5.46    1.21
  -1  -7   3    3.06    2.16
   1  -7   3    5.05    2.42
   1  -5   3   39.62    5.04
   1  -5   3   33.43    2.49
   1  -3  -3  268.01   15.37
  -1  -3   3  258.49   17.15
   1  -3   3  260.07   17.57
  -1  -3   3  242.08   16.18
   1  -3   3  219.83   16.68
   1  -1  -3   38.07    3.54
  -1  -1   3   31.11    4.45
   1  -1   3   32.40    4.82
  -1  -1   3   31.97    4.26
   1  -1   3   42.26    4.91
   1  -1   3   28.82    3.46
  -1  -1   3   27.89    2.92
  -1   1   3   37.74    3.34
  -1   1  -3   34.13    2.86
   1   1  -3   36.70    3.50
  -1   1   3   29.29    4.47
   1   1   3   35.53    4.95
  -1   1   3   35.13    4.51
   1   1   3   32.46    4.45
   1   1   3   27.88    3.56
  -1   3   3  269.72   14.71
  -1   3  -3  269.06   13.97
   1   3  -3  237.94   14.80
   1   3   3  243.92   14.85
   1   3  -3  223.56   15.96
  -1   3   3  208.71   16.44
   1   3   3  243.38   17.04
   1   3   3  257.20   16.75
   1   3   3  238.09   15.54
  -1   5  -3   39.00    2.69
   1   5   3   42.23    4.48
  -1   5   3   50.53    4.21
   1   5  -3   35.94    2.71
   1   5   3   39.06    2.95
   1   5  -3   37.35    2.63
   1   5   3   36.12    2.41
  -1   5  -3   42.71    3.10
   1   5  -3   36.33    3.78
  -1   5   3   42.48    4.44
  -1   5   3   31.22    5.12
   1   5  -3   30.37    4.40
  -1   5   3   40.22    2.77
   1   5   3   40.61    4.04
  -1   5  -3   39.19    2.79
  -1   5   3   37.77    2.69
  -1   7   3    5.05    1.26
   1   7   3    6.36    1.61
   1   7  -3    7.23    1.54
   1   7   3    5.73    2.18
   1   7  -3    7.03    1.36
   1   7   3    5.20    1.10
  -1   7   3    8.96    1.48
   1   7   3    5.72    1.91
  -1   7   3    6.04    2.35
  -1   7  -3    7.78    1.50
  -1   7  -3    5.55    1.36
  -1   7   3    4.09    2.99
   1   9   3  454.96   21.83
   1   9  -3  315.09   18.54
   1   9   3  287.33   18.12
  -1   9  -3  328.23   18.50
  -1   9   3  319.57   18.30
   1   9   3  323.68   19.77
  -1   9   3  323.08   18.55
  -1   9  -3  341.80   18.81
  -1   9   3  226.68   21.54
  -1   9  -3  314.17   20.08
   1   9   3  357.57   19.10
   1   9  -3  343.28   18.83
   1  11  -3    8.89    2.10
   1  11   3    7.37    1.84
  -1  11   3    4.76    1.73
   1  11   3   11.44    2.39
  -1  11  -3    9.96    2.22
  -1  11   3   13.15    3.16
   1  11   3   11.82    3.75
  -1  11  -3    8.53    2.65
   1  11  -3    7.67    2.06
   1  13   3   62.07    5.62
   1  13  -3   63.10    5.65
   1  13  -3   55.69    5.47
   1  13   3   48.97    4.92
  -1  13  -3   61.94    5.56
  -1  13   3   59.53    5.17
  -1  13   3   69.04    6.56
   1  13   3   56.59    6.42
   1  15  -3   39.39    4.77
   1  15   3   31.12    4.01
  -1  15  -3   32.53    4.22
  -1  15   3   32.51    4.00
  -1  15   3   27.16    4.26
   1  15   3   25.58    4.40
   1  17   3  238.61   14.54
  -1  17  -3  239.97   14.96
  -1  17   3  213.86   14.12
   1  19  -3   13.69    3.82
   1  19   3   11.66    2.94
  -1  19  -3   12.33    3.67
  -1  19   3    9.20    3.07
   1  21  -3   15.19    4.50
   1  21   3   15.25    4.03
  -1  21  -3   14.33    4.25
  -1  21   3    8.32    3.42
   1  23  -3   -0.80    3.96
  -1  23  -3    2.66    3.90
  -2 -22  -3   11.36    5.89
   2 -22  -3    0.73    3.82
  -2 -22   3    6.71    3.98
  -2 -20  -3   -0.77    4.74
   2 -20  -3   -0.69    3.36
  -2 -20   3    1.14    3.10
  -2 -18  -3   10.74    5.37
   2 -18  -3    8.34    4.39
  -2 -16  -3   11.19    4.88
   2 -16  -3    9.98    4.30
   2 -14  -3  131.68    9.72
  -2 -14  -3  139.32   14.03
  -2 -14  -3  155.27   10.55
   2 -12  -3   23.76    3.26
   2 -12   3   27.36    3.35
  -2 -12  -3   27.49    6.03
   2 -12  -3   19.58    4.51
   2 -10  -3   96.09    7.18
   2 -10   3   94.58    7.08
  -2 -10  -3  121.89   11.32
   2 -10  -3  111.30    9.59
   2  -8  -3   31.59    3.11
   2  -8   3   27.46    2.93
  -2  -8  -3   41.05    5.92
  -2  -8   3   45.31    4.91
   2  -8  -3   42.77    4.74
   2  -6  -3  416.93   24.10
   2  -6   3  374.58   23.94
   2  -6  -3  611.24   26.91
  -2  -6   3  718.56   28.50
   2  -6   3  456.20   27.78
   2  -4   3  409.51   25.23
   2  -4  -3  665.44   28.42
  -2  -4   3  639.90   28.94
   2  -4   3  471.85   29.22
   2  -4  -3  496.63   25.26
   2  -2   3    2.06    1.61
  -2  -2   3    1.38    0.83
   2  -2  -3    1.63    1.44
  -2  -2   3    3.16    2.16
   2  -2   3    3.54    2.51
  -2  -2   3    1.13    1.72
   2  -2   3    1.55    2.22
  -2   0   3  352.67   19.50
   2   0  -3  348.47   20.87
  -2   0   3  390.48   22.74
  -2   0   3  356.50   22.12
   2   0   3  371.80   22.81
   2   0   3  356.20   21.31
   2   2   3    1.04    1.58
  -2   2   3    3.21    1.05
   2   2  -3    2.15    1.45
  -2   2   3    1.65    1.87
   2   2   3    2.71    2.22
   2   4  -3  497.78   27.19
   2   4   3  475.13   26.91
  -2   4   3  553.27   27.45
  -2   4  -3  523.74   27.49
   2   4   3  537.65   28.65
   2   4  -3  520.38   29.26
   2   4  -3  563.77   30.08
  -2   4   3  546.90   31.60
   2   4  -3  505.75   27.16
   2   4   3  526.41   27.48
   2   6   3  662.03   33.72
   2   6  -3  496.11   30.85
   2   6   3  479.56   30.56
   2   6   3  625.84   31.61
   2   6  -3  559.73   31.19
  -2   6  -3  648.43   30.16
   2   6   3  575.56   32.10
  -2   6   3  705.73   33.75
  -2   6   3  499.85   34.81
   2   6  -3  545.44   32.91
   2   6   3  635.48   34.39
  -2   6   3  564.75   31.23
  -2   6  -3  560.42   31.22
   2   8   3   54.03    5.54
   2   8  -3   38.21    3.74
   2   8   3   34.08    3.38
  -2   8  -3   49.02    3.14
   2   8   3   54.02    4.48
   2   8  -3   48.87    4.16
   2   8   3   37.71    5.95
   2   8  -3   43.93    4.97
  -2   8   3   43.61    3.90
  -2   8  -3   42.72    3.98
  -2   8   3   28.53    5.73
   2   8   3   38.59    4.31
   2   8   3   50.72    5.87
   2  10  -3  127.44    9.17
   2  10   3  115.25    8.64
  -2  10  -3  147.08    9.23
   2  10   3  121.31    9.67
   2  10   3  179.39   12.92
  -2  10   3  139.57    9.21
   2  10   3  125.44   12.17
  -2  10  -3  147.30    9.53
   2  10   3  151.90    9.78
   2  10  -3  129.99    9.27
   2  12  -3   30.85    3.94
   2  12   3   28.71    3.55
  -2  12  -3   36.57    3.97
  -2  12   3   37.31    3.83
   2  12   3   35.16    5.21
  -2  12   3   49.26    5.29
  -2  12   3   30.36    3.79
  -2  12  -3   34.24    4.08
   2  12   3   32.19    6.20
   2  12   3   35.73    4.34
   2  12  -3   32.30    4.03
   2  14  -3  185.46   12.26
   2  14   3  166.85   11.43
  -2  14  -3  169.85   11.60
  -2  14   3  160.49   11.19
  -2  14  -3  169.58   11.97
  -2  14   3  172.31   11.89
   2  14   3  176.15   15.61
   2  14   3  129.33   11.92
   2  14  -3  183.62   11.94
   2  16  -3   12.73    3.53
   2  16   3   10.27    2.81
  -2  16  -3   14.93    3.34
  -2  16   3   15.40    2.95
   2  16   3    8.72    2.95
   2  18  -3   11.01    3.70
  -2  18  -3    8.63    3.20
  -2  18   3    7.91    2.89
   2  20  -3    1.71    3.41
   2  20   3    0.84    2.77
  -2  20  -3    1.89    2.98
  -2  20   3    2.15    2.54
   2  22  -3    7.69    4.46
   2  22   3    6.91    3.69
  -2  22  -3    2.83    3.55
  -2  22   3    2.68    2.90
   3 -23  -3   15.16    5.60
  -3 -23   3   32.43    6.17
  -3 -21   3  470.76   25.30
  -3 -21  -3  413.63   29.73
  -3 -19  -3   35.41    8.07
   3 -19  -3   17.60    5.49
  -3 -19   3   28.18    5.21
  -3 -17   3   32.03    5.02
  -3 -17  -3   32.26    7.50
   3 -17  -3   20.75    5.39
  -3 -15   3  316.00   19.37
  -3 -15  -3  364.39   25.15
   3 -13  -3  415.12   22.08
  -3 -13  -3  472.98   28.78
   3 -11  -3   31.56    3.65
   3 -11   3   36.27    3.80
  -3 -11  -3   33.60    6.39
   3 -11  -3   27.60    4.84
   3  -9  -3  231.95   14.76
   3  -9   3  213.19   14.56
   3  -9  -3  255.74   16.59
   3  -7  -3  280.57   18.76
   3  -7   3  276.24   18.72
   3  -7  -3  431.89   21.51
  -3  -7   3  502.82   21.90
   3  -7  -3  429.74   20.37
   3  -5   3   15.64    1.85
   3  -5  -3   17.07    1.91
   3  -5  -3   23.52    3.46
  -3  -5   3   19.04    3.14
   3  -5   3   21.55    4.31
   3  -3   3   24.91    2.19
   3  -3  -3   27.84    2.24
   3  -3  -3   32.62    3.76
  -3  -3   3   44.03    4.87
  -3  -3   3   37.77    4.26
  -3  -3   3   29.36    2.20
   3  -3   3   25.73    4.60
   3  -1   3  693.99   39.99
   3  -1  -3  776.71   40.03
   3  -1  -3  800.98   42.52
  -3  -1   3  956.07   44.19
   3  -1   3  913.03   45.36
   3  -1   3  877.55   43.14
   3  -1   3  696.59   40.06
   3  -1  -3  877.42   40.32
   3   1   3  723.90   40.83
   3   1  -3  809.27   41.11
  -3   1   3  799.70   40.97
   3   1   3  785.74   40.80
   3   1  -3  778.17   40.84
   3   1  -3  791.44   43.38
  -3   1   3  880.29   44.79
   3   1   3  931.63   44.31
  -3   1  -3  778.52   41.13
   3   3   3   27.63    2.31
   3   3  -3   27.64    2.51
  -3   3  -3   31.66    2.82
  -3   3   3   32.20    2.78
   3   3   3   35.63    3.11
   3   3  -3   29.93    3.86
  -3   3   3   28.37    4.47
   3   3   3   36.30    5.23
   3   3  -3   32.53    2.48
   3   3   3   33.22    2.70
   3   3   3   33.80    4.43
   3   5   3   27.27    3.97
   3   5  -3   23.55    2.48
  -3   5   3   19.36    2.46
   3   5   3   23.82    2.65
  -3   5  -3   18.12    2.38
   3   5   3   16.75    1.93
   3   5  -3   18.84    2.19
   3   5  -3   19.26    3.16
  -3   5   3   23.09    4.42
   3   5   3   21.48    4.14
   3   5   3   20.21    2.67
   3   5   3   22.57    4.10
   3   7   3  486.36   25.04
   3   7  -3  366.96   22.14
   3   7   3  313.27   21.55
   3   7   3  443.34   22.95
   3   7  -3  414.71   22.51
   3   7   3  365.08   22.55
   3   7   3  497.45   25.69
  -3   7   3  371.10   26.12
   3   7  -3  406.02   28.50
   3   7   3  406.26   25.59
   3   7   3  442.27   25.03
  -3   7   3  415.24   22.52
  -3   7  -3  404.34   22.53
   3   9  -3  280.35   17.26
   3   9   3  248.93   16.58
   3   9   3  244.55   17.28
   3   9   3  327.17   17.96
   3   9  -3  319.00   17.61
   3   9   3  384.75   21.75
   3   9   3  307.04   20.79
   3   9  -3  237.52   17.53
  -3   9   3  318.13   17.51
  -3   9  -3  301.86   17.53
   3   9   3  308.47   19.41
   3  11  -3   51.43    5.03
   3  11   3   42.43    4.44
  -3  11  -3   50.26    3.23
   3  11   3   45.84    6.90
   3  11   3   49.74    5.14
   3  11  -3   44.64    4.84
  -3  11   3   45.68    4.68
  -3  11  -3   48.36    5.01
   3  11   3   48.85    6.05
   3  11   3   33.82    5.44
   3  13  -3  532.20   29.74
   3  13   3  464.13   28.69
  -3  13  -3  526.79   29.31
  -3  13  -3  505.38   27.22
  -3  13   3  472.24   29.14
   3  13   3  527.03   33.31
   3  13   3  394.50   29.79
  -3  13  -3  511.46   29.65
   3  13  -3  518.98   29.50
   3  13   3  455.39   30.47
   3  15  -3  426.73   23.46
   3  15   3  364.23   22.17
  -3  15  -3  404.15   22.78
  -3  15   3  415.04   22.54
  -3  15   3  363.25   22.51
  -3  15  -3  397.35   23.29
   3  15   3  392.94   26.75
   3  17  -3   40.26    5.62
   3  17   3   36.74    4.84
  -3  17  -3   39.69    5.11
  -3  17   3   30.84    4.36
  -3  17  -3   29.49    4.90
  -3  17   3   29.31    4.56
   3  17   3   18.59    4.07
   3  19  -3   50.86    6.75
   3  19   3   43.84    5.79
  -3  19  -3   42.30    5.78
  -3  19  -3   32.92    5.62
  -3  19   3   30.62    4.87
  -3  19   3   45.57    5.81
   3  21   3  544.97   30.24
  -3  21  -3  496.11   30.22
  -3  21   3  451.61   29.18
  -3  21   3  392.61   29.24
  -3  21  -3  452.35   30.51
  -3  23  -3   30.97    6.12
   3  23  -3   35.51    6.61
  -3  23  -3   27.41    5.63
   4 -22  -3    6.71    4.17
  -4 -20  -3    2.36    4.87
   4 -20  -3    2.49    3.06
  -4 -20   3    4.39    3.30
  -4 -18   3  127.21   10.17
  -4 -18  -3  124.34   13.97
  -4 -16  -3   26.02    7.04
   4 -16  -3   19.54    5.21
  -4 -16   3   24.07    4.34
  -4 -14  -3    1.96    3.69
   4 -14  -3    0.45    2.36
  -4 -14   3    1.80    2.14
  -4 -12  -3    3.55    3.74
   4 -12  -3    1.16    2.01
   4 -12  -3    3.97    1.76
  -4 -12   3    2.39    1.89
  -4 -10  -3   10.16    4.08
   4 -10  -3    6.85    2.45
   4 -10   3    8.78    2.01
   4 -10  -3    6.98    1.96
  -4 -10   3    8.35    2.16
   4  -8   3   29.29    3.41
   4  -8  -3   36.21    3.65
  -4  -8   3   40.47    3.72
   4  -8  -3   36.88    4.80
   4  -8  -3   39.61    4.06
  -4  -6   3  382.58   20.47
   4  -6   3  330.13   20.63
   4  -6  -3  348.75   20.69
   4  -6  -3  396.31   22.92
   4  -6   3  379.06   24.82
   4  -4   3   22.09    2.33
   4  -4  -3   20.05    2.19
   4  -4  -3   24.09    3.48
  -4  -4   3   20.43    3.30
   4  -4   3   23.47    4.52
   4  -2   3   -0.23    1.89
   4  -2   3    1.21    0.89
   4  -2  -3    1.42    0.90
   4  -2  -3    3.22    1.88
  -4  -2   3    0.47    1.96
   4  -2   3   -0.34    2.37
   4   0   3   44.71    3.29
   4   0  -3   45.50    3.34
   4   0  -3   45.64    4.97
  -4   0   3   45.71    5.16
   4   0   3   52.20    6.26
   4   0   3   39.99    5.01
   4   0   3   41.27    3.45
   4   0  -3   53.72    3.94
  -4   0  -3   44.88    3.73
  -4   0   3   44.50    3.64
  -4   2   3    1.17    1.24
   4   2   3   -0.50    1.94
   4   2   3    1.96    0.97
   4   2  -3    1.08    1.08
   4   2   3    0.29    0.81
   4   2  -3    0.68    1.91
   4   2  -3    1.84    1.01
   4   2   3    0.92    1.06
  -4   2   3    0.26    2.03
   4   2   3    0.33    2.46
  -4   2  -3    0.65    1.17
   4   4   3   18.19    2.26
   4   4  -3   25.57    2.85
  -4   4   3   29.48    3.18
  -4   4  -3   26.28    3.03
   4   4   3   17.72    2.32
   4   4  -3   22.47    3.78
  -4   4   3   17.49    3.86
   4   4   3   24.77    4.49
   4   4  -3   26.09    2.70
   4   4   3   20.73    4.17
   4   4   3   24.28    2.83
   4   6   3  348.47   21.52
   4   6  -3  439.62   22.50
   4   6  -3  376.01   22.08
   4   6   3  423.05   22.66
   4   6   3  331.29   21.75
   4   6   3  459.18   25.30
   4   6  -3  399.18   22.73
  -4   6   3  358.86   25.17
   4   6   3  402.67   24.93
   4   6   3  426.17   24.67
  -4   6   3  405.04   22.62
  -4   6  -3  364.74   22.42
   4   8   3   35.57    3.76
   4   8  -3   37.72    4.17
   4   8   3   41.89    4.53
   4   8  -3   42.32    4.31
   4   8   3   34.53    4.12
   4   8   3   51.94    6.84
   4   8  -3   44.19    4.59
   4   8   3   42.31    5.98
   4   8   3   44.33    5.54
  -4   8   3   41.97    4.38
  -4   8  -3   42.09    4.40
   4  10   3    5.92    2.04
   4  10  -3    8.10    2.52
   4  10   3    4.75    2.03
   4  10   3    9.23    3.75
  -4  10   3    8.38    2.20
   4  10  -3    7.76    2.43
  -4  10  -3   10.12    2.49
   4  10   3    8.13    3.18
   4  10   3   11.40    2.68
   4  10  -3   12.73    2.77
   4  10   3   15.71    3.74
   4  12  -3    3.23    2.09
   4  12  -3    7.38    2.57
   4  12   3    2.16    1.73
  -4  12  -3    3.25    0.75
  -4  12   3    4.86    2.35
  -4  12  -3    5.50    2.52
   4  12   3    3.60    3.32
   4  12  -3    5.34    2.68
   4  12   3    1.96    2.56
   4  12   3    3.78    2.88
   4  14  -3    0.85    2.48
   4  14   3    1.13    2.18
  -4  14   3    2.29    2.23
  -4  14  -3    1.68    2.47
   4  14   3    2.89    3.33
   4  14   3    5.15    2.73
   4  14   3   -0.98    2.67
   4  16  -3   40.72    5.68
   4  16   3   33.20    4.64
  -4  16   3   30.03    4.62
  -4  16  -3   42.41    5.41
   4  16   3   39.42    7.05
   4  16   3   21.57    4.38
   4  16   3   34.06    5.45
   4  18  -3  160.68   12.22
   4  18   3  143.59   11.01
  -4  18  -3  158.45   11.67
  -4  18   3  146.18   11.03
   4  18   3  155.04   14.42
  -4  18   3  122.24   10.92
  -4  18  -3  132.88   11.49
   4  18   3  104.38   10.14
   4  18   3  141.00   11.83
   4  20  -3    0.77    3.75
   4  20   3    1.89    3.11
  -4  20   3    1.37    2.87
  -4  20  -3    2.75    3.44
  -4  20  -3    0.68    3.21
  -4  20   3   -0.90    2.80
   4  20   3    1.44    3.19
   4  22  -3   11.29    5.05
  -4  22   3   13.85    4.34
  -4  22  -3   10.88    4.45
  -4  22  -3   19.34    5.14
  -5 -19  -3    9.46    5.90
   5 -19  -3    2.27    2.78
   5 -17  -3  127.75   13.98
  -5 -17  -3  367.98   23.54
  -5 -15  -3    7.04    5.42
   5 -15  -3    2.73    2.64
  -5 -15   3    4.82    2.51
  -5 -13   3   53.99    5.30
  -5 -13  -3   65.64    9.40
  -5 -11   3   94.20    6.89
   5 -11  -3   88.57    6.98
  -5 -11  -3  108.86   11.69
  -5  -9   3  382.96   21.92
   5  -9   3  334.54   21.98
   5  -9  -3  349.46   22.03
   5  -9  -3  411.68   24.25
   5  -9  -3  361.39   22.62
  -5  -7   3  184.86   11.08
   5  -7   3  170.60   11.69
   5  -7  -3  183.42   11.75
   5  -7  -3  185.34   13.36
   5  -5   3   23.60    2.63
   5  -5  -3   18.86    2.44
   5  -5  -3   19.81    3.45
  -5  -5   3   26.81    3.39
   5  -5   3   25.53    5.04
   5  -3   3  526.52   29.95
   5  -3  -3  535.44   29.90
  -5  -3  -3  553.72   30.65
  -5  -3   3  573.92   30.70
   5  -3  -3  569.81   32.18
   5  -3   3  617.16   34.66
   5  -1   3   32.15    2.93
   5  -1  -3   29.69    2.86
   5  -1  -3   33.99    4.36
  -5  -1   3   38.58    4.51
   5  -1   3   32.44    5.25
  -5  -1  -3   29.32    3.34
  -5  -1   3   30.33    3.39
   5   1  -3   31.89    4.41
  -5   1  -3   32.05    3.63
   5   1  -3   33.47    3.15
  -5   1   3   33.39    4.35
  -5   1   3   32.18    3.66
   5   1   3   31.54    3.25
   5   1   3   35.29    5.33
   5   1   3   32.56    5.33
   5   1   3   28.68    3.03
   5   1  -3   33.66    3.62
  -5   3  -3  513.30   30.66
  -5   3   3  544.41   30.92
   5   3   3  484.28   29.12
   5   3  -3  485.21   31.54
  -5   3   3  589.96   32.48
   5   3   3  599.68   33.50
   5   3  -3  538.66   29.94
   5   3   3  696.93   34.66
   5   3   3  590.60   30.44
   5   3   3  507.45   29.68
   5   3  -3  660.35   30.87
  -5   5   3   24.44    3.47
  -5   5  -3   24.22    3.44
   5   5   3   16.59    2.44
  -5   5   3   20.72    4.45
   5   5   3   22.98    4.37
   5   5   3   26.07    4.85
   5   5   3   22.86    4.42
   5   5  -3   20.85    2.95
   5   5   3   25.78    3.44
   5   5   3   20.20    2.70
   5   5  -3   29.14    3.47
   5   7   3  189.78   12.13
   5   7  -3  222.97   13.25
   5   7  -3  180.39   12.39
   5   7   3  220.94   13.22
   5   7   3  134.61   11.64
   5   7   3  241.71   15.91
  -5   7   3  178.64   15.44
   5   7  -3  212.32   12.43
   5   7   3  197.37   14.55
   5   7   3  198.38   14.36
  -5   7   3  193.94   12.97
  -5   7  -3  188.39   13.02
   5   9   3  416.38   23.69
   5   9  -3  483.84   24.98
   5   9   3  474.35   24.90
   5   9  -3  449.82   24.39
   5   9   3  380.91   25.57
   5   9  -3  421.73   23.71
   5   9   3  409.50   26.36
   5   9   3  451.38   25.97
  -5   9   3  410.67   24.29
  -5   9  -3  409.21   24.47
   5  11   3   98.96    8.12
   5  11  -3  118.80    9.25
   5  11  -3  113.70    8.90
   5  11   3   90.87    9.32
   5  11   3  101.96   10.25
   5  11   3  108.56    9.59
  -5  11   3  105.94    8.68
  -5  11  -3  115.84    9.09
   5  13   3   50.06    5.71
   5  13  -3   71.80    7.09
   5  13   3   82.22    8.92
   5  13   3   50.01    6.55
  -5  13   3   64.20    6.58
  -5  13  -3   61.25    6.56
   5  13   3   56.18    6.76
   5  15  -3   11.61    3.50
   5  15   3    6.44    2.69
  -5  15   3    7.45    2.82
  -5  15  -3    5.90    3.01
   5  15   3    6.66    4.27
   5  15   3    3.25    2.70
   5  15   3   13.54    3.95
   5  17  -3  432.72   23.27
   5  17   3  348.35   21.15
   5  17   3  380.69   24.62
  -5  17   3  307.58   21.05
  -5  17  -3  320.76   21.79
   5  17   3  239.95   19.91
   5  17   3  323.11   21.56
   5  19  -3   14.95    4.90
   5  19   3    7.19    3.25
  -5  19   3   12.61    4.25
  -5  19  -3    9.13    4.28
   5  19   3    8.08    4.84
   5  19   3    8.43    3.33
   5  19   3   10.38    3.89
   5  21  -3    4.60    4.20
  -5  21   3    1.14    3.50
  -5  21  -3    4.81    4.03
  -6 -18  -3   49.60    9.83
  -6 -16  -3   12.07    5.96
   6 -16  -3    3.65    2.53
   6 -14  -3   30.72    5.43
  -6 -14  -3   90.36   11.12
  -6 -12  -3    5.21    4.13
   6 -12  -3    5.74    2.47
   6 -10  -3  185.66   11.55
   6 -10  -3  182.35   13.12
   6  -8   3  214.47   15.04
   6  -8  -3  231.64   15.13
   6  -8  -3  255.28   17.16
   6  -8  -3  247.81   14.16
   6  -6   3   50.40    4.65
   6  -6  -3   52.10    4.61
   6  -6  -3   47.27    5.67
  -6  -6   3   62.69    5.12
   6  -4   3   43.74    3.96
   6  -4  -3   37.61    3.70
  -6  -4  -3   38.96    4.35
  -6  -4   3   44.93    4.58
   6  -4  -3   40.95    5.16
   6  -2   3   47.37    4.18
   6  -2  -3   47.82    4.11
   6  -2  -3   48.53    5.57
  -6  -2   3   59.79    5.35
  -6  -2  -3   45.70    4.80
  -6  -2   3   50.11    5.03
   6   0   3   47.53    4.39
   6   0  -3   45.65    5.62
   6   0  -3   53.48    4.55
   6   0   3   54.72    4.81
  -6   0   3   59.22    5.55
  -6   0  -3   48.75    5.16
   6   0   3   68.83    7.44
  -6   0   3   43.84    5.03
   6   0   3   64.12    7.52
  -6   2  -3   49.67    5.25
   6   2   3   46.49    3.29
  -6   2   3   54.07    5.44
   6   2   3   61.66    6.67
   6   2  -3   43.08    5.46
  -6   2   3   48.86    5.35
   6   2   3   56.10    6.69
   6   2  -3   42.00    4.33
   6   2   3   48.31    4.68
   6   2   3   54.91    6.85
   6   2   3   45.38    4.38
   6   2  -3   61.73    5.39
  -6   4  -3   37.30    4.74
  -6   4   3   52.52    5.38
   6   4   3   34.70    3.43
   6   4   3   63.33    7.17
   6   4  -3   40.23    5.36
  -6   4   3   47.45    5.76
   6   4   3   49.73    6.27
   6   4   3   55.48    6.69
   6   4  -3   39.79    4.20
   6   4   3   45.14    4.62
   6   4   3   39.87    4.04
   6   4  -3   49.00    4.91
  -6   6   3   54.20    5.91
  -6   6  -3   50.08    5.71
   6   6   3   40.73    4.37
   6   6   3   60.46    7.08
  -6   6   3   56.69    7.11
   6   6   3   57.30    6.81
   6   6   3   71.25    7.67
   6   6   3   47.38    4.80
   6   6  -3   66.05    5.89
   6   6  -3   55.63    5.41
   6   6   3   60.33    5.85
   6   8   3  244.99   15.08
   6   8  -3  294.10   16.56
   6   8  -3  268.17   15.68
   6   8   3  274.59   16.14
   6   8   3  242.36   17.03
   6   8   3  253.73   17.27
   6   8   3  292.02   17.96
  -6   8   3  243.69   16.06
  -6   8  -3  232.99   15.99
   6  10   3  198.30   13.55
   6  10  -3  244.36   15.08
   6  10  -3  219.61   14.18
   6  10   3  163.08   14.42
   6  10   3  207.88   15.55
   6  10   3  209.98   15.21
  -6  10   3  193.23   14.15
  -6  10  -3  198.31   14.39
   6  12   3    3.17    2.28
   6  12  -3   10.63    3.65
   6  12   3    6.36    3.46
   6  12   3    1.01    2.76
  -6  12   3    6.08    2.80
  -6  12  -3    7.73    2.86
   6  12   3    5.56    3.37
   6  14   3   83.61    7.73
   6  14  -3  109.47    9.30
   6  14   3   87.65    9.68
  -6  14   3   85.73    8.25
  -6  14  -3   90.61    8.51
   6  14   3   90.26    8.68
   6  16  -3   12.44    4.08
   6  16   3    9.20    3.34
  -6  16   3   15.88    3.83
   6  16   3   17.22    5.17
   6  16   3    6.37    3.21
   6  16   3   11.01    3.85
   6  18  -3   69.87    8.33
   6  18   3   52.47    6.61
  -6  18   3   55.25    7.10
   6  18   3   48.10    8.07
  -6  18  -3   52.07    7.37
   6  18   3   48.04    6.17
   6  18   3   50.76    6.83
   6  20   3  248.93   16.90
  -6  20   3  202.07   16.58
  -6  20  -3  194.45   17.06
   6  20   3  207.81   16.16
  -7 -17  -3   30.03    8.00
  -7 -15  -3   65.89   10.55
  -7 -13  -3   20.41    6.56
   7 -13  -3    8.58    2.62
   7 -11  -3  145.01   12.09
   7 -11  -3  253.81   15.19
   7  -9  -3   90.61    9.04
   7  -9  -3   87.55    6.87
   7  -7  -3   88.96    7.25
   7  -7  -3   95.47    8.74
  -7  -7   3  107.46    7.15
  -7  -5   3    5.26    2.40
   7  -5   3    2.87    1.78
   7  -5  -3    1.53    1.43
   7  -5  -3    5.45    2.57
  -7  -5  -3    2.19    2.14
  -7  -5   3    2.35    1.83
   7  -3   3    3.89    1.77
   7  -3  -3    5.16    1.80
   7  -3  -3    4.61    2.59
  -7  -3  -3    4.59    2.13
  -7  -3   3    6.51    2.48
   7  -1  -3    4.94    1.75
   7  -1   3    6.11    2.08
   7  -1   3    3.21    1.69
   7  -1  -3    1.94    1.62
   7  -1  -3    2.36    2.30
  -7  -1  -3    4.14    2.20
  -7  -1   3    3.41    2.04
  -7  -1   3    4.84    2.68
   7  -1   3    2.79    3.46
  -7   1  -3    4.37    2.40
  -7   1   3    4.56    2.48
   7   1  -3    6.10    2.74
   7   1  -3    4.22    1.90
   7   1   3    2.73    1.94
  -7   1   3    5.29    2.27
   7   1   3    3.65    3.10
   7   1   3   11.49    3.79
   7   1   3    5.56    3.52
   7   3   3    3.31    1.91
   7   3  -3    2.92    2.29
   7   3  -3    2.23    2.56
  -7   3  -3    1.71    2.31
  -7   3   3    5.63    2.66
  -7   3   3    5.42    2.44
   7   3   3    6.07    3.23
   7   3   3   12.32    4.30
   7   3  -3    5.59    2.09
   7   3   3    4.38    2.23
   7   3   3    6.95    3.56
   7   5   3    3.18    1.72
   7   5  -3    5.47    2.62
  -7   5   3    5.48    2.76
  -7   5  -3    5.06    2.64
  -7   5   3    1.67    2.55
   7   5   3    3.86    2.95
   7   5   3    1.12    2.94
   7   5   3    4.49    3.18
   7   5  -3    6.63    2.31
   7   5   3    5.85    2.12
   7   7  -3   97.01    8.10
  -7   7   3   97.26    8.72
  -7   7  -3   83.75    8.38
   7   7   3   83.74    8.88
  -7   7   3  102.12   10.23
   7   7   3  101.49    9.47
   7   7   3  103.66    9.78
   7   7   3   81.89    7.31
   7   7  -3  108.18    8.72
   7   9   3   87.38    7.83
   7   9  -3  113.18    9.29
   7   9   3   86.95    8.94
   7   9   3  102.75    9.56
   7   9   3  105.50   10.04
  -7   9   3   92.82    8.77
  -7   9  -3   92.30    8.92
   7  11   3  262.81   17.36
   7  11  -3  350.80   19.70
   7  11   3  194.68   17.43
   7  11   3  273.69   18.99
   7  11   3  304.42   19.67
  -7  11   3  260.23   18.14
  -7  11  -3  264.95   18.45
   7  13   3   24.18    4.03
   7  13  -3   33.99    5.49
   7  13   3   23.97    5.27
   7  13   3   11.16    3.49
  -7  13   3   23.44    4.65
  -7  13  -3   20.46    4.62
   7  13   3   21.02    4.93
   7  15   3   61.09    6.96
   7  15  -3   80.06    8.47
   7  15   3   72.92    8.70
   7  15   3   72.83    7.82
  -7  15   3   58.57    7.15
  -7  15  -3   66.89    7.83
   7  17   3   37.37    5.66
   7  17  -3   39.05    6.50
   7  17   3   35.38    6.43
  -7  17   3   30.28    5.58
  -7  17  -3   24.88    5.67
   7  17   3   26.82    4.99
   7  17   3   27.86    5.19
   7  19  -3   29.14    6.36
   7  19   3   20.73    4.97
  -7  19   3   21.86    5.29
  -7  19  -3   21.89    5.05
   7  19   3   20.83    4.53
   7  19   3   19.44    4.78
  -8 -14  -3  167.40   17.58
   8 -12  -3    3.53    3.10
   8 -10  -3  198.91   15.01
   8  -8  -3   69.30    7.36
  -8  -6  -3  237.81   17.27
  -8  -6   3  257.46   17.69
   8  -6  -3  226.98   17.47
  -8  -4  -3  525.89   31.44
  -8  -4   3  572.60   31.99
   8  -4  -3  508.15   29.68
   8  -4  -3  521.20   31.88
  -8  -2   3   10.78    3.34
   8  -2  -3   11.47    2.56
   8  -2  -3   10.45    2.43
   8  -2  -3   15.63    3.76
   8  -2   3   16.37    4.24
  -8  -2  -3   10.03    3.04
  -8   0  -3  641.22   40.92
   8   0  -3  687.81   39.47
  -8   0   3  688.69   41.47
   8   0   3  766.49   43.38
   8   2  -3    6.67    3.10
   8   2  -3   11.01    2.67
  -8   2   3   14.01    2.95
   8   2   3   22.18    4.86
   8   2   3   13.86    4.41
  -8   2  -3   11.42    3.17
  -8   2   3    9.49    3.15
   8   2   3   13.56    4.42
  -8   4  -3  652.73   37.39
  -8   4   3  630.68   37.36
   8   4  -3  506.42   36.58
   8   4   3  553.50   36.98
  -8   4   3  760.93   37.01
   8   4   3  695.89   38.22
   8   4  -3  603.42   35.46
   8   4   3  709.02   39.00
   8   4   3  560.75   35.11
   8   4  -3  685.56   36.90
  -8   6   3  292.23   19.56
  -8   6  -3  276.51   19.29
   8   6   3  251.73   19.12
  -8   6   3  314.41   20.04
   8   6   3  287.51   19.57
   8   6   3  292.05   20.14
   8   6   3  252.21   17.41
   8   6  -3  303.29   18.92
  -8   8   3   74.77    7.89
  -8   8  -3   65.36    7.57
   8   8   3   56.14    7.36
   8   8   3   84.01    8.52
   8   8   3   79.17    8.53
   8   8   3   57.91    6.23
   8   8  -3   77.80    7.77
   8  10   3  202.20   14.41
   8  10   3  171.77   14.79
   8  10   3  222.38   16.04
   8  10   3  217.02   16.25
  -8  10   3  206.28   15.67
  -8  10  -3  192.69   15.59
   8  12   3    2.60    2.67
   8  12  -3   10.68    4.09
   8  12   3    4.01    3.39
   8  12   3    0.91    2.78
   8  12   3    2.34    3.59
  -8  12   3   -0.75    2.95
  -8  12  -3    1.19    2.94
   8  14   3  163.88   12.77
   8  14  -3  203.55   14.78
   8  14   3  182.32   14.02
   8  14   3  125.73   12.19
   8  14   3  195.75   14.61
  -8  14   3  149.94   13.24
  -8  14  -3  166.15   14.01
   8  16   3   18.80    4.47
   8  16  -3   22.52    5.87
   8  16   3   17.58    4.89
   8  16   3   15.34    4.05
  -8  16   3   17.24    4.85
  -8  16  -3   20.63    5.14
   8  16   3   20.70    5.45
   8  18   3   39.21    6.30
   8  18  -3   32.39    6.69
  -8  18   3   39.63    6.43
  -8  18  -3   32.42    6.38
   8  18   3   34.02    6.24
   9 -11  -3   12.58    4.18
   9  -9  -3  131.93   11.30
  -9  -7  -3   62.67    7.34
  -9  -7   3   65.47    7.62
   9  -7  -3   73.32    7.62
   9  -7   3   68.66    7.70
  -9  -5  -3    5.71    3.22
  -9  -5   3    5.71    3.17
   9  -5  -3    4.03    2.89
   9  -5   3    7.82    3.84
  -9  -3  -3    4.12    2.75
  -9  -3   3    0.36    2.81
   9  -3  -3   -1.00    2.57
   9  -3   3    1.22    3.89
   9  -1   3  236.78   16.59
  -9  -1  -3  214.77   15.56
  -9  -1   3  214.31   15.84
   9   1  -3  176.45   16.11
  -9   1  -3  209.45   16.94
  -9   1   3  210.90   17.09
  -9   1   3  305.16   15.11
   9   1   3  262.85   19.05
   9   3  -3    6.79    3.35
   9   3  -3    2.19    2.61
  -9   3   3    2.33    2.10
   9   3   3   -0.76    3.26
  -9   3  -3    3.88    3.25
   9   3   3    1.06    3.25
  -9   3   3    4.79    3.46
   9   3   3    2.09    3.51
   9   5   3    6.08    2.64
   9   5  -3   10.09    3.73
  -9   5  -3    8.51    3.58
  -9   5   3    9.07    3.65
  -9   5   3   11.73    3.59
   9   5   3    8.86    3.96
   9   5   3    6.79    3.47
   9   5   3    7.16    3.86
  -9   7   3   79.81    8.58
  -9   7  -3   68.66    8.11
  -9   7   3   79.99    8.69
   9   7   3   65.76    7.82
   9   7   3   71.98    8.22
   9   7   3   78.70    8.94
   9   7   3   63.91    6.72
   9   7  -3   83.69    8.24
  -9   9   3  146.14   12.95
  -9   9  -3  148.42   13.09
   9   9   3  129.74   11.90
   9   9   3  159.21   12.95
   9   9   3  181.36   13.96
   9   9   3  135.34   11.25
   9   9  -3  187.85   13.48
  -9  11   3    9.29    3.89
  -9  11  -3   10.18    4.44
   9  11   3   11.97    3.49
   9  11  -3   11.37    4.44
   9  11   3   13.39    4.45
   9  11   3    6.47    3.30
   9  11   3   18.19    5.03
   9  13   3   95.61    9.23
   9  13  -3  126.72   11.16
   9  13   3   98.56    9.79
   9  13   3   75.07    8.77
   9  13   3  113.51   10.42
  -9  13   3   89.69    9.91
  -9  13  -3   98.79   10.66
   9  15   3  116.27   10.36
   9  15  -3  130.22   12.02
   9  15   3  112.69   10.70
   9  15   3  138.89   11.64
  -9  15  -3  113.01   11.68
   9  17  -3    1.44    4.57
  -9  17   3   -0.45    3.83
   9  17   3    1.18    3.95
  -9  17  -3    1.48    4.00
  10 -16   3   46.17    6.85
  10 -14   3   15.13    4.75
  10 -12   3    1.08    3.98
  10 -10   3  104.34   10.37
 -10  -8   3    1.62    3.16
  10  -8  -3    1.43    2.92
 -10  -8  -3    0.38    3.03
  10  -8   3    1.60    3.95
 -10  -6  -3  193.65   15.73
 -10  -6   3  229.81   16.71
  10  -6  -3  180.44   15.25
 -10  -4  -3   30.81    5.62
  10  -4  -3   35.70    5.61
 -10  -4   3   38.57    6.32
  10  -4   3   38.72    6.34
  10  -2   3   38.63    6.00
  10  -2  -3   31.19    5.39
 -10  -2  -3   37.14    6.06
 -10  -2   3   36.70    6.18
  10   0  -3   31.34    5.74
  10   0   3   47.77    6.42
 -10   0  -3   50.90    7.20
 -10   0   3   49.64    7.24
  10   2  -3   30.43    5.53
 -10   2  -3   30.96    5.77
 -10   2   3   44.60    6.90
 -10   4  -3   45.37    6.92
 -10   4   3   44.20    7.07
  10   4  -3   27.60    5.56
 -10   4   3   44.17    4.81
  10   4   3   27.81    5.35
  10   4   3   46.93    7.21
  10   4   3   42.11    5.17
  10   4  -3   45.76    6.32
 -10   6  -3  217.64   17.47
 -10   6   3  224.37   17.63
 -10   6   3  300.54   17.10
  10   6   3  170.41   15.58
  10   6   3  230.95   17.06
  10   6   3  249.86   17.96
  10   6   3  213.06   15.43
  10   6  -3  246.88   17.11
 -10   8   3    0.45    3.37
 -10   8  -3   -0.46    3.65
  10   8   3    0.56    2.67
  10   8  -3    4.48    3.95
 -10   8   3    1.65    3.72
  10   8   3   -0.37    3.15
  10   8   3   -0.34    3.14
  10   8   3    2.95    4.17
 -10  10   3   87.66   10.03
 -10  10  -3   89.96   10.14
  10  10   3   64.07    7.79
  10  10   3   96.16    9.47
  10  10   3  102.10   10.19
  10  10   3   89.07    8.47
  10  10  -3  106.33   10.12
 -10  12   3    7.11    3.79
 -10  12  -3    4.49    4.23
  10  12   3    4.65    3.26
  10  12  -3    5.73    4.14
  10  12   3    0.75    3.54
  10  12   3   -0.41    4.12
 -10  14   3    7.66    4.35
 -10  14  -3    9.82    5.17
  10  14   3   13.21    4.50
  10  14  -3    8.01    5.28
  10  14   3   15.15    4.84
  10  14   3    7.66    4.59
 -10  16  -3   42.91    8.14
  10  16  -3   66.24    9.20
  11 -15   3    7.17    4.73
  11 -13   3   18.60    5.77
  11 -11   3  136.44   12.16
 -11  -9  -3  214.64   17.75
  11  -9   3  265.11   18.08
 -11  -7  -3  139.96   13.09
 -11  -7   3  154.48   13.77
  11  -7   3  159.31   13.03
  11  -5  -3    0.76    2.87
  11  -5   3    1.75    3.65
 -11  -5  -3    3.84    3.89
 -11  -5   3    0.45    3.75
  11  -3  -3  270.50   20.62
  11  -3   3  329.78   21.19
 -11  -3  -3  322.29   22.18
 -11  -3   3  305.87   22.18
 -11  -1  -3    1.38    3.81
 -11  -1   3    1.94    3.88
  11  -1  -3    3.10    3.47
  11  -1   3    2.77    3.56
 -11   1  -3    4.75    4.07
 -11   1   3    0.99    3.87
  11   1  -3   -1.19    3.48
  11   1   3    4.49    3.36
 -11   3  -3  357.05   24.16
 -11   3   3  395.24   25.00
  11   5   3   -0.30    2.68
  11   5  -3    0.39    3.53
  11   5  -3    0.43    3.31
 -11   5  -3   -1.47    3.81
 -11   5   3   -0.50    4.26
  11   5   3    0.34    3.26
 -11   7  -3  171.70   15.51
 -11   7   3  167.93   15.30
  11   7   3  190.00   14.66
  11   7   3  208.34   15.90
  11   7   3  163.94   13.14
  11   7  -3  179.95   14.65
 -11   9   3  270.64   20.90
 -11   9  -3  254.29   20.67
  11   9   3  283.52   19.55
  11   9   3  307.23   20.61
  11   9   3  248.52   18.30
  11   9  -3  285.75   20.13
 -11  11   3  121.24   12.45
 -11  11  -3  117.28   12.59
  11  11   3  112.43   10.99
  11  11   3  144.77   12.50
  11  11   3  117.28   10.77
  11  11  -3  139.45   12.67
 -11  13  -3   10.30    5.17
  11  13  -3   17.78    5.93
  11  13   3   14.06    4.98
 -12  -8   3    1.00    3.90
  12  -8   3   -0.33    3.54
 -12  -8  -3    0.95    3.69
 -12  -6  -3    9.95    4.78
 -12  -6   3    9.13    5.15
  12  -6   3    9.79    3.89
 -12  -4  -3   24.09    5.89
 -12  -4   3   17.74    5.48
  12  -4   3   25.45    5.13
  12  -2   3    2.39    3.26
 -12  -2  -3   10.03    4.75
 -12  -2   3    4.22    4.43
 -12   0  -3   45.01    7.76
 -12   0   3   39.43    7.57
 -12   2  -3    8.43    5.08
 -12   2   3    1.09    4.42
  12   4   3   21.23    4.63
  12   4  -3   37.13    6.47
 -12   4  -3   34.86    7.35
 -12   4   3   27.40    7.04
  12   6   3    5.79    3.64
  12   6  -3   10.61    4.66
 -12   6  -3    4.35    4.26
 -12   6   3   12.57    5.32
  12   8   3    1.32    2.97
  12   8  -3   -0.86    3.90
 -12   8  -3    0.55    4.17
 -12   8   3    0.54    4.60
  12   8   3    2.27    3.86
 -12  10  -3    8.00    5.51
  12  10   3    6.84    3.85
  12  10  -3    3.17    4.05
  12  10   3    4.83    4.24
 -13  -7  -3   97.09   11.24
 -13  -5  -3    0.52    4.19
 -13  -3  -3   60.73    9.39
 -13  -3   3   69.67   10.02
 -13  -1  -3    0.55    4.43
 -13  -1   3    1.74    4.70
 -13   1  -3    4.59    5.18
 -13   1   3   -0.60    5.48
 -13   3  -3   83.29   10.79
 -13   3   3   74.68   10.76
  13   5   3    4.51    3.54
  13   5  -3    4.91    4.48
 -13   5  -3    2.97    4.93
 -13   7  -3  132.20   14.30
  13   7  -3  145.26   13.35
   0 -18  -4   15.06    5.86
   0 -16  -4    4.55    4.03
   0 -14  -4  183.87   16.44
   0  -8   4  399.61   26.05
   0  -6   4  199.22   15.49
   0  -4   4  151.82   12.84
   0  -2   4    8.06    3.94
   0  -2   4   -0.77    2.94
   0   0   4  789.28   49.04
   0   0   4  871.47   48.69
   0   2  -4    1.41    1.50
   0   2   4   -0.43    3.35
   0   2   4    0.37    2.83
   0   4  -4  147.38    9.12
   0   4   4  118.29   12.30
   0   4   4  143.18   12.31
   0   6  -4  204.76   11.70
   0   6   4  187.68   15.12
   0   8  -4  425.59   22.31
   0   8   4  394.36   26.38
   0  10  -4  103.02    7.18
   0  10   4   71.74   10.01
   0  12   4  335.33   20.28
   0  12   4  198.88   20.31
   0  14   4  214.18   19.87
  -1 -19  -4   -0.79    4.87
  -1 -17  -4    5.12    4.44
  -1 -15  -4  131.17   13.86
   1 -15  -4  119.45   12.49
  -1 -13  -4   11.96    4.38
   1 -13  -4   15.16    4.17
  -1  -9   4   33.05    5.56
  -1  -7   4  207.85   15.12
   1  -7   4  173.30   14.91
  -1  -5   4    2.97    3.05
   1  -5   4    6.85    3.68
  -1  -3   4    0.37    2.70
   1  -3   4    3.67    3.22
   1  -1  -4    9.50    2.23
  -1  -1   4    6.07    3.53
   1  -1   4    8.31    3.73
  -1  -1   4    7.38    3.35
   1  -1   4   10.42    3.89
   1   1  -4    9.68    2.39
  -1   1   4   11.84    4.13
   1   1   4   14.35    4.29
  -1   1   4    7.67    3.64
   1   1   4    8.39    3.67
   1   3  -4    1.55    1.66
  -1   3   4    9.09    3.91
   1   3   4    1.80    3.21
  -1   3   4    1.90    3.01
   1   3   4    2.66    3.11
  -1   5  -4    3.18    1.17
   1   5  -4    4.81    1.95
  -1   5   4    3.55    3.23
   1   5   4    4.18    3.48
  -1   5   4    4.44    3.39
   1   5   4    8.63    3.51
  -1   7  -4  190.49   10.24
   1   7  -4  182.61   11.66
  -1   7   4  134.09   14.07
   1   7   4  134.54   14.01
   1   7   4  172.20   14.36
   1   9  -4   36.98    4.22
  -1   9   4   30.13    6.70
   1   9   4   33.42    6.61
   1  11   4   71.03    8.14
   1  11  -4   54.07    5.68
  -1  11   4   49.25    8.60
   1  11   4   42.54    7.86
   1  11   4   70.42    8.39
  -1  13   4   15.90    5.64
   1  13   4   30.45    7.22
   1  13   4   21.95    5.21
  -1  15   4  125.68   14.77
  -2 -18  -4  117.43   14.46
  -2 -16  -4   28.02    7.01
  -2 -14  -4   65.07    9.73
  -2  -8   4    5.75    3.38
   2  -8   4    5.57    3.72
  -2  -6   4    3.10    2.90
   2  -6   4    6.43    3.80
   2  -4  -4  123.24    9.48
  -2  -4   4  127.41   11.22
   2  -4   4  131.61   11.90
   2  -2  -4    1.67    2.07
  -2  -2   4    1.55    3.17
  -2  -2   4    1.02    2.67
   2  -2   4   -0.42    3.11
   2   0  -4    9.80    2.48
  -2   0   4    4.31    3.07
   2   0   4    4.90    3.48
  -2   0   4    6.78    3.33
   2   0   4    2.67    3.34
   2   2  -4    1.52    1.76
  -2   2   4    1.65    2.95
   2   2   4    2.25    3.17
  -2   2   4    3.00    2.92
   2   2   4   -0.40    3.13
   2   4  -4  115.13    8.75
  -2   4   4  117.44   11.40
   2   4   4  120.48   11.76
  -2   4   4  120.28   11.19
   2   4   4  127.87   11.32
   2   6  -4    2.91    1.94
  -2   6   4    5.07    3.60
   2   6   4    7.06    3.91
   2   8  -4    2.51    2.08
  -2   8   4    0.52    3.31
   2  10  -4   40.33    5.18
  -2  10   4   38.62    7.67
   2  10   4   52.45    7.29
  -2  12   4   24.04    6.70
   2  12   4   26.35    5.48
   2  12   4   31.28    6.08
   2  14   4   63.78    7.33
   2  14   4   71.89    8.59
  -3 -17  -4    1.59    4.37
  -3 -15  -4    2.21    4.56
  -3  -9   4   67.98    7.41
  -3  -7   4  509.95   29.13
   3  -7   4  413.20   29.77
   3  -5  -4  139.08   11.03
   3  -5   4  141.37   13.29
   3  -3  -4  224.04   15.18
  -3  -3   4  241.17   16.56
   3  -3   4  222.67   17.64
   3  -1  -4   69.30    6.33
  -3  -1   4   70.42    7.95
   3  -1   4   66.18    8.67
  -3  -1   4   56.40    7.15
   3  -1   4   82.78    9.03
   3   1  -4   67.98    6.39
  -3   1   4   72.43    8.07
   3   1   4   68.38    8.74
  -3   1   4   61.77    7.45
   3   1   4   89.99    9.45
   3   3  -4  202.67   14.23
  -3   3   4  214.94   16.65
   3   3   4  245.15   17.41
   3   5  -4  133.65    9.92
  -3   5   4  118.63   11.70
   3   7  -4  338.04   21.42
  -3   7   4  354.00   24.75
   3   9   4   75.02    8.28
   3   9  -4   47.27    5.94
  -3   9   4   45.32    7.98
   3   9   4   67.48    7.94
   3  11   4  135.63   11.91
   3  11   4  119.72   12.56
   3  11   4  146.20   12.34
   3  13   4  191.34   14.22
   3  13   4  177.74   16.23
   3  13   4  210.63   15.47
  -3  15   4    4.06    4.92
   3  15   4   -0.69    3.37
  -4 -16  -4   45.96    9.42
  -4 -10   4   69.16    6.97
  -4  -8   4   90.69    8.49
   4  -6  -4   34.40    5.21
  -4  -6   4   51.50    6.25
   4  -6   4   47.94    7.35
   4  -4  -4    8.96    3.07
   4  -4   4    8.36    4.16
   4  -2  -4   72.26    7.04
  -4  -2   4   76.61    8.19
  -4  -2   4   72.37    7.85
   4  -2   4   95.33    9.85
   4   0  -4   91.23    8.08
  -4   0   4   91.43    9.15
  -4   0   4   85.17    9.03
   4   0   4  105.94   10.47
   4   2  -4   67.83    6.86
  -4   2   4   79.79    8.58
   4   2   4   83.73    9.50
   4   4  -4    6.45    2.64
  -4   4   4    8.11    3.92
   4   4   4   10.21    4.45
   4   6  -4   36.60    5.11
  -4   6   4   33.94    6.05
   4   6   4   36.94    6.66
   4   6   4   50.62    7.06
   4   8   4   98.37    9.72
   4   8  -4   63.89    7.26
  -4   8   4   66.27    9.09
   4   8   4   66.89    8.95
   4   8   4   88.28    9.30
   4  10   4   64.56    8.01
  -4  10   4   36.77    7.69
   4  10   4   47.32    7.53
   4  10   4   61.27    7.72
  -4  12   4    3.50    4.06
   4  12   4    3.73    4.62
   4  12   4    0.37    3.23
   4  12   4    0.42    3.22
  -4  14   4   12.62    5.71
   4  14   4   20.41    4.77
   4  16   4   22.81    4.82
   5  -9  -4    8.39    3.27
   5  -7  -4  227.94   17.51
  -5  -7   4  311.56   18.43
   5  -5  -4   56.14    6.58
  -5  -5   4   71.45    7.15
   5  -5   4   55.91    8.24
   5  -3  -4   72.96    7.57
  -5  -3   4   84.75    8.37
   5  -3   4   93.53   10.07
   5  -1  -4   80.57    7.98
  -5  -1   4  104.07    9.27
  -5  -1   4   95.89    9.12
   5  -1   4   88.29   10.20
   5   1  -4   81.40    8.19
  -5   1   4  104.33    9.56
   5   1   4  111.31   11.05
   5   1   4   97.85   10.54
   5   3  -4   71.74    7.47
  -5   3   4   79.06    8.50
   5   3   4   91.77    9.88
   5   5   4   74.77    8.19
   5   5  -4   44.25    6.06
  -5   5   4   52.70    7.38
   5   5   4   65.60    8.35
   5   5   4   64.20    8.60
   5   7  -4  187.97   15.84
   5   7   4  290.02   19.40
  -5   7   4  227.40   18.29
   5   7   4  246.60   18.88
   5   7   4  266.01   18.86
   5   9  -4    2.18    2.76
  -5   9   4    4.58    3.48
   5   9   4    4.00    3.80
   5   9   4    7.99    4.26
   5   9   4    9.50    4.30
   5  11   4  117.13   11.13
   5  11   4  137.34   12.87
   5  11   4  147.13   12.44
  -5  13   4    3.00    4.93
   5  13   4    1.82    2.99
   5  15   4  161.60   13.11
   6 -10  -4   25.61    5.01
   6  -8  -4  153.88   12.44
   6  -6  -4  124.59   11.42
  -6  -6   4  163.06   11.59
   6  -4  -4  104.17    9.61
  -6  -4   4  133.42   10.24
   6  -4   4  101.93   11.62
   6  -2  -4    2.14    2.70
  -6  -2   4    1.32    2.81
   6  -2   4    1.45    3.67
   6   0  -4  766.61   52.85
  -6   0   4 1255.52   55.36
   6   2  -4    1.27    2.79
  -6   2   4    3.10    3.40
   6   2   4    1.46    3.68
   6   4  -4   98.39    9.72
   6   4   4  127.43   11.49
  -6   4   4  121.36   10.95
   6   4   4  112.04   11.61
   6   4   4  124.92   12.00
   6   6   4  194.21   14.93
  -6   6   4  154.49   13.10
   6   6   4  144.48   13.44
   6   6   4  174.95   14.31
   6   8  -4  113.64   11.87
   6   8   4  154.02   13.34
  -6   8   4  153.07   14.25
   6   8   4  180.67   14.93
   6   8   4  208.71   15.70
  -6  10   4   28.12    7.03
   6  10   4   26.97    6.41
   6  10   4   34.37    5.91
   6  10   4   21.81    5.95
  -6  12   4   69.33   10.85
   6  12   4   92.36    9.19
  -6  14   4   88.65   13.12
   6  14   4  113.16   10.30
   7  -9  -4   79.36    8.49
   7  -7  -4   35.42    5.61
   7  -5  -4   19.62    4.36
  -7  -5   4   24.90    4.45
   7  -3  -4  114.38   10.64
  -7  -3   4  133.97   10.92
   7  -3   4  142.12   13.57
   7  -1  -4   12.56    3.94
   7   1  -4   11.65    3.61
  -7   1   4   13.93    4.00
   7   1   4   15.60    4.74
   7   3   4  152.01   13.09
  -7   3   4  153.45   11.70
   7   3   4  126.95   12.63
   7   3   4  153.16   13.50
   7   5  -4    9.74    3.62
  -7   5   4   25.04    5.12
   7   5   4   23.28    5.93
   7   5   4   23.71    5.77
   7   5   4   29.92    6.27
   7   7  -4   22.07    4.96
  -7   7   4   34.18    6.45
   7   7   4   43.25    7.13
   7   7   4   31.36    6.09
   7   7   4   33.38    6.66
   7   9   4   75.69    8.38
  -7   9   4   82.98   10.20
   7   9   4   75.24    9.25
  -7  11   4   -1.93    4.94
  -7  13   4   50.32    9.61
   8  -8  -4    0.77    3.26
   8  -6  -4   25.87    4.92
   8  -4  -4  154.57   12.77
   8  -2  -4    2.54    2.83
   8   0  -4   12.46    4.03
   8   0   4   22.03    5.64
   8   0   4   23.30    6.10
   8   2  -4    2.65    2.88
  -8   2   4    3.21    3.04
   8   2   4    3.98    4.54
   8   2   4    4.57    4.36
   8   4   4  173.40   14.84
  -8   4   4  212.81   14.51
   8   4   4  207.89   16.30
   8   4   4  207.42   16.50
   8   6  -4   26.72    5.42
  -8   6   4   34.64    6.05
   8   6   4   36.46    6.87
   8   8  -4    0.88    3.23
  -8   8   4    3.21    3.98
  -8  10   4   93.89   11.70
  -8  12   4   92.64   12.18
  -8  14   4   78.33   12.28
   9  -3  -4   50.46    7.01
   9  -1  -4    3.89    3.59
   9   1  -4    3.56    3.16
   9   3  -4   48.17    7.08
   9   5  -4   33.01    5.98
   9   7  -4   34.72    6.22
   0  -8   5  128.07   12.72
   0  -6   5   89.49   10.69
   0  -4   5    1.56    4.20
   0  -2   5   10.87    5.22
   0   0   5   27.70    6.73
   0   0   5   31.26    7.08
   0   2   5    9.29    5.00
   0   2   5    8.89    4.93
  -1  -9   5  118.16   12.05
  -1  -7   5    8.77    4.55
   1  -7   5    9.73    4.99
  -1  -5   5    2.99    3.93
   1  -5   5    3.20    4.00
  -1  -3   5   64.38    9.07
   1  -3   5   58.15    9.24
  -1  -1   5   18.49    5.78
   1  -1   5   16.04    5.62
  -1   1   5   19.66    5.93
   1   1   5   16.60    5.97
  -1   1   5   16.45    5.32
   1   1   5   18.91    6.04
  -1   3   5   50.81    8.62
  -1   3   5   65.71    9.13
  -2  -6   5  275.55   20.03
   2  -6   5  237.85   20.10
  -2  -4   5  226.99   17.50
   2  -4   5  174.30   16.83
  -2  -2   5    2.63    4.15
   2  -2   5    4.99    4.54
  -2   0   5  141.28   14.31
  -2   0   5  152.66   14.25
   2   0   5  159.58   15.13
  -2   2   5    0.55    3.90
  -2   2   5    2.53    4.10
  -2   4   5  169.05   15.91
  -2   4   5  178.19   15.87
  -3  -5   5   15.28    5.32
  -3  -3   5   15.13    5.72
  -3  -1   5  260.24   20.12
  -3   1   5  279.25   21.34
  -3   1   5  262.53   20.51
  -3   3   5   13.64    5.48
  -3   3   5   15.28    5.29
  -3   5   5   12.16    5.70
   4  -4  -5    5.57    3.14
  -4  -4   5    4.84    4.86
   4  -2  -5    2.09    2.80
  -4  -2   5    0.47    3.86
  -4   0   5   39.65    7.16
  -4   0   5   25.87    6.00
  -4   2   5   -1.03    4.25
  -4   2   5   -0.51    4.26
  -4   4   5   15.02    5.13
  -4   4   5    0.55    4.22
  -4   6   5  150.67   14.93
   5  -5  -5    4.79    3.30
   5  -3  -5  165.06   13.62
  -5  -3   5  205.51   15.88
   5  -1  -5   16.13    4.14
  -5  -1   5   17.11    5.13
   5   1  -5   11.20    3.70
  -5   1   5   25.32    5.94
  -5   1   5   14.53    5.04
  -5   3   5  204.89   16.54
  -5   3   5  165.55   15.86
  -5   5   5    1.61    4.13
  -5   7   5   73.09   10.39
   6  -4  -5    6.97    3.64
   6  -2  -5   14.83    4.35
   6   0  -5    9.24    3.83
  -6   0   5   11.63    4.73
   6   2  -5   16.35    4.17
  -6   2   5   11.61    5.18
  -6   4   5    9.84    4.96
  -6   6   5    6.40    4.88
  -7   1   5    1.02    4.11
   7   3  -5    3.49    3.64
   0   0   0    0.00    0.00
;
_shelx_hkl_checksum              44579
loop_
_space_group_symop_operation_xyz
'x, y, z'
'-x, -y, z'
'x, -y, -z'
'-x, y, -z'
'x+1/2, y+1/2, z'
'-x+1/2, -y+1/2, z'
'x+1/2, -y+1/2, -z'
'-x+1/2, y+1/2, -z'
'-x, -y, -z'
'x, y, -z'
'-x, y, z'
'x, -y, z'
'-x+1/2, -y+1/2, -z'
'x+1/2, y+1/2, -z'
'-x+1/2, y+1/2, z'
'x+1/2, -y+1/2, z'
loop_
_atom_site_label
_atom_site_type_symbol
_atom_site_fract_x
_atom_site_fract_y
_atom_site_fract_z
_atom_site_U_iso_or_equiv
_atom_site_adp_type
_atom_site_occupancy
_atom_site_site_symmetry_order
_atom_site_calc_flag
_atom_site_refinement_flags_posn
_atom_site_refinement_flags_adp
_atom_site_refinement_flags_occupancy
_atom_site_disorder_assembly
_atom_site_disorder_group
Pb1 Pb 0.35589(3) 0.18530(5) 0.0000 0.0227(4) Uani 1 2 d S T P . .
Pb2 Pb 0.0000 0.0000 1.0000 0.0617(7) Uani 1 8 d S T P . .
Sn1 Sn 0.5000 0.0000 0.5000 0.0114(5) Uani 1 8 d S T P . .
Sn2 Sn 0.16503(7) 0.0000 0.5000 0.0118(4) Uani 1 4 d S T P . .
Se1 Se 0.5000 0.15032(16) 0.0000 0.0100(5) Uani 1 4 d S T P . .
Se2 Se 0.23914(9) 0.0000 0.0000 0.0121(5) Uani 1 4 d S T P . .
Se3 Se 0.41525(8) 0.34967(12) 0.5000 0.0140(4) Uani 1 2 d S T P . .
Se4 Se 0.37435(10) 0.0000 0.5000 0.0098(5) Uani 1 4 d S T P . .
Cl1 Cl 0.2500 0.2500 0.5000 0.0174(11) Uani 1 4 d S T P . .
loop_
_atom_site_aniso_label
_atom_site_aniso_U_11
_atom_site_aniso_U_22
_atom_site_aniso_U_33
_atom_site_aniso_U_23
_atom_site_aniso_U_13
_atom_site_aniso_U_12
Pb1 0.0282(6) 0.0187(5) 0.0212(6) 0.000 0.000 0.0032(2)
Pb2 0.0240(10) 0.1102(19) 0.0510(11) 0.000 0.000 0.000
Sn1 0.0072(11) 0.0117(10) 0.0152(10) 0.000 0.000 0.000
Sn2 0.0100(8) 0.0133(8) 0.0120(8) 0.000 0.000 0.000
Se1 0.0073(11) 0.0081(10) 0.0146(10) 0.000 0.000 0.000
Se2 0.0078(11) 0.0153(10) 0.0133(10) 0.000 0.000 0.000
Se3 0.0115(8) 0.0094(8) 0.0209(8) 0.000 0.000 0.0000(5)
Se4 0.0082(11) 0.0080(10) 0.0131(10) 0.000 0.000 0.000
Cl1 0.015(3) 0.012(2) 0.025(3) 0.000 0.000 0.001(2)
loop_
_atom_type_symbol
_atom_type_description
_atom_type_scat_dispersion_real
_atom_type_scat_dispersion_imag
_atom_type_scat_source
Cl Cl 0.1484 0.1585 'International Tables Vol C Tables 4.2.6.8 and 6.1.1.4'
Pb Pb -3.3944 10.1111 'International Tables Vol C Tables 4.2.6.8 and 6.1.1.4'
Se Se -0.0929 2.2259 'International Tables Vol C Tables 4.2.6.8 and 6.1.1.4'
Sn Sn -0.6537 1.4246 'International Tables Vol C Tables 4.2.6.8 and 6.1.1.4'
loop_
_geom_angle_atom_site_label_1
_geom_angle_atom_site_label_2
_geom_angle_atom_site_label_3
_geom_angle
_geom_angle_site_symmetry_1
_geom_angle_site_symmetry_3
_geom_angle_publ_flag
Se4 Pb1 Se4 82.076(18) 1_554 . ?
Se4 Pb1 Se1 76.70(5) 1_554 . ?
Se4 Pb1 Se1 76.70(5) . . ?
Se4 Pb1 Se3 90.38(3) 1_554 1_554 ?
Se4 Pb1 Se3 148.68(5) . 1_554 ?
Se1 Pb1 Se3 71.98(5) . 1_554 ?
Se4 Pb1 Se3 148.68(5) 1_554 . ?
Se4 Pb1 Se3 90.38(3) . . ?
Se1 Pb1 Se3 71.98(5) . . ?
Se3 Pb1 Se3 80.41(4) 1_554 . ?
Se4 Sn1 Se4 180.0 . 9_656 ?
Se4 Sn1 Se1 90.0 . . ?
Se4 Sn1 Se1 90.0 9_656 . ?
Se4 Sn1 Se1 90.0 . 1_556 ?
Se4 Sn1 Se1 90.0 9_656 1_556 ?
Se1 Sn1 Se1 94.86(6) . 1_556 ?
Se4 Sn1 Se1 90.0 . 9_655 ?
Se4 Sn1 Se1 90.0 9_656 9_655 ?
Se1 Sn1 Se1 85.14(6) . 9_655 ?
Se1 Sn1 Se1 180.0 1_556 9_655 ?
Se4 Sn1 Se1 90.0 . 9_656 ?
Se4 Sn1 Se1 90.0 9_656 9_656 ?
Se1 Sn1 Se1 180.0 . 9_656 ?
Se1 Sn1 Se1 85.14(6) 1_556 9_656 ?
Se1 Sn1 Se1 94.86(6) 9_655 9_656 ?
Se3 Sn2 Se3 94.74(8) 15_545 13_556 ?
Se3 Sn2 Se2 114.63(3) 15_545 . ?
Se3 Sn2 Se2 114.63(3) 13_556 . ?
Se3 Sn2 Se2 114.63(3) 15_545 1_556 ?
Se3 Sn2 Se2 114.63(3) 13_556 1_556 ?
Se2 Sn2 Se2 104.05(9) . 1_556 ?
Sn1 Se1 Sn1 94.86(6) 1_554 . ?
Sn1 Se1 Pb1 95.41(2) 1_554 . ?
Sn1 Se1 Pb1 95.41(2) . . ?
Sn1 Se1 Pb1 95.41(2) 1_554 11_655 ?
Sn1 Se1 Pb1 95.41(2) . 11_655 ?
Pb1 Se1 Pb1 163.97(8) . 11_655 ?
Sn2 Se2 Sn2 104.05(9) 1_554 . ?
Sn2 Se3 Pb1 101.75(5) 13_556 . ?
Sn2 Se3 Pb1 101.75(5) 13_556 1_556 ?
Pb1 Se3 Pb1 80.41(4) . 1_556 ?
Sn1 Se4 Pb1 97.34(4) . . ?
Sn1 Se4 Pb1 97.34(4) . 3 ?
Pb1 Se4 Pb1 96.04(2) . 3 ?
Sn1 Se4 Pb1 97.34(4) . 1_556 ?
Pb1 Se4 Pb1 82.076(18) . 1_556 ?
Pb1 Se4 Pb1 165.33(8) 3 1_556 ?
Sn1 Se4 Pb1 97.34(4) . 3_556 ?
Pb1 Se4 Pb1 165.33(8) . 3_556 ?
Pb1 Se4 Pb1 82.075(18) 3 3_556 ?
Pb1 Se4 Pb1 96.04(2) 1_556 3_556 ?
loop_
_geom_bond_atom_site_label_1
_geom_bond_atom_site_label_2
_geom_bond_distance
_geom_bond_site_symmetry_2
_geom_bond_publ_flag
Pb1 Se4 3.0715(6) 1_554 ?
Pb1 Se4 3.0716(6) . ?
Pb1 Se1 3.0914(7) . ?
Pb1 Se3 3.1240(12) 1_554 ?
Pb1 Se3 3.1241(12) . ?
Sn1 Se4 2.669(2) . ?
Sn1 Se4 2.669(2) 9_656 ?
Sn1 Se1 2.7382(13) . ?
Sn1 Se1 2.7383(13) 1_556 ?
Sn1 Se1 2.7383(13) 9_655 ?
Sn1 Se1 2.7383(13) 9_656 ?
Sn2 Se3 2.5178(18) 15_545 ?
Sn2 Se3 2.5178(18) 13_556 ?
Sn2 Se2 2.5584(15) . ?
Sn2 Se2 2.5584(15) 1_556 ?
Se1 Sn1 2.7382(13) 1_554 ?
Se1 Pb1 3.0914(7) 11_655 ?
Se2 Sn2 2.5583(15) 1_554 ?
Se3 Sn2 2.5179(18) 13_556 ?
Se3 Pb1 3.1241(12) 1_556 ?
Se4 Pb1 3.0716(6) 3 ?
Se4 Pb1 3.0716(6) 1_556 ?
Se4 Pb1 3.0716(6) 3_556 ?
