#------------------------------------------------------------------------------
#$Date: 2022-02-10 02:00:40 +0200 (Thu, 10 Feb 2022) $
#$Revision: 272894 $
#$URL: file:///home/coder/svn-repositories/cod/cif/7/70/94/7709447.cif $
#------------------------------------------------------------------------------
#
# This file is available in the Crystallography Open Database (COD),
# http://www.crystallography.net/
#
# All data on this site have been placed in the public domain by the
# contributors.
#
data_7709447
loop_
_publ_author_name
'Petrus, Rafa\/l'
'Utko, J\'ozef'
'Petrus, Joanna Katarzyna'
'Awashra, Mohammad'
'Lis, Tadeusz'
_publ_section_title
;
 Use of group 13 aryloxides for the synthesis of green chemicals and oxide
 materials
;
_journal_name_full               'Dalton Transactions'
_journal_paper_doi               10.1039/D1DT03777C
_journal_year                    2022
_chemical_formula_moiety         'C20 H26 Ga2 O6'
_chemical_formula_sum            'C20 H26 Ga2 O6'
_chemical_formula_weight         501.85
_space_group_crystal_system      triclinic
_space_group_IT_number           2
_space_group_name_Hall           '-P 1'
_space_group_name_H-M_alt        'P -1'
_atom_sites_solution_hydrogens   geom
_atom_sites_solution_primary     direct
_audit_creation_method           SHELXL-2014/7
_audit_update_record
;
2021-04-09 deposited with the CCDC.	2022-02-09 downloaded from the CCDC.
;
_cell_angle_alpha                79.92(4)
_cell_angle_beta                 67.77(5)
_cell_angle_gamma                69.97(4)
_cell_formula_units_Z            1
_cell_length_a                   7.273(2)
_cell_length_b                   8.766(2)
_cell_length_c                   9.548(3)
_cell_measurement_reflns_used    6388
_cell_measurement_temperature    100(2)
_cell_measurement_theta_max      67.474
_cell_measurement_theta_min      4.984
_cell_volume                     528.7(3)
_computing_cell_refinement       'CrysAlisPro 1.171.41.80a (Rigaku OD, 2020)'
_computing_data_collection       'CrysAlisPro 1.171.41.80a (Rigaku OD, 2020)'
_computing_data_reduction        'CrysAlisPro 1.171.41.80a (Rigaku OD, 2020)'
_computing_molecular_graphics    'DIAMOND  (Brandenburg, 2007)'
_computing_publication_material  'SHELXL-2014/7 (Sheldrick, 2014)'
_computing_structure_refinement  'SHELXL-2014/7 (Sheldrick, 2014)'
_computing_structure_solution    'SHELXL-2014/7 (Sheldrick, 2014)'
_diffrn_ambient_temperature      100(2)
_diffrn_measured_fraction_theta_full 0.992
_diffrn_measured_fraction_theta_max 0.992
_diffrn_measurement_device_type  'Xcalibur, Ruby, Gemini ultra'
_diffrn_measurement_method       '\w scans'
_diffrn_radiation_type           CuK\a
_diffrn_radiation_wavelength     1.54184
_diffrn_reflns_av_R_equivalents  0.0200
_diffrn_reflns_av_unetI/netI     0.0134
_diffrn_reflns_Laue_measured_fraction_full 0.992
_diffrn_reflns_Laue_measured_fraction_max 0.992
_diffrn_reflns_limit_h_max       8
_diffrn_reflns_limit_h_min       -8
_diffrn_reflns_limit_k_max       10
_diffrn_reflns_limit_k_min       -9
_diffrn_reflns_limit_l_max       11
_diffrn_reflns_limit_l_min       -11
_diffrn_reflns_number            8060
_diffrn_reflns_point_group_measured_fraction_full 0.992
_diffrn_reflns_point_group_measured_fraction_max 0.992
_diffrn_reflns_theta_full        66.927
_diffrn_reflns_theta_max         66.927
_diffrn_reflns_theta_min         5.011
_diffrn_source                   'fine-focus sealed X-ray tube'
_exptl_absorpt_coefficient_mu    3.408
_exptl_absorpt_correction_T_max  0.788
_exptl_absorpt_correction_T_min  0.491
_exptl_absorpt_correction_type   analytical
_exptl_absorpt_process_details
;
CrysAlisPro 1.171.41.80a (Rigaku Oxford Diffraction, 2020)
Analytical numeric absorption correction using a multifaceted crystal
model based on expressions derived by R.C. Clark & J.S. Reid.
(Clark, R. C. & Reid, J. S. (1995). Acta Cryst. A51, 887-897)
Empirical absorption correction using spherical harmonics,
implemented in SCALE3 ABSPACK scaling algorithm.
;
_exptl_crystal_colour            colourless
_exptl_crystal_density_diffrn    1.576
_exptl_crystal_description       plate
_exptl_crystal_F_000             256
_exptl_crystal_size_max          0.460
_exptl_crystal_size_mid          0.100
_exptl_crystal_size_min          0.090
_refine_diff_density_max         0.318
_refine_diff_density_min         -0.355
_refine_diff_density_rms         0.061
_refine_ls_extinction_method     none
_refine_ls_goodness_of_fit_ref   1.067
_refine_ls_hydrogen_treatment    constr
_refine_ls_matrix_type           full
_refine_ls_number_parameters     130
_refine_ls_number_reflns         1869
_refine_ls_number_restraints     0
_refine_ls_restrained_S_all      1.067
_refine_ls_R_factor_all          0.0210
_refine_ls_R_factor_gt           0.0208
_refine_ls_shift/su_max          0.001
_refine_ls_shift/su_mean         0.000
_refine_ls_structure_factor_coef Fsqd
_refine_ls_weighting_details
'w=1/[\s^2^(Fo^2^)+(0.0305P)^2^+0.4464P] where P=(Fo^2^+2Fc^2^)/3'
_refine_ls_weighting_scheme      calc
_refine_ls_wR_factor_gt          0.0557
_refine_ls_wR_factor_ref         0.0558
_reflns_Friedel_coverage         0.000
_reflns_number_gt                1857
_reflns_number_total             1869
_reflns_threshold_expression     'I > 2\s(I)'
_cod_data_source_file            d1dt03777c2.cif
_cod_data_source_block           2
_cod_database_code               7709447
_shelx_shelxl_version_number     2014/7
_shelx_space_group_comment
;
The symmetry employed for this shelxl refinement is uniquely defined
by the following loop, which should always be used as a source of
symmetry information in preference to the above space-group names.
They are only intended as comments.
;
_shelx_estimated_absorpt_t_min   0.303
_shelx_estimated_absorpt_t_max   0.749
_oxdiff_exptl_absorpt_empirical_full_min 0.567
_oxdiff_exptl_absorpt_empirical_full_max 2.490
_oxdiff_exptl_absorpt_empirical_details
;
Empirical correction (ABSPACK) includes:
- Absorption correction using spherical harmonics
- Frame scaling
;
_shelx_res_file
;

    2.res created by SHELXL-2014/7


TITL 2  in P-1
CELL 1.54184 7.273  8.766  9.548  79.92  67.77  69.97
ZERR 1 0.002  0.002  0.003  0.04  0.05  0.04
LATT 1
SFAC C H O Ga
UNIT 20 26 6 2
ACTA 134
HTAB 1.8
OMIT -4 134
TEMP -173
SIZE 0.09 0.10 0.46
L.S. 8
PLAN  20
CONF
BOND $H
FMAP 2
WGHT    0.030500    0.446400
FVAR       7.50421
GA1   4    0.453325    0.335249    0.605396    11.00000    0.01606    0.01150 =
         0.01197   -0.00025   -0.00420   -0.00532
O1    3    0.429767    0.555436    0.633646    11.00000    0.02503    0.01253 =
         0.00986   -0.00076   -0.00269   -0.00816

C1    1    0.365438    0.637932    0.757678    11.00000    0.01173    0.01468 =
         0.01118   -0.00207   -0.00373   -0.00321
C2    1    0.363489    0.801374    0.738439    11.00000    0.01732    0.01528 =
         0.01238    0.00164   -0.00461   -0.00643
AFIX  43
H2    2    0.408774    0.848193    0.638684    11.00000   -1.20000
AFIX   0
C3    1    0.297881    0.895583    0.859912    11.00000    0.01642    0.01291 =
         0.01834   -0.00033   -0.00677   -0.00529
AFIX  43
H3    2    0.296867    1.005892    0.842884    11.00000   -1.20000
AFIX   0
C4    1    0.232918    0.829506    1.007870    11.00000    0.01947    0.01653 =
         0.01320   -0.00353   -0.00515   -0.00502
AFIX  43
H4    2    0.188716    0.893846    1.091786    11.00000   -1.20000
AFIX   0
C5    1    0.233840    0.670717    1.030260    11.00000    0.01404    0.01764 =
         0.01125    0.00013   -0.00400   -0.00518
AFIX  43
H5    2    0.190836    0.625468    1.130889    11.00000   -1.20000
AFIX   0
C6    1    0.296876    0.572322    0.908064    11.00000    0.01126    0.01306 =
         0.01319    0.00002   -0.00461   -0.00366
C7    1    0.283664    0.406180    0.942759    11.00000    0.01032    0.01585 =
         0.01116    0.00057   -0.00357   -0.00363
O2    3    0.330509    0.306359    0.849524    11.00000    0.02233    0.01379 =
         0.01208   -0.00041   -0.00369   -0.00778
O3    3    0.210516    0.369058    1.090259    11.00000    0.02328    0.01393 =
         0.00996    0.00145   -0.00297   -0.00881
C8    1    0.191824    0.207107    1.133423    11.00000    0.02232    0.01394 =
         0.01564    0.00356   -0.00521   -0.00898
AFIX 137
H8A   2    0.096410    0.191252    1.091228    11.00000   -1.50000
H8B   2    0.137216    0.193336    1.244145    11.00000   -1.50000
H8C   2    0.329173    0.126918    1.094164    11.00000   -1.50000
AFIX   0
C9    1    0.202459    0.322633    0.583054    11.00000    0.02092    0.02725 =
         0.01841    0.00040   -0.00639   -0.01035
AFIX 137
H9A   2    0.173800    0.221799    0.634011    11.00000   -1.50000
H9B   2    0.223940    0.323755    0.475218    11.00000   -1.50000
H9C   2    0.083977    0.416025    0.628740    11.00000   -1.50000
AFIX   0
C10   1    0.727066    0.183227    0.595399    11.00000    0.02195    0.02195 =
         0.01821    0.00013   -0.00799   -0.00357
AFIX 137
H10A  2    0.786044    0.223598    0.652869    11.00000   -1.50000
H10B  2    0.819975    0.173595    0.489468    11.00000   -1.50000
H10C  2    0.712220    0.076380    0.638854    11.00000   -1.50000
AFIX   0
HKLF 4

REM  2  in P-1
REM R1 =  0.0208 for    1857 Fo > 4sig(Fo)  and  0.0210 for all    1869 data
REM    130 parameters refined using      0 restraints

END

WGHT      0.0305      0.4464

REM No hydrogen bonds found for HTAB generation

REM Highest difference peak  0.318,  deepest hole -0.355,  1-sigma level  0.061
Q1    1   0.3072  0.3068  0.6032  11.00000  0.05    0.32
Q2    1   0.4140  0.4693  0.6105  11.00000  0.05    0.31
Q3    1   0.3026  0.6077  0.8449  11.00000  0.05    0.29
Q4    1   0.2627  0.6186  0.9641  11.00000  0.05    0.29
Q5    1   0.2928  0.4990  0.9229  11.00000  0.05    0.26
Q6    1   0.7313  0.1429  0.6925  11.00000  0.05    0.26
Q7    1   0.6241  0.1974  0.5880  11.00000  0.05    0.24
Q8    1   0.3366  0.8399  0.8049  11.00000  0.05    0.23
Q9    1   0.3084  0.8459  0.9294  11.00000  0.05    0.23
Q10   1   0.3987  0.5962  0.6916  11.00000  0.05    0.22
Q11   1   0.7647  0.0889  0.5392  11.00000  0.05    0.22
Q12   1   0.8533  0.2418  0.5435  11.00000  0.05    0.22
Q13   1   0.5024  0.2156  0.6032  11.00000  0.05    0.20
Q14   1   0.4231  0.6088  0.5548  11.00000  0.05    0.20
Q15   1   0.4316  0.4317  0.6721  11.00000  0.05    0.19
Q16   1   0.3651  0.7258  0.7499  11.00000  0.05    0.19
Q17   1   0.3313  0.3850  0.5088  11.00000  0.05    0.18
Q18   1   0.1824  0.2604  0.7971  11.00000  0.05    0.18
Q19   1   0.3333  0.3379  0.7892  11.00000  0.05    0.17
Q20   1   0.1706  0.3857  0.5173  11.00000  0.05    0.17
;
_shelx_res_checksum              89051
_shelx_hkl_file
;
   0   0   1 286.069 35.3746   5
   0   0  -1 295.303 36.6729   6
   0   0   1 287.181 35.6726   4
   0   0  -1 314.963 37.1832   2
   0   0   2 52846.6 657.903   4
   0   0  -2 53034.3 451.906   9
   0   0  -2 51473.7 644.447   2
   0   0   2 52697.7 656.497   5
   0   0  -2 51290.1 647.300   6
   0   0  -3 24889.3 384.243   9
   0   0   3 25747.6 268.177   7
   0   0   3 25730.7 563.072   4
   0   0  -3 25185.1 559.116   2
   0   0  -3 25148.7 556.209   6
   0   0   3 25763.3 564.762   5
   0   0   4 254616. 2069.07   4
   0   0  -4 248051. 1396.39   9
   0   0   4 253181. 2061.15   5
   0   0  -4 252555. 2042.03   2
   0   0  -4 249370. 2025.45   6
   0   0  -5 85584.2 1327.36   2
   0   0  -5 86558.5 1346.39   6
   0   0  -5 89155.8 966.957  20
   0   0   5 86933.8 1374.87   4
   0   0   5 86997.3 1373.93   5
   0   0  -6 66659.2 1275.57   2
   0   0  -6 66745.3 906.810  41
   0   0   6 70198.7 1373.05   5
   0   0  -6 68624.5 1300.57   6
   0   0   6 68957.1 1367.28   4
   0   0   6 65823.7 996.042  44
   0   0   6 67453.1 909.566  50
   0   0  -6 66404.0 886.817  35
   0   0  -7 2763.12 196.389  41
   0   0   7 2978.95 210.170  38
   0   0   7 3052.55 316.332   4
   0   0   7 3040.51 313.941   5
   0   0  -7 2814.68 283.064   2
   0   0  -7 3014.96 292.928   6
   0   0  -8 44489.3 803.363  34
   0   0   8 45649.4 836.432  38
   0   0   9 32070.1 669.067  38
   0   0  -9 31277.6 630.844  34
   0   0  -9 31749.4 697.285  47
   0   0  -9 30051.6 590.306  40
   0   0 -10 8236.36 266.196  34
   0   0  10 8833.46 296.928  38
   0   0 -10 9072.29 312.976  47
   0   1 -10 2760.55 167.634  47
   0   1 -10 2808.92 154.648  34
   0  -1  10 2828.72 158.002  38
   0  -1   9 24482.9 556.339  38
   0   1  -9 24477.3 594.939  47
   0   1  -9 24233.3 547.812  34
   0   1  -8 82262.4 1081.23  34
   0   1  -8 82244.7 1171.56  47
   0  -1   8 81130.5 1065.83  38
   0  -1   7 31879.2 1008.54   5
   0   1  -7 32267.2 616.979  16
   0   1  -7 31777.9 664.091  34
   0   1  -7 30083.1 905.481   6
   0   1  -7 30214.4 615.686  40
   0   1  -7 30161.0 907.544   2
   0  -1   7 32178.2 1014.25   4
   0  -1   6 5559.54 386.585   4
   0   1  -6 5873.26 266.895  34
   0   1  -6 5504.05 355.333   2
   0   1  -6 5609.58 255.342  41
   0   1  -6 5566.83 243.059  16
   0  -1   6 5142.04 234.370  29
   0   1  -6 5366.02 350.402   6
   0  -1   6 5596.79 385.581   5
   0  -1   6 5478.78 251.848  50
   0  -1   6 5869.84 303.887  44
   0  -1   5 3896.50 290.426   5
   0  -1   5 4227.94 226.589  27
   0   1  -5 3876.31 187.016  16
   0   1  -5 4031.99 272.411   6
   0   1  -5 4182.50 279.413   2
   0  -1   5 4018.16 294.703   4
   0  -1   4 199036. 1842.41   4
   0   1  -4 195661. 1659.00   6
   0   1  -4 198033. 1673.98   2
   0  -1   4 196603. 1821.71   5
   0   1  -4 199468. 1171.78  16
   0   1  -3 310539. 1767.97   6
   0  -1   3 299577. 1951.23   4
   0   1  -3 314223. 1790.20   2
   0  -1   3 299986. 1956.74   5
   0   1  -2 124809. 892.266   6
   0  -1   2 124722. 1044.37   4
   0  -1   2 124876. 1043.28   5
   0   1  -2 125335. 900.592   2
   0  -1   1 27.4858 19.9602   4
   0  -1   1 25.0671 16.5002   5
   0   1  -1 31.7376 16.3690   6
   0   1  -1 30.0801 15.7318   2
   0   1  -1 30.7678 14.4816   1
   0  -1  -1 42117.8 183.115   7
   0   1   1 39258.3 415.826   1
   0   1   1 41358.5 295.636   3
   0  -1  -1 40309.6 457.135   6
   0  -1  -1 39788.9 457.239   2
   0  -1  -2 325588. 1721.39   6
   0  -1  -2 325390. 1709.26   2
   0  -1  -2 340148. 1279.15   9
   0  -1  -3 69472.0 691.829  18
   0  -1  -3 71343.2 711.918   9
   0  -1  -3 68516.1 973.708   2
   0   1   3 65318.0 894.977   5
   0   1   3 63153.3 883.136   4
   0  -1  -3 69829.9 989.077   6
   0  -1  -4 40.8187 55.5547   6
   0   1   4 17.7880 39.3268   4
   0  -1  -4-6.13304 46.3043   2
   0  -1  -4 84.4331 45.6868   9
   0   1   4 3.23311 44.3616   5
   0   1   5 28796.6 807.073   4
   0  -1  -5 26349.5 809.643   6
   0  -1  -5 26556.7 814.474   2
   0  -1  -5 30116.7 545.463  20
   0  -1  -5 27305.0 572.550   9
   0   1   5 28652.2 803.517   5
   0  -1  -5 28079.5 519.294  25
   0  -1  -6 160091. 1499.66   9
   0   1   6 166926. 1521.04  38
   0  -1  -6 162647. 2173.08   6
   0  -1  -6 160129. 1421.46  35
   0   1   6 154175. 1386.14  55
   0  -1  -6 159162. 1532.05  41
   0   1   6 164059. 2155.48   4
   0  -1  -6 161746. 1411.82  20
   0  -1  -6 159450. 2129.37   2
   0   1   6 160748. 2127.53   5
   0  -1  -7 503.186 133.244   6
   0   1   7 709.199 99.9927  55
   0  -1  -7 394.725 120.077   2
   0  -1  -7 470.264 91.8433  41
   0  -1  -7 503.761 86.9780  35
   0   1   7 696.572 153.755   4
   0   1   7 731.086 112.412  38
   0   1   8 44655.7 775.171  55
   0  -1  -8 46606.3 839.969  41
   0   1   8 47427.3 886.320  38
   0  -1  -9 599.733 101.569  47
   0  -1  -9 503.496 83.9610  40
   0  -1  -9 525.208 85.1067  34
   0   1   9 503.724 90.5809  38
   0  -1 -10 2665.07 148.234  34
   0   1  10 2701.27 169.667  38
   0  -1 -10 2773.55 173.806  47
   0   2 -10 2468.85 131.902  49
   0   2 -10 2591.30 140.693  34
   0  -2   9 7445.17 284.679  38
   0   2  -9 7766.43 319.079  47
   0   2  -9 7678.38 301.563  34
   0   2  -8 29047.1 641.702  34
   0  -2   8 28809.8 611.339  38
   0   2  -8 29110.7 678.374  47
   0  -2   7 48347.4 772.901  50
   0   2  -7 50832.1 804.369  16
   0  -2   7 47917.9 757.029  52
   0   2  -7 49866.2 885.677  47
   0   2  -7 49847.9 836.685  34
   0  -2   7 49535.9 803.258  29
   0   2  -6 35568.6 703.189  47
   0  -2   6 35597.6 682.193  29
   0  -2   6 35043.8 973.252   5
   0   2  -6 36195.2 942.911   2
   0   2  -6 35799.1 639.876  16
   0   2  -6 35777.8 668.412  34
   0  -2   6 35486.5 979.557   4
   0   2  -6 34672.1 615.137  45
   0   2  -6 36334.6 660.108  36
   0  -2   6 34944.9 634.285  52
   0  -2   6 37185.3 791.947  27
   0   2  -6 35744.7 932.944   6
   0  -2   6 34721.2 621.693  50
   0   2  -5 62224.4 1111.92   6
   0  -2   5 61466.2 1162.60   5
   0   2  -5 62609.2 1119.43   2
   0  -2   5 58306.3 924.591  27
   0  -2   5 61958.9 1163.55   4
   0  -2   5 59319.2 727.390   7
   0   2  -5 61248.0 770.217  16
   0  -2   4 12755.2 319.634   7
   0   2  -4 13492.6 325.424  16
   0   2  -4 14604.6 472.582   2
   0  -2   4 13646.5 493.824   5
   0  -2   4 14047.6 499.203   4
   0   2  -4 14350.3 467.446   6
   0   2  -3 65346.7 853.183   2
   0  -2   3 66995.7 678.634  19
   0  -2   3 64416.2 935.110   5
   0   2  -3 66159.9 633.530  16
   0  -2   3 62996.3 916.967   4
   0   2  -3 65197.6 850.676   6
   0   2  -2 45835.3 610.168   2
   0   2  -2 49795.7 479.104  16
   0  -2   2 49497.4 512.702   8
   0  -2   2 47720.2 686.495   4
   0  -2   2 47197.6 682.438   5
   0   2  -2 45366.7 604.406   6
   0  -2   1 98687.7 821.676   5
   0  -2   1 98563.7 814.155   4
   0   2  -1 99824.2 797.071   1
   0   2   0 177750. 865.176   3
   0  -2   0 176370. 911.223   5
   0  -2   0 179604. 923.816   4
   0   2   1 16676.6 216.253   3
   0  -2  -1 16710.9 205.497   7
   0  -2  -2 20602.2 480.071   6
   0  -2  -2 20600.8 482.143   2
   0   2   2 20957.2 297.655   3
   0  -2  -3 69347.9 1051.41   6
   0  -2  -3 69380.5 1046.61   2
   0  -2  -3 67852.5 764.101   9
   0  -2  -3 67977.3 714.527  18
   0   2   3 67917.5 732.264   3
   0  -2  -3 69565.5 580.645  15
   0   2   4 70081.8 1007.73   3
   0  -2  -4 71633.5 903.762   9
   0  -2  -4 70104.9 1238.70   6
   0   2   4 67896.4 1053.48   1
   0  -2  -4 70623.0 864.813  18
   0  -2  -4 69704.0 1232.48   2
   0  -2  -5 9520.36 524.777   2
   0  -2  -5 9369.25 291.909  25
   0  -2  -5 9223.56 514.762   6
   0  -2  -5 9768.70 303.643  20
   0  -2  -5 10036.8 380.795   9
   0   2   5 9508.67 423.177   1
   0   2   6 1132.19 130.972  55
   0  -2  -6 1106.32 197.306   6
   0   2   6 1095.44 132.993  38
   0  -2  -6 1214.28 136.296  35
   0  -2  -6 1058.16 138.028   9
   0  -2  -6 1004.87 113.087  20
   0  -2  -6 1204.97 206.084   2
   0  -2  -6 973.907 139.285  41
   0   2   7 1271.26 151.770  38
   0   2   7 1138.13 138.918  55
   0  -2  -7 1107.80 132.925  35
   0  -2  -7 1131.99 147.613  41
   0  -2  -7 1081.13 124.737  20
   0   2   8 116545. 1344.95  55
   0  -2  -8 119368. 1304.91  35
   0   2   8 122042. 1464.02  38
   0  -2  -8 120039. 1416.21  41
   0   2   9 4438.67 258.411  38
   0  -2  -9 4839.21 254.624  41
   0   2   9 4175.62 228.445  55
   0  -2  -9 4300.08 228.985  34
   0   2  10 3101.80 178.650  38
   0  -2 -10 2956.76 171.212  47
   0  -2 -10 2783.70 156.053  40
   0   3  -9 19486.8 457.659  34
   0   3  -9 18739.9 429.544  49
   0   3  -8 29.7026 35.6354  49
   0   3  -8 16.6500 28.1554  47
   0   3  -8 38.1587 35.3149  34
   0   3  -8 26.0074 34.3041  17
   0  -3   7 1476.15 131.918  50
   0  -3   7 1370.30 134.716  52
   0   3  -7 1647.05 149.278  36
   0   3  -7 1626.92 159.392  47
   0   3  -7 1515.59 136.990  45
   0   3  -7 1537.58 151.260  34
   0  -3   7 1367.04 146.814  29
   0   3  -6 33323.8 696.595  36
   0   3  -6 32489.1 675.732  47
   0  -3   6 32886.0 596.787  50
   0  -3   6 32462.6 954.936   5
   0   3  -6 32531.7 952.707   6
   0  -3   6 32040.1 642.162  52
   0  -3   6 32713.0 959.602   4
   0   3  -6 32653.6 629.487  45
   0   3  -6 32517.0 661.919  34
   0   3  -6 32078.7 948.416   2
   0  -3   6 34513.5 829.616  27
   0  -3   6 32697.6 723.067  29
   0  -3   5 21233.3 490.346   7
   0   3  -5 23099.9 520.201  47
   0  -3   5 22594.8 636.846  27
   0  -3   5 21647.9 715.386   5
   0   3  -5 22654.5 496.767  45
   0  -3   5 22469.5 730.268   4
   0   3  -5 22507.5 502.801  16
   0   3  -5 22877.3 511.851  34
   0   3  -5 23558.2 754.460   2
   0   3  -5 23611.9 753.688   6
   0   3  -4 61700.9 1084.39   6
   0  -3   4 61106.1 1082.36   5
   0  -3   4 62031.8 955.021  27
   0  -3   4 62078.4 781.708  19
   0  -3   4 60401.5 911.080  30
   0   3  -4 62543.0 760.105  16
   0  -3   4 60923.9 1079.63   4
   0   3  -4 61667.6 1083.57   2
   0  -3   3 22264.2 418.751  19
   0   3  -3 21603.6 405.993  16
   0  -3   3 21033.8 561.260   5
   0  -3   3 20943.0 559.521   4
   0   3  -2 15728.6 306.133  17
   0   3  -2 15964.6 405.736   1
   0  -3   2 15662.6 322.790   8
   0  -3   2 15671.7 427.498   5
   0  -3   2 15782.3 321.714  19
   0  -3   2 15631.4 426.633   4
   0  -3   1 2084.30 135.774   5
   0  -3   1 2172.40 109.788   8
   0  -3   1 2042.21 135.005   4
   0   3  -1 1958.88 140.756   1
   0   3  -1 2070.24 105.262  17
   0  -3   0 125128. 941.061   5
   0  -3   0 124358. 933.813   4
   0   3   0 128021. 1165.53   1
   0   3   0 125621. 929.969   3
   0  -3  -1 103224. 673.121   7
   0   3   1 101271. 1125.69   1
   0  -3  -2 6331.82 129.770   7
   0   3   2 5765.16 297.377   1
   0  -3  -2 5921.85 301.511   6
   0  -3  -2 6323.02 157.818  14
   0   3   2 5923.34 152.443   3
   0  -3  -2 6076.00 307.560   2
   0  -3  -3 8082.07 269.801  18
   0  -3  -3 8284.07 402.068   6
   0  -3  -3 8586.70 409.038   2
   0  -3  -3 8181.53 218.138  15
   0  -3  -4 57591.0 1211.71   6
   0  -3  -4 58718.9 828.111  18
   0  -3  -4 55744.1 648.587  15
   0  -3  -4 56115.3 879.444   9
   0  -3  -4 58102.1 1212.51   2
   0  -3  -5 95400.4 1272.91   9
   0  -3  -5 94103.8 1208.36  18
   0  -3  -5 93880.9 1745.56   2
   0  -3  -5 94428.1 918.564  25
   0  -3  -5 94248.2 1761.62   6
   0  -3  -5 95988.3 961.624  20
   0   3   5 95849.3 1220.96  55
   0  -3  -6 33423.0 734.191  35
   0   3   6 33383.4 783.003  38
   0  -3  -6 33206.2 810.872   9
   0  -3  -6 32812.1 1133.17   2
   0  -3  -6 33068.2 1140.53   6
   0  -3  -6 33204.0 637.667  20
   0   3   6 34866.9 784.704  55
   0  -3  -6 31869.4 597.584  25
   0  -3  -7 2365.72 198.192  35
   0   3   7 2557.05 218.734  55
   0   3   7 2334.97 212.150  38
   0  -3  -7 2211.29 215.160   9
   0  -3  -7 2223.21 177.094  20
   0  -3  -7 2428.11 223.570  41
   0  -3  -8 6529.62 305.413  35
   0  -3  -8 6087.13 284.289  31
   0  -3  -8 6126.41 330.152  41
   0   3   8 6345.72 329.227  55
   0   3   8 6171.42 333.304  38
   0  -3  -9 23397.9 505.497  42
   0   3   9 24319.1 561.361  55
   0   3   9 24838.4 590.637  38
   0  -3  -9 23978.1 512.775  34
   0  -3 -10 10416.1 294.519  40
   0   3  10 10598.5 306.622  38
   0   4  -9 1978.61 133.911  34
   0  -4   8 27109.1 571.816  29
   0   4  -8 28415.3 599.453  34
   0   4  -8 27537.0 571.359  49
   0   4  -8 28916.8 543.822  36
   0  -4   8 26688.9 540.731  52
   0  -4   7 39007.0 807.295  29
   0   4  -7 37316.4 677.582  45
   0  -4   7 35945.7 696.647  52
   0   4  -7 35967.5 759.746  17
   0   4  -7 36375.0 729.131  49
   0   4  -7 37299.7 737.541  34
   0   4  -7 39547.0 743.423  36
   0   4  -6 1330.36 146.937  49
   0   4  -6 1149.27 137.700  17
   0  -4   6 1159.01 165.684  27
   0   4  -6 1148.51 140.820  36
   0   4  -6 1248.74 130.809  45
   0  -4   6 1128.46 128.292  52
   0   4  -6 1115.28 130.741  34
   0  -4   6 1169.55 126.326  13
   0  -4   5 193.140 56.9679   7
   0   4  -5 57.6354 41.2565  49
   0   4  -5 18.2822 34.8803  17
   0   4  -5 120.485 45.1641  34
   0  -4   5 293.822 90.9945   4
   0  -4   5 92.8919 67.2227  27
   0   4  -5 19.0780 28.9261  45
   0  -4   5 286.650 88.0834   5
   0  -4   4 51598.5 1050.48   5
   0  -4   4 48085.9 818.992   7
   0  -4   4 51645.3 1057.47   4
   0   4  -4 51573.6 806.722  49
   0  -4   4 51539.9 760.787  19
   0   4  -4 50659.1 779.414  17
   0   4  -4 51339.9 762.095  34
   0   4  -4 51511.5 753.631  45
   0  -4   4 50325.3 915.182  30
   0   4  -4 51097.7 774.677  53
   0  -4   3 115742. 1205.80  30
   0  -4   3 108624. 1009.45  19
   0  -4   3 112954. 1393.78   5
   0  -4   3 114385. 1402.54   4
   0  -4   3 106031. 1178.11   7
   0   4  -3 106366. 1020.87  17
   0  -4   2 7393.30 295.130   7
   0  -4   2 7945.77 329.649   4
   0   4  -2 7987.63 337.772   1
   0  -4   2 7742.24 254.861   8
   0   4  -2 7433.66 249.342  17
   0  -4   2 7655.93 252.957  19
   0  -4   2 8120.51 335.164   5
   0  -4   1 113294. 1102.88   4
   0  -4   1 113024. 1071.32   7
   0  -4   1 112978. 1099.90   5
   0  -4   1 109701. 898.932   8
   0   4  -1 114288. 1283.53   1
   0   4   0 145229. 1506.21   1
   0  -4   0 145570. 1112.87   7
   0   4   1 105473. 1380.90   1
   0  -4  -1 107514. 838.449   7
   0  -4  -2 101415. 1441.75   2
   0   4   2 102403. 1491.52   1
   0  -4  -2 102442. 1444.75   6
   0  -4  -3 46258.4 587.490  15
   0  -4  -3 45363.1 1047.95   6
   0  -4  -3 45162.5 1044.23   2
   0  -4  -4 361.948 77.0316  18
   0  -4  -4 420.663 121.424   2
   0   4   4 347.951 80.0125  55
   0   4   4 413.036 115.271   1
   0  -4  -4 467.642 67.5354  15
   0  -4  -4 280.756 103.680   6
   0   4   5 36291.6 1094.20   1
   0  -4  -5 38147.6 1195.19   6
   0  -4  -5 38542.4 876.827   9
   0  -4  -5 39083.2 792.821  35
   0  -4  -5 38589.9 821.743  18
   0  -4  -5 37812.5 626.184  20
   0   4   5 37438.6 661.098  48
   0   4   5 34589.4 777.950  38
   0  -4  -5 38322.7 1196.54   2
   0   4   5 35146.3 815.909  55
   0  -4  -6 63923.4 1053.75  35
   0   4   6 64309.3 1171.43  38
   0  -4  -6 62540.2 881.314  20
   0   4   6 63297.6 855.002  48
   0  -4  -6 61281.8 823.775  25
   0  -4  -6 62092.6 1186.12   9
   0   4   6 64275.3 1154.80  55
   0  -4  -7 26790.6 758.923  41
   0   4   7 29269.6 770.463  38
   0  -4  -7 27352.6 607.488  20
   0  -4  -7 28086.3 682.144  35
   0  -4  -7 26497.7 776.369   9
   0  -4  -8 6618.40 302.752  31
   0  -4  -8 6936.81 353.382  41
   0   4   8 7161.85 345.641  38
   0   4   8 7236.82 354.918  55
   0  -4  -8 6862.18 303.058  35
   0   4   9 5175.30 251.183  55
   0  -4  -9 4560.77 222.865  42
   0  -4  -9 5338.95 253.752  41
   0   4   9 4902.65 240.541  38
   0  -4  -9 4980.67 225.477  31
   0  -5   8 16350.7 393.737  52
   0   5  -8 17150.0 427.972  34
   0  -5   8 16275.4 408.248  29
   0  -5   7 35571.4 756.080  29
   0   5  -7 36133.1 693.702  36
   0  -5   7 34348.6 669.333  52
   0   5  -7 34513.4 685.905  34
   0   5  -7 34150.3 626.896  45
   0   5  -6 15787.4 525.626  17
   0   5  -6 15617.6 455.890  45
   0   5  -6 15777.1 515.248  36
   0  -5   6 14671.5 469.012  13
   0  -5   6 15758.2 484.115  52
   0   5  -6 16240.5 495.084  34
   0   5  -6 17585.4 544.930  49
   0  -5   6 16785.7 618.334  27
   0   5  -5 40326.7 743.757  45
   0   5  -5 40519.0 760.249  53
   0  -5   5 40896.8 976.243  27
   0  -5   5 38889.3 791.882  13
   0   5  -5 40206.3 769.685  34
   0   5  -5 41303.5 847.039  17
   0   5  -4 121.229 44.4894  45
   0   5  -4 96.0100 47.3292  17
   0   5  -4 94.7467 46.8917  49
   0  -5   4 102.337 46.9704   7
   0   5  -4 207.159 59.6771  34
   0  -5   4 102.731 67.6595  30
   0   5  -4 81.0094 45.4149  53
   0   5  -3 86998.2 1091.42  53
   0   5  -3 87164.0 1010.36  45
   0   5  -3 86304.3 1004.81  34
   0  -5   3 88520.6 1174.91  30
   0   5  -3 83865.2 1029.40  17
   0  -5   3 87281.3 985.150  19
   0   5  -3 83780.8 1053.57  49
   0  -5   3 84962.7 1185.88   7
   0  -5   2 101262. 1021.01   8
   0   5  -2 99133.3 1012.40  45
   0   5  -2 96309.0 1046.80  49
   0   5  -2 95163.8 1076.97  21
   0  -5   2 98419.0 1232.05   7
   0   5  -2 100956. 1129.46  53
   0   5  -2 96035.9 1006.16  34
   0  -5   2 98983.0 1011.16  19
   0  -5   1 87918.5 907.041   8
   0  -5   1 84574.6 889.401  19
   0  -5   1 92970.2 1123.97   7
   0   5  -1 89239.9 1035.09  21
   0   5  -1 93154.1 1369.25   1
   0   5   0 201.950 73.2466   1
   0  -5   0 266.087 60.1064   7
   0   5   0 319.661 67.6827  21
   0   5   1 1792.05 215.898   1
   0  -5  -1 1740.64 125.414   7
   0  -5  -1 1553.41 197.681   6
   0   5   1 1676.16 145.543  21
   0  -5  -2 83147.9 1492.08   6
   0  -5  -2 82508.5 1490.35   2
   0   5   2 83523.2 1023.27  21
   0   5   2 85238.8 1587.76   1
   0  -5  -2 87490.7 831.020  14
   0   5   3 65243.9 958.656  55
   0  -5  -3 65903.4 1425.76   2
   0  -5  -3 70163.7 815.765  15
   0  -5  -3 66429.3 1430.92   6
   0   5   3 66851.8 917.827  21
   0   5   3 62595.8 1478.79   1
   0  -5  -4 58277.6 1467.75   6
   0   5   4 51257.2 1419.83   1
   0  -5  -4 59675.5 991.058  18
   0  -5  -4 58807.3 1468.48   2
   0   5   4 47533.7 934.543  55
   0  -5  -4 57042.6 1067.37   9
   0  -5  -5 2403.84 221.445  18
   0   5   5 2141.01 299.551   1
   0   5   5 2095.27 187.839  38
   0  -5  -5 2465.05 168.674  20
   0   5   5 1961.58 209.454  55
   0  -5  -5 2442.65 242.704   9
   0  -5  -5 2623.29 340.807   6
   0  -5  -5 2283.87 315.951   2
   0  -5  -6 39316.3 920.044  18
   0  -5  -6 40273.5 856.581  35
   0   5   6 39430.6 945.525  55
   0   5   6 39316.8 721.462  48
   0  -5  -6 39818.4 993.245   9
   0  -5  -6 40636.6 721.915  20
   0   5   7 6698.87 351.064  38
   0  -5  -7 6253.62 282.535  20
   0   5   7 6361.83 362.339  55
   0  -5  -7 5981.68 361.278  41
   0  -5  -7 6010.88 307.999  35
   0   5   7 6024.71 256.070  48
   0   5   8 33907.2 731.039  55
   0  -5  -8 33193.1 657.856  31
   0  -5  -8 32122.8 711.631  41
   0   5   8 31429.3 643.449  38
   0  -5  -9 5514.20 223.289  42
   0   5   9 5674.16 216.137  38
   0   5   9 6269.81 253.443  55
   0  -5  -9 6573.13 253.073  41
   0   6  -8 9282.82 265.078  34
   0   6  -7 3905.71 206.454  36
   0  -6   7 3901.09 209.109  52
   0  -6   7 3791.00 223.355  29
   0   6  -7 3648.59 204.548  34
   0  -6   6 32616.5 811.562  27
   0  -6   6 31432.5 665.766  52
   0   6  -6 31253.4 687.590  36
   0   6  -6 30695.2 657.861  34
   0  -6   5 82601.1 1383.24  27
   0   6  -5 83507.4 1129.36  34
   0   6  -5 81312.4 1209.12  36
   0   6  -5 83394.0 1112.63  53
   0  -6   5 82677.5 1208.67  13
   0   6  -4 13951.2 480.417  53
   0  -6   4 13746.8 530.176  30
   0   6  -4 14739.8 533.907  49
   0  -6   4 13746.1 511.079  13
   0   6  -4 13995.3 456.260  34
   0   6  -4 13734.3 441.337  45
   0  -6   3 2584.26 221.908  30
   0   6  -3 2605.15 192.413  34
   0   6  -3 2609.31 208.297  49
   0  -6   3 2578.26 229.852   7
   0   6  -3 2605.10 210.566  53
   0   6  -2 36076.9 686.608  34
   0   6  -2 36951.3 732.676  49
   0   6  -2 37227.4 752.263  21
   0  -6   2 39186.4 865.700   7
   0   6  -2 37923.7 782.297  53
   0  -6   1 18624.4 566.962   7
   0   6  -1 18203.3 533.273  21
   0   6  -1 18053.2 527.196  53
   0   6  -1 17369.0 482.503  49
   0   6  -1 18988.6 709.299   1
   0   6   0 94046.6 1165.35  53
   0   6   0 93426.9 1208.49  21
   0  -6  -1 55851.9 1333.67   2
   0  -6  -1 55251.7 1326.57   6
   0   6   1 57837.3 884.596  53
   0   6   2 2118.95 288.061   1
   0  -6  -2 1872.13 254.088   6
   0  -6  -2 1889.36 258.847   2
   0   6   2 1903.05 176.677  21
   0   6   3 23080.4 1009.90   1
   0   6   3 25106.3 628.720  21
   0  -6  -3 26355.2 552.930  15
   0  -6  -3 23899.6 951.376   2
   0  -6  -3 23906.4 949.957   6
   0   6   3 25199.0 609.519  55
   0  -6  -4 14863.5 592.100   9
   0   6   4 14879.9 504.449  48
   0  -6  -4 15079.1 532.896  18
   0   6   5 51032.7 896.323  48
   0  -6  -5 48725.5 1103.49   9
   0  -6  -5 48656.9 1010.16  18
   0  -6  -6 1643.56 191.435  18
   0   6   6 1940.93 164.044  48
   0  -6  -6 1848.20 179.405  35
   0   6   6 1917.54 205.983  55
   0  -6  -7 9592.80 421.765  41
   0   6   7 9993.60 319.510  48
   0  -6  -8 9416.91 341.632  41
   0   6   8 9824.51 347.486  55
   0  -6  -8 9949.63 334.341  31
   0   7  -7 4886.70 186.706  36
   0  -7   7 5113.33 199.705  52
   0   7  -6 1008.40 108.161  36
   0   7  -6 1020.83 108.317  34
   0  -7   6 1125.91 133.127  27
   0  -7   6 999.715 121.974  29
   0  -7   6 1073.05 112.680  52
   0  -7   5 1541.86 178.850  27
   0   7  -5 1609.57 145.532  53
   0   7  -5 1561.53 148.543  34
   0   7  -5 1511.14 153.276  36
   0  -7   5 1634.42 152.987  52
   0  -7   4 26233.8 713.456  13
   0   7  -4 24899.6 632.319  53
   0   7  -4 25614.3 621.934  34
   0  -7   3 46812.7 983.090  13
   0   7  -3 46912.9 937.210  49
   0   7  -3 45672.5 829.855  34
   0   7  -3 47968.1 911.485  53
   0  -7   2 15143.4 560.300  13
   0   7  -2 14995.3 519.276  53
   0   7  -1 3225.19 241.099  53
   0  -7   1 3147.10 246.443  13
   0   7   0 18333.2 583.968  21
   0   7   0 17768.0 544.868  53
   0  -7   0 18586.8 546.365  13
   0  -7  -1 51256.7 851.746  14
   0   7   1 50819.0 974.089  21
   0  -7  -2 12398.1 414.696  15
   0   7   2 10232.7 454.849  48
   0  -7  -3 32457.1 881.634   9
   0   7   3 33881.4 814.332  48
   0  -7  -3 34372.5 800.461  18
   0   7   4 5033.14 304.625  48
   0  -7  -4 4522.35 300.053  18
   0   7   5 11745.9 428.781  48
   0  -7  -5 9894.12 445.826  18
   0   7   6 34137.5 637.275  48
   0   7   7 17906.4 381.984  48
   0  -7  -7 16918.3 477.863  41
   0  -8   5 10874.0 374.754  27
   0   8  -5 11731.1 333.269  36
   0  -8   5 12086.5 353.322  52
   0   8  -5 11195.1 311.933  53
   0  -8   4 591.605 106.321  27
   0   8  -4 510.622 82.1978  36
   0  -8   4 623.839 92.7532  52
   0   8  -4 493.715 81.2297  53
   0   8  -3 5646.40 254.598  24
   0  -8   3 5196.42 275.333  52
   0   8  -3 4792.34 255.852  36
   0   8  -3 5206.73 279.837  53
   0   8  -2 47388.8 812.666  36
   0   8  -2 51897.7 915.617  53
   0   8  -1 12639.5 458.361  53
   0   8   0 28985.5 675.892  53
   0  -8   0 28185.2 690.911  14
   0   8   1 1203.89 145.514  48
   0   8   1 1253.13 135.831  53
   0  -8  -1 1293.04 143.630  15
   0   8   2 19333.4 599.205  48
   0  -8  -2 22377.1 631.597  18
   0   8   3 34252.1 787.068  48
   0   8   3 37341.6 789.164  24
   0   8   4 27826.8 659.216  48
   0  -8  -5 9213.07 351.059  31
   0   8   5 10375.2 359.932  48
   0  -8  -6 5355.63 258.217  41
   0   8   6 7417.63 253.602  48
   0   9  -3 3486.50 183.107  53
   0   9  -2 1483.15 125.953  24
   0   9  -2 1480.06 130.089  53
   0   9  -1 12828.7 387.289  53
   0   9  -1 13792.5 443.248  24
   0   9   0 36360.7 792.170  24
   0   9   0 37298.2 644.535  53
   0   9   1 19010.4 585.563  24
   0   9   2 28.6390 30.2569  48
   0   9   2 71.3092 41.7119  24
   0   9   3 571.537 86.9590  48
   0   9   3 644.907 87.4401  24
   0   9   4 28922.1 544.875  48
  -1   9   2 3768.29 199.224  48
  -1   9   1 3396.39 218.238  24
  -1   9   0 18322.2 365.988  53
  -1   9   0 24313.3 610.911  24
  -1   9  -1 23234.1 440.284  53
  -1   9  -1 26387.3 560.460  24
  -1   9  -2 6683.97 233.672  53
  -1   8   5 894.002 84.4026  48
  -1   8   4 5850.95 255.350  48
   1  -8  -4 5415.46 272.239  35
  -1   8   3 38307.3 738.418  48
  -1   8   2 17480.0 536.254  48
  -1   8   1 6775.76 340.057  48
  -1   8   0 5433.30 262.336  53
  -1   8  -1 12631.8 413.420  53
   1  -8   2 10124.7 436.891  30
  -1   8  -2 11782.5 399.200  53
   1  -8   3 17932.2 564.375  30
  -1   8  -3 22305.6 526.849  53
  -1   8  -4 402.711 67.8079  53
  -1   8  -4 465.651 63.0198  36
   1  -8   4 426.852 96.1888  27
  -1   8  -5 2473.72 137.178  53
  -1   8  -5 2356.91 128.076  36
  -1   7   6 10489.6 290.896  48
   1  -7  -6 9724.06 328.712  35
   1  -7  -5 25590.4 634.257  31
  -1   7   5 24534.4 540.184  48
   1  -7  -5 23737.0 619.052  35
  -1   7   4 5442.08 287.556  48
   1  -7  -4 5633.29 313.968  31
   1  -7  -4 5127.78 329.359  18
  -1   7   3 57749.6 1010.47  48
   1  -7  -3 54652.4 1067.18  18
   1  -7  -2 1564.40 157.044  15
   1  -7  -1 67955.5 1066.96  15
  -1   7   1 67511.6 948.137  53
   1  -7  -1 69778.6 1033.44  14
  -1   7   0 6227.26 282.713  58
  -1   7   0 6722.49 321.270  53
   1  -7   0 6666.67 343.721  14
   1  -7   1 2138.84 196.620  13
   1  -7   1 1883.12 195.023  14
  -1   7  -1 2063.65 185.716  53
   1  -7   2 2751.22 236.789  13
  -1   7  -2 2570.09 208.663  53
   1  -7   3 24975.6 737.357  30
   1  -7   3 26246.9 736.433  13
  -1   7  -3 26017.1 648.795  53
   1  -7   3 26454.0 639.662  52
  -1   7  -3 24698.2 586.799  36
   1  -7   4 20146.0 661.275  30
  -1   7  -4 21621.9 539.685  36
  -1   7  -4 22042.8 566.399  53
  -1   7  -4 21369.9 594.609  49
   1  -7   4 23144.9 597.589  52
   1  -7   5 1640.57 154.081  52
   1  -7   5 1562.03 188.378  27
   1  -7   5 1421.89 166.765  30
  -1   7  -5 1505.87 135.930  36
  -1   7  -5 1465.71 135.054  53
  -1   7  -5 1393.18 146.799  49
   1  -7   6 1561.71 162.951  27
   1  -7   6 1551.52 135.381  52
  -1   7  -6 1272.67 115.472  49
  -1   7  -6 1411.99 107.590  53
  -1   7  -6 1407.83 117.809  36
   1  -6  -7 7.54841 30.7073  31
   1  -6  -7 15.5202 36.3037  41
   1  -6  -7 42.5172 33.3355  35
  -1   6   7 15.0987 22.7777  55
   1  -6  -6 6223.02 318.839  31
  -1   6   6 6093.17 318.777  55
   1  -6  -6 5934.50 316.708  35
  -1   6   6 5817.15 251.463  48
   1  -6  -5 20450.0 644.474  35
   1  -6  -5 20550.5 678.905  18
   1  -6  -5 22620.4 647.439  31
  -1   6   5 21384.8 548.491  48
   1  -6  -4 21468.3 749.839   9
  -1   6   4 22803.1 609.204  48
  -1   6   4 22882.6 658.981  55
   1  -6  -4 22537.3 698.392  18
   1  -6  -3 11240.7 404.462  15
   1  -6  -3 10806.3 467.581  18
   1  -6  -2 28850.3 593.265  14
   1  -6  -2 28229.3 645.739  15
  -1   6   1 38047.2 707.618  53
   1  -6  -1 37264.6 1227.51   2
   1  -6  -1 37622.1 1226.99   6
   1  -6  -1 40362.3 746.922  14
  -1   6   0 26020.2 617.623  53
   1  -6   0 27450.4 600.148  13
  -1   6   0 28133.1 952.255   1
   1  -6   0 25716.0 625.569  14
  -1   6  -1 70555.6 1425.05   1
  -1   6  -1 68887.6 1037.85  53
   1  -6   1 73021.6 1081.92  13
  -1   6  -1 69739.7 1089.25  42
  -1   6  -2 11424.4 430.817  53
   1  -6   2 11741.8 464.408  13
  -1   6  -2 10717.2 400.144  49
  -1   6  -2 10401.7 429.411  42
  -1   6  -3 133.175 55.0540  34
  -1   6  -3 102.131 51.7299  49
   1  -6   3 134.460 60.2365  13
  -1   6  -3 130.828 56.2646  53
  -1   6  -4 252.905 68.7986  36
  -1   6  -4 188.947 61.8499  49
  -1   6  -4 275.292 69.3950  34
  -1   6  -4 260.102 77.0346  53
   1  -6   4 316.700 76.6901  52
   1  -6   4 238.080 76.1378  13
   1  -6   4 249.904 93.7381  30
  -1   6  -5 87135.9 1115.40  53
   1  -6   5 86302.9 1484.59  27
   1  -6   5 88043.8 1282.82  13
   1  -6   5 88648.6 1194.30  52
   1  -6   5 85361.4 1415.81  30
  -1   6  -5 90361.9 1254.19  49
  -1   6  -5 86243.6 1160.78  36
  -1   6  -5 87383.9 1126.01  34
  -1   6  -6 16467.9 466.856  34
  -1   6  -6 16801.1 430.348  53
  -1   6  -6 16495.7 497.030  49
   1  -6   6 17530.3 507.291  52
   1  -6   6 16403.1 609.784  27
  -1   6  -6 17019.3 479.942  36
  -1   6  -7 16960.5 420.599  36
   1  -6   7 16776.8 479.097  29
  -1   6  -7 17024.9 427.165  34
   1  -6   7 17548.4 451.853  52
   1  -6   7 18205.3 557.046  27
  -1   6  -7 15815.1 415.599  49
   1  -6   8 3318.26 162.913  52
  -1   6  -8 3435.04 159.120  34
  -1   5   8 30118.4 563.850  55
   1  -5  -8 30416.3 573.633  31
   1  -5  -8 30009.4 588.188  41
   1  -5  -7 13663.5 456.794  35
   1  -5  -7 13474.6 502.270  41
  -1   5   7 14815.6 478.804  55
   1  -5  -7 14450.6 460.330  31
   1  -5  -6 21336.6 608.278  31
  -1   5   6 19958.5 482.764  48
  -1   5   6 22027.7 656.975  55
   1  -5  -6 19726.1 626.168  35
   1  -5  -5 7553.69 440.216   9
  -1   5   5 8426.93 429.759  55
  -1   5   5 7500.22 322.902  48
   1  -5  -5 7637.91 418.393  18
   1  -5  -5 7476.99 398.767  35
   1  -5  -4 22872.4 569.483  15
   1  -5  -4 22970.8 678.410  18
   1  -5  -4 22278.7 732.345   9
  -1   5   3 96351.2 1234.46  55
   1  -5  -3 108801. 2061.38   2
  -1   5   3 97198.7 2022.79   1
   1  -5  -3 109277. 2057.41   6
   1  -5  -3 111737. 1183.47  15
   1  -5  -3 108053. 1374.63  18
   1  -5  -2 40239.3 1185.13   2
   1  -5  -2 41147.0 710.237  15
  -1   5   2 41026.6 1204.84   1
   1  -5  -2 42802.9 658.483  14
   1  -5  -2 39524.9 1172.32   6
   1  -5  -1 58568.1 1356.06   6
  -1   5   1 56943.9 767.926  58
   1  -5  -1 58211.5 1356.92   2
  -1   5   1 56895.9 796.674  53
   1  -5  -1 59736.8 804.317  14
  -1   5   0 1787.10 149.135  53
   1  -5   0 1740.70 137.135  13
  -1   5   0 1629.55 206.445   1
  -1   5   0 1559.68 144.199  42
  -1   5  -1 40782.2 739.695  42
   1  -5   1 42901.9 761.100   7
  -1   5  -1 40854.2 729.956  53
  -1   5  -1 40460.1 684.675  49
  -1   5  -1 42222.5 975.586   1
   1  -5   1 43221.2 744.678  13
  -1   5  -2 56115.0 822.825  49
  -1   5  -2 58024.8 894.999  53
   1  -5   2 59631.5 960.989   7
   1  -5   2 59066.1 939.537  13
  -1   5  -2 56110.1 898.108  42
  -1   5  -2 58182.6 819.865  34
  -1   5  -2 58845.4 1099.89   1
  -1   5  -3 104678. 1170.47  49
   1  -5   3 107579. 1321.03  13
  -1   5  -3 104969. 1231.13  53
  -1   5  -3 105059. 1136.90  34
   1  -5   3 108667. 1363.46   7
   1  -5   4 38798.0 917.740  30
  -1   5  -4 38033.1 748.826  53
   1  -5   4 38691.6 840.309   7
   1  -5   4 38534.1 818.424  13
  -1   5  -4 37576.7 743.737  49
  -1   5  -4 37972.0 710.829  34
  -1   5  -5 71422.2 1010.36  34
   1  -5   5 69335.3 1095.52  13
  -1   5  -5 70467.3 1005.05  53
  -1   5  -5 68917.7 1063.46  36
   1  -5   5 71100.6 1059.42  52
  -1   5  -5 72746.3 1077.17  49
  -1   5  -5 69870.6 1048.08  17
   1  -5   5 73833.2 1336.84  30
   1  -5   6 589.764 138.484  27
  -1   5  -6 552.933 98.4036  49
   1  -5   6 691.535 107.472  52
   1  -5   6 594.655 101.612  13
  -1   5  -6 629.988 104.704  17
  -1   5  -6 587.117 101.847  36
  -1   5  -6 545.855 92.5050  34
  -1   5  -7 63439.2 913.943  34
   1  -5   7 63787.6 1039.20  29
  -1   5  -7 64043.3 941.264  49
  -1   5  -7 67376.0 943.122  36
   1  -5   7 65208.6 955.480  52
   1  -5   8 10116.5 330.971  52
  -1   5  -8 9641.06 317.711  49
  -1   5  -8 10149.5 325.464  34
  -1   4   9 3491.73 168.980  55
   1  -4  -9 3501.56 166.720  41
   1  -4  -8 1461.58 136.715  35
   1  -4  -8 1710.11 146.823  31
   1  -4  -8 1309.18 140.334  41
  -1   4   8 1248.11 115.357  38
  -1   4   8 1424.50 139.578  55
   1  -4  -7 26306.7 639.192  31
  -1   4   7 27565.1 694.250  55
  -1   4   7 26059.5 599.538  38
   1  -4  -7 26310.6 682.362  35
   1  -4  -7 25146.4 725.847  41
   1  -4  -6 55383.2 1158.04   9
  -1   4   6 61979.4 1097.41  55
  -1   4   6 65043.6 1025.48  38
   1  -4  -6 59018.9 1099.47  35
   1  -4  -5 66928.5 1158.75  35
   1  -4  -5 64919.8 895.106  20
   1  -4  -5 64939.6 1223.50   9
  -1   4   5 65234.4 1127.84  55
   1  -4  -5 65964.4 1182.63  18
  -1   4   5 63519.8 1551.24   1
  -1   4   5 65869.3 896.028  48
   1  -4  -4 28689.5 767.345   9
  -1   4   4 26374.0 986.349   1
   1  -4  -4 29658.9 611.614  15
   1  -4  -4 29461.6 725.460  18
   1  -4  -4 28891.9 1051.56   6
   1  -4  -4 29345.3 1058.00   2
   1  -4  -3 16124.5 412.630  15
   1  -4  -3 15984.9 708.672   6
   1  -4  -3 15532.7 476.263  18
   1  -4  -3 15768.2 704.175   2
  -1   4   2 52656.1 1192.22   1
   1  -4  -2 54285.5 1209.45   6
   1  -4  -2 55585.3 728.717  15
   1  -4  -2 54331.5 1218.56   2
   1  -4  -2 57208.8 668.432  14
   1  -4  -1 152018. 1111.08  14
   1  -4  -1 154777. 971.378  13
  -1   4   1 152397. 1267.40  21
   1  -4   0 134422. 1032.22  13
   1  -4   0 136223. 1054.16   7
  -1   4  -1 6087.87 319.599   1
   1  -4   1 5854.88 242.589  13
   1  -4   1 5801.96 243.145   7
  -1   4  -2 30554.5 683.982   1
   1  -4   2 30885.1 604.641   7
   1  -4   2 30203.9 588.974  13
  -1   4  -3 73936.5 852.333  34
  -1   4  -3 73814.5 874.061  17
   1  -4   3 73855.4 989.708   7
   1  -4   3 73309.3 979.929  13
  -1   4  -3 72569.2 863.972  49
  -1   4  -4 46994.5 759.191  53
  -1   4  -4 47182.0 747.259  49
  -1   4  -4 49041.5 740.752  34
   1  -4   4 46223.5 826.136   7
   1  -4   4 46653.1 814.456  13
   1  -4   4 47788.2 938.742  30
  -1   4  -4 49035.1 726.202  45
  -1   4  -4 47576.1 747.044  17
  -1   4  -5 24826.4 563.231  34
  -1   4  -5 23741.9 526.460  45
  -1   4  -5 23785.4 545.450  53
   1  -4   5 22642.8 583.977  13
   1  -4   5 23162.7 598.133   7
  -1   4  -5 22783.4 592.553  36
  -1   4  -5 24343.1 577.798  49
  -1   4  -5 24378.7 576.665  17
   1  -4   5 24263.7 739.293  30
   1  -4   6 726.196 106.848  13
  -1   4  -6 589.975 84.6066  45
  -1   4  -6 868.900 116.712  49
  -1   4  -6 669.470 108.267  36
  -1   4  -6 516.608 92.2341  17
   1  -4   6 578.231 135.353  27
   1  -4   6 655.542 103.829  52
  -1   4  -6 607.830 96.0008  34
   1  -4   7 7418.19 333.266  52
  -1   4  -7 7865.26 342.142  49
  -1   4  -7 7478.79 342.527  17
  -1   4  -7 7701.54 332.230  36
  -1   4  -7 7681.90 328.047  34
   1  -4   7 7882.37 427.953  27
   1  -4   7 7766.25 370.857  29
  -1   4  -8 22473.4 535.497  49
   1  -4   8 21806.2 525.490  52
  -1   4  -8 23276.8 535.482  34
  -1   4  -9 15178.4 371.121  49
  -1   4  -9 16236.3 383.742  34
   1  -4   9 15066.1 365.754  52
  -1   3   9 17590.5 413.483  55
  -1   3   9 16843.3 389.524  38
   1  -3  -9 16843.3 396.505  34
  -1   3   8 58492.1 920.935  55
   1  -3  -8 58007.6 904.384  35
   1  -3  -8 58820.9 952.464  41
  -1   3   8 54431.4 845.360  38
   1  -3  -8 54915.0 840.329  31
   1  -3  -7 220.522 84.0289  41
  -1   3   7 217.110 62.0788  38
  -1   3   7 239.318 71.4001  55
   1  -3  -7 232.693 69.4877  31
   1  -3  -7 161.576 65.5038  35
  -1   3   6 2266.83 197.493  38
   1  -3  -6 2015.22 213.406   9
  -1   3   6 2250.57 203.170  55
   1  -3  -6 2139.72 209.161  35
   1  -3  -5 48227.6 960.911  18
   1  -3  -5 48366.1 985.006   9
   1  -3  -5 48212.4 759.035  20
  -1   3   5 49667.4 914.329  55
  -1   3   5 48329.6 1222.00   1
   1  -3  -5 48379.8 951.377  35
   1  -3  -5 46218.5 1357.05   6
   1  -3  -5 47156.1 1368.19   2
   1  -3  -4 183901. 1753.91   9
  -1   3   4 167979. 2212.83   1
   1  -3  -4 183973. 2430.41   2
   1  -3  -4 180353. 1652.15  18
   1  -3  -4 179450. 2406.09   6
   1  -3  -4 177230. 1329.38  20
   1  -3  -4 180300. 1414.89  15
  -1   3   4 168900. 1589.52  55
   1  -3  -3 308.557 68.8314  18
   1  -3  -3 258.478 98.4118   6
  -1   3   3 317.569 96.0855   1
   1  -3  -3 277.874 95.2992   2
   1  -3  -2 15850.8 579.209   2
   1  -3  -2 16135.1 346.757  15
  -1   3   2 15140.6 556.109   1
   1  -3  -2 15392.5 567.359   6
   1  -3  -2 16347.9 315.707  14
   1  -3  -1 18267.2 329.822  14
   1  -3  -1 18239.5 282.537  13
  -1   3   1 18804.6 555.022   1
   1  -3   0 142745. 922.693   7
  -1   3   0 145781. 1405.00   1
   1  -3   1 47521.7 591.884   7
  -1   3  -1 48018.4 747.514   1
   1  -3   2 11285.2 317.259   7
   1  -3   2 12370.2 310.891   5
  -1   3  -2 11631.7 350.285   1
  -1   3  -2 11882.8 284.783  17
   1  -3   2 12348.9 310.762   4
   1  -3   3 10741.1 364.898   5
   1  -3   3 10828.2 366.170   4
  -1   3  -3 10778.3 334.357   1
  -1   3  -3 10574.7 287.353  17
   1  -3   3 9949.26 320.025   7
   1  -3   4 20669.7 562.977  30
   1  -3   4 19706.7 477.637   7
   1  -3   4 21185.8 602.648   4
   1  -3   4 19481.0 471.048  13
   1  -3   4 21188.9 600.542   5
  -1   3  -4 20862.0 441.156  17
   1  -3   5 45036.6 939.636  30
   1  -3   5 42935.8 736.706   7
   1  -3   5 43304.2 732.317  13
   1  -3   5 43999.7 991.918   4
  -1   3  -5 44528.0 661.715  45
  -1   3  -5 44495.0 770.342  36
  -1   3  -5 46608.3 727.642  17
  -1   3  -5 44964.9 723.484  47
  -1   3  -5 45741.6 704.107  34
   1  -3   5 45763.4 1009.25   5
   1  -3   5 44931.5 923.989  27
  -1   3  -6 8336.50 336.317  17
  -1   3  -6 8316.91 345.816  36
  -1   3  -6 8047.64 294.803  45
   1  -3   6 8108.48 338.996  52
  -1   3  -6 8024.75 332.948  47
   1  -3   6 7857.85 319.856  13
  -1   3  -6 8104.78 319.402  34
   1  -3   6 8361.50 424.586  27
   1  -3   6 8263.89 477.695   4
   1  -3   6 7804.81 463.829   5
  -1   3  -7 20137.4 528.230  36
   1  -3   7 19367.1 559.012  29
   1  -3   7 20431.3 666.878  27
  -1   3  -7 19700.0 521.161  34
  -1   3  -7 20207.2 550.545  17
   1  -3   7 18812.2 527.251  52
  -1   3  -7 19567.6 537.585  49
   1  -3   8 850.369 109.417  52
  -1   3  -8 943.044 117.268  49
  -1   3  -8 1141.76 124.774  34
  -1   3  -9 2851.72 180.454  49
   1  -3   9 2937.17 174.807  52
  -1   3  -9 2991.45 180.090  34
  -1   3 -10 2991.00 146.213  49
   1  -2  -9 4799.66 229.262  34
  -1   2   9 4670.02 226.596  38
  -1   2   9 4742.19 221.104  55
   1  -2  -9 4850.58 222.893  41
   1  -2  -8 38894.2 763.309  35
  -1   2   8 38092.1 739.546  38
  -1   2   8 38074.2 737.859  55
   1  -2  -8 38755.6 762.735  41
   1  -2  -8 36536.7 688.016  31
   1  -2  -7 31142.7 677.403  31
   1  -2  -7 32329.0 757.455  35
  -1   2   7 32229.9 708.605  38
   1  -2  -7 31163.9 757.568  41
   1  -2  -6 4167.30 411.425   6
   1  -2  -6 4303.18 252.592  31
   1  -2  -6 4139.22 292.189  41
   1  -2  -6 4011.99 403.613   2
   1  -2  -6 4443.08 285.281  35
  -1   2   6 4619.72 266.130  38
   1  -2  -6 3904.24 273.037   9
  -1   2   6 4544.14 270.333  55
   1  -2  -5 227.088 64.7159  35
   1  -2  -5 15.8901 47.2494  18
   1  -2  -5 24.2923 55.8117   2
   1  -2  -5 18.2846 30.2154  20
  -1   2   5 5.31935 27.5231  55
  -1   2   5 89.4210 45.1104  38
   1  -2  -5 39.5693 68.2266   6
   1  -2  -5 237.168 70.5293   9
  -1   2   5 28.5468 37.4669   1
   1  -2  -4 11626.2 334.556  20
   1  -2  -4 11059.0 555.768   2
  -1   2   4 11261.0 504.800   1
   1  -2  -4 11029.4 388.853  18
   1  -2  -4 11271.7 562.943   6
  -1   2   4 11971.6 480.238   5
  -1   2   4 12292.7 486.785   4
   1  -2  -4 11294.8 399.123   9
   1  -2  -3 27397.3 757.848   2
  -1   2   3 24245.0 688.050   1
   1  -2  -3 27174.5 521.850  18
   1  -2  -3 27226.3 461.851  15
   1  -2  -3 27333.7 761.745   6
  -1   2   3 25836.0 574.459   4
  -1   2   3 25496.0 570.804   5
   1  -2  -2 146449. 1530.72   6
   1  -2  -2 149857. 943.496  15
   1  -2  -2 144411. 1522.91   2
  -1   2   1 7532.15 301.009   1
   1  -2  -1 7457.05 183.446  14
   1  -2   0 53567.7 468.940  13
  -1   2   0 53211.1 701.060   1
  -1   2   0 52692.8 534.434  12
   1  -2   1 50261.0 520.034   7
   1  -2   1 50958.6 523.054  13
   1  -2   1 50080.9 373.550   5
  -1   2  -1 50451.9 477.856  17
  -1   2  -1 49854.0 611.392   1
   1  -2   1 50025.8 374.430   4
   1  -2   2 19737.3 363.333   7
   1  -2   2 20209.2 383.593   4
  -1   2  -2 19540.6 363.443   1
   1  -2   2 19996.2 380.919   5
  -1   2  -2 20396.3 317.214  17
   1  -2   3 20765.1 403.098   7
  -1   2  -3 21364.4 492.561   6
  -1   2  -3 21432.5 494.657   2
   1  -2   3 21916.8 503.065   4
   1  -2   3 21841.5 502.093   5
  -1   2  -4 83669.4 1102.69   6
  -1   2  -4 83920.0 1106.38   2
   1  -2   4 80534.3 853.374  13
   1  -2   4 79652.4 845.479   7
   1  -2   4 83797.3 1159.90   5
   1  -2   4 83913.1 1159.96   4
   1  -2   5 7877.58 359.320  30
   1  -2   5 7962.33 283.990  13
   1  -2   5 8261.27 419.727   4
   1  -2   5 7832.16 347.583  27
  -1   2  -5 8615.97 400.301   2
   1  -2   5 7991.28 283.773   7
  -1   2  -5 8593.29 399.793   6
   1  -2   5 7726.69 404.500   5
  -1   2  -6 13677.6 561.595   6
   1  -2   6 13280.8 416.876  52
  -1   2  -6 13864.3 420.936  47
   1  -2   6 13536.2 598.737   4
  -1   2  -6 13651.8 388.774  34
  -1   2  -6 14166.7 416.370  36
  -1   2  -6 13076.7 382.627  40
   1  -2   6 13325.2 591.112   5
  -1   2  -6 14299.0 575.523   2
   1  -2   6 13758.8 497.945  27
  -1   2  -7 29542.7 603.897  40
   1  -2   7 29806.0 644.029  52
   1  -2   7 31855.6 787.556  27
  -1   2  -7 31063.4 625.689  36
  -1   2  -7 30595.5 626.504  34
  -1   2  -7 30043.3 668.282  47
  -1   2  -8 23423.9 605.011  47
   1  -2   8 22305.5 545.540  52
  -1   2  -8 23348.8 555.762  34
   1  -2   9 2861.55 175.523  52
  -1   2  -9 2864.72 184.158  34
  -1   2 -10 4575.53 203.794  49
  -1   2 -10 4229.23 183.787  34
   1  -1  -9 5614.34 256.408  34
   1  -1  -9 5746.61 282.810  47
  -1   1   9 5525.95 254.473  38
  -1   1   9 5490.99 231.869  55
  -1   1   8 3761.77 236.079  38
  -1   1   8 3690.06 223.849  55
   1  -1  -8 3985.54 237.530  41
   1  -1  -7 3825.05 231.705  31
  -1   1   7 3653.03 235.170  38
   1  -1  -7 3406.79 238.243  41
  -1   1   7 3502.59 227.189  55
   1  -1  -7 3731.49 251.314  35
   1  -1  -6 24929.0 621.301   9
  -1   1   6 25667.8 824.069   4
  -1   1   6 25859.7 825.877   5
   1  -1  -6 24641.3 924.222   2
  -1   1   6 25589.9 593.548  55
   1  -1  -6 24226.9 924.965   6
   1  -1  -6 23954.9 638.628  41
   1  -1  -6 25636.3 594.064  31
   1  -1  -6 24703.2 643.791  35
  -1   1   6 25929.7 634.152  44
   1  -1  -5 43382.1 1150.44   6
  -1   1   5 48697.7 1035.71   4
  -1   1   5 47423.9 1020.03   5
  -1   1   5 47684.9 743.471  50
  -1   1   5 47764.5 752.444  55
   1  -1  -5 43672.6 1153.57   2
   1  -1  -5 42783.9 817.002  41
   1  -1  -5 44825.5 809.356  35
   1  -1  -5 44244.9 785.534   9
   1  -1  -4 69518.0 925.682  18
  -1   1   4 74433.9 1133.59   4
   1  -1  -4 71301.7 904.456   9
   1  -1  -4 68845.9 1293.92   6
   1  -1  -4 69936.8 1301.81   2
  -1   1   4 75198.9 1139.91   5
   1  -1  -3 44847.4 625.702   9
  -1   1   3 44999.9 762.923   4
   1  -1  -3 45920.2 904.510   2
   1  -1  -3 45571.7 647.212  18
   1  -1  -3 46298.0 914.435   6
  -1   1   3 44500.5 758.597   5
   1  -1  -2 10724.6 257.837  18
  -1   1   2 9207.28 285.415   4
   1  -1  -2 11141.8 242.454  15
   1  -1  -2 10805.7 368.878   6
  -1   1   2 9239.81 286.964   5
   1  -1  -2 11579.0 382.845   2
  -1   1   1 49089.5 445.875  12
   1  -1  -1 48213.0 655.998   2
   1  -1  -1 48169.7 652.233   6
   1  -1   0 121176. 385.571   3
  -1   1   0 113906. 628.662  12
  -1   1  -1 48269.4 445.520   1
   1  -1   1 49341.5 357.817   4
   1  -1   1 48820.5 355.669   5
  -1   1  -2 62.1267 17.2234   1
   1  -1   2 343.428 43.9937  13
   1  -1   2 90.5409 30.2814   4
   1  -1   2 70.4097 27.3176   7
  -1   1  -2 231.905 43.4667   6
   1  -1   2 79.9239 30.0002   5
  -1   1  -2 226.431 42.6932   2
   1  -1   3 25139.1 530.732   4
  -1   1  -3 24429.1 470.410   2
   1  -1   3 25073.0 393.017  13
  -1   1  -3 24541.1 470.989   6
   1  -1   3 24286.2 382.682   7
   1  -1   3 24857.9 527.016   5
   1  -1   4 296754. 1470.78  13
  -1   1  -4 297942. 1921.54   2
   1  -1   4 303372. 1451.90   7
   1  -1   4 297414. 2167.28   4
   1  -1   4 296665. 2161.46   5
  -1   1  -4 299546. 1924.39   6
  -1   1  -4 302785. 1272.85  16
   1  -1   5 1165.70 98.7762  13
  -1   1  -5 1058.79 86.9282  16
   1  -1   5 1148.25 156.806   4
   1  -1   5 1169.37 159.372   5
  -1   1  -5 1149.59 137.836   2
  -1   1  -5 1106.04 135.703   6
   1  -1   6 7058.77 434.986   4
  -1   1  -6 7020.53 380.575   6
  -1   1  -6 7316.43 247.168  16
  -1   1  -6 7196.39 296.705  47
  -1   1  -6 7104.27 267.440  34
   1  -1   6 6818.27 319.682  27
  -1   1  -6 7053.27 382.797   2
  -1   1  -6 6806.73 269.689  40
   1  -1   6 7248.15 438.814   5
  -1   1  -6 7169.77 269.533  36
   1  -1   6 7138.60 294.705  52
   1  -1   7 18819.8 494.258  52
  -1   1  -7 19174.1 487.924  40
  -1   1  -7 19482.6 705.481   2
  -1   1  -7 19532.0 483.192  34
  -1   1  -7 19720.7 707.482   6
   1  -1   7 18716.9 491.681  38
   1  -1   7 19901.4 799.204   5
   1  -1   7 19567.3 796.040   4
  -1   1  -7 19819.8 538.591  47
   1  -1   8 27741.9 590.699  52
  -1   1  -8 29857.1 688.240  47
  -1   1  -8 28606.6 611.816  40
   1  -1   8 29467.5 638.721  38
  -1   1  -8 28739.3 611.171  34
   1  -1   9 32376.1 645.328  38
  -1   1  -9 30745.8 601.061  40
  -1   1  -9 32471.8 622.514  34
  -1   1  -9 32493.7 695.327  47
  -1   1 -10 2296.65 141.628  34
   1   0 -10 429.495 61.0008  47
  -1   0  10 384.836 56.1259  38
  -1   0   9 21970.9 508.949  38
   1   0  -9 22470.2 554.640  47
   1   0  -9 21961.3 508.956  34
   1   0  -8 39041.2 772.411  34
  -1   0   8 38588.0 742.750  38
  -1   0   7 6604.56 294.521  55
   1   0  -7 7116.64 322.317  16
   1   0  -7 7127.13 324.261  41
   1   0  -7 7185.73 335.038  35
   1   0  -6 12988.7 617.597   2
  -1   0   6 12877.4 589.621   4
  -1   0   6 13106.1 456.293  44
  -1   0   6 12699.0 392.232  55
  -1   0   6 13573.2 415.091  50
   1   0  -6 12932.8 429.707  41
   1   0  -6 13288.0 628.759   6
   1   0  -6 12902.6 439.761  35
  -1   0   6 13104.1 593.307   5
  -1   0   5 54767.1 850.626  44
  -1   0   5 56528.9 782.419  50
   1   0  -5 54021.6 838.996  35
   1   0  -5 56159.9 815.672  31
   1   0  -5 54281.8 779.589   9
   1   0  -5 53836.4 1170.11   2
   1   0  -5 53558.9 1178.33   6
  -1   0   5 56989.7 1117.83   4
  -1   0   5 56544.0 1110.84   5
   1   0  -4 152340. 1185.72   9
  -1   0   4 164948. 1700.75   4
  -1   0   4 166521. 1705.45   5
   1   0  -4 152426. 1804.46   6
   1   0  -4 151170. 1792.19   2
   1   0  -3 28799.9 686.932   6
   1   0  -3 29337.1 455.128   9
  -1   0   3 32523.8 660.475   5
  -1   0   3 32543.4 659.525   4
   1   0  -3 29242.3 689.384   2
  -1   0   2 19584.9 433.752   5
   1   0  -2 17512.6 439.815   2
   1   0  -2 18177.0 294.851   9
  -1   0   2 19626.3 435.113   4
   1   0  -2 17315.9 437.569   6
   1   0  -1 5663.31 188.516   2
  -1   0   1 6008.53 190.914   4
   1   0  -1 5589.43 188.002   6
  -1   0   1 5999.57 189.954   5
   1   0  -1 5631.59 159.514   3
  -1   0  -2 3004.47 126.061   2
  -1   0  -2 3029.32 126.692   6
   1   0   2 2939.09 139.775   5
   1   0   2 2991.76 141.145   4
  -1   0  -3 27790.4 492.028   2
  -1   0  -3 27532.0 327.318  11
   1   0   3 27954.5 561.990   4
  -1   0  -3 27570.7 485.929   6
   1   0   3 28045.1 561.832   5
  -1   0  -4 38022.5 434.894  11
  -1   0  -4 39255.3 693.416   6
   1   0   4 39163.8 801.854   4
   1   0   4 37102.0 453.248  13
   1   0   4 39490.9 804.170   5
  -1   0  -4 39648.7 701.844   2
   1   0   5 139322. 1749.86   4
  -1   0  -5 138415. 1507.29   2
  -1   0  -5 138729. 1514.88   6
  -1   0  -5 138864. 880.073  16
   1   0   5 138168. 1738.63   5
   1   0   6 47048.9 1144.91   4
  -1   0  -6 45977.3 699.685  20
  -1   0  -6 47317.8 704.196  41
  -1   0  -6 45968.0 974.976   2
   1   0   6 47356.5 1147.72   5
  -1   0  -6 46796.7 986.720   6
  -1   0  -7 6449.76 287.801  41
  -1   0  -7 6183.49 394.147   2
  -1   0  -7 6257.48 300.762  47
   1   0   7 6528.95 473.313   4
  -1   0  -7 6039.47 260.414  42
  -1   0  -7 6381.93 400.313   6
   1   0   7 6358.24 303.366  38
  -1   0  -7 6245.20 269.190  34
  -1   0  -8 8750.73 332.553  34
  -1   0  -8 8292.03 308.345  42
  -1   0  -8 8349.84 345.141  40
  -1   0  -8 8577.98 370.299  47
   1   0   8 8504.63 363.531  38
  -1   0  -9 42901.9 712.449  34
  -1   0  -9 43999.5 821.229  47
  -1   0  -9 41942.7 743.736  40
   1   0   9 43588.2 803.450  38
   1   0  10 18626.0 460.353  38
  -1   0 -10 18218.5 422.145  40
  -1   0 -10 19082.8 479.058  47
  -1   0 -10 18663.4 404.691  34
   1   1  -9 9601.06 351.375  47
   1   1  -9 9601.25 331.925  34
  -1  -1   9 9705.56 328.900  38
   1   1  -8 62571.8 1023.68  47
  -1  -1   8 62018.3 915.088  38
   1   1  -8 60410.5 945.703  34
  -1  -1   7 44600.0 780.643  50
   1   1  -7 47193.5 861.231  34
   1   1  -7 46614.9 825.197  16
  -1  -1   6 27221.3 860.217   5
  -1  -1   6 27905.4 590.157  50
   1   1  -6 26270.5 818.522   2
   1   1  -6 26884.5 829.615   6
   1   1  -6 27253.2 589.522  41
   1   1  -6 26774.9 584.641  45
   1   1  -6 28364.4 625.186  16
  -1  -1   6 26670.7 658.373  44
  -1  -1   6 27927.9 873.573   4
  -1  -1   5 9589.57 306.797  29
   1   1  -5 10232.6 472.077   2
  -1  -1   5 10216.0 481.483   4
  -1  -1   5 9830.42 367.724  44
   1   1  -5 10324.2 475.097   6
  -1  -1   5 10422.5 329.390  50
   1   1  -5 10193.5 349.194  35
  -1  -1   5 10350.3 484.476   5
   1   1  -4 8312.06 385.823   2
  -1  -1   4 8251.21 389.207   4
   1   1  -4 8133.09 384.031   6
  -1  -1   4 8212.68 388.778   5
   1   1  -3 423215. 2408.09   2
  -1  -1   3 424411. 2442.01   4
   1   1  -3 426640. 2432.61   6
  -1  -1   3 424766. 2443.00   5
   1   1  -2 92936.7 941.091   2
  -1  -1   2 92318.1 982.892   4
   1   1  -2 94435.6 957.427   6
  -1  -1   2 92377.2 983.550   5
   1   1  -1 21097.5 333.939   6
  -1  -1   1 20758.8 396.918   5
  -1  -1   1 21736.7 274.822   8
   1   1  -1 20307.1 364.887   3
  -1  -1   1 20560.7 396.951   4
   1   1  -1 20921.9 329.349   2
  -1  -1   0 68819.8 638.515   4
   1   1   0 68600.8 551.927   3
  -1  -1  -1 157590. 665.510   2
  -1  -1  -1 157910. 669.593   6
  -1  -1  -2 103558. 839.815   6
  -1  -1  -2 103502. 836.095   2
  -1  -1  -2 104939. 666.181   9
  -1  -1  -3 30491.4 579.260   6
  -1  -1  -3 30356.9 578.671   2
   1   1   3 32216.1 607.743   4
  -1  -1  -3 30882.3 437.918   9
  -1  -1  -4 64189.1 986.515   2
  -1  -1  -4 65236.8 998.929   6
   1   1   4 63461.2 1056.07   4
   1   1   4 63083.5 1053.48   5
  -1  -1  -4 63484.3 725.031   9
  -1  -1  -5 76957.2 897.842   9
  -1  -1  -5 75980.3 816.123  11
   1   1   5 75614.9 1331.80   4
  -1  -1  -5 78465.8 1226.18   2
   1   1   5 76139.7 1333.51   5
  -1  -1  -5 80342.9 1252.13   6
  -1  -1  -6 54217.4 805.897  41
   1   1   6 54999.4 1284.80   4
  -1  -1  -6 55622.3 756.757  25
  -1  -1  -6 53275.9 1109.86   2
  -1  -1  -6 54792.1 745.147  20
  -1  -1  -6 54044.0 1125.54   6
   1   1   6 55126.0 870.213  38
   1   1   7 34427.2 1078.92   3
   1   1   7 35233.8 756.182  38
  -1  -1  -7 35000.3 692.168  41
  -1  -1  -7 33318.7 656.812  42
  -1  -1  -7 34765.3 970.992   6
  -1  -1  -7 33979.4 654.146  20
  -1  -1  -7 35125.8 973.071   2
  -1  -1  -8 3509.79 210.080  34
  -1  -1  -8 3448.14 211.942  42
   1   1   8 3712.51 258.065  38
  -1  -1  -8 3372.72 232.730  47
  -1  -1  -8 3737.75 232.888  41
   1   1   9 2394.91 201.834  38
  -1  -1  -9 2413.66 193.488  47
  -1  -1  -9 2344.28 165.093  34
  -1  -1  -9 2335.77 186.954  40
  -1  -1  -9 2311.62 161.867  42
  -1  -1 -10 5827.82 253.289  40
  -1  -1 -10 6015.11 268.640  47
   1   1  10 5900.07 274.833  38
   1   2  -9 8714.14 313.779  47
  -1  -2   9 8980.81 296.287  38
   1   2  -9 9221.70 315.012  34
   1   2  -8 4133.53 251.591  47
  -1  -2   8 4147.20 229.293  38
   1   2  -8 4079.80 243.712  34
   1   2  -7 41036.6 777.886  16
   1   2  -7 42327.8 840.319  47
  -1  -2   7 41385.6 731.264  50
   1   2  -7 40929.2 735.620  45
   1   2  -7 42298.9 804.088  34
   1   2  -6 60101.8 1252.45   6
  -1  -2   6 63304.2 881.105  50
   1   2  -6 61379.1 1267.84   2
   1   2  -6 63108.2 915.587  45
  -1  -2   6 62867.7 903.742  29
   1   2  -6 64440.2 965.417  34
  -1  -2   6 64500.3 1352.58   4
  -1  -2   6 63404.0 1047.79  44
   1   2  -6 64281.4 946.833  16
  -1  -2   6 65457.8 1359.99   5
   1   2  -5 39799.4 697.315  16
   1   2  -5 39892.1 937.502   6
  -1  -2   5 41098.1 999.747   5
  -1  -2   5 40647.3 991.629   4
  -1  -2   5 41079.6 654.644  50
   1   2  -5 40319.9 710.376  34
   1   2  -5 39612.3 933.911   2
   1   2  -5 39821.8 687.126  45
  -1  -2   5 40124.0 688.786  29
  -1  -2   5 39538.1 758.635  44
  -1  -2   4 31566.9 603.447  27
  -1  -2   4 31626.5 543.559  19
  -1  -2   4 31099.5 774.369   4
   1   2  -4 31480.2 750.800   6
   1   2  -4 31746.8 755.104   2
  -1  -2   4 30005.1 558.354  29
   1   2  -4 31023.9 555.769  16
  -1  -2   4 31016.0 774.193   5
   1   2  -3 110707. 1229.17   2
  -1  -2   3 103220. 874.578  19
   1   2  -3 111155. 1230.19   6
  -1  -2   3 102411. 1271.94   5
  -1  -2   3 100468. 1250.59   4
  -1  -2   2 39152.6 488.040   8
  -1  -2   2 40742.0 492.813  19
   1   2  -2 38910.3 575.287   6
   1   2  -2 38985.4 577.994   2
  -1  -2   2 38634.6 698.074   5
  -1  -2   2 38690.0 698.894   4
   1   2  -1 86380.4 668.536   2
   1   2  -1 93210.2 911.409   3
  -1  -2   1 91304.3 954.019   4
  -1  -2   1 92656.8 672.161   8
   1   2  -1 86685.7 669.834   6
  -1  -2   1 90557.0 944.818   5
  -1  -2   0 222996. 1381.89   4
   1   2   0 221684. 1213.99   3
  -1  -2  -1 154.834 31.3694   2
   1   2   1 146.956 36.0738   1
  -1  -2  -1 135.849 28.9735   6
  -1  -2  -2 2179.27 107.635   9
   1   2   2 2401.70 131.108   3
  -1  -2  -2 2127.89 132.703   6
  -1  -2  -2 2014.72 128.931   2
   1   2   2 2095.03 121.824   1
  -1  -2  -3 138991. 1328.81   6
  -1  -2  -3 135280. 884.209  18
  -1  -2  -3 142208. 1025.16   9
  -1  -2  -3 138540. 1323.91   2
   1   2   3 144613. 1210.23   3
   1   2   3 132402. 1039.50   1
  -1  -2  -4 51679.2 960.797   6
  -1  -2  -4 52480.8 721.294   9
  -1  -2  -4 51514.4 656.530  18
  -1  -2  -4 51799.4 958.586   2
  -1  -2  -5 23666.7 737.111   6
  -1  -2  -5 23814.2 739.002   2
  -1  -2  -5 23568.6 544.074   9
  -1  -2  -6 1064.39 104.031  25
  -1  -2  -6 890.281 110.541  11
  -1  -2  -6 988.201 125.286   9
  -1  -2  -6 1029.14 125.325  41
  -1  -2  -6 960.492 167.549   6
   1   2   6 1187.32 140.107  38
   1   2   6 909.849 164.537   3
  -1  -2  -6 994.539 170.885   2
  -1  -2  -6 902.193 97.4722  20
  -1  -2  -7 725.134 155.888   6
   1   2   7 706.865 108.003  55
  -1  -2  -7 1009.74 115.234  20
  -1  -2  -7 695.058 111.247  41
  -1  -2  -7 895.787 107.384  25
  -1  -2  -7 684.990 148.615   2
   1   2   7 1024.35 140.614  38
  -1  -2  -7 675.189 91.2766  35
  -1  -2  -8 28086.2 627.189  20
   1   2   8 28349.7 659.286  55
  -1  -2  -8 28588.7 651.756  42
  -1  -2  -8 29720.7 678.207  41
  -1  -2  -9 40524.4 712.319  42
   1   2   9 43189.4 875.790  38
  -1  -2  -9 42577.2 774.197  41
  -1  -2  -9 40897.7 777.170  47
  -1  -2 -10 6635.80 271.713  47
  -1  -2 -10 6392.46 268.460  40
   1   2  10 6620.44 297.109  38
   1   3  -9 13696.4 362.114  34
  -1  -3   9 12809.7 319.123  38
   1   3  -8 13630.6 426.021  47
   1   3  -8 13540.0 425.475  34
  -1  -3   7 6193.74 298.082  29
  -1  -3   7 6215.77 276.957  50
   1   3  -7 6338.27 314.019  34
   1   3  -7 6519.60 317.587  47
   1   3  -7 6330.57 308.042  16
   1   3  -7 6567.73 297.957  45
  -1  -3   6 16977.7 510.178  29
  -1  -3   6 16528.0 547.420  44
  -1  -3   6 16102.2 441.563  50
   1   3  -6 16170.3 491.603  47
   1   3  -6 16335.9 481.123  45
   1   3  -6 16074.5 484.358  16
   1   3  -6 15969.7 487.411  34
  -1  -3   5 13783.5 601.559   5
  -1  -3   5 13696.9 467.677  44
   1   3  -5 13343.1 419.574  34
   1   3  -5 14685.9 630.353   2
  -1  -3   5 13666.5 597.036   4
  -1  -3   5 14253.7 483.617  27
   1   3  -5 13723.5 422.826  47
   1   3  -5 13524.3 414.961  45
  -1  -3   5 13755.0 450.383  29
   1   3  -5 14139.6 615.332   6
  -1  -3   5 13967.8 389.519  50
   1   3  -5 13449.9 419.759  16
  -1  -3   4 80853.0 1322.30   5
   1   3  -4 80991.5 940.555  16
  -1  -3   4 80930.5 1057.71  27
   1   3  -4 89649.6 1476.20   2
  -1  -3   4 80781.1 923.395  19
  -1  -3   4 81200.1 1322.89   4
   1   3  -4 89447.6 1469.87   6
  -1  -3   3 76248.7 1160.35   4
   1   3  -3 75545.6 1112.42   6
  -1  -3   3 75889.9 1156.91   5
  -1  -3   3 77267.2 825.452  19
   1   3  -3 74949.7 813.535  16
   1   3  -3 76082.3 1113.83   2
  -1  -3   2 73.4549 41.9094   5
  -1  -3   2 78.4365 33.6052   8
  -1  -3   2 137.346 55.1409   4
   1   3  -2 85.6983 33.4073  16
   1   3  -1 308.902 38.8920  17
  -1  -3   1 345.908 51.9518   8
  -1  -3   1 328.034 69.0822   4
  -1  -3   1 341.931 70.7487   5
   1   3  -1 363.140 46.2534  16
   1   3  -1 264.982 64.6315   3
   1   3   0 40236.5 643.716   1
   1   3   0 40756.0 611.248   3
  -1  -3   0 40829.0 677.287   4
  -1  -3   0 41045.3 678.916   5
   1   3   1 182400. 1375.20   1
   1   3   1 196846. 1243.49   3
  -1  -3  -2 76140.8 902.780   2
  -1  -3  -2 75751.9 897.739   6
   1   3   2 74857.3 768.396   3
  -1  -3  -3 20.5454 34.6120   9
  -1  -3  -3 52.2012 39.2469   2
  -1  -3  -3 56.2509 28.8885  18
  -1  -3  -3 95.8694 52.2626   6
   1   3   3 75.8336 43.9865   1
  -1  -3  -4 11842.0 493.592   2
   1   3   4 10949.9 415.577   1
  -1  -3  -4 11741.5 332.193  18
  -1  -3  -4 11842.6 493.503   6
   1   3   4 12512.4 419.207   3
  -1  -3  -4 11896.3 372.205   9
  -1  -3  -5 160085. 1526.02   9
  -1  -3  -5 155126. 2031.27   6
  -1  -3  -5 157803. 1392.08  18
  -1  -3  -5 159207. 1102.11  25
  -1  -3  -5 155010. 2023.47   2
   1   3   5 158193. 1815.65   3
  -1  -3  -6 54213.4 1322.01   6
   1   3   6 56490.7 968.310  55
  -1  -3  -6 55126.4 974.581   9
  -1  -3  -6 53941.7 937.472  41
  -1  -3  -6 56254.8 757.958  20
  -1  -3  -6 53658.6 1309.84   2
  -1  -3  -6 54935.9 744.601  25
   1   3   7 7463.32 367.837  55
  -1  -3  -7 7266.63 303.496  20
  -1  -3  -7 6877.14 349.502  41
  -1  -3  -7 7322.27 511.070   6
  -1  -3  -7 7177.37 370.393   9
  -1  -3  -7 7019.80 501.202   2
   1   3   7 7299.80 388.284  38
  -1  -3  -7 6723.30 342.953  11
  -1  -3  -7 7144.65 294.069  25
   1   3   8 3300.07 266.924  38
  -1  -3  -8 3039.31 207.094  20
  -1  -3  -8 3279.44 238.697  41
   1   3   8 2850.18 224.947  55
   1   3   9 35306.7 715.750  55
  -1  -3  -9 36803.9 701.179  47
  -1  -3  -9 38183.4 734.869  41
   1   3   9 38509.9 837.318  38
  -1  -3  -9 36037.7 700.610  42
  -1  -3 -10 11067.5 321.095  47
   1   3  10 12105.6 394.241  38
  -1  -3 -10 10877.7 307.024  42
  -1  -3 -10 11579.9 359.804  40
   1   4  -9 308.489 50.9397  34
   1   4  -8 19619.5 425.918  45
  -1  -4   8 19338.1 416.797  38
   1   4  -8 20012.6 490.615  34
   1   4  -7 38394.8 705.890  45
  -1  -4   7 39713.0 761.272  29
  -1  -4   7 38924.0 655.425  50
   1   4  -7 37738.3 720.205  47
   1   4  -7 36824.3 758.978  17
   1   4  -7 39036.5 761.541  34
  -1  -4   7 37634.6 656.031  52
   1   4  -6 20105.8 581.908  17
  -1  -4   6 20256.3 487.246  50
  -1  -4   6 20635.9 596.660  29
   1   4  -6 19882.0 536.892  47
   1   4  -6 20313.5 571.897  36
   1   4  -6 19906.8 536.473  45
   1   4  -6 20495.8 563.974  34
  -1  -4   5 3171.16 210.900   7
  -1  -4   5 3767.22 330.025   5
  -1  -4   5 3611.37 260.691  27
  -1  -4   5 3782.87 329.809   4
   1   4  -5 3572.35 219.089  47
   1   4  -5 3580.79 225.397  45
  -1  -4   5 3447.73 197.465  50
  -1  -4   5 3633.34 251.375  44
   1   4  -5 3798.89 251.990  17
   1   4  -5 3673.17 231.263  16
   1   4  -5 3749.08 234.555  34
  -1  -4   4 18362.9 664.251   5
  -1  -4   4 18622.9 524.404  44
  -1  -4   4 17763.0 549.591  27
  -1  -4   4 18434.0 471.602  19
   1   4  -4 18291.3 476.765  16
   1   4  -4 19857.2 532.158  17
   1   4  -4 18116.5 475.280  45
   1   4  -4 18792.0 484.877  34
  -1  -4   4 18168.9 429.987  50
  -1  -4   4 16379.7 473.706   7
  -1  -4   4 17562.3 648.965   4
  -1  -4   3 49538.3 1009.84   5
  -1  -4   3 49285.9 1008.28   4
   1   4  -3 49125.5 722.331  17
  -1  -4   3 49812.8 730.243  19
   1   4  -3 49017.1 717.533  16
  -1  -4   2 112881. 1408.82   4
  -1  -4   2 114522. 1043.90   8
  -1  -4   2 112740. 1023.33  19
   1   4  -2 109371. 933.468  17
  -1  -4   2 113067. 1408.94   5
   1   4  -2 110688. 970.733  16
  -1  -4   1 88966.8 1173.42   5
   1   4  -1 85278.9 749.547  17
  -1  -4   1 88018.8 875.597   8
  -1  -4   1 89483.3 1176.35   4
   1   4  -1 89693.5 1193.90   3
  -1  -4   0 3754.45 234.654   5
   1   4   0 3719.78 233.013   1
   1   4   0 3763.87 217.634   3
  -1  -4   0 3703.25 232.971   4
  -1  -4  -1 68943.4 1000.80   4
   1   4   1 69671.6 854.079   3
   1   4   1 68596.9 1022.48   1
  -1  -4  -2 117000. 1313.55   2
   1   4   2 113511. 1403.05   1
   1   4   2 113013. 1042.77   3
  -1  -4  -2 117211. 1313.26   6
  -1  -4  -3 48166.7 630.725  18
  -1  -4  -3 47021.1 723.367   9
  -1  -4  -3 48670.3 946.449   6
   1   4   3 48021.8 692.426   3
   1   4   3 46166.9 968.268   1
  -1  -4  -3 49469.6 954.102   2
  -1  -4  -4 30300.2 648.183   9
  -1  -4  -4 30488.4 852.863   2
  -1  -4  -4 31260.8 575.436  18
  -1  -4  -4 30690.0 858.350   6
   1   4   4 29361.4 824.631   1
  -1  -4  -5 16826.9 720.848   6
  -1  -4  -5 17618.0 550.608   9
   1   4   5 17332.6 441.016  48
  -1  -4  -5 16929.1 722.229   2
  -1  -4  -5 17762.7 497.834  18
   1   4   5 18346.6 564.551  55
  -1  -4  -6 39057.3 1203.19   2
   1   4   6 40696.9 686.647  48
  -1  -4  -6 41434.5 675.959  20
  -1  -4  -6 41629.8 656.040  25
   1   4   6 42829.6 926.949  55
  -1  -4  -6 39465.0 1216.66   6
  -1  -4  -6 41723.3 909.708   9
   1   4   7 32771.2 605.703  48
  -1  -4  -7 31020.9 794.974  11
   1   4   7 33281.4 833.306  55
  -1  -4  -7 32429.6 643.939  20
  -1  -4  -7 31830.8 822.720   9
  -1  -4  -7 31837.2 786.817  41
   1   4   7 30581.7 827.514  38
  -1  -4  -7 32953.3 627.344  25
   1   4   8 22751.1 662.839  55
  -1  -4  -8 21872.4 543.809  20
  -1  -4  -8 22821.1 633.651  41
   1   4   8 22936.8 700.997  38
  -1  -4  -9 2356.13 164.393  31
  -1  -4  -9 2560.94 189.811  42
  -1  -4  -9 2606.72 190.344  41
   1   4   9 2618.98 214.113  38
   1   4   9 2643.94 199.806  55
  -1  -4 -10 1059.19 94.9500  42
   1   4  10 1126.27 114.132  38
   1   5  -8 20.9640 22.6513  34
  -1  -5   7 7737.04 325.719  29
   1   5  -7 7242.17 292.410  45
  -1  -5   7 7297.02 285.925  52
   1   5  -7 7967.99 307.034  36
   1   5  -7 7725.80 323.504  34
   1   5  -6 69362.2 992.628  45
   1   5  -6 70582.1 1090.39  36
   1   5  -6 71355.6 1058.00  34
  -1  -5   5 837.910 134.801  27
   1   5  -5 908.689 118.961  45
   1   5  -5 892.534 138.082  17
   1   5  -5 881.239 121.460  34
  -1  -5   4 99276.8 1644.33   5
  -1  -5   4 93847.3 1274.56   7
  -1  -5   4 98246.2 1631.71   4
   1   5  -4 97621.9 1180.66  53
  -1  -5   4 101031. 1168.56  19
   1   5  -4 104627. 1356.95  17
  -1  -5   4 98411.3 1371.83  27
   1   5  -4 100465. 1211.60  34
   1   5  -4 97171.5 1161.57  45
   1   5  -3 21854.4 542.153  53
  -1  -5   3 20639.8 586.844   7
  -1  -5   3 22312.2 731.044   4
   1   5  -3 21708.1 520.776  45
  -1  -5   3 22664.5 528.795  19
   1   5  -3 22578.4 549.937  17
  -1  -5   3 22373.8 731.575   5
   1   5  -3 21616.2 514.339  34
  -1  -5   2 101839. 1090.80  19
   1   5  -2 102209. 1124.18  53
  -1  -5   2 101471. 1463.04   4
  -1  -5   2 102089. 1461.17   5
   1   5  -2 95682.7 996.347  34
   1   5  -2 101869. 1041.79  45
   1   5  -2 97357.0 1059.67  21
   1   5  -2 104158. 1011.47  56
  -1  -5   2 104174. 1106.53   8
  -1  -5   1 45795.1 705.501   8
   1   5  -1 45041.2 723.376  21
  -1  -5   1 46841.8 942.426   5
  -1  -5   1 45757.5 925.388   4
   1   5   0 45424.1 868.893   3
   1   5   0 45336.4 948.040   1
  -1  -5   0 44025.2 878.423   5
   1   5   0 43131.1 703.147  21
  -1  -5   0 43702.9 872.261   4
  -1  -5   0 42387.8 665.246   8
  -1  -5  -1 3021.28 229.060   5
   1   5   1 2780.77 181.498  21
   1   5   1 2713.04 243.986   1
  -1  -5  -1 2891.51 225.823   4
  -1  -5  -1 3004.72 233.472   6
  -1  -5  -2 57259.5 677.044   7
   1   5   2 54178.0 1148.48   1
  -1  -5  -2 56126.9 1064.24   2
   1   5   2 53432.9 793.948  21
  -1  -5  -2 56388.9 1064.62   6
   1   5   3 17454.8 705.324   1
  -1  -5  -3 18152.4 501.575   9
  -1  -5  -3 17012.5 635.044   2
  -1  -5  -3 17010.2 637.957   6
   1   5   3 16427.4 438.265  21
   1   5   4 76762.2 950.995  21
   1   5   4 75741.8 995.558  48
  -1  -5  -4 79852.1 1008.75  18
  -1  -5  -4 75673.4 1133.43   9
   1   5   4 80880.6 1024.14  38
  -1  -5  -4 76775.2 1495.19   6
  -1  -5  -4 77901.4 1501.68   2
   1   5   4 77126.7 1125.44  55
   1   5   4 75227.8 1554.02   1
  -1  -5  -5 11976.2 437.449  18
   1   5   5 11791.1 399.830  48
  -1  -5  -5 11234.2 632.481   2
   1   5   5 11401.8 439.141  38
   1   5   5 11624.4 487.417  55
  -1  -5  -5 11315.6 637.406   6
  -1  -5  -5 11883.3 487.153   9
  -1  -5  -6 11436.8 506.150   9
  -1  -5  -6 11732.5 372.771  20
   1   5   6 11263.4 509.490  55
  -1  -5  -6 11801.0 355.051  25
   1   5   6 11531.8 394.828  48
  -1  -5  -7 16673.0 614.085  11
   1   5   7 18536.2 649.915  55
  -1  -5  -7 17961.3 481.231  20
  -1  -5  -7 18023.5 459.818  25
   1   5   7 16627.9 622.376  38
  -1  -5  -7 16950.4 619.014   9
   1   5   7 17322.6 461.279  48
  -1  -5  -7 17101.0 583.965  41
  -1  -5  -8 5736.09 270.035  20
   1   5   8 6424.05 356.177  55
  -1  -5  -8 5737.78 311.696  41
   1   5   8 6160.75 353.100  38
  -1  -5  -9 15347.5 425.026  41
   1   5   9 15518.1 463.347  55
   1   5   9 15049.5 463.349  38
  -1  -5  -9 14447.9 425.822  42
  -1  -5  -9 15226.6 406.500  31
  -1  -5 -10 26.9728 22.6274  40
  -1  -6   7 3235.97 175.535  52
  -1  -6   7 3517.15 198.355  29
   1   6  -7 3457.30 183.195  36
   1   6  -7 3355.55 192.457  34
  -1  -6   6 20117.8 568.306  29
  -1  -6   6 19163.3 496.709  52
   1   6  -6 18937.7 522.357  34
   1   6  -6 19171.5 492.559  45
   1   6  -6 19093.3 537.211  36
   1   6  -5 13945.7 449.399  53
  -1  -6   5 12853.7 459.540  13
   1   6  -5 13637.3 443.684  45
  -1  -6   5 14160.9 524.890  27
   1   6  -5 13995.6 478.855  34
  -1  -6   4 111796. 1278.05  19
   1   6  -4 110181. 1339.63  34
  -1  -6   4 105038. 1471.42  27
   1   6  -4 108491. 1331.97  53
   1   6  -4 107356. 1261.25  45
  -1  -6   3 2079.68 209.234   7
   1   6  -3 1978.10 168.293  45
   1   6  -3 2165.73 190.044  53
  -1  -6   3 2231.74 181.050  19
   1   6  -3 2093.29 177.224  34
   1   6  -2 26.3192 39.1818  53
   1   6  -2 149.739 49.2083  56
  -1  -6   2 44.8625 40.9599   7
   1   6  -2 56.2491 34.8355  45
   1   6  -2 35.5007 28.1273  34
   1   6  -2 19.1760 32.1699  21
  -1  -6   2 7.02581 30.2628   8
  -1  -6   2 46.5298 35.5637  19
   1   6  -1 10416.0 395.511  21
   1   6  -1 11143.3 404.235  53
  -1  -6   1 10311.1 434.499   7
  -1  -6   1 10600.2 377.010   8
   1   6  -1 10211.0 340.786  45
   1   6  -1 10046.6 343.706  34
   1   6  -1 10067.4 321.586  56
   1   6   0 67798.7 964.789  53
  -1  -6   0 67030.5 1041.61   7
  -1  -6   0 64414.7 917.061   8
   1   6   0 66609.2 998.046  21
   1   6   1 15978.8 455.243  53
   1   6   1 16662.3 699.306   1
  -1  -6  -1 16104.3 627.984   2
   1   6   1 16010.5 490.224  21
  -1  -6  -1 17028.0 477.779   7
  -1  -6  -1 15991.2 621.569   6
   1   6   1 14942.2 447.381  48
   1   6   2 27196.9 571.584  53
   1   6   2 25931.1 624.742  48
  -1  -6  -2 26511.7 839.318   2
   1   6   2 26434.9 628.938  21
  -1  -6  -2 26777.4 840.578   6
   1   6   2 28263.2 967.580   1
  -1  -6  -3 37052.1 1054.02   6
  -1  -6  -3 37118.2 811.907   9
   1   6   3 36789.5 769.129  48
  -1  -6  -3 38135.0 1067.47   2
   1   6   3 38009.6 754.157  21
   1   6   3 38334.5 1202.63   1
   1   6   4 15462.6 474.335  21
  -1  -6  -4 14426.2 542.596   9
   1   6   4 14337.9 486.643  48
   1   6   4 13913.3 762.711   1
  -1  -6  -4 15030.7 475.301  18
   1   6   4 14482.4 446.264  38
  -1  -6  -4 14058.3 701.189   6
   1   6   4 14073.0 505.404  55
  -1  -6  -4 14365.5 707.007   2
  -1  -6  -5 16309.1 605.955   9
   1   6   5 15861.8 508.847  48
   1   6   5 16188.5 524.318  38
  -1  -6  -5 16206.0 534.507  18
   1   6   6 9536.91 378.563  48
   1   6   6 8083.07 441.668  55
   1   6   6 8942.06 438.900  38
  -1  -6  -6 9023.37 465.561   9
  -1  -6  -6 9330.12 339.796  20
  -1  -6  -6 9089.90 414.492  18
  -1  -6  -7 963.174 111.851  20
   1   6   7 984.352 153.480  38
   1   6   7 919.582 109.543  48
  -1  -6  -7 874.134 134.112  41
   1   6   7 959.774 151.755  55
  -1  -6  -8 916.438 101.089  20
   1   6   8 1195.05 106.048  48
  -1  -6  -8 1241.36 135.911  41
   1   6   8 1073.31 134.346  38
  -1  -6  -9 9423.70 289.997  41
  -1  -6  -9 9419.61 296.264  31
  -1  -6  -9 8821.90 302.607  42
   1   6   9 8535.29 286.894  38
   1   7  -6 160.362 48.5340  34
  -1  -7   6 205.450 48.7732  52
   1   7  -6 235.296 55.3619  36
  -1  -7   6 215.226 58.5274  29
  -1  -7   5 4678.45 275.724  27
   1   7  -5 4570.98 241.826  53
  -1  -7   5 4656.44 276.871  29
   1   7  -5 4752.06 267.364  34
   1   7  -5 4613.26 274.661  36
  -1  -7   4 2946.48 235.122  13
   1   7  -4 3356.68 235.796  53
  -1  -7   4 3180.67 249.088  27
   1   7  -4 3330.32 238.445  34
   1   7  -3 30300.0 731.577  53
  -1  -7   3 30917.8 666.759  19
   1   7  -3 28832.3 684.368  34
  -1  -7   3 28044.2 748.173  27
   1   7  -2 30685.1 683.950  24
  -1  -7   2 30236.0 665.696  19
   1   7  -2 28886.8 615.484  56
   1   7  -2 28537.0 656.538  34
   1   7  -2 29883.3 706.078  21
   1   7  -2 31641.6 749.563  53
  -1  -7   1 1069.76 152.763   7
   1   7  -1 1142.17 147.848  21
   1   7  -1 1143.85 145.723  53
   1   7   0 3587.96 246.090  53
  -1  -7   0 3430.73 254.329   7
   1   7   0 3564.64 256.235  21
   1   7   1 11064.8 416.219  53
   1   7   1 10734.9 411.180  48
   1   7   1 11182.6 450.203  21
   1   7   2 81025.2 1210.42  48
  -1  -7  -2 83419.6 1239.61   9
   1   7   2 84217.7 1098.18  53
   1   7   3 6748.75 360.715  48
  -1  -7  -3 6869.77 378.400   9
   1   7   3 7350.12 361.061  21
   1   7   4 55372.0 1020.96  48
   1   7   4 57284.2 969.109  21
   1   7   4 55469.5 937.847  24
  -1  -7  -5 8622.62 452.156   9
   1   7   5 9751.75 414.740  48
   1   7   6 35249.4 722.444  48
   1   7   7 12267.3 374.482  48
  -1  -7  -7 11285.4 417.373  41
   1   7   8 12099.7 301.644  48
  -1  -7  -8 11597.4 338.109  41
  -1  -8   5 9994.17 338.859  29
   1   8  -5 9421.60 283.583  53
  -1  -8   5 10249.9 321.596  52
   1   8  -5 9801.51 325.722  36
   1   8  -4 4702.80 249.846  53
  -1  -8   4 4357.33 247.410  27
   1   8  -4 4516.14 259.017  36
   1   8  -3 1189.90 142.261  53
  -1  -8   3 1200.69 147.309  27
   1   8  -2 34472.8 778.377  53
   1   8  -2 36426.6 731.995  24
   1   8  -1 23380.4 658.073  24
   1   8  -1 22489.2 635.995  21
   1   8  -1 22600.7 634.366  53
   1   8   0 21808.1 641.524  21
   1   8   0 20960.8 673.766  24
   1   8   0 21387.1 611.325  53
   1   8   1 8116.22 395.282  21
   1   8   1 7721.84 427.169  24
   1   8   1 7927.81 361.542  53
   1   8   2 11554.5 511.406  24
   1   8   2 11045.5 449.150  48
   1   8   2 12588.1 490.633  21
   1   8   3 25136.7 669.989  21
   1   8   3 23880.6 690.655  24
   1   8   4 58121.1 954.933  24
   1   8   4 54700.1 996.771  48
   1   8   5 7851.17 353.360  48
   1   8   6 1530.04 139.446  48
  -1  -8  -6 1217.17 131.936  41
   1   8   7 3737.01 179.776  48
   1   9  -4 31550.1 499.784  36
   1   9  -3 19057.0 447.631  36
  -1  -9   3 19105.8 438.751  52
   1   9  -2 328.935 72.9777  53
   1   9  -2 439.657 70.7256  24
   1   9  -2 430.934 74.7959  36
   1   9  -1 5139.71 272.355  53
   1   9  -1 5504.44 287.312  24
   1   9   0 33874.6 787.763  24
   1   9   0 32979.1 686.667  53
   1   9   1 34236.3 825.229  24
   1   9   1 33960.6 664.875  53
   1   9   2 6720.62 359.998  24
   1   9   2 5524.12 271.509  48
   1   9   3 1923.55 169.947  48
   1   9   3 2533.29 203.066  24
   1   9   4 11838.4 367.904  24
   1   9   4 10122.3 373.862  48
   1   9   5 23539.5 513.943  48
   1   9   6 14521.1 339.950  48
   1  10   0 1548.66 113.844  53
  -2   8   3 12341.1 321.915  48
   2  -8  -3 11716.2 391.588  35
   2  -8  -2 14418.3 447.434  33
   2  -8  -2 15496.9 408.774  46
  -2   8   1 23168.6 564.309  48
   2  -8  -1 19050.8 517.661  33
   2  -8   0 62.3181 41.5101  26
  -2   8   0 25.4415 26.8369  48
  -2   8   0 8.62952 17.1011  53
  -2   8  -1 11092.2 329.339  53
   2  -8   1 9376.32 376.402  26
  -2   8  -2 1880.18 138.701  53
   2  -8   2 1858.37 190.390  30
   2  -8   3 24465.9 656.886  30
  -2   8  -3 24324.9 449.150  58
  -2   8  -4 2863.53 150.639  53
  -2   7   5 18491.8 359.498  48
   2  -7  -5 18096.2 466.021  35
  -2   7   4 8712.76 300.430  48
   2  -7  -4 8231.82 369.862  35
  -2   7   3 405.919 76.5905  48
   2  -7  -3 384.542 74.1842  46
   2  -7  -1 1688.18 176.137  15
   2  -7   0 16938.5 572.853  15
  -2   7   0 17616.8 466.009  53
   2  -7   0 17453.0 556.101  14
   2  -7   1 8701.25 383.782  33
  -2   7  -1 9291.33 358.004  53
  -2   7  -1 8194.27 316.950  58
   2  -7   1 8243.69 411.969  15
   2  -7   1 8974.58 423.333  14
  -2   7  -2 671.302 101.963  53
   2  -7   2 575.369 107.882  26
  -2   7  -2 517.589 81.1107  58
  -2   7  -3 4640.48 253.099  53
   2  -7   3 4505.37 326.980  30
   2  -7   4 12433.9 535.970  30
  -2   7  -4 13586.6 407.359  53
   2  -7   5 7715.26 399.784  27
  -2   7  -5 7493.63 276.702  53
   2  -7   5 7177.42 379.766  30
   2  -7   5 7800.24 300.679  52
  -2   7  -6 108.539 29.6975  53
   2  -7   6 76.8630 33.4499  52
   2  -7   6 20.8988 37.4452  27
   2  -6  -6 4977.79 253.293  31
   2  -6  -6 4246.14 249.688  41
  -2   6   6 4394.51 189.352  55
   2  -6  -6 4308.11 233.805  35
  -2   6   5 84.0774 36.2093  55
   2  -6  -5 94.9321 51.6074  31
  -2   6   5 141.189 43.8819  48
   2  -6  -5 224.232 72.6478  35
   2  -6  -4 24173.5 674.044  31
  -2   6   4 23156.5 552.856  48
   2  -6  -4 22903.2 714.760  18
   2  -6  -3 2370.96 232.226  18
   2  -6  -3 2127.12 202.633  31
   2  -6  -3 2224.09 188.134  46
   2  -6  -3 2024.90 185.853  15
   2  -6  -2 13781.9 484.106  15
   2  -6  -1 2177.26 196.405  15
   2  -6  -1 2123.43 183.937  14
  -2   6   0 26821.9 604.692  53
  -2   6   0 23782.0 566.756  58
   2  -6   0 26089.1 669.871  14
   2  -6   0 24819.1 676.513  15
  -2   6  -1 32044.7 691.000  53
  -2   6  -1 30507.7 723.025  42
   2  -6   1 32184.0 715.985  13
   2  -6   1 31187.5 772.726  14
  -2   6  -2 2245.04 187.844  53
   2  -6   2 2180.29 203.477  13
  -2   6  -2 2316.19 207.114  42
   2  -6   2 2109.77 192.076  33
   2  -6   2 2258.04 219.987  14
  -2   6  -3 9457.75 383.670  53
  -2   6  -3 8796.33 365.178  49
   2  -6   3 9229.90 421.296  26
   2  -6   3 9673.64 442.747  13
   2  -6   3 9183.63 454.317  14
  -2   6  -3 9399.44 431.335  42
   2  -6   4 4371.76 339.706  30
  -2   6  -4 4779.90 266.621  53
  -2   6  -4 4492.64 260.821  49
   2  -6   4 4626.94 311.219  13
  -2   6  -4 4454.05 239.640  36
  -2   6  -4 4588.79 305.202  42
   2  -6   4 4798.01 274.125  52
  -2   6  -5 4036.93 225.567  36
   2  -6   5 4175.49 256.290  52
   2  -6   5 3759.85 314.207  30
  -2   6  -5 4033.34 230.755  53
  -2   6  -5 4017.50 243.920  49
  -2   6  -6 32319.6 645.648  49
   2  -6   6 34105.5 692.964  52
  -2   6  -6 32679.7 579.247  53
   2  -6   6 33355.5 861.558  27
  -2   6  -6 32221.9 599.102  36
   2  -6   7 8937.16 385.701  27
   2  -6   7 8617.27 311.967  52
   2  -5  -7 18540.3 466.875  31
  -2   5   7 17807.2 402.246  55
   2  -5  -7 17412.9 439.632  35
   2  -5  -7 17052.0 451.970  41
   2  -5  -6 1234.30 144.247  31
   2  -5  -6 1123.10 143.901  35
  -2   5   6 1175.07 126.811  55
  -2   5   5 24545.6 643.808  55
   2  -5  -5 24143.3 668.754  31
   2  -5  -5 21989.5 707.926  18
   2  -5  -5 22658.7 696.519  35
  -2   5   5 22353.2 513.821  48
   2  -5  -4 2085.72 236.576   9
   2  -5  -4 2156.05 188.389  46
   2  -5  -4 1963.62 214.792  18
   2  -5  -4 2257.59 215.300  31
   2  -5  -3 31219.6 772.419  31
   2  -5  -3 30314.7 799.471  18
   2  -5  -3 30899.5 690.257  46
   2  -5  -3 29934.3 700.834  15
   2  -5  -2 37270.6 793.311  31
   2  -5  -2 37620.1 750.870  15
   2  -5  -1 27718.7 1057.89   2
   2  -5  -1 28368.0 653.601  15
  -2   5   1 29222.7 1009.33   1
   2  -5  -1 28347.1 1063.86   6
   2  -5  -1 28350.7 613.502  14
  -2   5   0 76.8857 40.9142  53
  -2   5   0 29.7311 42.0282   1
  -2   5   0 42.6291 45.9926  42
  -2   5   0 67.0555 43.0642  58
   2  -5   0 208.163 62.2217  14
  -2   5  -1 2618.29 190.359  53
   2  -5   1 2626.80 191.499  13
  -2   5  -1 2851.20 274.354   1
  -2   5  -1 2784.71 203.941  42
   2  -5   1 2501.75 201.380  14
   2  -5   2 49891.1 865.974  33
  -2   5  -2 48211.2 830.132  53
   2  -5   2 49251.7 889.520  13
  -2   5  -2 46660.6 845.283  42
  -2   5  -2 45452.8 781.555  49
   2  -5   3 37704.2 783.450  33
  -2   5  -3 38113.5 750.282  53
   2  -5   3 39861.4 834.209  26
   2  -5   3 39398.5 740.275  52
  -2   5  -3 38907.5 807.544  42
  -2   5  -3 37894.1 688.910  36
  -2   5  -3 37808.5 722.276  49
   2  -5   3 39448.1 841.061  13
   2  -5   4 35364.7 919.188  30
  -2   5  -4 34394.4 714.106  53
   2  -5   4 35071.6 816.255  13
  -2   5  -4 36079.8 830.169  42
   2  -5   4 34607.4 735.280  52
   2  -5   4 35968.2 833.225  26
  -2   5  -4 35530.6 699.867  34
  -2   5  -4 34416.7 687.463  36
  -2   5  -4 33994.8 699.658  49
  -2   5  -5 5556.83 288.543  49
   2  -5   5 5316.13 321.750  13
  -2   5  -5 5193.73 309.478  42
  -2   5  -5 5308.38 272.668  34
   2  -5   5 5402.07 385.001  30
  -2   5  -5 5209.68 272.290  36
  -2   5  -5 5122.85 269.521  53
   2  -5   5 5316.91 297.175  52
   2  -5   6 43067.7 829.011  52
   2  -5   6 44170.7 1092.92  30
   2  -5   6 42514.0 1045.68  27
  -2   5  -6 43009.0 796.743  49
  -2   5  -6 43180.8 719.709  53
   2  -5   6 40352.8 852.898  13
  -2   5  -6 43332.0 769.207  36
  -2   5  -6 43449.0 764.930  34
   2  -5   7 11470.9 499.057  27
  -2   5  -7 10397.5 368.098  49
  -2   5  -7 10383.5 352.770  36
  -2   5  -7 10329.9 350.932  34
   2  -5   7 10757.2 391.314  52
  -2   5  -8 13643.7 370.553  49
   2  -5   8 13960.2 392.872  52
  -2   5  -8 13965.3 357.025  34
  -2   4   8 2576.69 145.375  55
   2  -4  -8 2461.68 142.147  41
   2  -4  -8 2579.39 148.557  35
  -2   4   7 6108.85 277.266  55
   2  -4  -7 6237.41 295.648  31
   2  -4  -7 5884.20 298.507  41
   2  -4  -7 6178.07 301.762  35
  -2   4   6 22734.5 596.423  55
   2  -4  -6 21814.8 616.438  31
   2  -4  -6 21737.0 659.427  35
   2  -4  -5 48094.5 952.515  31
   2  -4  -5 45067.9 1019.15  18
  -2   4   5 45483.0 737.994  48
   2  -4  -5 44087.5 1037.80   9
   2  -4  -5 46262.2 1014.83  35
  -2   4   5 50027.0 945.123  55
   2  -4  -4 23529.3 749.701   9
   2  -4  -4 24325.9 621.101  46
   2  -4  -4 26084.7 695.782  31
  -2   4   4 27286.5 726.629  55
   2  -4  -4 24496.9 722.716  18
   2  -4  -3 333.335 72.2331  46
  -2   4   3 335.024 85.2310  55
   2  -4  -3 467.755 95.9977  31
  -2   4   3 360.124 138.656   1
   2  -4  -3 401.770 139.301   2
   2  -4  -3 360.939 90.7481  18
   2  -4  -3 363.674 133.153   6
   2  -4  -3 392.869 84.1577  15
   2  -4  -2 24221.6 605.616  31
   2  -4  -2 24227.8 917.749   2
   2  -4  -2 23315.3 899.855   6
   2  -4  -2 25180.3 563.895  15
   2  -4  -1 69181.0 923.936  31
   2  -4  -1 72071.1 887.411  14
   2  -4  -1 71311.8 1494.94   2
  -2   4   1 73003.8 935.126  42
  -2   4   1 75709.8 1453.87   1
   2  -4  -1 70479.9 1478.23   6
   2  -4  -1 71272.4 932.774  15
  -2   4   1 74134.9 885.892  58
   2  -4   0 51157.4 763.449  14
  -2   4   0 51846.6 826.116  51
  -2   4   0 50771.6 769.138  42
   2  -4   0 51212.7 678.875  13
  -2   4  -1 57696.5 802.860  53
  -2   4  -1 56371.9 808.705  42
  -2   4  -1 60118.6 1106.72   1
   2  -4   1 58833.1 799.403  13
  -2   4  -1 57967.8 786.149  49
   2  -4   1 54423.3 810.878  14
   2  -4   2 78296.3 1009.45  13
  -2   4  -2 76339.8 947.239  53
  -2   4  -2 79290.6 1191.78   1
  -2   4  -2 75834.2 953.066  42
  -2   4  -2 76840.5 910.788  49
  -2   4  -2 74804.1 936.889  39
   2  -4   3 19994.6 521.408  33
  -2   4  -3 19652.4 471.633  36
  -2   4  -3 19619.6 506.570  42
  -2   4  -3 20237.8 500.121  53
   2  -4   3 20575.3 550.919  13
   2  -4   3 19623.4 491.678  52
  -2   4  -3 19497.3 491.485  39
  -2   4  -3 20243.8 479.629  49
  -2   4  -3 21131.7 482.319  34
   2  -4   3 22036.7 562.949  26
  -2   4  -4 82249.4 1008.79  49
   2  -4   4 81068.8 1176.68  26
   2  -4   4 80688.7 1067.57  52
   2  -4   4 80092.5 1137.51  33
  -2   4  -4 84560.1 1123.70  42
   2  -4   4 82234.2 1157.40  13
  -2   4  -4 80793.3 1041.58  39
  -2   4  -4 82469.2 1029.08  36
  -2   4  -4 84769.7 1002.28  34
  -2   4  -4 82589.9 1031.50  53
   2  -4   5 22406.7 744.264  30
   2  -4   5 22112.8 586.891  52
  -2   4  -5 22820.3 541.749  53
  -2   4  -5 22121.5 552.885  49
  -2   4  -5 24559.0 650.480  42
  -2   4  -5 23043.8 581.967  39
  -2   4  -5 21954.2 554.957  17
   2  -4   5 22359.7 618.802  13
  -2   4  -5 22340.6 560.917  36
  -2   4  -5 22865.8 541.989  34
  -2   4  -6 658.821 90.5807  53
   2  -4   6 625.495 104.689  52
   2  -4   6 672.127 150.822  30
   2  -4   6 568.158 132.858  27
  -2   4  -6 627.028 100.723  49
   2  -4   6 796.324 119.333  13
  -2   4  -6 709.971 105.493  39
  -2   4  -6 643.993 101.747  17
  -2   4  -6 731.224 105.583  36
  -2   4  -6 781.120 105.950  34
  -2   4  -7 616.772 98.3207  36
   2  -4   7 431.650 113.122  27
   2  -4   7 532.441 97.3012  52
  -2   4  -7 468.443 85.1443  49
  -2   4  -7 621.417 98.6983  17
   2  -4   7 535.143 93.9970  13
  -2   4  -7 670.010 96.0494  34
  -2   4  -8 36034.0 671.383  49
   2  -4   8 35467.9 693.624  52
  -2   4  -8 36048.6 638.160  34
   2  -4   9 24327.2 490.865  52
  -2   4  -9 24800.8 481.966  49
  -2   4  -9 23091.5 431.095  34
   2  -3  -8 26563.6 513.018  41
   2  -3  -8 27456.4 540.039  31
   2  -3  -8 28394.5 557.903  35
  -2   3   8 27768.8 533.290  55
  -2   3   7 7292.91 321.696  55
   2  -3  -7 7015.37 325.607  31
   2  -3  -7 7275.27 348.712  41
  -2   3   7 6897.86 270.574  38
   2  -3  -7 7487.65 354.867  35
  -2   3   6 918.514 126.880  55
   2  -3  -6 920.819 133.213  31
   2  -3  -6 776.961 137.297  41
   2  -3  -6 801.322 138.616  35
  -2   3   6 905.359 106.893  38
   2  -3  -5 25229.7 673.208  31
   2  -3  -5 25246.8 638.881  46
   2  -3  -5 23778.7 727.041   9
   2  -3  -5 24046.7 729.781  18
   2  -3  -5 25163.9 741.550  35
  -2   3   4 83999.3 1174.86  55
   2  -3  -4 75986.2 1238.98   9
   2  -3  -4 71148.8 1697.79   2
   2  -3  -4 77455.5 1223.98  18
   2  -3  -4 75349.8 1073.22  46
   2  -3  -4 73221.8 1731.25   6
  -2   3   4 88464.1 1790.79   1
   2  -3  -4 78316.1 1159.11  31
   2  -3  -3 56271.4 1371.41   2
   2  -3  -3 58693.9 945.056  31
   2  -3  -3 55923.1 1367.99   6
  -2   3   3 57090.1 931.362  55
   2  -3  -3 59000.2 861.416  46
   2  -3  -3 57775.2 953.936  18
   2  -3  -3 58055.8 867.536  15
  -2   3   2 395.304 111.192   1
   2  -3  -2 322.726 63.9163  15
   2  -3  -2 879.399 164.253   2
   2  -3  -2 753.904 151.214   6
   2  -3  -1 3928.74 196.955  15
  -2   3   1 4618.52 318.791   1
   2  -3  -1 3731.59 304.833   2
   2  -3  -1 3598.58 298.719   6
   2  -3  -1 3938.33 185.959  14
  -2   3   0 67039.5 838.699  12
  -2   3   0 67793.0 1092.02   1
   2  -3   0 65266.5 678.278  13
  -2   3  -1 119429. 1329.05   1
   2  -3   1 116059. 1005.30  13
   2  -3   2 1645.57 133.297  13
  -2   3  -2 1616.54 128.359  12
  -2   3  -2 1830.29 155.271   1
   2  -3   3 9115.14 319.743  33
   2  -3   3 9571.27 336.971  26
   2  -3   3 9001.22 329.183  13
  -2   3  -3 9175.88 288.602  17
   2  -3   4 15761.3 480.114  26
   2  -3   4 15587.6 467.407  33
  -2   3  -4 15972.0 402.050  17
   2  -3   4 15716.3 443.094  52
  -2   3  -4 17057.0 415.183  49
   2  -3   4 15559.0 458.472  13
  -2   3  -4 15994.0 428.487  42
  -2   3  -4 15898.3 415.128  39
  -2   3  -4 15970.0 421.854  36
  -2   3  -4 16250.0 395.115  34
  -2   3  -4 15777.5 409.702  53
   2  -3   5 53897.0 891.981  13
   2  -3   5 55628.2 1094.21  30
  -2   3  -5 56907.4 813.892  49
   2  -3   5 55323.5 889.297  52
  -2   3  -5 58969.8 884.200  42
  -2   3  -5 57276.5 816.814  17
  -2   3  -5 56913.1 842.962  36
  -2   3  -5 57224.0 793.814  34
  -2   3  -5 55835.8 779.401  53
   2  -3   6 15879.8 632.181  30
  -2   3  -6 14997.7 447.184  49
  -2   3  -6 15758.3 467.215  42
   2  -3   6 14857.0 479.420  13
   2  -3   6 15225.0 489.760  52
   2  -3   6 15243.4 592.114  27
  -2   3  -6 15410.6 456.971  17
  -2   3  -6 15489.5 459.916  36
  -2   3  -6 15821.9 440.083  34
   2  -3   7 24163.9 745.005  27
  -2   3  -7 24314.3 587.409  49
  -2   3  -7 24305.6 594.675  17
   2  -3   7 23587.4 614.862  52
  -2   3  -7 24863.9 581.978  36
  -2   3  -7 24732.9 564.326  34
   2  -3   7 23193.4 586.042  13
  -2   3  -8 3973.74 235.733  49
   2  -3   8 3800.49 238.771  52
  -2   3  -8 3962.05 240.826  17
  -2   3  -8 4043.63 223.100  34
   2  -3   9 602.700 86.9578  52
  -2   3  -9 628.413 88.2145  49
  -2   3  -9 592.937 78.0813  34
   2  -3  10 15044.8 335.903  52
  -2   3 -10 16398.6 356.318  49
  -2   2   8 2781.04 178.152  55
   2  -2  -8 2722.41 170.541  41
  -2   2   8 2684.82 163.097  38
   2  -2  -8 2875.15 190.800  35
   2  -2  -7 93494.9 1208.51  31
  -2   2   7 93977.3 1169.66  55
   2  -2  -7 95300.4 1230.71  41
  -2   2   7 95615.9 1087.37  38
   2  -2  -6 429.800 95.5723  31
  -2   2   6 450.360 87.7647  55
   2  -2  -6 413.813 103.907  41
  -2   2   6 444.224 78.4778  38
   2  -2  -6 631.730 123.747  35
  -2   2   5 6068.29 304.045  55
   2  -2  -5 5952.55 306.808  46
   2  -2  -5 5769.21 316.054  31
   2  -2  -5 5478.52 326.279   9
   2  -2  -5 5684.40 487.909   6
  -2   2   5 6329.58 283.327  38
   2  -2  -5 5547.37 480.128   2
  -2   2   5 5982.96 417.491   1
   2  -2  -5 5626.56 341.827  35
   2  -2  -4 2294.60 192.698  31
  -2   2   4 2068.69 169.331  55
   2  -2  -4 1875.98 261.833   2
   2  -2  -4 1872.67 183.602   9
   2  -2  -4 1965.30 188.538  18
  -2   2   4 2211.20 162.740  38
   2  -2  -4 2012.27 171.133  46
   2  -2  -4 1875.10 262.462   6
  -2   2   4 2573.52 271.442   1
   2  -2  -4 2122.11 201.115  35
   2  -2  -3 35318.9 989.092   2
   2  -2  -3 37136.8 719.133  31
   2  -2  -3 35222.8 692.920  18
   2  -2  -3 35085.4 988.681   6
   2  -2  -3 36277.4 649.077  15
   2  -2  -2 45156.3 996.770   2
   2  -2  -2 45043.3 995.028   6
   2  -2  -2 47904.0 665.235  15
  -2   2   1 42496.4 591.126  12
   2  -2  -1 40927.4 859.095   2
  -2   2   1 45126.8 883.380   1
   2  -2  -1 41576.3 865.350   6
   2  -2  -1 42303.3 571.141  15
   2  -2  -1 44289.4 561.552  14
   2  -2   0 28204.4 445.763  14
   2  -2   0 27784.4 400.957  13
  -2   2   0 28335.5 615.885   1
  -2   2   0 28516.2 462.377  12
  -2   2  -1 42881.1 556.634  12
  -2   2  -1 42720.7 678.327   1
   2  -2   1 41752.2 438.895   3
   2  -2   1 41659.6 540.834  13
  -2   2  -2 43747.0 619.946   1
   2  -2   2 42932.8 602.698  13
   2  -2   3 34768.1 584.345  13
  -2   2  -3 35114.0 491.209  17
  -2   2  -3 36515.9 546.700  12
   2  -2   4 37899.0 756.307   4
   2  -2   4 36036.2 714.583  30
   2  -2   4 35616.8 639.180  13
  -2   2  -4 36175.8 541.058  17
   2  -2   5 9971.00 432.370  30
  -2   2  -5 10540.0 322.314  17
   2  -2   5 10297.7 363.454  13
   2  -2   5 10450.3 371.960  52
   2  -2   5 10573.2 471.327   4
  -2   2  -5 10884.0 340.312  36
  -2   2  -6 31713.9 854.761   2
   2  -2   6 32116.5 696.151  52
  -2   2  -6 32760.6 619.565  17
  -2   2  -6 32930.0 630.499  36
  -2   2  -6 32405.9 613.215  42
  -2   2  -6 31622.1 579.455  34
   2  -2   6 31943.7 657.410  13
   2  -2   6 32756.7 854.902  30
   2  -2   6 29932.2 764.050  27
   2  -2   7 20685.9 652.905  27
   2  -2   7 20131.1 564.384  52
  -2   2  -7 20066.4 496.076  42
  -2   2  -7 20392.9 527.113  17
  -2   2  -7 19913.0 510.069  36
  -2   2  -7 20647.7 493.722  34
   2  -2   8 25670.5 632.177  52
  -2   2  -8 25828.5 611.079  17
  -2   2  -8 26018.0 563.116  34
  -2   2  -9 21356.1 524.187  49
   2  -2   9 19626.6 506.063  52
  -2   2  -9 21308.8 538.191  17
  -2   2  -9 21376.9 474.618  34
  -2   2 -10 7175.03 263.461  49
   2  -2  10 6446.91 239.588  52
   2  -1  -9 6859.36 260.315  47
  -2   1   9 6520.21 221.784  38
   2  -1  -9 6815.17 242.379  34
   2  -1  -8 5277.42 237.734  41
  -2   1   8 5306.59 246.984  55
  -2   1   8 5274.65 244.286  38
  -2   1   7 23349.6 574.038  55
   2  -1  -7 24062.1 601.513  31
   2  -1  -7 23758.7 592.715  41
  -2   1   7 22960.0 545.759  38
   2  -1  -7 24754.1 649.009  35
  -2   1   6 5985.56 294.816  55
   2  -1  -6 6253.92 326.025  31
  -2   1   6 6374.93 314.923  44
   2  -1  -6 6061.90 332.388  41
  -2   1   6 6297.42 287.667  38
   2  -1  -6 6210.57 344.960  35
  -2   1   5 106264. 1194.77  55
   2  -1  -5 104232. 1315.90  31
   2  -1  -5 97590.1 1330.76  41
  -2   1   5 106893. 1250.16  44
   2  -1  -5 95909.4 1865.04   2
   2  -1  -5 96518.7 1880.60   6
   2  -1  -5 103828. 1381.81  35
   2  -1  -4 26734.8 636.597  31
  -2   1   4 28274.2 574.447  55
   2  -1  -4 25041.8 592.533   9
   2  -1  -4 24319.3 571.855  46
  -2   1   4 26658.6 521.901  50
   2  -1  -4 25737.3 640.206  18
   2  -1  -4 24444.2 875.946   6
   2  -1  -4 26247.6 658.239  35
   2  -1  -4 24521.0 873.376   2
   2  -1  -3 7063.89 283.314   9
   2  -1  -3 7578.01 317.367  31
   2  -1  -3 7124.09 299.498  18
  -2   1   3 8502.03 339.403   4
   2  -1  -3 6935.75 412.986   6
   2  -1  -3 7017.94 414.381   2
  -2   1   3 8472.18 338.637   5
  -2   1   2 7342.30 224.311  12
   2  -1  -2 7096.93 357.618   2
   2  -1  -2 7177.49 255.407  18
   2  -1  -2 7495.58 255.191  15
   2  -1  -2 7144.07 358.011   6
  -2   1   2 7931.08 284.880   4
  -2   1   2 8137.39 289.259   5
  -2   1   1 84252.7 741.021   4
   2  -1  -1 78217.9 1029.84   2
   2  -1  -1 77509.2 1024.75   6
  -2   1   1 80781.0 693.895  12
   2  -1  -1 84475.6 745.227  15
  -2   1   1 83621.9 739.534   5
  -2   1   0 11613.3 249.326  12
  -2   1   0 11887.4 203.466   4
  -2   1   0 11887.3 203.558   5
   2  -1   0 11927.7 199.318   3
   2  -1   0 12123.6 260.275  15
   2  -1   0 12351.7 264.762  14
   2  -1   1 121349. 790.109   3
   2  -1   1 122193. 831.671  13
   2  -1   1 121788. 827.783  14
  -2   1  -2 7558.98 181.826  17
   2  -1   2 7203.78 248.120   3
  -2   1  -2 7278.21 200.642   1
  -2   1  -2 7126.00 188.137  12
   2  -1   2 7198.26 226.933  13
  -2   1  -3 10412.0 192.555   1
  -2   1  -3 10331.0 323.147   2
  -2   1  -3 10755.3 235.589  17
   2  -1   3 10677.9 302.338  13
  -2   1  -4 118663. 1229.80   2
   2  -1   4 120736. 1094.40  13
  -2   1  -4 117953. 1228.76   6
   2  -1   5 80861.9 1140.23  30
  -2   1  -5 82884.3 1163.43   2
   2  -1   5 85645.1 974.512  13
   2  -1   5 85677.4 1348.65   4
  -2   1  -5 83230.9 1159.89   6
   2  -1   6 308.016 73.9899  52
   2  -1   6 293.587 74.6140  27
  -2   1  -6 271.133 52.7434  34
   2  -1   6 285.257 63.0722  13
  -2   1  -6 369.460 87.3655   2
  -2   1  -6 267.585 55.7432  40
  -2   1  -6 241.265 53.0232  36
  -2   1  -6 359.594 90.1446   6
  -2   1  -6 277.660 54.8132  42
   2  -1   7 2966.07 231.805  27
  -2   1  -7 2719.07 261.028   2
  -2   1  -7 2658.90 192.463  47
  -2   1  -7 2612.74 167.858  34
   2  -1   7 2673.01 206.561  52
  -2   1  -7 2770.96 263.898   6
  -2   1  -7 3064.29 187.624  42
  -2   1  -7 2522.84 178.718  40
  -2   1  -8 17834.9 520.316  47
  -2   1  -8 17573.3 457.417  42
   2  -1   8 17752.5 524.769  52
  -2   1  -8 17310.7 487.224  40
  -2   1  -8 17854.0 455.358  34
  -2   1  -9 38136.6 698.140  40
   2  -1   9 37380.7 714.921  52
  -2   1 -10 8611.49 306.777  49
  -2   1 -11 689.134 70.1168  49
   2   0  -9 2569.11 161.430  47
   2   0  -9 2480.33 150.901  34
  -2   0   9 2531.52 145.112  38
  -2   0   8 17656.7 437.381  55
   2   0  -8 18578.5 509.659  34
  -2   0   8 18212.8 463.314  38
  -2   0   7 39509.5 722.445  55
  -2   0   7 40573.6 817.513  44
   2   0  -7 40067.1 814.477  35
   2   0  -7 40736.6 737.019  41
  -2   0   7 39501.7 723.713  38
   2   0  -6 69.6882 47.9121  31
  -2   0   6 57.4936 38.1813  50
   2   0  -6 61.8831 44.3745  45
  -2   0   6 19.5701 30.9861  44
  -2   0   6 53.5917 38.9168  55
   2   0  -6 46.8467 36.3279  41
   2   0  -6 118.932 61.5856  35
  -2   0   5 28264.2 567.628  50
  -2   0   5 29471.8 666.718  44
  -2   0   5 27908.8 789.075   4
   2   0  -5 28041.2 920.824   2
   2   0  -5 29306.1 687.620  31
  -2   0   5 28627.3 589.683  55
   2   0  -5 28395.5 658.221  41
   2   0  -5 28265.5 933.987   6
   2   0  -5 28854.1 694.305  35
  -2   0   5 28150.0 791.166   5
  -2   0   4 26886.1 709.699   4
   2   0  -4 26505.5 628.993  31
  -2   0   4 26538.2 701.286   5
   2   0  -4 26916.8 850.854   6
   2   0  -4 27111.6 851.045   2
   2   0  -4 25681.0 620.975  35
  -2   0   3 111752. 1281.85   5
   2   0  -3 104348. 960.680   9
   2   0  -3 102498. 1083.03  18
   2   0  -3 98884.6 1469.12   6
  -2   0   3 113543. 1288.52   4
   2   0  -3 98465.3 1460.71   2
  -2   0   2 10907.3 353.482   5
  -2   0   2 9926.92 227.101  12
  -2   0   2 11061.6 355.975   4
   2   0  -2 9749.00 286.314  18
   2   0  -2 9599.90 388.064   6
   2   0  -2 10070.0 394.672   2
  -2   0   1 7731.85 257.810   5
   2   0  -1 8047.87 287.750   2
  -2   0   1 7503.93 181.865  12
  -2   0   1 7851.02 259.719   4
   2   0  -1 7646.58 232.462   3
   2   0  -1 8072.26 288.318   6
   2   0  -1 7642.30 221.036  15
  -2   0   0 81085.2 738.842   5
  -2   0   0 82073.5 746.645   4
  -2   0   0 80884.7 564.226  12
   2   0   0 80855.0 674.863   3
   2   0   1 999999. 2120.03  14
  -2   0  -2 42951.5 376.734  10
  -2   0  -2 43129.7 500.233   2
  -2   0  -3 1705.60 75.6081  10
  -2   0  -3 1816.91 120.740   2
   2   0   3 1835.32 156.876   3
  -2   0  -3 1774.51 118.754   6
   2   0   3 1672.73 112.359  13
  -2   0  -4 18025.1 441.899   2
  -2   0  -4 18209.4 443.013   6
  -2   0  -5 109871. 1258.27   2
  -2   0  -5 109175. 1250.76   6
   2   0   5 109768. 1014.80  13
  -2   0  -6 27025.7 708.852   6
   2   0   6 27159.9 612.590  52
  -2   0  -6 26854.0 509.858  25
  -2   0  -6 25630.0 497.430  42
   2   0   6 26564.3 591.390  27
  -2   0  -6 25695.1 529.342  47
  -2   0  -6 26532.1 702.862   2
  -2   0  -6 27016.8 535.227  40
  -2   0  -6 25582.3 476.953  20
   2   0   7 15464.2 765.309   3
   2   0   7 14753.4 471.186  52
  -2   0  -7 14792.9 439.437  47
  -2   0  -7 14622.6 583.865   6
  -2   0  -7 14445.1 405.220  42
  -2   0  -7 14694.1 430.839  40
   2   0   7 14647.2 447.285  38
  -2   0  -7 14790.4 586.044   2
   2   0   8 27.6558 37.0422  52
  -2   0  -8 101.130 43.3814  42
  -2   0  -8 65.0077 41.2300  47
  -2   0  -8 24.4732 32.9938  40
  -2   0  -9 42068.4 697.350  42
  -2   0  -9 44023.8 797.953  47
  -2   0  -9 43024.4 774.072  40
   2   0   9 43114.1 791.106  38
  -2   0 -10 21770.9 493.857  40
  -2   0 -11 1954.55 123.469  49
   2   1  -9 588.205 75.9316  47
   2   1  -9 657.543 78.7961  34
  -2  -1   9 610.477 72.3991  38
   2   1  -8 12476.7 429.016  47
  -2  -1   8 12853.1 386.080  38
   2   1  -8 13517.5 428.373  34
  -2  -1   7 47007.6 750.206  55
   2   1  -7 48631.5 841.818  45
  -2  -1   7 48037.1 912.212  44
   2   1  -7 48281.2 897.030  34
   2   1  -7 46212.3 868.515  16
  -2  -1   6 10826.2 433.905  44
   2   1  -6 10921.6 413.596  45
  -2  -1   6 10330.7 366.462  50
   2   1  -6 10652.3 421.009  35
  -2  -1   6 10426.8 358.753  55
  -2  -1   5 1036.15 160.310   4
   2   1  -5 1106.21 169.221   2
  -2  -1   5 1046.03 112.022  50
   2   1  -5 1012.19 126.659  45
  -2  -1   5 1255.59 144.176  44
   2   1  -5 1113.35 170.337   6
   2   1  -5 1219.45 139.926  35
  -2  -1   5 1205.42 174.006   5
  -2  -1   5 1162.51 115.739  55
   2   1  -4 3082.22 215.060  31
  -2  -1   4 3318.77 261.125   5
  -2  -1   4 3220.18 158.552  28
  -2  -1   4 3235.39 256.298   4
  -2  -1   4 3650.42 219.544  44
  -2  -1   4 3502.02 182.900  50
   2   1  -4 3575.65 281.975   2
   2   1  -4 3376.95 272.331   6
  -2  -1   3 101438. 1287.07   5
  -2  -1   3 100918. 1289.96   4
  -2  -1   3 99310.6 832.579  19
   2   1  -3 102306. 1373.14   6
   2   1  -3 102306. 1363.72   2
  -2  -1   2 106775. 759.458  19
  -2  -1   2 107958. 1192.05   4
   2   1  -2 104236. 1202.25   6
   2   1  -2 103473. 1194.51   2
  -2  -1   2 106491. 1182.98   5
  -2  -1   1 7986.59 163.038  12
  -2  -1   1 8102.23 294.792   4
  -2  -1   1 8216.15 298.507   5
   2   1  -1 7736.92 262.882   6
   2   1  -1 8086.68 279.747   3
   2   1  -1 7821.99 262.596   2
  -2  -1   1 8118.55 189.774   8
   2   1   0 20057.3 272.933   2
   2   1   0 19855.4 272.458   6
  -2  -1   0 20833.8 448.140   4
   2   1   0 20773.5 397.144   3
  -2  -1   0 20480.3 438.997   5
  -2  -1   0 20729.5 289.458  10
  -2  -1  -1 254689. 991.627  10
   2   1   1 253530. 1349.18   3
  -2  -1  -2 1243.47 70.8557   2
   2   1   2 1340.15 111.517   3
  -2  -1  -2 1197.40 71.3927  10
  -2  -1  -2 1255.08 71.1674   6
  -2  -1  -3 72135.2 641.958  11
   2   1   3 70057.2 938.521   3
  -2  -1  -3 70206.7 707.435   6
  -2  -1  -3 69808.3 702.730   2
  -2  -1  -4 1068.31 87.8482  11
  -2  -1  -4 1081.09 109.528   2
  -2  -1  -4 1070.82 109.802   6
   2   1   4 1006.45 144.362   3
  -2  -1  -5 20073.0 403.330  11
  -2  -1  -5 19910.7 541.663   2
   2   1   5 19982.3 720.476   3
  -2  -1  -5 19922.6 544.412   6
   2   1   6 28738.1 973.240   3
  -2  -1  -6 29013.7 518.154  25
  -2  -1  -6 27282.2 485.444  20
  -2  -1  -6 28583.9 742.821   6
  -2  -1  -6 28462.8 738.641   2
   2   1   7 115996. 1292.69  52
   2   1   7 121131. 2172.92   3
  -2  -1  -7 116555. 1203.57  47
  -2  -1  -7 120922. 1671.85   2
  -2  -1  -7 114384. 1129.41  20
  -2  -1  -7 120496. 1207.83  42
  -2  -1  -7 119628. 1186.02  41
   2   1   7 118816. 1370.61  38
  -2  -1  -7 120394. 1665.97   6
  -2  -1  -7 119485. 1172.57  25
  -2  -1  -8 6554.17 310.368  40
  -2  -1  -8 6535.24 305.254  47
  -2  -1  -8 6250.80 279.838  20
  -2  -1  -8 6480.93 290.635  42
   2   1   8 6625.02 340.893  38
  -2  -1  -9 8309.05 344.723  47
  -2  -1  -9 8218.24 320.162  42
  -2  -1  -9 8535.21 352.420  40
   2   1   9 8571.32 380.709  38
  -2  -1 -10 7611.96 302.339  47
  -2  -1 -10 7304.94 268.727  42
  -2  -1 -10 7652.42 303.649  40
   2   1  10 7451.30 316.299  38
  -2  -1 -11 6670.87 226.639  40
  -2  -2   9 585.507 67.2026  38
   2   2  -9 572.724 70.0505  34
   2   2  -8 4174.38 234.964  47
  -2  -2   8 4456.94 223.020  38
   2   2  -8 4391.33 236.742  34
  -2  -2   7 26873.8 690.549  44
   2   2  -7 26257.2 644.700  34
   2   2  -7 25408.1 649.468  47
   2   2  -7 25801.9 610.768  45
  -2  -2   7 25857.8 572.906  50
   2   2  -7 25777.5 641.168  16
  -2  -2   6 39326.9 711.963  50
  -2  -2   6 40062.1 842.294  44
   2   2  -6 39075.5 783.040  45
   2   2  -6 39248.9 805.750  34
   2   2  -6 38690.3 803.605  16
  -2  -2   5 15955.4 431.197  50
   2   2  -5 15862.0 488.258  45
  -2  -2   5 15406.6 438.876  29
  -2  -2   5 15867.5 398.309  28
  -2  -2   5 15863.8 410.597  55
  -2  -2   5 16450.1 659.118   4
  -2  -2   5 16049.5 512.065  44
  -2  -2   5 16038.7 652.984   5
  -2  -2   4 32325.4 848.334   4
  -2  -2   4 32503.3 594.799  29
  -2  -2   4 32196.5 848.459   5
   2   2  -4 32457.6 655.185  45
  -2  -2   4 32756.5 574.619  50
  -2  -2   4 31848.5 668.627  44
   2   2  -4 32869.0 646.521  35
  -2  -2   3 34179.3 801.941   5
  -2  -2   3 33837.0 527.170  19
   2   2  -3 36178.3 786.046   2
  -2  -2   3 33031.7 783.205   4
   2   2  -3 36766.4 793.488   6
   2   2  -2 84860.9 1020.08   2
  -2  -2   2 74940.0 727.049   8
  -2  -2   2 76554.9 1097.11   5
  -2  -2   2 75180.0 720.441  19
   2   2  -2 74883.4 1110.36   3
   2   2  -2 85120.2 1024.36   6
  -2  -2   2 74277.1 1071.65   4
  -2  -2   1 19229.8 510.545   5
  -2  -2   1 18708.7 293.755  10
  -2  -2   1 18682.7 500.823   4
   2   2  -1 19486.5 316.021   2
  -2  -2   1 18679.5 337.051   8
   2   2  -1 19239.6 313.009   6
   2   2  -1 18757.3 480.707   3
  -2  -2   0 7617.11 185.361  10
  -2  -2   0 7433.13 299.957   5
  -2  -2   0 7798.76 310.827   4
   2   2   0 7558.55 275.262   3
  -2  -2  -1 24040.9 341.857  10
   2   2   1 23695.4 459.417   3
  -2  -2  -2 104253. 709.699   6
   2   2   2 114403. 1059.02   3
  -2  -2  -2 107698. 681.015   9
  -2  -2  -2 112198. 797.994  11
  -2  -2  -2 106359. 716.906   2
  -2  -2  -3 58725.3 609.175   9
  -2  -2  -3 58238.9 729.001   2
  -2  -2  -3 57592.4 722.666   6
  -2  -2  -3 58277.7 649.808  11
   2   2   4 51073.2 952.690   3
  -2  -2  -4 51625.7 657.272   9
  -2  -2  -4 50664.6 672.088  11
  -2  -2  -4 51765.6 833.341   6
  -2  -2  -4 50932.2 820.880   2
  -2  -2  -5 29657.6 553.396  11
  -2  -2  -5 30345.1 726.241   2
  -2  -2  -5 30192.5 722.278   6
   2   2   6 476.463 133.305   3
  -2  -2  -6 489.926 78.1448  11
  -2  -2  -6 457.699 102.121   2
  -2  -2  -6 577.588 115.023   6
   2   2   7 16461.4 802.181   3
  -2  -2  -7 18035.6 479.037  11
  -2  -2  -7 17945.6 461.169  47
  -2  -2  -7 17649.8 495.641  42
  -2  -2  -7 17783.5 445.335  20
  -2  -2  -7 17874.8 451.374  25
  -2  -2  -7 17829.1 666.072   2
  -2  -2  -7 18223.3 479.239  41
  -2  -2  -7 17634.4 664.988   6
   2   2   7 18166.4 579.890  38
  -2  -2  -8 327.141 68.8680  47
  -2  -2  -8 287.703 71.3498  42
  -2  -2  -8 142.645 52.3050  41
   2   2   8 114.033 57.9629  38
  -2  -2  -8 133.458 53.4994  25
  -2  -2  -9 116442. 1245.31  47
  -2  -2  -9 116025. 1242.43  42
  -2  -2  -9 116796. 1331.42  40
  -2  -2 -10 756.783 99.7351  40
   2   2  10 816.335 113.378  38
  -2  -2 -10 758.550 93.6957  47
  -2  -2 -10 844.361 95.6047  42
  -2  -2 -11 77.4304 29.8392  40
   2   2  11 12.1986 22.6321  38
   2   3  -8 18411.4 447.746  47
   2   3  -8 19053.1 425.801  45
  -2  -3   8 19752.2 440.999  38
   2   3  -8 19628.3 477.088  34
   2   3  -7 499.780 92.2500  34
  -2  -3   7 347.268 68.1334  50
   2   3  -7 312.678 70.2844  47
   2   3  -7 348.705 73.0576  45
   2   3  -7 375.260 79.2565  16
  -2  -3   6 295.011 62.8462  28
   2   3  -6 209.027 64.3012  34
  -2  -3   6 226.035 60.9744  50
  -2  -3   6 196.106 67.4562  44
   2   3  -6 288.307 72.6254  47
   2   3  -6 445.851 87.4696  45
  -2  -3   6 185.277 60.6461  29
   2   3  -6 170.839 60.8405  16
  -2  -3   5 36143.4 714.933  29
   2   3  -5 35481.3 737.412  45
  -2  -3   5 36257.4 1019.86   4
  -2  -3   5 35845.5 785.455  44
  -2  -3   5 36168.8 666.868  50
   2   3  -5 35951.6 756.791  16
  -2  -3   5 36293.4 1023.77   5
   2   3  -5 35859.0 743.918  34
  -2  -3   4 23440.6 766.129   5
  -2  -3   4 24383.5 564.889  29
  -2  -3   4 24788.6 519.412  50
   2   3  -4 23155.5 563.412  45
  -2  -3   4 24212.0 607.981  44
  -2  -3   4 23375.7 517.051  19
  -2  -3   4 23164.4 753.828   4
   2   3  -4 23707.4 575.072  16
   2   3  -4 24316.8 579.259  34
  -2  -3   3 40048.6 920.930   5
  -2  -3   3 40817.9 679.698  29
  -2  -3   3 41335.0 680.035  27
  -2  -3   3 40270.2 923.797   4
  -2  -3   3 40171.1 623.810  19
   2   3  -3 40687.6 689.422  16
  -2  -3   2 8952.67 282.295   8
  -2  -3   2 9275.07 414.915   4
   2   3  -2 9522.95 438.926   3
  -2  -3   2 9012.84 277.355  19
   2   3  -2 9394.82 296.945  16
  -2  -3   2 9161.05 411.842   5
  -2  -3   1 30228.8 485.197   8
  -2  -3   1 30051.2 397.212  10
  -2  -3   1 30229.2 703.993   4
  -2  -3   1 31028.1 716.988   5
   2   3  -1 30837.5 690.800   3
   2   3  -1 30839.9 468.371  16
  -2  -3   0 11608.7 425.028   5
  -2  -3   0 12025.0 257.119  10
  -2  -3   0 11619.3 428.496   4
   2   3   0 11548.7 384.314   3
   2   3   0 12107.2 246.775  16
  -2  -3  -1 112267. 624.221   9
  -2  -3  -1 114938. 837.558  10
  -2  -3  -1 112961. 793.745  11
  -2  -3  -1 114027. 647.848   2
  -2  -3  -1 115152. 650.719   6
   2   3   1 113741. 1132.57   3
  -2  -3  -2 51543.3 611.632   2
  -2  -3  -2 51473.4 616.885  11
  -2  -3  -2 51762.3 544.325   9
  -2  -3  -2 51589.1 612.425   6
   2   3   2 53314.1 779.456   3
   2   3   3 959.759 117.560   3
  -2  -3  -3 918.283 88.3839   9
  -2  -3  -3 942.462 96.6373  11
   2   3   3 999.448 110.118   1
  -2  -3  -3 851.157 101.533   6
  -2  -3  -3 990.801 109.943   2
  -2  -3  -4 135.291 47.2747  11
   2   3   4 278.938 59.2368   1
   2   3   4 241.368 74.5046   3
  -2  -3  -4 140.636 59.9590   2
  -2  -3  -4 223.024 69.4653   6
  -2  -3  -5 73722.2 952.967   9
  -2  -3  -5 73037.6 962.400  11
  -2  -3  -5 71747.0 1219.73   6
  -2  -3  -5 74227.7 1246.07   2
   2   3   6 90735.9 1147.65  55
  -2  -3  -6 90755.5 910.236  25
  -2  -3  -6 89273.2 842.510  32
  -2  -3  -6 90574.7 1162.67   9
  -2  -3  -6 88696.0 1130.37  11
  -2  -3  -6 89518.4 1500.71   2
  -2  -3  -6 89587.1 1061.58  41
  -2  -3  -6 88242.3 1486.17   6
   2   3   6 90436.2 1272.84  38
   2   3   6 90504.4 981.401  48
   2   3   7 23254.0 618.328  55
  -2  -3  -7 23433.6 602.047  11
   2   3   7 22179.1 948.301   3
  -2  -3  -7 24335.7 529.645  25
  -2  -3  -7 24359.5 524.797  20
  -2  -3  -7 24508.1 841.469   2
  -2  -3  -7 24038.1 583.811  41
  -2  -3  -7 24093.3 826.549   6
   2   3   7 24806.5 724.987  38
   2   3   8 19.8831 32.8777  55
  -2  -3  -8 44.2349 33.6113  25
  -2  -3  -8 65.8794 42.6165  20
  -2  -3  -8 36.6141 39.7425  42
  -2  -3  -8 103.167 47.3130  41
   2   3   8 82.8553 61.6380  38
  -2  -3  -9 18644.6 494.886  20
  -2  -3  -9 19838.0 513.510  41
  -2  -3  -9 19131.6 520.250  42
   2   3   9 20070.0 643.938  38
  -2  -3 -10 34110.2 601.825  42
  -2  -3 -10 34842.5 654.657  40
   2   3  10 35751.3 740.658  38
  -2  -3 -11 14212.4 332.786  40
   2   3  11 13763.8 350.828  38
   2   4  -8 1882.16 124.761  45
  -2  -4   8 1799.53 121.270  38
   2   4  -8 1994.70 142.594  34
   2   4  -7 29245.6 637.566  34
   2   4  -7 29031.0 610.604  45
  -2  -4   7 29211.4 561.391  50
  -2  -4   6 44408.7 750.116  28
  -2  -4   6 45383.0 897.710  44
  -2  -4   6 45562.0 829.159  29
   2   4  -6 43101.8 840.462  34
   2   4  -6 43419.7 822.344  45
   2   4  -6 42828.8 839.393  16
  -2  -4   6 45617.9 751.960  50
   2   4  -5 606.461 103.678  34
  -2  -4   5 649.984 106.772  29
  -2  -4   5 695.424 96.0535  50
   2   4  -5 696.204 108.993  45
  -2  -4   5 596.759 105.257  44
   2   4  -5 669.818 108.470  16
  -2  -4   4 425.764 86.6737  44
  -2  -4   4 333.607 100.601   5
  -2  -4   4 545.599 96.0662  27
  -2  -4   4 435.210 76.5317  50
  -2  -4   4 427.256 86.6866  29
   2   4  -4 507.782 91.3081  45
  -2  -4   4 611.336 94.1897  19
  -2  -4   4 448.962 114.891   4
   2   4  -4 395.957 79.9945  16
   2   4  -4 729.224 110.303  34
   2   4  -3 59383.1 880.017  34
  -2  -4   3 56711.4 873.964  27
  -2  -4   3 58132.6 1192.24   4
   2   4  -3 57182.3 851.303  45
  -2  -4   3 57912.9 1188.59   5
  -2  -4   3 58940.4 831.851  19
  -2  -4   3 58968.4 851.662   8
   2   4  -3 56894.8 851.759  16
  -2  -4   2 110515. 1560.43   5
  -2  -4   2 110161. 1077.67  19
  -2  -4   2 112030. 1101.03   8
  -2  -4   2 110521. 1548.29   4
   2   4  -2 110275. 1066.03  16
  -2  -4   1 6314.74 252.767   8
  -2  -4   1 5966.16 344.176   4
  -2  -4   1 6461.47 197.670  10
  -2  -4   1 6338.66 357.653   5
   2   4  -1 6045.62 347.337   3
   2   4  -1 5905.65 218.429  16
  -2  -4   0 121756. 1512.12   5
  -2  -4   0 124714. 924.301  10
  -2  -4   0 123528. 1527.29   4
   2   4   0 122608. 1399.54   3
  -2  -4  -1 141506. 1043.76   2
  -2  -4  -1 132744. 1561.50   4
   2   4   1 137733. 1396.51   3
  -2  -4  -1 140841. 1037.44   6
  -2  -4  -1 135696. 995.476  11
  -2  -4  -2 116299. 1079.45   2
  -2  -4  -2 110935. 893.910   9
   2   4   2 107755. 1308.83   1
  -2  -4  -2 115000. 1077.99   6
   2   4   2 111340. 1230.38   3
  -2  -4  -3 90461.3 921.842   9
  -2  -4  -3 92328.6 1139.50   2
  -2  -4  -3 92276.2 1147.61   6
   2   4   3 92030.0 1167.28   3
  -2  -4  -4 44932.8 732.706   9
  -2  -4  -4 45025.6 612.760  18
  -2  -4  -4 44420.1 924.035   6
  -2  -4  -4 45133.6 924.926   2
   2   4   4 46121.5 903.372   3
   2   4   5 3245.96 276.634   3
   2   4   5 3266.57 222.777  55
  -2  -4  -5 3073.66 147.161  32
  -2  -4  -5 2942.28 209.609   9
   2   4   5 3111.85 185.956  48
  -2  -4  -5 2793.72 263.890   6
   2   4   5 2714.80 206.521  38
  -2  -4  -5 3013.47 272.338   2
   2   4   6 50791.5 955.004  55
  -2  -4  -6 47055.2 903.828  11
  -2  -4  -6 49475.2 914.130   9
   2   4   6 48098.9 759.493  48
  -2  -4  -6 47962.4 835.921  41
  -2  -4  -6 47436.4 1177.63   6
  -2  -4  -6 47390.1 1179.53   2
   2   4   6 46786.2 969.853  38
  -2  -4  -6 50052.7 634.354  32
   2   4   7 66202.9 1143.51  55
  -2  -4  -7 67587.6 886.043  25
  -2  -4  -7 63307.7 1076.02  11
  -2  -4  -7 68702.6 1134.03   9
  -2  -4  -7 64646.7 1455.45   6
   2   4   7 65996.0 902.607  48
  -2  -4  -7 67439.2 896.733  20
  -2  -4  -7 66614.1 1025.65  41
  -2  -4  -7 64616.4 1441.20   2
   2   4   7 64289.2 1224.26  38
   2   4   8 27918.2 731.723  55
  -2  -4  -8 27322.9 697.043  11
  -2  -4  -8 29373.7 612.245  25
  -2  -4  -8 29070.4 617.486  20
  -2  -4  -8 29130.1 659.137  41
   2   4   8 29415.3 840.791  38
  -2  -4  -9 5934.54 296.477  42
  -2  -4  -9 5822.21 275.773  20
  -2  -4  -9 6092.79 282.126  41
   2   4   9 5927.22 354.078  38
  -2  -4 -10 7948.57 286.105  42
  -2  -4 -10 8046.95 303.477  40
   2   4  10 8542.52 355.152  38
  -2  -5   7 10480.1 306.274  28
  -2  -5   7 10619.3 303.181  50
   2   5  -7 10589.3 340.407  45
   2   5  -7 10550.9 358.544  34
  -2  -5   6 29161.5 654.929  29
  -2  -5   6 28637.0 569.574  50
   2   5  -6 29117.4 648.722  45
   2   5  -6 29414.2 652.348  36
   2   5  -6 28637.7 666.962  34
  -2  -5   5 15105.9 504.783  29
  -2  -5   5 14850.2 431.126  50
   2   5  -5 14616.4 484.741  45
  -2  -5   5 14922.5 503.806  44
   2   5  -5 14401.6 501.489  34
  -2  -5   4 52000.5 919.969  27
  -2  -5   4 50797.0 798.354  50
   2   5  -4 49050.9 879.862  45
   2   5  -4 48852.1 835.564  53
  -2  -5   4 49637.6 921.636  29
   2   5  -4 50221.6 897.335  16
  -2  -5   4 50933.0 857.613  19
   2   5  -4 53531.3 977.794  34
  -2  -5   3 2151.76 183.010  27
  -2  -5   3 2320.20 166.526  50
  -2  -5   3 2294.62 256.704   4
   2   5  -3 2119.19 175.649  45
  -2  -5   3 2129.37 246.296   5
   2   5  -3 2056.33 172.177  53
  -2  -5   3 2221.65 177.782  19
   2   5  -3 2083.06 174.801  16
   2   5  -3 2196.75 183.097  34
  -2  -5   2 61944.4 1257.64   5
   2   5  -2 60700.3 768.941  24
  -2  -5   2 63541.2 1273.63   4
  -2  -5   2 62472.6 900.117   8
   2   5  -2 60982.2 868.043  45
   2   5  -2 60402.5 892.115  53
  -2  -5   2 59479.5 884.744  27
  -2  -5   2 60962.3 890.418  19
   2   5  -2 56950.4 815.432  34
   2   5  -2 64096.8 865.388  56
  -2  -5   1 80680.9 996.698   8
   2   5  -1 75165.6 894.522  24
  -2  -5   1 81976.4 1376.49   4
   2   5  -1 72821.8 950.045  21
  -2  -5   1 82996.8 1394.80   5
   2   5  -1 79577.6 1403.66   3
  -2  -5   0 95675.4 887.288  10
  -2  -5   0 94077.5 1460.83   5
   2   5   0 91794.5 1013.52  24
   2   5   0 90492.0 1046.17  21
  -2  -5   0 93661.5 1449.30   4
   2   5   0 94368.8 1385.09   3
  -2  -5  -1 92.0036 56.2322   4
  -2  -5  -1 64.8218 47.5057   5
   2   5   1 266.230 60.8297  24
   2   5   1 69.2279 43.0231   3
   2   5   1 290.231 61.3933  21
  -2  -5  -1 48.9970 29.0242  10
  -2  -5  -1 213.457 48.2430  11
   2   5   2 509.929 80.1605  24
   2   5   2 572.597 87.4358  21
   2   5   2 570.933 117.715   1
   2   5   2 833.124 120.547   3
  -2  -5  -3 78874.6 1186.66   2
   2   5   3 75811.8 1333.89   1
  -2  -5  -3 74770.6 932.555   9
   2   5   3 74740.5 951.654  21
  -2  -5  -3 78196.1 1185.33   6
   2   5   3 77882.6 1134.82   3
   2   5   4 51278.4 859.339  55
  -2  -5  -4 49913.9 1065.63   2
  -2  -5  -4 49878.8 840.727   9
   2   5   4 45016.6 700.585  24
   2   5   4 48077.5 766.603  48
   2   5   4 47545.2 757.164  21
   2   5   4 53559.7 844.675  38
  -2  -5  -4 49865.8 1068.16   6
   2   5   4 47855.1 1095.78   1
   2   5   5 45741.1 773.488  48
  -2  -5  -5 45356.7 1141.05   6
   2   5   5 48759.4 944.580  55
  -2  -5  -5 46024.5 879.872   9
   2   5   5 47177.8 898.283  38
  -2  -5  -5 45022.4 1130.18   2
   2   5   6 1204.09 166.460  55
  -2  -5  -6 1212.58 158.756   9
   2   5   6 1156.03 128.302  48
  -2  -5  -6 1036.86 148.948  11
   2   5   6 972.200 149.286  38
  -2  -5  -6 1023.49 186.223   2
  -2  -5  -6 1008.85 133.448  41
  -2  -5  -6 972.434 181.690   6
   2   5   7 44257.6 999.626  55
  -2  -5  -7 44422.9 726.900  25
  -2  -5  -7 43089.5 937.832   9
   2   5   7 42136.0 751.164  48
  -2  -5  -7 43189.8 850.154  41
  -2  -5  -7 41565.5 933.219  11
  -2  -5  -8 6133.46 342.815  11
  -2  -5  -8 6606.18 285.445  25
   2   5   8 6921.09 288.349  48
  -2  -5  -8 6770.88 297.050  20
  -2  -5  -8 6775.41 319.362  41
   2   5   8 6463.18 398.184  38
   2   5   8 6908.87 379.837  55
  -2  -5  -9 26656.1 564.061  20
  -2  -5  -9 27038.7 614.258  42
  -2  -5  -9 27841.7 565.750  41
   2   5   9 27704.5 731.717  38
  -2  -5 -10 4342.39 200.447  42
  -2  -5 -10 4557.10 209.613  40
   2   5  10 4779.97 245.894  38
   2   6  -7 11040.4 305.492  45
   2   6  -7 10723.9 316.071  34
  -2  -6   6 670.906 85.3153  52
   2   6  -6 685.668 94.6661  45
  -2  -6   6 704.688 99.2535  29
  -2  -6   6 697.208 91.6631  28
   2   6  -6 738.031 101.126  36
   2   6  -6 614.887 93.4636  34
  -2  -6   5 14369.8 398.554  50
  -2  -6   5 14682.3 492.511  29
   2   6  -5 13821.2 455.360  45
   2   6  -5 13814.2 489.066  34
  -2  -6   4 67242.7 911.864  50
  -2  -6   4 64025.9 1066.46  29
  -2  -6   4 66978.7 1044.96  27
  -2  -6   4 68628.3 1016.92  19
   2   6  -4 64767.9 1014.96  45
   2   6  -4 71033.5 1198.04  34
   2   6  -4 66135.4 1020.40  53
   2   6  -3 9888.10 403.627  53
  -2  -6   3 9611.01 398.856  27
  -2  -6   3 9604.22 348.469  50
   2   6  -3 9520.86 383.873  45
  -2  -6   3 9950.60 389.474  19
   2   6  -3 9956.29 412.088  34
  -2  -6   2 2246.11 254.929   5
   2   6  -2 1981.94 153.749  24
  -2  -6   2 2094.54 246.637   4
  -2  -6   2 2178.35 184.772   8
   2   6  -2 2067.87 171.443  45
   2   6  -2 2114.09 186.348  53
   2   6  -2 1944.07 170.494  21
  -2  -6   2 2042.69 177.193  19
   2   6  -2 2182.56 176.679  56
   2   6  -2 2185.45 176.011  34
   2   6  -1 27486.4 566.699  56
   2   6  -1 27748.7 646.148  53
   2   6  -1 26130.3 625.966  21
   2   6  -1 26630.3 597.636  24
  -2  -6   1 27831.2 869.894   4
   2   6  -1 26417.1 561.412  45
  -2  -6   1 27809.2 639.537   8
  -2  -6   1 27395.5 861.518   5
  -2  -6   0 3864.96 319.006   5
   2   6   0 4165.30 244.822  53
   2   6   0 3850.18 239.513  24
   2   6   0 3772.52 197.530  45
  -2  -6   0 3753.30 313.178   4
  -2  -6   0 4293.68 251.057   8
   2   6   0 4009.86 248.263  21
   2   6   0 4141.38 329.214   3
  -2  -6  -1 55923.6 1208.94   5
   2   6   1 58197.8 882.931  53
  -2  -6  -1 58723.1 808.663  10
   2   6   1 56411.3 928.573  24
   2   6   1 58385.0 933.500  21
  -2  -6  -1 56279.1 1217.22   4
   2   6   1 59494.5 1144.16   3
   2   6   2 33250.1 640.466  53
  -2  -6  -2 34599.5 687.570  11
   2   6   2 32789.5 709.160  24
   2   6   2 33866.1 649.628  48
   2   6   2 34607.1 721.789  21
   2   6   2 34352.2 647.215  37
   2   6   2 34914.9 1017.39   1
   2   6   3 5863.37 297.874  24
   2   6   3 6294.16 300.714  48
  -2  -6  -3 7018.84 316.458   9
   2   6   3 6264.45 307.953  21
   2   6   3 6298.39 453.200   1
   2   6   4 24086.2 575.587  24
  -2  -6  -4 25555.6 658.685   9
   2   6   4 24782.8 612.906  48
   2   6   4 24673.0 925.987   1
   2   6   4 25307.1 608.304  21
   2   6   4 27011.3 635.215  38
  -2  -6  -5 12178.4 486.714   9
   2   6   5 12145.9 439.224  48
   2   6   5 12719.6 481.475  38
  -2  -6  -6 29696.2 810.423  11
  -2  -6  -6 31224.2 588.872  25
   2   6   6 30004.0 678.797  48
  -2  -6  -6 29301.5 780.555   9
  -2  -6  -7 234.731 74.7594  11
  -2  -6  -7 345.857 68.1079  25
   2   6   7 271.555 67.3790  48
  -2  -6  -7 280.496 65.1915  20
  -2  -6  -7 329.777 80.0836  41
   2   6   7 179.035 84.0748  38
   2   6   8 5152.68 247.138  48
  -2  -6  -8 5128.78 236.179  25
  -2  -6  -8 5133.58 249.637  20
  -2  -6  -8 5223.95 262.863  41
   2   6   8 4555.80 319.181  38
  -2  -6  -9 12605.6 355.381  20
  -2  -6  -9 12523.4 387.023  42
  -2  -6  -9 12846.2 344.756  41
   2   6   9 13011.9 450.132  38
  -2  -7   6 1698.01 122.016  28
  -2  -7   6 1719.81 129.394  29
  -2  -7   6 1621.02 116.903  52
   2   7  -6 1722.67 128.966  36
   2   7  -6 1495.15 122.411  34
  -2  -7   5 2576.39 187.762  29
   2   7  -5 2456.24 177.666  45
   2   7  -5 2368.39 189.075  34
  -2  -7   4 834.328 120.483  29
  -2  -7   4 1094.07 128.051  27
   2   7  -4 828.963 112.402  45
   2   7  -4 886.995 120.616  53
   2   7  -4 1050.26 149.183  34
   2   7  -3 9887.92 415.535  53
   2   7  -3 9730.34 391.379  45
  -2  -7   3 9979.19 389.946  19
   2   7  -3 10208.5 438.144  34
  -2  -7   2 25086.4 647.845   8
   2   7  -2 24872.3 669.558  53
   2   7  -2 25137.3 576.946  24
   2   7  -2 24170.5 600.059  45
   2   7  -2 24593.3 629.512  21
  -2  -7   2 25018.5 631.369  19
   2   7  -2 24306.7 608.090  56
   2   7  -1 2679.14 218.950  53
   2   7  -1 2736.24 211.314  24
   2   7  -1 2694.31 191.654  45
  -2  -7   1 2736.49 213.308   8
   2   7  -1 2755.79 220.254  21
  -2  -7   1 2331.04 226.865   7
   2   7  -1 2767.20 195.185  56
  -2  -7   1 2634.44 209.345  19
   2   7   0 746.321 116.976  53
   2   7   0 772.289 124.858  24
   2   7   0 677.997 94.0442  56
  -2  -7   0 730.596 112.673   8
   2   7   0 710.845 118.851  21
  -2  -7   0 540.401 107.980   7
   2   7   1 17832.0 529.975  53
   2   7   1 17827.8 593.050  24
  -2  -7  -1 15643.0 527.735   7
   2   7   1 17768.4 566.445  21
  -2  -7  -1 16025.0 520.481   8
   2   7   2 37090.8 738.586  53
  -2  -7  -2 36011.8 719.513  10
   2   7   2 37467.4 859.633  24
   2   7   2 37658.5 749.492  48
   2   7   2 38691.4 832.285  21
  -2  -7  -3 938.330 134.599  11
   2   7   3 1221.44 157.431  24
   2   7   3 891.840 128.463  48
   2   7   3 1015.93 138.889  21
   2   7   4 10474.9 414.599  24
   2   7   4 10566.2 434.995  48
  -2  -7  -4 10613.3 472.844  11
   2   7   4 11114.3 433.584  21
   2   7   5 651.496 112.223  48
  -2  -7  -5 652.630 123.568   9
  -2  -7  -5 867.358 144.539  11
  -2  -7  -6 17490.6 628.404  11
   2   7   6 17148.4 529.417  48
   2   7   7 28772.7 628.021  48
  -2  -7  -7 29018.3 577.262  20
   2   7   8 10771.5 331.585  48
  -2  -7  -8 10317.8 321.287  20
  -2  -7  -9 739.737 84.5172  42
  -2  -8   5 4706.95 200.819  28
  -2  -8   5 4757.88 202.501  52
   2   8  -5 4935.18 226.754  36
   2   8  -4 5104.55 255.017  53
  -2  -8   4 5074.51 254.626  29
   2   8  -3 306.397 78.0883  53
  -2  -8   3 626.242 104.075  29
   2   8  -2 7149.76 356.843  53
   2   8  -2 7130.57 303.550  24
   2   8  -2 6644.43 323.204  21
  -2  -8   2 6408.00 306.827  19
   2   8  -1 40006.6 855.539  53
   2   8  -1 40672.4 821.691  24
   2   8  -1 39597.8 843.753  21
  -2  -8   1 37569.1 772.272  19
   2   8  -1 38526.0 735.108  56
   2   8   0 3158.65 240.832  53
   2   8   0 3460.94 213.748  56
   2   8   0 3731.52 275.205  24
   2   8   0 3440.66 257.597  21
  -2  -8   0 3203.71 228.764  19
   2   8   1 9749.06 466.388  24
   2   8   1 10223.6 449.318  21
   2   8   1 9801.25 409.908  53
   2   8   1 9103.05 334.010  56
   2   8   2 686.616 131.517  24
   2   8   2 549.738 97.0252  48
   2   8   2 551.258 95.4963  53
   2   8   2 704.095 124.472  21
   2   8   3 31720.6 810.840  24
   2   8   3 30139.9 733.858  48
   2   8   3 32423.6 777.479  21
  -2  -8  -4 37548.3 877.628  11
   2   8   4 40914.9 846.542  24
   2   8   4 38413.7 840.703  48
   2   8   4 40479.2 832.460  21
   2   8   5 13876.8 492.428  48
   2   8   6 1806.88 167.394  48
  -2  -8  -6 1629.12 130.339  20
  -2  -8  -7 21276.7 434.057  20
   2   8   7 24356.8 531.702  48
   2   8   8 7542.32 239.439  48
  -2  -8  -8 7093.69 250.396  42
  -2  -9   3 18245.8 424.215  29
   2   9  -3 19377.6 471.320  53
  -2  -9   2 333.028 66.1724  29
   2   9  -2 590.160 97.8457  53
   2   9  -1 7853.36 352.830  53
   2   9  -1 8596.66 347.972  24
   2   9   0 21226.4 613.095  24
   2   9   0 19542.7 561.079  53
   2   9   0 20288.1 585.836  21
   2   9   1 42001.6 806.508  53
   2   9   1 43683.1 940.606  24
   2   9   1 44625.9 889.695  21
   2   9   2 14236.8 540.359  24
   2   9   2 14932.4 513.672  21
   2   9   2 13450.1 427.836  53
   2   9   3 4285.07 253.867  48
   2   9   3 4769.59 284.115  21
   2   9   3 4873.92 304.001  24
   2   9   4 6354.34 310.386  24
   2   9   4 5280.12 286.508  48
   2   9   5 44518.9 789.216  48
   2   9   6 13326.8 385.749  48
   2  10  -1 1730.63 133.120  53
   2  10   0 2766.36 173.467  53
   2  10   1 4774.88 218.731  53
   2  10   1 5253.10 277.663  24
   2  10   2 40613.5 777.450  24
  -3   7   3 3438.60 161.489  48
   3  -7  -3 3501.69 228.699  35
   3  -7  -2 35356.6 781.637  33
  -3   7   2 34298.7 581.910  48
   3  -7  -2 33049.7 663.177  46
   3  -7  -1 256.485 81.9260  33
   3  -7  -1 306.881 74.5508  46
   3  -7   0 38459.6 842.806  33
   3  -7   1 3243.87 242.429  33
   3  -7   1 3783.74 277.406  26
  -3   7  -1 3531.31 187.666  53
  -3   7  -2 1247.10 117.457  53
   3  -7   2 1137.95 152.555  26
  -3   7  -3 3111.91 174.869  58
  -3   7  -3 3339.60 186.397  53
   3  -7   3 3588.04 287.521  30
   3  -7   3 3015.08 236.573  26
  -3   7  -4 18945.2 417.623  53
   3  -7   4 19096.5 639.637  30
  -3   7  -4 17876.1 397.485  58
  -3   7  -5 15608.6 337.957  53
  -3   7  -5 14978.6 333.411  58
   3  -6  -5 2220.35 161.300  35
  -3   6   4 8869.91 275.383  48
   3  -6  -4 9006.89 387.666  35
   3  -6  -3 8170.92 350.450  46
   3  -6  -2 2362.54 200.483  46
   3  -6  -1 18302.3 585.765  15
  -3   6   0 22574.6 507.411  53
   3  -6   0 23101.7 668.705  15
   3  -6   1 11604.2 492.665  33
  -3   6  -1 11362.2 383.865  53
  -3   6  -1 11204.4 380.281  58
   3  -6   1 10853.7 476.531  15
   3  -6   1 11282.5 471.552  14
   3  -6   2 31818.5 803.108  33
  -3   6  -2 32088.0 664.092  53
  -3   6  -2 29757.7 620.042  58
   3  -6   2 33133.3 850.875  26
  -3   6  -2 31082.6 694.263  42
   3  -6   2 31467.7 828.899  15
   3  -6   2 32598.4 836.673  14
   3  -6   3 4211.82 293.288  33
  -3   6  -3 4581.74 251.603  53
   3  -6   3 4427.10 313.776  26
  -3   6  -3 4343.73 262.251  42
   3  -6   3 4580.20 322.277  14
   3  -6   4 880.867 161.423  30
  -3   6  -4 850.459 107.056  53
   3  -6   4 652.023 124.211  26
  -3   6  -4 721.129 109.839  42
   3  -6   5 91.6445 77.0466  30
  -3   6  -5 335.851 63.5726  53
  -3   6  -5 223.809 56.7181  49
  -3   6  -5 176.471 53.3466  42
  -3   6  -6 40745.5 652.072  49
   3  -6   6 46404.9 1000.72  30
   3  -6   6 44458.7 716.450  52
   3  -6   6 42415.2 910.274  27
  -3   6  -6 40149.1 579.985  53
  -3   6  -7 8712.99 261.552  49
   3  -5  -6 2590.25 167.610  35
  -3   5   5 6059.83 234.346  55
   3  -5  -5 6446.10 320.089  31
   3  -5  -5 5929.43 315.098  35
   3  -5  -4 4504.38 294.504  31
   3  -5  -4 4241.05 259.123  46
   3  -5  -4 4143.10 298.698  35
   3  -5  -3 8164.74 404.566  31
   3  -5  -3 7609.97 365.453  46
   3  -5  -3 7209.84 398.768  18
   3  -5  -2 43024.7 864.561  46
   3  -5  -2 41701.7 943.276  18
   3  -5  -2 41667.9 870.675  15
   3  -5  -1 9437.13 409.043  15
  -3   5   0 14429.4 420.911  53
   3  -5   0 13921.3 499.422  15
   3  -5   0 14077.3 491.057  14
  -3   5  -1 2880.94 199.038  53
  -3   5  -1 2942.33 213.103  42
   3  -5   1 2790.52 231.527  15
   3  -5   1 2900.68 232.699  14
  -3   5  -1 2815.55 194.700  58
   3  -5   2 19617.4 622.434  33
  -3   5  -2 19587.4 526.978  53
  -3   5  -2 20049.0 555.547  42
   3  -5   2 19015.7 613.203  14
   3  -5   2 19559.9 585.851  13
   3  -5   3 22077.1 666.587  33
  -3   5  -3 22742.0 570.361  53
  -3   5  -3 22200.4 560.980  49
   3  -5   3 22357.5 661.520  13
   3  -5   3 22116.1 688.012  26
  -3   5  -3 21652.7 586.018  42
   3  -5   3 22046.1 684.094  14
   3  -5   4 34177.6 853.682  33
   3  -5   4 36877.9 983.250  30
  -3   5  -4 36213.8 712.799  53
   3  -5   4 35424.0 900.552  26
  -3   5  -4 34429.0 707.933  49
  -3   5  -4 36252.6 767.340  42
   3  -5   4 36434.0 886.543  14
   3  -5   4 36271.3 873.760  13
  -3   5  -5 15557.0 500.713  42
   3  -5   5 14509.3 638.570  30
  -3   5  -5 14854.7 440.702  53
   3  -5   5 15327.0 488.180  52
  -3   5  -5 15223.3 465.419  49
   3  -5   5 14377.9 544.001  14
   3  -5   5 15284.1 561.921  13
  -3   5  -6 61569.0 824.416  53
   3  -5   6 65473.0 1332.19  30
   3  -5   6 64255.6 986.863  52
   3  -5   6 61315.9 1213.81  27
  -3   5  -6 62593.5 915.175  49
  -3   5  -6 60542.6 899.997  42
   3  -5   7 522.648 86.9933  52
   3  -5   7 618.523 114.329  27
  -3   5  -7 455.162 74.7914  49
   3  -5   8 34964.9 600.249  52
  -3   5  -8 33022.5 533.903  49
  -3   4   6 8811.00 297.756  55
   3  -4  -6 9044.49 365.399  31
   3  -4  -6 8910.62 358.542  35
  -3   4   5 23775.4 550.245  55
   3  -4  -5 23122.7 652.419  31
   3  -4  -5 23136.0 678.269  35
  -3   4   4 16712.2 490.690  55
   3  -4  -4 16890.4 587.896  31
   3  -4  -4 17159.1 551.775  46
   3  -4  -4 15805.0 601.914  35
   3  -4  -3 2480.44 229.249  31
   3  -4  -3 2886.40 230.004  46
   3  -4  -3 2287.83 224.816  18
   3  -4  -3 2590.73 222.183  15
  -3   4   3 2979.70 215.704  55
   3  -4  -2 13376.7 505.561  31
   3  -4  -2 13616.0 477.377  46
   3  -4  -2 13148.1 507.321  18
   3  -4  -2 14027.0 485.927  15
   3  -4  -1 23535.6 624.215  31
   3  -4  -1 23995.1 981.199   2
   3  -4  -1 23098.2 962.658   6
   3  -4  -1 24766.8 620.368  15
  -3   4   0 45279.4 714.163  53
  -3   4   0 44794.4 810.422  51
  -3   4   0 46019.4 1134.78   1
  -3   4   0 46857.0 756.996  58
   3  -4   0 43268.6 1284.20   2
  -3   4   0 44557.6 773.723  42
   3  -4   0 44024.3 1297.19   6
   3  -4   0 44527.2 832.732  15
   3  -4   0 45231.1 810.285  14
  -3   4  -1 28605.0 587.043  53
  -3   4  -1 27453.6 603.396  42
  -3   4  -1 28109.4 829.335   1
  -3   4  -1 28447.0 653.272  51
   3  -4   1 25687.9 633.569  15
   3  -4   1 27174.0 645.690  14
   3  -4   2 575.403 106.562  33
  -3   4  -2 593.720 92.7727  53
  -3   4  -2 515.878 84.5622  49
  -3   4  -2 515.558 87.0317  42
   3  -4   2 584.822 98.3004  13
   3  -4   2 708.272 115.703  14
   3  -4   3 36008.4 808.256  33
  -3   4  -3 37407.1 703.956  53
   3  -4   3 37046.1 831.516  26
   3  -4   3 36845.1 799.008  13
  -3   4  -3 34990.1 698.555  42
  -3   4  -3 36615.3 689.761  49
  -3   4  -3 35073.7 702.098  39
  -3   4  -3 37644.3 810.691  51
   3  -4   3 35361.3 792.620  14
   3  -4   4 51132.6 1009.02  33
   3  -4   4 50753.5 1044.02  26
   3  -4   4 53275.6 877.471  52
  -3   4  -4 52478.7 836.815  49
   3  -4   4 53549.9 1003.13  13
  -3   4  -4 52997.7 840.473  53
  -3   4  -4 52081.0 876.170  42
  -3   4  -4 50315.7 855.091  39
  -3   4  -4 50839.7 762.725  36
   3  -4   4 50559.2 970.987  14
   3  -4   5 22187.1 700.624  33
   3  -4   5 21270.4 758.576  30
  -3   4  -5 21571.1 533.399  53
   3  -4   5 21564.5 591.196  52
  -3   4  -5 21572.0 548.840  49
   3  -4   5 20505.5 698.077  26
  -3   4  -5 21995.0 580.538  42
  -3   4  -5 21285.5 563.685  39
  -3   4  -5 20733.8 510.396  36
  -3   4  -5 21761.2 533.643  34
   3  -4   5 20786.9 623.611  14
   3  -4   5 21239.5 648.053  13
  -3   4  -6 2615.47 177.498  53
   3  -4   6 2692.95 285.426  30
   3  -4   6 2605.62 211.110  52
  -3   4  -6 3186.78 214.248  49
  -3   4  -6 2565.57 196.891  42
  -3   4  -6 2597.07 197.482  39
   3  -4   6 2469.60 220.134  13
   3  -4   6 2747.55 268.897  27
  -3   4  -6 2673.36 185.716  34
   3  -4   7 931.692 124.199  52
   3  -4   7 943.777 152.693  27
  -3   4  -7 1107.82 123.944  49
  -3   4  -7 917.244 109.602  42
  -3   4  -7 968.033 114.089  39
  -3   4  -7 951.909 106.891  34
   3  -4   8 15607.9 457.100  52
  -3   4  -8 15697.8 423.716  49
   3  -4   9 20341.9 448.859  52
  -3   4  -9 21111.3 419.880  49
  -3   3   7 21347.3 442.784  55
   3  -3  -7 21399.9 494.712  35
   3  -3  -6 6116.24 316.780  31
   3  -3  -6 5399.16 288.549  41
  -3   3   6 6070.63 273.290  55
   3  -3  -6 6423.50 332.157  35
  -3   3   5 5787.69 288.391  55
   3  -3  -5 5686.87 335.818  31
   3  -3  -5 5639.36 353.358  35
  -3   3   4 29796.7 670.127  55
   3  -3  -4 29385.7 777.915  31
   3  -3  -4 28283.9 723.121  46
   3  -3  -4 27123.1 771.050  18
   3  -3  -4 28577.6 804.672  35
   3  -3  -3 72556.9 1727.96   2
   3  -3  -3 79888.3 1251.09  31
  -3   3   3 84978.1 1136.98  55
   3  -3  -3 80284.3 1176.99  46
   3  -3  -3 78344.0 1227.38  18
   3  -3  -3 72977.2 1734.69   6
  -3   3   2 4585.46 263.485  55
   3  -3  -2 4359.63 279.019  31
   3  -3  -2 3937.34 376.782   2
   3  -3  -2 4461.83 261.960  46
   3  -3  -2 4083.00 264.502  18
   3  -3  -2 4138.44 386.040   6
   3  -3  -2 4285.35 258.852  15
  -3   3   2 4808.06 410.432   1
  -3   3   1 752.596 147.572   1
   3  -3  -1 613.001 99.1825  31
  -3   3   1 644.316 91.4452  51
  -3   3   1 877.297 104.594  42
   3  -3  -1 642.627 149.121   2
   3  -3  -1 712.131 102.954  15
   3  -3  -1 670.032 150.563   6
  -3   3   0 34967.1 576.494  53
  -3   3   0 37005.3 916.774   1
  -3   3   0 35240.4 648.015  51
  -3   3   0 37265.9 686.619  12
  -3   3   0 36159.6 633.524  42
   3  -3   0 34251.1 1002.99   6
   3  -3   0 35260.2 670.834  15
   3  -3   0 35720.9 660.364  14
  -3   3   0 37176.8 620.532  58
  -3   3  -1 94058.6 1054.17  51
  -3   3  -1 94641.6 977.047  53
  -3   3  -1 96954.3 1362.86   1
  -3   3  -1 91963.7 1000.07  42
  -3   3  -1 96797.2 997.564  49
   3  -3   1 89683.6 1063.74  14
  -3   3  -1 97022.7 1105.24  12
   3  -3   2 13827.0 424.079  13
  -3   3  -2 14334.5 391.069  53
  -3   3  -2 13531.5 408.398  51
  -3   3  -2 13900.9 378.038  49
  -3   3  -2 13951.2 485.618   1
  -3   3  -2 13315.9 381.921  42
  -3   3  -2 13669.2 397.064  39
   3  -3   2 13003.5 419.802  14
  -3   3  -2 14088.6 436.938  12
   3  -3   3 31.4821 44.9521  13
  -3   3  -3 58.0597 34.5530  53
  -3   3  -3 52.4114 33.8641  12
   3  -3   3 25.6042 45.3513  33
  -3   3  -3 9.93938 25.0721  51
   3  -3   3 57.7313 47.0834  26
  -3   3  -3 152.703 42.4499  49
  -3   3  -3 49.9110 38.6765  39
  -3   3  -3 25.2075 22.2999  36
   3  -3   3 6.89147 39.1109  14
   3  -3   4 2149.58 204.881  33
   3  -3   4 2138.29 200.840  26
  -3   3  -4 2157.94 159.993  53
   3  -3   4 2160.88 172.612  52
  -3   3  -4 2360.63 165.743  49
  -3   3  -4 2117.72 162.339  42
  -3   3  -4 2181.43 165.520  39
  -3   3  -4 2062.14 148.389  36
  -3   3  -4 2169.82 152.363  34
   3  -3   4 1924.36 175.502  14
   3  -3   4 2321.77 199.373  13
   3  -3   5 39438.8 979.946  30
   3  -3   5 40036.0 849.740  13
  -3   3  -5 40313.5 692.745  53
   3  -3   5 40555.6 798.014  52
   3  -3   5 38046.5 921.514  26
  -3   3  -5 41206.8 716.623  49
  -3   3  -5 42067.5 754.581  42
  -3   3  -5 40365.2 740.001  39
  -3   3  -5 40125.1 694.408  36
  -3   3  -5 42104.9 690.655  34
   3  -3   5 40096.8 798.956  14
   3  -3   5 39897.1 911.376  33
  -3   3  -6 50408.5 755.852  53
  -3   3  -6 50110.8 848.761  39
   3  -3   6 49512.5 917.722  52
  -3   3  -6 50488.3 826.250  49
   3  -3   6 48789.9 1073.67  27
  -3   3  -6 49987.6 841.881  42
   3  -3   6 51225.9 1187.83  30
  -3   3  -6 50522.2 834.713  17
  -3   3  -6 51164.0 780.600  34
   3  -3   6 48489.3 942.598  13
   3  -3   7 5320.58 302.407  52
   3  -3   7 5334.27 353.743  27
  -3   3  -7 5653.78 281.845  49
  -3   3  -7 6139.75 291.002  42
  -3   3  -7 5486.47 280.369  39
  -3   3  -7 5240.45 275.563  17
  -3   3  -7 5443.79 252.982  34
   3  -3   8 4173.34 257.702  52
   3  -3   8 4570.04 296.505  27
  -3   3  -8 4284.15 236.838  49
  -3   3  -8 4200.56 222.104  42
  -3   3  -8 4157.45 238.968  17
  -3   3  -8 4346.34 236.490  39
  -3   3  -8 4335.37 213.279  34
  -3   3  -9 9345.46 315.271  49
   3  -3   9 9176.21 338.745  52
  -3   3  -9 8903.00 292.716  39
   3  -3  10 9913.42 284.215  52
  -3   3 -10 10388.8 274.147  49
   3  -2  -8 6794.30 234.373  34
  -3   2   7 27931.2 546.748  55
   3  -2  -7 29201.1 616.316  35
  -3   2   6 14782.3 445.874  55
   3  -2  -6 14720.8 506.845  31
   3  -2  -6 14110.7 470.904  41
   3  -2  -6 15019.5 528.116  35
   3  -2  -5 201.762 74.7396  31
  -3   2   5 184.723 57.0583  55
   3  -2  -5 171.438 73.7627  41
   3  -2  -5 176.305 79.9132  35
   3  -2  -4 7014.42 377.822  31
  -3   2   4 6625.65 306.031  55
   3  -2  -4 6435.62 344.569  46
   3  -2  -4 6314.93 364.310  18
   3  -2  -4 6584.24 384.704  35
   3  -2  -3 27509.1 717.853  31
   3  -2  -3 24160.8 928.635   2
   3  -2  -3 26353.9 664.475  46
  -3   2   3 27656.1 601.155  55
   3  -2  -3 25800.6 673.867  18
   3  -2  -3 24365.6 937.336   6
   3  -2  -2 25170.8 647.030  31
   3  -2  -2 23911.4 838.813   2
   3  -2  -2 26330.0 609.144  46
  -3   2   2 24428.3 514.152  51
   3  -2  -2 25603.8 606.998  18
   3  -2  -2 24211.3 848.577   6
  -3   2   2 27481.5 580.057  55
   3  -2  -2 26162.1 605.872  15
  -3   2   1 62449.3 815.426  12
   3  -2  -1 59891.9 923.916  31
   3  -2  -1 58963.0 1216.78   2
   3  -2  -1 59319.6 1215.72   6
   3  -2  -1 62569.4 859.191  15
  -3   2   0 3680.24 191.724  12
  -3   2   0 3973.00 269.463   1
   3  -2   0 3834.98 202.693  15
   3  -2   0 3991.67 207.331  14
  -3   2  -1 1556.16 123.780  12
   3  -2   1 1312.29 116.628  15
   3  -2   1 1435.03 127.063  14
  -3   2  -1 1399.67 145.084   1
  -3   2  -2 115574. 1046.39  12
  -3   2  -2 115650. 1196.82   1
   3  -2   2 113470. 1123.30  13
   3  -2   3 46264.6 773.866  33
   3  -2   3 47955.0 807.526  26
   3  -2   3 45463.9 732.109  14
   3  -2   3 47687.3 788.458  13
   3  -2   4 18141.7 536.424  33
  -3   2  -4 19810.7 441.114  53
   3  -2   4 18499.5 622.850   3
  -3   2  -4 18249.5 415.463  49
  -3   2  -4 18402.9 429.678  42
  -3   2  -4 19157.7 421.088  17
  -3   2  -4 18336.9 411.776  36
   3  -2   4 18442.7 481.810  14
   3  -2   4 18813.9 529.755  13
   3  -2   4 18210.2 549.213  26
   3  -2   5 17949.2 626.102  30
  -3   2  -5 18896.6 440.504  53
   3  -2   5 19313.9 738.451   3
  -3   2  -5 18902.0 450.632  49
   3  -2   5 19160.7 562.573  13
   3  -2   5 17728.2 582.708  33
  -3   2  -5 19262.2 465.355  42
  -3   2  -5 19365.5 449.116  17
   3  -2   5 18760.1 534.134  52
  -3   2  -5 18709.0 448.735  36
  -3   2  -5 19183.1 423.212  34
   3  -2   5 18290.4 492.549  14
   3  -2   6 22593.1 757.314  30
   3  -2   6 22118.5 613.280  52
   3  -2   6 21826.6 668.009  27
   3  -2   6 21975.6 878.265   3
  -3   2  -6 22899.5 527.289  49
  -3   2  -6 22262.1 526.873  42
  -3   2  -6 23248.8 530.217  17
  -3   2  -6 22499.2 484.025  34
   3  -2   6 22645.0 626.098  13
   3  -2   7 32584.5 827.503  27
   3  -2   7 32421.7 760.940  52
  -3   2  -7 32566.9 661.064  49
  -3   2  -7 32860.6 655.222  42
  -3   2  -7 33245.1 664.823  17
  -3   2  -8 37786.0 715.157  49
  -3   2  -8 36906.0 684.265  42
   3  -2   8 37446.6 802.576  52
  -3   2  -8 36810.4 711.127  17
   3  -2   9 19205.5 529.552  52
  -3   2  -9 20074.3 494.202  49
  -3   2  -9 18940.4 446.412  42
   3  -2  10 909.994 98.3456  52
  -3   2 -10 862.104 90.8680  49
  -3   2 -10 809.878 83.7121  39
  -3   1   8 2155.86 130.750  55
   3  -1  -8 2176.58 143.556  34
  -3   1   7 8210.09 308.118  55
  -3   1   7 8156.98 278.565  38
   3  -1  -7 8685.44 350.182  35
  -3   1   6 7374.22 318.493  55
  -3   1   6 7422.63 320.665  44
   3  -1  -6 7455.90 370.259  31
  -3   1   6 7507.55 287.252  38
   3  -1  -6 7605.80 373.979  35
   3  -1  -5 19842.9 633.619  31
  -3   1   5 19447.0 520.146  55
  -3   1   5 20463.0 552.989  44
  -3   1   5 19613.4 462.685  38
   3  -1  -5 19609.7 631.949  35
   3  -1  -4 33117.1 819.359  31
  -3   1   4 32547.5 651.552  55
  -3   1   4 33187.1 689.842  44
   3  -1  -4 31743.1 752.965  46
   3  -1  -4 32317.6 816.827  35
   3  -1  -3 28157.5 727.499  31
  -3   1   3 29134.3 579.095  55
   3  -1  -3 26723.3 657.095  46
   3  -1  -3 26691.2 660.901  18
   3  -1  -3 25926.8 902.674   6
   3  -1  -3 27681.2 715.843  35
   3  -1  -3 25881.1 900.333   2
   3  -1  -2 53120.7 925.679  31
   3  -1  -2 52542.7 1135.49   2
   3  -1  -2 52283.1 818.136  18
   3  -1  -2 52116.8 1135.48   6
  -3   1   2 52476.7 700.980  12
   3  -1  -2 52266.0 830.134  15
  -3   1   1 40691.0 582.785  12
   3  -1  -1 40256.3 891.780   2
   3  -1  -1 40312.6 890.874   6
   3  -1  -1 42229.4 680.233  15
  -3   1   0 76190.4 766.943  12
   3  -1   0 72989.8 1097.95   2
   3  -1   0 72919.7 1096.60   6
   3  -1   0 78234.6 840.134  15
  -3   1  -1 69311.8 707.268  12
   3  -1   1 68962.2 765.685  15
   3  -1   2 1561.98 126.961   3
  -3   1  -2 1218.41 94.2688  12
  -3   1  -2 1470.03 116.299   1
   3  -1   2 1257.65 111.072  14
   3  -1   3 18455.4 507.744   3
  -3   1  -3 19604.5 374.665  12
   3  -1   3 19020.0 433.973  14
   3  -1   4 64393.3 956.862  33
   3  -1   4 67653.5 1163.77   3
   3  -1   4 63932.2 981.148  26
   3  -1   4 64190.1 978.880  30
  -3   1  -4 69221.8 705.329  17
   3  -1   4 68195.0 842.930  14
   3  -1   4 68827.0 974.357  13
   3  -1   5 226244. 1981.48  33
   3  -1   5 235888. 1868.17  52
   3  -1   5 225988. 2080.52  30
   3  -1   5 237692. 2543.21   3
  -3   1  -5 235878. 1506.01  42
  -3   1  -5 238916. 1434.55  17
   3  -1   5 237839. 1910.33  13
   3  -1   6 2710.96 254.979  30
   3  -1   6 2664.10 215.547  52
   3  -1   6 2965.11 321.708   3
  -3   1  -6 2866.18 177.745  42
  -3   1  -6 2993.18 176.826  17
   3  -1   7 1103.87 148.007  52
   3  -1   7 1127.07 217.571   3
  -3   1  -7 1342.90 129.797  42
  -3   1  -7 1106.20 117.316  17
   3  -1   8 25687.8 683.066  52
  -3   1  -8 24921.6 566.401  42
  -3   1  -8 24775.9 571.779  17
   3  -1   9 39345.1 793.402  52
  -3   1  -9 41269.5 729.434  49
  -3   1  -9 39178.9 677.787  42
  -3   1  -9 40271.3 720.402  17
   3  -1  10 34047.6 630.511  52
  -3   1 -10 34553.6 544.058  42
   3   0  -8 14985.4 383.661  34
  -3   0   8 14591.8 336.758  55
  -3   0   8 14740.5 335.772  38
  -3   0   7 22653.6 510.821  55
   3   0  -7 22804.4 545.339  45
  -3   0   7 22019.5 480.810  38
  -3   0   6 6583.07 297.770  55
   3   0  -6 6842.86 346.756  45
   3   0  -6 6922.12 352.661  35
  -3   0   6 6811.68 330.198  44
   3   0  -5 13850.7 536.567  31
  -3   0   5 12896.2 378.624  50
  -3   0   5 13588.2 425.476  55
  -3   0   5 13880.5 479.499  44
   3   0  -5 13532.5 512.602  35
   3   0  -4 40811.6 908.083  31
  -3   0   4 40843.5 705.538  55
  -3   0   4 38747.8 623.947  50
  -3   0   4 41295.0 783.686  44
   3   0  -4 40620.8 881.365  35
   3   0  -3 99928.7 1375.54  31
   3   0  -3 99866.3 1247.12  46
   3   0  -3 98729.1 1308.00  35
  -3   0   2 20237.7 518.758   5
  -3   0   2 20355.5 388.332  12
   3   0  -2 19955.0 574.459  31
   3   0  -2 19182.3 643.918   2
  -3   0   2 20335.1 515.833   4
   3   0  -2 19819.0 486.427  18
   3   0  -2 19328.7 646.916   6
  -3   0   1 1923.35 116.016  12
   3   0  -1 2078.88 184.232   2
  -3   0   1 2178.14 154.553   4
   3   0  -1 1939.95 147.087   3
   3   0  -1 2030.45 133.071  18
   3   0  -1 1976.51 180.546   6
  -3   0   1 2041.14 149.827   5
  -3   0   0 13958.4 291.973  12
  -3   0   0 13960.6 364.775   5
   3   0   0 14882.9 418.073   2
  -3   0   0 14008.0 366.714   4
   3   0   0 14673.4 362.323   3
   3   0   0 14779.9 415.889   6
   3   0   0 15014.0 362.462  15
  -3   0  -1 256208. 1578.85   4
   3   0   1 258270. 1367.66  15
   3   0   1 253785. 1506.15   3
  -3   0  -2 285096. 1228.82  10
   3   0   2 280994. 1727.02   3
  -3   0  -3 7133.71 188.442  10
   3   0   3 7381.42 323.923   3
  -3   0  -3 7283.06 181.664  17
   3   0   3 7016.34 241.456  14
  -3   0  -4 14018.3 404.313   2
   3   0   4 14263.6 530.976   3
  -3   0  -4 14663.8 286.772  17
   3   0   5 52915.2 1203.74   3
  -3   0  -5 51490.7 880.516   2
  -3   0  -5 51521.6 879.981   6
   3   0   5 49799.8 928.050  30
   3   0   6 98032.1 1864.56   3
  -3   0  -6 96377.0 987.560  42
   3   0   6 97476.9 1287.28  52
  -3   0  -6 92243.5 898.536  25
  -3   0  -6 95256.6 1345.83   2
  -3   0  -6 95454.2 1340.39   6
  -3   0  -6 97124.1 1035.71  40
   3   0   7 43015.2 893.997  52
   3   0   7 43692.4 1355.46   3
  -3   0  -7 40812.4 974.639   2
  -3   0  -7 40499.9 968.037   6
  -3   0  -7 40292.1 690.528  42
  -3   0  -7 40415.7 724.185  40
   3   0   8 5982.24 336.275  52
  -3   0  -8 5702.16 270.495  42
  -3   0  -8 5555.34 280.077  40
   3   0   9 6293.52 324.061  52
  -3   0  -9 6102.21 274.649  42
  -3   0  -9 6371.77 297.858  40
  -3   0  -9 6097.52 278.293  17
   3   0  10 34810.6 657.065  52
  -3   0 -10 35049.2 591.597  42
  -3   0 -11 21087.8 400.821  49
   3   1  -8 3934.52 200.127  47
  -3  -1   8 4058.03 182.086  38
   3   1  -8 4075.54 200.015  34
  -3  -1   7 38364.4 647.348  55
   3   1  -7 39165.3 726.253  45
  -3  -1   7 39598.5 756.745  44
  -3  -1   7 38669.8 651.632  38
   3   1  -7 39861.6 763.436  34
  -3  -1   6 22169.1 516.428  50
  -3  -1   6 22203.4 532.041  55
   3   1  -6 22921.0 628.193  45
  -3  -1   6 23411.7 629.920  44
  -3  -1   5 12658.2 401.560  55
  -3  -1   5 12539.2 384.566  50
   3   1  -5 12995.6 492.196  45
  -3  -1   5 12889.0 473.797  44
   3   1  -5 13039.1 484.743  35
  -3  -1   4 6285.96 242.723  28
  -3  -1   4 6594.32 382.052   4
  -3  -1   4 6601.47 263.289  50
  -3  -1   4 7024.72 333.657  44
   3   1  -4 7132.60 355.232  35
  -3  -1   4 6509.39 380.418   5
  -3  -1   3 6936.56 363.906   5
   3   1  -3 7027.46 367.945  31
  -3  -1   3 7132.58 368.622   4
  -3  -1   3 7252.61 255.401  50
  -3  -1   3 6983.01 246.120  28
  -3  -1   3 7207.42 258.419  57
   3   1  -3 8137.60 362.022  35
  -3  -1   2 201707. 1095.32  12
  -3  -1   2 201347. 1802.73   4
  -3  -1   2 201901. 1804.20   5
  -3  -1   1 43957.7 787.240   5
  -3  -1   1 43226.3 488.647  12
  -3  -1   1 44414.3 793.037   4
  -3  -1   1 44578.1 476.431   8
   3   1  -1 44628.3 779.788   3
  -3  -1   0 7192.53 193.452  12
  -3  -1   0 6771.27 173.683   8
  -3  -1   0 6973.44 300.138   4
  -3  -1   0 6981.92 301.375   5
   3   1   0 7138.84 284.938   3
  -3  -1  -1 72648.5 636.337  10
   3   1   1 72284.9 619.543   2
   3   1   1 72556.7 619.264   6
   3   1   1 74284.3 885.573   3
   3   1   2 103961. 1106.21   3
  -3  -1  -2 98536.5 736.261  10
  -3  -1  -3 71092.8 640.378  10
  -3  -1  -3 72421.2 709.345   2
   3   1   4 13324.2 523.929   3
  -3  -1  -4 13366.1 285.611  10
  -3  -1  -4 13445.7 363.913   2
  -3  -1  -4 13473.9 362.627   6
  -3  -1  -5 22627.7 407.333  32
   3   1   5 23260.4 806.958   3
  -3  -1  -5 23558.7 557.225   2
  -3  -1  -5 22856.1 404.069  23
  -3  -1  -5 23289.4 553.028   6
   3   1   6 63201.2 1516.36   3
  -3  -1  -6 61082.7 772.064  51
  -3  -1  -6 62860.0 1037.95   2
  -3  -1  -6 61404.1 723.662  25
  -3  -1  -6 62114.2 1029.75   6
  -3  -1  -6 63244.4 800.944  42
  -3  -1  -6 63727.8 824.862  40
   3   1   7 50506.1 969.987  52
  -3  -1  -7 46856.0 711.773  51
  -3  -1  -7 48563.4 721.115  25
  -3  -1  -7 48356.4 743.245  47
  -3  -1  -7 48655.1 1022.37   2
  -3  -1  -7 49021.6 1022.25   6
  -3  -1  -7 50115.1 771.258  42
   3   1   7 50554.8 1497.01   3
  -3  -1  -7 48713.5 788.304  40
   3   1   8 28781.1 734.978  52
  -3  -1  -8 26619.5 585.818  47
  -3  -1  -8 27590.1 600.501  42
  -3  -1  -8 27741.2 626.520  40
   3   1   9 1419.19 155.803  52
  -3  -1  -9 1437.64 138.006  42
  -3  -1  -9 1500.05 149.025  40
  -3  -1 -10 864.108 97.7719  42
  -3  -1 -10 871.083 106.362  40
  -3  -1 -11 4779.93 183.056  42
   3   2  -8 2811.59 155.156  47
  -3  -2   8 3369.25 164.740  38
   3   2  -8 3113.35 171.057  34
  -3  -2   7 4408.25 206.965  55
   3   2  -7 4530.26 252.819  47
   3   2  -7 4532.36 244.923  45
  -3  -2   7 4586.54 261.699  44
   3   2  -7 4520.36 252.060  34
  -3  -2   6 24116.6 545.981  50
  -3  -2   6 23628.8 532.995  55
   3   2  -6 24026.9 635.741  45
  -3  -2   6 24773.6 660.217  44
   3   2  -6 24122.2 664.771  16
   3   2  -6 24400.1 646.417  34
  -3  -2   5 30348.0 568.842  28
  -3  -2   5 31633.8 623.424  50
  -3  -2   5 31927.8 625.527  55
   3   2  -5 31460.7 756.167  45
  -3  -2   5 32542.0 765.380  44
  -3  -2   4 8980.01 478.841   5
  -3  -2   4 8847.26 304.509  28
  -3  -2   4 9190.85 324.285  50
  -3  -2   4 8611.27 465.280   4
   3   2  -4 9320.15 405.600  45
  -3  -2   4 9538.90 394.480  44
   3   2  -4 9219.49 387.411  35
  -3  -2   4 8591.87 301.189  57
  -3  -2   3 8009.61 419.808   5
  -3  -2   3 7861.26 273.905  28
  -3  -2   3 8184.28 276.471  57
  -3  -2   3 8050.05 282.590  50
  -3  -2   3 7907.11 417.459   4
  -3  -2   3 7986.93 263.286  19
   3   2  -3 8024.60 344.427  35
  -3  -2   2 104955. 1434.88   5
  -3  -2   2 108280. 940.835  28
  -3  -2   2 108379. 932.705   8
  -3  -2   2 106207. 1443.01   4
  -3  -2   2 105732. 899.399  19
   3   2  -2 108488. 1527.43   3
  -3  -2   2 109587. 973.579  29
  -3  -2   1 29210.4 708.625   5
  -3  -2   1 29623.8 370.684  12
  -3  -2   1 29429.0 452.426   8
  -3  -2   1 29921.6 720.146   4
   3   2  -1 29441.8 703.887   3
  -3  -2   0 19727.9 565.345   5
  -3  -2   0 19183.3 347.527  10
  -3  -2   0 19566.4 560.444   4
   3   2   0 18792.3 511.086   3
  -3  -2  -1 61491.4 619.058  10
   3   2   1 62195.8 886.555   3
  -3  -2  -2 29724.5 439.135  10
   3   2   2 30616.5 637.815   3
   3   2   3 10663.3 415.923   3
  -3  -2  -3 10186.6 267.429  10
  -3  -2  -3 10448.7 232.338   2
  -3  -2  -3 10836.0 237.302   6
   3   2   4 111954. 1552.95   3
  -3  -2  -4 109104. 977.246   2
  -3  -2  -4 109830. 979.335   6
   3   2   5 38972.7 1062.81   3
  -3  -2  -5 39478.9 517.958  23
  -3  -2  -5 39006.1 585.246  10
  -3  -2  -5 40433.4 709.575   2
  -3  -2  -5 39800.5 534.043  32
  -3  -2  -5 40683.9 712.917   6
   3   2   6 2713.05 323.883   3
  -3  -2  -6 2719.18 155.136  32
  -3  -2  -6 2741.10 163.221  10
  -3  -2  -6 2547.57 142.127  23
  -3  -2  -6 2548.06 205.695   2
  -3  -2  -6 2817.58 178.731  42
  -3  -2  -6 2694.75 212.508   6
   3   2   7 3188.60 246.125  52
  -3  -2  -7 3050.58 183.290  25
   3   2   7 3165.75 385.349   3
  -3  -2  -7 3254.18 260.564   2
  -3  -2  -7 3071.43 175.577  20
  -3  -2  -7 3434.90 210.818  42
  -3  -2  -7 3163.19 258.296   6
  -3  -2  -7 3295.24 207.959  40
   3   2   7 3215.29 235.003  38
   3   2   8 4183.98 277.584  52
  -3  -2  -8 3602.63 210.486  51
  -3  -2  -8 3708.50 217.697  25
  -3  -2  -8 3698.70 208.291  47
  -3  -2  -8 3580.93 204.800  20
  -3  -2  -8 3812.43 229.604  42
  -3  -2  -8 3700.64 231.516  40
   3   2   8 3764.08 267.100  38
  -3  -2  -9 28318.7 578.042  47
  -3  -2  -9 26490.4 560.344  20
  -3  -2  -9 28641.6 619.410  42
  -3  -2  -9 28248.2 640.768  40
   3   2   9 28263.0 712.583  38
  -3  -2 -10 29380.2 571.758  42
  -3  -2 -10 29548.6 608.917  40
   3   2  10 28701.8 639.366  38
  -3  -2 -11 2385.64 133.461  42
  -3  -2 -11 2556.67 150.153  40
  -3  -3   8 4649.83 182.996  38
   3   3  -8 4336.64 187.057  34
  -3  -3   7 1378.09 120.695  50
   3   3  -7 1277.87 127.412  45
   3   3  -7 1301.50 129.864  34
  -3  -3   6 67.5535 40.2262  50
   3   3  -6 14.8574 30.8533  34
   3   3  -6 140.669 55.5317  45
  -3  -3   6 40.9046 45.1860  44
   3   3  -6 30.4332 32.6905  16
  -3  -3   5 23637.6 529.400  28
   3   3  -5 23203.5 643.887  45
  -3  -3   5 24372.1 666.297  44
  -3  -3   5 23931.2 552.794  50
   3   3  -5 24215.9 667.800  16
  -3  -3   5 24443.0 531.781  55
   3   3  -5 23508.3 639.159  34
  -3  -3   4 12368.7 588.123   5
  -3  -3   4 12471.0 406.054  29
  -3  -3   4 12215.3 378.125  28
  -3  -3   4 11885.6 351.670  57
  -3  -3   4 12157.1 387.061  50
   3   3  -4 11872.9 456.326  45
  -3  -3   4 12215.1 584.162   4
  -3  -3   4 12391.7 463.314  44
   3   3  -4 12733.7 476.050  16
   3   3  -4 12313.6 456.942  34
  -3  -3   3 33495.4 605.461  50
  -3  -3   3 33937.6 927.570   5
   3   3  -3 33253.6 727.167  34
  -3  -3   3 33199.8 565.093  57
  -3  -3   3 33189.1 917.660   4
   3   3  -3 33515.2 727.564  45
  -3  -3   3 34723.3 715.494  44
  -3  -3   3 35061.6 639.454  29
  -3  -3   3 33908.9 596.611  19
  -3  -3   3 32987.2 598.051  28
  -3  -3   2 12105.8 528.555   5
  -3  -3   2 12105.4 346.095   8
  -3  -3   2 12005.7 521.894   4
  -3  -3   2 11968.4 341.178  19
   3   3  -2 12394.2 562.265   3
  -3  -3   2 12486.3 354.448  29
  -3  -3   1 15949.9 576.510   5
  -3  -3   1 16036.2 341.300  10
  -3  -3   1 15651.6 378.568   8
  -3  -3   1 15481.7 563.654   4
   3   3  -1 15693.1 562.671   3
  -3  -3   0 18892.6 607.647   5
  -3  -3   0 18958.8 370.831  10
  -3  -3   0 18439.9 601.946   4
   3   3   0 18668.3 563.163   3
  -3  -3  -1 60745.8 666.691  10
  -3  -3  -1 59453.1 1064.14   4
   3   3   1 59656.2 958.762   3
  -3  -3  -2 82265.6 793.435  10
   3   3   2 83169.6 1129.70   3
  -3  -3  -3 13507.6 347.135  11
  -3  -3  -3 13279.8 338.578  10
   3   3   3 14320.4 502.003   3
   3   3   4 37646.8 916.686   3
  -3  -3  -4 35436.6 605.774  11
  -3  -3  -4 36668.4 592.582   2
  -3  -3  -4 36801.6 597.645   6
  -3  -3  -5 729.765 97.5232  11
  -3  -3  -5 1037.74 85.5305  23
  -3  -3  -5 798.430 73.6590  22
   3   3   5 758.343 156.942   3
  -3  -3  -5 717.102 101.146   2
  -3  -3  -5 747.441 104.661   6
  -3  -3  -5 753.247 76.3950  32
  -3  -3  -6 151227. 1148.32  32
  -3  -3  -6 151718. 1437.70  11
   3   3   6 150585. 1392.29  48
  -3  -3  -6 149643. 1066.37  23
  -3  -3  -6 154636. 1661.77   2
  -3  -3  -6 155078. 1672.24   6
   3   3   6 149601. 1561.04  38
   3   3   6 148829. 1712.39  52
  -3  -3  -7 38205.7 648.019  25
   3   3   7 40138.1 737.155  48
  -3  -3  -7 38602.4 624.406  32
  -3  -3  -7 39102.8 922.564   2
  -3  -3  -7 40395.4 772.755  11
  -3  -3  -7 39253.0 738.415  42
  -3  -3  -7 39085.0 924.261   6
  -3  -3  -7 39437.5 650.045  41
   3   3   7 40055.0 895.689  38
  -3  -3  -8 982.234 114.411  25
  -3  -3  -8 534.365 84.1463  20
  -3  -3  -8 642.653 101.560  42
  -3  -3  -8 613.668 88.7648  41
   3   3   8 933.004 151.101  38
  -3  -3  -9 584.780 87.2600  51
  -3  -3  -9 572.675 90.6369  25
  -3  -3  -9 632.668 92.3927  20
  -3  -3  -9 657.511 100.868  42
  -3  -3  -9 663.385 103.042  40
   3   3   9 716.827 128.812  38
  -3  -3 -10 49171.2 745.319  42
  -3  -3 -10 49477.7 779.273  40
   3   3  10 48810.8 878.731  38
  -3  -3 -11 15520.3 339.361  42
   3   3  11 14823.4 372.722  38
  -3  -4   7 16500.5 385.878  50
   3   4  -7 15569.6 414.952  45
   3   4  -7 15600.8 420.196  34
   3   4  -6 20889.6 564.602  34
  -3  -4   6 20481.9 470.244  28
  -3  -4   6 21879.4 507.438  50
   3   4  -6 21130.7 568.043  45
  -3  -4   6 21463.5 587.419  44
   3   4  -6 21194.3 589.205  16
  -3  -4   5 2083.51 165.800  50
  -3  -4   5 1884.48 156.308  28
   3   4  -5 1823.37 178.617  34
   3   4  -5 1815.14 181.404  45
  -3  -4   5 1871.60 184.218  44
   3   4  -5 2043.51 194.458  16
  -3  -4   4 762.030 103.517  50
  -3  -4   4 762.018 105.039  28
   3   4  -4 734.465 116.602  45
  -3  -4   4 881.517 126.072  44
  -3  -4   4 907.226 114.385  19
  -3  -4   4 1005.80 123.822  29
   3   4  -4 790.992 124.617  16
  -3  -4   4 872.846 94.6822  57
   3   4  -3 37763.9 705.433  53
  -3  -4   3 40210.3 1074.61   5
  -3  -4   3 39075.1 693.364  50
  -3  -4   3 39900.0 1071.75   4
   3   4  -3 39455.6 803.480  45
  -3  -4   3 40119.2 797.102  44
  -3  -4   3 39738.2 707.624  19
   3   4  -3 40517.8 825.243  16
  -3  -4   3 40143.9 728.266  29
  -3  -4   3 38370.5 623.042  57
   3   4  -3 40263.1 860.666  34
  -3  -4   2 53207.7 1181.49   5
  -3  -4   2 53221.3 805.563   8
   3   4  -2 54683.4 893.106  45
  -3  -4   2 53824.5 721.197  57
  -3  -4   2 53653.7 1186.81   4
  -3  -4   2 54640.7 803.037  19
   3   4  -2 54905.3 903.902  16
  -3  -4   2 54882.4 809.104  29
   3   4  -2 53484.3 810.518  56
  -3  -4   1 45505.9 1049.63   5
  -3  -4   1 46401.5 685.244  29
  -3  -4   1 47020.0 603.772  10
  -3  -4   1 45686.0 722.355   8
  -3  -4   1 45905.3 1057.50   4
   3   4  -1 45388.3 1052.30   3
   3   4  -1 46044.5 734.181  16
  -3  -4   0 17666.0 642.259   5
  -3  -4   0 18050.5 384.573  10
  -3  -4   0 17898.6 647.687   4
   3   4   0 17663.2 605.985   3
   3   4   0 17309.1 380.131  16
  -3  -4  -1 11006.2 497.904   5
  -3  -4  -1 12339.9 323.240  10
  -3  -4  -1 11477.1 513.347   4
   3   4   1 11565.4 467.738   3
  -3  -4  -2 163787. 1189.06  11
  -3  -4  -2 165118. 1237.87  10
   3   4   2 161975. 1723.87   3
  -3  -4  -3 134891. 1185.35  11
  -3  -4  -3 134419. 1166.12  10
  -3  -4  -3 138437. 1003.36   9
   3   4   3 138204. 1647.56   3
  -3  -4  -4 44191.4 730.979  11
  -3  -4  -4 45177.1 664.671   9
   3   4   4 46476.7 1038.86   3
   3   4   5 8910.20 328.285  48
  -3  -4  -5 8760.08 351.712  11
  -3  -4  -5 9154.68 334.120   9
  -3  -4  -5 9256.95 261.981  23
  -3  -4  -5 8827.18 245.749  22
   3   4   5 9198.87 365.033  38
   3   4   5 9223.68 522.106   3
  -3  -4  -6 53580.4 699.801  32
  -3  -4  -6 52895.3 909.558  11
   3   4   6 52152.0 835.351  48
  -3  -4  -6 53394.0 642.891  23
   3   4   6 53953.0 1011.95  38
  -3  -4  -7 70934.9 1092.62  11
  -3  -4  -7 73512.6 909.037  25
   3   4   7 71275.6 1004.18  48
  -3  -4  -7 71146.0 849.981  32
   3   4   7 73362.4 1299.45  38
   3   4   8 48059.0 813.316  48
  -3  -4  -8 49145.6 792.600  25
  -3  -4  -8 47977.6 769.856  20
  -3  -4  -8 48244.8 867.962  42
  -3  -4  -8 49367.8 763.430  41
   3   4   8 49327.5 1100.57  38
  -3  -4  -9 26367.7 575.520  25
  -3  -4  -9 25308.5 562.868  20
  -3  -4  -9 25566.2 598.696  42
  -3  -4  -9 24630.0 586.739  40
   3   4   9 25540.0 751.980  38
  -3  -4 -10 6016.21 256.443  42
  -3  -4 -10 5810.63 257.893  40
   3   4  10 6047.96 315.228  38
  -3  -4 -11 4711.35 180.382  42
  -3  -4 -11 4859.50 191.883  40
   3   4  11 4701.26 209.279  38
   3   5  -7 2384.21 146.488  45
   3   5  -7 2417.68 147.523  34
  -3  -5   6 16028.5 403.568  28
  -3  -5   6 17268.6 422.906  50
   3   5  -6 16616.1 473.648  45
   3   5  -6 16345.4 471.470  34
  -3  -5   5 71507.5 1008.85  29
  -3  -5   5 71070.8 959.196  28
  -3  -5   5 73686.5 964.566  50
   3   5  -5 71353.1 1090.44  45
  -3  -5   5 72237.3 1078.40  44
   3   5  -5 71427.0 1120.18  16
  -3  -5   4 151.552 55.7087  29
  -3  -5   4 420.214 78.5005  50
   3   5  -4 9.31672 44.4113  45
  -3  -5   4 79.5993 45.1407  44
  -3  -5   4 163.392 55.0675  19
   3   5  -4 356.428 85.1424  16
   3   5  -4 65.2130 47.0893  34
   3   5  -3 43508.5 808.789  53
  -3  -5   3 45708.5 779.319  50
  -3  -5   3 47018.9 840.863  29
   3   5  -3 45189.8 883.438  45
  -3  -5   3 46374.1 869.936  44
  -3  -5   3 45912.1 810.290  19
   3   5  -3 45919.7 902.250  16
  -3  -5   2 47593.2 805.402  29
  -3  -5   2 47358.2 701.635  57
  -3  -5   2 47594.0 1201.54   5
  -3  -5   2 47026.9 1177.60   4
  -3  -5   2 48228.6 836.004   8
   3   5  -2 47343.4 858.064  45
   3   5  -2 44419.5 814.362  53
  -3  -5   2 48178.2 819.296  19
   3   5  -2 49314.6 884.882  16
   3   5  -2 47527.2 815.489  56
   3   5  -1 145382. 1278.73  56
  -3  -5   1 145581. 2023.05   5
   3   5  -1 146767. 1316.99  24
   3   5  -1 143213. 1374.79  45
  -3  -5   1 144861. 1407.65   8
  -3  -5   1 147508. 2042.11   4
   3   5  -1 146179. 2099.92   3
   3   5  -1 143691. 1332.20  16
  -3  -5   0 68019.2 1366.39   5
   3   5   0 68124.7 904.379  24
  -3  -5   0 71353.8 814.031  10
  -3  -5   0 66841.3 934.026   8
  -3  -5   0 67222.0 1351.06   4
   3   5   0 68034.2 1312.59   3
   3   5   0 69506.1 948.403  37
  -3  -5  -1 28099.9 533.505  10
  -3  -5  -1 27119.0 847.516   5
   3   5   1 27741.7 585.081  24
  -3  -5  -1 27044.9 850.234   4
   3   5   1 26936.4 784.055   3
  -3  -5  -2 334.186 61.2376  11
   3   5   2 282.637 85.5219   3
  -3  -5  -2 388.630 68.9352  10
  -3  -5  -2 534.835 126.703   4
  -3  -5  -3 102084. 1105.91  11
  -3  -5  -3 100963. 1100.38  10
   3   5   3 97475.8 1106.55  24
   3   5   3 100260. 1500.31   3
   3   5   4 52211.3 823.224  52
  -3  -5  -4 50642.5 852.020  11
  -3  -5  -4 50753.7 758.616   9
   3   5   4 49874.9 781.809  24
   3   5   4 50435.3 786.519  48
   3   5   4 53363.2 845.395  38
   3   5   4 51059.9 799.435  37
   3   5   4 50112.9 1116.64   3
   3   5   5 100304. 1198.88  52
  -3  -5  -5 99096.6 1164.98   9
  -3  -5  -5 100807. 902.236  23
  -3  -5  -5 98307.2 1262.50  11
   3   5   5 100083. 1301.69  38
   3   5   5 94854.7 1136.39  48
   3   5   5 93737.6 1669.64   3
  -3  -5  -6 18083.8 567.185  11
  -3  -5  -6 18959.6 551.517   9
   3   5   6 18041.8 510.414  48
  -3  -5  -6 19505.8 430.266  32
   3   5   6 18576.2 632.724  38
  -3  -5  -7 15906.2 546.813  11
  -3  -5  -7 16845.6 446.633  25
   3   5   7 15648.7 480.540  48
  -3  -5  -7 16335.4 400.868  32
   3   5   7 15698.6 629.831  38
   3   5   8 33961.7 687.639  48
  -3  -5  -8 33286.4 775.676  11
  -3  -5  -8 35223.7 662.125  25
  -3  -5  -8 34978.5 668.433  20
  -3  -5  -8 34195.8 733.110  42
   3   5   8 32999.3 923.927  38
  -3  -5  -9 19134.5 474.287  25
  -3  -5  -9 19079.7 477.386  20
  -3  -5  -9 19545.7 517.265  42
  -3  -5  -9 19562.3 438.934  41
   3   5   9 19971.1 666.300  38
  -3  -5 -10 26821.4 505.077  20
  -3  -5 -10 27469.8 521.038  42
  -3  -5 -10 27708.3 518.341  40
   3   5  10 28579.9 658.373  38
  -3  -6   6 703.109 79.3243  28
  -3  -6   6 777.835 79.0233  50
   3   6  -6 761.515 93.0487  45
   3   6  -6 709.685 87.7487  34
  -3  -6   5 30291.2 619.411  29
  -3  -6   5 28952.7 587.119  28
  -3  -6   5 30682.6 574.089  50
   3   6  -5 29666.2 660.767  45
  -3  -6   4 19843.1 544.043  29
  -3  -6   4 20068.2 506.286  50
   3   6  -4 19277.1 576.237  45
  -3  -6   4 20262.3 544.621  19
  -3  -6   3 130379. 1432.42  29
  -3  -6   3 127350. 1331.62  50
   3   6  -3 130590. 1529.69  45
   3   6  -3 126611. 1457.03  53
  -3  -6   3 129248. 1410.78  19
  -3  -6   2 3998.22 247.010  29
   3   6  -2 3703.50 254.140  53
  -3  -6   2 3919.59 254.126   8
   3   6  -2 4035.60 262.945  45
  -3  -6   2 3948.45 252.416  19
   3   6  -2 3628.81 243.129  56
   3   6  -1 4345.18 244.029  56
   3   6  -1 3305.40 237.236  53
   3   6  -1 3525.64 218.964  24
  -3  -6   1 3185.67 319.300   5
   3   6  -1 3535.61 227.416  45
  -3  -6   1 3636.03 242.445   8
  -3  -6   1 3476.18 333.825   4
   3   6  -1 3396.97 234.744  21
  -3  -6   0 24147.0 867.476   5
   3   6   0 25085.6 599.124  24
   3   6   0 24855.6 626.428  53
   3   6   0 23330.3 525.922  45
   3   6   0 24039.5 631.225  21
  -3  -6   0 24243.9 616.726   8
  -3  -6   0 23821.6 853.782   4
   3   6   0 25056.4 885.665   3
  -3  -6  -1 97940.4 1057.06  10
   3   6   1 95310.9 1203.66  24
   3   6   1 93728.9 1243.15  21
  -3  -6  -1 90026.4 1656.33   4
  -3  -6  -1 89964.3 1666.04   5
   3   6   1 94610.3 1618.23   3
   3   6   1 98672.3 1207.16  37
   3   6   1 93879.0 1178.08  53
  -3  -6  -2 29400.0 613.709  10
   3   6   2 30373.8 661.867  52
  -3  -6  -2 30445.8 591.277  11
  -3  -6  -2 25998.0 892.758   5
   3   6   2 28824.6 664.607  24
   3   6   2 28311.5 682.229  21
   3   6   2 28314.1 628.486  53
  -3  -6  -2 26340.3 905.272   4
   3   6   2 29077.7 558.613  48
   3   6   2 29102.2 870.670   3
   3   6   2 29557.6 648.028  37
   3   6   3 24480.4 610.261  24
   3   6   3 23925.4 554.288  53
   3   6   3 25286.6 601.720  52
  -3  -6  -3 25809.4 599.096  11
  -3  -6  -3 25740.6 601.901  10
   3   6   3 25100.8 564.967  48
   3   6   3 24810.4 635.989  21
   3   6   3 24979.8 797.733   3
   3   6   3 25586.1 594.667  37
   3   6   4 32463.8 683.401  52
  -3  -6  -4 33017.2 734.432  11
   3   6   4 30928.0 672.459  24
   3   6   4 32092.5 679.923  48
   3   6   4 31589.1 709.502  21
   3   6   4 32397.8 663.478  37
  -3  -6  -5 30975.4 689.686   9
   3   6   5 29110.7 676.088  48
   3   6   5 30540.4 684.510  21
  -3  -6  -5 30487.0 747.870  11
  -3  -6  -6 32623.0 558.786  32
  -3  -6  -6 31910.7 787.930  11
  -3  -6  -6 31310.6 730.435   9
   3   6   6 30842.7 704.356  48
  -3  -6  -7 17072.0 581.382  11
  -3  -6  -7 17187.8 451.201  25
   3   6   7 16508.3 503.405  48
  -3  -6  -8 3596.48 205.826  25
   3   6   8 3284.02 210.981  48
  -3  -6  -8 3676.55 211.633  20
  -3  -6  -8 3305.61 224.051  42
   3   6   8 2908.72 271.525  38
  -3  -6  -9 694.387 85.3386  25
   3   6   9 725.654 88.6043  48
  -3  -6  -9 757.845 93.7024  20
  -3  -6  -9 611.786 90.3688  42
  -3  -6  -9 766.626 92.3191  40
   3   6   9 715.855 124.210  38
  -3  -6 -10 12891.9 322.621  42
  -3  -6 -10 12221.7 296.977  40
   3   6  10 13031.4 399.939  38
  -3  -7   5 52.8595 29.9966  29
  -3  -7   5 134.230 40.7355  28
  -3  -7   5 64.5756 27.1017  50
   3   7  -5 98.3446 39.6684  45
  -3  -7   4 8164.19 324.437  29
  -3  -7   4 8078.52 315.491  28
  -3  -7   4 7992.91 291.952  50
   3   7  -4 7772.74 341.531  45
   3   7  -4 7925.45 331.465  53
   3   7  -3 5742.11 312.248  53
  -3  -7   3 5730.41 293.106  29
  -3  -7   3 5699.28 268.763  50
   3   7  -3 5960.40 321.356  45
  -3  -7   3 5816.88 295.519  19
   3   7  -2 29668.8 732.916  53
  -3  -7   2 29118.8 664.503  29
  -3  -7   2 30271.4 719.520   8
   3   7  -2 30445.8 729.085  45
  -3  -7   2 29433.5 687.022  19
   3   7  -2 29610.6 706.282  56
   3   7  -1 32572.3 691.676  24
   3   7  -1 30691.1 683.237  45
  -3  -7   1 30649.4 729.792   8
   3   7  -1 30251.8 735.480  21
  -3  -7   1 31153.2 720.532  19
   3   7  -1 30466.1 749.552  53
   3   7  -1 32631.8 704.171  56
   3   7   0 590.492 109.797  53
   3   7   0 693.646 114.766  24
  -3  -7   0 781.289 120.613   8
   3   7   0 629.043 97.6186  56
   3   7   1 6316.92 331.600  53
   3   7   1 6001.90 342.009  21
  -3  -7  -1 5654.17 316.193   8
   3   7   1 6586.70 349.876  24
   3   7   2 14916.2 488.164  53
  -3  -7  -2 14760.0 454.734  10
   3   7   2 15588.8 543.410  24
   3   7   2 15677.0 544.917  21
   3   7   3 96812.3 1188.97  53
  -3  -7  -3 99021.6 1247.09  10
   3   7   3 97544.7 1343.13  24
   3   7   3 100286. 1223.98  48
   3   7   3 99099.3 1349.19  21
   3   7   3 102210. 1266.76  37
  -3  -7  -3 100567. 1233.80  11
  -3  -7  -4 5882.79 323.963  11
  -3  -7  -4 5867.74 321.307  10
   3   7   4 5737.60 315.992  24
   3   7   4 6232.70 323.638  48
   3   7   4 6086.93 329.118  21
  -3  -7  -5 53107.8 1011.45  11
   3   7   5 53492.1 970.819  48
   3   7   5 54037.2 943.562  21
   3   7   6 7674.40 364.099  48
  -3  -7  -6 7518.73 389.016  11
  -3  -7  -7 36322.6 629.765  25
   3   7   7 36538.2 747.242  48
  -3  -7  -8 15160.7 385.728  25
   3   7   8 16347.3 448.029  48
  -3  -7  -8 16407.7 418.243  20
  -3  -7  -8 15574.5 444.052  42
   3   7   9 16097.5 369.926  48
  -3  -7  -9 16508.2 377.472  20
  -3  -7  -9 16398.7 387.490  42
   3   8  -4 5830.86 248.414  53
  -3  -8   4 5727.69 230.986  29
  -3  -8   4 5987.22 235.491  28
   3   8  -3 2527.61 196.260  53
  -3  -8   3 2500.69 173.077  29
   3   8  -3 2436.34 191.514  45
   3   8  -2 3074.41 233.168  53
  -3  -8   2 3058.33 202.346  29
  -3  -8   2 2732.69 177.481  50
   3   8  -2 3155.78 227.980  45
  -3  -8   2 2963.12 208.431  19
  -3  -8   1 32032.8 659.234  29
   3   8  -1 31636.2 744.008  21
   3   8  -1 32520.5 777.808  53
  -3  -8   1 30829.0 700.267  19
   3   8  -1 31767.9 704.422  56
   3   8   0 17978.5 516.014  56
   3   8   0 18478.4 587.168  53
   3   8   0 19361.9 591.362  24
   3   8   0 18424.7 599.186  21
   3   8   1 14225.8 447.580  56
   3   8   1 14311.4 509.091  53
   3   8   1 14570.1 538.108  21
   3   8   1 15519.0 565.279  24
   3   8   2 3904.42 258.702  53
   3   8   2 4211.14 304.840  24
  -3  -8  -2 3238.42 245.771   8
   3   8   2 3993.92 287.228  21
   3   8   3 14039.5 458.264  53
  -3  -8  -3 13511.5 457.985  10
   3   8   3 15183.9 562.337  24
   3   8   3 14872.1 483.340  48
   3   8   3 15085.6 544.828  21
  -3  -8  -4 20177.3 594.220  10
   3   8   4 22672.8 652.504  24
   3   8   4 22220.0 623.718  48
   3   8   4 21866.7 631.740  21
   3   8   5 59704.4 1030.80  48
   3   8   5 60442.1 990.927  21
  -3  -8  -6 4436.86 205.655  25
   3   8   6 5581.76 303.438  48
   3   8   7 2301.43 179.279  48
  -3  -8  -7 2115.62 145.776  20
   3   8   8 4304.46 208.198  48
  -3  -8  -8 4156.99 184.079  20
  -3  -8  -8 3978.88 187.335  42
   3   9  -3 20740.1 462.206  53
   3   9  -2 12093.6 408.543  53
  -3  -9   2 11334.3 320.687  28
   3   9  -1 4908.50 280.380  53
  -3  -9   1 4698.40 213.770  28
   3   9  -1 4572.83 256.435  21
   3   9   0 9393.26 401.345  21
   3   9   0 9479.16 399.682  53
   3   9   0 8983.76 348.476  56
   3   9   1 39336.4 873.002  24
   3   9   1 38509.7 840.221  21
   3   9   1 36915.4 784.899  53
   3   9   2 30485.8 625.703  56
   3   9   2 30297.1 684.182  53
   3   9   2 34251.3 843.949  24
   3   9   2 32851.8 784.864  21
   3   9   3 2031.86 205.445  24
   3   9   3 2099.56 197.099  21
   3   9   4 8286.00 354.721  48
   3   9   4 8828.12 380.642  21
   3   9   5 16340.2 497.850  48
   3   9   5 17037.2 477.532  21
   3   9   6 27517.0 604.468  48
   3   9   7 12631.1 356.238  48
   3  10  -1 11800.8 355.734  53
   3  10   0 110.250 42.9356  53
   3  10   1 9454.29 344.047  53
   3  10   1 10494.3 381.910  21
   3  10   2 18253.0 514.884  21
   3  10   3 46436.9 797.700  21
   4  -7   1 11902.0 417.038  46
   4  -7   2 3201.74 221.125  46
   4  -6  -3 23630.5 555.368  35
   4  -6  -2 1975.75 187.921  33
   4  -6  -2 1682.73 156.239  46
   4  -6  -2 1601.77 167.224  35
   4  -6  -1 7016.26 375.330  33
   4  -6  -1 6276.91 320.958  46
   4  -6   0 32.4703 58.1408  33
   4  -6   0 44.0830 55.2767  26
   4  -6   0 21.6151 46.4683  46
   4  -6   1 30079.3 798.840  33
   4  -6   1 30997.9 832.074  26
   4  -6   2 33494.6 842.866  33
   4  -6   2 35622.3 899.043  26
  -4   6  -2 33750.4 580.114  53
   4  -6   3 5090.33 326.551  33
   4  -6   3 5595.12 371.081  30
   4  -6   3 5181.56 342.233  26
  -4   6  -3 5744.87 241.623  53
  -4   6  -3 5089.53 229.197  58
   4  -6   4 5651.69 368.396  30
   4  -6   4 5828.51 331.169  33
  -4   6  -4 5578.76 229.292  53
  -4   6  -4 5531.30 243.246  42
  -4   6  -4 5465.82 228.719  58
   4  -6   5 5010.06 332.279  30
  -4   6  -5 4640.08 202.819  42
  -4   6  -5 4532.93 195.362  58
  -4   6  -6 6120.93 202.309  58
   4  -5  -4 11787.0 401.226  35
   4  -5  -3 3276.99 225.515  46
   4  -5  -3 2946.08 234.210  35
   4  -5  -2 22551.9 631.422  46
   4  -5  -1 35905.1 823.901  46
   4  -5  -1 34434.1 846.681  18
   4  -5  -1 35294.3 826.379  15
   4  -5   0 21748.8 705.521  33
   4  -5   0 19380.3 622.042  15
   4  -5   1 101.792 70.6880  33
  -4   5  -1-1.56805 25.9529  53
   4  -5   1 2.73329 44.2556  15
   4  -5   2 3327.17 280.609  33
  -4   5  -2 3561.24 213.089  53
   4  -5   2 3539.87 295.891  26
  -4   5  -2 3276.44 217.922  42
   4  -5   2 3157.77 258.919  15
  -4   5  -2 3417.37 211.358  58
   4  -5   3 33724.9 883.557  33
  -4   5  -3 36115.6 675.971  53
   4  -5   3 34636.8 922.277  26
  -4   5  -3 34007.3 690.916  42
   4  -5   3 33720.4 854.655  15
   4  -5   3 36785.5 891.069  14
  -4   5  -3 34101.3 655.163  58
  -4   5  -4 33006.5 633.810  53
   4  -5   4 32842.8 931.415  30
   4  -5   4 31578.0 855.973  33
   4  -5   4 31347.9 885.000  26
  -4   5  -4 32182.8 661.484  42
   4  -5   4 31754.6 815.703  15
  -4   5  -5 33288.8 603.162  53
   4  -5   5 33128.7 939.322  30
  -4   5  -5 33095.9 628.340  49
  -4   5  -5 33927.8 655.756  42
   4  -5   6 498.906 122.848  30
   4  -5   6 409.416 97.5175  27
  -4   5  -6 444.254 72.2745  42
  -4   5  -7 21555.6 430.996  49
  -4   5  -7 19606.0 389.359  42
   4  -4  -5 14091.0 415.213  35
   4  -4  -4 29751.6 667.448  46
   4  -4  -4 29598.7 722.901  35
   4  -4  -3 13326.9 492.349  46
   4  -4  -3 12999.1 524.623  35
   4  -4  -2 862.733 140.281  46
   4  -4  -2 631.451 123.175  18
   4  -4  -1 13047.3 502.297  46
   4  -4  -1 12243.7 498.412  18
   4  -4  -1 12969.1 501.520  15
   4  -4   0 43049.8 899.326  15
  -4   4  -1 32045.7 625.162  53
   4  -4   1 33308.2 847.972  33
  -4   4  -1 32061.0 690.731  51
  -4   4  -1 33058.8 681.077  42
   4  -4   1 30952.1 759.481  15
  -4   4  -1 34024.5 665.916  58
   4  -4   2 37679.8 902.861  33
  -4   4  -2 38328.0 707.767  53
  -4   4  -2 36377.0 744.711  51
   4  -4   2 38932.5 942.125  26
  -4   4  -2 36485.5 721.317  42
   4  -4   2 37870.3 862.832  14
  -4   4  -2 36993.3 697.112  58
   4  -4   3 23867.5 734.535  33
  -4   4  -3 25052.9 623.456  51
  -4   4  -3 23666.5 584.666  42
   4  -4   3 24973.3 770.039  26
  -4   4  -3 24395.0 570.647  53
   4  -4   3 24971.5 717.421  14
   4  -4   4 10110.3 497.851  33
  -4   4  -4 10201.0 367.874  53
   4  -4   4 10282.4 518.272  30
   4  -4   4 9572.29 495.252  26
  -4   4  -4 10351.7 374.553  49
  -4   4  -4 10273.4 387.585  42
  -4   4  -4 10439.0 386.103  51
   4  -4   4 9440.07 435.127  15
   4  -4   4 10098.5 457.290  14
   4  -4   5 48738.7 1099.63  33
  -4   4  -5 51200.6 797.739  53
   4  -4   5 48203.9 1161.04  30
  -4   4  -5 49656.7 817.704  49
  -4   4  -5 48813.3 835.538  42
   4  -4   5 48028.3 966.155  14
  -4   4  -6 11358.5 351.787  53
   4  -4   6 12103.9 584.456  30
   4  -4   6 11483.2 508.378  27
   4  -4   6 12689.5 447.295  52
  -4   4  -6 11938.0 394.680  49
  -4   4  -6 11948.0 397.767  42
  -4   4  -6 11497.5 399.464  39
   4  -4   7 283.934 70.8840  52
  -4   4  -7 335.274 66.0590  49
  -4   4  -7 354.377 66.4598  42
  -4   4  -7 336.462 66.2369  39
   4  -4   8 127.220 48.1768  52
  -4   4  -8 99.3552 34.6937  49
  -4   4  -8 97.1102 32.5623  42
  -4   3   6 1989.02 118.494  55
   4  -3  -6 1928.20 138.876  35
  -4   3   5 1811.16 133.387  55
   4  -3  -5 1665.55 164.791  35
  -4   3   4 14554.4 405.711  55
   4  -3  -4 14788.1 511.119  46
   4  -3  -4 14502.3 540.113  35
  -4   3   3 42866.5 716.131  55
   4  -3  -3 42596.1 968.124  31
   4  -3  -3 38520.6 870.928  46
   4  -3  -3 35622.5 860.906  18
   4  -3  -3 37791.6 922.378  35
   4  -3  -2 23010.4 709.868  31
   4  -3  -2 22324.2 663.781  46
   4  -3  -2 21320.7 648.443  18
  -4   3   1 250.778 64.4077  51
   4  -3  -1 261.967 80.7868  46
   4  -3  -1 159.110 67.2688  18
   4  -3  -1 280.347 85.4830  15
  -4   3   0 4372.12 343.234   1
  -4   3   0 4017.02 234.061  51
   4  -3   0 3723.58 374.963   2
  -4   3   0 4609.19 242.727  42
   4  -3   0 3696.13 370.907   6
   4  -3   0 4006.16 265.781  15
  -4   3  -1 34911.2 684.590  51
  -4   3  -1 35928.9 920.557   1
  -4   3  -1 38013.0 669.546  58
  -4   3  -1 36120.1 638.486  53
   4  -3   1 31604.8 1077.32   2
  -4   3  -1 36237.3 680.053  42
  -4   3  -1 37073.5 727.354  12
   4  -3   1 32670.5 1094.38   6
   4  -3   1 33998.9 745.831  15
   4  -3   2 60316.2 1083.71  33
  -4   3  -2 62909.3 945.184  12
  -4   3  -2 60821.2 857.683  53
  -4   3  -2 60012.1 897.511  51
  -4   3  -2 62140.9 895.338  42
   4  -3   2 61527.8 1039.60  14
   4  -3   3 1295.30 172.134  33
  -4   3  -3 1226.22 126.833  53
  -4   3  -3 1311.78 140.106  12
  -4   3  -3 1277.28 136.083  51
   4  -3   3 1230.21 168.872  26
  -4   3  -3 1298.61 128.394  49
  -4   3  -3 1276.89 132.632  42
   4  -3   3 1344.81 154.878  15
   4  -3   3 1273.01 157.056  14
   4  -3   4 4366.97 316.712  33
   4  -3   4 4162.38 319.541  26
  -4   3  -4 4103.07 230.139  53
  -4   3  -4 4434.96 250.117  51
  -4   3  -4 4507.61 239.049  49
  -4   3  -4 4086.94 236.495  42
  -4   3  -4 4389.00 253.441  39
   4  -3   4 4301.34 286.644  14
   4  -3   5 7855.01 444.414  33
  -4   3  -5 8066.31 317.778  53
   4  -3   5 8179.22 473.274  30
   4  -3   5 8196.32 363.248  52
   4  -3   5 7749.98 457.222  26
  -4   3  -5 8276.15 329.618  49
  -4   3  -5 8203.61 338.974  42
  -4   3  -5 8267.02 352.168  39
   4  -3   5 8106.38 387.022  14
  -4   3  -6 29998.9 588.562  53
   4  -3   6 32105.8 960.925  30
   4  -3   6 30888.2 731.123  52
  -4   3  -6 32151.3 654.861  49
  -4   3  -6 31146.5 658.153  42
  -4   3  -6 31260.6 681.014  39
   4  -3   7 8347.15 379.268  52
  -4   3  -7 8404.89 329.384  49
  -4   3  -7 8209.50 327.154  42
  -4   3  -7 8134.10 337.829  39
   4  -3   8 14652.4 472.208  52
  -4   3  -8 14651.3 408.163  49
  -4   3  -8 13732.0 390.173  42
  -4   3  -8 14167.4 411.892  39
   4  -3   9 2975.39 189.862  52
  -4   3  -9 3019.62 163.546  49
  -4   3  -9 2657.40 144.273  42
  -4   3  -9 2771.39 156.971  39
  -4   2   6 50102.2 673.920  55
   4  -2  -6 49732.9 747.344  45
   4  -2  -6 50759.3 776.852  35
  -4   2   5 214.127 53.6080  55
   4  -2  -5 435.750 96.4713  35
  -4   2   4 17.2909 27.5697  55
   4  -2  -4 34.5257 53.3302  46
   4  -2  -4 19.8269 55.2806  35
   4  -2  -3 10738.8 500.563  31
  -4   2   3 10702.5 366.794  55
   4  -2  -3 10484.0 465.610  46
   4  -2  -3 9374.69 437.633  18
   4  -2  -3 10056.5 477.757  35
   4  -2  -2 29161.5 805.093  31
   4  -2  -2 28170.8 743.560  46
   4  -2  -2 28065.0 716.618  18
  -4   2   1 25083.7 568.853  12
   4  -2  -1 24229.0 688.179  31
   4  -2  -1 24568.4 662.902  46
   4  -2  -1 24017.7 615.032  18
   4  -2  -1 24301.5 650.066  15
  -4   2   1 24283.6 545.760  51
  -4   2   0 11777.4 378.758  12
  -4   2   0 11326.5 366.370  51
   4  -2   0 10544.4 563.386   2
  -4   2   0 11691.9 360.839  42
   4  -2   0 10277.6 550.624   6
   4  -2   0 11489.9 423.024  15
  -4   2   0 12570.2 541.675   1
  -4   2  -1 973.962 101.418  53
  -4   2  -1 1070.44 113.417  51
  -4   2  -1 1342.48 127.730  12
  -4   2  -1 971.689 106.142  42
   4  -2   1 913.982 117.934  15
  -4   2  -1 1009.69 143.650   1
  -4   2  -1 1093.40 105.902  58
   4  -2   2 31388.9 727.224  33
  -4   2  -2 32082.1 584.738  53
  -4   2  -2 31764.5 608.621  12
  -4   2  -2 31286.7 597.162  51
  -4   2  -2 32704.8 563.224  49
  -4   2  -2 31271.3 584.122  42
   4  -2   2 30403.6 657.422  15
   4  -2   2 32686.4 715.210  14
   4  -2   3 32859.0 767.785  33
  -4   2  -3 33848.4 611.004  53
  -4   2  -3 34852.5 632.658  12
  -4   2  -3 33607.3 620.552  51
   4  -2   3 34197.3 819.389  26
  -4   2  -3 35241.0 598.055  49
  -4   2  -3 33537.7 614.588  42
  -4   2  -3 34680.8 649.950  39
   4  -2   3 31600.3 670.060  15
   4  -2   3 34030.5 737.109  14
   4  -2   4 20674.2 655.477  33
  -4   2  -4 22132.9 502.206  53
   4  -2   4 21041.0 535.461  52
  -4   2  -4 22245.1 512.118  51
   4  -2   4 21166.9 679.707  26
  -4   2  -4 22008.5 488.124  49
  -4   2  -4 21766.8 508.450  42
  -4   2  -4 22031.8 531.841  39
   4  -2   4 22027.7 605.552  14
   4  -2   5 11125.0 512.892  33
  -4   2  -5 11750.3 367.104  53
   4  -2   5 10945.2 528.478  30
   4  -2   5 11448.7 432.275  52
  -4   2  -5 11429.1 368.719  51
   4  -2   5 11070.7 527.348  26
  -4   2  -5 12764.3 389.678  49
   4  -2   5 12336.3 483.269  43
  -4   2  -5 11110.7 377.646  42
  -4   2  -5 11562.7 398.680  39
   4  -2   6 546.336 142.982  30
   4  -2   6 439.682 97.0209  52
  -4   2  -6 587.812 90.7700  49
  -4   2  -6 515.906 77.4377  53
   4  -2   6 641.922 125.023  43
  -4   2  -6 533.991 90.0963  42
  -4   2  -6 531.764 91.7917  39
   4  -2   7 24799.0 686.789  52
  -4   2  -7 25087.8 569.206  49
  -4   2  -7 24358.0 574.882  42
  -4   2  -7 24521.5 604.608  39
   4  -2   8 17884.3 563.229  52
  -4   2  -8 17731.7 468.155  49
  -4   2  -8 17538.2 468.040  42
  -4   2  -8 17555.7 493.078  39
   4  -2   9 13048.3 437.093  52
  -4   2  -9 13683.3 379.178  49
   4  -2   9 14280.3 521.930  43
  -4   2  -9 12739.1 360.303  42
  -4   2  -9 13173.6 388.232  39
   4  -2  10 11872.4 348.624  52
  -4   2 -10 12279.2 304.484  49
   4  -2  10 12386.7 397.921  43
  -4   2 -10 11669.2 301.339  39
   4  -1  -7 62.0042 30.8645  34
  -4   1   7 30.6050 20.3041  55
  -4   1   6 39459.4 638.813  55
   4  -1  -6 39226.1 721.537  45
   4  -1  -6 40643.4 730.709  35
  -4   1   5 687.182 95.5219  55
   4  -1  -5 1030.66 139.240  35
  -4   1   4 63889.7 907.364  55
   4  -1  -4 65302.5 1175.15  35
   4  -1  -3 6045.29 383.104  31
   4  -1  -3 6052.57 354.298  46
  -4   1   3 6253.95 279.086  55
  -4   1   3 5968.43 290.807  44
   4  -1  -3 6125.94 371.761  35
   4  -1  -2 984.225 157.596  31
   4  -1  -2 920.430 141.785  46
  -4   1   2 845.483 98.4485  51
   4  -1  -2 1072.83 158.390  35
  -4   1   2 859.110 100.117  55
  -4   1   1 34025.1 601.390  51
  -4   1   1 35824.9 630.712  12
   4  -1  -1 35653.0 794.346  46
   4  -1  -1 34377.2 755.784  15
  -4   1   0 82377.1 925.109  12
  -4   1   0 80330.8 899.982  51
   4  -1   0 79919.8 1087.77  15
  -4   1  -1 21826.2 462.599  12
  -4   1  -1 22016.1 461.001  51
   4  -1   1 21652.3 534.381  15
   4  -1   2 25575.1 628.332  33
  -4   1  -2 25276.3 480.051  53
  -4   1  -2 25556.8 492.221  12
  -4   1  -2 25309.5 489.913  51
   4  -1   2 27661.1 671.091  26
  -4   1  -2 27481.6 609.905   1
   4  -1   2 24767.0 550.227  15
   4  -1   3 2926.67 224.029  33
  -4   1  -3 3008.25 169.284  53
  -4   1  -3 2864.37 165.077  12
  -4   1  -3 2887.98 167.109  51
   4  -1   3 2810.75 232.570  26
  -4   1  -3 3019.20 169.614  42
  -4   1  -3 2982.34 177.678  39
   4  -1   3 2860.55 187.329  15
   4  -1   3 3195.50 220.836  14
  -4   1  -4 28169.7 529.407  53
  -4   1  -4 28081.8 519.210  12
   4  -1   4 28857.6 744.662  30
   4  -1   4 27272.8 605.416  52
   4  -1   4 26762.6 723.094  33
  -4   1  -4 27899.6 530.289  51
   4  -1   4 27043.9 755.724  26
   4  -1   4 27169.5 630.755  43
  -4   1  -4 27948.9 534.252  42
  -4   1  -4 28534.7 563.820  39
   4  -1   4 28520.1 659.714  14
   4  -1   5 100821. 1506.72  33
  -4   1  -5 101199. 1016.88  53
  -4   1  -5 106163. 1017.34  12
   4  -1   5 103117. 1736.64   3
   4  -1   5 105021. 1564.12  30
   4  -1   5 106802. 1331.37  52
  -4   1  -5 102912. 1043.78  51
  -4   1  -5 103107. 1018.99  49
   4  -1   5 105365. 1351.37  43
  -4   1  -5 103098. 1077.63  42
   4  -1   6 59411.1 1257.13  30
   4  -1   6 56377.8 1438.76   3
   4  -1   6 58861.5 1065.55  52
  -4   1  -6 56606.6 784.212  51
  -4   1  -6 55986.8 801.546  49
  -4   1  -6 56006.5 841.430  42
  -4   1  -6 58761.2 792.964  17
   4  -1   7 100.486 55.2014  52
  -4   1  -7 249.332 59.1837  49
  -4   1  -7 151.550 51.6115  42
  -4   1  -7 187.315 49.6395  17
   4  -1   8 4478.78 301.191  52
  -4   1  -8 4238.81 231.073  49
  -4   1  -8 4194.69 236.388  42
  -4   1  -9 22620.4 508.402  49
   4  -1   9 23034.3 628.432  52
  -4   1  -9 22310.2 508.300  42
   4  -1  10 32623.3 638.763  52
  -4   1 -10 32892.4 539.579  49
   4  -1  10 33831.6 738.085  43
  -4   1 -10 31793.8 523.376  42
  -4   1 -10 32885.6 575.825  39
  -4   0   7 11940.3 304.986  55
   4   0  -7 11163.1 320.605  34
  -4   0   6 16025.9 420.178  55
   4   0  -6 16154.0 487.254  45
  -4   0   6 16116.1 436.189  44
  -4   0   6 15564.7 359.450  38
  -4   0   5 3323.25 206.310  55
  -4   0   5 3198.72 220.637  44
   4   0  -5 2922.27 230.826  35
  -4   0   4 52087.8 823.008  55
  -4   0   4 53587.8 930.182  44
  -4   0   3 45258.4 745.211  55
   4   0  -3 45267.1 970.768  46
   4   0  -3 45749.9 983.947  35
  -4   0   2 75016.8 875.224  12
   4   0  -2 75277.0 1218.98  46
   4   0  -2 75165.3 1232.41  35
  -4   0   1 3081.06 164.183  57
   4   0  -1 3143.71 240.490  46
  -4   0   1 3049.20 172.199  12
  -4   0   0 31080.9 521.301  12
   4   0   0 29489.5 659.204  15
  -4   0  -1 1806.35 124.200  12
   4   0   1 1853.84 157.248  15
   4   0   2 553034. 2553.33  15
   4   0   2 558528. 2783.31   3
   4   0   3 3254.57 235.229   3
   4   0   3 3296.49 234.416  33
   4   0   3 3451.43 247.815  26
  -4   0  -3 3219.68 149.732  23
   4   0   4 2851.85 229.906  33
  -4   0  -4 2483.75 151.123  51
   4   0   4 2487.81 226.097  26
  -4   0  -4 2210.12 132.887  23
   4   0   4 2279.42 229.772   3
   4   0   5 26036.0 879.434   3
   4   0   5 26968.8 774.430  30
   4   0   5 26753.0 677.653  52
  -4   0  -5 25830.5 507.468  51
  -4   0  -5 26329.0 513.842  42
   4   0   6 98446.8 1416.28  52
  -4   0  -6 92298.4 992.105  51
  -4   0  -6 94163.4 976.212  49
   4   0   6 98143.8 1925.74   3
  -4   0  -6 95691.8 1039.77  42
  -4   0  -7 46337.6 708.776  51
  -4   0  -7 48246.7 743.547  49
  -4   0  -7 46745.4 766.450  42
   4   0   8 21210.6 685.215  52
  -4   0  -8 20443.8 497.743  49
  -4   0  -8 19799.0 512.466  42
   4   0   9 1191.52 156.631  52
  -4   0  -9 1137.90 116.581  49
  -4   0  -9 1187.61 124.896  42
   4   0  10 29137.0 645.649  52
  -4   0 -10 28235.1 523.013  49
  -4   0 -10 28755.4 533.610  42
   4   0  11 23489.3 520.855  43
  -4   0 -11 23822.4 423.598  39
  -4  -1   7 22807.5 417.950  55
   4   1  -7 22051.0 450.480  45
  -4  -1   7 22167.6 389.922  38
   4   1  -7 22430.6 456.489  34
  -4  -1   6 55587.3 778.050  55
   4   1  -6 55849.6 898.929  34
   4   1  -6 55502.0 913.905  45
  -4  -1   6 57574.9 881.443  44
  -4  -1   5 12196.9 394.227  55
  -4  -1   5 11591.8 346.542  50
   4   1  -5 12492.7 493.988  45
  -4  -1   5 12988.6 468.568  44
   4   1  -5 12618.7 468.398  35
  -4  -1   4 845.017 108.145  55
  -4  -1   4 1033.25 105.249  50
  -4  -1   4 866.583 126.406  44
   4   1  -4 835.347 130.958  35
   4   1  -3 11883.2 453.299  54
   4   1  -3 11045.0 467.341  35
  -4  -1   2 98007.3 907.393  50
  -4  -1   2 100645. 997.213  57
  -4  -1   1 136116. 1051.84  12
  -4  -1   1 131682. 1493.95   5
  -4  -1   1 133745. 1080.14  57
   4   1  -1 136238. 1569.54  46
  -4  -1   1 132216. 1497.00   4
  -4  -1   0 38728.3 548.249  12
  -4  -1   0 38835.5 789.420   5
  -4  -1   0 38294.6 779.239   4
   4   1   0 40233.4 805.295   3
  -4  -1  -1 75.6170 29.6945  12
  -4  -1  -1 54.4507 35.1485   5
   4   1   1 75.2897 42.5164   3
  -4  -1  -1 76.2352 45.4461   4
  -4  -1  -2 178890. 1155.64  10
   4   1   2 174885. 1649.47   3
   4   1   3 19852.9 601.676   3
  -4  -1  -3 19369.6 377.222  10
   4   1   4 117682. 1471.82  33
   4   1   4 117174. 1663.04   3
  -4  -1  -4 118862. 940.323  10
  -4  -1  -4 116724. 926.379  23
  -4  -1  -4 113882. 920.013  22
  -4  -1  -4 115298. 878.534  32
  -4  -1  -5 25008.5 448.353  32
   4   1   5 26529.3 909.364   3
  -4  -1  -5 26094.5 507.563  51
  -4  -1  -5 25624.4 464.858  23
   4   1   5 26415.1 683.119  52
  -4  -1  -5 26407.9 494.877  42
  -4  -1  -5 26392.0 503.268  40
  -4  -1  -6 3296.85 177.161  32
   4   1   6 3673.69 389.628   3
   4   1   6 3481.59 275.557  52
  -4  -1  -6 3756.71 201.533  51
  -4  -1  -6 3433.19 192.788  42
  -4  -1  -6 3486.16 200.676  40
   4   1   7 16323.2 621.775  52
  -4  -1  -7 15740.4 425.390  51
  -4  -1  -7 14909.4 383.649  25
  -4  -1  -7 15915.5 440.913  42
  -4  -1  -7 15668.0 452.070  40
  -4  -1  -8 102947. 1082.09  51
  -4  -1  -8 106104. 1173.38  42
  -4  -1  -8 104921. 1208.89  40
   4   1   9 131.941 67.6182  52
  -4  -1  -9 127.727 48.4874  42
  -4  -1  -9 143.664 52.4705  40
  -4  -1 -10 12741.4 351.805  49
  -4  -1 -10 12688.7 366.950  42
   4   1  10 13158.7 448.656  52
  -4  -1 -11 901.934 78.1280  49
   4   1  11 976.942 115.108  43
  -4  -1 -11 1014.33 86.6850  42
  -4  -2   7 2194.31 122.656  55
   4   2  -7 2312.84 147.174  45
  -4  -2   7 2345.83 130.892  38
   4   2  -7 2280.85 143.267  34
  -4  -2   6 24468.0 506.738  55
  -4  -2   6 24732.6 487.868  50
   4   2  -6 24724.3 606.452  45
  -4  -2   6 26048.6 610.384  44
   4   2  -6 25838.2 595.156  34
  -4  -2   5 45321.6 749.629  55
   4   2  -5 46455.7 903.224  34
  -4  -2   5 44097.1 706.253  50
   4   2  -5 45029.2 925.511  45
  -4  -2   5 45911.3 901.126  44
  -4  -2   4 22193.9 502.522  50
   4   2  -4 23200.4 703.141  45
  -4  -2   4 23445.1 651.649  44
  -4  -2   3 34834.7 923.554   5
  -4  -2   3 35680.3 632.635  28
  -4  -2   3 35875.1 623.524  50
  -4  -2   3 35371.2 929.918   4
  -4  -2   3 36387.7 637.398  57
   4   2  -2 15853.2 527.363  54
  -4  -2   2 14414.9 386.565  28
  -4  -2   2 14157.5 369.797  50
  -4  -2   2 14606.8 572.755   4
  -4  -2   2 14402.0 568.580   5
  -4  -2   2 15087.7 391.686  57
   4   2  -1 60664.4 1070.46  54
  -4  -2   1 58371.9 1106.49   5
  -4  -2   1 59229.8 738.167  57
  -4  -2   1 58721.6 1109.13   4
   4   2  -1 57910.9 1148.59   3
  -4  -2   1 58750.7 738.595  28
  -4  -2   0 49792.1 583.294  12
  -4  -2   0 47843.3 976.724   5
  -4  -2   0 48665.8 630.880  28
  -4  -2   0 48101.1 584.648   8
  -4  -2   0 48627.5 990.164   4
   4   2   0 47134.3 950.503   3
  -4  -2  -1 44796.3 940.446   5
  -4  -2  -1 44544.1 604.481  10
  -4  -2  -1 44777.0 946.249   4
   4   2   1 43270.9 875.536   3
  -4  -2  -2 62435.0 714.685  10
   4   2   2 60875.1 1035.54   3
  -4  -2  -3 10065.1 291.457  10
   4   2   3 10594.6 458.268   3
  -4  -2  -3 10321.7 266.100  22
   4   2   4 32868.4 901.396   3
  -4  -2  -4 31894.1 535.626  10
  -4  -2  -4 31829.8 480.952  23
  -4  -2  -4 32252.3 486.220  22
   4   2   5 50929.5 1299.37   3
  -4  -2  -5 49291.3 677.728  10
  -4  -2  -5 49414.2 713.641  51
  -4  -2  -5 51025.9 640.825  23
  -4  -2  -5 49783.5 639.910  22
  -4  -2  -5 49455.1 634.595  32
  -4  -2  -6 43929.4 641.619  32
  -4  -2  -6 43641.3 709.831  51
  -4  -2  -6 42298.0 623.329  23
  -4  -2  -6 43933.3 687.097  42
  -4  -2  -6 44059.6 688.789  40
   4   2   7 2860.14 394.451   3
   4   2   7 2419.46 245.581  52
  -4  -2  -7 2676.31 185.331  51
  -4  -2  -7 2627.11 165.248  25
  -4  -2  -7 2947.36 192.286  42
  -4  -2  -7 2785.06 188.169  40
   4   2   8 6569.06 398.363  52
  -4  -2  -8 6915.83 293.767  51
  -4  -2  -8 6423.53 274.174  25
  -4  -2  -8 6283.70 289.105  42
  -4  -2  -8 6326.60 295.480  40
  -4  -2  -9 2099.83 152.588  51
  -4  -2  -9 2109.71 168.693  42
  -4  -2  -9 2164.03 173.865  40
   4   2  10 85289.3 1111.82  52
  -4  -2 -10 87372.8 979.500  42
  -4  -2 -10 86454.8 1010.78  40
   4   2  11 2116.25 165.387  43
  -4  -2 -11 2098.50 128.628  42
   4   3  -7 18259.5 394.659  45
  -4  -3   7 19277.7 365.781  38
  -4  -3   6 409.814 62.5348  55
  -4  -3   6 428.131 67.1355  50
   4   3  -6 326.409 72.6469  45
  -4  -3   6 358.484 73.3739  44
   4   3  -5 272.009 72.8737  34
  -4  -3   5 209.812 56.3485  55
  -4  -3   5 160.246 47.7364  50
   4   3  -5 226.753 74.8583  45
  -4  -3   5 197.366 70.4779  44
   4   3  -5 310.483 85.4236  16
  -4  -3   4 28979.5 595.784  28
  -4  -3   4 31196.8 620.041  50
   4   3  -4 31954.7 764.485  34
   4   3  -4 31030.2 798.741  45
  -4  -3   4 31880.0 769.348  44
   4   3  -4 31208.2 817.835  16
  -4  -3   3 23554.6 812.369   5
  -4  -3   3 24435.2 544.408  28
  -4  -3   3 24975.1 547.876  50
  -4  -3   3 24132.2 824.475   4
   4   3  -3 25469.0 726.303  45
  -4  -3   3 24528.2 657.107  44
  -4  -3   3 24843.1 510.256  19
  -4  -3   3 24474.0 529.504  57
  -4  -3   2 34755.4 612.371  57
  -4  -3   2 32905.2 933.638   5
   4   3  -2 33707.1 738.774  54
  -4  -3   2 33289.2 610.310  28
  -4  -3   2 33176.6 605.256  50
  -4  -3   2 32519.7 927.654   4
   4   3  -2 35792.9 842.744  45
  -4  -3   2 33886.6 578.842  19
  -4  -3   1 10848.1 521.671   5
  -4  -3   1 10483.9 322.689  28
  -4  -3   1 10234.8 320.315   8
   4   3  -1 11112.6 450.245  54
  -4  -3   1 10788.4 521.344   4
  -4  -3   1 10532.0 317.209  19
   4   3  -1 10014.1 515.114   3
  -4  -3   1 10846.8 331.641  57
  -4  -3   0 12854.6 287.721  12
  -4  -3   0 12971.4 557.826   5
  -4  -3   0 13095.9 345.497  10
  -4  -3   0 12591.8 331.238  28
  -4  -3   0 12301.7 342.623   8
  -4  -3   0 12716.8 555.322   4
   4   3   0 12240.5 529.236   3
  -4  -3  -1 12403.8 539.503   5
  -4  -3  -1 12172.1 305.371  28
  -4  -3  -1 12711.8 340.974  10
  -4  -3  -1 12227.4 539.909   4
   4   3   1 11389.1 484.387   3
  -4  -3  -2 95794.3 940.430  10
   4   3   2 96265.3 1401.50   3
  -4  -3  -3 46730.3 676.624  10
   4   3   3 48384.4 1033.32   3
  -4  -3  -4 1531.27 127.441  10
  -4  -3  -4 1714.62 115.880  23
  -4  -3  -4 1645.87 113.944  22
   4   3   4 1787.65 221.565   3
  -4  -3  -5 117.644 38.4723  32
   4   3   5 117.155 51.9317  52
  -4  -3  -5 127.933 45.6615  10
  -4  -3  -5 221.427 46.0478  23
  -4  -3  -5 126.806 35.9919  22
   4   3   5 166.294 62.5304  43
  -4  -3  -5 135.523 41.9030  42
   4   3   6 37962.1 1310.87   3
  -4  -3  -6 37550.7 671.408  10
  -4  -3  -6 38991.7 592.930  23
  -4  -3  -6 38887.5 615.750  32
  -4  -3  -6 40249.7 666.306  42
  -4  -3  -6 38198.7 633.962  40
   4   3   6 36556.7 729.546  38
  -4  -3  -7 54681.9 770.249  32
   4   3   7 52492.0 1716.74   3
  -4  -3  -7 53931.0 847.055  51
  -4  -3  -7 54227.9 761.346  25
  -4  -3  -7 54423.1 724.785  23
  -4  -3  -7 55842.2 835.575  42
  -4  -3  -7 54163.0 817.493  40
   4   3   7 53210.3 964.819  38
   4   3   8 24341.8 753.097  52
  -4  -3  -8 22808.3 559.621  51
  -4  -3  -8 23811.0 535.851  25
  -4  -3  -8 23308.4 501.381  20
  -4  -3  -8 23727.8 564.539  42
  -4  -3  -8 23710.8 562.427  40
   4   3   8 23560.7 672.384  38
   4   3   9 628.610 115.398  52
  -4  -3  -9 601.456 88.5580  51
  -4  -3  -9 629.263 91.3296  25
  -4  -3  -9 569.786 80.2595  20
  -4  -3  -9 786.077 104.147  42
  -4  -3  -9 589.012 92.0542  40
   4   3   9 603.516 108.709  38
   4   3  10 8317.91 398.462  43
  -4  -3 -10 7770.63 291.218  42
  -4  -3 -10 7603.51 295.008  40
   4   3  10 7292.63 317.553  38
  -4  -3 -11 14012.1 328.174  42
  -4  -4   6 21298.4 441.693  50
   4   4  -6 20512.0 510.124  45
  -4  -4   6 20815.1 506.556  44
   4   4  -6 20753.7 480.302  34
  -4  -4   5 29533.0 550.597  55
  -4  -4   5 28118.5 558.102  28
  -4  -4   5 30228.5 592.805  50
   4   4  -5 29299.5 708.089  45
  -4  -4   5 29464.8 685.590  44
   4   4  -5 29329.9 727.359  16
   4   4  -5 29608.2 669.872  34
  -4  -4   4 2059.82 163.473  28
  -4  -4   4 2213.33 171.282  50
   4   4  -4 2165.64 209.691  45
  -4  -4   4 2127.13 201.210  44
   4   4  -4 2087.25 208.209  16
  -4  -4   3 132.926 51.6173  28
  -4  -4   3 212.312 58.8719  50
   4   4  -3 103.119 62.4497  45
  -4  -4   3 171.990 61.7360  44
  -4  -4   3 112.866 42.8449  19
   4   4  -3 170.432 71.2961  16
  -4  -4   2 50164.9 1231.79   5
  -4  -4   2 53706.4 805.516  28
  -4  -4   2 49946.5 1229.14   4
  -4  -4   2 53532.4 832.585   8
   4   4  -2 52554.5 1030.43  45
  -4  -4   2 52247.0 795.487  19
   4   4  -2 52519.2 1049.06  16
  -4  -4   2 53815.0 785.151  57
   4   4  -1 76296.3 1125.28  54
  -4  -4   1 74365.6 1471.66   5
  -4  -4   1 76081.0 877.762  29
  -4  -4   1 76618.0 904.870  28
  -4  -4   1 76182.5 923.152  57
  -4  -4   1 75538.8 968.558   8
  -4  -4   1 74716.8 1478.83   4
  -4  -4   1 75414.1 935.970  19
   4   4  -1 74020.2 1516.18   3
   4   4  -1 72325.7 994.684  37
   4   4  -1 75433.5 959.030  56
   4   4   0 5916.55 242.399  56
   4   4   0 6215.90 334.809  54
  -4  -4   0 5753.22 402.878   5
   4   4   0 5612.30 268.685  52
  -4  -4   0 5769.73 233.046  28
  -4  -4   0 5836.09 242.165  10
  -4  -4   0 5610.68 260.096   8
  -4  -4   0 5829.32 403.082   4
   4   4   0 5513.96 384.919   3
   4   4   0 6132.41 297.283  16
   4   4   0 5635.15 266.407  37
  -4  -4  -1 56641.6 1242.01   5
  -4  -4  -1 59219.7 697.079  28
  -4  -4  -1 58629.2 772.043  10
  -4  -4  -1 57232.6 1252.42   4
   4   4   1 57186.5 1178.70   3
   4   4   1 60415.9 992.428  54
  -4  -4  -2 79497.9 918.538  10
  -4  -4  -2 75719.6 1432.83   4
   4   4   2 77787.6 1369.80   3
  -4  -4  -3 76080.8 920.978  10
   4   4   3 77629.9 1405.44   3
   4   4   4 58895.3 948.096  52
  -4  -4  -4 57216.5 828.258  10
   4   4   4 59178.0 884.704  48
   4   4   4 60307.2 1329.59   3
   4   4   5 26686.0 698.704  52
  -4  -4  -5 27938.9 604.583  10
   4   4   5 28363.4 650.278  48
  -4  -4  -5 28908.5 503.711  23
  -4  -4  -5 28465.8 492.170  22
  -4  -4  -5 29058.3 541.889  42
   4   4   5 27063.6 612.652  38
   4   4   5 29179.0 1027.50   3
  -4  -4  -6 2261.41 153.031  32
   4   4   6 1969.89 217.391  52
  -4  -4  -6 2176.45 176.209  10
   4   4   6 2476.32 201.286  48
  -4  -4  -6 2302.24 147.312  23
  -4  -4  -6 2412.74 147.306  22
  -4  -4  -6 2346.43 169.483  42
   4   4   6 2196.38 199.335  38
   4   4   6 2391.19 331.661   3
   4   4   7 35244.2 950.323  52
  -4  -4  -7 37198.5 642.325  32
  -4  -4  -7 35241.6 715.251  10
   4   4   7 36702.1 785.917  48
  -4  -4  -7 37155.2 596.673  23
  -4  -4  -7 37766.7 703.649  42
  -4  -4  -7 37669.1 669.800  40
   4   4   7 36755.5 869.499  38
   4   4   8 42492.4 974.031  52
  -4  -4  -8 41054.6 708.672  25
  -4  -4  -8 39555.8 678.256  20
  -4  -4  -8 40953.5 745.315  42
  -4  -4  -8 40006.7 717.538  40
   4   4   8 39980.5 947.153  38
  -4  -4  -9 16572.7 460.807  51
  -4  -4  -9 17538.7 463.423  25
  -4  -4  -9 17096.3 442.326  20
  -4  -4  -9 17444.8 471.953  42
  -4  -4  -9 16935.9 460.542  40
   4   4   9 17745.6 600.752  38
  -4  -4 -10 3697.08 187.082  51
  -4  -4 -10 3525.45 182.196  20
  -4  -4 -10 3843.70 200.699  42
  -4  -4 -10 3939.78 203.733  40
   4   4  10 3525.65 231.871  38
  -4  -4 -11 5793.18 203.371  42
  -4  -4 -11 5653.35 201.414  40
  -4  -5   6 17944.2 373.952  50
   4   5  -6 17642.9 432.982  45
  -4  -5   5 31247.3 571.432  28
   4   5  -5 32833.5 707.218  45
  -4  -5   5 31284.1 648.370  44
  -4  -5   4 9997.73 356.556  28
  -4  -5   4 10815.4 373.417  50
   4   5  -4 10298.4 439.437  45
  -4  -5   4 10550.4 411.619  44
   4   5  -4 10146.4 446.040  16
   4   5  -3 23918.8 611.803  53
  -4  -5   3 24709.0 574.062  29
  -4  -5   3 25045.0 575.638  28
  -4  -5   3 26139.3 600.304  50
   4   5  -3 24498.5 704.196  45
  -4  -5   3 24493.5 650.521  44
  -4  -5   3 25255.0 588.256  19
   4   5  -3 23864.8 711.661  16
  -4  -5   3 24962.5 529.355  57
  -4  -5   2 186.804 56.3848  29
  -4  -5   2 52.5129 39.8783  28
  -4  -5   2 67.4151 40.3784   8
  -4  -5   2 40.3147 38.3349  44
  -4  -5   2 80.6606 43.2496  19
   4   5  -2 44.1324 45.4145  16
  -4  -5   2 131.092 45.2678  57
  -4  -5   1 71647.9 1533.59   5
  -4  -5   1 77500.3 929.116  29
  -4  -5   1 75243.4 946.633  28
  -4  -5   1 74384.9 1038.21   8
  -4  -5   1 71398.9 1537.33   4
   4   5  -1 80813.3 1297.55  45
   4   5  -1 73287.4 1077.30  54
  -4  -5   1 74183.0 1019.24  19
   4   5  -1 72976.4 1640.06   3
   4   5  -1 80316.0 1240.21  16
  -4  -5   1 76705.5 963.746  57
   4   5  -1 72318.3 999.896  56
   4   5   0 73882.9 920.576  56
   4   5   0 74718.2 1135.28  54
  -4  -5   0 73140.8 1531.23   5
  -4  -5   0 74663.4 884.069  28
  -4  -5   0 76856.5 906.334  10
  -4  -5   0 73501.1 1026.49   8
  -4  -5   0 73541.5 1527.66   4
   4   5   0 74288.8 1542.36   3
   4   5   0 73967.0 1057.41  37
   4   5   1 84357.8 1180.71  54
   4   5   1 82478.9 1095.85  52
  -4  -5  -1 81539.2 1594.89   5
  -4  -5  -1 83567.0 867.890  28
  -4  -5  -1 84971.9 980.013  10
  -4  -5  -1 81429.2 1597.51   4
   4   5   1 82339.5 1552.78   3
   4   5   1 81145.0 1087.76  37
   4   5   2 613.672 101.422  54
   4   5   2 627.227 100.127  52
  -4  -5  -2 589.604 136.914   5
  -4  -5  -2 846.707 103.765  10
  -4  -5  -2 598.366 138.204   4
   4   5   2 1049.00 174.867   3
   4   5   2 737.366 107.131  37
  -4  -5  -3 4758.28 246.642  10
   4   5   3 4669.31 236.994  48
   4   5   3 4640.57 267.624  37
   4   5   3 4921.31 382.852   3
   4   5   4 70697.6 1086.55  52
  -4  -5  -4 73021.4 1007.21  10
   4   5   4 72360.7 997.921  48
  -4  -5  -5 48048.8 852.982  10
   4   5   5 46880.3 846.508  48
  -4  -5  -5 49076.3 687.580  23
  -4  -5  -5 49341.0 660.239  22
   4   5   5 48158.3 1352.15   3
   4   5   6 35588.7 917.736  52
  -4  -5  -6 34887.4 748.490  10
  -4  -5  -6 36510.1 622.062  32
   4   5   6 35371.4 758.384  48
  -4  -5  -6 36826.0 592.611  23
  -4  -5  -6 36449.8 571.582  22
  -4  -5  -6 36060.3 669.920  42
   4   5   6 35636.0 849.065  38
  -4  -5  -7 527.529 78.1308  32
   4   5   7 766.916 146.180  52
  -4  -5  -7 763.839 115.434  10
   4   5   7 508.411 98.4861  48
  -4  -5  -7 726.461 85.0075  23
  -4  -5  -7 487.210 84.2596  42
   4   5   7 505.343 121.125  38
  -4  -5  -8 39892.2 700.135  25
   4   5   8 38508.1 783.231  48
  -4  -5  -8 40115.7 734.230  42
  -4  -5  -8 39520.3 688.381  40
   4   5   8 39580.7 987.235  38
  -4  -5  -9 7969.80 319.209  51
  -4  -5  -9 8582.68 315.840  25
  -4  -5  -9 8052.65 302.044  20
  -4  -5  -9 8392.24 318.546  42
  -4  -5  -9 8084.44 300.802  40
   4   5   9 8283.43 424.253  38
  -4  -5 -10 18817.1 416.468  51
  -4  -5 -10 19214.0 417.571  20
  -4  -5 -10 19629.2 431.036  42
  -4  -5 -10 19356.6 415.389  40
   4   5  10 19889.7 546.731  38
  -4  -6   5 5895.92 231.138  28
  -4  -6   5 6231.48 234.775  50
   4   6  -5 5667.99 268.320  45
  -4  -6   4 23859.9 530.684  28
  -4  -6   4 25372.3 542.289  50
   4   6  -4 23946.9 630.918  45
   4   6  -3 82799.1 1146.11  53
  -4  -6   3 84211.3 1037.11  29
  -4  -6   3 83473.9 1047.22  28
  -4  -6   3 86147.8 1077.83  50
   4   6  -3 84596.8 1291.31  45
  -4  -6   3 85777.0 1105.92  19
   4   6  -2 10966.8 444.054  53
  -4  -6   2 11510.5 394.452  28
  -4  -6   2 11814.2 437.755   8
  -4  -6   2 11424.0 383.008  29
   4   6  -2 12112.5 511.931  45
  -4  -6   2 11560.7 420.252  19
  -4  -6   2 11591.5 362.093  57
   4   6  -1 112.283 57.7126  56
   4   6  -1 12.3882 43.9198  53
  -4  -6   1 27.1442 33.5337  28
  -4  -6   1 97.6482 48.0074   8
   4   6  -1 32.0473 38.6276  21
  -4  -6   1 34.2977 42.1737  19
  -4  -6   1 104.854 39.8802  57
   4   6   0 42202.0 758.972  56
  -4  -6   0 42527.0 1219.18   5
  -4  -6   0 43975.2 708.691  28
   4   6   0 41481.0 891.552  21
  -4  -6   0 42594.2 838.956   8
  -4  -6   0 43115.8 1230.95   4
   4   6   0 43424.6 1285.62   3
  -4  -6  -1 19049.0 813.247   5
  -4  -6  -1 21032.2 457.661  28
  -4  -6  -1 20277.1 502.245  10
   4   6   1 19925.7 629.636  21
  -4  -6  -1 19074.2 557.568   8
  -4  -6  -1 19337.0 823.399   4
   4   6   1 20809.7 850.155   3
   4   6   1 20235.7 592.897  37
   4   6   2 68068.8 1078.93  52
  -4  -6  -2 62260.0 1474.69   5
  -4  -6  -2 67126.2 950.790  10
   4   6   2 68170.7 1171.96  21
  -4  -6  -2 63872.7 1502.60   4
   4   6   2 66201.0 1482.49   3
   4   6   2 67178.1 1063.85  37
   4   6   3 39130.6 824.784  52
  -4  -6  -3 34047.5 1087.62   5
  -4  -6  -3 38819.6 745.100  10
   4   6   3 38975.9 709.405  48
   4   6   3 38827.5 875.839  21
  -4  -6  -3 34711.7 1108.32   4
   4   6   3 38239.7 1131.42   3
   4   6   3 38693.8 814.225  37
   4   6   4 4837.98 300.025  52
  -4  -6  -4 4789.25 275.464  10
   4   6   4 4614.84 264.636  48
   4   6   4 4647.92 296.107  21
   4   6   4 4539.31 403.932   3
   4   6   4 4718.43 292.543  37
  -4  -6  -5 32894.8 739.511  11
   4   6   5 31113.6 789.832  52
  -4  -6  -5 30962.7 726.065  10
   4   6   5 30558.0 707.374  48
  -4  -6  -5 32032.7 539.536  22
   4   6   5 29339.3 715.781  21
   4   6   5 32347.0 789.754  37
  -4  -6  -6 23999.7 656.626  11
   4   6   6 24348.0 737.524  52
  -4  -6  -6 23500.3 644.694  10
   4   6   6 21921.9 613.201  48
  -4  -6  -6 23659.3 472.506  23
  -4  -6  -6 22921.9 537.805  42
   4   6   6 24945.7 697.960  37
  -4  -6  -6 23277.7 501.599  32
  -4  -6  -7 38576.8 637.476  32
  -4  -6  -7 36566.9 801.594  10
   4   6   7 36605.0 781.456  48
  -4  -6  -7 37533.8 709.286  42
   4   6   7 35772.4 953.058  38
  -4  -6  -8 91.4622 42.9985  25
   4   6   8 66.8338 40.9407  48
  -4  -6  -8 56.1998 36.9863  42
  -4  -6  -9 5699.32 242.088  25
  -4  -6  -9 5460.38 238.022  20
  -4  -6  -9 5506.69 241.942  42
  -4  -6 -10 12523.8 315.905  51
  -4  -6 -10 12726.2 313.105  42
   4   7  -5 3662.32 183.656  45
  -4  -7   4 3990.26 197.587  28
  -4  -7   4 4181.41 195.597  50
   4   7  -4 4064.09 235.049  45
   4   7  -3 7034.43 324.761  53
  -4  -7   3 7222.85 284.468  29
  -4  -7   3 7269.49 291.783  28
  -4  -7   3 7850.07 301.096  50
   4   7  -3 7131.18 355.474  45
  -4  -7   3 7547.63 315.484  19
   4   7  -2 22655.4 636.209  53
  -4  -7   2 23476.6 528.692  29
  -4  -7   2 22626.7 536.459  28
  -4  -7   2 22702.5 551.298  50
   4   7  -2 23853.6 709.778  45
  -4  -7   2 22838.6 582.522  19
   4   7  -1 46825.2 946.891  53
  -4  -7   1 48197.3 782.072  28
  -4  -7   1 46221.8 884.498   8
   4   7  -1 48225.1 964.555  45
   4   7  -1 45250.6 894.873  21
  -4  -7   1 46324.9 866.044  19
   4   7  -1 47327.0 885.703  56
   4   7   0 6536.71 314.706  56
   4   7   0 6182.49 351.363  53
  -4  -7   0 6512.83 279.180  28
  -4  -7   0 6059.40 326.153   8
   4   7   0 6274.47 357.402  21
   4   7   1 794.906 111.318  56
   4   7   1 932.818 138.935  53
   4   7   1 898.470 141.406  21
  -4  -7  -1 773.244 120.947   8
   4   7   2 26858.5 714.112  53
  -4  -7  -2 26881.1 611.740  10
   4   7   2 27452.0 775.607  21
   4   7   2 27293.3 727.095  37
   4   7   3 59848.3 1019.68  53
  -4  -7  -3 59247.9 948.588  10
   4   7   3 61138.0 919.955  48
   4   7   3 62219.8 1157.81  21
   4   7   3 62163.3 1079.41  37
   4   7   4 6663.44 361.264  52
  -4  -7  -4 6353.05 325.561  10
   4   7   4 6642.31 329.444  48
   4   7   4 6623.23 365.536  21
   4   7   4 7003.33 365.020  37
   4   7   5 17393.9 586.040  52
  -4  -7  -5 16452.5 543.246  10
   4   7   5 16652.5 538.120  48
  -4  -7  -5 16624.6 408.383  23
   4   7   5 16524.4 553.665  21
   4   7   5 17091.1 560.063  37
  -4  -7  -6 1990.13 142.815  32
  -4  -7  -6 1823.83 183.168  10
   4   7   6 2004.55 190.316  48
  -4  -7  -7 16213.9 383.863  32
   4   7   7 16915.6 526.754  48
  -4  -7  -7 16766.0 440.082  42
  -4  -7  -8 30838.1 557.649  25
   4   7   8 30692.8 650.872  48
  -4  -7  -8 30604.9 564.664  42
  -4  -7  -9 17354.7 411.271  51
  -4  -7  -9 16802.6 370.908  25
  -4  -7  -9 17906.6 395.819  20
  -4  -7  -9 17194.8 373.736  42
   4   8  -4 10436.5 310.561  45
   4   8  -3 11546.3 376.154  53
  -4  -8   3 11480.2 322.598  28
  -4  -8   3 10798.8 300.000  50
   4   8  -3 10713.4 380.194  45
   4   8  -2 252.187 71.1991  53
  -4  -8   2 305.843 60.9244  28
  -4  -8   2 242.822 55.5927  50
   4   8  -2 303.979 82.4222  45
   4   8  -1 10411.2 435.958  53
  -4  -8   1 10056.0 337.615  28
   4   8  -1 10130.3 408.821  21
  -4  -8   1 9818.33 383.024  19
   4   8  -1 9830.73 402.601  56
   4   8   0 58145.2 1068.37  53
  -4  -8   0 58375.1 796.492  28
   4   8   0 55559.9 1030.27  21
   4   8   0 58219.9 962.162  56
   4   8   1 12962.2 447.964  56
   4   8   1 13012.2 509.875  53
   4   8   1 13411.7 539.980  21
   4   8   2 19120.0 610.403  53
   4   8   2 19651.2 661.460  21
   4   8   3 47.0103 40.8443  53
  -4  -8  -3 73.8758 41.5003  10
   4   8   3-8.56865 48.7564  21
  -4  -8  -4 21639.1 592.015  10
   4   8   4 23085.6 611.521  48
   4   8   4 23419.4 688.423  21
  -4  -8  -5 48827.8 667.342  32
   4   8   5 49407.7 923.830  48
   4   8   5 48615.6 935.965  21
   4   8   6 22343.9 614.609  48
  -4  -8  -7 5230.28 218.809  25
   4   8   7 6996.49 323.851  48
   4   8   8 13037.8 390.328  48
  -4  -8  -8 12436.0 320.576  20
   4   9  -2 27855.7 579.990  53
   4   9  -1 2528.63 197.535  53
  -4  -9   1 2106.20 134.572  50
   4   9   0 4489.57 279.068  53
   4   9   0 4702.38 277.281  21
   4   9   0 4403.22 252.303  56
   4   9   1 15559.0 471.446  56
   4   9   1 15164.7 525.085  53
   4   9   1 15303.1 538.928  21
   4   9   2 51214.9 853.605  56
   4   9   2 51170.7 947.017  53
   4   9   2 53754.2 1037.90  21
   4   9   3 22079.5 576.406  53
   4   9   3 22705.9 568.304  56
   4   9   4 1110.27 126.870  48
   4   9   4 1216.90 149.905  21
   4   9   5 1361.68 145.486  48
   4   9   5 1571.31 156.273  21
   4   9   6 32877.2 679.375  48
  -4  -9  -7 11240.8 293.325  51
   4   9   7 12543.1 382.215  48
   4  10   0 3668.00 214.702  53
   4  10   1 2078.46 173.052  53
   4  10   1 1690.29 136.945  56
   4  10   2 2687.99 189.243  53
   4  10   2 2519.84 169.471  56
   4  10   3 29419.3 565.659  56
   4  10   3 36155.9 757.993  21
   4  10   4 12960.7 373.679  56
   5  -5  -2 7065.43 298.850  46
   5  -5  -1 31221.8 699.549  46
   5  -5  -1 28352.8 676.773  35
   5  -5   0 10300.3 460.750  33
   5  -5   0 9896.44 450.074  26
   5  -5   0 9221.80 406.854  46
   5  -5   1 5964.39 366.240  33
   5  -5   1 6111.08 374.142  26
   5  -5   1 5740.68 329.661  46
   5  -5   2 1934.19 218.501  33
   5  -5   2 1875.19 220.734  26
   5  -5   2 2034.99 200.797  46
   5  -5   3 13744.6 564.470  33
   5  -5   3 13160.8 551.233  30
   5  -5   3 13285.8 566.542  26
   5  -5   3 14655.7 517.734  46
  -5   5  -3 13968.8 380.395  42
   5  -5   4 15817.3 591.420  33
   5  -5   4 14840.6 585.714  30
  -5   5  -4 15492.6 391.390  42
   5  -5   5 19978.1 652.649  30
  -5   5  -5 19228.6 413.145  42
  -5   5  -5 19058.1 387.194  58
  -5   5  -6 11072.9 281.971  42
  -5   5  -6 11379.9 269.315  58
   5  -4  -3 15638.1 449.053  35
   5  -4  -2 2887.35 223.649  33
   5  -4  -2 2343.18 201.095  46
   5  -4  -2 2330.24 203.448  35
   5  -4  -1 6331.89 360.578  33
   5  -4  -1 6305.57 351.858  26
   5  -4  -1 5551.72 328.309  46
   5  -4  -1 5068.41 318.760  35
   5  -4   0 19291.1 659.646  33
   5  -4   0 18549.3 646.294  26
   5  -4   0 17143.4 592.577  46
   5  -4   1 37838.1 947.972  33
   5  -4   1 37793.0 951.756  26
   5  -4   1 35935.2 859.085  46
   5  -4   2 22846.8 748.774  33
  -5   4  -2 22722.0 538.486  51
   5  -4   2 22890.7 764.696  26
  -5   4  -2 23267.7 542.337  42
   5  -4   2 20841.4 658.696  15
   5  -4   3 822.957 156.353  33
   5  -4   3 919.838 160.383  30
  -5   4  -3 887.070 107.090  51
   5  -4   3 840.433 163.648  26
  -5   4  -3 863.996 108.302  42
  -5   4  -3 801.796 99.8603  58
   5  -4   4 13958.1 597.491  33
   5  -4   4 14061.3 600.050  30
  -5   4  -4 13927.7 398.732  51
   5  -4   4 13513.8 605.915  26
  -5   4  -4 14718.4 429.981  42
  -5   4  -4 14252.6 396.745  58
   5  -4   5 28843.4 861.130  30
   5  -4   5 30010.1 862.505  33
  -5   4  -5 30006.3 597.838  42
   5  -4   6 15549.6 606.948  30
  -5   4  -6 14827.0 395.090  42
  -5   4  -7 3202.31 166.854  42
   5  -3  -4 1943.17 138.602  54
   5  -3  -4 1963.34 152.668  35
   5  -3  -3 17456.0 534.144  46
   5  -3  -3 16504.8 519.750  35
   5  -3  -2 53824.9 1026.93  46
   5  -3  -2 51335.1 1014.47  35
   5  -3  -1 1303.71 175.864  33
   5  -3  -1 1122.28 159.901  46
   5  -3   0 939.087 158.338  33
  -5   3   0 820.969 108.016  51
   5  -3   0 886.266 147.768  26
   5  -3   0 640.817 130.731  46
   5  -3   0 529.305 110.930  15
   5  -3   1 9068.10 465.828  33
  -5   3  -1 8921.59 348.217  51
   5  -3   1 9272.46 473.541  26
   5  -3   1 8749.45 434.606  46
  -5   3  -1 9270.30 345.579  42
   5  -3   1 8058.88 411.214  15
   5  -3   2 49562.2 1091.78  33
  -5   3  -2 49985.8 852.393  12
  -5   3  -2 49731.8 820.689  51
   5  -3   2 50675.3 1136.08  26
  -5   3  -2 52122.9 828.109  42
   5  -3   3 14899.5 618.608  33
  -5   3  -3 15436.0 468.271  12
  -5   3  -3 15455.8 456.065  51
   5  -3   3 14794.5 634.430  26
  -5   3  -3 15993.4 463.976  42
   5  -3   3 14770.8 538.449  15
  -5   3  -3 15934.8 434.684  58
   5  -3   4 2627.88 269.972  33
   5  -3   4 2494.60 261.008  30
  -5   3  -4 2834.35 194.733  51
   5  -3   4 2614.89 282.845  26
  -5   3  -4 2883.92 198.781  42
   5  -3   5 704.263 153.621  33
   5  -3   5 621.993 148.315  30
  -5   3  -5 554.369 81.9402  51
  -5   3  -5 886.379 103.479  49
  -5   3  -5 559.012 90.1813  42
   5  -3   6 10685.5 538.304  30
  -5   3  -6 11064.6 355.289  49
  -5   3  -6 10930.4 373.147  42
  -5   3  -6 10855.8 388.288  39
   5  -3   7 20998.2 565.445  52
  -5   3  -7 20352.8 454.919  49
  -5   3  -7 20312.3 477.020  42
  -5   3  -7 20466.6 498.874  39
   5  -3   8 3228.36 205.869  52
  -5   3  -8 2982.86 156.870  49
  -5   3  -8 3110.27 168.025  42
  -5   3  -8 3164.09 177.376  39
  -5   2   5 11978.0 276.776  55
   5  -2  -5 12223.6 353.175  45
   5  -2  -5 11678.1 320.590  35
  -5   2   4 2743.79 154.012  55
   5  -2  -4 2927.88 186.115  54
   5  -2  -4 2686.04 195.554  35
  -5   2   3 618.706 78.7389  55
   5  -2  -3 510.883 111.674  46
   5  -2  -3 453.212 102.933  35
   5  -2  -2 9276.84 448.954  46
   5  -2  -2 9095.45 443.604  35
   5  -2  -1 9963.41 462.000  33
  -5   2   1 10228.9 363.190  51
   5  -2  -1 9312.34 462.551  46
   5  -2  -1 8947.01 448.233  35
   5  -2   0 44415.0 996.495  33
  -5   2   0 46060.9 805.713  12
  -5   2   0 44498.3 760.558  51
   5  -2   0 41295.3 961.702  46
   5  -2   0 40300.4 920.911  15
   5  -2   1 897.858 154.549  33
  -5   2  -1 888.436 112.629  12
  -5   2  -1 1049.62 120.194  51
   5  -2   1 809.058 147.196  26
   5  -2   1 881.023 149.365  46
  -5   2  -1 1333.53 128.601  42
   5  -2   1 849.108 140.446  15
   5  -2   2 918.221 155.842  33
  -5   2  -2 959.745 115.571  12
  -5   2  -2 877.387 109.442  51
   5  -2   2 931.158 167.509  26
  -5   2  -2 947.826 111.463  42
   5  -2   2 871.810 138.415  15
  -5   2  -2 902.574 102.043  58
   5  -2   3 22197.5 737.882  33
  -5   2  -3 23173.4 551.503  51
   5  -2   3 22360.5 773.057  26
  -5   2  -3 23597.0 560.292  12
  -5   2  -3 23342.4 545.614  42
  -5   2  -3 22865.2 498.880  58
   5  -2   4 17923.0 691.164  33
  -5   2  -4 18916.4 495.948  12
   5  -2   4 17597.1 677.846  30
  -5   2  -4 18614.0 491.121  51
   5  -2   4 17911.9 716.439  26
  -5   2  -4 18521.7 492.570  42
  -5   2  -4 18908.7 523.280  39
   5  -2   5 8969.57 508.317  30
  -5   2  -5 9148.16 339.233  51
  -5   2  -5 9619.04 333.107  49
  -5   2  -5 9155.16 352.089  42
  -5   2  -5 9249.22 370.009  39
   5  -2   5 9009.97 504.024  33
   5  -2   6 10837.7 565.160  30
   5  -2   6 10868.2 443.553  52
  -5   2  -6 10320.5 344.215  51
  -5   2  -6 11153.2 362.436  49
   5  -2   6 11314.6 508.004  43
  -5   2  -6 10874.2 383.768  42
  -5   2  -6 11180.3 407.808  39
   5  -2   7 2576.58 218.972  52
  -5   2  -7 2839.44 178.378  49
   5  -2   7 2852.49 259.380  43
  -5   2  -7 3074.20 199.530  42
  -5   2  -7 2684.16 196.157  39
   5  -2   8 7325.14 348.028  52
  -5   2  -8 7252.32 268.183  49
   5  -2   8 8009.51 409.072  43
  -5   2  -8 7314.91 285.379  42
  -5   2  -8 7306.20 299.702  39
   5  -2   9 7798.31 322.486  52
  -5   2  -9 7443.24 238.777  49
   5  -2   9 8045.40 354.940  43
  -5   2  -9 7769.12 258.696  42
  -5   2  -9 8145.13 278.987  39
  -5   1   5 2790.82 152.291  55
   5  -1  -5 2563.70 183.014  45
   5  -1  -5 2473.96 161.596  35
  -5   1   4 7969.26 284.871  55
   5  -1  -4 8518.67 334.957  54
   5  -1  -4 7806.25 346.558  35
  -5   1   3 16981.1 434.730  55
   5  -1  -3 17431.8 583.937  35
  -5   1   2 17230.3 436.645  55
   5  -1  -2 16653.2 618.487  46
   5  -1  -2 16638.1 610.579  35
  -5   1   1 13911.2 380.954  55
  -5   1   1 13404.1 420.718  12
  -5   1   1 13243.2 399.622  51
   5  -1  -1 12609.1 548.289  46
   5  -1   0 13317.7 534.986  33
  -5   1   0 13378.4 414.791  12
  -5   1   0 13441.4 403.974  51
   5  -1   0 12782.6 544.429  46
   5  -1   1 23116.9 710.458  33
  -5   1  -1 23273.7 539.895  12
  -5   1  -1 22761.8 523.968  51
   5  -1   1 25077.4 760.332  26
   5  -1   1 21740.6 692.464  46
  -5   1  -1 23175.9 705.087   1
   5  -1   1 20854.4 652.859  15
   5  -1   2 29607.2 814.459  33
  -5   1  -2 29783.8 600.794  12
  -5   1  -2 29290.7 593.545  51
   5  -1   2 29853.8 854.570  26
   5  -1   2 28391.2 782.701  46
  -5   1  -2 30161.1 580.007  42
   5  -1   2 28932.6 745.383  15
   5  -1   3 1162.32 178.074  33
  -5   1  -3 1301.57 125.430  12
   5  -1   3 1194.68 191.431  26
  -5   1  -3 1377.36 127.688  42
  -5   1  -3 1356.28 134.083  39
   5  -1   4 1739.18 222.424  33
  -5   1  -4 1811.27 147.974  12
  -5   1  -4 1815.36 149.544  51
   5  -1   4 1771.77 237.762  26
   5  -1   4 1621.43 176.672  43
  -5   1  -4 1863.55 151.152  42
  -5   1  -4 1928.64 162.302  39
   5  -1   5 13124.6 612.690  33
  -5   1  -5 12593.3 384.277  12
   5  -1   5 13298.7 615.079  30
   5  -1   5 12755.2 472.487  52
  -5   1  -5 12815.8 396.129  51
   5  -1   5 12707.4 516.319  43
  -5   1  -5 12945.7 406.710  42
  -5   1  -5 12955.6 426.422  39
   5  -1   6 81745.0 1280.39  52
  -5   1  -6 78969.0 965.339  51
   5  -1   6 80594.3 1366.48  43
  -5   1  -6 79988.9 1034.46  42
  -5   1  -6 81122.8 1088.07  39
   5  -1   7 45.4976 54.3945  52
  -5   1  -7 63.6596 29.8012  51
  -5   1  -7 233.245 54.5308  49
   5  -1   7 149.509 70.2347  43
  -5   1  -7 83.3474 43.0754  42
  -5   1  -7 60.2393 41.6107  39
   5  -1   8 600.198 115.603  52
  -5   1  -8 406.346 67.2608  49
   5  -1   8 515.391 125.215  43
  -5   1  -8 407.186 75.0812  42
  -5   1  -8 379.521 76.7038  39
   5  -1   9 7986.03 362.946  52
  -5   1  -9 7378.82 254.272  49
   5  -1   9 7922.16 399.311  43
  -5   1  -9 7581.95 281.005  42
  -5   1  -9 7498.99 294.288  39
   5  -1  10 11755.9 368.592  52
   5  -1  10 11923.0 407.274  43
  -5   1 -10 11468.8 290.570  42
  -5   1 -10 11775.7 312.652  39
  -5   0   6 9584.09 248.748  55
  -5   0   5 4803.30 212.659  55
   5   0  -5 4657.03 258.923  45
  -5   0   5 4555.28 207.237  44
  -5   0   4 10022.8 334.213  55
  -5   0   4 10613.8 373.377  44
   5   0  -4 10512.9 412.019  35
  -5   0   3 24000.2 534.109  55
  -5   0   3 23825.0 602.550  44
   5   0  -3 24036.0 689.125  35
  -5   0   2 44004.9 721.375  55
   5   0  -2 45100.8 1046.13  46
  -5   0   1 6969.70 292.079  12
  -5   0   1 7068.67 277.480  51
   5   0  -1 7008.92 418.246  46
  -5   0   0 304.004 63.3870  12
  -5   0   0 376.135 66.9403  51
   5   0   0 226.905 91.9251  46
  -5   0   0 310.754 55.5240  57
   5   0   1 3981.70 294.347  33
  -5   0  -1 3887.86 208.860  12
  -5   0  -1 3817.24 204.012  51
   5   0   1 3590.65 298.624  46
   5   0   2 68832.1 1258.54  33
  -5   0  -2 68778.8 864.316  12
  -5   0  -2 68037.4 856.225  51
   5   0   2 68203.0 1315.21  26
   5   0   3 80026.4 1400.96  33
  -5   0  -3 78660.0 924.227  12
  -5   0  -3 78645.8 924.339  51
   5   0   3 79828.9 1476.92  26
  -5   0  -3 79089.1 883.421  42
  -5   0  -3 79877.2 944.017  39
   5   0   4 891.101 167.247  33
  -5   0  -4 706.157 90.3506  12
   5   0   4 702.152 104.921  52
  -5   0  -4 777.496 95.7346  51
   5   0   4 828.079 126.065  43
  -5   0  -4 932.175 102.067  42
  -5   0  -4 780.379 98.0222  39
  -5   0  -5 7901.33 298.769  12
   5   0   5 8278.46 394.336  52
  -5   0  -5 8487.02 315.421  51
   5   0   5 7756.40 393.879  43
  -5   0  -5 8179.03 307.817  42
  -5   0  -5 8412.60 327.671  39
  -5   0  -6 24307.1 523.189  12
  -5   0  -6 24811.2 544.257  51
   5   0   6 24282.8 746.374  43
  -5   0  -6 25403.6 566.862  42
  -5   0  -7 28618.1 577.842  51
   5   0   7 30046.0 864.006  43
  -5   0  -7 29566.1 625.096  42
   5   0   8 15010.9 592.915  52
  -5   0  -8 13538.6 375.004  51
   5   0   8 14195.5 597.399  43
  -5   0  -8 14089.1 427.729  42
   5   0   9 502.360 107.687  52
   5   0   9 575.947 119.789  43
  -5   0  -9 513.691 82.0627  42
   5   0  10 5280.60 274.692  52
   5   0  10 5026.12 291.852  43
  -5   0 -10 5067.21 211.942  42
  -5   0 -10 5123.38 226.052  39
  -5  -1   6 33816.4 483.336  55
   5   1  -6 31794.9 540.498  45
  -5  -1   5 16124.3 398.926  55
   5   1  -5 15825.8 489.085  45
  -5  -1   5 16139.5 438.707  44
   5   1  -5 15375.5 438.484  34
  -5  -1   4 5664.82 258.942  55
   5   1  -4 5821.91 347.336  45
  -5  -1   4 5870.71 303.114  44
   5   1  -4 5971.85 309.900  35
  -5  -1   3 6010.54 275.678  55
   5   1  -3 6402.23 354.069  54
  -5  -1   3 5978.58 318.776  44
   5   1  -2 11647.9 532.122  54
  -5  -1   1 110728. 1083.81  12
  -5  -1   1 106672. 1051.10  57
  -5  -1   0 27761.7 540.306  12
  -5  -1   0 27085.5 513.497  51
   5   1   0 27026.9 831.245  46
  -5  -1   0 26449.9 503.094  57
  -5  -1  -1 5833.50 243.764  12
  -5  -1  -1 5647.47 235.240  51
  -5  -1  -1 5711.17 222.290  57
   5   1   2 39907.9 980.392  33
  -5  -1  -2 40365.6 636.410  12
  -5  -1  -2 40569.8 629.948  51
  -5  -1  -2 38680.9 538.258  22
   5   1   3 49453.3 1123.26  33
   5   1   3 47155.2 974.984  54
  -5  -1  -3 48326.8 702.574  12
   5   1   3 51850.8 795.768  52
  -5  -1  -3 47983.8 698.724  51
  -5  -1  -3 45625.7 596.795  23
  -5  -1  -3 46280.5 618.416  22
   5   1   3 45889.4 1017.07   3
   5   1   4 34786.7 977.419  33
   5   1   4 32523.6 718.381  52
  -5  -1  -4 33707.7 603.501  51
  -5  -1  -4 32077.2 528.824  23
   5   1   4 31157.7 720.023  43
  -5  -1  -4 33881.2 565.860  42
  -5  -1  -4 34223.9 590.051  39
   5   1   4 31295.0 916.040   3
   5   1   5 6430.09 466.215   3
   5   1   5 7303.97 384.435  52
  -5  -1  -5 7130.46 261.068  23
  -5  -1  -5 6878.04 241.805  32
   5   1   5 7114.05 368.955  43
  -5  -1  -5 7139.74 276.255  42
   5   1   6 7518.71 568.983   3
   5   1   6 7822.81 439.984  52
  -5  -1  -6 7218.31 296.724  51
   5   1   6 6908.76 393.556  43
  -5  -1  -6 7513.95 298.232  42
  -5  -1  -7 31794.2 626.274  51
   5   1   7 31644.4 883.801  43
  -5  -1  -7 32171.7 637.374  42
  -5  -1  -8 28981.1 577.065  51
   5   1   8 30578.0 889.099  43
  -5  -1  -8 29712.7 623.124  42
   5   1   9 17627.2 633.293  52
   5   1   9 16382.6 626.453  43
  -5  -1  -9 16327.6 440.433  42
   5   1  10 89.4757 52.0510  52
   5   1  10 99.7805 61.5869  43
  -5  -1 -10 57.8410 31.9776  42
   5   1  11 37.9926 35.8620  43
  -5  -1 -11 29.5410 22.0397  39
  -5  -2   6 5017.72 183.155  55
   5   2  -6 4873.74 213.444  45
  -5  -2   6 5212.49 209.742  44
  -5  -2   5 23689.3 480.907  55
   5   2  -5 23920.2 604.241  45
  -5  -2   5 24334.7 562.963  44
  -5  -2   4 35415.2 649.468  55
   5   2  -4 35990.6 855.335  45
  -5  -2   4 36328.2 773.485  44
  -5  -2   3 12918.1 354.554  50
   5   2  -3 14553.8 596.746  45
  -5  -2   3 13859.1 497.549  44
  -5  -2   2 8454.61 286.305  50
  -5  -2   2 8506.55 312.885  57
   5   2  -1 65461.3 1316.77  54
  -5  -2   1 58121.3 802.828  57
  -5  -2   0 28604.5 519.712  12
  -5  -2   0 27653.0 531.663  57
  -5  -2  -1 22485.5 463.308  12
  -5  -2  -1 21261.4 702.291   5
  -5  -2  -1 22248.9 445.090  51
  -5  -2  -1 21149.2 704.960   4
   5   2   1 20658.3 698.907   3
  -5  -2  -1 21754.6 459.420  57
   5   2   2 40351.0 985.177  54
  -5  -2  -2 40146.2 970.736   5
  -5  -2  -2 42546.9 625.168  51
  -5  -2  -2 41080.2 554.547  23
  -5  -2  -2 40705.7 574.521  22
  -5  -2  -2 42014.7 1000.83   4
   5   2   2 39102.1 956.880   3
  -5  -2  -2 40496.5 610.739  57
   5   2   3 4309.98 239.529  52
  -5  -2  -3 4326.57 210.560  10
  -5  -2  -3 4273.95 204.998  51
  -5  -2  -3 4140.21 182.822  23
   5   2   3 4313.71 294.166  54
   5   2   3 3798.59 307.320   3
  -5  -2  -4 6405.19 226.021  32
   5   2   4 6227.48 320.231  54
   5   2   4 6832.16 335.052  52
  -5  -2  -4 6348.52 254.635  10
  -5  -2  -4 6807.01 271.070  51
  -5  -2  -4 6645.48 241.022  23
  -5  -2  -4 7266.09 256.394  22
   5   2   4 6183.87 319.820  43
   5   2   4 6036.89 420.265   3
  -5  -2  -5 54507.2 696.994  32
   5   2   5 56308.4 1090.33  52
  -5  -2  -5 54146.1 746.511  10
  -5  -2  -5 56150.7 810.397  51
  -5  -2  -5 55247.3 723.786  23
  -5  -2  -5 54868.3 731.405  22
   5   2   5 52822.1 998.305  43
  -5  -2  -5 56611.7 738.853  42
   5   2   5 54279.4 1399.90   3
   5   2   6 33271.8 1233.42   3
  -5  -2  -6 31363.2 558.502  32
   5   2   6 33626.5 941.609  52
  -5  -2  -6 32253.8 633.944  51
  -5  -2  -6 32219.7 577.103  23
   5   2   6 31408.5 831.800  43
  -5  -2  -6 32500.7 599.177  42
   5   2   7 4137.74 352.713  52
  -5  -2  -7 3865.48 224.088  51
   5   2   7 3919.34 319.412  43
  -5  -2  -7 3852.57 218.251  42
   5   2   8 1660.40 229.085  52
  -5  -2  -8 1528.44 140.567  51
   5   2   8 1626.86 217.654  43
  -5  -2  -8 1647.12 147.487  42
   5   2   9 1093.19 169.650  52
  -5  -2  -9 1082.81 109.920  51
   5   2   9 1050.44 168.875  43
  -5  -2  -9 1073.19 115.775  42
   5   2  10 16668.3 531.394  52
   5   2  10 16578.3 568.794  43
  -5  -2 -10 16370.7 404.556  42
   5   2  11 17723.9 463.720  43
  -5  -2 -11 18726.8 360.008  42
   5   3  -6 4557.09 200.551  45
  -5  -3   6 4882.41 201.899  44
  -5  -3   5 835.189 89.4393  55
  -5  -3   5 826.949 83.3795  50
   5   3  -5 896.579 117.818  45
  -5  -3   5 884.900 108.636  44
  -5  -3   4 14234.5 407.221  55
  -5  -3   4 13336.3 366.495  50
   5   3  -4 14374.8 532.890  45
  -5  -3   4 13971.1 485.461  44
   5   3  -4 13736.9 533.952  16
  -5  -3   3 16543.6 427.501  50
   5   3  -3 17923.0 649.746  45
  -5  -3   3 16885.3 553.097  44
  -5  -3   3 16632.1 440.864  57
   5   3  -2 41162.9 929.491  54
  -5  -3   2 36544.9 636.845  50
   5   3  -2 39966.1 1005.27  45
  -5  -3   2 37343.0 671.164  57
  -5  -3   1 19213.3 730.741   5
   5   3  -1 21474.9 728.591  54
  -5  -3   1 19771.3 459.985  50
  -5  -3   1 18805.4 724.115   4
   5   3  -1 22198.9 756.601  45
  -5  -3   1 20599.1 490.878  57
   5   3   0 297.048 104.993  54
  -5  -3   0 403.181 110.175   5
   5   3   0 341.219 102.195   3
  -5  -3   0 420.734 71.5912  57
  -5  -3   0 322.604 99.7121   4
   5   3   1 5975.76 405.839  54
  -5  -3  -1 7113.12 253.722  12
  -5  -3  -1 6562.23 426.069   5
   5   3   1 6639.67 286.605  52
  -5  -3  -1 6949.25 437.273   4
   5   3   1 6497.27 421.206   3
   5   3   1 7344.38 308.495  37
  -5  -3  -1 6712.50 270.754  57
   5   3   2 40004.3 973.469  54
   5   3   2 38880.0 712.101  52
  -5  -3  -2 37346.0 1013.80   5
  -5  -3  -2 41390.5 681.067  10
  -5  -3  -2 40243.8 595.190  51
  -5  -3  -2 38286.1 1033.52   4
   5   3   2 37116.9 997.705   3
   5   3   3 46127.1 952.722  54
   5   3   3 47886.3 838.044  52
  -5  -3  -3 47314.1 732.464  10
  -5  -3  -3 47066.1 678.547  51
  -5  -3  -3 45858.4 631.683  23
  -5  -3  -3 46451.1 646.348  22
   5   3   3 44672.6 1114.42   3
   5   3   4 20565.8 585.829  54
   5   3   4 22935.9 632.016  52
  -5  -3  -4 22246.2 507.920  10
  -5  -3  -4 22649.7 494.186  51
  -5  -3  -4 22145.5 448.813  23
  -5  -3  -4 21826.8 450.482  22
   5   3   4 22167.7 606.004  43
   5   3   4 22341.4 844.118   3
  -5  -3  -5 8517.82 285.032  32
   5   3   5 8764.94 439.779  52
  -5  -3  -5 8216.77 314.994  10
  -5  -3  -5 8768.80 326.298  51
  -5  -3  -5 8636.42 290.002  23
  -5  -3  -5 8729.20 293.078  22
   5   3   5 8537.74 406.198  43
   5   3   5 8706.92 585.018   3
  -5  -3  -6 172.507 49.9664  32
   5   3   6 138.180 77.6750  52
  -5  -3  -6 404.589 76.7513  51
   5   3   6 299.715 135.167   3
  -5  -3  -6 249.577 60.0591  10
  -5  -3  -6 275.107 56.8883  23
   5   3   6 81.0000 66.9685  43
  -5  -3  -6 331.952 63.5638  42
  -5  -3  -7 68851.8 877.653  32
  -5  -3  -7 68477.0 960.275  51
  -5  -3  -7 67407.5 824.514  25
  -5  -3  -7 68709.4 857.905  23
   5   3   7 70084.2 1367.26  43
  -5  -3  -7 69850.3 908.785  42
  -5  -3  -7 68382.0 890.661  40
   5   3   8 24797.6 844.019  52
  -5  -3  -8 24645.0 568.037  51
  -5  -3  -8 24562.3 516.399  25
   5   3   8 25983.1 852.340  43
  -5  -3  -8 25119.8 555.559  42
  -5  -3  -8 23768.2 540.907  40
   5   3   9 2220.73 236.530  52
  -5  -3  -9 2014.67 153.763  51
  -5  -3  -9 2003.39 146.539  25
   5   3   9 2216.02 245.009  43
  -5  -3  -9 2344.31 167.619  42
  -5  -3 -10 80.8572 30.4566  51
   5   3  10 59.0151 47.3815  43
  -5  -3 -10 47.2125 31.3896  42
  -5  -3 -11 21499.5 385.235  42
  -5  -4   5 27116.4 465.874  50
   5   4  -5 27483.4 603.225  45
  -5  -4   5 27078.9 553.969  44
  -5  -4   4 6376.65 256.823  50
   5   4  -4 6407.68 342.280  45
  -5  -4   4 6640.45 319.563  44
  -5  -4   3 724.435 98.5236  28
  -5  -4   3 875.741 104.156  50
   5   4  -3 814.266 143.064  45
  -5  -4   3 875.523 128.201  44
   5   4  -3 957.295 151.238  16
  -5  -4   3 840.931 102.238  57
   5   4  -2 17464.7 571.021  54
  -5  -4   2 16604.2 462.308  28
  -5  -4   2 16614.0 453.145  50
   5   4  -2 17527.5 650.084  45
   5   4  -2 16259.9 626.998  16
  -5  -4   2 17677.4 464.894  57
   5   4  -1 40138.6 948.361  54
  -5  -4   1 39092.2 695.053  28
   5   4  -1 39146.7 988.259  45
  -5  -4   1 39447.2 670.615  19
   5   4  -1 36955.9 953.138  16
  -5  -4   1 40492.7 706.376  57
   5   4   0 32580.2 943.480  54
  -5  -4   0 30220.8 975.710   5
  -5  -4   0 31679.9 601.065  28
  -5  -4   0 31520.3 620.261   8
   5   4   0 32105.6 919.812  45
  -5  -4   0 31175.5 992.560   4
   5   4   0 30189.8 1005.37   3
   5   4   0 30076.6 664.156  37
  -5  -4   0 32555.7 631.774  57
   5   4   1 29628.0 932.019  54
  -5  -4  -1 27309.1 933.294   5
   5   4   1 26773.2 624.988  52
  -5  -4  -1 29143.2 594.057  10
  -5  -4  -1 27761.1 531.728  28
  -5  -4  -1 27816.9 584.644   8
  -5  -4  -1 27828.4 936.850   4
   5   4   1 26279.6 907.577   3
   5   4   1 26645.6 627.704  37
   5   4   2 5.21917 42.7046  54
  -5  -4  -2 54.1068 52.1380   5
   5   4   2 13.4927 33.8416  52
   5   4   2 53.7586 61.3851   3
  -5  -4  -2 69.5113 41.3600  10
  -5  -4  -2 31.0076 50.1413   4
   5   4   2 20.7892 37.1244  37
   5   4   3 52690.9 1021.83  54
   5   4   3 55144.7 953.955  52
  -5  -4  -3 54525.9 823.829  10
  -5  -4  -3 53284.7 726.473  51
  -5  -4  -3 52907.9 1302.22   4
   5   4   3 54881.9 1326.45   3
   5   4   4 47509.2 947.100  52
  -5  -4  -4 45470.6 769.094  10
  -5  -4  -4 45912.7 717.443  51
  -5  -4  -4 45512.0 668.644  23
  -5  -4  -4 45938.9 672.252  22
   5   4   4 46001.8 1279.78   3
   5   4   5 25677.3 761.805  52
  -5  -4  -5 25758.4 593.953  10
  -5  -4  -5 26979.1 579.155  51
  -5  -4  -5 26706.9 520.236  23
  -5  -4  -5 26244.3 513.786  22
   5   4   5 26764.3 723.440  43
   5   4   5 26676.3 1065.29   3
  -5  -4  -6 10621.6 341.513  32
  -5  -4  -6 10309.9 379.179  10
  -5  -4  -6 10827.9 380.695  51
  -5  -4  -6 10545.9 332.596  23
  -5  -4  -6 10921.6 337.802  22
   5   4   6 10368.1 489.002  43
  -5  -4  -6 10673.9 334.597  42
  -5  -4  -7 17605.8 450.429  32
  -5  -4  -7 19225.0 518.341  51
  -5  -4  -7 17852.4 437.256  23
   5   4   7 18084.4 689.616  43
  -5  -4  -7 18094.6 455.948  42
  -5  -4  -8 21742.6 499.407  32
   5   4   8 20208.4 747.647  52
  -5  -4  -8 21558.7 540.591  51
  -5  -4  -8 21593.8 493.643  25
   5   4   8 22103.4 781.638  43
  -5  -4  -8 21432.7 505.213  42
  -5  -4  -8 21348.9 489.664  40
   5   4   9 17655.9 616.413  52
  -5  -4  -9 16336.0 439.633  51
  -5  -4  -9 16723.9 423.633  25
   5   4   9 17738.9 656.310  43
  -5  -4  -9 16821.4 434.130  42
  -5  -4  -9 16777.8 422.873  40
   5   4  10 12617.8 413.172  52
  -5  -4 -10 12319.9 330.657  51
  -5  -4 -10 13191.8 348.694  42
  -5  -4 -11 3663.55 151.971  42
  -5  -5   5 7558.67 232.359  50
   5   5  -5 7568.18 290.987  45
  -5  -5   5 6941.67 249.941  44
  -5  -5   4 46105.9 645.183  55
  -5  -5   4 46221.5 674.798  50
   5   5  -4 46859.1 871.738  45
  -5  -5   4 44292.6 752.584  44
  -5  -5   3 647.206 92.3594  28
  -5  -5   3 742.127 96.7503  50
   5   5  -3 720.886 127.141  45
  -5  -5   3 787.477 114.468  44
   5   5  -3 530.738 106.686  16
  -5  -5   3 674.068 87.2221  57
  -5  -5   2 40802.8 729.123  28
  -5  -5   2 42361.0 741.153  50
   5   5  -2 40401.4 972.238  45
  -5  -5   2 39625.2 811.264  44
  -5  -5   2 41232.7 713.940  19
  -5  -5   2 42445.1 713.006  57
   5   5  -1 10950.7 473.710  54
  -5  -5   1 11197.1 378.749  28
  -5  -5   1 11204.6 400.155   8
   5   5  -1 10975.3 530.153  45
  -5  -5   1 10963.0 380.530  19
  -5  -5   1 11489.0 385.312  57
   5   5   0 59584.3 1220.28  54
  -5  -5   0 59036.3 835.721  28
  -5  -5   0 57522.7 908.277   8
   5   5   0 57684.1 992.271  37
  -5  -5   0 59182.6 885.375  57
   5   5   0 58213.4 903.548  56
   5   5   1 36964.7 673.876  56
  -5  -5  -1 39573.1 1180.95   5
   5   5   1 38783.2 815.196  52
  -5  -5  -1 40289.5 711.348  10
  -5  -5  -1 39852.4 647.681  28
  -5  -5  -1 37798.9 745.144   8
  -5  -5  -1 39363.0 1172.09   4
   5   5   1 38769.6 1181.64   3
   5   5   1 37825.5 807.099  37
   5   5   2 13445.2 574.072  54
   5   5   2 13678.1 489.122  52
  -5  -5  -2 13068.1 679.637   5
  -5  -5  -2 13520.8 354.063  28
  -5  -5  -2 13627.3 424.441  10
  -5  -5  -2 12571.1 664.408   4
   5   5   2 13627.5 691.403   3
   5   5   2 13561.7 492.927  37
   5   5   3 736.680 127.539  54
   5   5   3 690.010 117.246  52
  -5  -5  -3 442.473 129.815   5
  -5  -5  -3 733.819 104.510  10
   5   5   3 505.134 143.159   3
  -5  -5  -3 553.890 147.104   4
   5   5   3 734.068 123.759  37
   5   5   4 36685.3 869.576  52
  -5  -5  -4 35442.4 716.507  10
  -5  -5  -4 36655.3 648.457  51
  -5  -5  -4 37229.6 625.043  22
   5   5   5 14488.5 584.831  52
  -5  -5  -5 13917.3 460.013  10
  -5  -5  -5 15025.8 440.536  51
  -5  -5  -5 14674.1 397.148  23
  -5  -5  -5 14814.7 391.369  22
  -5  -5  -6 33360.9 616.591  32
  -5  -5  -6 31683.3 701.088  10
  -5  -5  -6 33071.5 673.027  51
  -5  -5  -6 33520.0 596.359  23
  -5  -5  -6 32856.9 582.526  22
  -5  -5  -7 8866.25 320.480  32
  -5  -5  -7 7741.19 344.053  10
  -5  -5  -7 8233.07 342.334  51
  -5  -5  -7 8565.95 297.797  23
  -5  -5  -7 8604.22 308.084  42
  -5  -5  -8 9776.49 328.006  32
   5   5   8 9442.96 491.501  52
  -5  -5  -8 9643.44 364.160  51
  -5  -5  -8 9895.86 336.739  25
  -5  -5  -8 9783.69 330.768  42
   5   5   9 14633.2 513.081  52
  -5  -5  -9 14151.7 404.583  51
  -5  -5  -9 14497.0 388.680  25
  -5  -5  -9 13143.7 352.690  20
  -5  -5  -9 14366.1 382.119  42
  -5  -5 -10 3681.98 176.065  51
  -5  -5 -10 3804.21 178.321  25
  -5  -5 -10 3724.21 174.063  42
  -5  -6   4 15362.9 360.029  50
   5   6  -4 15326.9 450.503  45
  -5  -6   3 5930.09 255.124  28
  -5  -6   3 6002.51 258.231  50
   5   6  -3 5915.62 326.314  45
  -5  -6   3 5385.87 254.868  44
  -5  -6   3 6000.20 226.212  57
   5   6  -2 85061.8 1210.98  53
  -5  -6   2 88531.0 1036.00  28
  -5  -6   2 91623.7 1081.94  50
   5   6  -2 85444.5 1365.48  45
  -5  -6   2 82693.7 1078.67  44
  -5  -6   2 88002.4 1063.31  19
  -5  -6   2 90493.6 990.357  57
  -5  -6   1 3130.07 197.828  28
  -5  -6   1 2870.94 209.302   8
   5   6  -1 3153.51 284.154  45
  -5  -6   1 3075.53 209.831  19
  -5  -6   1 3068.91 197.048  57
  -5  -6   0 1353.32 128.000  28
  -5  -6   0 1202.63 140.981   8
   5   6   0 1151.32 162.963  21
  -5  -6   0 2132.77 168.738  57
   5   6   0 1855.83 170.379  56
   5   6   1 6847.18 309.115  56
  -5  -6  -1 7180.28 305.166  10
  -5  -6  -1 7402.58 283.566  28
  -5  -6  -1 6812.56 334.250   8
   5   6   1 7380.06 381.399  37
   5   6   2 40204.1 892.943  52
  -5  -6  -2 38700.1 728.303  10
   5   6   2 39117.6 885.877  37
   5   6   3 9876.58 451.472  52
  -5  -6  -3 9765.22 380.330  10
   5   6   3 10134.8 460.596  37
   5   6   4 8179.89 428.841  52
  -5  -6  -4 7944.49 350.702  10
  -5  -6  -4 8195.72 304.722  51
   5   6   4 7529.25 415.160  37
   5   6   5 18033.6 666.857  52
  -5  -6  -5 18044.9 539.562  10
  -5  -6  -5 19066.2 496.047  51
  -5  -6  -5 19055.1 459.389  23
  -5  -6  -5 19096.9 444.343  22
   5   6   5 17564.2 623.454  21
   5   6   5 17090.2 653.221  37
  -5  -6  -6 20403.2 477.600  32
   5   6   6 17641.0 702.373  52
  -5  -6  -6 18975.7 558.007  10
  -5  -6  -6 19143.5 511.408  51
  -5  -6  -6 19786.2 454.924  23
  -5  -6  -6 19626.2 440.602  22
   5   6   6 18000.6 585.945  21
   5   6   6 18784.6 735.976  37
  -5  -6  -7 11653.7 356.634  32
   5   6   7 11496.0 577.368  52
  -5  -6  -7 10687.8 411.605  10
  -5  -6  -7 11359.8 396.976  51
  -5  -6  -7 11522.0 332.746  23
   5   6   7 11970.0 560.103  37
  -5  -6  -8 1650.35 129.320  32
   5   6   8 1654.41 193.663  52
  -5  -6  -8 1629.34 148.237  51
  -5  -6  -8 1612.08 135.174  25
  -5  -6  -8 1685.51 129.680  42
  -5  -6  -9 154.713 45.4776  51
  -5  -6  -9 150.613 42.0944  25
  -5  -6  -9 158.764 40.8832  20
  -5  -6  -9 126.650 37.7956  42
  -5  -6 -10 1476.63 104.580  51
  -5  -6 -10 1453.67 96.9580  42
  -5  -7   4 32.3489 16.1610  50
  -5  -7   3 6695.52 245.852  28
  -5  -7   3 7134.83 253.696  50
   5   7  -3 6518.89 303.644  45
   5   7  -2 4012.58 254.296  53
  -5  -7   2 4350.83 216.958  28
  -5  -7   2 4299.05 221.506  50
   5   7  -2 3802.65 264.847  45
   5   7  -1 13888.0 515.396  53
  -5  -7   1 14110.3 402.550  28
  -5  -7   1 14106.0 441.829  19
  -5  -7   1 14101.2 386.474  57
   5   7   0 18228.3 622.584  53
  -5  -7   0 19186.2 465.087  28
   5   7   0 18349.2 619.595  21
  -5  -7   0 18011.2 522.635  19
  -5  -7   0 18429.7 476.882  57
   5   7   0 18824.6 547.485  56
   5   7   1 109.451 53.5169  56
  -5  -7  -1 271.463 55.4272  28
  -5  -7  -1 189.641 63.2906   8
   5   7   1 191.409 79.6499  21
   5   7   2 7235.20 327.479  56
  -5  -7  -2 6612.38 302.290  10
   5   7   2 7918.05 463.867  21
  -5  -7  -2 6217.60 331.145   8
   5   7   2 7296.12 399.356  37
  -5  -7  -3 7703.13 338.012  10
   5   7   3 8031.72 423.061  37
   5   7   4 63639.1 1218.09  52
  -5  -7  -4 63899.9 1005.79  10
   5   7   4 63596.8 1206.39  37
   5   7   5 13331.0 573.544  52
  -5  -7  -5 13896.3 478.438  10
  -5  -7  -5 14749.3 419.907  51
  -5  -7  -5 14319.3 390.523  23
  -5  -7  -5 14126.4 371.910  22
   5   7   5 14038.7 555.297  21
   5   7   5 13332.6 574.665  37
  -5  -7  -6 25890.6 521.655  32
   5   7   6 24892.6 821.401  52
  -5  -7  -6 25021.5 563.634  51
  -5  -7  -6 25614.6 494.591  23
   5   7   6 24072.0 659.789  21
  -5  -7  -7 7912.61 275.528  32
   5   7   7 8396.04 445.895  52
  -5  -7  -7 7922.97 315.358  51
  -5  -7  -8 24574.2 520.418  51
  -5  -7  -8 24347.6 481.498  25
  -5  -7  -9 7163.42 250.097  51
  -5  -7  -9 7081.56 236.425  25
  -5  -7  -9 7222.81 237.057  20
   5   8  -2 2350.68 176.067  53
  -5  -8   2 2445.15 142.310  28
  -5  -8   2 2497.17 146.292  50
   5   8  -1 3970.14 257.330  53
  -5  -8   1 4111.96 196.615  28
  -5  -8   1 3823.93 201.340  50
   5   8   0 26618.2 719.912  53
  -5  -8   0 25682.7 494.767  28
   5   8   0 26241.2 690.854  21
  -5  -8   0 25049.0 588.173  19
  -5  -8   0 24716.9 488.145  57
   5   8   0 26881.1 647.913  56
   5   8   1 14420.6 473.852  56
   5   8   1 14561.8 562.363  53
   5   8   1 14570.4 568.489  21
  -5  -8  -1 12928.0 384.163  57
   5   8   2 9199.27 381.014  56
   5   8   2 9492.27 472.346  53
   5   8   2 9494.28 490.173  21
   5   8   3 1445.79 180.126  53
   5   8   3 1674.50 220.244  21
   5   8   4 12649.8 472.244  53
  -5  -8  -4 12895.4 349.093  22
   5   8   4 13980.3 580.173  21
   5   8   4 12536.2 531.799  37
  -5  -8  -5 14438.3 365.951  23
   5   8   5 14185.8 538.671  21
  -5  -8  -6 47063.7 638.708  32
  -5  -8  -6 48382.5 706.998  51
   5   8   6 49098.8 891.978  21
  -5  -8  -7 1417.34 120.446  51
  -5  -8  -7 1260.31 96.6773  32
  -5  -8  -8 3795.00 178.417  51
  -5  -8  -8 3923.90 173.875  20
   5   9  -1 14548.3 429.725  53
  -5  -9   1 12294.3 290.248  50
   5   9   0 2793.81 212.698  53
  -5  -9   0 2149.38 136.676  50
   5   9   0 2647.57 193.296  21
   5   9   1 6280.73 342.836  53
   5   9   1 6520.13 344.409  21
   5   9   1 6499.64 306.083  56
   5   9   2 31734.8 677.259  56
   5   9   2 31831.0 809.382  53
   5   9   2 33819.4 851.021  21
   5   9   3 31800.6 683.837  56
   5   9   3 30499.9 743.513  53
   5   9   4 2412.18 193.055  56
  -5  -9  -4 2255.79 135.501  23
   5   9   4 2736.15 239.092  21
  -5  -9  -5 5840.01 203.943  32
   5   9   5 7637.71 360.179  21
   5  10   2 4559.24 230.645  56
   5  10   3 9527.03 334.976  56
   5  10   4 28510.3 573.970  56
   6  -4   0 5814.49 302.132  46
   6  -4   1 15228.1 559.011  33
   6  -4   1 14527.8 501.500  46
   6  -4   2 5863.47 364.204  33
   6  -4   2 5895.09 365.019  26
   6  -4   2 5634.81 320.271  46
   6  -4   3 7875.54 427.997  33
   6  -4   3 7886.03 366.535  46
   6  -4   4 17850.3 633.730  33
  -6   4  -4 17093.3 376.407  42
  -6   4  -5 6941.54 231.693  42
   6  -3  -2 20875.9 503.506  54
   6  -3  -1 7691.40 359.519  46
   6  -3   0 271.948 86.8265  33
   6  -3   0 324.466 92.4330  46
   6  -3   1 3225.52 280.303  33
   6  -3   1 3111.57 271.635  26
   6  -3   1 3199.11 262.768  46
   6  -3   2 18824.6 690.863  33
  -6   3  -2 19462.1 463.727  51
   6  -3   2 18696.7 696.929  26
   6  -3   2 19104.2 643.073  46
   6  -3   3 24264.5 798.007  33
  -6   3  -3 25174.6 524.455  51
   6  -3   3 24118.7 815.137  26
   6  -3   3 26057.1 731.603  46
  -6   3  -3 25625.7 522.962  42
   6  -3   4 102.146 87.8633  33
  -6   3  -4 89.1118 35.7393  51
  -6   3  -4 148.643 45.7401  42
  -6   3  -5 270.860 51.7603  51
  -6   3  -5 330.980 62.0390  42
  -6   3  -6 7815.61 272.461  42
  -6   3  -7 17983.1 377.918  42
   6  -2  -2 4988.89 279.598  54
   6  -2  -1 11162.7 472.945  46
   6  -2   0 14004.3 560.554  33
   6  -2   0 12517.3 535.802  46
   6  -2   1 5168.92 366.113  33
  -6   2  -1 5316.84 253.412  51
   6  -2   1 5232.65 368.506  26
   6  -2   1 4715.72 342.177  46
   6  -2   2 114.368 77.1212  33
   6  -2   2 197.178 98.8413  26
   6  -2   2 164.503 84.5171  46
  -6   2  -2 194.898 51.9059  42
   6  -2   3 12621.3 600.956  33
  -6   2  -3 13280.8 408.121  51
   6  -2   3 12604.8 620.005  26
  -6   2  -3 13670.5 399.868  42
   6  -2   4 17158.1 710.787  33
  -6   2  -4 17936.9 467.853  51
  -6   2  -4 18233.2 468.051  42
  -6   2  -5 10139.4 339.146  51
  -6   2  -5 10241.5 350.593  42
  -6   2  -6 4726.85 218.436  51
  -6   2  -6 5041.81 241.896  42
  -6   2  -7 39.3825 28.1897  42
   6  -2   8 10681.2 362.778  52
  -6   2  -8 11041.7 304.422  42
  -6   1   3 30164.4 456.438  55
   6  -1  -3 30672.0 615.420  54
   6  -1  -2 5907.97 330.699  54
   6  -1  -1 209.604 82.4678  46
  -6   1   0 8276.25 311.679  51
   6  -1   0 7600.92 444.099  46
   6  -1   1 25363.9 827.633  33
  -6   1  -1 26064.2 594.321  12
  -6   1  -1 25972.6 566.971  51
   6  -1   1 25396.9 829.817  46
   6  -1   2 9316.20 527.770  33
  -6   1  -2 9981.91 366.971  12
  -6   1  -2 9796.35 354.874  51
   6  -1   2 9563.32 550.659  26
   6  -1   2 9538.37 518.111  46
   6  -1   3 7918.72 502.109  33
   6  -1   3 6935.14 406.210  54
  -6   1  -3 7922.78 327.047  12
  -6   1  -3 7755.48 317.628  51
   6  -1   3 7633.54 511.462  26
  -6   1  -3 7869.82 302.845  42
   6  -1   4 426.985 134.855  33
  -6   1  -4 392.399 75.1272  12
  -6   1  -4 385.398 75.5094  51
  -6   1  -4 583.347 86.3142  42
  -6   1  -5 7157.03 298.320  12
  -6   1  -5 7296.27 302.146  51
  -6   1  -5 7613.82 307.230  42
  -6   1  -5 8289.68 336.749  39
   6  -1   6 34763.2 782.911  52
  -6   1  -6 34995.8 636.040  51
  -6   1  -6 35174.7 659.514  42
  -6   1  -6 35856.9 695.550  39
   6  -1   7 17788.1 572.947  52
  -6   1  -7 16482.2 406.138  51
  -6   1  -7 17527.7 453.369  42
  -6   1  -7 17538.6 473.759  39
   6  -1   8 20.4710 39.5103  52
   6  -1   8 108.505 63.8976  43
  -6   1  -8 136.131 42.9537  42
  -6   1  -8 41.9363 30.3433  39
   6  -1   9 1509.20 142.469  52
  -6   1  -9 1511.71 110.343  42
  -6   1  -9 1569.41 117.299  39
  -6   0   4 124.913 32.8282  55
   6   0  -4 77.3228 39.7210  45
  -6   0   3 14869.6 357.803  55
   6   0  -3 15832.2 470.326  54
  -6   0   2 9336.77 299.591  55
  -6   0   2 9605.68 346.909  44
  -6   0   1 22000.3 466.210  55
   6   0  -1 26360.8 853.492  54
  -6   0   0 1774.67 152.829  12
   6   0   0 2103.75 271.278  54
  -6   0   0 1830.08 145.612  51
   6   0   0 1793.72 233.163  46
  -6   0  -1 7911.20 322.428  12
   6   0   1 8195.44 527.659  54
  -6   0  -1 7865.62 308.565  51
   6   0   1 7817.06 495.186  46
   6   0   2 778.579 173.053  33
   6   0   2 687.680 159.706  54
  -6   0  -2 634.880 93.8110  12
  -6   0  -2 632.974 91.7096  51
  -6   0  -3 157811. 1432.05  12
  -6   0  -3 159249. 1410.36  51
   6   0   4 125.653 111.505  33
  -6   0  -4 110.661 46.4975  12
  -6   0  -4 128.399 49.3724  51
  -6   0  -4 106.398 40.3514  42
  -6   0  -5 112.786 43.2818  12
   6   0   5 162.606 61.7209  52
  -6   0  -5 124.767 48.0161  51
  -6   0  -5 104.077 43.1378  42
  -6   0  -5 138.932 46.1341  39
  -6   0  -6 9780.78 345.319  12
   6   0   6 10923.2 475.667  52
  -6   0  -6 10490.9 360.122  51
   6   0   6 9605.86 481.006  43
  -6   0  -6 10886.4 367.422  42
  -6   0  -6 10724.4 378.163  39
   6   0   7 26335.3 763.250  52
  -6   0  -7 24365.0 524.943  51
   6   0   7 24255.8 775.723  43
  -6   0  -7 25248.5 554.474  42
  -6   0  -7 25373.5 577.948  39
   6   0   8 9886.35 454.249  52
  -6   0  -8 9161.93 295.386  51
   6   0   8 9318.65 465.766  43
  -6   0  -8 9348.05 325.607  42
  -6   0  -8 9569.67 340.380  39
   6   0   9 2284.40 197.894  52
   6   0   9 2217.59 208.230  43
  -6   0  -9 2246.93 145.677  42
  -6   0  -9 2312.79 152.450  39
   6   0  10 37.6129 36.0389  52
  -6   0 -10 25.5393 19.4231  42
  -6   0 -10 33.1151 20.7763  39
  -6  -1   4 1783.47 117.942  55
   6   1  -4 1793.02 156.248  45
  -6  -1   4 1656.94 121.402  44
  -6  -1   3 442.166 68.3051  55
   6   1  -3 466.313 87.5005  54
   6   1  -3 455.480 104.272  45
  -6  -1   3 455.320 78.0320  44
  -6  -1   2 2718.82 172.430  55
   6   1  -2 2975.14 260.565  54
   6   1  -1 29717.9 940.061  54
  -6  -1   0 26597.4 570.703  12
  -6  -1   0 26723.7 512.666  57
   6   1   1 6469.09 495.512  54
  -6  -1  -1 5883.30 271.370  12
  -6  -1  -1 6089.61 262.984  51
   6   1   1 6806.17 480.399  46
  -6  -1  -1 5858.59 232.925  57
   6   1   2 646.340 164.863  54
  -6  -1  -2 715.585 95.5335  12
  -6  -1  -2 795.780 99.0224  51
   6   1   3 76324.6 1484.25  54
  -6  -1  -3 76655.8 984.657  12
  -6  -1  -3 78620.6 974.871  51
   6   1   4 1777.29 204.547  54
  -6  -1  -4 1741.46 150.723  12
  -6  -1  -4 1686.04 145.878  51
  -6  -1  -5 23350.7 549.595  12
   6   1   5 22584.8 662.315  52
  -6  -1  -5 23941.1 551.235  51
  -6  -1  -5 23737.0 514.195  42
  -6  -1  -5 24497.2 544.338  39
  -6  -1  -6 698.735 96.2867  12
   6   1   6 746.514 141.023  52
  -6  -1  -6 645.886 93.7017  51
   6   1   6 645.122 133.991  43
  -6  -1  -6 739.831 96.9842  42
  -6  -1  -6 675.811 94.7813  39
  -6  -1  -7 8098.53 310.389  12
   6   1   7 9492.36 496.238  52
  -6  -1  -7 8646.33 323.470  51
   6   1   7 8452.48 465.596  43
  -6  -1  -7 8915.01 329.235  42
  -6  -1  -7 9087.76 341.508  39
   6   1   8 10148.9 502.457  52
  -6  -1  -8 9037.48 311.698  51
   6   1   8 8730.94 466.886  43
  -6  -1  -8 8937.63 323.327  42
  -6  -1  -8 9048.20 333.613  39
  -6  -1  -9 43220.6 598.300  51
   6   1   9 44489.9 968.572  43
  -6  -1  -9 44397.5 667.465  42
  -6  -1  -9 44592.4 685.032  39
   6   1  10 1740.25 158.838  52
   6   1  10 1593.72 159.599  43
  -6  -1 -10 1656.65 113.382  42
  -6  -1 -10 1657.04 115.746  39
  -6  -2   4 15187.8 349.236  55
   6   2  -4 15671.3 464.313  45
  -6  -2   4 15293.8 395.970  44
  -6  -2   3 4035.06 202.981  55
   6   2  -3 4304.97 292.574  45
  -6  -2   3 3897.69 235.628  44
   6   2  -2 9358.50 455.871  54
   6   2  -2 8969.17 479.901  45
   6   2  -1 13271.3 633.958  54
  -6  -2   1 10527.1 338.922  57
   6   2   0 37991.5 1168.12  54
  -6  -2   0 31189.4 583.916  57
   6   2   1 13864.6 728.516  54
  -6  -2  -1 13299.0 396.962  12
  -6  -2  -1 13506.1 376.334  57
   6   2   2 3322.09 348.711  54
  -6  -2  -2 3481.82 203.581  12
  -6  -2  -2 3379.19 193.740  51
  -6  -2  -2 3258.46 170.971  22
  -6  -2  -2 3268.86 180.263  57
   6   2   3 3809.75 342.085  54
  -6  -2  -3 3961.99 220.009  12
  -6  -2  -3 3885.15 211.461  51
  -6  -2  -3 3792.70 183.533  23
  -6  -2  -3 3800.65 190.934  22
   6   2   4 20514.1 695.516  54
  -6  -2  -4 19749.0 498.243  12
   6   2   4 19042.8 577.561  52
  -6  -2  -4 20333.3 493.888  51
  -6  -2  -4 19055.7 426.477  23
  -6  -2  -4 19139.1 441.802  22
  -6  -2  -5 24540.3 469.204  32
   6   2   5 25448.3 737.189  52
  -6  -2  -5 26310.9 575.240  51
  -6  -2  -5 25139.5 508.835  23
  -6  -2  -6 19800.1 437.160  32
   6   2   6 22605.9 765.682  52
  -6  -2  -6 21896.5 532.756  51
   6   2   6 19826.2 700.229  43
  -6  -2  -6 21680.3 492.162  42
   6   2   7 6962.66 453.945  52
  -6  -2  -7 6453.58 286.901  51
   6   2   7 6272.03 409.088  43
  -6  -2  -7 6441.98 275.511  42
  -6  -2  -7 6577.13 282.443  39
   6   2   8 1818.14 233.468  52
  -6  -2  -8 1586.53 136.214  51
   6   2   8 1611.85 212.855  43
  -6  -2  -8 1542.47 134.526  42
  -6  -2  -9 17896.7 410.619  51
   6   2   9 19122.9 661.105  43
  -6  -2  -9 18275.4 430.300  42
  -6  -2  -9 18404.1 440.563  39
   6   2  10 614.556 104.101  52
   6   2  10 439.434 93.3715  43
  -6  -2 -10 548.202 68.3081  42
  -6  -2 -10 440.830 62.0140  39
  -6  -3   4 141.473 36.4089  55
   6   3  -4 49.8024 39.3301  45
  -6  -3   4 99.6422 38.2378  44
  -6  -3   3 18260.1 433.871  55
   6   3  -3 19010.6 602.180  45
  -6  -3   3 17616.2 501.087  44
   6   3  -2 14140.5 536.919  54
   6   3  -2 13882.9 589.938  45
  -6  -3   2 12438.0 367.746  57
   6   3  -1 7964.09 475.667  54
   6   3  -1 7923.66 483.319  45
  -6  -3   1 6882.22 282.894  57
   6   3   0 629.959 159.989  54
   6   3   0 750.258 169.208  45
  -6  -3   0 545.673 84.3565  57
  -6  -3  -1 14145.7 363.721  22
  -6  -3  -1 14663.9 411.854  57
   6   3   2 14877.0 718.749  54
  -6  -3  -2 16472.9 431.866  12
  -6  -3  -2 15966.2 376.898  23
  -6  -3  -2 16150.5 397.052  22
   6   3   2 15998.6 496.591  37
  -6  -3  -2 16526.9 434.085  57
   6   3   3 41048.1 1103.66  54
  -6  -3  -3 40151.5 690.008  12
   6   3   3 37512.7 786.519  52
  -6  -3  -3 40091.2 662.233  51
  -6  -3  -3 39005.3 603.758  23
  -6  -3  -3 38932.5 625.886  22
  -6  -3  -3 39270.7 658.467  57
  -6  -3  -4 8451.46 276.915  32
   6   3   4 8541.91 453.655  54
   6   3   4 8712.66 408.949  52
  -6  -3  -4 8593.60 332.007  10
  -6  -3  -4 8598.23 319.144  51
  -6  -3  -4 8716.64 294.467  23
  -6  -3  -4 8560.08 299.663  22
   6   3   5 2434.99 219.659  54
  -6  -3  -5 2425.91 154.216  32
   6   3   5 2377.84 241.099  52
  -6  -3  -5 2473.78 177.624  10
  -6  -3  -5 2426.03 176.314  51
  -6  -3  -5 2470.22 162.671  23
  -6  -3  -5 2405.08 163.658  22
  -6  -3  -6 7371.16 275.693  32
   6   3   6 7643.85 465.144  52
  -6  -3  -6 7903.63 322.878  51
  -6  -3  -6 7440.06 286.529  23
   6   3   6 7121.12 426.103  43
  -6  -3  -7 28452.2 551.943  32
  -6  -3  -7 29658.1 622.087  51
  -6  -3  -7 28642.6 560.327  23
   6   3   7 28413.0 882.731  43
  -6  -3  -7 29439.1 567.737  42
   6   3   8 27717.2 917.718  52
  -6  -3  -8 26617.8 567.314  51
   6   3   8 26226.4 849.429  43
  -6  -3  -8 26200.0 534.653  42
   6   3   9 6832.43 413.435  52
  -6  -3  -9 6180.02 250.219  51
   6   3   9 6479.78 397.017  43
  -6  -3  -9 6268.86 248.270  42
   6   3  10 1236.68 146.783  52
  -6  -3 -10 1049.20 87.0369  51
   6   3  10 1179.60 146.385  43
  -6  -3 -10 1158.95 96.8286  42
  -6  -3 -10 1138.28 94.1590  39
  -6  -4   4 15972.5 334.512  55
   6   4  -4 17009.1 450.626  45
  -6  -4   4 16686.9 398.842  44
  -6  -4   3 2881.26 151.371  50
   6   4  -3 3172.40 239.434  45
  -6  -4   3 2882.10 197.971  44
   6   4  -2 521.723 98.6592  54
  -6  -4   2 442.466 67.6981  50
   6   4  -2 486.726 114.570  45
  -6  -4   2 506.616 94.0959  44
  -6  -4   2 591.959 82.8168  57
  -6  -4   1 30827.8 569.144  50
   6   4  -1 31151.4 906.416  45
  -6  -4   1 31896.6 614.702  57
   6   4   0 35390.0 1046.25  54
  -6  -4   0 34172.8 608.488  50
  -6  -4   0 35925.2 664.209  57
   6   4   1 746.947 175.707  54
   6   4   1 653.710 105.374  37
  -6  -4  -1 724.909 98.6710  57
  -6  -4  -2 11770.3 356.213  12
   6   4   2 11198.4 431.659  52
  -6  -4  -2 11590.5 335.540  23
   6   4   2 11431.8 446.984  37
  -6  -4  -2 11589.8 382.800  57
   6   4   3 50875.5 1221.06  54
   6   4   3 51104.7 968.404  52
  -6  -4  -3 53356.4 855.821  10
  -6  -4  -3 52828.2 736.984  51
  -6  -4  -3 51240.3 719.256  23
  -6  -4  -3 53505.3 757.961  22
   6   4   3 50702.3 1002.00  37
   6   4   4 50723.3 1113.72  54
   6   4   4 51059.0 1036.21  52
  -6  -4  -4 49940.4 828.367  10
  -6  -4  -4 51000.7 769.008  51
  -6  -4  -4 50153.2 729.394  23
  -6  -4  -4 51277.7 745.541  22
   6   4   5 24940.9 714.026  54
  -6  -4  -5 27090.7 528.783  32
   6   4   5 27747.6 835.476  52
  -6  -4  -5 26270.8 602.116  10
  -6  -4  -5 27940.8 589.278  51
  -6  -4  -5 27103.3 540.575  23
  -6  -4  -5 28641.3 563.362  22
  -6  -4  -6 11215.0 349.624  32
   6   4   6 10038.4 548.728  52
  -6  -4  -6 10169.7 370.842  10
  -6  -4  -6 11066.2 380.484  51
  -6  -4  -6 10893.3 347.976  23
  -6  -4  -6 10935.1 350.756  22
  -6  -4  -7 4976.68 235.499  32
   6   4   7 4701.29 394.710  52
  -6  -4  -7 5134.39 259.245  51
  -6  -4  -7 4972.40 233.500  23
   6   4   8 32764.3 993.053  52
  -6  -4  -8 33422.5 636.871  51
  -6  -4  -8 31127.0 539.177  25
   6   4   8 33614.7 956.654  43
  -6  -4  -8 33379.6 579.652  42
   6   4   9 29658.8 837.977  52
  -6  -4  -9 27981.7 534.787  51
   6   4   9 29410.6 822.255  43
  -6  -4  -9 27772.0 501.454  42
  -6  -4 -10 10268.1 274.909  51
  -6  -4 -10 10198.7 270.029  42
  -6  -5   3 5098.40 198.560  50
   6   5  -3 5429.54 289.003  45
  -6  -5   3 5152.45 238.399  44
  -6  -5   2 13803.7 368.251  50
   6   5  -2 13688.4 524.962  45
  -6  -5   2 13501.3 435.049  44
  -6  -5   2 14157.3 374.143  57
   6   5  -1 70.8409 56.0139  54
  -6  -5   1 51.2290 31.1151  50
  -6  -5   1 89.3569 42.4457  57
   6   5   0 38403.0 1027.49  54
  -6  -5   0 39116.5 704.607  57
   6   5   1 33212.9 1053.79  54
   6   5   1 34130.4 777.671  37
  -6  -5  -1 35691.0 683.949  57
   6   5   2 43683.2 900.728  52
  -6  -5  -2 44563.6 790.449  10
   6   5   2 43372.1 911.397  37
  -6  -5  -2 43950.9 762.713  57
   6   5   3 1228.01 197.016  54
   6   5   3 1667.04 188.431  52
  -6  -5  -3 1217.56 134.121  10
  -6  -5  -3 1343.32 125.119  22
   6   5   3 1305.87 173.409  37
   6   5   4 3617.13 290.157  52
  -6  -5  -4 3771.10 234.855  10
  -6  -5  -4 3758.88 204.819  51
  -6  -5  -4 3484.13 196.729  23
  -6  -5  -4 3815.03 209.099  22
   6   5   4 3709.83 303.259  37
   6   5   5 42245.4 1051.80  52
  -6  -5  -5 40478.1 770.745  10
  -6  -5  -5 41876.1 712.581  51
  -6  -5  -5 42193.2 685.264  23
  -6  -5  -5 42334.2 686.265  22
  -6  -5  -6 27691.8 556.130  32
   6   5   6 23993.5 839.109  52
  -6  -5  -6 25126.5 602.362  10
  -6  -5  -6 27524.6 590.593  51
  -6  -5  -6 27945.9 552.443  23
  -6  -5  -6 28113.5 554.222  22
  -6  -5  -7 17273.6 433.726  32
  -6  -5  -7 16968.1 465.150  51
  -6  -5  -7 17503.1 426.205  23
  -6  -5  -8 155.014 44.5584  32
   6   5   8 93.7211 66.4365  52
  -6  -5  -8 119.751 44.8895  51
  -6  -5  -8 139.045 41.8988  25
   6   5   9 27453.3 755.566  52
  -6  -5  -9 26654.2 508.232  51
  -6  -5  -9 24986.7 457.167  25
  -6  -5  -9 25835.8 447.203  42
   6   5   9 28676.8 721.094  37
  -6  -5 -10 7465.79 227.549  51
  -6  -6   3 6153.33 197.005  55
  -6  -6   3 6584.03 211.393  50
   6   6  -3 6409.83 276.095  45
   6   6  -2 41111.9 724.070  53
  -6  -6   2 43762.6 630.461  50
   6   6  -2 38837.5 795.260  45
  -6  -6   2 38020.4 638.935  44
  -6  -6   2 43297.9 599.566  57
   6   6  -1 4751.42 292.680  53
  -6  -6   1 4786.36 229.998  50
  -6  -6   1 4023.57 226.881  44
  -6  -6   1 4929.22 225.339  57
  -6  -6   0 318.789 63.7798  19
  -6  -6   0 290.059 63.6233  57
  -6  -6  -1 17468.7 475.853  19
   6   6   1 19150.5 610.307  37
  -6  -6  -1 19044.9 495.961  57
   6   6   1 18281.0 519.073  56
   6   6   2 7489.51 323.762  56
  -6  -6  -2 7747.40 326.028  10
  -6  -6  -2 7282.67 334.310   8
   6   6   2 8323.53 418.922  37
  -6  -6  -2 7765.00 323.964  57
   6   6   3 21751.3 542.137  56
   6   6   3 25230.7 751.130  52
  -6  -6  -3 24037.5 584.657  10
  -6  -6  -3 20823.1 568.134   8
   6   6   3 25025.5 755.033  37
   6   6   4 16693.0 637.276  52
  -6  -6  -4 15389.8 480.168  10
  -6  -6  -4 16171.0 425.854  23
  -6  -6  -4 17374.3 441.304  22
   6   6   4 16059.5 633.839  37
   6   6   5 3651.04 316.204  52
  -6  -6  -5 3359.55 226.874  10
  -6  -6  -5 3438.54 196.483  51
  -6  -6  -5 3658.19 201.322  23
  -6  -6  -5 3419.26 193.277  22
   6   6   5 3284.30 303.661  37
  -6  -6  -6 19431.7 460.557  32
   6   6   6 15796.8 674.680  52
  -6  -6  -6 19507.5 480.276  51
  -6  -6  -6 19888.9 454.318  23
  -6  -6  -6 19908.2 450.606  22
   6   6   6 19936.2 677.982  21
   6   6   6 14436.7 653.397  37
  -6  -6  -7 11583.6 346.196  32
   6   6   7 8527.80 500.909  52
  -6  -6  -7 11407.5 365.298  51
  -6  -6  -7 11567.9 331.235  23
   6   6   7 9310.23 513.548  37
  -6  -6  -8 16953.5 391.036  32
   6   6   8 15026.5 605.614  52
  -6  -6  -8 16778.7 420.966  51
  -6  -6  -8 16070.6 383.812  25
  -6  -6  -8 16117.8 356.337  23
   6   6   8 17557.7 617.457  37
   6   6   9 1295.98 147.549  52
  -6  -6  -9 1282.92 106.774  51
  -6  -6  -9 1204.87 96.6586  25
  -6  -7   2 3427.53 160.464  50
   6   7  -1 4502.48 268.844  53
  -6  -7   1 4532.14 208.559  50
  -6  -7   1 4447.21 191.231  57
   6   7   0 15650.9 558.679  53
   6   7   0 15709.0 542.449  21
  -6  -7   0 15487.4 397.781  57
   6   7   1 371.254 82.8355  56
   6   7   1 382.762 107.740  21
  -6  -7  -1 386.858 74.3575  19
  -6  -7  -1 393.446 71.9815  57
   6   7   2 61.7517 44.4607  56
   6   7   2 105.851 73.6313  21
   6   7   2 195.467 80.9841  37
  -6  -7  -2 277.265 64.4258  57
   6   7   3 14427.5 457.942  56
   6   7   3 15979.1 610.571  37
   6   7   4 30959.8 878.493  52
  -6  -7  -4 29884.1 564.554  23
  -6  -7  -4 30910.8 570.523  22
   6   7   4 29993.6 866.196  37
   6   7   5 126.047 72.5579  52
  -6  -7  -5 233.379 51.3247  23
  -6  -7  -5 145.502 42.5643  22
   6   7   5 59.5516 61.9981  21
   6   7   5 275.850 105.058  37
  -6  -7  -6 2172.33 147.645  32
   6   7   6 1552.05 214.293  52
  -6  -7  -6 1975.30 142.190  51
  -6  -7  -6 2040.06 139.091  23
  -6  -7  -6 1968.29 132.575  22
   6   7   6 2249.56 221.287  21
   6   7   6 1558.57 212.867  37
  -6  -7  -7 79.0344 33.5763  32
   6   7   7 221.002 88.8409  52
  -6  -7  -7 154.523 42.6090  51
  -6  -7  -7 77.2903 27.9261  23
   6   7   7 99.0749 64.6524  37
  -6  -7  -8 11579.4 294.659  32
   6   7   8 12300.0 474.817  52
  -6  -7  -8 11984.1 325.262  51
  -6  -7  -8 11110.8 298.358  25
  -6  -7  -9 13570.8 304.875  51
   6   8  -1 1545.77 141.926  53
  -6  -8   1 1470.59 103.301  50
   6   8   0 4917.55 291.093  53
  -6  -8   0 4870.39 208.897  50
  -6  -8   0 4612.33 182.790  57
   6   8   1 25366.3 724.414  53
  -6  -8  -1 23846.1 468.095  57
   6   8   1 23668.1 581.395  56
   6   8   2 817.844 148.783  53
   6   8   2 778.585 142.771  21
  -6  -8  -2 669.675 85.9593  57
   6   8   2 813.567 113.876  56
   6   8   3 2130.54 179.410  56
   6   8   3 2144.73 250.392  53
  -6  -8  -3 1994.68 138.449  22
   6   8   3 2267.03 271.431  21
   6   8   4 1757.46 165.762  56
   6   8   4 2025.41 216.961  53
  -6  -8  -4 1870.11 134.157  23
  -6  -8  -4 1934.00 132.936  22
   6   8   4 2476.29 278.450  21
   6   8   4 2029.72 223.640  37
  -6  -8  -5 13133.8 337.169  23
  -6  -8  -5 12787.3 318.134  22
  -6  -8  -6 26868.2 466.458  32
  -6  -8  -6 26120.9 441.053  23
   6   8   6 29140.1 723.448  21
   6   8   6 28205.6 819.642  37
  -6  -8  -7 4961.52 184.889  32
  -6  -8  -7 5169.52 192.069  51
   6   9   1 9536.82 392.694  53
  -6  -9  -1 8077.17 240.332  50
   6   9   2 9773.12 442.305  53
  -6  -9  -2 9278.69 255.440  22
  -6  -9  -2 8514.91 244.758  57
   6   9   2 9802.07 363.887  56
   6   9   3 30878.9 650.775  56
   6   9   3 31324.3 813.498  53
  -6  -9  -3 28421.9 458.916  23
  -6  -9  -3 27477.9 433.056  22
  -6  -9  -3 26494.1 461.966  57
   6   9   4 6444.67 302.986  56
  -6  -9  -4 6210.35 208.640  23
   6   9   5 7460.30 323.463  56
   6   9   6 5633.90 273.562  56
   7  -2   0 3753.77 235.657  54
   7  -2   1 12479.0 460.813  54
   7  -2   2 1375.69 154.942  54
  -7   2  -2 1531.34 115.022  51
  -7   2  -3 2865.06 159.022  51
  -7   2  -4 17593.0 388.002  51
  -7   2  -4 17278.4 353.243  42
  -7   2  -5 12456.6 311.649  51
  -7   2  -5 12435.3 302.196  42
  -7   2  -6 1820.69 108.355  51
  -7   2  -6 1965.87 116.400  42
   7  -1  -1 2144.07 176.908  54
   7  -1   0 16162.6 558.631  54
   7  -1   1 18449.3 642.480  54
  -7   1  -1 17455.8 394.487  51
   7  -1   2 11941.8 519.611  54
  -7   1  -2 12184.5 348.550  51
   7  -1   3 9915.15 545.524  33
  -7   1  -3 9110.96 308.827  51
  -7   1  -4 936.274 100.951  51
  -7   1  -5 7942.26 281.205  51
  -7   1  -5 7635.72 258.641  42
  -7   1  -6 13656.2 346.759  51
  -7   1  -6 13581.7 341.660  42
  -7   1  -7 43745.8 557.121  51
  -7   1  -7 46639.6 597.659  42
   7   0  -2 15360.8 435.643  45
   7   0  -1 23195.4 640.723  54
   7   0   0 1844.89 216.490  54
   7   0   1 533.937 136.514  54
  -7   0  -1 453.834 68.6148  51
   7   0   2 7166.47 456.652  54
  -7   0  -2 7019.25 274.369  51
   7   0   3 38086.0 983.118  54
  -7   0  -3 40515.0 677.352  51
  -7   0  -4 42406.8 700.285  51
  -7   0  -5 1053.10 112.567  51
  -7   0  -6 5503.02 239.950  51
  -7   0  -6 5329.53 223.731  42
  -7   0  -7 19269.7 414.945  51
  -7   0  -7 19184.8 411.155  42
   7   0   8 16566.4 467.555  52
  -7   0  -8 16626.1 338.043  51
  -7   0  -8 17325.1 361.570  42
  -7  -1   2 2963.34 136.345  55
   7   1  -2 3126.39 198.219  54
   7   1  -2 3366.13 222.108  45
  -7  -1   2 3115.97 159.985  44
  -7  -1   1 3967.48 171.455  55
   7   1  -1 4555.17 308.389  45
  -7  -1   1 4221.94 214.348  44
   7   1   0 57253.9 1271.93  54
   7   1   1 12666.6 653.796  54
  -7  -1  -1 10527.2 316.146  51
   7   1   2 3683.74 361.261  54
  -7  -1  -2 3146.49 186.167  51
   7   1   3 21394.1 807.714  54
  -7  -1  -3 21900.8 503.834  51
   7   1   4 25206.5 776.700  54
  -7  -1  -4 27350.3 568.221  51
  -7  -1  -5 17279.0 453.711  51
   7   1   6 5425.39 309.589  52
  -7  -1  -6 5819.88 258.756  51
   7   1   7 3102.14 244.159  52
  -7  -1  -7 3353.27 185.909  51
  -7  -1  -7 3091.83 169.629  42
  -7  -1  -7 3154.69 174.516  39
   7   1   8 13705.1 489.142  52
  -7  -1  -8 13634.4 338.560  51
  -7  -1  -8 13255.8 330.149  42
  -7  -1  -8 13605.7 337.225  39
   7   1   9 15432.4 460.311  52
  -7  -1  -9 15126.9 314.183  42
  -7  -2   2 2545.22 135.900  55
   7   2  -2 2640.78 184.237  54
   7   2  -2 2872.80 212.306  45
  -7  -2   2 2649.85 162.978  44
  -7  -2   1 1662.53 120.793  55
   7   2  -1 1928.80 208.833  54
   7   2  -1 1851.57 206.622  45
   7   2   0 40169.5 1109.52  54
   7   2   0 39697.0 1039.67  45
   7   2   1 15156.3 755.565  54
  -7  -2  -1 12059.8 323.774  57
   7   2   2 10035.1 627.829  54
  -7  -2  -2 9107.96 306.346  51
   7   2   3 9766.78 579.616  54
  -7  -2  -3 9435.85 324.664  51
   7   2   4 2151.21 246.863  54
  -7  -2  -4 2291.70 172.721  12
  -7  -2  -4 2221.70 163.029  51
   7   2   5 5274.72 308.525  52
  -7  -2  -5 6019.19 269.536  51
   7   2   6 26699.7 748.615  52
  -7  -2  -6 28805.6 581.413  51
   7   2   7 12977.2 541.570  52
  -7  -2  -7 13081.6 379.044  51
   7   2   8 933.175 148.180  52
  -7  -2  -8 779.366 86.4641  51
  -7  -2  -8 707.647 77.7843  42
   7   2   9 3113.29 234.535  52
  -7  -2  -9 2852.07 143.057  51
  -7  -2  -9 2858.20 140.753  42
  -7  -3   2 7233.40 234.901  55
   7   3  -2 7381.72 337.240  45
  -7  -3   2 7610.45 282.277  44
   7   3  -1 8476.00 425.509  54
   7   3  -1 8454.63 423.422  45
   7   3   0 2554.69 283.049  54
  -7  -3   0 1872.62 133.387  57
   7   3   1 4746.66 432.403  54
  -7  -3  -1 4054.40 199.889  57
   7   3   2 9935.94 631.788  54
  -7  -3  -2 9483.45 304.534  57
  -7  -3  -3 23964.4 540.786  12
  -7  -3  -3 24892.2 510.318  51
  -7  -3  -3 23607.9 471.700  22
  -7  -3  -3 24029.1 477.188  57
   7   3   4 13343.1 623.505  54
  -7  -3  -4 13558.6 414.635  12
   7   3   4 12114.0 454.223  52
  -7  -3  -4 14066.5 399.255  51
  -7  -3  -4 12814.3 343.069  23
  -7  -3  -4 13216.3 363.253  22
   7   3   5 2840.97 251.232  54
   7   3   5 2849.34 244.860  52
  -7  -3  -5 3115.28 192.002  51
  -7  -3  -5 2789.53 165.010  23
   7   3   6 13740.1 575.550  52
  -7  -3  -6 14634.9 414.307  51
   7   3   7 1495.71 205.910  52
  -7  -3  -7 1533.87 132.172  51
   7   3   8 36998.3 948.187  52
  -7  -3  -8 34721.6 580.464  51
  -7  -3  -9 8618.93 256.932  51
  -7  -3  -9 7997.70 229.857  42
  -7  -4   2 1116.64 92.1370  55
   7   4  -2 926.658 115.668  45
  -7  -4   2 1056.37 103.900  44
   7   4  -1 18209.1 583.443  54
  -7  -4   1 16207.0 450.209  44
   7   4   0 24898.4 829.636  54
  -7  -4   0 22059.8 462.387  57
   7   4   1 6098.28 470.346  54
  -7  -4  -1 5679.71 243.060  57
   7   4   2 2940.40 338.571  54
  -7  -4  -2 2791.21 160.370  22
  -7  -4  -2 2886.02 176.977  57
   7   4   3 6046.45 467.430  54
   7   4   3 5598.06 305.416  52
  -7  -4  -3 6038.78 232.945  23
  -7  -4  -3 6197.86 247.181  22
   7   4   3 5909.17 325.801  37
  -7  -4  -3 6344.94 262.071  57
   7   4   4 46736.6 1177.17  54
  -7  -4  -4 43584.2 612.264  32
   7   4   4 43821.6 923.285  52
  -7  -4  -4 47834.0 704.250  51
  -7  -4  -4 45536.9 660.821  23
  -7  -4  -4 46224.8 689.048  22
   7   4   4 44626.8 976.455  37
  -7  -4  -4 45653.0 686.298  57
   7   4   5 26394.8 779.921  54
  -7  -4  -5 26212.3 484.438  32
   7   4   5 26139.9 772.328  52
  -7  -4  -5 27747.9 554.700  51
  -7  -4  -5 27205.5 519.683  23
  -7  -4  -5 26818.7 530.969  22
  -7  -4  -6 9268.82 290.636  32
   7   4   6 9493.10 500.181  52
  -7  -4  -6 9889.55 335.499  51
  -7  -4  -6 9767.24 312.446  23
  -7  -4  -7 551.460 71.0366  32
   7   4   7 624.987 141.042  52
  -7  -4  -7 760.457 93.4305  51
   7   4   8 25312.9 811.474  52
  -7  -4  -8 23677.9 476.888  51
   7   4   9 24176.4 698.015  52
  -7  -4  -9 22116.9 412.278  51
  -7  -5   2 256.803 42.9735  55
  -7  -5   2 327.679 54.6680  44
  -7  -5   1 6759.65 270.686  44
  -7  -5   1 6838.79 233.230  57
   7   5   0 19634.0 677.126  54
  -7  -5   0 18475.5 416.431  57
   7   5   1 48371.7 1221.54  54
  -7  -5  -1 46124.2 627.961  22
  -7  -5  -1 49302.7 716.072  57
  -7  -5  -2 29287.4 495.858  23
  -7  -5  -2 30182.9 535.006  22
   7   5   2 30141.0 704.385  37
  -7  -5  -2 31129.7 585.806  57
   7   5   3 3233.58 335.910  54
   7   5   3 3417.68 254.222  52
  -7  -5  -3 3556.18 182.005  23
  -7  -5  -3 3773.02 195.491  22
   7   5   3 3833.77 275.293  37
  -7  -5  -3 3623.43 202.853  57
   7   5   4 1255.49 169.119  52
  -7  -5  -4 1128.44 106.380  23
  -7  -5  -4 1112.44 108.770  22
   7   5   4 1114.92 163.720  37
  -7  -5  -4 1108.73 114.052  57
  -7  -5  -5 37252.3 589.070  32
   7   5   5 37430.9 957.039  52
  -7  -5  -5 37919.5 619.833  51
  -7  -5  -5 37544.2 606.097  23
  -7  -5  -5 38269.9 627.490  22
   7   5   5 37493.7 990.712  37
  -7  -5  -5 36155.3 618.307  57
  -7  -5  -6 23639.4 468.391  32
   7   5   6 23885.7 804.503  52
  -7  -5  -6 24923.2 509.155  51
  -7  -5  -6 24665.2 488.285  23
   7   5   6 23411.3 827.486  37
  -7  -5  -7 24287.6 462.373  32
   7   5   7 24811.4 835.262  52
  -7  -5  -7 25568.0 510.585  51
  -7  -5  -7 24971.9 472.098  23
   7   5   7 24962.5 855.938  37
   7   5   8 5607.85 380.597  52
  -7  -5  -8 5732.93 227.193  51
   7   5   8 5763.38 382.897  37
   7   5   9 9859.57 431.798  52
  -7  -5  -9 8909.10 252.577  51
   7   5   9 9920.06 413.125  37
   7   6  -1 58580.7 801.547  53
  -7  -6   1 56528.6 576.905  50
  -7  -6   1 53812.8 658.042  44
  -7  -6   1 61702.8 634.361  57
  -7  -6   0 3670.32 166.926  50
  -7  -6   0 3589.18 157.574  22
  -7  -6   0 3440.71 185.920  44
  -7  -6   0 4074.79 186.264  57
  -7  -6  -1 4644.73 200.938  50
  -7  -6  -1 4703.48 198.397  22
  -7  -6  -1 5105.92 223.592  57
  -7  -6  -2 13786.6 339.070  23
  -7  -6  -2 14711.0 368.247  22
   7   6   2 14905.0 514.811  37
  -7  -6  -2 15368.7 403.684  57
  -7  -6  -3 37093.3 580.878  23
  -7  -6  -3 37968.7 604.324  22
   7   6   3 39013.4 893.563  37
  -7  -6  -3 38088.2 649.095  57
   7   6   4 12673.8 530.173  52
  -7  -6  -4 12194.9 338.466  23
  -7  -6  -4 12364.1 349.446  22
   7   6   4 12712.3 543.926  37
  -7  -6  -4 12411.6 371.252  57
  -7  -6  -5 4551.85 204.734  32
   7   6   5 4810.93 349.171  52
  -7  -6  -5 4775.38 211.092  23
  -7  -6  -5 5287.04 225.199  22
   7   6   5 4539.05 346.492  37
  -7  -6  -6 13089.6 342.494  32
   7   6   6 12866.7 586.872  52
  -7  -6  -6 13476.3 347.309  51
  -7  -6  -6 13022.1 341.355  23
  -7  -6  -6 13225.7 345.222  22
   7   6   6 15154.4 626.944  21
   7   6   6 11283.3 562.033  37
  -7  -6  -7 23550.7 440.759  32
   7   6   7 21529.7 755.770  52
  -7  -6  -7 23834.9 457.376  51
  -7  -6  -7 23732.3 437.112  23
   7   6   7 21179.6 748.718  37
   7   6   8 17642.1 629.558  52
  -7  -6  -8 17721.4 373.545  51
   7   6   8 18354.1 623.563  37
  -7  -7   0 10112.0 256.921  50
  -7  -7   0 10821.6 267.373  57
   7   7   1 15787.9 555.613  53
  -7  -7  -1 13364.2 324.627  50
  -7  -7  -1 12775.5 285.815  23
  -7  -7  -1 14130.8 323.260  22
   7   7   1 16022.2 546.122  21
  -7  -7  -1 14370.0 342.221  57
  -7  -7  -2 102.462 32.6674  23
  -7  -7  -2 112.870 34.6370  22
   7   7   2 78.0505 59.4004  21
  -7  -7  -2 111.703 37.7188  57
  -7  -7  -3 8352.09 262.935  23
  -7  -7  -3 8436.76 271.523  22
   7   7   3 8950.44 529.205  21
   7   7   3 9092.32 434.003  37
  -7  -7  -3 8449.42 290.421  57
  -7  -7  -4 10420.9 298.319  23
  -7  -7  -4 10421.1 299.909  22
   7   7   4 11477.3 618.353  21
   7   7   4 10886.7 498.754  37
  -7  -7  -4 10205.2 321.927  57
  -7  -7  -5 55493.2 679.740  32
  -7  -7  -5 56132.3 681.763  23
  -7  -7  -5 56115.8 683.435  22
  -7  -7  -6 4973.24 199.560  32
   7   7   6 4459.38 337.620  52
  -7  -7  -6 4881.14 194.626  23
  -7  -7  -7 15342.2 329.361  32
   7   7   7 13522.5 560.768  52
  -7  -7  -7 15056.8 318.900  51
  -7  -7  -7 15633.8 322.373  23
   7   7   7 13962.8 553.584  37
   7   7   8 4758.92 293.507  52
  -7  -8  -1 16793.6 319.732  50
  -7  -8  -1 17677.3 317.162  57
   7   8   2 9705.44 436.362  53
  -7  -8  -2 10479.2 264.111  22
  -7  -8  -2 10069.4 265.828  57
  -7  -8  -3 4558.68 176.743  23
  -7  -8  -3 4548.91 178.675  22
   7   8   3 5045.50 355.409  21
  -7  -8  -3 4500.30 189.120  57
   7   8   4 301.776 65.5019  56
   7   8   4 357.405 95.0987  53
  -7  -8  -4 418.817 55.9638  23
  -7  -8  -4 426.410 56.0805  22
   7   8   4 495.400 121.764  21
  -7  -8  -4 454.672 63.6305  57
  -7  -8  -5 8716.89 244.466  32
  -7  -8  -5 8749.58 241.848  23
  -7  -8  -5 8599.69 262.983  57
   7   8   6 6861.49 380.054  37
   8   0   2 9746.35 385.571  54
  -8   0  -3 629.704 65.4157  51
  -8   0  -4 72250.6 712.934  51
  -8   0  -5 661.710 69.4953  51
  -8   0  -6 7.58481 14.9398  51
   8   1   1 24291.5 652.281  54
   8   1   2 7026.79 378.743  54
   8   1   3 88.9900 57.9670  54
  -8  -1  -3 81.8351 28.6937  51
   8   1   4 38452.5 776.113  54
  -8  -1  -4 42969.2 586.367  51
  -8  -1  -5 3674.20 173.523  51
  -8  -1  -6 21795.7 406.742  51
  -8  -1  -7 2615.62 130.358  51
   8   2   1 25316.3 734.438  54
   8   2   2 16277.7 635.817  54
   8   2   3 6682.66 404.933  54
  -8  -2  -3 6167.37 211.951  51
   8   2   4 6473.36 361.438  54
  -8  -2  -4 6914.34 239.645  51
  -8  -2  -5 3417.82 171.411  51
  -8  -2  -6 11353.1 306.348  51
  -8  -2  -7 15778.7 340.216  51
   8   3   0 6240.04 307.586  54
  -8  -3   0 5256.87 207.345  44
   8   3   1 1965.02 218.147  54
   8   3   2 3312.51 307.084  54
   8   3   3 9487.42 511.867  54
   8   3   4 19939.1 679.482  54
  -8  -3  -4 19749.1 392.890  51
   8   3   5 7650.31 362.181  54
  -8  -3  -5 8079.41 260.167  51
  -8  -3  -6 73.9261 29.6098  51
   8   3   6 65.0242 48.2652  37
   8   3   7 1175.03 134.861  52
  -8  -3  -7 1207.29 97.5952  51
   8   3   7 1221.26 150.383  37
  -8  -3  -8 7655.36 218.773  51
   8   3   8 7909.26 347.907  37
  -8  -4   0 14779.0 342.263  44
   8   4   1 22513.3 707.264  54
   8   4   2 579.825 137.327  54
  -8  -4  -2 583.908 63.0002  57
   8   4   3 6955.13 450.607  54
   8   4   4 15620.8 626.867  54
  -8  -4  -5 17961.9 373.554  51
   8   4   5 16966.2 531.661  37
   8   4   6 7840.20 360.733  52
  -8  -4  -6 8576.10 260.414  51
   8   4   6 8461.81 401.878  37
   8   4   7 6426.88 331.181  52
  -8  -4  -7 6794.59 224.874  51
   8   4   7 7185.90 375.528  37
  -8  -4  -8 698.630 66.9403  51
   8   4   8 819.945 123.715  37
  -8  -5  -1 17974.7 324.764  57
  -8  -5  -2 16684.4 332.885  57
  -8  -5  -3 20267.2 366.137  22
  -8  -5  -3 21365.7 383.148  57
  -8  -5  -4 997.303 80.7941  23
   8   5   4 1030.26 127.777  37
  -8  -5  -4 1042.43 84.0933  57
   8   5   5 1133.23 140.918  52
  -8  -5  -5 1053.97 85.2148  23
   8   5   5 1236.99 154.161  37
   8   5   6 17050.2 555.151  52
  -8  -5  -6 17635.0 345.531  51
   8   5   6 18367.0 608.355  37
   8   5   7 11186.7 457.186  52
  -8  -5  -7 10841.7 265.742  51
  -8  -6  -2 13177.0 283.485  57
  -8  -6  -3 7311.23 212.930  22
  -8  -6  -3 7678.47 225.026  57
  -8  -6  -4 13933.0 305.532  22
   8   6   4 13969.1 474.299  37
  -8  -6  -4 13222.0 295.089  57
  -8  -6  -5 8026.26 223.843  23
  -8  -6  -5 7959.52 219.051  57
   8   6   6 1616.03 180.758  52
   8   6   6 1705.95 191.837  37
   8   6   7 12219.7 474.805  52
   8   6   7 12851.4 496.449  37
   8   7   3 59.6417 52.7903  53
  -8  -7  -3 59.3663 21.8899  57
   8   7   4 12032.3 500.632  53
  -8  -7  -4 10806.1 248.094  57
   8   7   5 26712.0 697.304  37
   0   0   0    0.00    0.00   0

TITL rp383abs in P-1
REM P-1 (#2 in standard setting)
CELL 1.54184   7.273254   8.765726   9.548514  79.9200  67.7734  69.9699
ZERR    1.00   0.000441   0.000333   0.000455   0.0037   0.0051   0.0045
LATT  1
SFAC C H O Ga
UNIT 20.00 26.00 6.00 2.00
REM  CrysAlisPro recorded range (K): Min=100.0; max=102.4; aver:101.2
TEMP -172
SIZE 0.09 0.10 0.47
TREF
HKLF 4
END
;
_shelx_hkl_checksum              86891
loop_
_space_group_symop_operation_xyz
'x, y, z'
'-x, -y, -z'
loop_
_atom_site_label
_atom_site_type_symbol
_atom_site_fract_x
_atom_site_fract_y
_atom_site_fract_z
_atom_site_U_iso_or_equiv
_atom_site_adp_type
_atom_site_occupancy
_atom_site_site_symmetry_order
_atom_site_calc_flag
_atom_site_refinement_flags_posn
_atom_site_refinement_flags_adp
_atom_site_refinement_flags_occupancy
_atom_site_disorder_assembly
_atom_site_disorder_group
Ga1 Ga 0.45332(3) 0.33525(2) 0.60540(2) 0.01310(9) Uani 1 1 d . . . . .
O1 O 0.4298(2) 0.55544(15) 0.63365(13) 0.0161(3) Uani 1 1 d . . . . .
C1 C 0.3654(3) 0.6379(2) 0.75768(19) 0.0126(3) Uani 1 1 d . . . . .
C2 C 0.3635(3) 0.8014(2) 0.73844(19) 0.0151(4) Uani 1 1 d . . . . .
H2 H 0.4088 0.8482 0.6387 0.018 Uiso 1 1 calc R U . . .
C3 C 0.2979(3) 0.8956(2) 0.8599(2) 0.0155(4) Uani 1 1 d . . . . .
H3 H 0.2969 1.0059 0.8429 0.019 Uiso 1 1 calc R U . . .
C4 C 0.2329(3) 0.8295(2) 1.0079(2) 0.0163(4) Uani 1 1 d . . . . .
H4 H 0.1887 0.8938 1.0918 0.020 Uiso 1 1 calc R U . . .
C5 C 0.2338(3) 0.6707(2) 1.03026(19) 0.0144(4) Uani 1 1 d . . . . .
H5 H 0.1908 0.6255 1.1309 0.017 Uiso 1 1 calc R U . . .
C6 C 0.2969(3) 0.5723(2) 0.90806(19) 0.0125(3) Uani 1 1 d . . . . .
C7 C 0.2837(3) 0.4062(2) 0.94276(19) 0.0127(3) Uani 1 1 d . . . . .
O2 O 0.3305(2) 0.30636(15) 0.84952(13) 0.0162(3) Uani 1 1 d . . . . .
O3 O 0.2105(2) 0.36906(15) 1.09026(13) 0.0160(3) Uani 1 1 d . . . . .
C8 C 0.1918(3) 0.2071(2) 1.1334(2) 0.0173(4) Uani 1 1 d . . . . .
H8A H 0.0964 0.1913 1.0912 0.026 Uiso 1 1 calc R U . . .
H8B H 0.1372 0.1933 1.2441 0.026 Uiso 1 1 calc R U . . .
H8C H 0.3292 0.1269 1.0942 0.026 Uiso 1 1 calc R U . . .
C9 C 0.2025(3) 0.3226(3) 0.5831(2) 0.0217(4) Uani 1 1 d . . . . .
H9A H 0.1738 0.2218 0.6340 0.033 Uiso 1 1 calc R U . . .
H9B H 0.2239 0.3238 0.4752 0.033 Uiso 1 1 calc R U . . .
H9C H 0.0840 0.4160 0.6287 0.033 Uiso 1 1 calc R U . . .
C10 C 0.7271(3) 0.1832(2) 0.5954(2) 0.0214(4) Uani 1 1 d . . . . .
H10A H 0.7860 0.2236 0.6529 0.032 Uiso 1 1 calc R U . . .
H10B H 0.8200 0.1736 0.4895 0.032 Uiso 1 1 calc R U . . .
H10C H 0.7122 0.0764 0.6389 0.032 Uiso 1 1 calc R U . . .
loop_
_atom_site_aniso_label
_atom_site_aniso_U_11
_atom_site_aniso_U_22
_atom_site_aniso_U_33
_atom_site_aniso_U_23
_atom_site_aniso_U_13
_atom_site_aniso_U_12
Ga1 0.01606(14) 0.01150(14) 0.01197(13) -0.00025(8) -0.00420(9) -0.00532(9)
O1 0.0250(7) 0.0125(6) 0.0099(6) -0.0008(5) -0.0027(5) -0.0082(5)
C1 0.0117(8) 0.0147(9) 0.0112(8) -0.0021(6) -0.0037(6) -0.0032(7)
C2 0.0173(9) 0.0153(9) 0.0124(8) 0.0016(7) -0.0046(7) -0.0064(7)
C3 0.0164(9) 0.0129(9) 0.0183(9) -0.0003(7) -0.0068(7) -0.0053(7)
C4 0.0195(9) 0.0165(9) 0.0132(8) -0.0035(7) -0.0052(7) -0.0050(7)
C5 0.0140(8) 0.0176(9) 0.0112(8) 0.0001(7) -0.0040(7) -0.0052(7)
C6 0.0113(8) 0.0131(9) 0.0132(8) 0.0000(7) -0.0046(6) -0.0037(7)
C7 0.0103(8) 0.0158(9) 0.0112(8) 0.0006(7) -0.0036(6) -0.0036(7)
O2 0.0223(7) 0.0138(6) 0.0121(6) -0.0004(5) -0.0037(5) -0.0078(5)
O3 0.0233(7) 0.0139(6) 0.0100(6) 0.0015(5) -0.0030(5) -0.0088(5)
C8 0.0223(10) 0.0139(9) 0.0156(9) 0.0036(7) -0.0052(7) -0.0090(7)
C9 0.0209(10) 0.0272(11) 0.0184(9) 0.0004(8) -0.0064(8) -0.0103(8)
C10 0.0219(10) 0.0220(10) 0.0182(9) 0.0001(7) -0.0080(8) -0.0036(8)
loop_
_atom_type_symbol
_atom_type_description
_atom_type_scat_dispersion_real
_atom_type_scat_dispersion_imag
_atom_type_scat_source
C C 0.0181 0.0091 'International Tables Vol C Tables 4.2.6.8 and 6.1.1.4'
H H 0.0000 0.0000 'International Tables Vol C Tables 4.2.6.8 and 6.1.1.4'
O O 0.0492 0.0322 'International Tables Vol C Tables 4.2.6.8 and 6.1.1.4'
Ga Ga -1.2846 0.7763 'International Tables Vol C Tables 4.2.6.8 and 6.1.1.4'
loop_
_geom_angle_atom_site_label_1
_geom_angle_atom_site_label_2
_geom_angle_atom_site_label_3
_geom_angle
_geom_angle_site_symmetry_1
_geom_angle_site_symmetry_3
_geom_angle_publ_flag
O1 Ga1 C9 111.82(8) . . ?
O1 Ga1 C10 112.17(8) . . ?
C9 Ga1 C10 135.91(9) . . ?
O1 Ga1 O2 86.57(7) . . ?
C9 Ga1 O2 92.98(8) . . ?
C10 Ga1 O2 92.44(9) . . ?
O1 Ga1 O1 75.49(7) . 2_666 ?
C9 Ga1 O1 93.69(8) . 2_666 ?
C10 Ga1 O1 94.31(9) . 2_666 ?
O2 Ga1 O1 162.06(5) . 2_666 ?
C1 O1 Ga1 132.56(11) . . ?
C1 O1 Ga1 122.93(11) . 2_666 ?
Ga1 O1 Ga1 104.51(7) . 2_666 ?
O1 C1 C2 118.23(15) . . ?
O1 C1 C6 124.39(16) . . ?
C2 C1 C6 117.37(16) . . ?
C3 C2 C1 122.04(16) . . ?
C3 C2 H2 119.0 . . ?
C1 C2 H2 119.0 . . ?
C2 C3 C4 120.27(17) . . ?
C2 C3 H3 119.9 . . ?
C4 C3 H3 119.9 . . ?
C5 C4 C3 119.06(17) . . ?
C5 C4 H4 120.5 . . ?
C3 C4 H4 120.5 . . ?
C4 C5 C6 121.86(16) . . ?
C4 C5 H5 119.1 . . ?
C6 C5 H5 119.1 . . ?
C5 C6 C1 119.38(16) . . ?
C5 C6 C7 118.08(15) . . ?
C1 C6 C7 122.52(16) . . ?
O2 C7 O3 120.66(16) . . ?
O2 C7 C6 125.94(16) . . ?
O3 C7 C6 113.40(15) . . ?
C7 O2 Ga1 127.99(12) . . ?
C7 O3 C8 116.61(14) . . ?
O3 C8 H8A 109.5 . . ?
O3 C8 H8B 109.5 . . ?
H8A C8 H8B 109.5 . . ?
O3 C8 H8C 109.5 . . ?
H8A C8 H8C 109.5 . . ?
H8B C8 H8C 109.5 . . ?
Ga1 C9 H9A 109.5 . . ?
Ga1 C9 H9B 109.5 . . ?
H9A C9 H9B 109.5 . . ?
Ga1 C9 H9C 109.5 . . ?
H9A C9 H9C 109.5 . . ?
H9B C9 H9C 109.5 . . ?
Ga1 C10 H10A 109.5 . . ?
Ga1 C10 H10B 109.5 . . ?
H10A C10 H10B 109.5 . . ?
Ga1 C10 H10C 109.5 . . ?
H10A C10 H10C 109.5 . . ?
H10B C10 H10C 109.5 . . ?
loop_
_geom_bond_atom_site_label_1
_geom_bond_atom_site_label_2
_geom_bond_distance
_geom_bond_site_symmetry_2
_geom_bond_publ_flag
Ga1 O1 1.9361(13) . ?
Ga1 C9 1.956(2) . ?
Ga1 C10 1.958(2) . ?
Ga1 O2 2.1606(16) . ?
Ga1 O1 2.2748(16) 2_666 ?
O1 C1 1.339(2) . ?
O1 Ga1 2.2747(16) 2_666 ?
C1 C2 1.408(3) . ?
C1 C6 1.417(3) . ?
C2 C3 1.379(3) . ?
C2 H2 0.9500 . ?
C3 C4 1.397(3) . ?
C3 H3 0.9500 . ?
C4 C5 1.369(3) . ?
C4 H4 0.9500 . ?
C5 C6 1.411(3) . ?
C5 H5 0.9500 . ?
C6 C7 1.464(2) . ?
C7 O2 1.230(2) . ?
C7 O3 1.328(2) . ?
O3 C8 1.445(2) . ?
C8 H8A 0.9800 . ?
C8 H8B 0.9800 . ?
C8 H8C 0.9800 . ?
C9 H9A 0.9800 . ?
C9 H9B 0.9800 . ?
C9 H9C 0.9800 . ?
C10 H10A 0.9800 . ?
C10 H10B 0.9800 . ?
C10 H10C 0.9800 . ?
loop_
_geom_torsion_atom_site_label_1
_geom_torsion_atom_site_label_2
_geom_torsion_atom_site_label_3
_geom_torsion_atom_site_label_4
_geom_torsion
_geom_torsion_site_symmetry_1
_geom_torsion_site_symmetry_2
_geom_torsion_site_symmetry_3
_geom_torsion_site_symmetry_4
_geom_torsion_publ_flag
Ga1 O1 C1 C2 -178.68(12) . . . . ?
Ga1 O1 C1 C2 2.3(2) 2_666 . . . ?
Ga1 O1 C1 C6 0.7(3) . . . . ?
Ga1 O1 C1 C6 -178.29(12) 2_666 . . . ?
O1 C1 C2 C3 179.42(16) . . . . ?
C6 C1 C2 C3 0.0(3) . . . . ?
C1 C2 C3 C4 0.8(3) . . . . ?
C2 C3 C4 C5 -0.5(3) . . . . ?
C3 C4 C5 C6 -0.6(3) . . . . ?
C4 C5 C6 C1 1.3(3) . . . . ?
C4 C5 C6 C7 -177.22(16) . . . . ?
O1 C1 C6 C5 179.57(15) . . . . ?
C2 C1 C6 C5 -1.0(2) . . . . ?
O1 C1 C6 C7 -1.9(3) . . . . ?
C2 C1 C6 C7 177.47(16) . . . . ?
C5 C6 C7 O2 179.27(16) . . . . ?
C1 C6 C7 O2 0.8(3) . . . . ?
C5 C6 C7 O3 0.3(2) . . . . ?
C1 C6 C7 O3 -178.25(15) . . . . ?
O3 C7 O2 Ga1 -179.63(11) . . . . ?
C6 C7 O2 Ga1 1.4(3) . . . . ?
O2 C7 O3 C8 0.6(2) . . . . ?
C6 C7 O3 C8 179.66(15) . . . . ?
