#------------------------------------------------------------------------------
#$Date: 2022-06-10 01:58:34 +0300 (Fri, 10 Jun 2022) $
#$Revision: 275947 $
#$URL: file:///home/coder/svn-repositories/cod/cif/7/71/04/7710461.cif $
#------------------------------------------------------------------------------
#
# This file is available in the Crystallography Open Database (COD),
# http://www.crystallography.net/
#
# All data on this site have been placed in the public domain by the
# contributors.
#
data_7710461
loop_
_publ_author_name
'Dong, Wen-Shuai'
'Cao , Wen-Li'
'Tariq, Qamar-un- Nisa'
'Wu, Xiaowei'
'Hu, Yong'
'Zhang, Chao'
'Zhang, Jianguo'
_publ_section_title
;
 Energetic bimetallic complexes as catalysts affect the thermal
 decomposition of ammonium perchlorate
;
_journal_name_full               'Dalton Transactions'
_journal_paper_doi               10.1039/D2DT00593J
_journal_year                    2022
_chemical_formula_moiety         'C6 H8 K2 Mn N8 O14, 2(H2 O)'
_chemical_formula_sum            'C6 H12 K2 Mn N8 O16'
_chemical_formula_weight         585.38
_space_group_crystal_system      triclinic
_space_group_IT_number           2
_space_group_name_Hall           '-P 1'
_space_group_name_H-M_alt        'P -1'
_atom_sites_solution_hydrogens   difmap
_atom_sites_solution_primary     dual
_audit_creation_date             2019-10-18
_audit_creation_method
;
Olex2 1.2
(compiled 2018.05.29 svn.r3508 for OlexSys, GUI svn.r5506)
;
_audit_update_record
;
2022-04-25 deposited with the CCDC.	2022-06-06 downloaded from the CCDC.
;
_cell_angle_alpha                85.36(3)
_cell_angle_beta                 78.15(3)
_cell_angle_gamma                78.30(3)
_cell_formula_units_Z            1
_cell_length_a                   7.3804(15)
_cell_length_b                   8.0849(16)
_cell_length_c                   8.4020(17)
_cell_measurement_reflns_used    1905
_cell_measurement_temperature    163(2)
_cell_measurement_theta_max      31.0898
_cell_measurement_theta_min      2.4790
_cell_volume                     480.06(18)
_computing_molecular_graphics    'Olex2 (Dolomanov et al., 2009)'
_computing_publication_material  'Olex2 (Dolomanov et al., 2009)'
_computing_structure_refinement  'ShelXL (Sheldrick, 2015)'
_computing_structure_solution    'ShelXT (Sheldrick, 2015)'
_diffrn_ambient_temperature      163.15
_diffrn_measured_fraction_theta_full 0.995
_diffrn_measured_fraction_theta_max 0.881
_diffrn_measurement_device_type  'multiwire proportional'
_diffrn_measurement_method       'phi and omega scans'
_diffrn_radiation_monochromator  graphite
_diffrn_radiation_type           MoK\a
_diffrn_radiation_wavelength     0.71073
_diffrn_reflns_av_R_equivalents  0.0412
_diffrn_reflns_av_unetI/netI     0.0400
_diffrn_reflns_Laue_measured_fraction_full 0.995
_diffrn_reflns_Laue_measured_fraction_max 0.881
_diffrn_reflns_limit_h_max       10
_diffrn_reflns_limit_h_min       -10
_diffrn_reflns_limit_k_max       11
_diffrn_reflns_limit_k_min       -11
_diffrn_reflns_limit_l_max       12
_diffrn_reflns_limit_l_min       -12
_diffrn_reflns_number            6774
_diffrn_reflns_point_group_measured_fraction_full 0.995
_diffrn_reflns_point_group_measured_fraction_max 0.881
_diffrn_reflns_theta_full        25.242
_diffrn_reflns_theta_max         31.520
_diffrn_reflns_theta_min         3.413
_exptl_absorpt_coefficient_mu    1.223
_exptl_absorpt_correction_T_max  1.0000
_exptl_absorpt_correction_T_min  0.8483
_exptl_absorpt_correction_type   multi-scan
_exptl_absorpt_process_details   'CrystalClear (Rigaku Inc., 2008)'
_exptl_crystal_colour            colorless
_exptl_crystal_density_diffrn    2.025
_exptl_crystal_description       block
_exptl_crystal_F_000             295
_exptl_crystal_size_max          0.15
_exptl_crystal_size_mid          0.14
_exptl_crystal_size_min          0.12
_refine_diff_density_max         0.551
_refine_diff_density_min         -0.604
_refine_diff_density_rms         0.097
_refine_ls_extinction_method     none
_refine_ls_goodness_of_fit_ref   1.079
_refine_ls_hydrogen_treatment    constr
_refine_ls_matrix_type           full
_refine_ls_number_parameters     151
_refine_ls_number_reflns         2819
_refine_ls_number_restraints     0
_refine_ls_restrained_S_all      1.079
_refine_ls_R_factor_all          0.0447
_refine_ls_R_factor_gt           0.0415
_refine_ls_shift/su_max          0.000
_refine_ls_shift/su_mean         0.000
_refine_ls_structure_factor_coef Fsqd
_refine_ls_weighting_details
'w=1/[\s^2^(Fo^2^)+(0.0474P)^2^+0.4955P] where P=(Fo^2^+2Fc^2^)/3'
_refine_ls_weighting_scheme      calc
_refine_ls_wR_factor_gt          0.1031
_refine_ls_wR_factor_ref         0.1064
_reflns_Friedel_coverage         0.000
_reflns_number_gt                2619
_reflns_number_total             2819
_reflns_threshold_expression     'I > 2\s(I)'
_iucr_refine_instructions_details
;
TITL bwn19428_a.res in P-1
    bwn19428.res
    created by SHELXL-2018/3 at 16:51:11 on 18-Oct-2019
CELL 0.71073 7.3804 8.0849 8.402 85.362 78.148 78.298
ZERR 1 0.0015 0.0016 0.0017 0.03 0.03 0.03
LATT 1
SFAC C H K Mn N O
UNIT 6 12 2 1 8 16

L.S. 4
PLAN  5
SIZE 0.15 0.14 0.12
TEMP -110
BOND $H
CONF
list 4
fmap 2
acta
OMIT 0 0 1
OMIT -1 1 3
OMIT 1 -2 2
OMIT 0 1 5
REM <olex2.extras>
REM <HklSrc "%.\\bwn19428.hkl">
REM </olex2.extras>

WGHT    0.047400    0.495500
FVAR       0.97774
MN1   4    0.500000    0.000000    0.500000    10.50000    0.01413    0.01066 =
         0.01376   -0.00093   -0.00156   -0.00124
O1    6   -0.158539    0.558531    0.887050    11.00000    0.02035    0.02383 =
         0.02544   -0.00849    0.00145    0.00448
PART 2
O2    6   -0.085354    0.284739    0.869323    11.00000    0.02312    0.02014 =
         0.02777    0.00082    0.00135   -0.00603
PART 0
O3    6    0.241102    0.152593    0.619032    11.00000    0.01531    0.01184 =
         0.01781   -0.00092   -0.00020   -0.00091
O4    6    0.501642    0.208444    0.315027    11.00000    0.02502    0.01214 =
         0.01540   -0.00100   -0.00067   -0.00051
PART 2
O5    6    0.502963    0.470980    0.235790    11.00000    0.02473    0.01701 =
         0.01669    0.00486   -0.00162   -0.00604
PART 0
O6    6    0.650692    0.118874    0.640267    11.00000    0.01910    0.01506 =
         0.01944   -0.00011   -0.00533   -0.00430
AFIX   3  0.8400
H6A   2    0.682892    0.208994    0.598377    11.00000   -1.20000
H6B   2    0.752062    0.059414    0.658947    11.00000   -1.20000
AFIX   0
N1    5   -0.058446    0.429171    0.824049    11.00000    0.01398    0.01866 =
         0.01823   -0.00204   -0.00343   -0.00017
N2    5    0.112298    0.601679    0.629005    11.00000    0.01664    0.01487 =
         0.01972   -0.00253   -0.00371   -0.00174
N3    5    0.246542    0.586629    0.498143    11.00000    0.01659    0.01374 =
         0.01893   -0.00138   -0.00333   -0.00177
N4    5    0.442915    0.365615    0.338875    11.00000    0.01558    0.01332 =
         0.01356    0.00067   -0.00328   -0.00298
C1    1    0.089456    0.444767    0.691867    11.00000    0.01482    0.01533 =
         0.01564   -0.00183   -0.00175   -0.00210
C2    1    0.215853    0.314036    0.599574    11.00000    0.01343    0.01405 =
         0.01537   -0.00181   -0.00497   -0.00171
C3    1    0.312065    0.416193    0.475790    11.00000    0.01429    0.01312 =
         0.01352   -0.00102   -0.00310   -0.00098
PART 1
K1    3    0.534499    0.247183    0.969670    11.00000    0.02446    0.01782 =
         0.01678    0.00011   -0.00156   -0.00390

PART 0
O7    6   -0.034218    0.935569    0.725387    11.00000    0.01970    0.01629 =
         0.02748   -0.00355   -0.00242   -0.00300
AFIX   3  0.8400
H7A   2    0.047702    0.996769    0.701977    11.00000   -1.20000
H7B   2   -0.001498    0.836339    0.692997    11.00000   -1.20000
AFIX   0

O8    6    0.266407    0.063118    0.967586    11.00000    0.02467    0.02456 =
         0.02151   -0.00014   -0.00455   -0.00091
AFIX   3  0.8400
H8A   2    0.172487    0.072208    1.044386    11.00000   -1.20000
H8B   2    0.219907    0.097908    0.884986    11.00000   -1.20000
AFIX   0
HKLF 4




REM  bwn19428_a.res in P-1
REM wR2 = 0.1064, GooF = S = 1.079, Restrained GooF = 1.079 for all data
REM R1 = 0.0415 for 2619 Fo > 4sig(Fo) and 0.0447 for all 2819 data
REM 151 parameters refined using 0 restraints

END  
     
WGHT      0.0474      0.4948 

REM Highest difference peak  0.551,  deepest hole -0.604,  1-sigma level  0.097
Q1    1   0.4280  0.5037  0.5552  11.00000  0.05    0.55
Q2    1   0.4000  0.1448  0.5220  11.00000  0.05    0.45
Q3    1   0.4023  0.0796  0.6339  11.00000  0.05    0.41
Q4    1   0.2702  0.3536  0.5331  11.00000  0.05    0.38
Q5    1   0.4134  0.2593  1.0967  11.00000  0.05    0.37

  REM The information below was added by Olex2.
  REM
  REM R1 = 0.0415 for 2619 Fo > 4sig(Fo) and 0.0447 for all 6790 data
  REM n/a parameters refined using n/a restraints
  REM Highest difference peak 0.55, deepest hole -0.60
  REM Mean Shift 0, Max Shift 0.000.

  REM +++ Tabular Listing of Refinement Information +++
  REM R1_all = 0.0447
  REM R1_gt = 0.0415
  REM wR_ref = 0.1064
  REM GOOF = 1.079
  REM Shift_max = 0.000
  REM Shift_mean = 0
  REM Reflections_all = 6790
  REM Reflections_gt = 2619
  REM Parameters = n/a
  REM Hole = -0.60
  REM Peak = 0.55
  REM Flack = n/a

  
;
_cod_data_source_file            d2dt00593j2.cif
_cod_data_source_block           bwn19428
_cod_database_code               7710461
_shelx_shelxl_version_number     2018/3
_shelx_space_group_comment
;
The symmetry employed for this shelxl refinement is uniquely defined
by the following loop, which should always be used as a source of
symmetry information in preference to the above space-group names.
They are only intended as comments.
;
_shelx_estimated_absorpt_t_max   0.867
_shelx_estimated_absorpt_t_min   0.838
_olex2_refinement_description
;
1. Fixed Uiso
 At 1.2 times of:
  All O(H,H) groups
2.a Riding coordinates:
 O6(H6A,H6B), O7(H7A,H7B), O8(H8A,H8B)
;
_olex2_submission_special_instructions 'No special instructions were received'
loop_
_space_group_symop_operation_xyz
'x, y, z'
'-x, -y, -z'
loop_
_atom_site_label
_atom_site_type_symbol
_atom_site_fract_x
_atom_site_fract_y
_atom_site_fract_z
_atom_site_U_iso_or_equiv
_atom_site_adp_type
_atom_site_occupancy
_atom_site_site_symmetry_order
_atom_site_calc_flag
_atom_site_refinement_flags_posn
_atom_site_refinement_flags_adp
_atom_site_refinement_flags_occupancy
_atom_site_disorder_assembly
_atom_site_disorder_group
Mn1 Mn 0.500000 0.000000 0.500000 0.01315(11) Uani 1 2 d S T P C .
O1 O -0.1585(2) 0.5585(2) 0.8870(2) 0.0249(3) Uani 1 1 d . . . . .
O2 O -0.0854(2) 0.2847(2) 0.8693(2) 0.0244(3) Uani 1 1 d . . . A 2
O3 O 0.2411(2) 0.15259(17) 0.61903(17) 0.0157(3) Uani 1 1 d . . . . .
O4 O 0.5016(2) 0.20844(18) 0.31503(17) 0.0184(3) Uani 1 1 d . . . . .
O5 O 0.5030(2) 0.47098(19) 0.23579(18) 0.0198(3) Uani 1 1 d . . . B 2
O6 O 0.6507(2) 0.11887(18) 0.64027(18) 0.0175(3) Uani 1 1 d . . . . .
H6A H 0.682892 0.208994 0.598377 0.021 Uiso 1 1 d R . . C .
H6B H 0.752062 0.059414 0.658947 0.021 Uiso 1 1 d R . . . .
N1 N -0.0584(2) 0.4292(2) 0.8240(2) 0.0173(3) Uani 1 1 d . . . . .
N2 N 0.1123(2) 0.6017(2) 0.6290(2) 0.0171(3) Uani 1 1 d . . . . .
N3 N 0.2465(2) 0.5866(2) 0.4981(2) 0.0166(3) Uani 1 1 d . . . . .
N4 N 0.4429(2) 0.3656(2) 0.33888(19) 0.0141(3) Uani 1 1 d . . . . .
C1 C 0.0895(3) 0.4448(2) 0.6919(2) 0.0155(3) Uani 1 1 d . . . . .
C2 C 0.2159(3) 0.3140(2) 0.5996(2) 0.0140(3) Uani 1 1 d . . . . .
C3 C 0.3121(3) 0.4162(2) 0.4758(2) 0.0138(3) Uani 1 1 d . . . . .
K1 K 0.53450(6) 0.24718(6) 0.96967(5) 0.02010(12) Uani 1 1 d . . . C 1
O7 O -0.0342(2) 0.93557(19) 0.72539(19) 0.0214(3) Uani 1 1 d . . . . .
H7A H 0.047702 0.996769 0.701977 0.026 Uiso 1 1 d R . . . .
H7B H -0.001498 0.836339 0.692997 0.026 Uiso 1 1 d R . . . .
O8 O 0.2664(2) 0.0631(2) 0.96759(19) 0.0242(3) Uani 1 1 d . . . . .
H8A H 0.172487 0.072208 1.044386 0.029 Uiso 1 1 d R . . C .
H8B H 0.219907 0.097908 0.884986 0.029 Uiso 1 1 d R . . . .
loop_
_atom_site_aniso_label
_atom_site_aniso_U_11
_atom_site_aniso_U_22
_atom_site_aniso_U_33
_atom_site_aniso_U_23
_atom_site_aniso_U_13
_atom_site_aniso_U_12
Mn1 0.0141(2) 0.0107(2) 0.01376(19) -0.00093(14) -0.00156(14) -0.00124(14)
O1 0.0204(7) 0.0238(8) 0.0254(8) -0.0085(6) 0.0014(6) 0.0045(6)
O2 0.0231(8) 0.0201(8) 0.0278(8) 0.0008(6) 0.0013(6) -0.0060(6)
O3 0.0153(6) 0.0118(6) 0.0178(6) -0.0009(5) -0.0002(5) -0.0009(5)
O4 0.0250(7) 0.0121(6) 0.0154(6) -0.0010(5) -0.0007(5) -0.0005(5)
O5 0.0247(7) 0.0170(7) 0.0167(6) 0.0049(5) -0.0016(6) -0.0060(6)
O6 0.0191(7) 0.0151(7) 0.0194(7) -0.0001(5) -0.0053(5) -0.0043(5)
N1 0.0140(7) 0.0187(8) 0.0182(8) -0.0020(6) -0.0034(6) -0.0002(6)
N2 0.0166(8) 0.0149(8) 0.0197(8) -0.0025(6) -0.0037(6) -0.0017(6)
N3 0.0166(8) 0.0137(8) 0.0189(8) -0.0014(6) -0.0033(6) -0.0018(6)
N4 0.0156(7) 0.0133(7) 0.0136(7) 0.0007(6) -0.0033(6) -0.0030(6)
C1 0.0148(8) 0.0153(9) 0.0156(8) -0.0018(7) -0.0017(7) -0.0021(7)
C2 0.0134(8) 0.0140(8) 0.0154(8) -0.0018(6) -0.0050(6) -0.0017(6)
C3 0.0143(8) 0.0131(8) 0.0135(8) -0.0010(6) -0.0031(6) -0.0010(6)
K1 0.0245(2) 0.0178(2) 0.0168(2) 0.00011(15) -0.00156(16) -0.00390(17)
O7 0.0197(7) 0.0163(7) 0.0275(8) -0.0035(6) -0.0024(6) -0.0030(5)
O8 0.0247(8) 0.0246(8) 0.0215(7) -0.0001(6) -0.0045(6) -0.0009(6)
loop_
_atom_type_symbol
_atom_type_description
_atom_type_scat_dispersion_real
_atom_type_scat_dispersion_imag
_atom_type_scat_source
C C 0.0033 0.0016 'International Tables Vol C Tables 4.2.6.8 and 6.1.1.4'
H H 0.0000 0.0000 'International Tables Vol C Tables 4.2.6.8 and 6.1.1.4'
K K 0.2009 0.2494 'International Tables Vol C Tables 4.2.6.8 and 6.1.1.4'
Mn Mn 0.3368 0.7283 'International Tables Vol C Tables 4.2.6.8 and 6.1.1.4'
N N 0.0061 0.0033 'International Tables Vol C Tables 4.2.6.8 and 6.1.1.4'
O O 0.0106 0.0060 'International Tables Vol C Tables 4.2.6.8 and 6.1.1.4'
loop_
_geom_angle_atom_site_label_1
_geom_angle_atom_site_label_2
_geom_angle_atom_site_label_3
_geom_angle
_geom_angle_site_symmetry_1
_geom_angle_site_symmetry_3
_geom_angle_publ_flag
O3 Mn1 O3 180.0 . 2_656 ?
O3 Mn1 O4 84.60(6) 2_656 2_656 ?
O3 Mn1 O4 95.40(6) 2_656 . ?
O3 Mn1 O4 95.40(6) . 2_656 ?
O3 Mn1 O4 84.60(6) . . ?
O3 Mn1 O6 91.30(6) . 2_656 ?
O3 Mn1 O6 88.70(6) 2_656 2_656 ?
O3 Mn1 O6 91.30(6) 2_656 . ?
O3 Mn1 O6 88.70(6) . . ?
O4 Mn1 O4 180.0 . 2_656 ?
O6 Mn1 O4 91.54(6) 2_656 2_656 ?
O6 Mn1 O4 91.54(6) . . ?
O6 Mn1 O4 88.46(6) 2_656 . ?
O6 Mn1 O4 88.46(6) . 2_656 ?
O6 Mn1 O6 180.0 2_656 . ?
N1 O1 K1 150.34(14) . 2_567 ?
C2 O3 Mn1 119.66(13) . . ?
Mn1 O4 K1 137.12(7) . 1_554 ?
N4 O4 Mn1 127.00(12) . . ?
N4 O4 K1 94.38(11) . 1_554 ?
Mn1 O6 H6A 115.3 . . ?
Mn1 O6 H6B 115.2 . . ?
Mn1 O6 K1 130.26(6) . . ?
H6A O6 H6B 103.4 . . ?
K1 O6 H6A 93.9 . . ?
K1 O6 H6B 93.8 . . ?
O1 N1 O2 123.02(18) . . ?
O1 N1 C1 119.25(18) . . ?
O2 N1 C1 117.71(17) . . ?
N3 N2 C1 109.24(17) . . ?
N2 N3 C3 107.36(16) . . ?
O4 N4 C3 119.70(16) . . ?
O4 N4 K1 62.35(9) . 1_554 ?
O5 N4 O4 119.30(16) . . ?
O5 N4 C3 120.99(16) . . ?
C3 N4 K1 149.04(12) . 1_554 ?
N1 C1 C2 128.19(18) . . ?
N2 C1 N1 119.36(18) . . ?
N2 C1 C2 112.19(17) . . ?
O3 C2 C1 131.51(18) . . ?
O3 C2 C3 129.34(18) . . ?
C1 C2 C3 99.14(16) . . ?
N3 C3 C2 112.06(17) . . ?
N4 C3 N3 119.07(17) . . ?
N4 C3 C2 128.64(17) . . ?
O1 K1 N4 58.99(5) 2_567 1_556 ?
O1 K1 K1 103.80(5) 2_567 2_657 ?
O1 K1 K1 60.05(4) 2_567 2_667 ?
O1 K1 H8B 68.9 2_567 . ?
O4 K1 O1 73.56(6) 1_556 2_567 ?
O4 K1 O6 152.59(4) 1_556 . ?
O4 K1 N4 23.27(4) 1_556 1_556 ?
O4 K1 K1 81.17(4) 1_556 2_657 ?
O4 K1 K1 86.21(4) 1_556 2_667 ?
O4 K1 H8B 106.9 1_556 . ?
O6 K1 O1 126.32(5) . 2_567 ?
O6 K1 N4 174.57(4) . 1_556 ?
O6 K1 K1 75.87(4) . 2_657 ?
O6 K1 K1 119.29(4) . 2_667 ?
O6 K1 H8B 70.2 . . ?
N4 K1 K1 63.51(4) 1_556 2_667 ?
N4 K1 K1 102.28(4) 1_556 2_657 ?
N4 K1 H8B 112.9 1_556 . ?
K1 K1 K1 162.03(3) 2_667 2_657 ?
K1 K1 H8B 120.8 2_667 . ?
K1 K1 H8B 52.3 2_657 . ?
O8 K1 O1 70.26(5) . 2_567 ?
O8 K1 O1 134.40(6) 2_657 2_567 ?
O8 K1 O4 93.21(6) . 1_556 ?
O8 K1 O4 73.21(6) 2_657 1_556 ?
O8 K1 O6 79.61(5) 2_657 . ?
O8 K1 O6 79.05(5) . . ?
O8 K1 N4 102.96(5) . 1_556 ?
O8 K1 N4 95.64(6) 2_657 1_556 ?
O8 K1 K1 40.69(4) 2_657 2_657 ?
O8 K1 K1 40.68(4) . 2_657 ?
O8 K1 K1 145.38(4) 2_657 2_667 ?
O8 K1 K1 128.29(4) . 2_667 ?
O8 K1 O8 81.38(6) 2_657 . ?
O8 K1 H8B 15.3 . . ?
O8 K1 H8B 92.2 2_657 . ?
H7A O7 H7B 116.3 . . ?
K1 O8 K1 98.62(6) 2_657 . ?
K1 O8 H8A 102.6 2_657 . ?
K1 O8 H8A 118.7 . . ?
K1 O8 H8B 128.3 2_657 . ?
K1 O8 H8B 106.1 . . ?
H8A O8 H8B 103.9 . . ?
loop_
_geom_bond_atom_site_label_1
_geom_bond_atom_site_label_2
_geom_bond_distance
_geom_bond_site_symmetry_2
_geom_bond_publ_flag
Mn1 O3 2.1521(16) . ?
Mn1 O3 2.1521(16) 2_656 ?
Mn1 O4 2.1983(16) 2_656 ?
Mn1 O4 2.1983(16) . ?
Mn1 O6 2.1690(15) 2_656 ?
Mn1 O6 2.1690(15) . ?
O1 N1 1.239(2) . ?
O1 K1 2.9634(19) 2_567 ?
O2 N1 1.241(2) . ?
O3 C2 1.282(2) . ?
O4 N4 1.275(2) . ?
O4 K1 2.8586(16) 1_554 ?
O5 N4 1.244(2) . ?
O6 H6A 0.8400 . ?
O6 H6B 0.8400 . ?
O6 K1 2.9326(17) . ?
N1 C1 1.406(3) . ?
N2 N3 1.316(2) . ?
N2 C1 1.363(3) . ?
N3 C3 1.379(2) . ?
N4 C3 1.372(2) . ?
N4 K1 3.2176(19) 1_554 ?
C1 C2 1.423(3) . ?
C2 C3 1.437(3) . ?
K1 K1 4.0764(12) 2_667 ?
K1 K1 4.1090(12) 2_657 ?
K1 O8 2.7097(19) . ?
K1 O8 2.7092(19) 2_657 ?
K1 H8B 3.0509 . ?
O7 H7A 0.8401 . ?
O7 H7B 0.8401 . ?
O8 H8A 0.8400 . ?
O8 H8B 0.8400 . ?
loop_
_geom_torsion_atom_site_label_1
_geom_torsion_atom_site_label_2
_geom_torsion_atom_site_label_3
_geom_torsion_atom_site_label_4
_geom_torsion
_geom_torsion_site_symmetry_1
_geom_torsion_site_symmetry_2
_geom_torsion_site_symmetry_3
_geom_torsion_site_symmetry_4
_geom_torsion_publ_flag
Mn1 O3 C2 C1 -160.81(17) . . . . ?
Mn1 O3 C2 C3 18.3(3) . . . . ?
Mn1 O4 N4 O5 157.99(14) . . . . ?
Mn1 O4 N4 C3 -23.3(2) . . . . ?
Mn1 O4 N4 K1 -167.93(16) . . . 1_554 ?
O1 N1 C1 N2 -4.2(3) . . . . ?
O1 N1 C1 C2 -177.80(19) . . . . ?
O2 N1 C1 N2 173.93(18) . . . . ?
O2 N1 C1 C2 0.3(3) . . . . ?
O3 C2 C3 N3 -178.83(18) . . . . ?
O3 C2 C3 N4 6.8(3) . . . . ?
O4 N4 C3 N3 -178.51(17) . . . . ?
O4 N4 C3 C2 -4.5(3) . . . . ?
O5 N4 C3 N3 0.2(3) . . . . ?
O5 N4 C3 C2 174.21(18) . . . . ?
N1 C1 C2 O3 -7.2(3) . . . . ?
N1 C1 C2 C3 173.52(19) . . . . ?
N2 N3 C3 N4 174.63(17) . . . . ?
N2 N3 C3 C2 -0.3(2) . . . . ?
N2 C1 C2 O3 178.81(19) . . . . ?
N2 C1 C2 C3 -0.5(2) . . . . ?
N3 N2 C1 N1 -174.26(17) . . . . ?
N3 N2 C1 C2 0.3(2) . . . . ?
C1 N2 N3 C3 0.0(2) . . . . ?
C1 C2 C3 N3 0.5(2) . . . . ?
C1 C2 C3 N4 -173.87(19) . . . . ?
K1 O1 N1 C1 138.6(2) 2_567 . . . ?
K1 O4 N4 C3 144.65(15) 1_554 . . . ?
K1 N4 C3 N3 -93.5(3) 1_554 . . . ?
K1 N4 C3 C2 80.5(3) 1_554 . . . ?
loop_
_refln_index_h
_refln_index_k
_refln_index_l
_refln_F_squared_meas
_refln_F_squared_sigma
0 0 1 131.05 1.77
0 0 -2 871.15 9.49
0 0 2 878.82 9.51
0 0 2 874.97 9.23
0 0 -2 881.23 9.24
0 0 -3 888.58 10.07
0 0 -3 881.26 10.2
0 0 3 876.15 9.8
0 0 -4 172.65 3.84
0 0 4 156.75 3.49
0 0 -4 152.22 3.68
0 0 4 176.15 3.77
0 0 -4 164.23 3.5
0 0 -5 200.38 6.48
0 0 5 191.99 6.1
0 0 -6 1104.13 26.61
0 0 6 1137.29 27.6
0 0 6 1104.44 26.41
0 0 -7 183.37 7.44
0 0 7 180.08 7.35
0 0 7 207.59 7.89
0 0 -8 462.44 19.25
0 0 8 445.73 18.89
0 0 8 442.08 18.25
0 0 9 151.66 8.51
0 0 9 144.86 7.59
0 0 -10 28.84 4.93
0 0 10 30.12 3.84
0 0 10 25.33 3.2
0 0 -11 133.91 15.72
0 0 11 168.61 10.46
0 0 11 153.73 9.09
0 1 -12 2.98 2.03
0 1 -11 97.01 11.15
0 -1 11 111.2 7.71
0 -1 11 109.03 7.02
0 1 -10 14.46 2.78
0 -1 10 12.35 2.36
0 -1 10 12.86 2.21
0 1 -9 566.22 25.9
0 -1 9 596.9 27.46
0 -1 9 583.52 26.59
0 1 -8 217.57 9.75
0 -1 8 205.26 9.66
0 -1 8 186.64 8.6
0 1 -7 86.48 6.05
0 1 -7 84.68 10.12
0 -1 7 100.07 6.84
0 1 -6 297.52 8.32
0 1 -6 269.97 8.9
0 -1 6 314.21 8.73
0 1 -5 176.14 5.76
0 1 -5 168.59 5.82
0 -1 5 193.43 6.28
0 1 -4 394.62 6.8
0 -1 4 363.41 6.3
0 1 -4 355.5 6.77
0 -1 4 340.63 6.27
0 1 -3 303.98 4.28
0 -1 3 289.68 4.12
0 1 -3 286.56 4.57
0 -1 3 315.53 6.05
0 1 -3 265.01 4.06
0 1 -2 24.04 0.8
0 -1 2 29.83 0.92
0 1 -2 24.39 1.19
0 -1 2 32.18 2.37
0 -1 2 30.08 1.12
0 1 -2 27.59 1.03
0 1 -1 240.14 2.65
0 1 -1 210.39 2.87
0 -1 1 224.48 2.96
0 -1 1 232.42 3.06
0 1 -1 209.64 2.82
0 -1 -1 6.44 0.52
0 1 1 7.07 0.46
0 1 1 5.94 0.5
0 -1 -1 8.06 0.49
0 1 1 7.21 0.44
0 -1 -1 6.94 0.4
0 -1 -2 1926.82 19.3
0 1 2 2047.14 20.32
0 -1 -2 1866.13 18.73
0 -1 -2 2019.7 19.7
0 -1 -3 4089.28 55.54
0 1 3 3796.96 37.39
0 1 3 3959.18 53.78
0 1 3 3928.89 38.52
0 1 3 3972.9 53.6
0 -1 -3 3791.52 36.52
0 -1 -4 278.46 5.53
0 1 4 324.3 6.3
0 1 4 312.76 5.61
0 -1 -4 338.13 5.89
0 -1 -5 29.99 1.88
0 1 5 25.07 1.88
0 1 5 25.29 1.55
0 -1 -6 1007.65 24.6
0 1 6 1027.97 25.15
0 1 6 1063.55 25.4
0 -1 -7 4.7 1.88
0 1 7 2.98 1.24
0 1 7 1.95 0.65
0 -1 -8 653.3 26.66
0 1 8 615.46 25.38
0 1 8 638.89 25.71
0 -1 -9 1.53 1.65
0 1 9 3.84 3.01
0 1 9 3.8 1.1
0 -1 -10 78.2 11.05
0 1 10 69.49 6.49
0 1 10 65.34 5.71
0 -1 -11 36.66 11.34
0 1 11 60.84 5.06
0 2 -11 3.06 1.8
0 -2 11 1.17 1.1
0 2 -10 73.81 8.03
0 -2 10 64.04 5.43
0 -2 10 65.58 5.27
0 2 -9 432.55 20.14
0 2 -9 414.62 19.88
0 -2 9 453.23 21.25
0 2 -8 502.82 22.82
0 2 -8 442.53 22.1
0 -2 8 469.36 21.56
0 2 -7 198.99 7.61
0 2 -7 184.58 8.11
0 -2 7 205.85 8.09
0 2 -6 226.14 7.17
0 2 -6 195.06 13.37
0 -2 6 210.36 13.3
0 2 -5 298.43 7.91
0 2 -5 308.25 9.9
0 -2 5 319.82 8.78
0 2 -4 334.38 9.49
0 -2 4 412.11 11.5
0 2 -4 380.47 11.37
0 -2 4 370.01 10.81
0 2 -3 5564.05 145.34
0 -2 3 5173.76 69.28
0 2 -3 5004.78 68.04
0 -2 3 5379.07 72.77
0 -2 3 5391.73 141.28
0 2 -3 5143.83 69.54
0 2 -2 238.28 3
0 -2 2 212.52 2.74
0 2 -2 216.95 3.69
0 -2 2 233.69 3.77
0 -2 2 228.93 3.69
0 -2 2 213.46 3.58
0 2 -1 2669.81 24.94
0 -2 1 2580.91 24.11
0 2 -1 2605.74 25.63
0 2 -1 2717.28 26.62
0 -2 1 2610.24 25.55
0 2 0 583.41 5.99
0 2 0 559.26 6.54
0 -2 0 577.45 6.67
0 2 0 581.25 6.62
0 -2 0 596.14 6.71
0 2 1 600.28 6.64
0 2 1 577.53 6.84
0 -2 -1 571.24 6.7
0 -2 -1 614.61 6.82
0 -2 -2 1119.42 12.12
0 2 3 165.41 3.77
0 -2 -3 154.87 3.47
0 2 3 185.17 3.6
0 -2 -3 160.54 3.2
0 -2 -4 1062.71 28.89
0 2 4 931.33 25.5
0 2 4 927.54 25.01
0 -2 -4 986.23 26.48
0 -2 -5 1213.39 28.96
0 2 5 1171.66 28.04
0 2 5 1251.79 29.28
0 -2 -6 561.93 14.82
0 2 6 486.69 13.07
0 2 6 482.07 12.29
0 -2 -7 458.75 16.18
0 2 7 436.88 15.62
0 2 7 463.87 15.81
0 -2 -8 1.37 1.87
0 2 8 0.65 1.78
0 2 8 0.38 0.76
0 -2 -9 43.86 6.15
0 2 9 38.44 4.62
0 2 9 43.49 4.27
0 -2 -10 46.9 7.66
0 2 10 43.98 4.75
0 2 10 32.66 3.57
0 -2 -11 3.03 1.92
0 2 11 7.04 3.03
0 -3 11 -0.3 1.11
0 3 -10 116.01 16.56
0 3 -10 117.51 9.65
0 -3 10 131.51 10.62
0 3 -9 40.15 8.57
0 -3 9 56.99 6.32
0 3 -8 178.76 7.79
0 3 -8 145.68 7.72
0 -3 8 175.18 8.09
0 3 -7 62.14 3.5
0 3 -7 57.8 9.44
0 -3 7 67.42 4.14
0 3 -6 225.37 7.08
0 3 -6 190.18 13.3
0 -3 6 199.63 13.51
0 3 -5 13.62 1.06
0 -3 5 14.99 1.09
0 3 -5 14.34 2.68
0 -3 5 17.88 1.52
0 3 -4 356.63 9.99
0 -3 4 311.85 8.79
0 3 -4 343.34 10.42
0 -3 4 340.34 10.23
0 3 -3 32.65 1.07
0 -3 3 37.37 1.16
0 3 -3 36.8 1.9
0 -3 3 37.34 1.78
0 3 -2 2296.97 30.78
0 -3 2 2345.35 31.39
0 3 -2 2145.61 30.25
0 -3 2 2226.99 31.15
0 -3 2 2310.74 32.38
0 3 -1 4.54 0.63
0 3 -1 2.53 0.24
0 3 -1 7.42 0.77
0 -3 1 3.33 0.66
0 3 -1 4.82 0.69
0 -3 1 2.28 0.75
0 -3 0 15.11 1.21
0 3 0 15.26 0.6
0 3 0 17.79 1.11
0 -3 0 17.61 0.98
0 -3 0 16.26 1.63
0 -3 -1 647.8 7.44
0 3 1 680.53 7.65
0 3 1 683.95 8.42
0 -3 -1 646.33 7.94
0 -3 -1 641.14 7.59
0 -3 -2 174.57 3.63
0 3 2 174.24 3.83
0 -3 -2 175.7 3.83
0 3 2 188.45 3.75
0 -3 -2 197.78 3.77
0 -3 -3 1288.01 19.02
0 3 3 1408.32 20.75
0 3 3 1296.53 18.65
0 -3 -3 1290.33 18.5
0 -3 -4 81.55 3.29
0 3 4 72.6 3.32
0 3 4 72.96 2.77
0 -3 -4 82.55 3.01
0 -3 -5 881.36 21.66
0 3 5 1033.35 25.11
0 3 5 1103.35 26
0 -3 -6 102.42 7.43
0 3 6 89.24 6.75
0 3 6 81.88 5.78
0 -3 -7 0.1 1.12
0 3 7 1.66 1.51
0 3 7 2.25 0.64
0 -3 -8 -0.01 1.72
0 3 8 0.52 1.7
0 3 8 6.05 1.49
0 -3 -9 586.19 27.33
0 3 9 578.33 27.11
0 3 9 620.47 28.05
0 -3 -10 2.72 1.64
0 3 10 0.4 1.45
0 -3 -11 123.38 19.81
0 4 -10 0.67 1.73
0 -4 10 3.92 1.89
0 4 -9 54.48 10.09
0 -4 9 67.36 6.09
0 4 -8 50.76 4.74
0 4 -8 38.35 8.8
0 -4 8 60.93 6
0 4 -7 75.74 13.5
0 -4 7 91.7 8.02
0 4 -6 49.69 3.12
0 4 -6 63.62 8.75
0 -4 6 63.04 4.53
0 4 -5 103.44 6.95
0 -4 5 78.35 5.36
0 4 -5 100.84 12.52
0 -4 5 89.68 6.54
0 4 -4 1218.08 27.96
0 -4 4 1207.95 27.7
0 4 -4 1214.92 29.24
0 -4 4 1271.77 30.36
0 4 -3 760.5 20.15
0 -4 3 758.8 20.09
0 4 -3 782.71 21.86
0 -4 3 762.4 21.28
0 4 -2 232.91 6.27
0 4 -2 212.92 5.74
0 4 -2 229.54 7.28
0 -4 2 222.24 7.01
0 4 -1 544.55 7.67
0 4 -1 551.83 7.77
0 4 -1 555.48 9.42
0 4 -1 558.38 9.4
0 -4 0 336.98 5.32
0 4 0 343.57 5.34
0 4 0 314.55 6.03
0 4 0 324.91 6.04
0 -4 -1 1554.8 21.87
0 4 1 1570.65 22.91
0 4 1 1471.74 21.23
0 -4 -1 1489.7 21.36
0 -4 -2 1012.97 27.33
0 4 2 1051.98 28.23
0 4 2 1110.26 30.16
0 4 2 1050.24 28.32
0 -4 -2 976.95 26.31
0 -4 -3 66.1 3.97
0 4 3 65.22 3
0 4 3 71.39 4.76
0 -4 -3 50.53 2.12
0 -4 -4 1563.97 36.75
0 4 4 1549.61 36.57
0 4 4 1628.06 37.74
0 -4 -5 52.35 4.23
0 4 5 67.73 3.6
0 4 5 73.2 2.87
0 -4 -6 51.25 5.62
0 4 6 38.59 3.36
0 4 6 34.66 2.77
0 -4 -7 1.54 1.04
0 4 7 1.49 1.8
0 -4 -8 8.55 2.06
0 4 8 9.21 2.38
0 4 8 7.26 1.33
0 -4 -9 5.02 1.42
0 4 9 6.8 2.92
0 4 9 3.28 1.4
0 -4 -10 125.62 17
0 4 10 135.42 11.18
0 -5 10 5.2 1.86
0 5 -9 109.3 21.6
0 -5 9 152.84 12.21
0 5 -8 87.39 14.28
0 -5 8 80.51 6.5
0 5 -7 1285.9 48.11
0 -5 7 1383.29 51.51
0 5 -6 116.04 9.9
0 -5 6 107.2 5.78
0 5 -5 613.68 19.77
0 5 -5 609.91 21
0 -5 5 578.72 19.88
0 5 -4 1.78 0.32
0 -5 4 1.28 0.29
0 5 -4 5.05 1.54
0 -5 4 3.01 0.89
0 5 -3 406.24 9.28
0 5 -3 385.73 10.71
0 -5 3 388.13 10.66
0 5 -2 9.49 1.31
0 -5 2 11.05 1.39
0 5 -1 397.9 9.27
0 5 -1 401.81 9.35
0 5 -1 445.87 11.66
0 5 -1 361.06 9.98
0 -5 0 431.54 11.78
0 5 0 374.32 10.27
0 5 0 481.29 13.94
0 5 0 465.6 13.39
0 -5 -1 1040.47 27.9
0 5 1 1107.91 29.6
0 5 1 1155.73 31.56
0 5 1 1199.66 32.44
0 -5 -2 1197.39 28.04
0 5 2 1077.04 25.91
0 5 2 1244.1 29.28
0 -5 -3 39.8 4.6
0 5 3 37.95 2.28
0 5 3 42.06 4.19
0 -5 -4 870.73 24.14
0 5 4 831.7 23.44
0 5 4 909.43 24.88
0 -5 -5 169.16 6.94
0 5 5 160.86 6.82
0 5 5 178.89 8.81
0 -5 -6 1216.46 48.03
0 5 6 1164.83 46.19
0 5 6 1190.49 53.97
0 -5 -7 171.65 16.15
0 5 7 179.76 8.71
0 5 7 141.35 14.37
0 -5 -8 273.63 23.08
0 5 8 245.9 12.6
0 5 8 223.83 10.83
0 -5 -9 5.95 1.56
0 5 9 4.3 2.89
0 -5 -10 365.17 21.71
0 5 10 381.33 20.69
0 6 -9 8.14 3.52
0 -6 9 8.07 2.55
0 6 -8 19.77 6.1
0 -6 8 21.38 4.64
0 6 -7 46.62 7.5
0 -6 7 43.01 5.07
0 6 -6 52.92 8.59
0 -6 6 60.43 5.1
0 6 -5 501.81 21.08
0 -6 5 571.55 23.5
0 6 -4 3 1.37
0 -6 4 4.74 1.95
0 6 -3 136.72 6.05
0 -6 3 140.08 6.03
0 6 -2 781.49 22.16
0 -6 2 749.12 21.26
0 6 -1 70.39 1.96
0 6 -1 73.44 3.6
0 6 -1 93.08 3.77
0 6 0 411.34 9.94
0 6 0 461.14 11.06
0 6 0 431.42 11.72
0 6 0 449.66 11.87
0 -6 -1 2683.19 170.91
0 6 1 2084.15 132.78
0 6 1 2544.51 162.42
0 6 1 2499.56 159.44
0 -6 -2 238.44 7.39
0 6 2 246.92 8.87
0 6 2 218.6 7.07
0 -6 -3 330.8 10.28
0 6 3 315.39 10.26
0 6 3 339.15 10.26
0 -6 -4 161.38 9.87
0 6 4 171.06 7.16
0 6 4 161.8 8.52
0 -6 -5 152.63 16.41
0 6 5 120.9 6.46
0 6 5 131.13 9.64
0 -6 -6 4.83 1.84
0 6 6 5.81 1.82
0 6 6 6.62 1.38
0 -6 -7 158.69 15.81
0 6 7 165.61 8.99
0 6 7 148.94 13.5
0 -6 -9 0.92 1.12
0 -7 8 282.12 15.75
0 7 -7 1.48 1.44
0 -7 7 7.78 2.05
0 7 -6 219.08 15.22
0 -7 6 246.22 16.68
0 7 -5 7.87 1.66
0 -7 5 2.14 1.77
0 7 -4 33.43 4.03
0 -7 4 35.31 4.05
0 7 -3 631.69 25.98
0 -7 3 738.05 29.92
0 7 -2 736.29 23.63
0 -7 2 783.15 24.9
0 7 -1 121.49 7.36
0 7 0 291.12 9.66
0 7 0 310.05 11.5
0 7 0 313.64 11.48
0 -7 -1 395.17 13.67
0 7 1 442.22 15.38
0 -7 -2 7.66 1.65
0 7 2 6.76 1.72
0 7 2 10.63 1.74
0 -7 -3 701.66 28.01
0 7 3 670.73 27.33
0 7 3 641.36 25.69
0 -7 -4 137.09 10.45
0 7 4 148.01 12.51
0 7 4 172.84 8.23
0 -7 -5 392.38 15.79
0 7 5 378.76 14.91
0 -7 -6 17.86 3.91
0 7 6 11.03 2.43
0 -7 -7 306.18 25.93
0 -7 -8 95.59 10.4
0 7 8 108.07 9.28
0 -7 -9 329.65 40.86
0 7 9 322.71 34.59
0 8 -7 38.75 8.33
0 -8 7 58.91 4.85
0 8 -6 122.1 15.62
0 -8 6 116.34 8.71
0 8 -5 29.01 5.08
0 -8 5 30.64 4.06
0 8 -4 55.57 9.12
0 -8 4 67.13 4.93
0 -8 3 64.86 6.37
0 8 -2 229.48 10.26
0 8 -1 119.12 7.17
0 8 0 37.67 4.26
0 8 0 61.23 7.59
0 8 1 23.93 2.36
0 8 1 26.4 3.15
0 8 1 29.33 3.72
0 -8 -2 439.16 19.7
0 8 2 410.32 19.36
0 8 2 462.69 21.12
0 -8 -3 2.08 1.04
0 8 3 0.82 2.11
0 8 3 0.99 0.59
0 -8 -4 103.58 11.55
0 8 4 80.22 12.44
0 8 4 81.51 16.53
0 -8 -5 0.36 1.11
0 8 5 5.91 2.49
0 8 5 0.83 0.78
0 -8 -6 96.1 10.38
0 8 6 86.39 7.77
0 -8 -7 207.37 24.96
0 8 7 199.89 15.7
0 -8 -8 29.78 11.11
0 8 8 68 8.72
0 9 -6 24.42 6.54
0 9 -5 147.51 22.06
0 -9 5 187.12 14.68
0 9 -4 4.29 2.06
0 -9 4 3.73 2.17
0 9 -3 139.5 11.45
0 9 -2 53.07 6.1
0 -9 2 36.78 4.63
0 9 -1 51.55 8.45
0 -9 1 52.9 8.5
0 9 0 73.86 5.24
0 9 1 33.86 5.84
0 9 1 40.41 7.75
0 9 2 8.62 2.47
0 9 2 8.02 2.16
0 9 3 1.11 1.65
0 9 3 2.47 1.02
0 -9 -4 217.89 16.53
0 9 4 203.31 15.92
0 9 4 179.07 19.93
0 -9 -5 4.59 2.1
0 9 5 11.7 3.26
0 9 5 6.37 1.9
0 -9 -6 152.91 10.23
0 9 6 147.06 9.33
0 -9 -7 2.42 1.65
0 9 7 2.61 1.86
0 10 -4 4.54 2.16
0 10 -3 129.57 8.21
0 -10 3 127.85 8.23
0 10 -2 36.61 7.53
0 -10 2 45.51 4.96
0 10 -1 727.81 135.48
0 -10 1 601.16 37.9
0 10 0 5.95 2.66
0 -10 0 3.44 2.22
0 10 1 142.07 10.1
0 10 2 2.06 1.77
0 10 2 3.98 1.63
0 10 3 367.52 27.16
0 10 3 372.24 67.37
0 10 4 1.21 1.58
0 10 5 112.98 12.78
0 11 -1 22.53 4.12
0 -11 1 15.43 3.06
0 11 0 2.31 1.52
0 -11 0 1.68 1.89
0 11 1 36.57 5.62
0 -11 -1 26.39 5.89
0 11 2 3.06 1.71
0 -11 -2 4.75 2.18
1 -11 0 112.82 13.25
1 -11 1 5.61 2.72
-1 10 4 48.62 6.35
-1 10 3 16.55 3.87
1 -10 -2 2.17 1.49
1 -10 0 13.4 3.19
1 -10 1 189.22 14.71
1 -10 2 18.37 4.71
1 -10 3 82.86 5.91
1 -9 -7 39.9 11.28
1 -9 -6 1.86 1.19
1 -9 -5 0.38 0.92
-1 9 5 1.61 1.69
1 -9 -4 101.58 11.3
-1 9 4 116.22 8.84
-1 9 3 1.02 1.91
-1 9 3 2.16 1.02
-1 9 2 192.11 13.5
-1 9 2 243.85 16.22
-1 9 1 53.65 6.41
1 -9 -1 61.39 6.59
-1 9 0 190.25 13.27
1 -9 0 170.73 11.79
-1 9 -1 5.15 2.08
1 -9 1 7.25 1.77
-1 9 -2 3.82 1.64
1 -9 2 9.75 2.31
-1 9 -3 7 2.31
1 -9 3 10.24 1.98
-1 9 -4 24.98 5.63
1 -9 4 22.58 4.76
-1 9 -5 86.89 6.36
1 -8 -7 34.45 8.73
-1 8 7 36.05 7.43
1 -8 -6 40.71 7.75
-1 8 6 41.42 4.27
1 -8 -5 96.03 11.09
-1 8 5 87.44 7.59
1 -8 -4 151.48 8.13
-1 8 4 130.94 7.6
-1 8 4 128.41 7.12
1 -8 -3 78.65 13.9
-1 8 3 75.81 7.32
-1 8 3 75.86 6.71
1 -8 -2 79.41 7.08
-1 8 2 64.9 5.69
-1 8 2 79.6 6
-1 8 1 24.02 2.17
-1 8 1 68.57 5.83
-1 8 0 899.98 34.17
1 -8 0 981.94 36.71
-1 8 -1 4.08 2.33
1 -8 1 2.06 1.43
-1 8 -2 169.54 8.17
1 -8 2 193.53 9.03
-1 8 -3 45.69 5.08
1 -8 3 56.54 5.91
-1 8 -4 222.39 11.91
-1 8 -5 17.49 3.06
1 -8 5 27.42 4.46
-1 8 -6 300.01 23.32
1 -8 6 338.72 25.17
-1 8 -7 0.78 1.24
1 -8 7 1.56 1.96
1 -7 -8 1.89 1.7
-1 7 8 1.32 2.25
1 -7 -7 230.81 18.5
-1 7 7 228.36 15.6
1 -7 -6 88.41 12.74
-1 7 6 78.96 6.66
1 -7 -5 347.02 16.43
-1 7 5 345.45 16.76
-1 7 5 369.06 16.83
1 -7 -4 166.13 11.64
-1 7 4 179.75 8.58
-1 7 4 160.65 7.68
1 -7 -3 767.46 30.83
-1 7 3 687.74 28.13
-1 7 3 655.85 26.24
1 -7 -2 1.17 0.54
-1 7 2 0.21 1.45
-1 7 2 0.03 0.63
-1 7 1 449.62 14.36
-1 7 1 408.93 14.14
-1 7 1 413.54 13.65
-1 7 0 382.57 12.06
-1 7 0 421.34 14.39
1 -7 0 411.17 13.68
-1 7 -1 9.76 0.87
-1 7 -1 17.64 2.4
1 -7 1 18.13 2.28
-1 7 -2 353.46 15.31
1 -7 2 346.42 14.8
-1 7 -3 142.28 7.94
-1 7 -4 645.36 25.32
1 -7 4 695.65 26.82
-1 7 -5 0.11 1.56
1 -7 5 3.28 1.91
-1 7 -6 62.87 9.88
1 -7 6 77.07 6.69
-1 7 -7 15.21 3.61
1 -7 7 18.64 4.08
-1 7 -8 58.89 10.91
1 -7 8 95.96 6.78
1 -6 -9 3.39 1.59
-1 6 9 5.06 2.77
1 -6 -8 182.23 12.62
-1 6 8 173.85 12.27
1 -6 -7 155.63 13.45
-1 6 7 172.54 12.44
1 -6 -6 2.58 1.01
-1 6 6 2.09 2.6
-1 6 6 1.92 1.12
1 -6 -5 108.24 8.88
-1 6 5 74.89 6.91
-1 6 5 66.41 6.63
1 -6 -4 186.74 7.17
-1 6 4 164.22 6.95
-1 6 4 173.68 6.54
1 -6 -3 419.05 14.5
-1 6 3 391.44 14.19
-1 6 3 343.59 11.83
1 -6 -2 17.92 2.77
-1 6 2 11.1 1.72
-1 6 2 16.44 2.79
1 -6 -1 256.04 7.8
-1 6 1 259.3 8.69
-1 6 1 266.22 8.25
-1 6 0 89.1 6.1
-1 6 0 97.83 6.64
-1 6 0 111.72 8.07
-1 6 0 119.62 8.26
-1 6 -1 1252.77 33.14
-1 6 -1 1380.98 36.45
-1 6 -1 1463.66 39.87
1 -6 1 1502.66 40.57
-1 6 -2 233 6.74
-1 6 -2 239.26 6.8
-1 6 -2 274.03 9.13
-1 6 -3 601.92 19.29
-1 6 -3 674.31 22.98
1 -6 3 641.36 21.79
-1 6 -4 58.81 4.5
1 -6 4 55.92 4.16
-1 6 -5 525.79 24.36
1 -6 5 566.78 25.95
-1 6 -6 1.66 1.83
1 -6 6 7.92 2.69
-1 6 -7 1.05 1.38
1 -6 7 2 1.24
-1 6 -8 5.37 2.57
1 -6 8 3.28 1.65
-1 6 -9 92.07 17.01
1 -6 9 121.9 8.09
1 -5 -9 3.97 1.67
-1 5 9 4.66 2.3
1 -5 -8 166.45 13.22
-1 5 8 146.83 10.8
1 -5 -7 1.05 1.02
-1 5 7 3.52 2.05
1 -5 -6 528.59 21.96
-1 5 6 525.02 21.97
-1 5 6 472.25 21.35
1 -5 -5 51.68 8.74
-1 5 5 42.61 3.47
-1 5 5 44.12 4.84
1 -5 -4 796.29 22.4
-1 5 4 761.13 21.76
-1 5 4 787.75 21.53
1 -5 -3 2.23 0.88
-1 5 3 2.54 1.35
-1 5 3 1.61 0.57
1 -5 -2 245.22 7.29
-1 5 2 208.83 6.64
-1 5 2 202.84 5.69
1 -5 -1 393.62 10
-1 5 1 339.92 9.48
-1 5 1 396.25 10.13
-1 5 0 297.21 7.59
-1 5 0 354.7 8.91
-1 5 0 332.96 9.29
-1 5 0 354.74 9.32
-1 5 -1 419.06 10.14
-1 5 -1 510.11 12.2
-1 5 -1 487.11 12.76
-1 5 -2 231.42 5.85
-1 5 -2 230.08 5.83
-1 5 -2 245.18 7.55
1 -5 2 204.64 6.35
-1 5 -3 317.26 8
-1 5 -3 327.1 8.03
-1 5 -3 347.7 9.97
1 -5 3 364.74 10.14
-1 5 -4 108.65 7.22
1 -5 4 106.91 7.1
-1 5 -4 130.97 9.45
1 -5 4 122.35 8.71
-1 5 -5 247.55 8.03
-1 5 -5 277.04 11.11
1 -5 5 259.04 9.56
-1 5 -6 0.74 0.54
-1 5 -6 9.42 3.32
1 -5 6 3.18 1.37
-1 5 -7 69.29 12.06
1 -5 7 71.28 6.72
-1 5 -8 5.88 2.45
1 -5 8 8.46 2.5
-1 5 -9 336.4 24.99
1 -5 9 327.27 24.32
1 -4 -10 1.3 1.46
-1 4 10 3.99 3.19
1 -4 -9 104.17 13.75
-1 4 9 83.97 7.69
1 -4 -8 20.96 5.31
-1 4 8 19.13 3.99
1 -4 -7 46.69 6.39
-1 4 7 31.93 4.14
-1 4 7 28.32 2.75
1 -4 -6 2.96 1.25
-1 4 6 3.75 1.62
-1 4 6 0.75 0.64
1 -4 -5 10 2.47
-1 4 5 10.24 1.66
-1 4 5 11.99 1.64
1 -4 -5 6.58 1
1 -4 -4 562.04 14.52
-1 4 4 581.72 15.18
-1 4 4 578.56 14.38
1 -4 -4 516.41 12.57
1 -4 -3 1081.69 25.78
-1 4 3 1072.51 25.88
-1 4 3 1011.58 23.94
1 -4 -3 970.83 22.67
1 -4 -2 29.8 3.26
-1 4 2 29.41 1.93
-1 4 2 36.87 3.17
1 -4 -2 26.87 1.4
1 -4 -1 430.82 12.3
-1 4 1 419.33 12.27
-1 4 1 449.11 12.56
1 -4 -1 406.65 11.4
-1 4 0 955.64 25.63
-1 4 0 1014.21 27.13
-1 4 0 1105.23 30.07
-1 4 0 1068.01 28.78
1 -4 0 960.95 25.89
-1 4 -1 176.3 5.18
-1 4 -1 181.45 5.31
-1 4 -1 164.52 5.59
1 -4 1 179.78 5.75
-1 4 -2 1005.09 26.72
-1 4 -2 1056.25 28.06
-1 4 -2 953.44 26.25
1 -4 2 987.41 26.97
-1 4 -3 432.37 10.41
1 -4 3 422.89 10.15
-1 4 -3 474.96 12.51
1 -4 3 477.91 12.39
-1 4 -4 315.6 7.98
1 -4 4 278.07 7.03
-1 4 -4 325.19 9.32
1 -4 4 331.3 9.37
-1 4 -5 135.6 9.04
1 -4 5 118.43 7.92
-1 4 -5 116.99 10.6
1 -4 5 139.12 9.69
-1 4 -6 223.5 7.6
-1 4 -6 225.8 8.86
1 -4 6 225.19 8.57
-1 4 -7 219.03 10.38
-1 4 -7 218.47 12.62
1 -4 7 229.88 11.48
-1 4 -8 169.4 8.4
-1 4 -8 156.91 17.33
1 -4 8 202.83 10.5
-1 4 -9 4.72 2.14
1 -4 9 1.53 1.29
-1 4 -10 40.05 7.69
1 -4 10 40.84 3.94
1 -3 -10 2.38 1.19
-1 3 10 4.24 2.37
1 -3 -9 288.93 19.62
-1 3 9 287.03 19.41
1 -3 -8 1.54 1.41
-1 3 8 3.44 1.71
-1 3 8 4.53 1.31
1 -3 -7 1378.2 54.38
-1 3 7 1224.9 48.54
-1 3 7 1526.03 59.17
1 -3 -6 3.17 1.06
-1 3 6 1.22 1.09
-1 3 6 2.38 0.66
-1 3 5 463.11 11.43
1 -3 -5 432.59 10.72
1 -3 -4 29.42 2.63
1 -3 -4 15.25 0.98
1 -3 -3 368.15 10.85
-1 3 3 388.87 10.96
1 -3 -3 399.68 11.02
1 -3 -2 50.27 2.85
-1 3 2 50.36 1.8
-1 3 2 54.1 2.07
-1 3 2 61.19 3.22
1 -3 -2 53.3 1.5
1 -3 -1 1389.37 19.84
-1 3 1 1407.97 20.06
-1 3 1 1425.56 20.78
1 -3 -1 1320.53 19.25
1 -3 -1 1342.51 18.84
-1 3 0 374.56 4.89
-1 3 0 371.95 5.63
1 -3 0 363.11 5.43
-1 3 0 379.79 5.14
1 -3 0 382.38 6.23
-1 3 -1 2518.06 34.2
1 -3 1 2524.96 34.82
1 -3 1 2435.25 33.72
-1 3 -2 608.33 9.05
1 -3 2 645.19 9.47
-1 3 -2 745.01 11.91
1 -3 2 714.79 11.3
-1 3 -3 637.81 17.26
1 -3 3 710.84 19.1
-1 3 -3 605.71 17.06
1 -3 3 639.01 17.87
-1 3 -4 27.07 1.4
1 -3 4 17.99 1.06
-1 3 -4 29.35 3.71
1 -3 4 24.48 1.79
-1 3 -5 23.25 1.41
-1 3 -5 29.23 3.88
1 -3 5 25.34 1.91
-1 3 -6 989.84 26.94
-1 3 -6 975.89 27.31
1 -3 6 982.33 27.44
-1 3 -7 3.11 1.21
-1 3 -7 1.72 1.14
1 -3 7 8.61 2.11
-1 3 -8 135.05 6.18
-1 3 -8 129.74 13.94
1 -3 8 151.9 7.34
-1 3 -9 4.7 1.26
-1 3 -9 13.07 4.28
1 -3 9 16.9 2.5
-1 3 -10 196.7 13.28
-1 3 -10 192.06 16.44
1 -3 10 224.72 15.12
1 -3 11 6.16 2.15
1 -2 -11 30.7 5.86
-1 2 10 71.66 6.14
1 -2 -9 62.26 13.1
-1 2 9 72.3 5.03
1 -2 -8 295.21 12.62
-1 2 8 300.89 12.77
-1 2 8 294.43 11.74
1 -2 -7 -0.52 1.55
-1 2 7 3.72 1.18
-1 2 7 4.14 0.9
1 -2 -6 2.08 0.95
-1 2 6 2.48 1.08
-1 2 6 1.86 0.83
1 -2 -5 207.18 8.15
-1 2 5 198.04 6.25
-1 2 5 220.35 5.94
1 -2 -5 209.26 5.67
1 -2 -4 72.54 8.02
-1 2 4 67.7 2.96
-1 2 4 61.9 2.26
1 -2 -4 62.3 2.21
1 -2 -3 3662.8 50.41
-1 2 3 3561.74 49.17
-1 2 3 3586.19 48.23
1 -2 -3 3625.24 48.7
1 -2 -2 4.73 0.91
-1 2 2 4.05 0.55
-1 2 2 6.81 0.82
1 -2 -2 5.46 0.73
-1 2 2 5.2 0.8
1 -2 -2 6.14 0.42
-1 2 1 396.05 5.19
-1 2 1 422.9 5.75
1 -2 -1 397.24 5.39
-1 2 1 410.02 4.67
1 -2 -1 435.5 5.04
-1 2 0 903.93 9.63
-1 2 0 877.59 9.92
1 -2 0 916.51 10.2
1 -2 0 909.88 9.5
1 -2 0 923.24 9.7
-1 2 -1 4794.79 64.07
1 -2 1 4641.6 62.02
1 -2 1 4380.76 59.13
1 -2 1 4615.17 62.03
-1 2 -2 82.99 1.78
1 -2 2 81.73 1.67
-1 2 -2 71.06 2.09
1 -2 2 75.02 1.98
1 -2 2 69.13 1.93
-1 2 -2 75.91 1.98
-1 2 -3 1785.11 24.84
1 -2 3 1689.76 23.52
-1 2 -3 1629.09 23.84
1 -2 3 1652.46 23.79
-1 2 -4 264.69 7.78
1 -2 4 259.7 7.59
-1 2 -4 247.11 7.71
1 -2 4 218.96 6.93
-1 2 -5 588.68 14.48
-1 2 -5 579.58 15.07
1 -2 5 589.28 14.99
-1 2 -6 67.87 4.97
-1 2 -6 71.67 7.76
1 -2 6 74.05 5.51
-1 2 -7 820.1 27.06
-1 2 -7 802.19 26.94
1 -2 7 812.89 27.24
-1 2 -8 71.94 6.39
-1 2 -8 67.72 9.75
1 -2 8 69.25 6.25
-1 2 -9 8.61 1.52
-1 2 -9 5.29 1.44
1 -2 9 7.06 1.5
-1 2 -10 3.61 1.47
-1 2 -10 1.58 0.96
1 -2 10 2.45 1.29
-1 2 -11 2.74 1.84
1 -2 11 1.47 1.78
1 -2 11 2.93 1.36
1 -1 -11 34.56 7.53
1 -1 -10 112.11 11.29
-1 1 10 92.13 7.16
1 -1 -9 71 10.47
-1 1 9 65.36 7.19
-1 1 9 67.62 4.13
-1 1 8 322.72 15.47
1 -1 -7 2.17 1.39
-1 1 7 5.85 1.51
-1 1 7 4.95 0.85
1 -1 -6 2078.18 55.95
-1 1 6 1970.65 52.94
-1 1 6 2309.9 60.92
1 -1 -5 173.49 5.68
-1 1 5 140.27 4.87
-1 1 5 167.07 4.77
1 -1 -5 162.63 4.61
1 -1 -4 16.92 2.78
-1 1 4 14 1.21
-1 1 4 22.11 1.16
1 -1 -3 24.26 3.42
-1 1 3 22.5 1.2
-1 1 3 20.74 1.3
1 -1 -3 20.69 1.24
-1 1 3 22.91 0.92
1 -1 -3 22.3 0.84
1 -1 -2 3388.46 33.42
-1 1 2 3440.03 33.66
1 -1 -2 3761.84 36.49
-1 1 2 3320.69 31.21
1 -1 -2 3466.78 32.54
1 -1 -1 276.56 3.84
-1 1 1 308.49 4.15
-1 1 1 288.8 4.01
-1 1 0 511.71 5.87
-1 1 0 549.28 6.12
-1 1 0 519.89 5.92
1 -1 0 519.16 5.88
-1 1 -1 54.36 1.3
-1 1 -1 66.24 1.65
1 -1 1 63.06 1.45
1 -1 1 67.13 1.48
-1 1 -1 62.07 1.39
-1 1 -2 2.57 0.46
1 -1 2 1.97 0.37
-1 1 -2 1.31 0.5
1 -1 2 5.36 0.63
1 -1 2 2.3 0.55
-1 1 -2 0.98 0.3
1 -1 3 3023.23 29.66
1 -1 3 3006.23 29.92
1 -1 3 2837.31 28.51
-1 1 -3 2878.08 28.68
-1 1 -4 233.11 4.62
1 -1 4 224.64 4.48
-1 1 -4 217.77 4.72
1 -1 4 209.55 4.56
-1 1 -5 2043.3 47.42
1 -1 5 1975.69 52.82
-1 1 -6 121.07 4.28
-1 1 -6 120.6 7.13
1 -1 6 107.25 4.1
-1 1 -7 388.89 13.68
-1 1 -7 367.62 15.38
1 -1 7 374.48 13.34
-1 1 -8 39.51 2.82
-1 1 -8 34.42 7.44
1 -1 8 37.98 2.99
-1 1 -9 691.38 31.21
1 -1 9 658.07 29.86
-1 1 -10 10.2 2.4
1 -1 10 3.39 1.88
1 -1 10 6.48 1.51
-1 1 -11 183.79 11.13
1 -1 11 190.06 11.56
1 -1 11 177.95 10.44
-1 1 -12 21.04 4.09
1 -1 12 37.11 5.42
1 0 -11 97.9 15.51
1 0 -10 3.6 2.14
-1 0 10 6.48 1.95
-1 0 10 6.6 2.13
1 0 -9 23.36 5.79
-1 0 9 32.06 5.51
-1 0 9 32.18 5.3
1 0 -8 230.4 11.45
-1 0 8 192.72 9.9
-1 0 8 212.57 10.23
1 0 -7 552.75 19.01
-1 0 7 582.35 20.08
-1 0 7 557.87 18.76
-1 0 6 1227.35 29.72
-1 0 6 1319.3 31.08
1 0 -5 13.55 1.72
-1 0 5 13.39 1.5
-1 0 5 10.59 0.95
1 0 -5 11.72 0.95
1 0 -4 1899.37 27.13
-1 0 4 1783.72 25.88
-1 0 4 1943.8 27.18
1 0 -4 1866.61 26.01
1 0 -3 595.53 7.53
-1 0 3 599.86 7.44
-1 0 3 575.53 7.4
-1 0 3 573.83 6.74
1 0 -3 586.42 6.73
1 0 -2 327.76 4.45
-1 0 2 375.06 4.9
-1 0 2 350.62 4.8
-1 0 2 361.69 4.94
-1 0 2 348.05 4.05
1 0 -2 368.41 4.21
1 0 -1 410.25 4.99
-1 0 1 428.39 4.99
-1 0 1 430.09 4.96
1 0 -1 434.38 4.97
-1 0 1 447.29 4.5
1 0 1 66.29 1.33
-1 0 -1 62.58 1.32
1 0 1 60.08 1.07
1 0 1 59.58 1.27
-1 0 -1 61.45 1.29
-1 0 -2 6556.49 87.48
1 0 2 6757.47 90.1
-1 0 -2 6255.04 83.44
1 0 2 6547.08 87.28
-1 0 -2 5996.93 80.15
-1 0 -3 448.27 6.05
1 0 3 437.45 5.82
1 0 3 384.33 5.4
-1 0 -3 399.33 5.5
1 0 4 1947.43 27.52
-1 0 -4 2052.01 29.12
-1 0 -5 20.53 1.47
-1 0 -5 32.68 4.05
1 0 5 27.5 1.7
-1 0 -6 55.9 2.85
-1 0 -6 52.3 6.77
1 0 6 57.17 2.58
1 0 7 215.85 7.3
-1 0 -8 2.3 1.33
1 0 8 4.97 1.33
1 0 8 3.81 1.02
-1 0 -9 38.43 4.19
1 0 9 28.16 3.28
1 0 9 31.62 3.17
-1 0 -10 5.35 2.37
1 0 10 2.6 2.14
1 0 10 4.46 1.65
-1 0 -11 211.57 16.61
1 0 11 239.84 18.33
1 0 11 214.54 16.31
1 0 12 47.87 6.25
1 1 -11 50.81 10.02
1 1 -10 121.87 15.31
-1 -1 10 117.09 8.62
-1 -1 10 111.02 7.94
1 1 -9 338.49 23.13
-1 -1 9 365.47 17.65
-1 -1 9 409.76 19.13
1 1 -8 76.82 12.91
-1 -1 8 79.78 7.2
-1 -1 8 64.2 5.71
1 1 -7 85.86 12.55
-1 -1 7 91.62 6.52
-1 -1 7 89.32 6.09
1 1 -6 76.19 9.67
-1 -1 6 69.67 5.08
1 1 -5 580.48 14.44
1 1 -5 484.99 12.88
-1 -1 5 631.1 15.52
1 1 -4 634.85 17.49
-1 -1 4 724.18 19.74
1 1 -4 556.91 15.72
-1 -1 4 648.6 17.83
1 1 -4 647.24 17.71
1 1 -3 120.08 2.91
-1 -1 3 110.35 2.54
1 1 -3 129.6 3.86
-1 -1 3 132.03 2.9
1 1 -3 132.62 2.89
1 1 -2 2719.95 26.34
-1 -1 2 2772.12 26.78
1 1 -2 2764.6 27.17
-1 -1 2 2687.79 26.11
-1 -1 2 2645.19 25.74
1 1 -1 35.84 0.9
-1 -1 1 37.78 1.3
1 1 -1 36.74 1.52
-1 -1 1 35.01 0.93
1 1 0 1234.26 11.96
1 1 0 1203.52 12.04
-1 -1 0 1248.94 12.4
-1 -1 -1 1789.64 17.57
1 1 1 1863.53 18.46
1 1 1 1747.21 16.67
1 1 1 1852.91 18.19
-1 -1 -1 1721.69 16.95
1 1 2 159.26 2.7
1 1 2 163.99 3.51
1 1 2 156.62 2.54
1 1 2 156.03 2.72
1 1 3 182.56 3.3
1 1 3 166.06 3.06
1 1 3 166.01 3.06
1 1 3 171.52 3.17
-1 -1 -3 154.35 2.91
-1 -1 -4 10.49 1.07
1 1 4 8.81 1.66
1 1 4 9.1 0.86
1 1 4 6.5 0.9
-1 -1 -4 7.76 0.86
-1 -1 -5 82.6 3.38
1 1 5 78.25 3.34
1 1 5 76.09 3.07
-1 -1 -6 1746.89 41.07
1 1 6 1602.63 37.91
1 1 6 1550.1 36.44
-1 -1 -7 39.71 3.63
1 1 7 44.28 3.88
1 1 7 39.36 3.34
-1 -1 -8 319.31 13.87
1 1 8 261.71 11.76
1 1 8 286.11 12.38
1 1 9 4.05 2.19
1 1 9 3.89 1.22
-1 -1 -10 226.97 15.59
1 1 10 246.97 17
1 1 10 224.06 15.17
-1 -1 -11 2.96 1.61
1 1 11 5.14 2.31
1 1 11 2.73 1.48
1 2 -11 1.37 1.84
-1 -2 10 133.98 9.88
-1 -2 10 106.18 7.73
1 2 -9 69.82 8.73
-1 -2 9 80.86 6.5
-1 -2 9 79.47 6.24
1 2 -8 585.04 22.52
-1 -2 8 601.94 23.18
1 2 -7 183.68 7.35
1 2 -7 169.39 7.64
-1 -2 7 203.12 7.63
1 2 -6 9.38 2.12
1 2 -6 18.92 3.67
-1 -2 6 11.06 1.38
1 2 -5 4.43 1.33
1 2 -5 4.23 1.17
-1 -2 5 3.63 0.69
1 2 -4 472.97 13.19
-1 -2 4 372.36 10.51
1 2 -4 367.41 11.66
-1 -2 4 390.25 11.26
1 2 -3 2296.24 31.53
-1 -2 3 2219.34 30.37
1 2 -3 2197.96 30.98
-1 -2 3 2147.12 30.17
-1 -2 3 2133.85 29.81
-1 -2 3 2156.92 30.2
1 2 -2 765.13 8.05
-1 -2 2 766.32 7.99
1 2 -2 696.81 8.31
-1 -2 2 767.16 8.89
1 2 -1 3925.26 37.54
-1 -2 1 3847.12 36.74
1 2 -1 3886.24 37.48
-1 -2 1 3995.87 53.85
-1 -2 0 234.05 2.68
1 2 0 230.13 3.07
-1 -2 0 222.15 2.98
1 2 0 212.16 3.25
-1 -2 0 234.02 3.43
-1 -2 -1 3.39 0.48
1 2 1 4.79 0.46
1 2 1 2.45 0.35
-1 -2 -1 2.99 0.44
1 2 1 4.3 0.58
-1 -2 -1 5.3 0.55
-1 -2 -2 27.34 1.21
1 2 2 25.13 1.05
1 2 2 26.83 1.1
1 2 2 21.43 1.04
-1 -2 -2 24.74 1.06
1 2 3 3944.78 38.83
1 2 3 4209.15 57.11
-1 -2 -3 3802.1 37.15
-1 -2 -3 4153.32 56.31
-1 -2 -4 4.47 0.77
1 2 4 6.35 0.83
-1 -2 -4 4.62 0.66
-1 -2 -5 132.29 4.78
1 2 5 140.04 4.98
1 2 5 131.35 4.57
-1 -2 -6 43.5 2.63
1 2 6 37.65 2.47
1 2 6 31.43 1.85
-1 -2 -7 467.35 16.37
1 2 7 460.17 16.22
1 2 7 509.71 17.43
-1 -2 -8 278.59 12.38
1 2 8 261.3 11.81
1 2 8 242.62 10.65
-1 -2 -9 133.46 7.62
1 2 9 131.59 7.43
1 2 9 143.43 7.55
-1 -2 -10 0.75 1.71
1 2 10 1.4 2.1
1 2 10 1.48 1.07
-1 -2 -11 29.75 6.11
1 2 11 38.57 5.16
1 2 11 29.14 5.79
-1 -3 11 3.44 1.71
-1 -3 10 153.64 12.23
-1 -3 10 167.59 13.06
1 3 -9 17.93 3.29
1 3 -9 8.09 2.56
-1 -3 9 14.86 2.37
1 3 -8 107.27 10.92
1 3 -8 108.01 11.29
-1 -3 8 85.6 5.23
1 3 -7 280.7 12.51
1 3 -7 264.26 12.86
-1 -3 7 290.68 12.64
1 3 -6 1098.23 55.63
1 3 -6 1101.06 56.28
-1 -3 6 1079.25 35.32
1 3 -5 9.87 1.64
-1 -3 5 7.4 0.78
1 3 -5 5.75 1.34
-1 -3 5 3.6 0.68
1 3 -4 223.63 5.85
-1 -3 4 192.8 5.1
1 3 -4 203.96 6.15
-1 -3 4 203.93 5.96
1 3 -3 26.88 2.31
-1 -3 3 21.84 0.98
1 3 -3 31.12 4.52
-1 -3 3 22.37 1.4
1 3 -2 2886.02 38.45
-1 -3 2 2741.7 36.53
1 3 -2 2695.92 37.36
-1 -3 2 2786.16 38.4
1 3 -2 2774.27 38.53
1 3 -1 15.52 0.96
-1 -3 1 12.92 0.82
1 3 -1 17.64 2.58
-1 -3 1 17.17 1.04
1 3 0 245.91 2.84
-1 -3 0 276.8 4.06
1 3 0 261.89 4.26
-1 -3 0 270.5 4.45
-1 -3 -1 558.67 6.4
1 3 1 567.78 6.43
1 3 1 551.33 6.78
-1 -3 -1 551.76 6.68
-1 -3 -1 525.96 6.71
-1 -3 -2 410.82 5.56
1 3 2 458.29 5.94
1 3 2 453.94 6.06
-1 -3 -2 436.27 5.8
-1 -3 -2 468.52 6.26
1 3 3 402.05 7.03
1 3 3 409.29 7.13
-1 -3 -4 262.49 8.08
1 3 4 260.3 8
1 3 4 277.56 8.31
-1 -3 -5 1878.37 43.91
1 3 5 1517.03 35.72
1 3 5 1556.33 36.37
-1 -3 -6 53.63 4.25
1 3 6 48.38 4.04
1 3 6 47.86 3.8
-1 -3 -7 485.14 17.02
1 3 7 507.03 17.74
1 3 7 483.19 16.6
-1 -3 -8 53.44 5.31
1 3 8 45.33 4.59
1 3 8 54.72 5.02
-1 -3 -9 71.86 7
1 3 9 68.37 6.66
1 3 9 85.98 5.16
-1 -3 -10 7.44 2.34
1 3 10 5.84 2.65
1 3 10 5.89 1.47
-1 -3 -11 102.58 10.21
-1 -4 10 27.35 5.71
1 4 -9 109.26 14.51
-1 -4 9 138.37 9.76
1 4 -8 2.85 1.42
1 4 -8 3.58 1.55
-1 -4 8 3.27 2.39
1 4 -7 105.3 6.84
-1 -4 7 107.29 6
1 4 -6 97.48 8.1
1 4 -6 97.61 12.36
-1 -4 6 93.84 4.54
1 4 -5 4.07 0.85
-1 -4 5 1.64 0.41
-1 -4 5 6.98 1.44
1 4 -4 1718.07 109.38
-1 -4 4 1448.17 33.07
1 4 -4 1594.87 37.98
-1 -4 4 1618.04 38.11
1 4 -3 361.9 8.42
-1 -4 3 318.15 7.41
1 4 -3 353.47 9.48
-1 -4 3 340.28 9.16
1 4 -2 1553.94 41.63
1 4 -2 1612.35 43.26
1 4 -1 286.25 5.49
-1 -4 1 262.69 5.1
1 4 -1 296.94 5.89
-1 -4 0 1642.71 22.22
1 4 0 1505.13 20.37
1 4 0 1490.25 21.46
-1 -4 0 1580.12 22.58
1 4 0 1636.43 23.67
-1 -4 -1 838.66 12.16
1 4 1 822.47 11.88
1 4 1 833.31 12.78
-1 -4 -1 878.96 13.28
-1 -4 -2 852.3 12.83
1 4 2 893.06 13.74
-1 -4 -3 107.54 3.82
1 4 3 139.6 4.79
1 4 3 143.89 6.66
-1 -4 -4 3068.12 70.32
1 4 4 2482.45 57.22
1 4 4 2597.45 59.67
-1 -4 -5 389.88 10.62
1 4 5 327.26 9.29
1 4 5 365.08 9.8
-1 -4 -6 167.98 6.87
1 4 6 164.65 6.99
1 4 6 157.38 6.25
-1 -4 -7 8.35 1.68
1 4 7 10.61 2.25
1 4 7 7.67 1.19
-1 -4 -8 231.66 10.23
1 4 8 226.7 9.59
-1 -4 -9 390.21 18.7
1 4 9 380.72 17.88
-1 -4 -10 12.02 2.92
1 4 10 12.93 3.36
1 4 10 20.45 4.11
1 4 11 72.39 9.16
-1 -5 10 3.6 2.31
1 5 -9 24.29 9.92
-1 -5 9 51.14 5
1 5 -8 83.71 14.63
-1 -5 8 98.1 7.45
-1 -5 7 122.37 6.86
1 5 -6 12.95 1.92
-1 -5 6 16.5 2.28
1 5 -5 2042.27 60.2
-1 -5 5 2136.41 84.46
-1 -5 4 14.23 1.01
-1 -5 4 19.92 2.31
-1 -5 3 517.64 13.54
1 5 -2 71.28 7.35
1 5 -1 9.47 2.41
-1 -5 0 335.48 9.08
1 5 0 321.28 9.71
-1 -5 -1 90.47 4.67
1 5 1 78.2 2.63
1 5 1 87.02 6.84
-1 -5 -2 460.1 11.37
1 5 2 424.89 10.53
1 5 2 509.74 12.94
-1 -5 -3 33.45 1.85
1 5 3 27.21 2.85
-1 -5 -4 850.48 20.81
1 5 4 1039.38 25.02
-1 -5 -5 95.03 6.84
1 5 5 81.77 9.08
-1 -5 -6 380.45 13.01
1 5 6 343.15 12.05
1 5 6 339.34 11.48
-1 -5 -7 122.97 6.8
1 5 7 95.45 8.77
1 5 7 93.24 7.88
-1 -5 -8 224.73 11.49
1 5 8 201.96 10.6
1 5 8 181.56 9.19
-1 -5 -9 42.81 5.8
1 5 9 57.93 5.86
1 5 9 55.14 5.05
-1 -5 -10 184.67 22.22
1 5 10 212.2 16.35
1 6 -9 2.53 1.45
-1 -6 9 14.46 3.26
1 6 -8 5.46 1.93
-1 -6 8 0.36 1.25
1 6 -7 31.91 6.28
-1 -6 7 35.68 4.45
1 6 -6 49.7 7.46
-1 -6 6 59.64 5.84
1 6 -5 565.68 25.95
-1 -6 5 564 25.65
1 6 -4 24.45 3.76
-1 -6 4 29.78 2.58
1 6 -3 82.55 6.15
-1 -6 3 70.5 5.13
1 6 -2 636.96 18.39
1 6 -2 666.64 19.14
1 6 -1 306.49 8.8
1 6 -1 306.03 8.83
-1 -6 0 147.01 3.93
1 6 0 134.18 3.42
1 6 0 147.97 5.07
1 6 0 130.22 6.2
-1 -6 -1 487.05 11.84
1 6 1 458.3 11.1
1 6 1 487.45 12.79
1 6 1 491.77 12.95
-1 -6 -2 2.72 1.13
1 6 2 3.72 1.69
1 6 2 1.32 0.77
-1 -6 -3 1147.28 31.11
1 6 3 1156.12 31.76
1 6 3 1139.46 31.21
-1 -6 -4 4.76 1.19
1 6 4 5.04 1.5
1 6 4 5.21 1.43
-1 -6 -5 78.61 5.38
1 6 5 97.88 4.66
1 6 5 103.77 7.69
-1 -6 -6 95.82 10.34
1 6 6 103.51 7.82
1 6 6 111.51 12.62
-1 -6 -7 147.86 12.67
1 6 7 151.12 8.74
1 6 7 134.14 11.91
-1 -6 -8 134.9 11.9
1 6 8 141.35 10.6
1 6 8 135.76 12.86
-1 -6 -9 10.26 2.95
1 6 9 11.18 2.98
-1 -6 -10 5.39 2.08
1 6 10 5.98 1.79
1 7 -8 421.75 22.47
-1 -7 8 463.44 48.98
1 7 -7 32.42 4.77
-1 -7 7 28.69 5.59
1 7 -6 324.2 22.84
-1 -7 6 298.85 19.99
1 7 -5 11.77 2.92
-1 -7 5 16.55 2.48
1 7 -4 336.03 16.06
-1 -7 4 365.46 17.26
1 7 -3 9.55 1.64
-1 -7 3 7.14 1.52
1 7 -2 58.75 4.16
1 7 -1 57.78 4.49
1 7 -1 64.67 10.04
1 7 0 113.62 6.9
1 7 0 130.33 4.36
1 7 0 134.8 6.1
1 7 0 141.95 6.06
-1 -7 -1 720.04 23.39
1 7 1 827.23 27.57
1 7 1 701.13 23.57
-1 -7 -2 1043.58 33.75
1 7 2 938.69 31.05
1 7 2 1047.47 34.67
-1 -7 -3 35.22 3.23
1 7 3 40.61 3.54
1 7 3 27.48 3.37
-1 -7 -4 7.54 1.65
1 7 4 18.51 2.46
1 7 4 12.56 2.16
-1 -7 -5 64.43 8.09
1 7 5 51.42 5
1 7 5 70.64 8.42
-1 -7 -6 282.45 19.16
1 7 6 253.12 12.72
1 7 6 269.95 12.94
-1 -7 -7 172.88 18.89
1 7 7 168.64 12.18
1 7 7 176.19 18.2
-1 -7 -8 40.18 7.25
1 7 8 22.07 4.73
1 7 8 24.93 5.71
-1 -7 -9 326.7 25.11
1 7 9 293.72 16.26
1 8 -7 22.87 6.15
-1 -8 7 37.59 7.64
1 8 -6 0.88 1.44
-1 -8 6 0.32 1.26
1 8 -5 2.03 1.29
-1 -8 5 1.88 1.12
1 8 -4 7.85 2.28
-1 -8 4 11.71 2.81
1 8 -3 61.38 6.32
-1 -8 3 76.37 7.31
1 8 -2 682.52 26.29
-1 -8 2 695.99 26.84
1 8 -1 59.47 5.58
1 8 -1 71.8 10.1
1 8 0 938.93 37.43
1 8 0 966.79 38.56
1 8 1 35 2.72
1 8 1 45.29 5.62
-1 -8 -2 1.67 0.66
1 8 2 3.99 1.85
1 8 2 3.83 1.54
-1 -8 -3 2.13 0.68
1 8 3 3.27 1.36
1 8 3 4.2 1.88
-1 -8 -4 467.56 18.25
1 8 4 471.84 18.89
1 8 4 500.3 20.38
-1 -8 -5 2.64 1.84
1 8 5 3.18 2
1 8 5 3.19 1.13
-1 -8 -6 315.37 26.61
1 8 6 335.07 22.42
1 8 6 374.22 25.21
-1 -8 -7 3.43 1.69
1 8 7 4.33 2.34
1 8 7 0.58 1.06
-1 -8 -8 31.2 7.06
1 8 8 33.31 7.04
1 9 -6 2.87 2.3
1 9 -5 95.27 11.97
-1 -9 5 83.87 7.27
1 9 -4 6.37 2.4
-1 -9 4 8.19 2.71
1 9 -3 278.69 18.86
-1 -9 3 325.43 21.79
1 9 -2 2.55 1.32
-1 -9 2 1.63 1.89
1 9 -1 188.73 9.87
1 9 0 147.1 8.02
1 9 0 145.31 7.87
1 9 1 102.69 6.29
1 9 1 103.89 12.97
1 9 2 56.72 8.94
1 9 2 69.72 13.21
1 9 3 70.28 4.82
1 9 3 42.24 10.41
-1 -9 -4 73.17 9.14
1 9 4 92.67 7.12
1 9 4 97.68 11.03
-1 -9 -5 27.64 6.61
1 9 5 35.96 4.32
1 9 5 30.26 4.6
-1 -9 -6 356.78 26.16
1 9 6 328.23 24.48
1 9 6 344.9 25.63
-1 -9 -7 2.75 1.36
1 9 7 1.3 1.98
-1 -9 -8 299.6 32
1 10 -4 1.51 1.77
-1 -10 4 10.03 3.47
1 10 -3 219.69 17.09
-1 -10 3 243.66 18.64
1 10 -2 8.29 3.31
1 10 -1 296.38 19.49
-1 -10 1 272.17 17.98
1 10 0 1.78 1.65
1 10 0 1.6 1.54
1 10 1 217.64 16.94
1 10 1 189.79 14.8
1 10 2 22.85 5.03
1 10 2 21.27 5.32
1 10 3 146.66 10.55
1 10 3 138.46 18.1
1 10 4 4.73 2.73
1 10 4 2.71 1.35
1 10 5 284.45 15.9
1 10 5 240.15 25.74
1 10 6 8.53 2.61
1 11 -2 67.95 8.21
1 11 -1 8.79 2.76
-1 -11 1 22.54 4.02
1 11 0 1.4 1.89
-1 -11 0 1.18 1.72
1 11 1 72.85 8.97
1 11 1 49.46 6.29
1 11 2 2.83 1.85
1 11 2 0.89 1.07
1 11 3 12.14 2.67
1 11 3 10.75 2.94
1 11 4 1.31 1.58
1 11 4 0.94 1.31
-2 10 2 14.41 3.18
-2 10 1 35.21 7.21
-2 10 0 16.62 4.35
2 -10 0 6.66 2.29
-2 10 -1 136.41 9
-2 10 -2 17.55 3.83
2 -10 2 12.23 3.24
2 -10 3 1.44 1.57
2 -9 -6 262.97 28.2
2 -9 -5 6.38 1.78
-2 9 5 14.95 3.63
2 -9 -4 255.51 19.04
-2 9 4 238.76 18.2
-2 9 3 3.55 2.17
-2 9 3 0.86 1.59
-2 9 2 276.45 18.34
-2 9 1 30.3 3.8
2 -9 -1 33.35 3.78
-2 9 0 260.39 20.04
2 -9 0 249.5 18.88
-2 9 -1 1.54 1.76
2 -9 1 4.27 1.71
-2 9 -2 79.71 6.72
2 -9 2 90.69 7.2
-2 9 -3 81.4 6.62
2 -9 3 61.97 5.51
-2 9 -4 31.87 6.77
2 -9 4 22.21 4.9
-2 9 -5 45.47 5.33
2 -9 5 49.28 4.58
2 -8 -7 12.37 2.52
2 -8 -6 5.92 1.95
-2 8 6 9.36 2.72
2 -8 -5 10.39 2.95
-2 8 5 7.6 2.47
2 -8 -4 72.61 13.16
-2 8 4 83.94 7.47
2 -8 -3 58.73 12.36
-2 8 3 72.06 6.06
-2 8 2 642.58 29.7
2 -8 -2 495.72 22.54
-2 8 1 6.09 1.37
-2 8 1 2.94 2.14
2 -8 -1 1.44 0.96
-2 8 0 79.46 12.06
-2 8 0 66.05 6.66
2 -8 0 75.04 6.87
-2 8 -1 6.53 2.86
2 -8 1 7.78 1.77
-2 8 -2 632.43 29.36
2 -8 2 655.73 29.89
-2 8 -3 73.71 5.29
2 -8 3 82.54 5.5
-2 8 -4 422.11 27.95
2 -8 4 362.45 23.98
-2 8 -5 4.24 1.86
2 -8 5 3.02 2.51
-2 8 -6 300.67 22.63
2 -7 -8 21.72 5.34
2 -7 -7 48.76 11.29
-2 7 7 73.37 6.67
2 -7 -6 33.12 7.98
-2 7 6 35.13 4.35
2 -7 -5 523.33 24.28
-2 7 5 481.12 22.87
2 -7 -4 9.45 2
-2 7 4 13.95 2.79
2 -7 -3 336.54 13.83
-2 7 3 353.15 14.82
-2 7 3 348.87 13.51
2 -7 -2 225.56 10.86
-2 7 2 211.36 10.9
2 -7 -2 215.98 10.3
-2 7 1 64.06 3.9
-2 7 1 85.45 5.47
2 -7 -1 73.04 3.92
-2 7 0 0.96 0.9
-2 7 0 6.61 2.74
2 -7 0 5.99 1.38
-2 7 -1 10.34 2.19
2 -7 1 17.37 1.9
-2 7 -2 2.67 1.92
2 -7 2 0.99 1.01
-2 7 -3 264.98 11.63
2 -7 3 233.91 10.28
-2 7 -4 59.24 5.86
2 -7 4 60.98 6.28
-2 7 -5 93.49 6.25
2 -7 5 103.11 6.49
-2 7 -6 214.9 16.86
2 -7 6 201.68 16.17
-2 7 -7 2.72 1.52
2 -7 7 3.74 2.17
-2 7 -8 77.81 14.53
2 -6 -8 34.91 10.75
-2 6 8 41.4 8.17
2 -6 -7 111.28 13.67
-2 6 7 99.49 8.55
2 -6 -6 354.94 27.65
-2 6 6 340.64 16.7
2 -6 -5 115.57 11.26
-2 6 5 100.68 7.95
2 -6 -4 158.05 14.28
-2 6 4 120.15 6.84
-2 6 4 118.81 5.72
2 -6 -3 801.28 25.22
-2 6 3 892.32 28.25
-2 6 3 781.19 23.86
2 -6 -2 6.55 1.91
-2 6 2 5.68 1.29
-2 6 1 486.78 16.45
-2 6 1 516.01 17.97
2 -6 -1 508.07 17.03
-2 6 0 101.88 6.72
-2 6 0 100.06 6.96
2 -6 0 105.56 6.96
-2 6 -1 23.98 2.01
-2 6 -1 22.93 2.6
2 -6 1 31.21 2.69
-2 6 -2 259.54 8.98
-2 6 -2 246.25 9.52
2 -6 2 227.2 8.69
-2 6 -3 1488.79 44.39
-2 6 -3 1411.08 43.35
2 -6 3 1397.33 42.76
-2 6 -4 510.58 20.19
-2 6 -4 618.87 25.44
-2 6 -5 890.87 33.92
2 -6 5 970.48 36.75
-2 6 -6 33.33 8.1
2 -6 6 31.97 4.05
-2 6 -7 23.3 4.95
2 -6 7 19.88 3.37
-2 6 -8 32.97 5.5
2 -6 8 35.47 3.9
2 -5 -9 -0.41 1.32
2 -5 -8 14.94 3.74
-2 5 8 26.88 3.53
2 -5 -7 26.71 6.4
-2 5 7 29.72 5.02
2 -5 -6 538.99 21.54
-2 5 6 484.48 19.41
2 -5 -5 208.14 13.8
-2 5 5 188.78 8.96
-2 5 5 149.87 12.24
2 -5 -4 55.81 6.58
-2 5 4 60.23 4.18
-2 5 4 48.55 5.04
2 -5 -3 945.73 26.25
-2 5 3 913.86 25.72
-2 5 3 878.35 23.55
2 -5 -2 85.88 7.93
-2 5 2 81.1 6.06
-2 5 2 63.45 5.84
2 -5 -2 65.63 4.6
2 -5 -1 1.66 0.83
-2 5 1 2.37 1.07
2 -5 -1 2.77 0.94
-2 5 0 595.62 14.69
-2 5 0 681.09 17.35
2 -5 0 593.59 14.67
-2 5 -1 31.82 1.77
-2 5 -1 15.5 1.55
2 -5 1 22.34 1.64
-2 5 -2 108.08 3.45
-2 5 -2 123.47 3.88
-2 5 -2 133.48 4.99
2 -5 2 141.79 4.89
-2 5 -3 5.73 0.85
-2 5 -3 12.03 1.26
-2 5 -3 12.18 1.64
2 -5 3 8.22 1.79
-2 5 -4 14.83 1.46
-2 5 -4 11.25 1.77
2 -5 4 11.17 1.84
-2 5 -5 6.32 0.95
-2 5 -5 12.49 1.72
2 -5 5 16.16 2.08
-2 5 -6 2.61 1.07
-2 5 -6 1.56 1.66
2 -5 6 1.48 1.9
-2 5 -7 95.99 5.19
-2 5 -7 102.2 9.9
2 -5 7 82.49 5.45
-2 5 -8 67.57 11.29
2 -5 8 76.13 6.16
-2 5 -9 20.46 5.21
2 -5 9 22.41 4.89
2 -4 -9 135.32 18.18
-2 4 9 175.57 13.8
2 -4 -8 3.07 1.8
-2 4 8 4.18 1.64
2 -4 -7 518.39 23.99
-2 4 7 479.47 22.38
2 -4 -6 168.41 18.66
-2 4 6 141.44 7.26
2 -4 -5 240.47 19.22
-2 4 5 238.43 9.32
-2 4 5 207.54 7.28
2 -4 -4 669.99 19.16
-2 4 4 717.15 20.57
-2 4 4 696.16 18.62
2 -4 -4 602.45 16.19
2 -4 -3 6.21 1.28
-2 4 3 8.42 1.51
-2 4 3 3.86 0.61
2 -4 -3 6.18 0.61
2 -4 -2 80.28 7.62
-2 4 2 77.48 3.47
-2 4 2 82.58 2.53
2 -4 -2 68.38 2.29
2 -4 -1 105.9 5.52
-2 4 1 89.33 3.47
2 -4 -1 89.89 4.5
2 -4 -1 84.77 2.73
-2 4 0 2112.68 48.5
-2 4 0 2198.66 50.93
2 -4 0 1747.73 46.35
2 -4 0 2242.04 51.26
-2 4 -1 641.28 17.59
-2 4 -1 723.32 19.75
-2 4 -1 692.5 19.51
2 -4 1 713.4 19.67
-2 4 -2 1862.46 42.73
-2 4 -2 2106.91 48.23
-2 4 -2 2054.9 47.86
-2 4 -3 11.57 1
2 -4 3 11.87 0.93
-2 4 -3 18.83 1.69
2 -4 3 12.49 1.36
-2 4 -4 924.37 21.95
-2 4 -4 1033.33 25.42
2 -4 4 1044.56 25.55
-2 4 -5 593.75 19.6
-2 4 -5 578.31 19.9
2 -4 5 611.41 20.86
-2 4 -6 216.66 7.62
-2 4 -6 291.11 10.61
2 -4 6 205.78 8.14
-2 4 -7 2.71 1.25
-2 4 -7 6.52 2.13
2 -4 7 1.66 1.9
-2 4 -8 836.01 78.59
-2 4 -8 764.75 35.06
2 -4 8 824.53 77.82
-2 4 -9 249.64 19.02
-2 4 -9 248.09 28.26
2 -4 9 293.52 22.39
-2 4 -10 18.46 7.57
2 -4 10 29.26 6.04
2 -3 -10 5.18 2.57
-2 3 10 2.53 1.65
2 -3 -9 216.35 16.89
-2 3 9 272.75 20.92
2 -3 -8 18.13 4.95
-2 3 8 14.3 2.93
2 -3 -7 85.74 11.01
-2 3 7 89.98 8
2 -3 -6 172.74 12.27
-2 3 6 166.89 6.79
-2 3 6 157.68 5.31
2 -3 -5 1758.01 48.7
-2 3 5 1756.39 47.54
-2 3 5 1707.9 44.78
2 -3 -4 656.55 16.65
-2 3 4 620.43 15.95
-2 3 4 583.99 13.73
2 -3 -4 563.22 13.16
2 -3 -3 680.13 17.9
-2 3 3 653.32 16.37
-2 3 3 693.6 15.95
2 -3 -3 611.65 14.14
2 -3 -2 6.7 1.18
-2 3 2 3.85 0.81
-2 3 2 2.11 0.43
2 -3 -2 2.22 0.33
2 -3 -1 613.08 10.05
2 -3 -1 616.43 9.13
2 -3 -1 628.66 9.27
-2 3 0 123.16 3.14
-2 3 0 130.14 3.4
2 -3 0 133.48 4.82
2 -3 0 142.25 2.99
-2 3 -1 134.76 3.08
-2 3 -1 139.73 3.14
-2 3 -1 128.85 3.4
2 -3 1 117.93 3.66
2 -3 1 116.82 2.87
-2 3 -2 59.63 2.38
2 -3 2 72.16 2.69
-2 3 -2 64.39 2.76
2 -3 2 69.76 2.82
-2 3 -3 72.43 2.73
2 -3 3 73.19 2.74
-2 3 -3 84.32 3.47
2 -3 3 82.42 3.5
-2 3 -4 4.64 0.75
-2 3 -4 3.3 1.06
2 -3 4 2.93 1.11
-2 3 -5 89.34 3.27
-2 3 -5 89.32 11.18
2 -3 5 90.27 3.89
-2 3 -6 668.24 22.13
-2 3 -6 684.35 23.29
2 -3 6 665.84 22.63
-2 3 -7 11.8 1.39
-2 3 -7 10.32 2.95
2 -3 7 9.04 1.67
-2 3 -8 587.06 22.45
-2 3 -8 591.43 23.95
2 -3 8 588.44 23.2
-2 3 -9 105.04 7.69
-2 3 -9 82.02 18.64
2 -3 9 111.41 8.38
-2 3 -10 227.87 17.03
-2 3 -10 205.12 18.23
2 -3 10 218.89 16.69
2 -2 -10 50.07 11.31
-2 2 10 75.21 5.91
2 -2 -9 87.59 13.15
-2 2 9 93.24 8
2 -2 -8 215.36 19.1
-2 2 8 221.86 11.3
2 -2 -7 348.77 17.1
-2 2 7 359.89 15.5
-2 2 7 354.12 14.27
2 -2 -6 152.08 8.07
-2 2 6 155.81 6.63
-2 2 6 144.25 5.24
2 -2 -5 35.02 4.34
-2 2 5 43.76 2.51
-2 2 5 36.33 1.47
2 -2 -5 37.52 1.48
2 -2 -4 26.76 3.49
-2 2 4 30.07 1.97
-2 2 4 21.56 0.9
2 -2 -4 22.69 0.95
2 -2 -3 612.75 17.81
-2 2 3 517.38 14.78
-2 2 3 594.73 15.75
2 -2 -3 549.08 14.51
2 -2 -2 313.78 6.16
-2 2 2 282.19 5.55
2 -2 -2 261.95 3.74
2 -2 -1 5796.76 151.82
-2 2 1 6721.73 176.32
2 -2 -1 6201.4 162.4
2 -2 -1 6479.62 168.89
2 -2 -1 6181.52 161.13
-2 2 0 525.68 6.76
2 -2 0 501.54 6.6
2 -2 0 486.89 5.71
-2 2 -1 2232.84 22.56
2 -2 1 2173.31 22.24
2 -2 1 2111.92 21.3
-2 2 -1 2047.85 20.58
-2 2 -2 1301.4 18.69
2 -2 2 1520.45 21.44
2 -2 2 1349.21 19.49
2 -2 2 1364.25 19.74
-2 2 -2 1444.19 20.62
-2 2 -3 578.8 9.28
2 -2 3 606.75 9.53
2 -2 3 694.87 11.3
-2 2 -4 10.09 0.98
-2 2 -4 13.89 2
2 -2 4 12.34 1.28
-2 2 -5 208.32 6.14
-2 2 -5 161.88 12.47
2 -2 5 180.5 5.8
-2 2 -6 99.58 7.04
-2 2 -6 115.77 13.82
2 -2 6 86.11 6.4
-2 2 -7 387.27 12.91
-2 2 -7 399.44 14.36
2 -2 7 408.19 13.89
-2 2 -8 176.4 8.84
-2 2 -8 181.41 17.75
2 -2 8 184.65 9.5
-2 2 -9 130.64 7.15
-2 2 -9 124.42 13.62
2 -2 9 132.61 7.54
-2 2 -10 19.23 3.02
-2 2 -10 7.87 3.49
2 -2 10 20.4 2.88
2 -2 11 68.78 5.47
2 -1 -10 250.33 18.92
-2 1 10 318.27 23.82
2 -1 -9 1.53 0.97
2 -1 -8 298.65 24.7
-2 1 8 316.15 13.45
-2 1 8 275.63 10.99
2 -1 -7 147.06 17.99
-2 1 7 118.59 6.28
-2 1 7 122.11 5.58
2 -1 -6 126.49 13.97
-2 1 6 132.14 5.81
-2 1 6 126.05 6.83
2 -1 -6 117.68 6.41
2 -1 -5 21.04 3.9
-2 1 5 20.39 1.91
-2 1 5 15.2 0.95
2 -1 -5 20.45 1.13
2 -1 -4 1215.32 33.33
-2 1 4 1271.35 34.52
-2 1 4 1131.5 29.95
2 -1 -4 1285.25 33.92
2 -1 -3 164.22 3.99
-2 1 3 154.97 3.8
-2 1 3 156.63 2.56
2 -1 -2 2988.16 41.28
-2 1 2 2620.98 37.29
2 -1 -2 2702.79 37.26
2 -1 -1 2722.55 26.86
-2 1 0 103.79 2.4
-2 1 0 93.9 2.13
-2 1 0 99.12 2.1
2 -1 0 90.5 1.93
2 -1 0 88.23 1.51
-2 1 0 103.38 1.65
-2 1 -1 107.9 2.37
2 -1 1 116.17 2.37
-2 1 -1 116.92 2.37
2 -1 1 120.73 2.31
2 -1 1 104.28 2.09
-2 1 -1 110.02 2.12
-2 1 -2 185.66 3.26
2 -1 2 191.4 3.26
-2 1 -2 191.01 3.33
2 -1 2 230.82 3.8
-2 1 -3 196.12 4.06
2 -1 3 212.83 4.22
-2 1 -3 202.41 4.94
2 -1 3 178.24 3.79
2 -1 3 205.43 4.35
-2 1 -3 181.48 3.92
-2 1 -4 558.26 15.63
-2 1 -4 549.03 15.79
2 -1 4 539.85 15.29
-2 1 -5 2573.84 59.36
2 -1 5 2710.49 62.46
-2 1 -6 21.53 1.72
-2 1 -6 24.23 3.07
2 -1 6 22.51 1.8
-2 1 -7 477.85 16.48
-2 1 -7 418.21 14.87
2 -1 7 473.55 16.55
-2 1 -8 2.63 1.2
-2 1 -8 2.29 1.63
2 -1 8 5.46 1.57
-2 1 -9 513.06 23.63
-2 1 -9 435.87 20.97
2 -1 9 477.73 22.18
-2 1 -10 58.25 5.54
2 -1 10 57.91 5.68
2 -1 10 59.67 5.46
-2 1 -11 159.97 9.84
2 -1 11 177.09 10.62
2 -1 11 169.41 10.31
-2 1 -12 0.9 1.61
2 0 -11 82.22 12.79
2 0 -10 -0.52 1.56
-2 0 10 1.31 1.7
2 0 -9 27.26 4.96
-2 0 9 35.19 4.34
2 0 -8 2.83 1.78
-2 0 8 1.28 1.44
-2 0 8 1.94 1.05
2 0 -7 65.49 6.36
-2 0 7 77.81 4.69
-2 0 7 75.47 3.91
2 0 -6 1.65 1.72
-2 0 6 3.14 1.24
-2 0 6 2.13 0.83
2 0 -5 198.14 6.27
-2 0 5 200.01 6.29
-2 0 5 195.86 5.45
2 0 -4 422.35 12.32
-2 0 4 443.92 12.87
-2 0 4 407.54 11.45
-2 0 4 429.34 11.87
2 0 -3 3.36 0.58
-2 0 3 1.1 0.57
-2 0 3 3.77 0.73
-2 0 3 2.24 0.5
-2 0 3 2.65 0.37
-2 0 2 818.14 9.51
2 0 -2 823.77 9.44
-2 0 2 795.1 8.13
-2 0 2 807.62 8.18
2 0 -1 83.1 2
-2 0 1 74.26 1.83
-2 0 1 88.36 1.88
2 0 -1 84.6 1.75
2 0 -1 67.48 1.34
-2 0 1 75.22 1.18
2 0 0 2558.54 24.4
2 0 0 2516.53 24.01
2 0 1 641.27 7.41
2 0 2 7309.32 97.7
2 0 2 7047.26 94.31
-2 0 -2 6684.63 89.5
-2 0 -3 315.56 4.88
2 0 3 287.42 4.53
-2 0 -3 300.63 4.5
2 0 3 313.14 4.54
-2 0 -4 2902.14 40.43
-2 0 -4 2817.38 39.25
2 0 4 2637.35 36.64
2 0 4 2537.79 35.72
-2 0 -5 336.8 10.11
-2 0 -5 338.5 10.14
2 0 5 342.39 10.31
-2 0 -6 1499.79 35.53
-2 0 -6 1388.65 33.02
2 0 6 1375.74 32.81
-2 0 -7 107.22 8.75
2 0 7 104.17 7.08
-2 0 -8 14.87 2.22
2 0 8 13.54 1.8
-2 0 -9 38.95 3.82
2 0 9 47.58 4.66
2 0 9 38.19 3.56
-2 0 -10 0.94 1.64
2 0 10 0.94 1.85
2 0 10 3.63 1.59
-2 0 -11 19.82 4.61
2 0 11 28.34 5.95
2 0 12 15.64 2.93
2 1 -11 24.03 6.24
2 1 -10 8.58 2.29
-2 -1 10 11.91 3.47
2 1 -9 359.52 23.82
-2 -1 9 393.71 26
-2 -1 9 334.93 21.84
2 1 -8 4.6 1.68
-2 -1 8 5.99 2.25
-2 -1 8 4.19 1.01
2 1 -7 175.72 14.72
-2 -1 7 165.26 7.96
-2 -1 7 164.32 7.37
2 1 -6 68.71 8.04
-2 -1 6 52.07 4.25
-2 -1 6 59.83 4.41
2 1 -5 1934.82 45.02
-2 -1 5 1894.8 44.33
-2 -1 5 2059.36 47.42
2 1 -4 411.03 11.84
-2 -1 4 387.55 11.37
-2 -1 4 430.1 12.03
-2 -1 4 419.12 11.79
2 1 -3 3579.01 48.99
-2 -1 3 3473.86 47.5
-2 -1 3 3782.53 51.81
-2 -1 3 3755.61 50.81
-2 -1 3 3687.53 49.93
2 1 -2 2066.18 20.98
-2 -1 2 2040.9 20.63
-2 -1 2 2077.37 20.97
-2 -1 2 1954.96 19.9
2 1 -2 2077.52 20.52
-2 -1 1 378.36 4.82
-2 -1 1 353.25 4.62
-2 -1 1 363.12 4.45
-2 -1 1 371.74 4.5
2 1 -1 388.8 4.93
-2 -1 1 370.1 4.52
-2 -1 0 7.91 0.64
2 1 0 7.53 0.59
-2 -1 0 9.74 0.74
-2 -1 0 7.19 0.28
2 1 0 9.54 0.92
-2 -1 0 5.28 0.44
-2 -1 -1 5346.05 71.63
2 1 1 5115.83 68.54
2 1 1 4944.04 66.31
-2 -1 -1 4775.06 64.05
2 1 2 9139.32 121.82
2 1 2 9237.28 123.25
-2 -1 -2 9999 133.2
-2 -1 -3 1539.2 16.63
2 1 3 1473.91 15.92
-2 -1 -3 1518.87 15.78
2 1 3 1521.91 16.54
-2 -1 -3 1593.64 17.05
-2 -1 -4 74.25 2.47
-2 -1 -4 58.79 1.97
2 1 4 52.85 5.95
2 1 4 56.49 2.15
-2 -1 -5 1217.68 33.11
2 1 5 1221.12 33.19
-2 -1 -6 301.9 8.67
2 1 6 323.22 9.05
-2 -1 -7 5.47 2.01
2 1 7 3.97 1.73
-2 -1 -8 316.49 13.74
2 1 8 367.14 15.54
2 1 9 3.05 1.26
-2 -1 -10 357.74 23.68
2 1 10 317 21.33
2 1 10 381.84 25.14
-2 -1 -11 1.12 1.84
2 1 11 7.71 3.21
2 1 11 2.2 1.35
2 1 12 276.49 29.62
2 2 -10 71.53 13.48
-2 -2 10 107.04 9.11
2 2 -9 4.02 1.44
-2 -2 9 9.71 2.32
-2 -2 9 6.99 1.69
2 2 -8 227.36 11.17
-2 -2 8 214 11.1
-2 -2 8 211.03 10.36
2 2 -7 0.9 1.03
-2 -2 7 1.95 1.06
-2 -2 7 0.34 0.78
2 2 -6 52.39 5.5
-2 -2 6 55.71 4.03
2 2 -5 30.7 4.47
-2 -2 5 26.17 1.69
2 2 -4 485.5 12.18
-2 -2 4 487.82 12.15
2 2 -3 938.4 25.26
-2 -2 3 921.64 24.73
2 2 -3 868.95 23.65
-2 -2 3 886.05 24.17
-2 -2 3 869.11 23.46
-2 -2 3 867.99 23.49
2 2 -2 184.12 3.5
-2 -2 2 184.65 3.78
2 2 -2 179.94 4.76
-2 -2 2 186.26 3.67
2 2 -2 166.88 3.55
-2 -2 2 180.92 3.88
-2 -2 1 49.75 1.25
-2 -2 1 51.2 1.3
2 2 -1 47.4 1.27
2 2 -1 41.53 1.68
-2 -2 1 50.24 3.33
-2 -2 0 1464.17 14.7
2 2 0 1421.99 14.28
2 2 0 1480.89 14.34
-2 -2 0 1408.87 13.67
2 2 0 1355.88 14.31
-2 -2 -1 3452.06 33.31
2 2 1 3417.85 32.91
2 2 1 3297.57 30.98
-2 -2 -1 3359.21 31.52
2 2 1 3124.93 30.75
2 2 2 951.21 9.91
2 2 3 3369.64 46.41
2 2 3 3014.94 41.75
-2 -2 -4 33.84 1.65
2 2 4 30.08 4.33
2 2 4 28.66 1.37
2 2 4 27.98 1.55
-2 -2 -5 460.66 13.47
2 2 5 483.36 14
-2 -2 -6 512.89 13.51
2 2 6 528.25 13.73
-2 -2 -7 98.75 6.86
2 2 7 116.37 8.09
2 2 7 117.85 6.91
-2 -2 -8 25.3 2.66
2 2 8 26.18 2.83
2 2 8 27.9 2.48
-2 -2 -9 139.3 7.74
2 2 9 136.96 7.89
2 2 9 133.41 7.45
-2 -2 -10 226.52 15.72
2 2 10 246.05 16.94
2 2 10 223.64 15.19
2 2 11 113.73 9.58
2 2 11 122.05 9.82
2 2 12 12.19 2.73
-2 -3 10 100.08 6.92
2 3 -9 14.63 3.5
-2 -3 9 19.4 2.76
-2 -3 9 22.74 3.11
2 3 -8 501.47 22.99
-2 -3 8 488.3 22.54
2 3 -7 66.87 11.26
2 3 -7 62.92 11.38
-2 -3 7 73.74 6.42
2 3 -6 1151.39 35.18
2 3 -6 1105.07 34.34
-2 -3 6 1151.47 35.27
2 3 -5 298.51 8.85
2 3 -5 297.82 11.93
-2 -3 5 284.28 8.84
-2 -3 4 787.72 18.59
2 3 -3 4.58 0.88
-2 -3 3 2.27 0.4
2 3 -3 5.4 0.75
-2 -3 3 5.48 0.8
-2 -3 2 1647.69 22.57
-2 -3 2 1872.24 25.54
2 3 -2 1792.37 25.35
-2 -3 2 1767.71 24.9
2 3 -2 1595.67 23.04
-2 -3 1 103.98 2.04
-2 -3 1 116.19 2.14
2 3 -1 106.34 2.51
-2 -3 1 101.1 2.3
2 3 -1 106.57 2.79
-2 -3 0 185.74 2.68
2 3 0 199.57 2.77
2 3 0 201.79 3.04
-2 -3 0 200.25 3
2 3 0 202.28 3.72
-2 -3 0 197.88 3.71
2 3 1 1737.53 17.34
-2 -3 -1 1626.51 16.25
-2 -3 -1 1594.9 16.99
-2 -3 -2 1058.07 15.49
2 3 2 1146.26 16.53
2 3 2 1027.56 14.74
-2 -3 -2 1059.37 15.08
2 3 2 1088.86 16.3
-2 -3 -3 238.26 4.85
2 3 3 277.07 5.09
-2 -3 -3 260.54 4.8
2 3 3 233.68 4.92
-2 -3 -4 113.95 4.15
2 3 4 111.97 3.96
2 3 4 132.09 4.66
-2 -3 -5 267.15 7.68
2 3 5 275.24 7.73
2 3 5 244.86 7.1
-2 -3 -6 2.89 1.49
2 3 6 4.73 1.85
2 3 6 3.97 1.04
-2 -3 -7 564.31 19.47
2 3 7 507.25 17.65
2 3 7 609.15 20.75
-2 -3 -8 3.84 1.61
2 3 8 5.33 1.8
2 3 8 9.59 1.8
-2 -3 -9 1001.54 44.84
2 3 9 1055.81 155.57
2 3 9 972.06 43.28
-2 -3 -10 35.22 4.22
2 3 10 34.67 4.59
2 3 10 46.97 4.64
-2 -3 -11 24.72 5.61
2 3 11 23.12 5.16
2 3 11 16.05 3.71
-2 -4 10 3.95 2.15
-2 -4 10 1.84 1.24
2 4 -9 5.14 2.06
-2 -4 9 2.14 1.31
2 4 -8 86.01 15.03
-2 -4 8 101.39 7.6
2 4 -7 24.64 3.13
2 4 -7 29.89 5.43
-2 -4 7 31.46 3.24
2 4 -6 111.73 5.46
2 4 -6 105.96 7.81
-2 -4 6 104.01 5.42
2 4 -5 386.11 12.85
2 4 -5 364 13.32
-2 -4 5 370.17 13.04
2 4 -4 337.73 8.34
-2 -4 4 303.27 7.56
2 4 -4 339.41 9.6
-2 -4 4 329.2 9.11
-2 -4 3 78.26 2.24
-2 -4 3 82.13 2.32
2 4 -3 98.72 3.64
-2 -4 3 81.22 3.13
-2 -4 2 422.73 11.23
-2 -4 2 437.11 11.61
2 4 -2 415.94 11.93
2 4 -2 448.4 13
-2 -4 1 648.09 17.06
-2 -4 1 617.15 16.26
2 4 -1 666.28 18.24
-2 -4 1 650.58 17.79
2 4 -1 614.17 17.25
-2 -4 0 3515.53 47.07
2 4 0 3391.14 45.39
2 4 0 3398.12 46.32
-2 -4 0 3464.97 47.17
2 4 0 3289.02 45.69
-2 -4 -1 119.98 2.58
2 4 1 101.43 2.25
2 4 1 119.2 2.81
-2 -4 -1 110.4 2.62
2 4 1 115.22 7.57
-2 -4 -2 1696 44.99
2 4 2 1740.07 46.08
2 4 2 1643.42 43.63
2 4 2 1744.81 46.67
-2 -4 -3 232.53 7.13
2 4 3 209.4 6.45
-2 -4 -3 206.98 6.29
2 4 3 206.41 6.8
-2 -4 -4 462.92 11.92
2 4 4 420.11 10.91
2 4 4 443.41 11.56
-2 -4 -5 37.08 2.31
2 4 5 39.73 2.57
2 4 5 34.02 2.05
-2 -4 -6 194.47 13.23
2 4 6 248.75 8.28
2 4 6 243.11 8.02
-2 -4 -7 11.53 1.59
2 4 7 10.27 1.86
2 4 7 11.63 1.64
-2 -4 -8 269.5 11.55
2 4 8 261.74 11.35
2 4 8 272.51 11.47
-2 -4 -9 46.41 7.42
2 4 9 58.92 9.61
2 4 9 47.41 7.56
-2 -4 -10 211.34 14.25
2 4 10 178.56 12.51
2 4 10 187.67 12.65
-2 -4 -11 198.4 21.76
2 4 11 264.4 28.55
2 4 11 204.39 22.11
-2 -5 10 5.06 2.14
2 5 -9 238.24 14.75
-2 -5 9 281.6 15.45
2 5 -8 17.01 3.69
-2 -5 8 16.23 2.49
2 5 -7 266.68 19.47
-2 -5 7 302.12 14.64
2 5 -6 20.38 3.83
-2 -5 6 20.44 2.43
2 5 -5 14.91 3.03
-2 -5 5 21.12 2.21
-2 -5 4 78.71 4.84
-2 -5 4 91.78 5.61
2 5 -4 94.07 7.41
-2 -5 4 90.84 6.33
2 5 -3 774.76 19.4
-2 -5 3 797.04 19.85
2 5 -2 88.87 3.46
2 5 -2 95.26 9.47
2 5 -1 888.73 21.29
2 5 -1 909 22.13
-2 -5 0 46.04 1.4
2 5 0 50.63 1.49
2 5 0 59.01 5.63
-2 -5 -1 90.36 2.99
2 5 1 82.58 2.76
2 5 1 99.18 11.6
-2 -5 -2 47.47 1.93
2 5 2 35.4 1.6
2 5 2 51.55 5.57
-2 -5 -3 444.73 11.31
2 5 3 411.56 10.7
2 5 3 399.18 10.73
-2 -5 -4 2.66 0.71
2 5 4 6.24 1.34
2 5 4 2.72 0.96
-2 -5 -5 6.38 1.23
2 5 5 6.02 1.16
2 5 5 6.36 1.2
-2 -5 -6 476.15 15.78
2 5 6 497.72 16.44
2 5 6 480.07 15.76
-2 -5 -7 3.43 1.38
2 5 7 2.31 1.24
2 5 7 2.33 1.39
-2 -5 -8 26.23 3.32
2 5 8 32.28 4.21
2 5 8 27 4.05
-2 -5 -9 2.74 1.46
2 5 9 4.47 2.05
2 5 9 1.63 1.17
-2 -5 -10 79.67 7.12
2 5 10 59.07 6.15
2 5 10 60.41 5.55
2 5 11 34.94 5.42
2 6 -9 6.17 2.36
-2 -6 9 5.77 2.09
2 6 -8 48.38 11.8
-2 -6 8 85.61 7.32
2 6 -7 25.7 5.65
-2 -6 7 31.97 3.9
2 6 -6 33.38 5.89
-2 -6 6 31.78 3.45
2 6 -5 461.64 21.6
-2 -6 5 448.85 20.69
2 6 -4 367.13 15.71
-2 -6 4 362.5 15.33
2 6 -3 143.65 6.11
-2 -6 3 147.2 6.18
2 6 -2 12.97 1.68
2 6 -2 19.25 4
2 6 -1 696.07 19.5
2 6 -1 673.51 19.27
-2 -6 0 74.12 2.26
2 6 0 72.15 1.91
2 6 0 73.33 3.05
2 6 0 83.05 7.31
-2 -6 -1 1438.88 33.03
2 6 1 1372.56 31.51
2 6 1 1480.64 34.79
2 6 1 1530.8 36.46
-2 -6 -2 223.17 6.1
2 6 2 175.43 5
2 6 2 192.56 5.85
2 6 2 178.8 5.88
-2 -6 -3 295.03 8.88
2 6 3 300.05 9.3
2 6 3 288.73 9.31
-2 -6 -4 104.66 6.94
2 6 4 119.77 6.93
2 6 4 128.05 14.04
-2 -6 -5 617.39 19.75
2 6 5 598.25 19.28
2 6 5 556.17 18.17
-2 -6 -6 299.47 12.98
2 6 6 243.92 10.82
2 6 6 302.65 19.66
-2 -6 -7 1389.64 51.58
2 6 7 1251.34 46.65
2 6 7 1252 47.06
-2 -6 -8 105.21 7.92
2 6 8 114.81 8.58
2 6 8 77.49 6.11
-2 -6 -9 6.35 2.35
2 6 9 2.46 2.01
2 6 9 1.5 1.24
-2 -6 -10 7.24 2.25
2 7 -8 50.71 10.11
-2 -7 8 115.48 13.14
2 7 -7 2.11 2.29
-2 -7 7 1.71 1.21
2 7 -6 283.1 21.03
-2 -7 6 309.34 20.62
2 7 -5 92.68 10.07
-2 -7 5 96.11 5.88
2 7 -4 173.49 10.12
-2 -7 4 190.71 8.62
2 7 -3 12.04 1.76
-2 -7 3 13.67 1.73
2 7 -2 871.66 27.29
2 7 -2 702.46 22.62
2 7 -1 377.61 13.35
2 7 -1 442.36 15.64
2 7 0 33.28 2.97
2 7 0 28.12 3.28
2 7 1 2.6 0.48
2 7 1 7.25 1.3
2 7 1 1.71 0.7
-2 -7 -2 24.19 3.42
2 7 2 20.36 2.16
2 7 2 30.3 3.43
-2 -7 -3 432.47 13.86
2 7 3 453.51 14.94
2 7 3 485.91 16.11
-2 -7 -4 143.84 11.69
2 7 4 139.48 6.83
2 7 4 141.44 9.94
-2 -7 -5 34.33 3.35
2 7 5 40.54 4.01
2 7 5 45.8 5.79
-2 -7 -6 1.35 0.93
2 7 6 4.09 1.63
2 7 6 1.23 0.66
-2 -7 -7 50.68 8.17
2 7 7 51.54 8.24
2 7 7 43.23 8.99
-2 -7 -8 79.43 6.96
2 7 8 72.63 6.59
2 7 8 64.08 9.24
2 7 9 113.54 7.87
2 7 9 98.97 15.42
2 8 -7 74.98 14.4
-2 -8 7 106.05 11.99
2 8 -6 63.9 12.25
-2 -8 6 79.07 6.95
2 8 -5 1.32 1.39
-2 -8 5 2.49 1.58
2 8 -4 42.54 7.71
-2 -8 4 44.35 7.21
2 8 -3 1.74 1.18
-2 -8 3 2.68 1.18
2 8 -2 546.41 21.24
2 8 -2 585.86 22.89
2 8 -1 160.97 8.25
2 8 -1 176.52 9.2
2 8 0 949.11 42.01
2 8 0 1017.21 45.13
2 8 1 204.56 9.22
2 8 1 198.29 9.19
-2 -8 -2 1253.44 81.84
2 8 2 1143.06 50.3
2 8 2 1173.95 51.78
-2 -8 -3 4.81 1.11
2 8 3 4.82 1.8
2 8 3 7.09 1.38
-2 -8 -4 252.97 11.09
2 8 4 247.16 10.55
2 8 4 193.04 20.36
-2 -8 -5 8.29 1.83
2 8 5 7.08 1.86
2 8 5 5.76 1.79
-2 -8 -6 178.14 16.57
2 8 6 166.94 11.66
2 8 6 144.34 18.91
-2 -8 -7 18.49 4.61
2 8 7 9.35 2.69
2 8 7 9.74 2.58
-2 -8 -8 62.99 10.4
2 8 8 75.99 6.1
2 8 8 73.24 10.23
-2 -8 -9 2.33 1.19
2 8 9 1.72 1.9
2 9 -6 3.78 1.88
2 9 -5 128.37 21.68
-2 -9 5 190.63 14.71
2 9 -4 22.19 5.99
-2 -9 4 22.13 4.47
2 9 -3 59.6 5.46
-2 -9 3 59.78 5.75
2 9 -2 14.77 2.67
-2 -9 2 8.4 1.97
2 9 -1 94.71 5.66
2 9 -1 103.61 9.29
2 9 0 19.05 2.64
2 9 0 21.08 4.36
2 9 1 69.89 6.53
2 9 1 66.65 10.1
2 9 2 47.36 7.48
2 9 2 34.51 6.19
2 9 3 5.36 1.75
2 9 3 3.51 0.94
2 9 4 376.94 24.76
2 9 4 355.66 33.78
-2 -9 -5 5.8 1.23
2 9 5 5.14 1.57
2 9 5 4.99 1.48
-2 -9 -6 103.39 12.99
2 9 6 100.94 8.1
2 9 6 68.52 7.66
-2 -9 -7 7.48 1.99
2 9 7 4.62 3.49
2 9 7 7.93 2.39
-2 -9 -8 148.57 19.64
2 9 8 148.65 16.76
2 10 -5 38.42 11.8
2 10 -4 18.11 4
2 10 -3 130.03 10.87
-2 -10 3 116.23 9.59
2 10 -2 4.81 2.77
-2 -10 2 2.48 1.99
2 10 -1 273.85 17.82
2 10 -1 262.72 17.43
2 10 0 38.13 7.21
2 10 0 29.34 4.46
2 10 1 40.33 4.16
2 10 1 32.84 6.74
2 10 2 5.77 1.79
2 10 2 2.43 1.11
2 10 3 199.27 13.41
2 10 3 194.22 25.39
2 10 4 7.41 2.86
2 10 4 2.31 1.61
2 10 5 35 6.98
2 10 5 38.76 7.4
2 10 6 3.77 2.86
2 10 6 12.46 2.97
2 10 7 46.69 6.54
2 11 -3 2.77 2.56
2 11 -2 99.65 12.09
2 11 -1 -0.43 2.29
-2 -11 1 13.2 3.04
2 11 0 271.98 15.62
2 11 0 328.05 17.88
2 11 1 191.24 11.27
2 11 1 158.9 23.88
2 11 2 41.29 4.38
2 11 2 37.98 7.88
2 11 3 82.05 10.37
2 11 3 77.06 14.1
2 11 4 18.51 4.15
2 11 4 8.65 2.76
2 11 5 51.79 11.39
3 -10 2 5.88 2.79
-3 9 5 44.19 6.59
-3 9 4 557.59 58.66
-3 9 3 5.46 2.16
-3 9 2 227.88 17.43
-3 9 1 5.18 1.84
-3 9 0 160.43 12.68
-3 9 -1 6.96 2.44
-3 9 -2 56.22 5.39
3 -9 2 45.97 4.63
-3 9 -3 37.56 7.58
3 -9 3 31.34 6.44
-3 9 -4 15.75 3.9
3 -9 4 27.68 6.32
3 -9 5 91.47 10.72
3 -8 -6 10 3.74
3 -8 -5 0.16 0.71
3 -8 -4 11.67 2.74
-3 8 4 8.05 2.37
-3 8 3 4.41 1.77
-3 8 3 6.26 1.84
-3 8 2 82.94 6.52
-3 8 1 6.41 1.63
-3 8 1 11.47 2.29
3 -8 -1 12.76 2.29
-3 8 0 365.39 23.61
-3 8 0 353.76 23.48
3 -8 0 341.8 22.17
-3 8 -1 40.52 4.68
3 -8 1 30.97 3.82
-3 8 -2 91.84 7.12
3 -8 2 81.2 6.19
-3 8 -3 13.27 2.41
3 -8 3 10.44 2.3
-3 8 -4 238.6 16.06
3 -8 4 254.04 16.79
-3 8 -5 1.15 1.34
3 -8 5 -0.9 1.83
-3 8 -6 153.88 10.12
3 -8 6 129.54 8.36
3 -7 -7 21.89 5.57
3 -7 -6 28.59 6.86
-3 7 6 26.72 5.65
3 -7 -5 133.17 15.89
-3 7 5 122.96 10.13
3 -7 -4 33.06 6.51
-3 7 4 44.97 5.18
-3 7 3 478.45 22.46
-3 7 2 36.73 3.75
-3 7 2 40.8 4.38
3 -7 -2 28.8 2.99
-3 7 1 180.09 7.82
-3 7 1 179.7 8.37
-3 7 0 1.15 0.92
-3 7 0 5.59 1.81
3 -7 0 0.25 0.87
-3 7 -1 91.53 7.11
3 -7 1 79.72 6.11
-3 7 -2 415.6 16.03
-3 7 -2 531.27 21.07
3 -7 2 440.98 17.44
-3 7 -3 156.74 8.72
3 -7 3 162.4 8.58
-3 7 -4 3.29 1.27
3 -7 4 4.97 1.4
-3 7 -5 3.23 1.49
3 -7 5 6.12 2.95
-3 7 -6 4.48 1.61
3 -7 6 1.14 1.8
-3 7 -7 10.18 4.12
3 -7 7 11.17 3.21
3 -6 -7 13.67 3.58
-3 6 7 14.25 3.49
3 -6 -6 56.52 10.88
-3 6 6 46.3 4.58
3 -6 -5 0.97 0.99
-3 6 5 1.82 1.17
3 -6 -4 267.28 15.32
-3 6 4 253.1 11.18
3 -6 -3 248.8 20.19
-3 6 3 240.56 12
-3 6 2 602.71 24.45
-3 6 2 604.62 24.82
3 -6 -2 509.3 20.15
-3 6 1 248.01 10.71
-3 6 1 302.4 13.21
3 -6 -1 239.9 10.01
-3 6 0 3.38 1.07
-3 6 0 3.38 1.48
3 -6 0 0.94 0.92
-3 6 -1 539.46 17.15
-3 6 -1 575.37 18.91
3 -6 1 493.4 15.84
-3 6 -2 320.29 13.26
-3 6 -2 354.26 15.23
3 -6 2 318.03 13.53
-3 6 -3 112.87 5.52
-3 6 -3 128.54 6.72
3 -6 3 120.06 6.28
-3 6 -4 140.39 6.99
-3 6 -4 139.3 7.84
3 -6 4 177.38 9.34
-3 6 -5 484.91 21.72
-3 6 -5 542.94 25.14
3 -6 5 506.86 23.56
-3 6 -6 1.47 1.12
3 -6 6 1.79 1.9
-3 6 -7 121.99 22.07
3 -6 7 124.14 10.55
-3 6 -8 4.65 2.48
3 -6 8 6.55 2.13
3 -5 -8 80.79 17.9
-3 5 8 74.88 6.79
3 -5 -7 2.03 1.4
-3 5 7 2.84 1.88
3 -5 -6 567.66 26.7
-3 5 6 567.14 26.37
3 -5 -5 1.69 1.61
-3 5 5 2.16 1.49
3 -5 -4 485.33 32.95
-3 5 4 342.9 14.83
3 -5 -3 125.87 8.6
-3 5 3 151.43 6.35
3 -5 -2 76.78 5.48
-3 5 2 82.01 5.91
3 -5 -2 64.99 4.22
-3 5 1 138.81 5.75
-3 5 1 152.17 6.4
3 -5 -1 119.13 6.48
-3 5 0 607.06 17.17
-3 5 0 576.14 16.89
3 -5 0 546.75 15.32
-3 5 -1 7.9 1.09
-3 5 -1 9.79 1.71
3 -5 1 3.64 0.83
-3 5 -2 670.59 22.11
-3 5 -2 667.65 22.62
3 -5 2 656.08 21.89
-3 5 -3 19.27 2.01
-3 5 -3 24.09 2.72
3 -5 3 17.5 2.31
-3 5 -4 4.16 1.53
-3 5 -4 1.61 1.04
3 -5 4 6.23 1.81
-3 5 -5 139.99 6.63
-3 5 -5 135.97 7.2
3 -5 5 125.54 6.63
-3 5 -6 275.56 20.85
3 -5 6 255.25 11.29
-3 5 -7 160.83 8.14
-3 5 -7 157.36 18.45
3 -5 7 155.53 8.83
-3 5 -8 21.91 4.64
3 -5 8 18.21 3.11
-3 5 -9 108.07 19.15
3 -5 9 129.67 8.51
3 -4 -9 145.88 17.52
-3 4 9 149.78 9.34
3 -4 -8 12.24 3.14
-3 4 8 10.25 2.64
3 -4 -7 204.43 10.64
-3 4 7 206.2 10.83
3 -4 -6 40.47 6.66
-3 4 6 38.51 3.72
3 -4 -5 454.5 19.04
-3 4 5 450.52 18.96
3 -4 -4 472.62 17.05
-3 4 4 516.76 17.1
3 -4 -3 161.98 13.99
-3 4 3 132.25 9.28
3 -4 -3 117.05 7.56
3 -4 -2 315.72 10.22
-3 4 2 311.08 9.87
3 -4 -2 284.32 7.88
3 -4 -2 288.41 7.97
-3 4 1 589.57 15.02
-3 4 1 530.58 13.86
3 -4 -1 499.31 12.16
3 -4 -1 426.87 10.4
-3 4 0 1548.02 36.27
-3 4 0 1614.76 38.07
3 -4 0 1491.71 34.49
3 -4 0 1509.28 34.9
-3 4 -1 351.38 9.4
-3 4 -1 368.69 10.07
3 -4 1 361.44 9.49
-3 4 -2 1696.97 108.34
-3 4 -2 1648.02 38.93
3 -4 2 1637.61 38.36
-3 4 -3 45.13 3.49
-3 4 -3 51.03 4.26
3 -4 3 43.26 3.55
-3 4 -4 696.25 19.41
-3 4 -4 636.15 18.47
-3 4 -5 1.37 0.8
-3 4 -5 3.09 1.15
3 -4 5 -0.87 1.2
-3 4 -6 382.43 15.79
-3 4 -6 384.82 16.72
3 -4 6 340.01 14.87
-3 4 -7 27.52 2.8
-3 4 -7 32.31 7.47
3 -4 7 18.24 2.82
-3 4 -8 167.82 19.91
3 -4 8 222.24 11.57
-3 4 -9 27.03 5.7
-3 4 -9 18.33 5.11
3 -4 9 33.95 3.83
-3 4 -10 38.99 10.59
3 -4 10 60.34 4.89
3 -3 -9 283.06 21.31
-3 3 9 325.76 24.37
3 -3 -8 2.15 1.71
-3 3 8 1.79 1.51
3 -3 -7 356.31 19.3
-3 3 7 420.17 19.87
3 -3 -6 2.91 1.32
-3 3 6 6.33 2.1
3 -3 -5 4.3 1.1
-3 3 5 5.25 1.35
3 -3 -4 224.24 18.77
-3 3 4 203.83 13.82
3 -3 -3 810.68 20.45
-3 3 3 794.23 19.79
3 -3 -2 0.24 0.33
-3 3 2 0.31 0.66
3 -3 -2 0.88 0.22
3 -3 -2 0.78 0.14
-3 3 1 1498.21 35.15
-3 3 1 1407.61 33.14
3 -3 -1 1287.35 29.36
-3 3 0 49.08 2.4
-3 3 0 51.13 2.44
3 -3 0 52.08 2.98
3 -3 0 50.17 1.99
-3 3 -1 137.69 4.87
3 -3 1 118.43 3.94
3 -3 1 151.72 4.9
-3 3 -2 1059.21 25.14
-3 3 -2 1042.91 24.97
3 -3 2 1084.01 25.7
-3 3 -3 2.83 1.27
-3 3 -3 3.3 0.97
-3 3 -4 9.98 1.32
-3 3 -4 9.01 1.15
3 -3 4 9.08 1.35
-3 3 -5 87.71 6.23
-3 3 -5 112.16 13.31
3 -3 5 85.16 6.38
-3 3 -6 549.65 17.59
-3 3 -6 531.79 17.5
3 -3 6 569.38 18.73
-3 3 -7 103.84 7.57
-3 3 -7 89.87 8
3 -3 7 107.7 6.4
-3 3 -8 169.23 8.67
-3 3 -8 168.08 9.26
3 -3 8 150.4 8.16
-3 3 -9 1.46 1.42
-3 3 -9 6.55 2.28
3 -3 9 4.47 1.46
-3 3 -10 222.27 16.75
-3 3 -10 201.33 17.6
3 -3 10 236.1 18
-3 2 9 32 3.85
3 -2 -8 298.95 20.03
-3 2 8 289.12 19.56
3 -2 -7 448.37 18.04
-3 2 7 436.22 17.6
3 -2 -6 38.81 6.72
-3 2 6 38.92 3.05
3 -2 -5 301.67 11.18
-3 2 5 291.98 10.86
3 -2 -4 91.91 10.18
-3 2 4 68.85 3.24
3 -2 -3 218.33 6.69
-3 2 3 212.59 6.34
3 -2 -2 302.91 9.29
-3 2 2 266.97 8.18
-3 2 1 147.38 5.11
-3 2 1 137.06 4.64
3 -2 -1 126.28 3.63
3 -2 -1 134.29 3.76
-3 2 0 22.82 1.46
-3 2 0 20.38 1.24
3 -2 0 19.81 1.25
3 -2 0 20.31 0.9
-3 2 0 15.11 0.75
-3 2 -1 1867.38 26.68
3 -2 1 1896.74 26.88
3 -2 1 1736.86 24.44
-3 2 -1 1951.88 27.12
-3 2 -2 6.24 0.98
-3 2 -2 9.09 1.06
3 -2 2 7.9 0.8
-3 2 -2 5.03 0.75
-3 2 -3 837.31 23.03
3 -2 3 889.53 24.46
-3 2 -4 0.97 0.96
-3 2 -4 0.88 0.7
3 -2 4 4.96 1.17
-3 2 -5 371.68 10.05
-3 2 -5 384.22 10.71
3 -2 5 390.64 10.86
-3 2 -6 15.3 1.68
-3 2 -6 17.88 3.49
3 -2 6 17.27 2.08
-3 2 -7 336.89 11.58
-3 2 -7 320.81 11.36
3 -2 7 352.26 12.33
-3 2 -8 65.36 5.29
-3 2 -8 77.1 9.82
3 -2 8 64.47 5.43
-3 2 -9 15.87 3.02
-3 2 -9 11.47 2.73
3 -2 9 16.5 3.11
-3 2 -10 3.11 1.58
-3 2 -10 2.29 1.25
3 -2 10 2.82 1.34
-3 2 -11 70 8.75
-3 2 -11 91.32 10.55
3 -2 11 69.87 8.37
3 -1 -10 69.56 14.96
-3 1 10 97.75 11.24
3 -1 -9 74.86 14.66
-3 1 9 120 8.76
3 -1 -8 236.02 20.91
-3 1 8 239.94 12.2
3 -1 -7 1.55 1.08
-3 1 7 2.84 1.62
3 -1 -6 467.35 15.74
-3 1 6 419.42 14.22
-3 1 6 435.35 13.35
3 -1 -5 249.29 8.55
-3 1 5 265.19 8.71
-3 1 5 228.87 6.33
-3 1 5 217.03 6.08
3 -1 -4 2.85 0.96
-3 1 4 3.29 0.97
-3 1 4 1.33 0.27
-3 1 4 0.83 0.18
3 -1 -3 136.65 5.38
-3 1 3 140.61 4.88
3 -1 -2 4633.97 106.6
-3 1 2 5163.73 116.84
-3 1 1 464.69 8.13
-3 1 1 543.69 8.77
-3 1 1 493.6 6.8
-3 1 0 428.41 7.43
-3 1 0 416.14 6.89
3 -1 0 434.62 6.56
-3 1 0 427.21 6.44
-3 1 -1 336.98 6.17
3 -1 1 278.86 5.3
-3 1 -1 315.37 5.49
3 -1 1 291.82 5.1
3 -1 1 322.85 5.49
-3 1 -1 320.84 5.41
-3 1 -2 418.8 7.42
-3 1 -2 400.96 6.79
3 -1 2 411.72 6.87
3 -1 2 375.83 6.58
-3 1 -2 408.81 6.98
-3 1 -3 522.97 14.79
-3 1 -3 522.44 14.61
3 -1 3 411.48 11.61
3 -1 3 520.43 14.72
-3 1 -4 406.38 11.87
-3 1 -4 384.08 11.2
3 -1 4 408.81 12.06
-3 1 -5 42.51 2.39
-3 1 -5 45.87 5.72
3 -1 5 36.31 2.31
-3 1 -6 210.78 13.41
-3 1 -6 209.78 13.63
3 -1 6 230.69 7.78
-3 1 -7 79.59 5.71
-3 1 -7 69.51 7.85
3 -1 7 87.17 6.28
-3 1 -8 14.67 2.14
-3 1 -8 14.35 3.59
3 -1 8 11.57 1.94
-3 1 -9 328.83 15.75
-3 1 -9 298.33 14.56
3 -1 9 328.87 15.94
-3 1 -10 5.76 1.74
-3 1 -10 2.56 1.14
3 -1 10 2.79 1.46
-3 1 -11 51.9 4.96
3 -1 11 72.53 5.61
3 -1 11 56.79 5.02
3 0 -10 2.72 1.72
-3 0 10 5.06 2.67
3 0 -9 63.74 11
-3 0 9 71.84 6.04
3 0 -8 11.64 3.13
-3 0 8 24.72 4.5
3 0 -7 138.09 14.32
-3 0 7 112.15 6.27
-3 0 7 106.21 5.3
3 0 -6 9.01 2.02
-3 0 6 12.27 1.71
-3 0 6 8.64 1.03
-3 0 5 67.68 5.08
-3 0 5 45.68 5.61
-3 0 5 61.93 4.29
3 0 -4 76.53 6.44
-3 0 4 60.37 2.69
-3 0 4 51.09 4.02
-3 0 4 52.62 1.76
3 0 -3 305.94 9.28
-3 0 3 323.2 9.58
-3 0 3 312.72 8.51
-3 0 3 302.24 8.25
3 0 -2 97.96 8
-3 0 2 93.25 2.58
3 0 -2 98.3 2.64
-3 0 2 82.46 1.58
-3 0 2 89.72 1.68
-3 0 1 449.45 7.63
-3 0 1 476.85 8.07
-3 0 1 467.17 7.38
3 0 -1 462.89 7.27
3 0 -1 477.05 6.94
-3 0 1 436.62 6.38
-3 0 0 2576.8 26.48
3 0 0 2424.87 25.49
-3 0 0 2612.36 25.36
3 0 0 2504.71 24.33
3 0 0 2609.44 25.3
-3 0 0 2445.13 23.78
3 0 1 1293.25 13.69
-3 0 -1 1197.96 12.77
-3 0 -2 1226.88 18.11
3 0 2 1344.85 19.45
-3 0 -2 1333.76 18.69
3 0 2 1242.06 17.42
3 0 2 1360.61 19.65
-3 0 -2 1251.4 18.15
-3 0 -3 600.25 9.99
-3 0 -3 632.92 9.86
-3 0 -4 479.91 13.82
-3 0 -4 551.18 15.39
3 0 4 485.05 13.59
3 0 4 436.69 12.74
-3 0 -5 43.84 2.49
-3 0 -5 59.83 6.25
3 0 5 37 2.14
-3 0 -6 626.12 16.11
-3 0 -6 639.35 16.14
3 0 6 610.01 15.76
-3 0 -7 5.9 1.78
3 0 7 9.69 1.56
-3 0 -8 585.22 24.09
-3 0 -8 539.4 22.16
3 0 8 525.28 21.78
-3 0 -9 68.19 6.61
3 0 9 91.27 5.66
-3 0 -10 185.45 14.65
3 0 10 152.25 12.31
3 0 10 173.08 13.7
-3 0 -11 136.21 10.98
3 0 11 161.64 12.95
3 1 -10 39.32 9.63
-3 -1 10 63.89 5.38
3 1 -9 190.54 23.72
-3 -1 9 233.26 15.52
3 1 -8 346.48 16.58
-3 -1 8 348.92 16.77
3 1 -7 223.85 11.04
-3 -1 7 213.61 10.71
-3 -1 7 234 10.97
3 1 -6 20.28 3.68
-3 -1 6 23.83 2.42
-3 -1 6 26.2 1.97
3 1 -5 2636.77 157.29
-3 -1 5 2491.92 66.18
-3 -1 5 2542.76 66.81
3 1 -4 208.94 6.41
-3 -1 4 209.38 6.21
-3 -1 4 169.67 4.85
-3 -1 4 196.73 5.34
-3 -1 3 1713.31 45.68
-3 -1 3 1870.73 49.31
-3 -1 3 1908.7 50.33
3 1 -2 312.14 5.89
-3 -1 2 320.42 5.84
-3 -1 2 290.69 5.51
-3 -1 2 325.32 5.74
3 1 -2 300.14 5.32
-3 -1 2 270.03 4.59
-3 -1 1 1110.3 16.26
-3 -1 1 1184.41 17.25
-3 -1 1 1166.33 16.32
-3 -1 1 1159.22 16.28
3 1 -1 1113.84 15.77
-3 -1 1 1212.86 17.04
3 1 0 2719.03 27.25
-3 -1 0 2671.84 25.25
3 1 0 2833.65 27.76
-3 -1 0 2642.97 25.97
3 1 1 1869.14 19.35
-3 -1 -1 1836.25 17.29
3 1 1 1875.46 17.65
3 1 1 1835.13 18.91
-3 -1 -1 1786.43 18.38
-3 -1 -2 171.15 3.87
-3 -1 -2 157.61 2.76
3 1 2 163.66 3.65
-3 -1 -2 155.62 3.47
-3 -1 -3 795.59 12.61
-3 -1 -3 771.59 11.49
3 1 3 835.64 12.16
3 1 3 762.53 12.15
-3 -1 -4 1875.33 50.13
-3 -1 -4 1726.57 45.87
3 1 4 1795.64 47.6
3 1 4 1770.2 47.45
-3 -1 -5 5.36 1.28
-3 -1 -5 6.92 1.21
3 1 5 4.33 1.35
-3 -1 -6 1093.69 26.67
-3 -1 -6 1009.51 24.36
3 1 6 1142.88 27.73
-3 -1 -7 33.1 3.05
3 1 7 36.71 3.34
3 1 7 34.95 3.06
-3 -1 -8 93.23 5.3
3 1 8 105.46 5.72
3 1 8 114.85 6.02
-3 -1 -9 47.8 4.9
3 1 9 52.62 5.55
3 1 9 51.99 5.19
-3 -1 -10 122.53 9.08
3 1 10 145.76 10.77
3 1 10 130.43 9.46
-3 -1 -11 62.73 5.82
3 1 11 69.03 6.43
3 1 11 55 5.22
3 2 -10 47.61 15.04
-3 -2 10 92.12 10.69
3 2 -9 3.48 1.9
-3 -2 9 13.09 3.21
3 2 -8 186.54 17.94
-3 -2 8 204.61 10.58
-3 -2 8 217.52 10.7
-3 -2 7 2.13 1.04
-3 -2 7 1.85 0.93
3 2 -6 6.19 1.89
-3 -2 6 4.97 1.16
-3 -2 6 4.22 0.89
3 2 -5 154.44 10.5
-3 -2 5 158.64 10.9
-3 -2 5 150.28 10.09
3 2 -4 44.43 5.86
-3 -2 4 29.67 1.86
-3 -2 4 35.62 1.68
-3 -2 3 783.86 21.49
-3 -2 3 802.5 21.82
-3 -2 3 844.24 22.88
-3 -2 2 596.47 16.35
-3 -2 2 627.64 17.22
-3 -2 2 661.12 18.03
3 2 -2 623.24 17.05
-3 -2 2 659.35 18.01
-3 -2 1 175.05 3.55
-3 -2 1 177.54 3.6
-3 -2 1 182.33 3.27
3 2 -1 170.97 3.55
-3 -2 1 177.36 3.62
-3 -2 0 367.5 6.21
3 2 0 355.99 6.02
-3 -2 0 339.3 4.82
-3 -2 0 346.11 4.92
3 2 0 349.52 6.1
-3 -2 0 345.17 5.94
-3 -2 -1 342.84 6.02
3 2 1 336.6 5.8
3 2 1 335.85 6.02
-3 -2 -1 370.75 6.43
3 2 2 51.44 1.87
3 2 2 56.99 3
3 2 2 47.96 1.11
3 2 2 55.47 2.04
-3 -2 -2 53.29 1.9
-3 -2 -3 5941.99 155.79
3 2 3 6572.2 171.62
3 2 3 6038.57 157.72
3 2 3 6386.83 167.44
-3 -2 -4 63.72 2.84
3 2 4 71.05 4.2
3 2 4 62.08 2.41
3 2 4 66.64 3.03
-3 -2 -5 101.87 3.81
3 2 5 110.19 3.87
3 2 5 117.4 4.29
-3 -2 -6 209.75 6.64
3 2 6 256.71 7.44
3 2 6 254.31 7.7
-3 -2 -7 277.34 10.47
3 2 7 324.35 11.82
3 2 7 311.09 11.46
-3 -2 -8 104.56 5.81
3 2 8 103.18 5.56
3 2 8 101.1 5.51
-3 -2 -9 75.84 7.13
3 2 9 98.29 6.08
3 2 9 99.65 6
-3 -2 -10 2.52 1.81
3 2 10 4.48 1.88
3 2 10 2.02 1.43
-3 -2 -11 38.16 7.9
3 2 11 29.42 6.4
3 2 11 38.24 7.73
3 3 -9 8.26 2.8
-3 -3 9 14.92 3.51
-3 -3 8 171.13 12.04
-3 -3 8 176.5 12.05
3 3 -7 15.89 4.15
-3 -3 7 23.19 2.87
-3 -3 7 24.97 2.53
3 3 -6 1632.06 63.58
-3 -3 6 1600.97 62.35
3 3 -5 225.14 8.29
3 3 -5 222.31 8.79
-3 -3 5 201.49 7.52
3 3 -4 151.99 4.69
3 3 -4 154.56 5.34
-3 -3 4 158.13 4.91
-3 -3 3 124.71 3.7
-3 -3 3 136.2 4
3 3 -3 148.24 4.96
3 3 -3 146.03 4.7
-3 -3 2 1104.86 29.47
-3 -3 2 1169.83 31.18
3 3 -2 1136.04 30.52
-3 -3 2 1168.49 31.24
-3 -3 1 165.5 4.99
-3 -3 1 170.84 5.12
3 3 -1 174.79 5.22
-3 -3 1 155.58 4.6
3 3 -1 166.58 5.86
-3 -3 0 617.03 9.47
3 3 0 561.37 8.65
3 3 0 549.92 8.05
-3 -3 0 550.99 7.97
3 3 0 574.14 9.5
-3 -3 -1 803.5 12.11
3 3 1 693.85 10.55
3 3 1 743.96 10.37
-3 -3 -1 704.79 9.84
3 3 1 738.55 11.79
-3 -3 -2 487.56 8.19
3 3 2 444.51 7.48
3 3 2 452.86 6.79
-3 -3 -2 439.94 6.61
3 3 2 452.13 8.06
-3 -3 -3 1045.31 28.37
3 3 3 1037.53 27.65
3 3 3 932.76 24.93
3 3 3 995.9 27.24
-3 -3 -4 152.02 5.25
3 3 4 137.52 4.64
3 3 4 144.4 4.7
3 3 4 145.38 5.21
-3 -3 -5 354.6 9.78
3 3 5 332.98 8.86
3 3 5 332.35 9.33
-3 -3 -6 123.94 8.72
3 3 6 119 8.29
3 3 6 127.19 9.02
-3 -3 -7 37.12 2.94
3 3 7 38.55 3.21
3 3 7 35.12 2.88
-3 -3 -8 25.91 3.15
3 3 8 30.01 3.27
3 3 8 24.87 2.81
-3 -3 -9 467.55 21.93
3 3 9 464.57 21.69
3 3 9 411.39 19.32
-3 -3 -10 9.06 2.2
3 3 10 14.83 2.65
3 3 10 19.42 2.77
-3 -3 -11 223.01 12.97
3 3 11 197.09 11.85
3 3 11 207.04 11.88
-3 -4 9 82.39 6.12
-3 -4 9 61.75 4.68
-3 -4 8 3.82 1.8
-3 -4 8 2.02 1.21
3 4 -7 58.96 10.18
3 4 -7 68.7 6.61
-3 -4 7 74.63 6.83
3 4 -6 139.2 15.02
-3 -4 6 137.21 7.1
3 4 -5 26.43 4.26
3 4 -5 36.83 6.07
-3 -4 5 32.08 2.52
-3 -4 4 180.06 11.81
-3 -4 4 228.28 6.8
3 4 -4 217.9 7.81
-3 -4 4 213.18 7.01
-3 -4 3 0.93 0.38
-3 -4 3 1.65 0.59
3 4 -3 -0.06 0.42
3 4 -3 1.99 0.68
-3 -4 2 50.77 2.13
-3 -4 2 52.61 1.81
3 4 -2 56.92 5.36
-3 -4 2 47.01 1.99
3 4 -2 49.57 4.1
-3 -4 1 636.26 17.11
-3 -4 1 612.27 16.49
3 4 -1 592.65 16.28
-3 -4 1 620.17 16.9
3 4 -1 667.56 18.69
-3 -4 0 1370.04 36.28
3 4 0 1365.16 36.13
3 4 0 1381.53 36.59
-3 -4 0 1301.19 34.47
3 4 0 1316.41 35.62
3 4 1 73.6 2.6
3 4 1 63.79 2.19
-3 -4 -1 76.27 2.54
3 4 1 89.69 3.59
-3 -4 -2 668.39 18.38
3 4 2 637.78 17.51
3 4 2 652.94 17.66
-3 -4 -2 609.68 16.49
-3 -4 -3 3.66 0.71
3 4 3 1.48 0.61
-3 -4 -3 1.66 0.68
3 4 3 0.9 0.91
-3 -4 -4 727.13 17.93
3 4 4 801.29 19.16
3 4 4 767.1 19.08
-3 -4 -5 77.46 3.31
3 4 5 78.11 3.11
3 4 5 81.84 3.62
-3 -4 -6 140.38 5.97
3 4 6 111.48 7.42
3 4 6 135.94 5.92
-3 -4 -7 241.98 10.85
3 4 7 241.32 10.63
3 4 7 227.22 10.24
-3 -4 -8 331.52 13.81
3 4 8 291.6 12.18
3 4 8 317.83 13.26
-3 -4 -9 37.11 6.13
3 4 9 29.27 5.32
3 4 9 22.85 4.3
-3 -4 -10 31.1 6.37
3 4 10 29.93 5.96
3 4 10 15.32 3.43
-3 -4 -11 32.81 6.82
3 4 11 13.64 3.59
3 4 11 18.42 4.07
-3 -5 9 126.15 14.16
-3 -5 9 124.09 13.87
3 5 -8 9.19 2.73
-3 -5 8 4.2 1.65
3 5 -7 509.83 34.85
-3 -5 7 586.03 37.66
3 5 -6 3.71 1.54
-3 -5 6 2.08 1.04
3 5 -5 651.89 26.56
-3 -5 5 658.9 26.59
-3 -5 4 158.02 5.18
3 5 -4 166.29 7.05
-3 -5 4 175.03 6.72
-3 -5 3 7.31 0.7
-3 -5 3 8.3 0.75
3 5 -3 9.89 1.95
-3 -5 2 2.89 0.31
-3 -5 2 1.44 0.27
3 5 -2 3.35 0.68
3 5 -2 2.3 0.92
-3 -5 1 803.7 18.45
3 5 -1 872.96 20.78
3 5 -1 818.44 20.23
-3 -5 0 210.91 5.34
3 5 0 203.79 5.18
3 5 0 200.95 5.53
-3 -5 0 193.33 5.28
3 5 0 215.85 6.68
-3 -5 -1 2311.2 52.64
3 5 1 2318.61 52.74
3 5 1 2403.56 54.81
-3 -5 -1 2068.69 47.26
3 5 1 2437.91 56.51
3 5 2 45.91 1.98
3 5 2 63.05 2.44
-3 -5 -3 2.44 0.85
3 5 3 3.53 0.73
3 5 3 3.78 1.17
-3 -5 -4 33.82 2.79
3 5 4 36.91 2.92
3 5 4 42.07 4.97
-3 -5 -5 212.83 8.12
3 5 5 251.11 9.1
3 5 5 251.14 9.53
-3 -5 -6 243.38 8.94
3 5 6 218.92 7.98
3 5 6 177.81 7.01
-3 -5 -7 33.56 3.53
3 5 7 31.69 3.38
3 5 7 32.53 3.58
3 5 8 211.23 10.72
3 5 8 227.35 11.4
-3 -5 -9 16.84 2.56
3 5 9 13.05 2.45
3 5 9 10.52 1.96
-3 -5 -10 184.62 14.4
3 5 10 168.13 13.83
3 5 10 197.08 15.08
3 5 11 5.16 2.82
3 5 11 0.25 1.43
-3 -6 9 28.1 4.09
3 6 -8 285.14 17.69
-3 -6 8 315.11 17.18
3 6 -7 14.81 5.56
-3 -6 7 14.36 2.33
3 6 -6 17.77 4.82
-3 -6 6 22.57 3.89
3 6 -5 32.13 6.05
-3 -6 5 38.81 3.64
3 6 -4 48.76 8.48
-3 -6 4 52.59 3.48
3 6 -3 448.5 14.7
3 6 -3 406.31 13.77
3 6 -2 19.62 2.94
3 6 -2 15.91 2.97
3 6 -1 1261.29 33.99
3 6 -1 1223.5 33.61
-3 -6 0 324.34 8.84
3 6 0 329.99 8.98
3 6 0 359.65 10.55
3 6 0 334.98 10.55
-3 -6 -1 725.12 19.5
3 6 1 724.36 19.45
3 6 1 723.49 19.92
3 6 1 752.11 21.34
-3 -6 -2 308.48 8.99
3 6 2 314.32 9.36
3 6 2 311.03 9.92
-3 -6 -3 633.85 17.7
3 6 3 650.48 18.15
3 6 3 619.22 18.01
-3 -6 -4 67.44 4.73
3 6 4 76.21 5.29
3 6 4 68 7.01
-3 -6 -5 369.28 12.48
3 6 5 356 11.91
3 6 5 341.55 12.15
-3 -6 -6 21.93 2.58
3 6 6 25.01 2.88
3 6 6 20.03 3.44
-3 -6 -7 775.98 29.61
3 6 7 632.38 24.33
3 6 7 738.27 28.29
-3 -6 -9 52.56 4.63
3 6 9 55.51 4.88
3 6 9 53.7 4.69
-3 -6 -10 5.14 1.81
3 6 10 6.88 2.87
3 6 10 5.43 2.28
3 7 -8 44.19 8.25
-3 -7 8 67.61 8.06
3 7 -7 150.58 12.63
-3 -7 7 167.46 13.04
3 7 -6 21.81 5.21
-3 -7 6 31.02 3.87
3 7 -5 127.18 13.14
-3 -7 5 196.26 10.23
3 7 -4 532.73 24.79
-3 -7 4 522.15 24
3 7 -3 69.53 11.43
3 7 -3 55.71 5.41
3 7 -2 374.65 15.59
3 7 -2 362.07 15.66
3 7 -1 12.77 1.73
3 7 -1 16.88 2.62
3 7 0 134.61 5.26
3 7 0 128.6 5.57
-3 -7 -1 8.15 0.84
3 7 1 6.41 1.25
3 7 1 5.69 2.15
-3 -7 -2 27.33 1.94
3 7 2 25.67 2.21
3 7 2 25.52 3.53
-3 -7 -3 2.14 0.68
3 7 3 0.23 0.76
3 7 3 5.8 1.25
-3 -7 -4 12.58 1.28
3 7 4 11.64 1.51
3 7 4 10.61 2.24
-3 -7 -5 799.11 35.46
3 7 5 848.7 37.6
3 7 5 820.33 36.67
-3 -7 -6 5.5 1.3
3 7 6 7.71 1.63
3 7 6 2.81 0.91
-3 -7 -7 232.93 11.69
3 7 7 250.39 12.4
3 7 7 229.28 19.02
-3 -7 -8 31.1 3.66
3 7 8 34.56 3.93
3 7 8 38.61 7.69
3 7 9 138.51 8.59
3 7 9 151.41 13.22
3 7 10 30.89 5.35
3 7 10 23.55 5.34
3 8 -7 55.77 15.19
3 8 -6 52.43 14.84
-3 -8 6 71.33 6.45
3 8 -5 35.82 9.59
-3 -8 5 40.63 3.78
3 8 -4 364.16 24.22
-3 -8 4 413.74 27.15
3 8 -3 19.61 3.3
-3 -8 3 24.4 3.1
3 8 -2 596.23 22.95
3 8 -2 589.24 23.35
3 8 -1 18.8 2.25
3 8 -1 15.21 2.82
3 8 0 74.67 6.48
3 8 0 83.02 10.34
3 8 1 54.23 4.9
3 8 1 55.72 9.13
3 8 2 183.4 8.99
3 8 2 188.78 15.39
-3 -8 -3 61.09 4.65
3 8 3 64.44 5.11
3 8 3 83.31 12.36
-3 -8 -4 1771.83 141.16
3 8 4 1704.43 62.47
3 8 4 1829.39 146.03
-3 -8 -5 13.74 2.03
3 8 5 14.63 2.2
3 8 5 14.52 1.99
-3 -8 -6 100.44 7.37
3 8 6 95.31 7.16
3 8 6 81.07 10.2
-3 -8 -7 10.48 2.43
3 8 7 7.21 2.07
3 8 7 10.3 2.6
-3 -8 -8 13.77 3.27
3 8 8 15.78 3.72
3 8 8 12.72 3.1
-3 -8 -9 10.06 2.16
3 8 9 10.77 4.36
3 8 9 10.83 2.43
3 9 -5 73.73 19.5
-3 -9 5 120.17 7.69
3 9 -4 2.36 1.47
-3 -9 4 3.11 1.48
3 9 -3 181.99 20.97
-3 -9 3 231.31 17.82
3 9 -2 12.01 2.11
3 9 -2 11.94 2.68
3 9 -1 3.76 1.48
3 9 -1 1.81 1.23
3 9 0 66.62 4.35
3 9 0 65.46 9.5
3 9 1 143.73 7.67
3 9 1 125.38 10.44
3 9 2 21.71 3.75
3 9 2 33.59 6.93
3 9 3 11.24 2.42
3 9 3 15 5
3 9 4 28.17 3.56
3 9 4 25.3 4.38
3 9 5 104.56 8.64
3 9 5 97.49 11.05
-3 -9 -6 135.8 9.57
3 9 6 154.96 10.85
3 9 6 129.72 14.43
-3 -9 -7 19.57 5.56
3 9 7 25.22 6.44
-3 -9 -8 28.7 7.35
3 9 8 39.94 6.34
3 9 8 28.5 4.53
3 10 -5 117.03 14.77
3 10 -4 46.06 10.36
3 10 -3 23.96 8.04
-3 -10 3 28.08 5.74
-3 -10 2 3.23 1.93
3 10 -1 47.79 7.79
3 10 0 1.33 1.48
3 10 1 269.52 30.15
3 10 2 22.65 5.4
3 10 3 226.24 20.16
3 10 4 3.02 1.4
3 10 4 2 1.45
3 10 5 76.94 5.52
3 10 5 87.23 8.4
3 10 6 10.56 2.88
3 10 6 7.51 1.71
3 10 7 26.76 5.09
3 10 7 17.18 5.74
3 11 -2 14.46 3.39
3 11 -1 33.86 5.43
3 11 0 82.09 9.66
3 11 1 55.12 7.02
3 11 1 42.31 11.29
3 11 2 224.57 24.27
3 11 2 264.75 28.45
3 11 3 13.94 3.09
3 11 3 20.53 3.5
3 11 4 5.46 2.42
-4 9 1 2.9 2.03
-4 9 0 50.82 4.4
-4 9 -1 26.57 5.87
4 -9 3 62.84 8.02
-4 8 5 136.79 15.31
-4 8 4 100.53 7.39
-4 8 4 117.01 7.85
-4 8 3 73.3 6.3
-4 8 3 76.58 6.8
-4 8 2 13.01 3.18
-4 8 1 0.42 1.08
-4 8 1 4.02 1.69
-4 8 0 21.71 4.58
-4 8 0 21.85 4.55
-4 8 -1 28.98 5.89
4 -8 1 22.09 4.55
-4 8 -2 395.67 25.49
4 -8 2 417.91 26.43
-4 8 -3 18.27 4.12
4 -8 3 5.84 1.94
-4 8 -4 77.74 7.14
4 -8 4 90.4 7.63
-4 8 -5 2.76 1.57
4 -8 5 2.28 2.34
4 -8 6 45.86 5.95
4 -7 -6 17.98 7.79
4 -7 -5 165.59 13.08
-4 7 5 179.43 14.13
-4 7 4 39.22 4.33
-4 7 4 22.59 4.72
-4 7 3 39.61 4.32
-4 7 3 39.28 4.39
-4 7 2 6.45 1.71
-4 7 2 3.36 1.46
-4 7 1 435.6 20.2
-4 7 1 457.56 21.75
-4 7 0 37.76 6.19
-4 7 0 38.28 6.24
4 -7 0 36.67 5.95
-4 7 -1 419.75 19.95
-4 7 -2 11.91 2.46
-4 7 -2 21.86 4.19
4 -7 2 16.65 3.22
-4 7 -3 430.44 27.72
-4 7 -3 518.27 33.76
4 -7 3 473.95 30.66
-4 7 -4 94.46 8.32
4 -7 4 74.23 6.54
-4 7 -5 12.03 3.18
4 -7 5 5.83 3.05
-4 7 -6 13.34 4.11
4 -7 6 13.09 3.36
-4 7 -7 103.38 17.47
4 -7 7 129.7 14.79
4 -6 -7 6.16 2.55
4 -6 -6 98.74 15.65
-4 6 6 98.31 8.66
4 -6 -5 3.03 0.88
-4 6 5 10.58 2.63
4 -6 -4 12.85 2.2
-4 6 4 8.92 2.4
-4 6 3 31.24 3.59
-4 6 3 26.58 3.36
-4 6 2 12.86 1.97
-4 6 2 8.69 1.96
-4 6 1 179 8.1
-4 6 1 203.77 9.26
4 -6 -1 167.15 6.97
-4 6 0 174.59 8.76
-4 6 0 208.39 10.6
-4 6 -1 184.38 9.11
-4 6 -1 200.47 10.21
4 -6 1 187.37 9.16
-4 6 -2 13.7 1.83
-4 6 -2 9.11 2.09
4 -6 2 6.51 1.27
-4 6 -3 475.78 18.39
-4 6 -3 410.88 16.72
4 -6 3 423.7 16.8
-4 6 -4 297.59 14.65
4 -6 4 273.22 13.43
-4 6 -5 92.13 5.4
-4 6 -5 121.21 7.42
4 -6 5 108.31 6.46
-4 6 -6 245.01 19.06
4 -6 6 240.87 18.73
-4 6 -7 38.08 9.46
4 -6 7 48.43 4.99
-4 6 -8 21.69 6.43
4 -6 8 18.34 4.41
4 -5 -7 22.4 5.56
-4 5 7 30.48 6.52
4 -5 -6 588.32 101.77
-4 5 6 531.87 39.54
4 -5 -5 4.85 2.22
-4 5 5 10.8 2.58
4 -5 -4 405.66 21.85
-4 5 4 439.34 20.64
-4 5 3 173.32 9.07
-4 5 2 961.42 38.27
-4 5 2 1004.61 40.02
-4 5 1 615.45 19.77
-4 5 1 649.53 20.95
4 -5 -1 619.09 18.93
-4 5 0 870.16 27.15
-4 5 0 781.21 24.81
4 -5 0 765.59 23.47
-4 5 -1 2.86 0.68
-4 5 -1 2.37 0.99
4 -5 1 1.51 1.26
-4 5 -2 11.49 1.41
-4 5 -2 15.96 1.86
4 -5 2 13.77 1.54
-4 5 -3 4.22 1.11
-4 5 -3 7.72 1.51
4 -5 3 14.88 1.62
-4 5 -4 251.71 11.9
-4 5 -4 248.27 12.17
4 -5 4 266.39 12.85
-4 5 -5 493.43 19.03
-4 5 -5 507.56 20.2
4 -5 5 538.93 21.31
-4 5 -6 247.72 12.71
4 -5 6 243.65 12.43
-4 5 -7 536.24 34.89
4 -5 7 542.55 35.32
-4 5 -8 2.19 1.9
4 -5 8 2.11 1.65
-4 5 -9 67.73 18.32
4 -5 9 109.78 7.6
4 -4 -8 1.71 1.28
-4 4 8 2.56 1.6
4 -4 -7 34.43 7.54
-4 4 7 40.4 3.84
4 -4 -6 3.96 1.8
-4 4 6 3.5 1.61
4 -4 -5 14.75 3.24
-4 4 5 13.7 2.05
4 -4 -4 178.34 20.62
-4 4 4 154.7 8.16
4 -4 -3 82.5 4.71
-4 4 3 77.91 5.27
-4 4 2 1.93 1.08
-4 4 1 9.82 1.86
-4 4 1 11.38 1.61
4 -4 -1 8.79 0.89
-4 4 0 579.53 16.81
-4 4 0 540.78 15.82
4 -4 0 506.24 13.97
4 -4 0 536.64 14.87
-4 4 -1 33.8 3.03
-4 4 -1 28.9 2.64
4 -4 1 24.57 2.11
-4 4 -2 157.59 10.76
-4 4 -2 137.25 9.56
4 -4 2 157.35 10.67
-4 4 -3 135.03 5.66
-4 4 -3 152.81 6.39
4 -4 3 164.51 6.62
-4 4 -4 255.76 9.07
-4 4 -4 230.29 8.69
4 -4 4 226.23 8.45
-4 4 -5 17.16 1.89
-4 4 -5 17.23 1.9
4 -4 5 16.71 2.22
-4 4 -6 225.61 9.54
-4 4 -6 220.18 9.76
4 -4 6 235.43 10.52
-4 4 -7 36.2 3.81
-4 4 -7 48 8.04
4 -4 7 50.65 5.31
-4 4 -8 93.6 19.13
4 -4 8 118.32 9.96
-4 4 -9 10.43 3.01
-4 4 -9 12.42 3.3
4 -4 9 12.38 3.24
-4 4 -10 15.41 3.92
4 -3 -8 9.52 2.91
-4 3 8 7.64 2.7
4 -3 -7 65.66 9.34
-4 3 7 114.95 8.62
4 -3 -6 52.98 9
-4 3 6 54.56 5.37
4 -3 -5 828.76 37.09
-4 3 5 793.1 35.53
4 -3 -4 80.68 8.03
-4 3 4 79.55 5.18
4 -3 -3 190.29 16.09
-4 3 3 148.89 6.22
-4 3 2 336.07 10.63
-4 3 2 333.77 10.3
-4 3 1 568.83 14.8
-4 3 1 562.23 14.39
4 -3 -1 567.39 13.36
4 -3 -1 516.91 12.07
-4 3 0 10.72 1.37
-4 3 0 12.79 1.27
4 -3 0 6.59 1.1
4 -3 0 9.82 0.85
-4 3 -1 592.63 14.98
4 -3 1 563.01 13.92
-4 3 -2 6.74 1.08
-4 3 -2 14.23 1.41
4 -3 2 8.85 1.21
-4 3 -3 935.2 25.82
-4 3 -3 788.57 22.04
4 -3 3 997.72 27.43
-4 3 -4 442.24 13.16
-4 3 -4 456.33 13.65
4 -3 4 394.17 12.18
-4 3 -5 306.57 11.12
-4 3 -5 275.38 10.3
-4 3 -6 199.49 9.06
-4 3 -6 221.58 10.02
4 -3 6 207.16 9.74
-4 3 -7 28.73 2.94
-4 3 -7 25.47 6.15
4 -3 7 23.11 2.89
-4 3 -8 30.89 5.08
-4 3 -8 32.16 7.63
4 -3 8 21.81 4.15
-4 3 -9 4.76 1.73
-4 3 -9 1.63 1.51
4 -3 9 5.36 1.78
-4 3 -10 103.1 6.77
-4 3 -10 99.57 13.77
4 -3 10 134.25 8.48
4 -2 -9 0.96 1.15
-4 2 9 6.52 2.63
4 -2 -8 268.93 17.82
-4 2 8 248.59 16.48
4 -2 -7 34.94 8.76
-4 2 7 33.39 5.55
4 -2 -6 209.9 12.05
-4 2 6 225.57 9.9
4 -2 -5 30.41 4.75
-4 2 5 20.34 2.08
4 -2 -4 162 7
-4 2 4 172.84 7.04
4 -2 -3 896.39 26.4
-4 2 3 945.65 26.17
-4 2 2 32.81 2.25
-4 2 2 32.74 1.95
-4 2 1 182.82 5.88
-4 2 1 162.7 5
4 -2 -1 192.34 4.6
4 -2 -1 165.09 3.98
-4 2 0 265.77 7.54
-4 2 0 258.32 7.12
4 -2 0 252.87 6.35
-4 2 0 241.61 6.08
-4 2 -1 2.08 0.9
-4 2 -1 2.36 0.54
4 -2 1 3.87 1.07
-4 2 -1 1.42 0.44
-4 2 -2 129.2 4.55
-4 2 -2 134.17 4.28
4 -2 2 138.72 4.49
-4 2 -3 659.07 16.54
-4 2 -3 736.09 18.02
4 -2 3 685.6 17.07
-4 2 -4 143.79 5.06
-4 2 -4 157.49 5.13
-4 2 -5 914.45 25.49
-4 2 -5 907.26 25.28
4 -2 5 865.59 24.38
-4 2 -6 58.88 4.2
-4 2 -6 91.58 8.25
4 -2 6 76.12 5.04
-4 2 -7 503.2 22.96
-4 2 -7 479.54 22.02
4 -2 7 496.97 23
-4 2 -8 9.45 1.89
-4 2 -8 5.7 1.42
4 -2 8 10.24 2.31
-4 2 -9 194.35 13.39
-4 2 -9 182.58 14.04
4 -2 9 181.59 12.74
-4 2 -10 5.24 2.01
-4 2 -10 2.19 2
4 -2 10 1.33 1.41
-4 2 -11 22.76 4.29
-4 2 -11 12.52 5.93
4 -1 -9 3.51 1.8
-4 1 9 5.09 1.92
4 -1 -8 61.77 10.73
-4 1 8 67.14 6.22
4 -1 -7 6.52 2.24
-4 1 7 6.63 1.65
4 -1 -6 427.47 19.99
-4 1 6 495.48 22.73
4 -1 -5 27.64 5.64
-4 1 5 30.94 2.66
4 -1 -4 1261.6 34.72
-4 1 4 1406.74 38.19
4 -1 -3 539.99 14.78
-4 1 3 542.13 13.83
-4 1 2 491.77 12.82
-4 1 2 463.9 11.79
-4 1 1 210.72 6.88
-4 1 1 168.53 5.43
4 -1 -1 196.96 5.46
-4 1 1 184.63 5.07
-4 1 0 623.68 17.59
-4 1 0 513.35 14.29
4 -1 0 538.1 14.91
4 -1 0 507.2 13.77
-4 1 0 471.44 12.83
-4 1 -1 3.57 0.88
-4 1 -1 7.13 0.83
4 -1 1 3.04 0.56
4 -1 1 6 0.69
-4 1 -1 6.63 0.76
-4 1 -2 1574.18 42.37
-4 1 -2 1713.05 45.52
4 -1 2 1367.56 36.5
4 -1 2 1606 42.86
-4 1 -3 24.31 1.77
-4 1 -3 22.69 1.47
-4 1 -4 315.69 8.88
-4 1 -4 304.22 8.25
4 -1 4 290.88 8.51
-4 1 -5 202.61 13.77
-4 1 -5 218.77 7.22
4 -1 5 215.35 7.47
-4 1 -6 4.83 1.34
-4 1 -6 5.8 1.4
4 -1 6 2.51 0.87
-4 1 -7 53.4 3.56
-4 1 -7 44.05 8.33
4 -1 7 95.47 5.66
-4 1 -8 16.66 2.68
-4 1 -8 17.17 3.23
4 -1 8 12.95 1.74
-4 1 -9 270.32 13.5
-4 1 -9 266.3 13.21
4 -1 9 289.32 14.32
-4 1 -10 4.39 1.87
-4 1 -10 10.2 2.68
4 -1 10 3.8 1.65
-4 1 -11 94.93 10.93
4 -1 11 107.09 12.19
4 -1 11 108 12.31
4 0 -9 141.27 13.15
-4 0 9 192.3 11.16
4 0 -8 14.07 2.81
-4 0 8 11.59 2.69
4 0 -7 268.17 13.25
-4 0 7 312.22 15.07
-4 0 6 6.78 2.17
-4 0 5 93.79 4.39
-4 0 5 85.63 3.71
4 0 -4 273.93 8.99
-4 0 4 247.77 7.99
-4 0 4 201.24 12.94
-4 0 4 217.24 6.01
4 0 -3 35.31 4.15
-4 0 3 30.14 1.75
-4 0 3 24.72 0.87
-4 0 3 26.59 0.9
-4 0 2 390.42 10.33
-4 0 2 394.34 10
4 0 -2 298.21 7.78
4 0 -2 393.95 9.17
-4 0 2 326.89 7.69
-4 0 1 24.03 1.66
-4 0 1 27.83 1.41
4 0 -1 20.22 1.2
4 0 -1 28.69 2.66
-4 0 1 24.19 1.07
-4 0 0 2409.83 55.39
-4 0 0 2329.05 52.89
4 0 0 2498.2 56.66
-4 0 0 2012.18 45.77
-4 0 -1 351.93 10.38
-4 0 -1 353.39 9.79
4 0 1 335.34 9.3
4 0 1 328.51 9.39
-4 0 -1 325.39 9.27
-4 0 -2 927.15 25.47
-4 0 -2 760.1 20.44
4 0 2 774.91 20.8
4 0 2 855.09 23.3
-4 0 -3 51.68 2.59
-4 0 -3 48.71 3.91
4 0 3 45.6 1.91
4 0 3 60.84 2.79
-4 0 -4 4301.58 98.16
-4 0 -4 4499.46 102.11
4 0 4 4432.4 101.15
-4 0 -5 15.5 1.66
-4 0 -5 18.3 2.67
4 0 5 18.98 2.01
-4 0 -6 483.69 14.5
-4 0 -6 462.93 13.56
4 0 6 450.97 13.69
-4 0 -7 11.47 1.79
-4 0 -7 17.11 2.98
4 0 7 16.14 1.95
-4 0 -8 121.79 6.97
-4 0 -8 122.01 15.23
4 0 8 115.29 6.66
-4 0 -9 72 5.1
-4 0 -9 63.29 6.87
4 0 9 79.73 5.2
-4 0 -10 437.1 32.67
4 0 10 510.59 38.01
4 0 10 460 34.37
-4 0 -11 102.53 6.98
4 0 11 118.81 8.27
4 0 11 139.71 8.96
4 1 -10 29.35 8.61
4 1 -9 141.67 12.95
-4 -1 9 147.33 9.22
4 1 -8 12.44 3.28
-4 -1 8 11.87 2.16
4 1 -7 95.77 10.38
-4 -1 7 89.99 5.69
4 1 -6 115.31 9.77
-4 -1 6 119.34 6.49
-4 -1 6 102.42 8.3
4 1 -5 808.68 26.28
-4 -1 5 813.78 25.47
-4 -1 5 784.24 23.76
4 1 -4 59.37 7.89
-4 -1 4 58.24 4.39
-4 -1 4 39.55 5.58
-4 -1 4 68.64 4.7
4 1 -3 679.26 17
-4 -1 3 676.24 16.52
-4 -1 3 644.39 15.19
-4 -1 3 704.85 16.55
-4 -1 2 169.02 5.14
-4 -1 2 174.73 5.64
-4 -1 2 180.88 5.06
4 1 -2 179.87 4.79
-4 -1 2 166.14 4.44
-4 -1 1 18.86 1.37
-4 -1 1 15.48 2.58
-4 -1 1 19.1 1.07
4 1 -1 25.28 3.45
-4 -1 1 15.24 0.95
-4 -1 0 937.79 25.53
-4 -1 0 906.11 23.96
4 1 0 846.19 22.41
4 1 0 926.79 24.9
-4 -1 0 871.71 23.45
-4 -1 -1 1365.76 36.73
-4 -1 -1 1349.11 35.37
4 1 1 1295.37 33.96
4 1 1 1312.43 35.08
-4 -1 -1 1207.29 32.32
-4 -1 -2 235.09 7.38
-4 -1 -2 202.36 5.84
4 1 2 217.92 6.04
4 1 2 186.25 5.91
-4 -1 -3 213.08 6.87
-4 -1 -3 185.78 5.54
4 1 3 214.79 6.16
4 1 3 244.31 7.66
-4 -1 -4 2124.33 49.36
-4 -1 -4 1889.77 43.35
4 1 4 1581.74 36.37
4 1 4 1758.15 41.17
-4 -1 -5 2.32 1.89
-4 -1 -5 2.02 0.63
4 1 5 3.21 1.41
-4 -1 -6 921.7 25.85
-4 -1 -6 892.09 24.94
4 1 6 689.4 19.84
-4 -1 -7 7.68 1.51
-4 -1 -7 8.51 1.29
4 1 7 5.44 1.23
-4 -1 -8 425.12 19.87
4 1 8 495.29 22.64
4 1 8 500.9 23.11
-4 -1 -9 1.62 1.56
4 1 9 5.48 2.3
4 1 9 6.98 1.93
-4 -1 -10 42.76 4.83
4 1 10 51.65 4.99
4 1 10 47.06 4.77
-4 -1 -11 65.3 5.03
4 1 11 28.57 6.26
4 1 11 50.92 4.29
4 2 -9 1.07 1.41
-4 -2 9 1.74 1.45
4 2 -8 182.77 14.17
-4 -2 8 205.41 15.92
4 2 -7 10.26 2.81
-4 -2 7 8.56 1.72
4 2 -6 91.78 15.02
-4 -2 6 87.53 7.56
-4 -2 6 87.46 7.29
4 2 -5 46.86 7.4
-4 -2 5 61.47 4.08
-4 -2 5 51.26 3.2
4 2 -4 730.47 21.17
-4 -2 4 765.8 21.27
-4 -2 4 787 21.41
-4 -2 3 1157.77 27.48
-4 -2 3 1073.8 25.38
-4 -2 3 849.8 20.12
-4 -2 2 24.49 1.51
-4 -2 2 15.68 2.55
-4 -2 2 21.38 1.21
4 2 -2 25.48 3.47
-4 -2 2 22.19 1.29
-4 -2 1 448.18 12.73
-4 -2 1 438.38 12.02
-4 -2 1 421.02 11.49
4 2 -1 431.26 12.15
-4 -2 1 443.24 12.43
-4 -2 0 57.02 2.43
-4 -2 0 55.15 1.6
-4 -2 0 57.13 1.65
4 2 0 66.91 5.81
-4 -2 0 57.32 2.37
-4 -2 -1 1209.17 32.61
-4 -2 -2 428.15 12.35
4 2 2 450.21 12.94
-4 -2 -3 998.26 27.36
4 2 3 921.29 24.42
4 2 3 933.76 24.77
4 2 3 975.75 26.82
-4 -2 -4 587.7 14.93
4 2 4 581.96 13.95
4 2 4 528.46 13.7
-4 -2 -5 538.53 14.11
4 2 5 541.49 13.43
4 2 5 551.45 14.56
-4 -2 -6 7.56 1.22
4 2 6 11.11 1.4
4 2 6 14.74 1.85
-4 -2 -7 809.34 25.74
4 2 7 719.64 22.68
4 2 7 729.64 23.39
-4 -2 -8 95.36 8.55
4 2 8 112.68 6.15
4 2 8 94.6 8.27
-4 -2 -9 163.68 8.96
4 2 9 190.83 9.82
4 2 9 202.35 10.54
-4 -2 -10 31.6 4.06
4 2 10 51.72 5.36
4 2 10 48.76 4.72
-4 -2 -11 24.29 5.29
4 2 11 15.46 4.05
4 2 11 13.58 3.3
-4 -3 9 12.48 3.28
4 3 -8 101.08 16.64
-4 -3 8 144.93 10.21
4 3 -7 38.06 9.58
-4 -3 7 57.17 9.01
-4 -3 7 40.99 6.42
4 3 -6 261.93 10.82
-4 -3 6 251.74 10.58
-4 -3 6 255.53 10.43
4 3 -5 175.08 7.88
-4 -3 5 170.24 7.79
-4 -3 5 192.83 8.37
-4 -3 4 96.14 6.35
-4 -3 4 70.5 4.87
-4 -3 4 87.08 5.8
-4 -3 3 40.58 3.14
-4 -3 3 36.28 1.89
4 3 -3 41.06 6.87
-4 -3 2 1064.92 25.04
-4 -3 2 1062.44 24.76
-4 -3 2 1077.84 25.14
4 3 -2 1046.54 25.09
-4 -3 1 22.62 1.38
-4 -3 1 24.81 1.09
-4 -3 1 28.27 1.2
4 3 -1 35.31 5.81
-4 -3 0 295.04 8.69
-4 -3 0 281.3 7.52
-4 -3 0 283.19 7.59
-4 -3 -1 25.47 1.52
4 3 1 33.91 3.85
-4 -3 -2 696.64 19.32
4 3 2 551.79 15.75
-4 -3 -3 34.72 1.89
4 3 3 27.41 3.12
4 3 3 37.75 1.36
4 3 3 45.51 2.4
-4 -3 -4 37.48 2.11
4 3 4 22.52 2.67
4 3 4 31.97 1.48
4 3 4 28.59 2.18
-4 -3 -5 300.93 8.76
4 3 5 281.77 7.56
4 3 5 256.49 7.83
-4 -3 -6 406.29 14.41
4 3 6 420.54 14.34
4 3 6 401.87 14.36
-4 -3 -7 120.61 6.22
4 3 7 119.9 5.97
4 3 7 118.63 6.22
-4 -3 -8 23.1 2.52
4 3 8 29.41 3.24
-4 -3 -9 36.83 6.14
4 3 9 51.24 8.05
4 3 9 66.87 4.71
-4 -3 -10 2.54 1.87
4 3 10 6.17 1.92
4 3 10 3 1.95
-4 -3 -11 22.87 5.13
4 3 11 48.82 5.28
4 3 11 37.07 7.66
-4 -4 9 9 2.45
-4 -4 8 3.05 1.61
-4 -4 7 480.03 31.1
-4 -4 7 500.42 32.21
-4 -4 6 4.56 1.59
-4 -4 6 8.26 1.71
-4 -4 5 404.05 18.19
4 4 -5 373.79 17.17
-4 -4 5 367.55 16.86
-4 -4 4 52.86 3.3
4 4 -4 57.03 7.11
-4 -4 4 53.54 3.54
-4 -4 3 22.36 1.88
4 4 -3 28.27 4.15
4 4 -3 26.64 4.32
-4 -4 2 310.06 7.95
-4 -4 2 334.09 8.54
4 4 -2 351.47 9.05
-4 -4 2 300.72 7.76
4 4 -2 313.33 8.79
-4 -4 1 190.76 5.29
4 4 -1 167.84 4.6
-4 -4 1 167.99 4.52
4 4 -1 184.91 5.76
-4 -4 0 834.7 19.77
4 4 0 767.92 18.23
4 4 0 733.41 17
-4 -4 0 749.15 17.28
4 4 0 777 19.14
-4 -4 -1 219.61 6.12
4 4 1 192.92 4.69
-4 -4 -1 192.31 4.67
4 4 1 202.2 7.52
-4 -4 -2 385.42 9.98
4 4 2 347.94 8.24
-4 -4 -2 353.97 8.38
4 4 2 348.6 9.97
-4 -4 -3 27.41 1.66
4 4 3 26.88 3.41
4 4 3 35 1.4
4 4 3 38.64 2.4
-4 -4 -4 830.32 20.45
4 4 4 660.03 15.75
4 4 4 687.75 16.41
4 4 4 769.52 19.41
-4 -4 -5 164.06 11.25
4 4 5 167.3 11.15
4 4 5 173.94 11.96
-4 -4 -6 672.13 22.81
4 4 6 613.97 20.48
4 4 6 663.79 22.66
-4 -4 -7 21.95 2.47
4 4 7 20.08 1.95
4 4 7 25.71 2.55
-4 -4 -8 304.97 12.91
4 4 8 267.61 11.21
4 4 8 287.82 12.37
-4 -4 -9 0.98 1
4 4 9 1.84 1.41
4 4 9 2.2 1.65
-4 -4 -10 73.77 6.08
4 4 10 102.48 7.56
4 4 10 119.34 8.8
4 4 11 18.77 4.34
4 4 11 15.18 2.81
-4 -5 9 91.92 10.69
-4 -5 8 5.87 2.72
-4 -5 8 0.53 1.17
-4 -5 7 105.37 8.8
-4 -5 7 113.83 9.23
4 5 -6 2.81 1.56
-4 -5 6 12.58 2.45
4 5 -5 356.96 14.46
-4 -5 5 344.3 13.86
-4 -5 4 169.29 7.12
4 5 -4 167.07 8.98
-4 -5 4 184.27 8.43
-4 -5 3 2065.77 61.11
4 5 -3 2170.37 85.34
4 5 -3 2069.35 62.34
-4 -5 2 3.96 0.79
-4 -5 2 2.87 0.78
4 5 -2 0.96 0.43
4 5 -2 3.55 1.11
-4 -5 1 187.74 12.33
-4 -5 1 192.55 12.56
4 5 -1 213.11 6.45
-4 -5 1 191.48 12.54
4 5 -1 195.27 13.25
-4 -5 0 37.71 1.67
4 5 0 27.98 1.4
4 5 0 32.82 1.44
-4 -5 0 28.25 1.28
4 5 0 35.11 5.4
-4 -5 -1 164.43 4.77
4 5 1 147.53 4.33
4 5 1 176.43 4.66
-4 -5 -1 161.08 4.31
4 5 1 179.76 5.97
-4 -5 -2 202.17 5.81
4 5 2 195.53 5.13
-4 -5 -2 197.54 5.18
4 5 2 205.06 6.66
-4 -5 -3 452.94 13.09
4 5 3 440.32 12.22
-4 -5 -3 414.75 11.54
4 5 3 349.95 10.92
-4 -5 -4 159.73 10.86
4 5 4 149.63 9.96
4 5 4 166.47 11.49
-4 -5 -5 551.35 18.84
4 5 5 547.26 18.2
4 5 5 565.43 19.57
-4 -5 -6 524.03 21.6
4 5 6 519.66 21.03
4 5 6 507.86 21.07
-4 -5 -7 11.84 1.83
4 5 7 14.86 2.01
4 5 7 9.61 1.79
4 5 8 112.95 6.27
4 5 8 110.07 6.45
-4 -5 -9 23.55 3.14
4 5 9 25.91 3.66
4 5 9 22.27 2.96
-4 -5 -10 377.47 68.39
4 5 10 310.57 23
4 5 10 356.13 26.36
4 5 11 1.12 1.58
-4 -6 8 122.13 13.75
-4 -6 8 116.17 12.98
4 6 -7 55.85 9.47
-4 -6 7 80.52 7.01
4 6 -6 37.61 7.02
-4 -6 6 53.03 4.8
4 6 -5 13.33 3.02
-4 -6 5 10.94 2.44
4 6 -4 16.26 2.88
-4 -6 4 23.4 2.48
4 6 -3 3.57 1.56
4 6 -3 5.65 1.23
-4 -6 2 29.11 1.73
4 6 -2 39.03 5.25
-4 -6 1 916.89 29.15
4 6 -1 983.02 31.74
4 6 -1 980.59 32.42
-4 -6 0 4.55 0.63
4 6 0 5.45 0.77
4 6 0 4.58 1.44
-4 -6 -1 574.6 18.76
4 6 1 540.91 17.67
4 6 1 608.49 19.84
4 6 1 607.79 20.87
4 6 2 17.71 1.51
4 6 2 17.82 2.79
-4 -6 -3 238.28 8.66
4 6 3 227.75 8.01
4 6 3 257.9 16.53
-4 -6 -4 249.13 8.72
4 6 4 242.85 8.23
4 6 4 253.21 9.39
-4 -6 -5 183.36 8.35
4 6 5 178.22 7.95
4 6 5 169.66 19.17
-4 -6 -6 3.55 1.26
4 6 6 1.71 0.98
4 6 6 5.05 1.99
-4 -6 -7 217.59 10.9
4 6 7 181.91 9.09
4 6 7 199.53 10.3
-4 -6 -9 4.45 1.52
4 6 9 4.82 1.75
4 6 9 5.02 2.05
-4 -6 -10 4.94 1.9
4 6 10 8.08 2.64
4 6 10 3.83 2.24
4 7 -7 2.42 2.21
-4 -7 7 4.83 1.7
-4 -7 6 142.04 11.22
4 7 -5 30.66 6.24
-4 -7 5 45.15 4.64
4 7 -4 158.15 8.27
-4 -7 4 187.03 9.64
4 7 -3 104.18 12.79
4 7 -3 94.46 7.34
4 7 -2 858.45 37.96
4 7 -2 834.56 37.38
4 7 -1 0.47 0.63
4 7 -1 3.81 1.12
4 7 0 26.96 2.05
4 7 0 40.42 5.41
-4 -7 -1 258.08 10.45
4 7 1 249.11 10.39
4 7 1 255.18 12.08
-4 -7 -2 570.19 22.57
4 7 2 538.49 21.44
4 7 2 569.92 23.42
-4 -7 -3 388.61 15.83
4 7 3 346.24 14.18
4 7 3 400.81 17.1
-4 -7 -4 159.89 7.92
4 7 4 159.83 7.91
4 7 4 169.21 19.26
-4 -7 -5 4.25 1.25
4 7 5 1.25 1.09
4 7 5 3.85 1.29
-4 -7 -6 10.84 1.7
4 7 6 1.49 1.04
4 7 6 4.87 1.85
-4 -7 -7 420.52 27.41
4 7 7 417.55 37.91
-4 -7 -8 55.37 4.66
4 7 8 57.37 4.88
4 7 8 71.31 10.19
-4 -7 -9 440.41 23.2
4 7 9 428.04 22.35
4 7 9 398.51 29.9
4 7 10 12.84 3.25
4 7 10 11.67 3.58
4 8 -7 6.07 3.29
4 8 -6 8.14 3.06
-4 -8 6 14.75 2.73
4 8 -5 27.77 8.47
-4 -8 5 43.97 4.36
4 8 -4 16.36 5.1
-4 -8 4 19.21 2.61
4 8 -3 50.34 5.92
4 8 -2 307.89 15
4 8 -1 50.84 10.33
4 8 0 92.28 10.47
4 8 1 435.07 17.48
4 8 2 16.87 3.02
-4 -8 -3 29.83 2.54
4 8 3 53.32 8.16
-4 -8 -4 115.69 6.05
4 8 4 131.34 15.15
-4 -8 -5 1.17 0.78
4 8 5 2.26 1.55
4 8 5 4.54 1.38
-4 -8 -6 288.39 19.09
4 8 6 297.05 19.61
4 8 6 291.84 19.57
-4 -8 -7 16.2 3.47
4 8 7 14.43 3.18
4 8 7 15.12 4.8
-4 -8 -8 65.23 4.82
4 8 8 73.64 5.45
4 8 8 63.27 8.07
-4 -8 -9 3.03 1.25
4 8 9 5.67 2.2
-4 -9 5 203.8 22.06
4 9 -4 17.76 4.03
-4 -9 4 14.5 3.28
4 9 -3 151.58 10.88
-4 -9 3 160.76 11.14
4 9 -2 7.45 2.76
4 9 -2 5.66 1.8
4 9 -1 312.42 20.97
4 9 0 2.84 1.48
4 9 0 -0.32 1.46
4 9 1 235.52 11.41
4 9 1 251.88 12.76
4 9 2 55.92 6.09
4 9 2 67.32 8.24
4 9 3 79.54 5.95
4 9 3 72.71 12.44
4 9 4 179.11 13.81
4 9 4 162.95 20.93
4 9 5 60.87 5.46
4 9 5 64.35 8.87
-4 -9 -6 4.78 1.75
4 9 6 1.93 1.43
-4 -9 -7 13.1 3.14
4 9 7 8.05 2.88
-4 -9 -8 114.24 12.77
4 9 8 97.22 15.2
4 10 -2 7.54 2.12
4 10 -1 75.97 14.74
4 10 0 1.44 1.73
4 10 1 157.87 17.67
4 10 2 4.32 1.61
4 10 3 482.99 87.33
4 10 4 10.14 3.12
4 10 5 96.08 14.19
4 10 6 0.79 1.14
-5 8 3 337.71 36
-5 8 2 97.12 11.12
-5 8 1 14.21 3.53
-5 8 1 14.66 3.53
-5 8 0 72.96 5.27
-5 8 0 76.69 5.59
-5 8 -1 27.38 5.61
-5 8 -2 80.48 6.02
-5 8 -3 4.27 1.76
5 -8 4 162.92 17.92
-5 7 4 7.1 3.1
-5 7 4 1.61 1.72
-5 7 3 123.11 10.34
-5 7 3 164.51 12.93
-5 7 2 144.23 10.15
-5 7 2 138.7 9.88
-5 7 1 55.67 4.69
-5 7 1 72.33 5.85
-5 7 0 2.34 1.46
-5 7 0 3.21 1.36
-5 7 -1 257.72 19.74
-5 7 -2 25.25 3.09
-5 7 -2 34.35 3.89
5 -7 2 34.43 4.02
-5 7 -3 205.9 13.95
5 -7 3 186.23 12.53
-5 7 -4 50.93 5.09
5 -7 4 41.9 8.05
-5 7 -5 23.27 5.23
5 -7 5 27.02 5.63
-5 7 -6 56.19 11.56
5 -7 6 66.69 8.09
-5 6 5 11.08 3.14
-5 6 5 16.71 3.99
-5 6 4 18.29 4.15
-5 6 4 14.31 3.16
-5 6 3 45.18 5.01
-5 6 3 52.41 4.99
-5 6 2 5.53 1.71
-5 6 2 3.81 1.42
-5 6 1 109.65 6.48
-5 6 1 107.55 6.29
-5 6 0 35.61 5.75
-5 6 0 43.52 7.03
-5 6 -1 234.76 11.49
-5 6 -1 263.94 13.07
5 -6 1 225 10.87
-5 6 -2 1.56 1.06
-5 6 -2 1.91 1.09
-5 6 -3 100.56 5.8
-5 6 -3 122.79 7.12
5 -6 3 125.66 7.09
-5 6 -4 80.25 6.5
5 -6 4 86.87 6.69
-5 6 -5 266.23 20.2
-5 6 -5 313.46 23.74
5 -6 5 317.21 24.09
-5 6 -6 134.24 15.46
5 -6 6 130.73 10.96
-5 6 -7 34.05 10.63
5 -6 7 41.55 4.71
5 -5 -6 88.3 6.14
-5 5 5 2.01 1.41
-5 5 4 36.93 4.45
-5 5 3 13.35 2.83
-5 5 3 8.11 2.06
-5 5 2 531.58 24.52
-5 5 2 595.77 27.14
-5 5 1 100.92 7.73
-5 5 1 120.5 5.97
-5 5 0 1216.78 79.88
-5 5 0 1315.94 86.38
5 -5 0 1087.55 47.4
-5 5 -1 168.47 8.81
-5 5 -1 178.64 9.08
-5 5 -2 133.25 7.12
-5 5 -2 135.33 7.26
5 -5 2 133.58 6.98
-5 5 -3 2.53 1.33
5 -5 3 0.28 0.96
-5 5 -4 11.31 1.82
-5 5 -4 9.2 1.66
5 -5 4 18.61 2.56
-5 5 -5 29.02 4.82
-5 5 -5 44.43 7.22
5 -5 5 43.12 6.95
-5 5 -6 434.16 28.44
5 -5 6 412.61 27.15
-5 5 -7 125.85 8.88
-5 5 -7 117.07 19.9
5 -5 7 125.34 9.32
-5 5 -8 0.2 0.89
5 -5 8 1.67 1.65
-5 4 7 26.58 5.53
5 -4 -6 9.81 4.36
-5 4 6 15.57 3.66
5 -4 -5 42.49 5.06
-5 4 5 42.78 4.91
-5 4 4 18.27 2.72
-5 4 4 18.73 2.64
-5 4 3 93.35 7.57
-5 4 3 95.02 7.29
-5 4 2 27.67 3.34
-5 4 2 18.25 2.32
-5 4 1 5.93 1.73
-5 4 1 7.52 1.29
-5 4 0 30.19 3.47
-5 4 0 22.94 2.27
5 -4 0 21.17 1.68
-5 4 -1 76.99 5.28
-5 4 -1 74.03 4.93
5 -4 1 71.12 4.29
-5 4 -2 72.31 4.31
-5 4 -2 52.3 3.52
5 -4 2 60.07 3.59
-5 4 -3 115.39 5.91
-5 4 -3 122.33 6.26
5 -4 3 130.48 6.47
-5 4 -4 104.55 5.78
-5 4 -4 90.61 7.91
5 -4 4 84 7.32
-5 4 -5 1.8 1.07
-5 4 -5 3.78 1.77
5 -4 5 3.07 2.07
-5 4 -6 243.89 11.99
-5 4 -6 230.22 19.37
5 -4 6 265.56 13.47
-5 4 -7 3.2 1.23
-5 4 -7 4.05 2.16
5 -4 7 2.14 1.63
-5 4 -8 243.11 16.51
-5 4 -9 1.98 1.59
-5 4 -9 1.38 0.94
5 -4 9 6.44 2.09
-5 3 8 130.48 14.6
5 -3 -7 23.24 6.86
-5 3 7 39.15 7.82
5 -3 -6 1.3 0.64
-5 3 6 2.51 1.4
5 -3 -5 139.18 14.74
-5 3 5 141.14 7.77
-5 3 4 0.59 1.62
-5 3 3 2405.35 186
-5 3 3 2254.82 87.65
-5 3 2 223.59 8.7
-5 3 2 184.7 7.11
-5 3 1 529.28 18.29
-5 3 1 528.79 18.09
-5 3 0 109.79 7.52
-5 3 0 107.9 7.22
5 -3 0 105 6.6
-5 3 -1 62.7 4.68
-5 3 -1 59.8 4.34
5 -3 1 55.68 3.85
-5 3 -2 81.02 5.91
-5 3 -2 77.82 5.43
5 -3 2 77.35 5.35
-5 3 -3 1060.49 34.92
-5 3 -3 979.6 32.23
5 -3 3 1039.55 33.99
-5 3 -4 1.55 1.13
-5 3 -4 1.89 0.87
5 -3 4 4.23 1.96
-5 3 -5 462.64 19.19
-5 3 -5 386.72 16.33
5 -3 5 428.46 18.05
-5 3 -6 187.88 8.54
-5 3 -6 160.89 10.4
5 -3 6 189.12 8.87
-5 3 -7 167.5 8.86
-5 3 -7 192.14 16.75
-5 3 -8 10 1.97
-5 3 -8 12.52 4.51
5 -3 8 2.97 1.88
-5 3 -9 34.29 7.02
-5 3 -9 13.43 6.04
5 -3 9 26.04 5.55
-5 3 -10 65.8 8.26
-5 3 -10 26.64 14.81
-5 2 8 17.09 3.99
5 -2 -7 12.27 3.61
-5 2 7 11.44 2.69
5 -2 -6 95.67 14.66
-5 2 6 112.82 6.59
5 -2 -5 80.05 6.48
-5 2 5 72.28 5.8
5 -2 -4 312.77 15.47
-5 2 4 333.27 15.66
-5 2 3 9.25 1.51
-5 2 3 11.53 1.47
-5 2 2 114.04 7.82
-5 2 2 102.32 6.89
-5 2 1 421.12 12.89
-5 2 1 367.91 11.02
5 -2 -1 401.32 10.58
-5 2 0 105.45 7.64
-5 2 0 105.52 7.33
5 -2 0 103.89 6.89
-5 2 0 97.83 6.53
-5 2 -1 491.93 14.53
-5 2 -1 506.3 14.41
5 -2 1 511.57 14.24
-5 2 -2 23.92 2.89
-5 2 -2 23.23 2.11
5 -2 2 16.63 1.64
-5 2 -3 557.62 16.37
-5 2 -3 561.62 15.98
5 -2 3 584.53 16.73
-5 2 -4 9.94 1.95
-5 2 -4 9.19 1.26
5 -2 4 12.96 1.73
-5 2 -5 443.83 15
-5 2 -5 362.17 19.47
5 -2 5 394.81 13.49
-5 2 -6 102.62 5.59
-5 2 -6 88.91 8.87
-5 2 -7 296.28 12.48
-5 2 -7 264.73 11.61
5 -2 7 296.12 12.65
-5 2 -8 16.82 3.39
-5 2 -8 13.9 4.19
5 -2 8 12.89 3.05
-5 2 -9 249.09 16.55
-5 2 -9 191.92 12.95
5 -2 9 222.48 14.98
-5 2 -10 6.78 3.66
-5 2 -10 1.66 1.07
5 -2 10 3.52 2.41
-5 2 -11 147.54 16.46
5 -1 -8 43.32 14.49
-5 1 8 45.29 4.75
5 -1 -7 50.79 13.08
-5 1 7 64 5.8
5 -1 -6 458.98 21.56
-5 1 6 600.87 27.56
5 -1 -5 90.98 12.21
-5 1 5 103.97 5.81
5 -1 -4 420.29 17.83
-5 1 4 477.71 19.58
-5 1 3 55.06 4.22
-5 1 3 40.35 3.16
-5 1 2 2040.37 54.75
-5 1 2 2133.91 56.62
-5 1 1 379.61 10.53
-5 1 1 373.63 9.77
5 -1 -1 358.97 8.45
-5 1 0 15.75 1.53
-5 1 0 12.91 1.16
5 -1 0 19.56 1.03
-5 1 0 13.55 0.9
-5 1 -1 176.07 5.76
-5 1 -1 163.79 4.79
5 -1 1 148.45 4.37
-5 1 -2 736.22 18.52
-5 1 -2 676.08 16.38
5 -1 2 754.6 18.37
-5 1 -3 695.42 17.81
-5 1 -3 714.44 17.36
5 -1 3 746.82 18.49
-5 1 -4 344.74 10.94
-5 1 -4 305.38 9.35
5 -1 4 363.26 11.22
-5 1 -5 24.49 2.76
-5 1 -5 36.74 3.6
-5 1 -6 2.48 0.73
5 -1 6 2.02 1.82
-5 1 -7 144.72 7.85
5 -1 7 134 7.49
-5 1 -8 10.17 2.67
-5 1 -8 1.75 1.12
5 -1 8 -0.14 1.93
-5 1 -9 243.44 18.8
-5 1 -9 199.55 15.44
5 -1 9 217.18 16.93
-5 1 -10 6.96 4.2
-5 1 -10 2.89 2.71
5 -1 10 14.88 3.84
-5 1 -11 65.72 7.91
5 0 -9 16.51 3.72
-5 0 9 32.46 4.66
5 0 -8 1.8 1.41
-5 0 8 5.13 2.19
5 0 -7 346.33 26.12
-5 0 7 329.21 24.76
5 0 -6 156.45 9.4
-5 0 6 157.4 8.2
5 0 -5 272.34 13.5
-5 0 5 281.25 13.32
-5 0 4 136.7 5.74
-5 0 4 145.46 5.75
-5 0 3 6.27 1.3
-5 0 3 7.71 1.02
-5 0 2 9.8 1.5
-5 0 2 12.22 1.3
5 0 -2 8.63 1.12
-5 0 2 7.82 0.67
-5 0 1 44.22 2.58
-5 0 1 47.9 2.03
5 0 -1 41.69 1.91
5 0 -1 58.11 2.15
-5 0 1 46.57 1.66
-5 0 0 1368.07 32.44
-5 0 0 1614.13 37.06
5 0 0 1484.42 34.11
5 0 0 1516.73 34.86
-5 0 0 1271.35 29.36
-5 0 -1 8.22 1.15
-5 0 -1 7.24 0.72
5 0 1 6.29 0.68
5 0 1 7.84 0.86
-5 0 -1 5.23 0.67
-5 0 -2 534.89 13.97
-5 0 -2 584.32 13.97
5 0 2 561.36 14
-5 0 -3 202.33 6.56
-5 0 -3 244.11 6.52
5 0 3 209.7 5.66
5 0 3 236.29 6.9
-5 0 -4 561.93 14.81
-5 0 -4 500.82 12.5
-5 0 -5 21.66 2.79
-5 0 -5 25.66 5.26
5 0 5 21.86 2.57
-5 0 -6 487.4 16.25
-5 0 -6 413.17 13.51
5 0 6 469.06 15.73
-5 0 -7 18.8 2.7
-5 0 -7 20.06 4.38
5 0 7 35.21 4.27
-5 0 -8 252.77 13.25
5 0 8 202.18 10.69
-5 0 -9 3.82 1.72
-5 0 -9 1.59 0.93
5 0 9 1.64 1.15
-5 0 -10 40.24 7.88
5 0 10 55.31 5.49
5 0 10 61.27 5.89
-5 0 -11 105.79 12.06
5 0 11 84.22 10.27
5 1 -9 20.38 7.38
-5 -1 9 25.43 3.94
5 1 -8 1.33 1.03
-5 -1 8 0.19 1.15
5 1 -7 57.84 13.33
-5 -1 7 55.24 6.02
5 1 -6 144.64 7.79
-5 -1 6 150.67 7.89
5 1 -5 289.75 13.94
-5 -1 5 305.05 14.3
-5 -1 4 170.7 6.69
-5 -1 4 149.91 5.79
-5 -1 4 128.31 4.38
-5 -1 3 2.08 1.05
-5 -1 3 2.87 0.7
-5 -1 3 0.91 0.38
-5 -1 3 2.86 0.58
-5 -1 2 262.46 8.38
-5 -1 2 276.95 8.17
5 1 -2 273.69 7.78
-5 -1 2 255.77 7.34
-5 -1 1 471.94 12.28
-5 -1 1 446.92 10.83
-5 -1 1 482.56 11.65
5 1 -1 510.6 12.63
-5 -1 1 424.19 10.43
-5 -1 0 35.18 2.04
-5 -1 0 37.27 1.36
5 1 0 32.04 1.24
5 1 0 43.2 4.38
-5 -1 0 29.9 1.46
-5 -1 -1 1309.09 31.07
-5 -1 -1 1291.37 29.33
5 1 1 1174.92 26.72
5 1 1 1307.64 30.56
-5 -1 -2 974.07 23.69
-5 -1 -2 914.1 20.96
5 1 2 989.09 22.61
5 1 2 1036.24 24.75
-5 -1 -3 34.33 2.14
-5 -1 -3 31.99 3.71
5 1 3 36.31 1.44
5 1 3 34.22 2.03
-5 -1 -4 15.6 1.86
-5 -1 -4 15.56 2.35
5 1 4 13.1 1.01
5 1 4 22.03 2.37
-5 -1 -5 35 3.25
-5 -1 -5 33.17 3.75
5 1 5 24.56 2.53
-5 -1 -6 75.83 5.59
-5 -1 -6 74.31 6.13
5 1 6 88.24 6.44
-5 -1 -7 177.52 8.62
-5 -1 -7 172.01 7.78
5 1 7 209.09 9.85
-5 -1 -8 137.03 6.93
5 1 8 144.98 6.82
5 1 8 135.39 6.74
-5 -1 -9 8.61 2.14
5 1 9 20.8 2.98
5 1 9 19.06 2.76
5 1 10 170.29 11.72
5 1 10 160.33 11.24
-5 -1 -11 7.58 2.76
5 1 11 5.34 3.19
5 1 11 6.02 2.78
5 2 -9 21.42 6.96
-5 -2 9 33.98 5.07
5 2 -8 225.95 19.1
-5 -2 8 299.62 22.3
5 2 -7 1.49 0.66
-5 -2 7 6.56 1.99
5 2 -6 26.08 3
-5 -2 6 27.34 2.97
-5 -2 5 9.62 1.49
-5 -2 5 7.49 1.38
-5 -2 5 6.01 0.94
-5 -2 4 654.25 20.75
-5 -2 4 616.09 19.39
-5 -2 4 608.79 18.74
-5 -2 3 117.51 6.78
-5 -2 3 106.56 6.89
5 2 -3 107.58 6.88
-5 -2 2 610.23 17.26
-5 -2 2 560.12 15.64
-5 -2 2 659.33 17.96
5 2 -2 630.66 17.33
-5 -2 1 486.86 12.49
-5 -2 1 577.36 13.66
-5 -2 1 512.42 12.12
5 2 -1 556.82 13.78
-5 -2 0 959.02 23.07
-5 -2 0 902.57 20.42
-5 -2 0 933.23 21.09
5 2 0 1062.15 25.14
-5 -2 -1 682.5 16.94
5 2 1 714.73 17.51
-5 -2 -2 69.2 3.08
5 2 2 57.4 2.73
-5 -2 -3 1224.16 29.41
5 2 3 1074.09 24.42
5 2 3 1175.93 26.71
5 2 3 1079.93 26.07
-5 -2 -4 27.64 2.17
5 2 4 24.33 1.15
5 2 4 28.49 1.31
5 2 4 24.79 2
-5 -2 -5 59.16 4.65
5 2 5 53.25 3.89
5 2 5 53.6 3.88
5 2 5 68.29 5.36
-5 -2 -6 43.7 3.42
5 2 6 35.31 2.5
5 2 6 36.35 3.11
-5 -2 -7 765.43 31.02
5 2 7 919.22 36.28
5 2 7 777.41 31.56
-5 -2 -8 107.09 8.23
5 2 8 123.42 5.84
5 2 8 115.85 10.2
-5 -2 -9 363.83 24.14
5 2 9 313.72 20.62
5 2 9 351.19 23.23
-5 -2 -10 39.88 4.08
5 2 10 43.21 4.26
5 2 10 38.86 3.83
-5 -2 -11 21.59 3.84
5 2 11 26.99 4.09
5 2 11 17.89 3.03
-5 -3 9 0.21 1.58
-5 -3 8 127.71 7.98
-5 -3 7 3.18 1.62
-5 -3 7 1.94 1.13
-5 -3 6 281.9 13.5
-5 -3 6 242.06 11.83
-5 -3 5 136.43 6.23
-5 -3 5 120.32 5.7
-5 -3 5 126.83 5.6
-5 -3 4 2.34 0.81
-5 -3 4 1.92 1.03
-5 -3 4 3.31 0.88
-5 -3 3 272.31 9.73
-5 -3 3 285.51 9.93
5 3 -3 278.71 9.91
-5 -3 2 1373.71 36.91
-5 -3 2 1273.94 33.79
-5 -3 2 1372.19 36.35
5 3 -2 1379.25 37
-5 -3 1 51.44 2.44
-5 -3 1 43.73 1.51
-5 -3 1 55.64 1.79
5 3 -1 59.72 7.12
-5 -3 0 498.27 12.69
5 3 0 566.62 14.35
-5 -3 -1 445.92 11.58
5 3 1 388.51 10.79
-5 -3 -2 126.63 4.42
-5 -3 -3 149.88 5.04
5 3 3 158.47 5.54
-5 -3 -4 445.42 13.33
5 3 4 402.29 10.97
5 3 4 451.48 12.26
5 3 4 447.76 13.55
-5 -3 -5 195.44 7.75
5 3 5 186.49 6.6
5 3 5 212.35 8.49
-5 -3 -6 57.14 4.02
5 3 6 51.57 3.33
5 3 6 56.84 4.2
-5 -3 -7 61.03 5.73
5 3 7 62.09 5.44
5 3 7 67.26 6.29
-5 -3 -8 62.27 5.9
5 3 8 53.24 4.95
5 3 8 63.11 6.06
-5 -3 -9 227.36 15.57
5 3 9 190.37 12.99
5 3 9 227.05 15.57
-5 -3 -10 16.59 3.82
5 3 10 11.4 2.89
5 3 11 16.1 3.34
-5 -4 8 5.06 2.51
-5 -4 7 73.02 5.82
-5 -4 6 4.97 1.21
-5 -4 6 6.33 1.54
-5 -4 5 326.72 15.11
-5 -4 5 309.62 14.5
-5 -4 5 301.55 14.06
-5 -4 4 146.08 7.2
-5 -4 4 144.69 7.21
-5 -4 4 133.93 6.76
-5 -4 3 265.73 8.95
-5 -4 3 275.31 9.16
5 4 -3 248.32 8.73
-5 -4 2 108.27 7.02
-5 -4 2 98.89 6.31
5 4 -2 99.92 11.18
-5 -4 1 79.06 5.6
-5 -4 1 69.05 4.62
-5 -4 1 71.48 4.8
5 4 -1 78.47 9.43
-5 -4 0 1863.44 49.47
5 4 0 1799.93 49.12
-5 -4 -1 201.42 6.01
-5 -4 -2 239.41 6.98
5 4 2 224.72 7.03
-5 -4 -3 3.05 1.35
5 4 3 2.79 0.27
5 4 3 0.33 0.19
5 4 3 1.4 1.34
-5 -4 -4 1057.93 29.2
5 4 4 1023.4 27.06
5 4 4 1095.72 30.45
-5 -4 -5 10.24 1.45
5 4 5 9.09 0.98
5 4 5 8.31 1.65
-5 -4 -6 561.29 23.03
5 4 6 528.44 21.08
5 4 6 615.37 25.24
-5 -4 -7 3.83 1.18
5 4 7 3.08 1.5
5 4 7 4.27 2.11
-5 -4 -8 183.85 9.61
5 4 8 155.62 8.45
-5 -4 -9 110.14 9.11
5 4 9 82.4 7.3
-5 -4 -10 65.27 5.93
5 4 10 55.85 5.22
5 4 10 68.45 6.22
5 4 11 1.01 2.06
-5 -5 8 67.27 7.98
-5 -5 7 53.55 4.95
-5 -5 6 49.74 4.56
-5 -5 6 35.46 3.76
-5 -5 5 134.57 7.15
-5 -5 5 141.66 7.5
-5 -5 4 16.01 1.8
-5 -5 4 13.1 1.68
-5 -5 3 359.93 14.58
5 5 -3 306.99 12.81
5 5 -3 333.32 14.09
-5 -5 2 9.02 1.09
5 5 -2 7.96 1.48
5 5 -2 12.09 1.87
-5 -5 1 1071.3 34.47
5 5 -1 942.28 30.09
5 5 -1 1034.39 34.29
-5 -5 0 49.2 3.46
5 5 0 46.94 3.98
-5 -5 0 39.29 2.57
5 5 0 65.76 9.36
-5 -5 -1 275.12 8.4
-5 -5 -1 238.91 6.4
5 5 1 260.07 21.76
-5 -5 -2 9.35 1.17
5 5 2 3.04 0.6
5 5 2 7.44 2.12
-5 -5 -3 8.91 1.19
5 5 3 5.71 0.99
5 5 3 8.33 0.75
5 5 3 15.12 2.43
-5 -5 -4 546.49 18.67
5 5 4 512.98 16.66
5 5 4 516.42 18.11
-5 -5 -5 403.58 16.86
5 5 5 385.89 16.44
-5 -5 -6 223.7 11.09
5 5 6 229.42 11.49
-5 -5 -7 13.58 1.9
5 5 7 10.44 1.87
5 5 7 10.51 1.8
-5 -5 -8 102.29 7.84
5 5 8 64.75 6.32
5 5 8 69.83 5.83
-5 -5 -9 37.53 4.14
5 5 9 32.84 3.63
5 5 9 36.13 3.87
-5 -5 -10 147.99 9.16
5 5 10 146.46 9.23
-5 -6 7 9.11 2.25
-5 -6 6 24.22 5.24
-5 -6 6 10.05 2.35
-5 -6 5 287.33 19.01
5 6 -4 214.37 11.67
-5 -6 4 248.04 12.12
5 6 -3 114.48 9.93
5 6 -3 121.82 12.04
5 6 -2 3.58 0.78
5 6 -2 9.62 2.1
-5 -6 1 40.45 2.25
5 6 -1 39 3.73
5 6 -1 45.23 4.5
-5 -6 0 2.6 0.82
5 6 0 0.53 0.44
5 6 0 2.44 0.69
-5 -6 -1 167.21 5.93
5 6 1 161.69 5.47
5 6 1 174.95 7.12
-5 -6 -2 15.59 1.54
5 6 2 19.78 1.36
5 6 2 5.93 1.84
-5 -6 -3 660.66 20.74
5 6 3 675.61 21.94
-5 -6 -4 21.66 1.83
5 6 4 19.7 1.46
5 6 4 24.05 3.45
-5 -6 -5 209.35 10.25
5 6 5 191.14 8.97
5 6 5 181.5 9.46
-5 -6 -6 3.84 1.78
5 6 6 1.48 0.72
5 6 6 6.15 1.62
-5 -6 -7 146.44 7.94
5 6 7 149.37 7.69
5 6 7 129.71 7.54
-5 -6 -8 28.75 3.52
5 6 8 26.27 3.59
5 6 8 19.94 3.12
-5 -6 -9 2.57 1.39
5 6 9 8.92 3.12
5 6 10 10.9 2.56
-5 -7 7 10.04 2.37
-5 -7 6 203.2 11.55
-5 -7 5 2.53 1.46
-5 -7 4 467.39 30.34
5 7 -3 22.75 5.74
5 7 -3 33.39 6.77
5 7 -2 104.38 5.58
5 7 -2 115.46 6.66
5 7 -1 21.45 5.4
5 7 0 344.69 15.46
5 7 0 357.72 25.02
-5 -7 -1 121.24 5.9
5 7 1 103.14 7.13
5 7 1 113.86 11.18
-5 -7 -2 761.01 33.44
5 7 2 795.2 35.82
-5 -7 -3 140.23 7
5 7 3 97.87 7.98
5 7 3 155.46 9.37
-5 -7 -4 180.39 7.79
5 7 4 160.29 6.74
5 7 4 192.96 15.81
-5 -7 -5 103.75 5.71
5 7 5 97.09 11.94
-5 -7 -6 29.93 4.93
5 7 6 25.42 4.73
-5 -7 -7 7.13 1.57
5 7 7 8.68 2
-5 -7 -8 18.32 3.97
5 7 8 28.14 6.9
-5 -7 -9 188.15 11.07
5 7 9 193.94 20.75
-5 -8 6 16.43 2.87
-5 -8 5 1.74 1.4
-5 -8 4 9.67 2.42
5 8 -3 6.2 2.22
5 8 -2 12.35 2.88
5 8 -1 33.44 6.66
5 8 0 53.95 8.36
5 8 1 1.8 1.18
5 8 2 411.13 27.21
-5 -8 -3 17.85 1.99
5 8 3 19.98 6.01
-5 -8 -4 186.14 9.24
5 8 4 174.15 17.17
-5 -8 -5 171.02 11.69
5 8 5 161.06 18.26
-5 -8 -6 2.73 1.4
5 8 6 1.46 1.33
-5 -8 -7 3.33 1.28
5 8 7 1.24 1.26
-5 -8 -8 197.98 11.42
5 8 8 199.28 27.83
-5 -9 4 4.41 1.55
5 9 -1 225.03 19.09
5 9 0 42.73 8.3
5 9 1 533.22 52.79
5 9 2 16.06 4.28
5 9 3 11.24 2.41
5 9 4 15.77 2.64
5 9 5 127.65 15.47
5 9 6 308.3 33.94
-5 -9 -7 3.1 1.4
5 9 7 2.69 1.36
-5 -9 -8 32.14 4.51
5 10 -1 80.32 19.21
5 10 0 1.92 1.96
5 10 1 162.71 12.8
5 10 2 2.86 1.55
5 10 3 81.46 12.62
5 10 4 57.81 10.03
5 10 5 91.41 14.08
-6 8 1 32.71 5.05
-6 7 3 137.1 15.26
-6 7 2 33.37 4.84
-6 7 2 42 5.46
-6 7 1 322.32 17.59
-6 7 1 336.69 18.27
-6 7 0 4.41 1.89
-6 7 0 4.13 1.58
-6 7 -1 12.44 2.92
-6 7 -2 1.05 1.3
-6 7 -2 1.67 1.29
-6 7 -3 64.01 5.11
-6 7 -4 21.27 3.66
-6 7 -5 10.06 2.32
6 -7 5 9.28 3.54
-6 6 4 115.69 13.03
-6 6 4 108.96 12.46
-6 6 3 20.14 4.41
-6 6 3 17.71 4.18
-6 6 2 116.97 9.78
-6 6 2 113.56 9.21
-6 6 1 19.75 4.16
-6 6 1 30.19 5.8
-6 6 0 47.49 4.71
-6 6 0 39.74 4.25
-6 6 -1 34.42 4.19
-6 6 -1 25.28 3.16
-6 6 -2 44.13 4.39
-6 6 -2 35.46 3.99
-6 6 -3 171.55 11.59
-6 6 -3 197.56 13.41
6 -6 3 172.44 11.91
-6 6 -4 54.76 5.04
-6 6 -4 61.59 5.59
6 -6 4 70.44 6.29
-6 6 -5 214.32 16.28
-6 6 -5 184.46 14.35
6 -6 5 204.38 15.61
-6 6 -6 42.15 5.56
6 -6 6 43.79 6.04
-6 5 5 52.28 4.56
-6 5 5 49.24 4.21
-6 5 4 24.43 5.15
-6 5 3 34.99 4.04
-6 5 3 46.29 4.08
-6 5 2 49.4 5.77
-6 5 2 53.33 5.94
-6 5 1 18.15 3.13
-6 5 1 19.27 2.93
-6 5 0 176.26 9.43
-6 5 0 189.41 9.95
-6 5 -1 113.09 6.78
-6 5 -1 119.72 6.74
-6 5 -2 245.07 12.36
-6 5 -2 238.74 11.98
6 -5 2 218.89 10.74
-6 5 -3 1.8 1.11
-6 5 -3 3.41 1.96
-6 5 -4 350.45 23.03
-6 5 -4 319.47 21.16
6 -5 4 370.71 24.31
-6 5 -5 38.31 7.21
-6 5 -5 32.81 3.85
6 -5 5 46.83 4.56
-6 5 -6 3.97 1.57
6 -5 6 2.96 2.23
-6 5 -7 28.39 5.94
-6 5 -7 26.47 6.87
6 -5 7 43.98 5.3
-6 5 -8 2.47 1.64
-6 4 6 21.51 4.3
-6 4 6 27.44 4.24
-6 4 5 159.32 12.56
-6 4 5 186.23 14.39
-6 4 4 31.93 4.05
-6 4 4 37.25 4.12
-6 4 3 241.74 16.64
-6 4 3 244.05 16.43
-6 4 2 1.11 1.6
-6 4 2 2.55 1.74
-6 4 1 26.89 3.04
-6 4 0 442.82 17.99
-6 4 0 435.04 17.24
-6 4 -1 353.04 14.49
-6 4 -1 301.26 12.37
6 -4 1 287.24 11.3
-6 4 -2 149.75 7.38
-6 4 -2 142.8 6.77
-6 4 -3 4.37 1.51
-6 4 -3 3.62 1.35
6 -4 3 1.15 1.13
-6 4 -4 272.74 13.44
-6 4 -4 257.43 12.58
6 -4 4 283.83 13.77
-6 4 -5 4.95 1.57
-6 4 -5 4.48 1.63
6 -4 5 9.87 2.59
-6 4 -6 330.82 24.82
-6 4 -6 331.37 24.95
6 -4 6 345.39 26.09
-6 4 -7 4.83 1.96
-6 4 -7 3.48 1.67
6 -4 7 7.3 3.25
-6 4 -8 289.48 16.04
6 -4 8 304.55 16.8
-6 4 -9 0.32 1.79
-6 4 -9 1.61 1.03
-6 3 7 82.11 9.6
-6 3 6 13.27 3.49
-6 3 6 3.25 1.47
-6 3 5 208.05 16.19
-6 3 5 197.46 15.37
-6 3 4 5.19 1.56
-6 3 4 7.58 1.83
-6 3 3 166.96 9.08
-6 3 3 162.68 8.5
-6 3 2 25.49 3.42
-6 3 2 28.84 2.85
-6 3 1 757.92 34.07
-6 3 1 682.95 30.53
-6 3 0 195.33 9.48
-6 3 0 249.51 10.84
-6 3 -1 265.73 11.94
-6 3 -1 298.52 12.67
6 -3 1 259.15 10.76
-6 3 -2 4.03 2.63
-6 3 -2 0.95 0.68
6 -3 2 1.33 1.76
-6 3 -3 166.86 9.08
-6 3 -3 159.5 8.07
6 -3 3 147.94 7.56
-6 3 -4 3.62 1.53
-6 3 -4 2.34 0.89
6 -3 4 5.32 1.35
-6 3 -5 13.97 2.3
-6 3 -5 14.17 2.19
6 -3 5 23.56 2.94
-6 3 -6 5.78 2.11
-6 3 -6 4 1.69
6 -3 6 9.23 2.34
-6 3 -7 6.87 2.34
-6 3 -7 1.83 1.62
6 -3 7 1.44 2.18
-6 3 -8 63.88 5.5
-6 3 -8 36.2 8.84
6 -3 8 51.92 4.87
-6 3 -9 76.34 6.17
-6 3 -9 36.5 16.48
-6 3 -10 67.14 8.67
-6 2 7 0.97 1.28
-6 2 6 21.55 4.38
-6 2 6 37.6 3.7
-6 2 5 30.42 3.89
-6 2 5 30.91 3.73
-6 2 4 62.58 6
-6 2 4 67.18 6.24
-6 2 3 267.5 11.46
-6 2 3 285.19 11.79
-6 2 2 107.29 6.41
-6 2 2 98.43 8.32
-6 2 1 7.62 2.81
-6 2 1 4.38 1.06
-6 2 0 156.43 6.56
-6 2 0 161.52 6.08
-6 2 -1 392.54 13.48
-6 2 -1 387.15 12.64
6 -2 1 376.36 11.98
-6 2 -2 38.96 3.29
-6 2 -2 31.89 2.36
6 -2 2 36.12 2.81
-6 2 -3 797.31 25.44
-6 2 -3 833.62 25.79
6 -2 3 793.07 24.74
-6 2 -4 23.16 2
6 -2 4 25.21 2.23
-6 2 -5 475.34 21.57
6 -2 5 490.61 22.56
-6 2 -6 10.04 2.5
-6 2 -6 10.3 2.47
6 -2 6 10.67 2.01
-6 2 -7 160.87 8.86
-6 2 -7 153.31 18.21
6 -2 7 177.89 9.82
-6 2 -8 1.98 2.27
-6 2 -8 4.78 1.83
-6 2 -9 54.02 5.85
-6 2 -9 62.65 8.84
6 -2 9 64.21 5.98
-6 2 -10 0.95 1.65
-6 2 -10 2.26 1.51
-6 1 8 4.04 1.57
-6 1 7 3.23 2.07
-6 1 6 191.74 14.94
-6 1 6 236.21 18.11
-6 1 5 17.47 3.25
-6 1 5 14.84 2.77
-6 1 4 264.35 11.42
-6 1 4 260.27 10.84
-6 1 3 17.37 2.67
-6 1 3 9.2 1.4
-6 1 2 174.3 8.22
-6 1 2 143.49 11.63
-6 1 1 262.18 9.47
-6 1 1 271 9.2
-6 1 0 511.89 17.75
-6 1 0 558.72 18.55
6 -1 0 498.86 16.27
-6 1 -1 16.79 2.05
-6 1 -1 16.45 1.53
6 -1 1 14.51 1.32
-6 1 -2 402.39 14.4
-6 1 -2 355.69 12.08
6 -1 2 402.85 13.77
-6 1 -3 37.45 3.76
-6 1 -3 23.95 2.07
6 -1 3 23.52 2.24
-6 1 -4 20.12 2.65
-6 1 -4 33.08 4.73
6 -1 4 27.24 2.57
-6 1 -5 104.64 6.2
-6 1 -5 96.84 7.21
6 -1 5 103.47 5.65
-6 1 -6 100.84 8.45
6 -1 6 123.91 7.25
-6 1 -7 22.96 3.19
-6 1 -7 16.75 4.34
-6 1 -8 51.9 6.42
-6 1 -8 36.02 7.37
6 -1 8 30.33 4.09
-6 1 -9 322.92 21.06
-6 1 -9 292.43 20.17
6 -1 9 339.05 22.03
-6 1 -10 29.3 6.3
-6 1 -10 18.01 7.78
6 -1 10 35.38 7.38
-6 1 -11 15.5 3.14
-6 0 8 3.45 1.99
-6 0 7 140.82 11.23
-6 0 7 137.97 10.98
-6 0 6 9.33 1.83
-6 0 6 6.1 1.62
-6 0 5 290.4 14.24
-6 0 5 253.68 12.31
-6 0 4 91.62 7.02
-6 0 4 109.19 7.91
-6 0 3 324.81 14.01
-6 0 3 322.63 13.43
-6 0 2 14.77 1.84
-6 0 2 10.54 1.2
-6 0 1 10.66 1.56
-6 0 1 8.73 1.13
6 0 -1 8.45 1.33
-6 0 0 62.66 4.69
-6 0 0 60.17 4.02
6 0 0 50.51 3.49
6 0 0 58.1 6.15
-6 0 0 45.88 3.2
-6 0 -1 97.75 7.07
-6 0 -1 96.5 6.5
6 0 1 81.58 5.57
6 0 1 80.46 5.61
-6 0 -2 59.55 4.71
-6 0 -2 54.56 3.86
6 0 2 48.9 3.5
6 0 2 61.44 4.51
-6 0 -3 25.98 2.53
-6 0 -3 26.24 2.61
6 0 3 28.99 2.49
-6 0 -4 433.02 15.46
-6 0 -4 433.84 14.52
6 0 4 453.45 15.84
-6 0 -5 16.83 2.27
-6 0 -5 13.77 2.2
6 0 5 14.29 1.95
-6 0 -6 56.74 5.94
-6 0 -6 54.52 6.64
-6 0 -7 3.28 1.72
-6 0 -7 0.67 0.61
6 0 7 5.53 1.9
-6 0 -8 106.57 6.52
-6 0 -8 94.28 6.66
6 0 8 98.51 6.31
-6 0 -9 46.28 4.7
-6 0 -9 20.26 7.29
6 0 9 27.65 5.53
-6 0 -10 104.46 6.94
6 0 10 114.43 7.43
6 0 10 122.12 8.08
6 0 11 12.3 4.24
-6 -1 8 2.99 1.97
-6 -1 8 3.26 1.79
-6 -1 7 120.35 9.9
-6 -1 7 105.4 8.6
-6 -1 6 36.38 4.09
-6 -1 6 37.33 4.08
-6 -1 5 336.28 16.11
-6 -1 5 361.9 16.94
-6 -1 4 11.91 1.68
-6 -1 4 9.55 1.47
-6 -1 3 207.9 9.36
-6 -1 3 221.52 9.41
-6 -1 2 21.42 2.1
-6 -1 2 23.72 1.84
6 1 -2 15.44 2.78
-6 -1 1 257.99 9.67
-6 -1 1 251.77 8.59
6 1 -1 274.41 9.46
-6 -1 0 0.29 1.08
-6 -1 0 1.39 0.53
6 1 0 3.72 0.91
-6 -1 -1 1930.35 51.82
-6 -1 -1 1605.61 41.96
6 1 1 1624.01 42.45
6 1 1 1851.6 49.19
-6 -1 -2 16.77 2.01
-6 -1 -2 11.14 1.69
6 1 2 9.67 0.88
6 1 2 11.77 1.38
-6 -1 -3 428.69 13.18
-6 -1 -3 392.97 10.95
6 1 3 416.09 12.45
-6 -1 -4 17.67 2.03
-6 -1 -4 8.62 1.96
6 1 4 10.63 1.2
6 1 4 11.52 1.57
-6 -1 -5 568.3 18.81
-6 -1 -5 661.14 20.38
6 1 5 664 21.44
-6 -1 -6 1026.78 41.11
-6 -1 -6 832.44 32.79
6 1 6 1032.12 41.2
-6 -1 -7 144.84 7.26
-6 -1 -7 122.7 6.61
6 1 7 145.01 7.4
-6 -1 -8 3.76 2.25
6 1 8 3.28 2.03
-6 -1 -9 13.23 2.98
6 1 9 13.03 2.34
6 1 9 5.84 1.9
6 1 10 22.89 4.82
-6 -2 8 743.02 77.83
-6 -2 7 0.14 1
-6 -2 7 2.19 1.22
-6 -2 6 95.76 7.91
-6 -2 6 95.66 7.82
-6 -2 5 37.5 6.07
-6 -2 5 30.37 4.91
-6 -2 4 79.64 6.19
-6 -2 4 74.63 5.6
-6 -2 3 85.67 4.7
-6 -2 3 81.28 4
-6 -2 2 13.16 1.71
-6 -2 2 7.68 0.85
6 2 -2 7.67 1.2
-6 -2 1 7.69 1.54
-6 -2 1 7.96 0.76
6 2 -1 6.83 1.59
-6 -2 0 34.73 3.1
-6 -2 0 25.23 1.67
6 2 0 27.97 2.64
-6 -2 -1 338.12 10.56
6 2 1 327.65 9.89
-6 -2 -2 293.44 9.53
6 2 2 276.37 8.68
-6 -2 -3 572.31 16.8
6 2 3 524.79 15.43
-6 -2 -4 301.94 11.31
6 2 4 260.54 8.62
6 2 4 260.73 9.98
-6 -2 -5 125.35 5.64
6 2 5 111.85 4.08
6 2 5 111.1 5.38
-6 -2 -6 581.34 23.94
6 2 6 631.92 25.98
-6 -2 -7 334.96 14.03
6 2 7 330.08 13.05
6 2 7 315.7 13.48
-6 -2 -8 5.25 2.69
6 2 8 2.95 1.61
6 2 8 1.67 2.06
-6 -2 -9 106.01 8.95
6 2 9 91.3 7.72
6 2 9 106.51 8.98
-6 -2 -10 8.4 2.71
6 2 10 6.61 2.65
6 2 10 12.39 3.29
-6 -3 7 4.26 1.67
-6 -3 6 214.45 16.41
-6 -3 6 208.98 15.98
-6 -3 5 152.11 7.96
-6 -3 5 151.44 7.74
-6 -3 4 237.86 9.97
-6 -3 4 199.31 8.33
-6 -3 4 196.22 8.06
-6 -3 3 21.21 2.34
-6 -3 3 18.09 1.92
6 3 -3 13.77 2.85
-6 -3 2 1473.52 44.65
-6 -3 2 1346.14 40.08
6 3 -2 1491.35 44.9
-6 -3 1 3.26 1.37
-6 -3 1 2.06 0.42
6 3 -1 0.73 0.86
-6 -3 0 311.38 11.16
6 3 0 310.81 11.08
6 3 1 1.27 0.59
-6 -3 -2 301.18 10.96
6 3 2 330.18 11.86
-6 -3 -3 18.5 2.03
6 3 3 21.38 2.33
-6 -3 -4 219.76 8.61
-6 -3 -5 237.72 8.89
6 3 5 219 8.69
-6 -3 -6 296.04 14.27
6 3 6 291.63 13.18
6 3 6 329.7 15.88
-6 -3 -7 101.59 7.86
6 3 7 96.74 7
6 3 7 89.91 7.26
-6 -3 -8 11.01 2.28
6 3 8 10.84 2.42
6 3 8 5.16 1.91
-6 -3 -9 178.33 14.08
6 3 9 186.64 14.69
-6 -3 -10 50.19 4.69
6 3 10 31.69 6.44
-6 -4 5 17.2 2.25
-6 -4 4 11.84 1.76
-6 -4 4 16.31 2.07
-6 -4 4 18.02 2.21
-6 -4 3 2.95 0.88
-6 -4 3 4.35 1.11
6 4 -3 0.31 0.82
-6 -4 2 172.04 7.72
6 4 -2 157.48 7.26
-6 -4 1 363.27 12.07
6 4 -1 348.05 12.04
-6 -4 0 155.17 6.19
6 4 0 142.49 11.58
-6 -4 -1 18.11 1.78
6 4 1 19.46 2.92
-6 -4 -2 188.27 7.38
6 4 2 170.77 16.32
-6 -4 -3 36.1 3.24
-6 -4 -4 404.87 13.69
6 4 4 386.9 13.55
-6 -4 -5 6.81 1.61
6 4 5 0.32 1.48
-6 -4 -6 278.84 13.53
6 4 6 322.35 15.61
-6 -4 -7 26.69 3.1
6 4 7 31.73 3.88
-6 -4 -8 130.94 9.46
6 4 8 146.69 10.58
-6 -4 -9 4.3 1.99
6 4 9 3.81 2.04
-6 -4 -10 23.45 4.95
6 4 10 27.46 5.84
-6 -5 5 251.96 18.97
-6 -5 4 14.15 2.6
-6 -5 3 454.3 20.52
6 5 -3 390.14 18.04
-6 -5 2 57 4.99
6 5 -2 62.27 9.73
-6 -5 1 4.9 0.95
6 5 -1 0.99 0.62
-6 -5 0 3.21 1.05
6 5 0 3.39 0.83
-6 -5 -1 567.51 18.03
6 5 1 568.24 18.61
-6 -5 -2 27.7 2.34
6 5 2 42.41 5.73
-6 -5 -3 475 19.43
6 5 3 480.68 20.11
-6 -5 -4 3.84 1.84
6 5 4 1.82 1.88
-6 -5 -5 48.5 4.62
6 5 5 47.96 4.95
6 5 6 75.19 6.59
-6 -5 -7 3.36 1.53
6 5 7 5.35 2.04
-6 -5 -8 7.18 1.79
6 5 8 9.39 1.91
-6 -5 -9 3.28 1.86
6 5 9 0.66 1.53
-6 -6 5 7.3 2.24
-6 -6 4 258.59 19.56
6 6 -3 69.83 8.54
6 6 -2 92.1 13.37
-6 -6 1 402.52 15.4
6 6 -1 405.7 16.3
-6 -6 0 22.17 2.33
6 6 0 24.2 4.97
-6 -6 -1 13.97 1.77
6 6 1 11.85 2.23
-6 -6 -2 17 1.93
6 6 2 23.88 4.21
-6 -6 -3 286.3 13.43
6 6 3 248.14 12.39
-6 -6 -4 7.66 1.61
6 6 4 7.25 1.76
-6 -6 -5 401.11 18.7
6 6 5 410.2 19.56
-6 -6 -6 18.39 3.32
-6 -6 -7 436.35 28.48
6 6 7 452.97 29.68
-6 -6 -8 1.55 1.14
6 6 8 5.07 2.3
-6 -6 -9 114.31 7.57
6 6 9 116.77 7.9
-6 -7 5 18.24 3.95
-6 -7 4 285.12 21.12
6 7 -3 5.66 2.59
6 7 -2 250.48 16.86
6 7 -1 279.04 13.68
6 7 0 24.88 3.05
-6 -7 -1 4.53 0.87
-6 -7 -2 556.6 24.9
6 7 2 573.92 26.41
-6 -7 -3 3.22 1.22
-6 -7 -4 68.29 6.15
6 7 4 86.43 11.33
-6 -7 -5 26.43 4.42
6 7 5 36.83 6.86
-6 -7 -6 3.33 1.02
6 7 6 4.75 1.45
-6 -7 -7 69.43 5.48
6 7 7 85.6 11.72
-6 -7 -8 46.82 4.03
6 7 8 43.86 5.59
-6 -7 -9 8.62 2.02
-6 -8 5 108.13 12.24
-6 -8 4 3.62 1.92
6 8 -3 2.16 1.62
6 8 -2 27.49 6.57
6 8 -1 28.44 7.75
6 8 0 102.25 12.34
6 8 1 5.22 1.57
6 8 2 268.95 18.27
6 8 3 183.18 24.31
-6 -8 -4 706.59 44.98
6 8 4 639.38 47.93
-6 -8 -5 33.64 3.57
6 8 5 44.07 7.02
-6 -8 -6 173.58 13.27
6 8 6 166.19 24.05
-6 -8 -7 39.34 5
6 8 7 50.7 6.19
-6 -8 -8 84.9 9.87
6 9 -3 55.1 6.92
6 9 -2 0.65 1.16
6 9 -1 289.37 21.72
6 9 0 62.78 10.67
6 9 1 146.86 10.49
6 9 2 1.86 1.57
6 9 4 13.52 3.35
6 9 5 17.53 5.27
6 9 6 0.97 0.91
6 10 1 97.16 20.83
6 10 2 1.73 1.8
-7 7 0 43.94 6
-7 7 -1 129.4 14.84
-7 7 -2 3.31 2.55
-7 6 2 218.42 23.59
-7 6 2 234.79 25.37
-7 6 1 0.37 1.55
-7 6 1 1.64 1.3
-7 6 0 4.71 2.37
-7 6 0 10.44 2.83
-7 6 -1 6.76 3.51
-7 6 -1 2.61 1.69
-7 6 -2 58.48 5.26
-7 6 -2 39.92 5.14
-7 6 -3 40.39 3.67
-7 6 -3 43.46 4.2
-7 6 -4 18.21 3.86
-7 6 -4 10.91 2.55
-7 6 -5 142.7 15.87
-7 5 4 228.65 24.72
-7 5 3 4.69 2.45
-7 5 3 1.47 1.46
-7 5 2 299.93 22.5
-7 5 2 242.69 18.24
-7 5 1 7.14 2.34
-7 5 1 4.26 1.83
-7 5 0 29.32 6.1
-7 5 0 29.74 5.69
-7 5 -1 87.16 6.96
-7 5 -1 96.92 7.16
-7 5 -2 13.4 3.41
-7 5 -2 8.24 2.11
-7 5 -3 28.04 6.13
-7 5 -3 32.24 3.21
-7 5 -4 227.01 17.26
-7 5 -4 208.27 15.83
-7 5 -5 15.79 3.78
-7 5 -5 15.75 3.69
7 -5 5 10.37 2.67
-7 5 -6 353.34 37.68
-7 5 -7 3.37 1.95
-7 5 -7 2.31 1.43
7 -5 7 2.86 2.08
-7 4 5 245.13 26.4
-7 4 4 22.95 5.13
-7 4 4 12.05 2.93
-7 4 3 111.59 9.16
-7 4 3 126.88 10.16
-7 4 2 0.64 2
-7 4 2 2.02 1.18
-7 4 1 6.59 1.52
-7 4 0 76.48 6.18
-7 4 0 93 6.92
-7 4 -1 135.26 10.02
-7 4 -1 146.32 10.23
-7 4 -2 673.88 43.48
-7 4 -2 727.86 46.58
-7 4 -3 51.8 5.92
-7 4 -3 59.28 6.46
7 -4 3 65.99 5.28
-7 4 -4 266.65 20.45
-7 4 -4 253.45 19.29
7 -4 4 222.21 17.02
-7 4 -5 3.71 2.52
-7 4 -5 2.95 1.52
7 -4 5 3.21 2.39
-7 4 -6 99.81 8.52
-7 4 -6 57.86 15.59
7 -4 6 113.74 9.5
-7 4 -7 2.76 2.94
-7 4 -7 0.19 1.08
7 -4 7 6.34 3.11
-7 4 -8 182.03 19.86
-7 3 6 6.18 2.31
-7 3 5 99.47 6.8
-7 3 5 101.23 6.75
-7 3 4 3.91 1.61
-7 3 4 1.69 1.16
-7 3 3 145.5 11.78
-7 3 3 178.46 13.89
-7 3 2 8.07 2.83
-7 3 2 1.74 1.01
-7 3 1 5.97 2.95
-7 3 1 2.04 1.03
-7 3 0 109.86 6.53
-7 3 0 166.33 8.49
-7 3 -1 171.04 9.25
-7 3 -1 160.94 8.16
-7 3 -2 26.75 3.32
-7 3 -2 43.8 4.31
7 -3 2 39.57 3.89
-7 3 -3 415.65 19.79
-7 3 -3 456.27 20.95
-7 3 -4 15.25 3.32
-7 3 -4 20.11 3.68
7 -3 4 22.49 4.22
-7 3 -5 14.68 3.28
-7 3 -5 7.72 3.78
7 -3 5 19.53 3.16
-7 3 -6 5 3.26
-7 3 -6 1.08 0.89
7 -3 6 3.57 2.39
-7 3 -7 1.37 2.52
-7 3 -7 4.54 2.16
7 -3 7 4.06 3.61
-7 3 -8 11.34 3.57
-7 3 -8 5.6 2.35
7 -3 8 11.88 3.07
-7 3 -9 2.42 1.85
-7 3 -9 4.7 1.58
-7 2 6 450.87 47.68
-7 2 5 11.1 2.91
-7 2 5 12.71 3.04
-7 2 4 66.83 6
-7 2 4 84.58 7.15
-7 2 3 27.78 3.64
-7 2 3 37.98 4.41
-7 2 2 92.56 5.96
-7 2 2 86.96 5.12
-7 2 1 654.58 29.95
-7 2 1 529.55 23.93
-7 2 0 176.24 8.68
-7 2 0 191.99 8.14
-7 2 -1 33.77 3.79
-7 2 -1 38.97 3.38
-7 2 -2 144.18 7.16
-7 2 -2 144.75 6.45
7 -2 2 132.39 5.94
-7 2 -3 106.74 8.38
-7 2 -3 94.83 6.98
7 -2 3 105.97 7.72
-7 2 -4 27.38 2.95
7 -2 4 28.32 3.28
-7 2 -5 164.91 9.15
-7 2 -5 116.58 11.38
7 -2 5 159.65 8.51
-7 2 -6 4.89 2.15
-7 2 -6 4.05 1.12
7 -2 6 9.1 2.42
-7 2 -7 272.21 21.08
-7 2 -7 219.7 17.29
7 -2 7 256.52 19.85
-7 2 -8 44.2 4.73
-7 2 -8 29.72 10.82
7 -2 8 46.43 4.79
-7 2 -9 128.64 14.44
-7 2 -9 103.09 14.63
-7 1 6 43.96 4
-7 1 5 71.54 6.17
-7 1 5 60.65 5.02
-7 1 4 7.83 1.98
-7 1 4 3.98 1.21
-7 1 3 221.61 11.35
-7 1 3 202.59 10.03
-7 1 2 296.8 14.37
-7 1 2 342.18 15.85
-7 1 1 34.19 3.5
-7 1 1 30.75 2.81
-7 1 0 217.75 10.89
-7 1 0 176.73 8.45
-7 1 -1 102.54 9.03
-7 1 -1 83.61 6.92
7 -1 1 73.02 6.12
-7 1 -2 466.46 21.63
-7 1 -2 462.71 20.61
7 -1 2 465.11 20.91
-7 1 -3 4.65 1.99
-7 1 -3 7.21 1.1
7 -1 3 5.04 1.18
-7 1 -4 93.35 7.69
-7 1 -4 83.21 8.44
-7 1 -5 93.95 5.86
-7 1 -5 70.86 6.23
7 -1 5 117.04 6.68
-7 1 -6 125.88 7.48
-7 1 -6 86.34 9.56
7 -1 6 129.9 7.37
-7 1 -7 43.29 5.26
-7 1 -7 32.4 6.7
7 -1 7 49.09 6.24
-7 1 -8 100.9 7.77
-7 1 -8 52.34 14.41
7 -1 8 114.55 8.75
-7 1 -9 21.93 4.88
7 -1 9 22.28 5.03
-7 0 6 8.17 2.34
-7 0 5 50.34 4.37
-7 0 5 50.81 4.23
-7 0 4 46.95 5.38
-7 0 4 32.88 3.73
-7 0 3 249.7 12.46
-7 0 3 249.11 11.78
-7 0 2 27.44 2.86
-7 0 2 24.11 2.33
-7 0 1 774.93 34.7
-7 0 1 765.74 33.57
-7 0 0 416.22 17.51
-7 0 0 384.81 15.4
-7 0 -1 1.88 1.06
-7 0 -1 3.71 0.69
7 0 1 3.54 0.83
-7 0 -2 33.06 2.66
-7 0 -2 28.31 1.78
7 0 2 23.71 1.98
-7 0 -3 7.18 2.11
-7 0 -3 4.37 1.33
7 0 3 4.76 0.97
-7 0 -4 239.85 12.06
-7 0 -4 207.82 9.64
7 0 4 262.75 12.63
-7 0 -5 4.35 1.97
-7 0 -5 5.04 1.06
7 0 5 3.83 1.66
-7 0 -6 363.64 17.73
-7 0 -6 319.14 14.75
7 0 6 337.61 16.27
-7 0 -7 8.16 3.08
-7 0 -7 6.7 2.27
7 0 7 9.39 2.46
-7 0 -8 167.83 13.76
7 0 8 162.31 13.16
-7 0 -9 2.98 1.76
7 0 9 11.05 2.81
-7 -1 7 15.02 3.14
-7 -1 6 2.52 1.72
-7 -1 5 364.72 23.31
-7 -1 4 8.95 1.82
-7 -1 3 406.42 19.02
-7 -1 2 16.66 2.08
-7 -1 2 19.48 1.88
-7 -1 1 839.66 37.37
-7 -1 0 4.19 1.62
-7 -1 -1 342.89 14.67
7 1 1 386.6 15.81
-7 -1 -2 2.19 1.23
7 1 2 4.19 1.57
-7 -1 -3 160.5 7.8
7 1 3 141.25 6.84
-7 -1 -4 35.67 3.08
7 1 4 30.92 2.5
-7 -1 -5 663.78 30.25
7 1 5 594.48 27.05
-7 -1 -6 163.09 9.2
7 1 6 182.63 9.88
-7 -1 -7 355.63 17.38
7 1 7 327.52 16.1
-7 -1 -8 238.13 18.5
7 1 8 245.95 19.09
-7 -1 -9 10.87 2.86
7 1 9 11.71 3.21
-7 -2 7 46.34 5.9
-7 -2 6 64.17 4.69
-7 -2 5 2.09 1.15
-7 -2 4 468.52 30.31
-7 -2 3 14.52 2.41
-7 -2 2 9.3 1.63
7 2 -2 9.01 1.7
-7 -2 1 9.22 1.73
7 2 -1 3.49 0.97
-7 -2 0 66.84 3.97
7 2 0 65.37 6.18
-7 -2 -1 15.2 1.76
7 2 1 13.65 1.9
-7 -2 -2 94.53 5.18
7 2 2 92.53 4.78
-7 -2 -3 497.9 20.66
7 2 3 472.55 19.47
-7 -2 -4 236.71 10.78
7 2 4 199.61 9.15
-7 -2 -5 136.28 7.5
7 2 5 130.13 7.37
-7 -2 -6 32.12 3.75
7 2 6 39.37 4.25
-7 -2 -7 147.61 8.16
7 2 7 125.3 7.31
-7 -2 -8 94.19 8.18
7 2 8 126.54 10.63
-7 -2 -9 41.39 8.19
7 2 9 35.44 7.19
-7 -3 6 43.27 3.65
-7 -3 5 5.44 1.71
-7 -3 4 105.85 7.72
-7 -3 3 30.48 3.38
-7 -3 2 920.09 34.45
7 3 -2 898.34 33.26
-7 -3 1 78.7 6.89
7 3 -1 66.44 11.09
-7 -3 0 313.84 13.47
7 3 0 259.22 11.69
7 3 1 2.36 1.14
-7 -3 -2 441.82 18.43
7 3 2 462.93 19.14
-7 -3 -3 219.41 9.95
7 3 3 197.93 9.08
-7 -3 -4 453.36 20.98
7 3 4 470.05 21.71
-7 -3 -5 195.44 8.92
7 3 5 184.73 8.8
-7 -3 -6 8.75 1.81
7 3 6 5.51 1.78
-7 -3 -7 5.51 1.67
7 3 7 3.28 2.02
-7 -3 -8 54.7 5.22
7 3 8 64.88 6.14
-7 -3 -9 144.1 11.62
7 3 9 165.31 13.12
-7 -4 4 2.86 1.21
-7 -4 3 4.38 1.31
7 4 -3 2.24 0.94
-7 -4 2 93.91 5.24
7 4 -2 77.34 10.07
-7 -4 1 4.71 1.35
7 4 -1 2.84 1.24
-7 -4 0 213.42 10.43
7 4 0 202.34 9.92
-7 -4 -1 66.5 5.92
7 4 1 65.48 9.24
-7 -4 -2 5.69 1.58
7 4 2 3.37 1.76
-7 -4 -3 17.9 2.37
7 4 3 16.49 2.59
-7 -4 -4 214.83 10.72
7 4 4 220.89 11.23
-7 -4 -5 5.96 1.6
7 4 6 74.28 5.25
-7 -4 -7 14.3 2.52
7 4 7 17.55 3.44
-7 -4 -8 71.26 5.74
7 4 8 88.39 6.92
-7 -4 -9 3.07 1.38
7 4 9 4.35 2.52
7 5 -3 347.02 22.61
-7 -5 2 61.65 6.42
7 5 -2 42.86 9.31
-7 -5 1 342.59 15.94
7 5 -1 323.64 15.22
-7 -5 0 7.65 1.22
7 5 0 16.46 2.21
-7 -5 -1 309.44 12.52
7 5 1 325.57 13.49
-7 -5 -2 61.91 5.05
7 5 2 72.04 11.13
-7 -5 -3 200.52 8.85
7 5 3 221.95 9.99
-7 -5 -4 5.23 1.72
-7 -5 -5 373.43 17.63
7 5 5 417.98 19.76
-7 -5 -6 29.18 3.74
7 5 6 17.89 3.41
-7 -5 -7 9.32 1.69
7 5 7 4.09 1.83
-7 -5 -8 19.67 4.31
7 5 8 17.35 4.08
-7 -5 -9 50.96 4.3
7 5 9 70.46 5.52
-7 -6 4 130.7 10.22
7 6 -3 39.37 8.18
7 6 -2 33.72 8.11
7 6 -1 26.73 6.04
-7 -6 0 174.8 8.68
7 6 0 162.18 13.78
-7 -6 -1 712.22 31.75
7 6 2 4.9 1.69
-7 -6 -3 123.45 6.61
7 6 3 115.37 14.34
-7 -6 -4 13.53 2.5
7 6 4 15.01 3.23
-7 -6 -5 64.5 6.32
7 6 5 60.36 9.49
-7 -6 -6 1.97 1.04
7 6 6 2.22 1.24
-7 -6 -7 388.12 24.81
7 6 7 397.68 25.63
-7 -6 -8 2.34 1.48
-7 -7 4 94.13 10.65
7 7 -3 6.33 2.61
7 7 -2 153.71 10.61
7 7 -1 43.68 9.46
7 7 0 240.59 19.52
7 7 1 15.39 3.22
-7 -7 -2 77.69 5.71
7 7 2 69.15 7.41
-7 -7 -3 20.43 2.55
7 7 3 27.27 5.31
-7 -7 -4 3.58 1.19
7 7 4 3.01 1.81
-7 -7 -5 3.78 1.24
7 7 5 6.09 1.9
-7 -7 -6 39.65 3.55
7 7 6 31.93 6.54
-7 -7 -7 15.81 3.54
7 7 7 14.39 4.32
-7 -7 -8 14.76 2.54
-7 -8 4 39.73 5.16
7 8 -3 123.53 14.06
7 8 -2 72.58 19.08
7 8 -1 53.66 10.53
7 8 0 67.13 11.41
7 8 1 1.55 1.66
7 8 3 14.68 4.98
7 8 4 153.25 21.79
-7 -8 -5 51.7 4.69
7 8 5 46.8 8.67
-7 -8 -6 203.17 11.45
7 8 6 222.14 24.88
-7 -8 -7 25.12 3.66
-7 -8 -8 147.2 16.34
7 9 -1 55.2 14.36
7 9 0 1.85 1.62
7 9 1 110.91 17.8
7 9 2 11.15 3.92
7 9 3 3.62 1.38
7 9 4 15.68 7.95
-8 5 1 5.59 1.92
-8 5 0 237 25.54
-8 5 0 212.98 22.92
-8 5 -1 9.11 2.79
-8 5 -1 8.54 2.16
-8 5 -2 90.57 10.47
-8 5 -2 71.79 8.41
-8 5 -3 1.38 2.39
-8 5 -3 1.58 1.23
-8 5 -4 22.07 3.84
-8 5 -4 19.94 3.31
-8 5 -5 8.09 2.8
-8 4 1 4.6 1.86
-8 4 0 28.52 5.95
-8 4 0 41.38 7.93
-8 4 -1 50.2 5.1
-8 4 -1 51.06 4.73
-8 4 -2 1.55 1.57
-8 4 -2 2.58 1.47
-8 4 -3 6.18 2.44
-8 4 -3 7.62 2.3
-8 4 -4 106.07 7.65
-8 4 -5 9.28 2.1
-8 4 -6 79.05 9.62
8 -4 6 81.06 10.04
-8 3 3 65.11 5.39
-8 3 2 8.28 2.72
-8 3 1 136.41 11.06
-8 3 0 3.01 2.67
-8 3 -1 84.47 8.02
-8 3 -3 255.65 16.94
-8 3 -4 3.87 1.91
8 -3 4 0.4 1.69
-8 3 -5 90.93 7.95
8 -3 5 119.51 9.63
-8 3 -6 -0.08 1.69
-8 3 -7 61.58 7.52
8 -3 7 45.6 6.52
-8 2 3 6.89 2.28
-8 2 2 174.5 12.04
-8 2 1 13.67 2.57
-8 2 0 121.19 9.34
-8 2 -1 229.91 16
-8 2 -2 2.51 2.03
-8 2 -3 13.96 2.86
-8 2 -4 24.73 3.8
8 -2 4 26.99 3.23
-8 2 -5 16.81 3.83
8 -2 5 16.38 3.52
-8 2 -6 -0.16 1.57
8 -2 6 5.6 1.77
-8 2 -7 46.02 4.32
8 -2 7 36.97 7.58
-8 2 -8 9.23 2.55
8 -2 8 7.27 2.38
-8 1 4 13.9 3.34
-8 1 3 6.44 2.02
-8 1 2 100.65 8.49
-8 1 1 1.28 1.02
-8 1 0 500.92 23.42
-8 1 -1 69.35 5.37
-8 1 -2 296.01 14.8
-8 1 -3 5.72 2.36
8 -1 3 10.17 2.27
-8 1 -4 97.33 8.47
8 -1 4 98.62 7.31
-8 1 -5 28.83 4.12
8 -1 5 38.73 4.48
-8 1 -6 301 19.96
8 -1 6 293.16 19.22
-8 1 -7 2.79 1.76
8 -1 7 -0.96 2.59
-8 1 -8 44.02 5.9
8 -1 8 20.23 3.58
-8 0 5 51.62 6.44
-8 0 4 2.72 1.38
-8 0 3 29.33 5.64
-8 0 2 3.08 1.78
-8 0 1 56.32 9.12
-8 0 0 89.72 5.5
-8 0 -1 249.31 12.44
-8 0 -2 175.39 9.25
8 0 2 171.63 8.55
-8 0 -3 10.2 2.07
8 0 3 10.04 1.94
-8 0 -4 170.79 9.71
8 0 4 177.11 9.11
-8 0 -5 2.86 2.74
8 0 5 3.07 1.25
-8 0 -6 155.5 12.63
8 0 6 183.43 14.5
-8 0 -7 2.48 2.4
8 0 7 3.43 2.3
-8 0 -8 175.45 10.72
8 0 8 182.76 10.93
-8 -1 5 10.14 2.31
-8 -1 4 14.8 3.55
-8 -1 3 245 18.79
-8 -1 2 14.65 2.26
-8 -1 1 371.76 17.72
-8 -1 0 1.29 1.56
-8 -1 -1 253.98 12.68
8 1 1 274.04 12.8
-8 -1 -2 18.72 2.61
-8 -1 -3 21.07 2.74
8 1 3 12.43 1.87
-8 -1 -4 2.57 1.27
8 1 4 1.83 1.12
-8 -1 -5 83.3 5.34
8 1 5 87.41 5.51
-8 -1 -6 95.17 7.57
8 1 6 88.02 6.89
-8 -1 -7 18.2 3.97
8 1 7 23.63 4.97
-8 -1 -8 44.38 4.81
8 1 8 21.86 4.86
-8 -2 6 6.75 2.2
-8 -2 5 0.9 1.15
-8 -2 4 247.76 18.59
-8 -2 3 105.95 8.69
-8 -2 2 275.54 18.39
-8 -2 1 3.67 1.25
-8 -2 0 13.97 1.97
8 2 0 12.45 2.5
-8 -2 -1 19.61 2.55
-8 -2 -2 72.54 6.72
8 2 2 33.74 6.39
-8 -2 -3 181.44 9.59
8 2 3 191.96 9.64
-8 -2 -4 8.55 2.2
8 2 4 9.2 1.59
-8 -2 -5 136.75 7.88
8 2 5 119.21 6.96
-8 -2 -6 64.26 6.47
8 2 6 91.79 7.37
-8 -2 -7 357.64 23.13
8 2 7 339.44 22
-8 -2 -8 128.91 10.55
8 2 8 131.2 10.76
-8 -3 5 11.96 2.65
-8 -3 4 42.42 8.22
-8 -3 3 66.86 5.43
-8 -3 2 211.26 14.29
-8 -3 1 6.53 1.65
-8 -3 0 3.99 1.37
8 3 0 5.12 1.27
-8 -3 -1 48.89 4.87
8 3 1 37.1 6.71
-8 -3 -2 424.4 19.83
8 3 2 406.12 18.8
-8 -3 -3 30.99 3.76
8 3 3 28.14 3.29
-8 -3 -4 544.55 25.33
8 3 4 523.46 24.3
-8 -3 -5 4.71 2.49
8 3 5 4.42 2.57
-8 -3 -6 34.29 4.31
8 3 6 32.71 4.6
-8 -3 -7 35.65 3.63
8 3 7 32.87 3.7
-8 -3 -8 10.26 2.82
8 3 8 4.2 1.53
-8 -4 4 2.77 1.82
-8 -4 3 93.31 7.09
-8 -4 2 2.37 1.2
-8 -4 1 205.96 13.93
8 4 -1 177.91 12.38
-8 -4 0 6.14 1.65
8 4 0 6.55 1.52
-8 -4 -1 6.4 1.83
8 4 1 2.37 1.05
-8 -4 -2 157.22 8.41
8 4 2 181.36 9.29
-8 -4 -3 89.04 5.46
8 4 3 84.43 14
-8 -4 -4 123.77 7.02
8 4 4 140.48 7.78
-8 -4 -5 3.47 1.88
8 4 5 0.67 1.66
-8 -4 -6 140.46 11.34
8 4 6 143.82 11.69
-8 -4 -7 2.26 1.54
-8 -4 -8 174.16 10.47
8 4 8 159.31 9.83
-8 -5 2 7.11 2.1
8 5 -2 3.53 1.88
-8 -5 1 85.02 7.02
-8 -5 0 40.08 4.64
8 5 0 32.63 5.26
-8 -5 -1 904.37 57.45
8 5 1 918.51 77.29
-8 -5 -2 1.56 1.08
8 5 2 2.8 2.01
-8 -5 -3 139.24 10.01
8 5 3 137.57 16.44
-8 -5 -4 7.11 1.72
8 5 4 4.73 1.92
-8 -5 -5 14.99 2.55
8 5 5 15.34 3.07
-8 -5 -6 20.02 4.42
8 5 6 15.21 3.71
-8 -5 -7 92.25 7.88
8 5 7 71.54 6.47
-8 -5 -8 37.27 4.89
8 5 8 37.03 5.24
8 6 -2 3.56 1.7
8 6 -1 17.07 4.46
-8 -6 0 57.82 5.15
8 6 0 41.56 6.35
-8 -6 -1 1.39 1.01
8 6 1 3.41 1.81
-8 -6 -2 53.02 4.83
8 6 2 32.75 5.15
-8 -6 -3 524.23 38.67
8 6 3 471.82 35.19
-8 -6 -4 4.29 1.56
8 6 4 2.29 1.32
-8 -6 -5 85.74 6.65
8 6 5 58.99 9.42
-8 -6 -6 16.61 3.63
8 6 6 17.17 4.26
-8 -6 -7 96.37 6.52
8 6 7 68.33 5.28
8 7 -2 88.08 8.77
8 7 -1 29.77 7.8
8 7 0 238.78 18.1
8 7 1 90.21 11.97
8 7 2 193.48 13.37
-8 -7 -3 38.43 3.47
8 7 3 43.29 6.95
-8 -7 -4 9.76 2.65
8 7 4 10.09 2.77
-8 -7 -5 1.46 1.03
8 7 5 1.02 1.04
-8 -7 -6 38.16 5.06
8 7 6 45.15 9.63
-8 -7 -7 111.87 12.59
8 8 -1 159.64 26.16
8 8 0 9.25 3.29
8 8 1 3.44 2.12
8 8 2 3.71 1.91
8 8 3 20.14 4.92
-9 3 -1 241.14 26.14
-9 3 -2 11.46 2.71
-9 3 -3 248.28 26.96
-9 3 -4 5.05 2.52
-9 2 1 4.2 2.26
-9 2 0 50.31 4.86
-9 2 -1 142.51 9.35
-9 2 -2 4.02 1.74
-9 2 -3 82.07 5.96
-9 2 -4 2.92 1.67
-9 2 -5 126.07 14.39
9 -2 6 1.91 2.21
9 -2 7 16.49 4.03
-9 1 1 79.56 5.91
-9 1 0 154.67 12.21
-9 1 -1 17.96 4.05
-9 1 -2 208.1 14.17
-9 1 -3 27.17 5.76
-9 1 -4 179.16 14.01
-9 1 -5 6.79 2.23
9 -1 5 1.2 1.41
-9 1 -6 116.68 8.09
9 -1 7 45.65 7.42
-9 0 2 3.6 2.24
-9 0 1 1.69 1.41
-9 0 0 9.94 2.7
-9 0 -1 19.01 4.11
-9 0 -2 2.66 1.29
-9 0 -3 226.74 15.2
-9 0 -4 366.34 23.67
9 0 4 324.47 20.81
-9 0 -5 17.44 3.96
-9 0 -6 38.67 5.49
9 0 6 41.28 3.84
9 0 7 2.21 1.95
-9 -1 3 2.25 1.41
-9 -1 2 -0.14 1.31
-9 -1 1 86.36 6.75
-9 -1 0 2.02 1.47
-9 -1 -1 208.48 16.33
-9 -1 -2 11.12 2.2
-9 -1 -3 91.37 7.86
9 1 3 69.45 5.98
-9 -1 -4 14.77 3.23
-9 -1 -5 147.61 10.74
9 1 5 128.38 9.09
-9 -1 -6 1.52 1.42
9 1 6 2.98 2.19
-9 -1 -7 4.09 3.01
9 1 7 1.32 1.88
-9 -2 4 151.88 16.77
-9 -2 3 1.39 1.23
-9 -2 2 25.17 5.28
-9 -2 1 9.58 2.41
-9 -2 0 383.42 24.49
-9 -2 -1 64.28 6.06
-9 -2 -2 177.59 14.01
9 2 2 166.91 13.11
-9 -2 -3 120.12 10.1
-9 -2 -4 112.42 9.73
9 2 4 86.29 7.26
-9 -2 -5 11.56 3.03
9 2 5 8.37 2.24
-9 -2 -6 61.67 6.04
9 2 6 41.92 8.51
-9 -2 -7 168.5 10.37
9 2 7 182.21 11.04
-9 -3 4 103.81 11.82
-9 -3 3 2.9 1.75
-9 -3 2 185.65 10.67
-9 -3 1 16.58 4
-9 -3 0 11.02 2.56
-9 -3 -1 89.95 7.9
-9 -3 -2 53.71 5.03
9 3 2 40.77 9.77
-9 -3 -3 31.88 3.79
9 3 3 35.46 5.08
-9 -3 -4 109.41 8.21
9 3 4 119.93 8.73
-9 -3 -5 8.48 2.39
9 3 5 5.12 2.99
-9 -3 -6 93.69 8.1
9 3 6 71.62 6.94
-9 -3 -7 20.55 4.59
9 3 7 17.03 4.17
-9 -4 3 18.85 3.01
-9 -4 2 2.15 2.06
-9 -4 1 162.27 12.61
-9 -4 0 261.58 17.08
-9 -4 -1 147.28 10.26
9 4 1 130 16.87
-9 -4 -2 18.22 4.02
9 4 2 11.61 3.13
-9 -4 -3 1.25 1.29
9 4 3 1.03 1.01
-9 -4 -4 309.57 20.22
9 4 4 230.13 26.32
-9 -4 -5 26.73 5.91
9 4 5 14.6 4
-9 -4 -6 175.7 10.49
9 4 6 167.47 10.17
-9 -4 -7 4.17 2.47
9 4 7 4.39 1.73
-9 -5 1 8.45 2.36
-9 -5 0 3.81 1.94
9 5 0 3.25 1.68
-9 -5 -1 97.91 7.98
-9 -5 -2 4.88 2.25
9 5 2 2.61 1.01
-9 -5 -3 72.08 6.01
9 5 3 64.57 8.9
-9 -5 -4 52.43 5.17
9 5 4 38.19 10.58
-9 -5 -5 86.06 7.49
9 5 5 77.86 10.54
9 5 6 21.64 5.01
9 6 0 27.91 9.37
-9 -6 -1 33.94 6.76
9 6 1 24.23 6.33
-9 -6 -2 5.77 2.18
9 6 2 2.25 1.32
-9 -6 -3 2.87 1.47
9 6 3 3.81 2.35
-9 -6 -4 17.62 3.96
9 6 4 24.67 5.84
-9 -6 -5 89.7 6.32
9 6 5 64.43 14.91
-9 -6 -6 19.34 3.11
9 7 0 47.01 16.17
9 7 1 8.28 3.7
9 7 2 159.52 17.56
9 7 3 16.13 3.5
-9 -7 -4 107.15 12.02
9 7 4 112.98 16.14
-9 -7 -5 3.4 1.44
-9 -7 -6 129.73 14.51
-10 -1 -1 62.08 7.71
-10 -1 -2 8.49 2.95
-10 -1 -3 230.97 13.13
-10 -1 -4 1.02 1.61
10 1 6 0.46 2.58
-10 -2 0 18.28 3.03
-10 -2 -1 73.65 5.41
-10 -2 -2 152.28 9.48
-10 -2 -3 79.56 5.92
-10 -2 -4 2.92 2.06
10 2 5 3.73 2.17
10 2 6 8.38 4.27
-10 -3 1 1.72 1.32
-10 -3 0 107.89 12.14
-10 -3 -1 0.97 1.26
-10 -3 -2 234.78 13.38
-10 -3 -3 1.12 1.89
-10 -3 -4 28.35 4.07
10 3 4 19.58 3.72
10 3 6 1.8 2.15
-10 -4 1 162.69 17.8
-10 -4 0 17.71 3.19
-10 -4 -1 14.59 2.85
-10 -4 -2 6.53 2.17
-10 -4 -3 7.02 2.03
10 4 3 12.5 2.86
-10 -4 -4 15.92 3.21
10 4 4 10.8 3.5
10 4 5 2.73 2.08
-10 -5 0 -0.28 1.41
-10 -5 -1 104.23 11.95
-10 -5 -2 1.2 1.6
-10 -5 -3 2.01 1.51
10 5 3 5.11 2.69
-10 -5 -4 1.37 1.26
10 5 4 2.26 1.71
10 5 5 51.76 17.35
10 6 2 2.64 1.94
-10 -6 -3 83.8 9.78
-10 -6 -4 10.13 2.67
