#------------------------------------------------------------------------------
#$Date: 2022-06-29 01:53:26 +0300 (Wed, 29 Jun 2022) $
#$Revision: 276372 $
#$URL: file:///home/coder/svn-repositories/cod/cif/7/71/06/7710627.cif $
#------------------------------------------------------------------------------
#
# This file is available in the Crystallography Open Database (COD),
# http://www.crystallography.net/
#
# All data on this site have been placed in the public domain by the
# contributors.
#
data_7710627
loop_
_publ_author_name
'Gross, Peter'
'Zhang, Yue'
'Bayarjargal, Lkhamsuren'
'Winkler, Bjoern'
'H\"oppe, Henning A.'
_publ_section_title
;
 New Alkaline-Earth Amidosulfates and their Unexpected Decomposition to
 S4N4
;
_journal_name_full               'Dalton Transactions'
_journal_paper_doi               10.1039/D2DT01380K
_journal_year                    2022
_chemical_formula_sum            'H4 N2 O6 S2 Sr'
_chemical_formula_weight         279.79
_space_group_crystal_system      monoclinic
_space_group_IT_number           4
_space_group_name_Hall           'P 2yb'
_space_group_name_H-M_alt        'P 1 21 1'
_atom_sites_solution_hydrogens   difmap
_audit_creation_method           SHELXL-2018/3
_audit_update_record
;
2021-10-27 deposited with the CCDC.	2022-06-06 downloaded from the CCDC.
;
_cell_angle_alpha                90
_cell_angle_beta                 107.246(3)
_cell_angle_gamma                90
_cell_formula_units_Z            2
_cell_length_a                   7.0047(3)
_cell_length_b                   7.0574(3)
_cell_length_c                   7.1430(3)
_cell_measurement_reflns_used    8517
_cell_measurement_temperature    296(2)
_cell_measurement_theta_max      25.597
_cell_measurement_theta_min      2.986
_cell_volume                     337.24(3)
_computing_structure_refinement  'SHELXL-2018/3 (Sheldrick, 2018)'
_diffrn_ambient_temperature      296(2)
_diffrn_measured_fraction_theta_full 1.000
_diffrn_measured_fraction_theta_max 0.999
_diffrn_measurement_device_type  'D8 Venture Bruker'
_diffrn_measurement_method       'generic phi and omega scans'
_diffrn_radiation_type           MoK\a
_diffrn_radiation_wavelength     0.71073
_diffrn_reflns_av_R_equivalents  0.0819
_diffrn_reflns_av_unetI/netI     0.0420
_diffrn_reflns_Laue_measured_fraction_full 1.000
_diffrn_reflns_Laue_measured_fraction_max 0.999
_diffrn_reflns_limit_h_max       8
_diffrn_reflns_limit_h_min       -8
_diffrn_reflns_limit_k_max       8
_diffrn_reflns_limit_k_min       -8
_diffrn_reflns_limit_l_max       8
_diffrn_reflns_limit_l_min       -8
_diffrn_reflns_number            8517
_diffrn_reflns_point_group_measured_fraction_full 0.998
_diffrn_reflns_point_group_measured_fraction_max 0.995
_diffrn_reflns_theta_full        25.242
_diffrn_reflns_theta_max         25.597
_diffrn_reflns_theta_min         2.986
_exptl_absorpt_coefficient_mu    8.600
_exptl_crystal_colour            colourless
_exptl_crystal_density_diffrn    2.755
_exptl_crystal_description       block
_exptl_crystal_F_000             272
_exptl_crystal_size_max          0.20
_exptl_crystal_size_mid          0.02
_exptl_crystal_size_min          0.02
_exptl_transmission_factor_max   0.7452
_exptl_transmission_factor_min   0.5057
_refine_diff_density_max         0.396
_refine_diff_density_min         -0.317
_refine_diff_density_rms         0.090
_refine_ls_abs_structure_details
;
 Refined as an inversion twin.
;
_refine_ls_abs_structure_Flack   0.430(12)
_refine_ls_extinction_method     none
_refine_ls_goodness_of_fit_ref   1.049
_refine_ls_hydrogen_treatment    refxyz
_refine_ls_matrix_type           full
_refine_ls_number_parameters     113
_refine_ls_number_reflns         1255
_refine_ls_number_restraints     4
_refine_ls_restrained_S_all      1.048
_refine_ls_R_factor_all          0.0318
_refine_ls_R_factor_gt           0.0267
_refine_ls_shift/su_max          0.000
_refine_ls_shift/su_mean         0.000
_refine_ls_structure_factor_coef Fsqd
_refine_ls_weighting_details
'w=1/[\s^2^(Fo^2^)+(0.0197P)^2^] where P=(Fo^2^+2Fc^2^)/3'
_refine_ls_weighting_scheme      calc
_refine_ls_wR_factor_gt          0.0481
_refine_ls_wR_factor_ref         0.0493
_reflns_Friedel_coverage         0.832
_reflns_Friedel_fraction_full    0.995
_reflns_Friedel_fraction_max     0.991
_reflns_number_gt                1157
_reflns_number_total             1255
_reflns_threshold_expression     'I > 2\s(I)'
_cod_data_source_file            d2dt01380k2.cif
_cod_data_source_block           mo_81Sr_0m
_cod_original_sg_symbol_H-M      'P 21'
_cod_database_code               7710627
_shelx_shelxl_version_number     2018/3
_shelx_space_group_comment
;
The symmetry employed for this shelxl refinement is uniquely defined
by the following loop, which should always be used as a source of
symmetry information in preference to the above space-group names.
They are only intended as comments.
;
_shelx_res_file
;
TITL mo_81Sr_0m in P2(1)
    mo_81Sr_0m.res
    created by SHELXL-2018/3 at 10:10:22 on 06-May-2020
CELL 0.71073   7.00470   7.05740   7.14300  90.0000 107.2457  90.0000
ZERR    2.00   0.00030   0.00030   0.00030   0.0000   0.0028   0.0000
LATT -1
SYMM -X, 0.5+Y, -Z
SFAC N H O S SR
UNIT 4 8 12 4 2
LIST 6 ! automatically inserted. Change 6 to 4 for CHECKCIF!!
TEMP 22.910

L.S. 4
BOND
FMAP 2
PLAN 20

acta

twin
htab

dfix 0.99 0.01 N2 H21 N2 H22 N1 H11

REM EXTI    0.000242
WGHT    0.019700
BASF   0.42974
FVAR       0.31784
MOLE   1
SR1   5    0.370623    0.539261    0.112945    11.00000    0.01895    0.01599 =
         0.02222   -0.00102    0.00549   -0.00095
S1    4    0.218374    1.006970    0.053271    11.00000    0.01785    0.01637 =
         0.02525   -0.00051    0.00691   -0.00085
S2    4    0.760650    0.863352    0.424570    11.00000    0.02108    0.02237 =
         0.02036   -0.00189    0.00592   -0.00155
O11   3   -0.006940    0.536542    0.043192    11.00000    0.01746    0.03338 =
         0.04141   -0.00136    0.00522   -0.00233
O21   3    0.684373    0.675175    0.365307    11.00000    0.03346    0.02068 =
         0.03440   -0.00586    0.00966   -0.01030
O22   3    0.236159    0.480004   -0.259379    11.00000    0.05031    0.02520 =
         0.02229   -0.00371    0.00934   -0.00390
O13   3    0.309191    0.876927   -0.056020    11.00000    0.02693    0.02170 =
         0.03079   -0.00048    0.01353    0.00498
O12   3    0.334258    0.181956    0.091813    11.00000    0.03406    0.01485 =
         0.04328    0.00011    0.00188   -0.00904
O23   3    0.343847    0.455848    0.453651    11.00000    0.02727    0.03655 =
         0.03044    0.00636    0.01059   -0.00564
N2    1    0.994377    0.833558    0.543878    11.00000    0.01949    0.03284 =
         0.02873   -0.00448    0.00093   -0.00137
H21   2    1.076191    0.934544    0.622643    11.00000   -1.20000
H22   2    1.007895    0.730343    0.638741    11.00000   -1.00000
N1    1    0.239591    0.897528    0.259086    11.00000    0.02568    0.04197 =
         0.02717    0.00108    0.00923   -0.00458
H11   2    0.351043    0.946869    0.368199    11.00000   -1.20000
H12   2    0.122713    0.887606    0.295424    11.00000   -1.20000
MOLE   2
HKLF 4




REM  mo_81Sr_0m in P2(1)
REM wR2 = 0.0493, GooF = S = 1.049, Restrained GooF = 1.048 for all data
REM R1 = 0.0267 for 1157 Fo > 4sig(Fo) and 0.0318 for all 1255 data
REM 113 parameters refined using 4 restraints

END

WGHT      0.0197      0.0000

REM Instructions for potential hydrogen bonds
EQIV $9 x+1, y, z+1
HTAB N2 S1_$9
EQIV $10 -x+2, y+1/2, -z+1
HTAB N2 O21_$10
HTAB N2 O13_$9
HTAB N2 O22_$9
HTAB N1 S2
EQIV $8 -x+1, y+1/2, -z+1
HTAB N1 O21_$8
HTAB N1 O23_$8
EQIV $11 x-1, y, z
HTAB N1 S2_$11
EQIV $6 -x, y+1/2, -z
HTAB N1 O22_$6
HTAB N1 N2_$11

REM Highest difference peak  0.396,  deepest hole -0.317,  1-sigma level  0.090
Q1    1   0.4451  0.5438 -0.0247  11.00000  0.05    0.40
Q2    1   0.5113  0.5451  0.2388  11.00000  0.05    0.34
Q3    1   0.3780  0.9635  0.1213  11.00000  0.05    0.34
Q4    1   0.3665  0.8236  0.5987  11.00000  0.05    0.33
Q5    1   0.2228  0.5455  0.4072  11.00000  0.05    0.30
Q6    1   0.0852  0.4531 -0.2196  11.00000  0.05    0.29
Q7    1   0.2824  0.8770  0.1768  11.00000  0.05    0.28
Q8    1   0.2955  0.1643  0.2633  11.00000  0.05    0.28
Q9    1   0.1804  1.0166  0.2161  11.00000  0.05    0.27
Q10   1   1.1231  0.6218  0.7082  11.00000  0.05    0.26
Q11   1   0.4089  0.9422  0.5927  11.00000  0.05    0.26
Q12   1   0.5593  0.5422  0.1196  11.00000  0.05    0.26
Q13   1   0.2861  0.5366  0.2940  11.00000  0.05    0.25
Q14   1   0.3688  0.8195  0.0662  11.00000  0.05    0.25
Q15   1   0.4057  0.5317  0.2707  11.00000  0.05    0.25
Q16   1   0.6510  0.5127  0.3005  11.00000  0.05    0.25
Q17   1   0.6588  0.7815  0.4102  11.00000  0.05    0.25
Q18   1   0.3734  0.1075  0.1124  11.00000  0.05    0.25
Q19   1   0.2540  0.5810  0.0187  11.00000  0.05    0.24
Q20   1   0.0340  0.5841 -0.0610  11.00000  0.05    0.23
;
_shelx_res_checksum              36116
_shelx_hkl_file
;
   1   0   0  110.60    4.02
   1   0   0  100.69    3.75
   1   0   0  107.30    3.73
   1   0   0  112.19    3.90
  -1   0   0  107.33    3.73
  -1   0   0  107.60    3.81
  -1   0   0  117.55    3.93
   2   0   0  612.52   18.45
  -2   0   0  561.83   18.01
  -2   0   0  568.72   18.20
  -2   0   0  613.27   18.44
   2   0   0  575.70   18.03
   2   0   0  601.20   18.77
   2   0   0  545.54   18.12
   3   0   0  589.97   18.93
  -3   0   0  599.67   18.69
   3   0   0  571.87   19.44
  -3   0   0  588.16   19.17
  -3   0   0  581.87   19.02
   3   0   0  566.67   18.57
   3   0   0  591.85   19.22
  -4   0   0    5.52    3.58
   4   0   0    1.16    3.66
   4   0   0   -2.84    3.17
   4   0   0    1.64    4.96
  -4   0   0   -1.63    3.66
   4   0   0    5.38    2.91
   5   0   0  150.36    8.41
   5   0   0  142.32   11.37
  -5   0   0  139.15   10.00
   5   0   0  139.63    9.51
  -5   0   0  130.93    9.32
   5   0   0  139.22   11.39
   6   0   0   -5.74    7.00
  -6   0   0    9.43    7.87
   6   0   0    2.75    4.69
   6   0   0    9.60    5.52
   6   0   0    2.18    7.29
   6   0   0   10.71    5.21
   7   0   0  112.23    7.44
   7   0   0  106.78    8.10
   7   0   0  101.43   14.69
   7   0   0   74.00    6.71
   7   0   0  101.23    7.38
   7   0   0   89.71    7.99
  -7   0   0   90.62   17.43
   7   0   0   96.07    7.63
   7   0   0   88.51    7.90
   7   0   0   91.13    7.87
   8   0   0   83.87    7.60
   8   0   0   76.85    8.39
   8   0   0   70.56    8.61
   8   0   0   61.60    7.83
   8   0   0   95.76   11.25
   8   0   0   67.45    8.17
   8   0   0   90.17    8.57
   8   0   0   69.70   13.30
   0  -1   0    2.72    0.62
   0   1   0    2.76    0.67
   1  -1   0  133.61    4.85
   1  -1   0  133.65    4.37
   1  -1   0  134.16    4.34
  -1  -1   0  136.95    4.69
   1  -1   0  138.44    4.88
  -1  -1   0  133.43    4.78
   1   1   0  130.21    4.87
   1   1   0  131.23    5.20
  -1   1   0  122.15    4.33
   1   1   0  121.89    4.61
  -2  -1   0  364.79   12.07
   2  -1   0  362.59   11.71
  -2  -1   0  354.97   11.99
   2  -1   0  363.30   12.27
   2  -1   0  383.64   12.15
   2  -1   0  357.43   11.50
  -2   1   0  371.06   12.25
  -2   1   0  344.53   11.67
   2   1   0  361.95   12.75
   2   1   0  362.10   12.19
  -2   1   0  346.36   11.52
   2   1   0  333.67   11.78
   2   1   0  345.92   11.69
   3  -1   0  168.18    6.52
   3  -1   0  167.59    7.27
   3  -1   0  172.07    7.52
  -3  -1   0  155.75    9.06
   3  -1   0  161.81    7.49
  -3  -1   0  163.77    7.37
  -3   1   0  168.75    7.73
   3   1   0  133.11   10.72
   3   1   0  165.74    7.26
  -3   1   0  164.67    7.31
  -3   1   0  158.85    6.51
   3   1   0  125.96    9.85
   3   1   0  169.78    6.98
   4  -1   0   12.15    2.97
  -4  -1   0    3.53    4.09
   4  -1   0    5.40    4.04
   4  -1   0    7.59    4.46
  -4  -1   0    7.77    3.97
   4  -1   0    1.89    3.26
  -4   1   0    1.27    3.72
   4   1   0    0.94    5.42
   4   1   0    5.67    3.67
   4   1   0    9.54    3.99
   4   1   0    1.99    3.44
  -4   1   0    6.92    2.82
  -4   1   0    4.73    4.13
   5  -1   0   90.50    6.64
   5  -1   0   98.54    9.29
  -5  -1   0   98.83    9.76
   5  -1   0   74.09    7.71
   5  -1   0   86.96   10.06
  -5  -1   0   69.97    8.01
  -5   1   0   61.65    8.30
   5   1   0   91.52    9.17
  -5   1   0   71.30    9.49
   5   1   0   73.29    7.99
   5   1   0   79.53   10.72
   5   1   0   96.27    7.66
   6  -1   0   64.49    5.82
  -6  -1   0   52.01    9.09
   6  -1   0   59.06    5.87
   6  -1   0   54.80    9.26
   6  -1   0   50.02    4.69
  -6  -1   0   84.78   10.95
   6  -1   0   53.68    5.45
   6   1   0   58.55    5.51
   6   1   0   66.82    9.47
   6   1   0   46.30   10.39
  -6   1   0   45.22    8.95
   6   1   0   57.62    6.22
   6   1   0   60.16    8.28
   6   1   0   48.97    8.48
   7  -1   0   37.49    6.14
   7  -1   0   24.95    5.80
   7  -1   0   36.75    5.77
  -7  -1   0   26.22    6.42
   7  -1   0   32.68    6.24
   7  -1   0   32.19    5.07
   7  -1   0   39.99    6.65
   7  -1   0   33.39   10.38
   7   1   0   26.89    6.79
   7   1   0   25.80    6.12
   7   1   0   37.74    6.75
   7   1   0   41.76    6.89
   7   1   0   31.15   11.28
   7   1   0   33.22    5.86
   7   1   0   28.57    5.38
   7   1   0   44.70    6.32
   8  -1   0   -4.71    6.67
   8  -1   0   -5.25    6.31
   8  -1   0    3.45    7.12
   8  -1   0    3.06    6.73
   8  -1   0    4.70    6.11
   8  -1   0    0.40   11.56
   8  -1   0    1.42    6.64
   8  -1   0   -6.44    7.33
   8   1   0    3.86    7.17
   8   1   0   -5.03    6.98
   8   1   0   -1.24    5.81
   8   1   0    2.53    7.64
   8   1   0  -14.43   11.06
   8   1   0   -1.78    7.16
   8   1   0    3.45    6.92
   8   1   0   -2.14    8.22
   0  -2   0  967.66   28.50
   0   2   0  928.17   28.52
  -1  -2   0  127.67    5.34
  -1  -2   0  126.06    4.77
   1  -2   0  123.64    5.44
  -1  -2   0  119.60    4.55
   1   2   0  126.38    4.91
  -1   2   0  125.67    4.28
  -1   2   0  120.45    4.19
   1   2   0  121.97    6.12
   1   2   0  132.12    5.56
   2  -2   0  107.13    4.54
   2  -2   0  113.80    5.62
  -2  -2   0  104.40    4.98
   2  -2   0  109.52    5.58
  -2  -2   0  109.21    5.34
   2  -2   0  110.59    4.35
  -2  -2   0  115.14    5.41
   2   2   0  105.19    4.82
  -2   2   0  103.68    4.43
   2   2   0  105.80    5.51
   2   2   0  106.94    6.37
   2   2   0  103.39    5.08
   3  -2   0   79.67    5.98
   3  -2   0   74.89    4.51
  -3  -2   0   80.66    5.56
   3  -2   0   72.08    6.17
  -3  -2   0   83.21    5.76
  -3  -2   0   79.59    5.73
   3   2   0   79.98    5.11
   3   2   0   82.65    7.41
  -3   2   0   80.47    4.53
  -3   2   0   89.07    5.53
   3   2   0   86.82    6.25
   3   2   0   78.06    5.08
   4  -2   0  191.63   10.30
  -4  -2   0  204.80    9.83
  -4  -2   0  194.22    9.63
   4  -2   0  184.95    9.20
  -4  -2   0  189.39    9.51
   4  -2   0  181.08    8.09
   4  -2   0  175.52    9.39
   4   2   0  183.22   10.06
   4   2   0  188.09    9.38
  -4   2   0  189.42    9.57
   4   2   0  180.02   10.72
   4   2   0  193.02    9.13
  -4   2   0  186.97    8.14
   5  -2   0  117.12    7.40
   5  -2   0  118.43   10.91
  -5  -2   0  104.95    9.56
   5  -2   0  120.40    9.49
  -5  -2   0  126.47   10.66
   5  -2   0  123.71   10.23
  -5  -2   0  111.59    9.13
   5   2   0  119.36    9.32
   5   2   0  120.93   11.73
   5   2   0  129.01    9.61
  -5   2   0  101.66    9.83
   5   2   0  127.93    8.91
   6  -2   0   28.73    5.28
   6  -2   0   13.77    4.98
   6  -2   0   16.92    4.89
   6  -2   0   14.42    3.50
  -6  -2   0   20.08    5.09
   6   2   0   13.79    7.50
   6   2   0   14.38    5.81
   6   2   0   12.12    5.57
   6   2   0   31.05    7.06
   6   2   0   14.85    4.81
   6   2   0   18.41    6.58
   6   2   0   15.00    5.97
  -7  -2   0   84.75    7.83
   7  -2   0   74.12    7.06
  -7  -2   0   61.75    6.69
   7  -2   0   72.45    7.02
   7  -2   0   79.07    7.19
   7  -2   0   78.13   12.49
   7  -2   0   84.42    6.91
   7  -2   0   78.05    6.26
   7  -2   0   71.08    7.93
   7   2   0   75.09    7.71
   7   2   0   74.59    6.71
   7   2   0   84.03    8.79
   7   2   0   72.08    6.80
   7   2   0   74.82    6.92
   7   2   0   89.90   12.94
   7   2   0   74.00    7.73
   7   2   0   62.55    6.89
   0  -3   0    2.41    1.87
   0   3   0    4.99    2.39
   1  -3   0  143.89    6.67
   1  -3   0  154.46    6.75
  -1  -3   0  160.16    5.12
  -1  -3   0  155.93    6.40
  -1  -3   0  148.50    5.18
   1   3   0  156.04    6.81
   1   3   0  152.75    7.39
   1   3   0  153.39    5.66
  -2  -3   0  579.77   18.35
   2  -3   0  594.29   19.12
  -2  -3   0  570.28   18.15
  -2  -3   0  570.86   18.85
   2   3   0  592.43   20.00
  -2   3   0  585.89   17.77
   2   3   0  559.41   18.39
   2   3   0  590.30   19.23
  -2   3   0  565.24   17.94
   3  -3   0  170.98    8.94
  -3  -3   0  170.04    8.25
   3  -3   0  163.63    6.96
  -3  -3   0  158.61    7.81
   3  -3   0  167.20    6.64
   3  -3   0  178.48    9.08
  -3  -3   0  170.36    8.27
   3   3   0  160.81    7.69
  -3   3   0  133.74    9.33
  -3   3   0  172.49    6.83
   3   3   0  172.07   10.25
   3   3   0  175.08    8.57
   3   3   0  163.70    7.76
   4  -3   0   82.99    9.36
   4  -3   0   67.27    5.49
  -4  -3   0   82.43    8.00
   4  -3   0   86.36    8.68
   4  -3   0   71.80    6.87
  -4  -3   0   93.09    7.28
  -4  -3   0   71.71    7.25
   4   3   0   81.13    7.79
   4   3   0   83.55    6.50
  -4   3   0   80.19    7.49
   4   3   0   82.19    9.31
   4   3   0   87.92    7.52
   5  -3   0  201.88   12.93
  -5  -3   0  235.23   14.13
   5  -3   0  203.59    7.77
  -5  -3   0  180.91    8.85
   5  -3   0  202.33    9.18
  -5  -3   0  199.15   14.96
   5  -3   0  218.07   13.16
   5   3   0  212.82   11.64
   5   3   0  200.98    9.14
   5   3   0  206.02   14.28
   5   3   0  206.41    9.05
   6  -3   0   10.83    5.00
   6  -3   0   18.71    5.26
   6  -3   0   19.33    9.12
   6  -3   0   18.25    6.07
  -6  -3   0   13.06    4.54
   6  -3   0    9.34    5.10
   6  -3   0   13.97    3.76
  -6  -3   0   12.49    5.55
   6   3   0   17.99    4.80
   6   3   0   13.15    5.28
   6   3   0   20.40    5.30
   6   3   0    9.42    9.96
   6   3   0   13.81    6.66
   6   3   0   15.39    5.55
   6   3   0    6.46    6.41
   7  -3   0    9.89    4.37
   7  -3   0    0.58    6.00
   7  -3   0    3.29    5.63
   7  -3   0    4.36    6.87
   7  -3   0    6.57    5.82
   7  -3   0   -3.33   10.63
  -7  -3   0    1.55    6.20
   7  -3   0    2.53    5.79
  -7  -3   0   -8.79    4.65
   7   3   0    2.52    7.30
   7   3   0    0.63    6.12
   7   3   0   -3.84   10.72
   7   3   0   11.47    8.58
   7   3   0    9.65    7.13
   7   3   0    6.00    6.64
   7   3   0   16.05    5.68
   7   3   0   -0.48    5.57
   0  -4   0  121.90    6.62
   0   4   0  129.09    7.41
   1  -4   0   15.58    4.34
   1  -4   0   13.64    3.48
  -1  -4   0   19.28    3.33
   1   4   0   14.14    2.14
   1   4   0    9.60    3.67
   1   4   0   20.12    2.83
  -2  -4   0   24.16    3.09
   2  -4   0   27.36    5.29
   2  -4   0   19.88    5.00
  -2  -4   0   23.73    3.96
  -2  -4   0   26.13    3.07
   2   4   0   25.84    4.76
  -2   4   0   19.88    2.71
  -2   4   0   28.56    2.80
   2   4   0   26.26    3.25
   2   4   0   20.63    6.09
   2   4   0   28.95    3.37
  -3  -4   0   25.49    4.58
   3  -4   0   30.04    6.18
   3  -4   0   26.93    5.59
  -3  -4   0   34.77    4.32
  -3  -4   0   28.01    4.40
   3   4   0   23.62    5.45
  -3   4   0   24.83    4.13
   3   4   0   29.75    4.18
   3   4   0   23.17    7.39
   3   4   0   24.31    4.20
   4  -4   0   53.39    6.11
  -4  -4   0   58.64    7.53
   4  -4   0   75.07    9.44
   4  -4   0   53.54    5.50
   4  -4   0   55.18    7.26
  -4  -4   0   69.46    8.83
  -4  -4   0   54.23    7.60
   4   4   0   58.39    7.91
   4   4   0   77.08    6.92
   4   4   0   63.65    9.85
   4   4   0   51.08    7.19
   5  -4   0   98.78   12.19
   5  -4   0  112.15    6.54
   5  -4   0  107.42    5.43
   5  -4   0  118.25   11.99
  -5  -4   0  112.27    5.46
   5  -4   0  115.11    6.75
   5   4   0  117.98   13.57
   5   4   0  106.12    6.94
   5   4   0  111.10    6.43
   5   4   0  110.79    7.21
   5   4   0   98.94    6.92
   6  -4   0    0.01    5.27
   6  -4   0   13.91    7.16
   6  -4   0    0.86    3.43
   6  -4   0    7.18    5.23
   6  -4   0    0.05    5.69
  -6  -4   0    3.47    5.61
   6  -4   0    9.37    9.40
  -6  -4   0    4.28    3.89
   6   4   0    7.89    5.28
   6   4   0   22.20   10.77
   6   4   0   -0.84    6.64
   6   4   0    7.22    5.27
   6   4   0   -3.67    7.78
   6   4   0   -3.15    5.44
   6   4   0   -0.70    5.26
   7  -4   0   22.12   11.72
  -7  -4   0   40.12    5.67
   7  -4   0   28.36    6.63
   7  -4   0   35.07    8.32
   7  -4   0   37.22    7.48
   7  -4   0   20.21    7.50
  -7  -4   0   41.23    7.70
   7  -4   0   35.10    4.82
   7   4   0   29.98    6.40
   7   4   0   21.39    8.11
   7   4   0   28.01    8.90
   7   4   0   36.66    7.92
   7   4   0   40.76   12.63
   7   4   0   33.52    6.68
   7   4   0   45.48    8.37
   7   4   0   22.88    6.50
   0  -5   0    5.01    3.80
   0   5   0   11.44    5.01
   1  -5   0  100.68    8.44
   1  -5   0  112.79    7.72
  -1  -5   0  104.71    7.44
   1   5   0   99.58    5.27
   1   5   0  113.25    9.28
   1   5   0  109.85    5.36
   2  -5   0  127.04    9.77
  -2  -5   0  133.69    8.84
   2  -5   0  131.98   10.00
   2   5   0  113.06   10.19
   2   5   0  136.45    6.55
  -2   5   0  125.52    5.91
   2   5   0  134.46   11.29
   2   5   0  119.04    6.85
  -3  -5   0   58.37    8.09
   3  -5   0   36.68    7.94
  -3  -5   0   41.37    5.20
   3  -5   0   46.30    7.89
   3  -5   0   40.45    6.55
  -3  -5   0   51.67    6.64
  -3   5   0   44.23    6.47
   3   5   0   44.27    7.39
   3   5   0   39.40    7.55
   3   5   0   53.41   10.05
   4  -5   0    4.08    7.16
  -4  -5   0    7.16    6.81
  -4  -5   0    9.52    3.05
   4  -5   0    8.05    8.06
   4  -5   0    4.14    2.59
   4  -5   0    4.74    4.52
   4   5   0   16.67   10.08
   4   5   0    2.75    3.58
   4   5   0    0.23    4.85
   4   5   0   22.02    5.21
   4   5   0    4.97    4.41
   5  -5   0   31.83    5.57
  -5  -5   0   24.54    3.78
   5  -5   0   31.65    3.36
   5  -5   0   27.46    5.49
   5  -5   0   33.19   14.92
   5   5   0   12.20    8.27
   5   5   0   37.49    5.53
   5   5   0   21.33    5.05
   5   5   0   37.08    7.23
   5   5   0   50.48   11.76
   5   5   0   27.43    5.65
   5   5   0   25.63    5.90
   6  -5   0   44.82    7.74
   6  -5   0   40.20   11.56
   6  -5   0   46.65    6.48
   6  -5   0   51.34    7.20
  -6  -5   0   35.10    7.26
   6  -5   0   37.78    4.24
  -6  -5   0   47.66    5.26
   6  -5   0   38.61    6.79
   6   5   0   36.99    6.29
   6   5   0   69.28   13.24
   6   5   0   39.60    8.20
   6   5   0   40.40    6.43
   6   5   0   53.62    7.62
   6   5   0   41.29    8.65
   6   5   0   45.61    5.97
   0  -6   0  384.49   15.38
   1  -6   0   41.93    7.88
  -1  -6   0   36.73    5.62
   1  -6   0   27.47    5.69
   1   6   0   34.05    3.68
   1   6   0   34.59    4.69
   1   6   0   33.62    7.50
   2  -6   0   51.73    8.45
  -2  -6   0   43.03    6.48
   2  -6   0   48.25    7.18
   2   6   0   45.04    5.37
  -2   6   0   52.55    4.92
   2   6   0   37.01    8.11
  -3  -6   0   66.35    3.98
  -3  -6   0   71.56    9.81
   3  -6   0   35.88    8.64
   3  -6   0   70.27    9.52
   3  -6   0   48.98    8.14
   3   6   0   52.36    5.59
   3   6   0   56.77    5.47
   3   6   0   45.66    9.33
   3   6   0   58.07   11.99
   3   6   0   64.86    6.04
   3   6   0   58.22    6.35
   4  -6   0   12.61   11.68
   4  -6   0   26.57    5.56
   4  -6   0   24.90    9.72
  -4  -6   0   24.05    3.51
   4  -6   0   32.89    5.87
   4  -6   0   19.86    2.93
   4   6   0   29.18    5.21
   4   6   0   27.01    7.16
   4   6   0   23.88   18.29
   4   6   0   30.88    5.66
   4   6   0   24.20    5.73
   4   6   0   32.35    5.51
   5  -6   0   38.94    6.28
   5  -6   0   47.91   11.00
   5  -6   0   47.22    6.34
  -5  -6   0   34.68    4.08
   5  -6   0   30.14    8.17
   5  -6   0   34.10    3.78
   5   6   0   28.19    6.26
   5   6   0   32.59    5.48
   5   6   0   39.30    5.91
   5   6   0   31.31    7.86
   5   6   0   38.33   12.88
   5   6   0   37.82    6.83
   0  -7   0    2.45    6.62
  -1  -7   0   11.39    6.63
   1  -7   0   10.27    8.83
   1   7   0   10.12    5.07
   1   7   0   12.23   11.59
  -2  -7   0   43.20    3.46
   2  -7   0   55.71   10.53
  -2  -7   0   28.22    7.63
   2   7   0   51.76    5.63
   2   7   0   42.16    5.54
   2   7   0   43.17    6.37
   2   7   0   39.67   13.95
   2   7   0   39.93    6.58
   3  -7   0   39.63    3.46
   3  -7   0   44.89   11.00
  -3  -7   0   38.69    3.60
   3   7   0   42.42    7.78
   3   7   0   41.42    5.87
   3   7   0   37.30    6.05
   3   7   0   25.51    5.94
   3   7   0   52.49    7.79
   4  -7   0    1.80    5.63
   4  -7   0    0.89    2.76
   4  -7   0    2.87    6.15
   4  -7   0   26.58   10.72
  -4  -7   0   -4.42    3.14
   4   7   0   -4.39    7.96
   4   7   0   -3.97    5.93
   4   7   0   17.82   13.27
   4   7   0   -3.50    6.47
   4   7   0   -4.92    5.76
   4   7   0  -12.45    5.55
   0  -8   0   46.78   12.98
  -1  -8   0   24.36    2.72
   1  -8   0   44.21   12.93
   1   8   0   39.59    8.59
   1   8   0   22.40    7.67
  -2  -8   0   25.07    3.19
   2   8   0   22.26    6.74
   2   8   0   18.44    7.20
   2   8   0   25.07    6.16
   8   0  -1   -1.14    6.33
   8   0  -1    5.41    6.03
   8   0  -1   -8.38   11.38
   8   0  -1   -9.25    6.62
   8   0  -1   -5.75    6.78
   8   0  -1    1.00    6.12
   8   0  -1    6.44    6.23
   8   0  -1    0.79    6.15
   8   0  -1  -13.37    7.05
   7   0  -1   71.10    6.78
   7   0  -1   71.90    6.34
   7   0  -1   63.13    5.83
   7   0  -1   84.77    7.15
   7   0  -1   82.65    7.21
   7   0  -1   59.81    6.30
   7   0  -1   72.93    7.39
   7   0  -1   76.82    6.85
  -7   0   1   50.46   10.90
   7   0  -1   69.42   11.96
   6   0  -1  126.02    9.53
   6   0  -1  124.97   11.27
  -6   0   1   91.43   11.71
   6   0  -1  114.64    6.84
  -6   0   1  118.87   10.61
   6   0  -1  101.63   11.68
   6   0  -1  102.52    6.80
   5   0  -1   -4.09    5.70
   5   0  -1   -3.12    3.81
   5   0  -1   -1.59    5.05
  -5   0   1   -3.37    4.17
   5   0  -1   -2.81    3.74
  -5   0   1   -0.01    4.97
  -5   0   1   -2.82    5.00
   4   0  -1  110.67    6.14
   4   0  -1  117.03    7.08
  -4   0   1  123.30    7.17
  -4   0   1  121.27    7.16
  -4   0   1  119.72    7.33
   4   0  -1  106.73    8.10
   4   0  -1  123.79    7.36
   3   0  -1  309.55   10.73
  -3   0   1  303.31   10.89
  -3   0   1  306.38   11.05
   3   0  -1  306.12   11.02
   3   0  -1  316.38   11.68
   3   0  -1  337.61   11.27
  -3   0   1  312.57   11.24
  -2   0   1  163.87    6.40
   2   0  -1  178.89    6.64
  -2   0   1  174.99    6.54
  -2   0   1  164.23    6.43
   2   0  -1  159.92    6.53
   2   0  -1  172.56    6.98
   2   0  -1  169.65    6.50
  -1   0   1    5.89    1.02
  -1   0   1    6.23    1.19
   1   0  -1    6.20    0.94
   1   0  -1    6.46    1.12
   1   0  -1    7.10    1.24
  -1   0   1    5.76    0.91
   1   0  -1    6.05    1.02
   0   0  -1  257.64    8.14
   0   0   1  261.75    8.08
   0   0  -1  259.25    8.05
   0   0   1  241.14    8.22
   0   0   1  251.75    8.13
  -1   0  -1  248.11    8.59
  -1   0  -1  243.34    8.38
   1   0   1  249.85    8.61
   1   0   1  252.10    8.74
   1   0   1  266.17    8.72
   1   0   1  251.17    8.43
  -1   0  -1  260.18    8.67
   2   0   1  110.02    5.88
  -2   0  -1   96.94    4.80
   2   0   1  112.89    6.26
   2   0   1   99.66    5.00
  -2   0  -1  108.68    5.82
  -2   0  -1  105.58    5.52
   2   0   1  103.50    5.37
   3   0   1   -1.37    3.15
   3   0   1   -0.61    2.88
   3   0   1   -0.42    2.39
   3   0   1   -2.08    3.93
  -3   0  -1   -2.12    2.91
  -3   0  -1    4.07    2.60
  -3   0  -1    5.01    3.21
  -4   0  -1   80.98    6.65
   4   0   1   71.14    7.43
   4   0   1   81.93    9.06
  -4   0  -1   90.09   11.92
   4   0   1   76.49    6.75
   4   0   1   74.44    7.58
  -4   0  -1   79.53    7.87
   5   0   1  174.72   12.76
   5   0   1  148.09   10.88
  -5   0  -1  181.67   10.55
  -5   0  -1  149.01   10.69
  -5   0  -1  183.93   12.25
  -5   0  -1  154.37    7.88
   5   0   1  177.26   11.35
   5   0   1  170.77    9.82
   6   0   1   18.72    9.63
   6   0   1   23.60    5.21
   6   0   1   19.66    5.97
   6   0   1   13.96    4.79
   6   0   1   13.59    5.35
   6   0   1   14.50    5.67
  -6   0  -1   10.79    8.59
   7   0   1    7.07    6.84
  -7   0  -1   -5.72   10.94
   7   0   1    2.98    6.39
   7   0   1   10.10   10.64
   7   0   1   17.63    5.47
   7   0   1    9.85    6.24
   7   0   1   14.59    6.17
   7   0   1    4.80    6.33
   7   0   1    8.23    6.36
   8  -1  -1   11.32    6.17
   8  -1  -1  -11.92   10.06
   8  -1  -1    8.53    6.69
   8  -1  -1    9.49    7.02
   8  -1  -1    8.93    5.84
   8  -1  -1    9.00    6.96
   8  -1  -1   12.43    6.64
   8  -1  -1   14.10    6.85
   8   1  -1   -4.43   11.38
   8   1  -1    7.63    6.52
   8   1  -1   12.30    7.49
   8   1  -1   17.30    8.29
   8   1  -1   -4.57    7.59
   8   1  -1   17.65    7.68
   8   1  -1    3.68    6.96
   7  -1  -1   -6.79    9.68
   7  -1  -1    7.81    5.48
   7  -1  -1   -0.33    6.07
   7  -1  -1   -0.24    6.11
   7  -1  -1   -4.34    5.33
   7  -1  -1    3.33    5.17
   7  -1  -1    4.87    4.30
   7   1  -1    4.34    5.04
   7   1  -1  -10.53    6.07
   7   1  -1   -5.53    5.84
   7   1  -1    2.92    5.49
   7   1  -1   -7.42    5.62
   7   1  -1    7.44   10.48
   7   1  -1    3.74    4.79
   7   1  -1   12.30   13.79
   6  -1  -1   14.31    7.21
   6  -1  -1   22.41    4.93
   6  -1  -1   18.67    4.95
   6  -1  -1   11.24    7.80
  -6  -1   1    3.69    6.51
   6  -1  -1   20.97    7.49
  -6  -1   1   22.36    7.35
   6   1  -1   26.09    7.08
   6   1  -1   28.04    6.21
  -6   1   1   27.63    6.76
  -6   1   1   10.89    6.66
  -6   1   1   13.77    6.99
   6   1  -1   11.40    7.46
   6   1  -1   21.97    4.78
  -5  -1   1  141.17    9.37
  -5  -1   1  121.65    8.80
   5  -1  -1  140.45    7.37
   5  -1  -1  141.05    9.24
   5  -1  -1  137.81   10.84
  -5  -1   1  135.89    9.34
   5  -1  -1  132.45    9.28
  -5   1   1  120.75    9.91
   5   1  -1  132.84    8.97
  -5   1   1  141.10    8.87
   5   1  -1  137.68    8.58
   5   1  -1  150.12    9.65
   5   1  -1  142.80   11.31
  -5   1   1  141.54    9.86
  -4  -1   1  240.26   10.54
   4  -1  -1  254.74   10.44
   4  -1  -1  242.82   11.30
   4  -1  -1  245.79   10.11
  -4  -1   1  254.39   10.51
  -4  -1   1  255.40   10.39
   4  -1  -1  244.99    9.45
  -4   1   1  253.10   10.77
   4   1  -1  253.88   10.78
   4   1  -1  223.62    8.84
   4   1  -1  246.94   10.05
   4   1  -1  246.02   11.63
   4   1  -1  209.04   13.68
  -4   1   1  243.03   10.38
  -4   1   1  249.70    9.85
  -3  -1   1   23.12    3.24
  -3  -1   1   21.27    2.90
   3  -1  -1   16.67    2.64
   3  -1  -1   17.94    3.46
   3  -1  -1   18.45    2.97
  -3  -1   1   15.41    2.91
   3  -1  -1   17.56    2.32
  -3   1   1   16.67    2.98
   3   1  -1   14.59    2.93
   3   1  -1   18.83    3.83
  -3   1   1   25.49    3.03
   3   1  -1   23.00    3.31
  -3   1   1   17.66    2.95
  -2  -1   1  487.41   15.65
  -2  -1   1  465.66   15.31
   2  -1  -1  483.46   15.16
   2  -1  -1  467.97   15.71
  -2  -1   1  491.68   15.32
   2  -1  -1  494.13   15.14
  -2   1   1  467.84   15.12
   2   1  -1  479.13   15.36
  -2   1   1  481.52   15.25
   2   1  -1  483.03   15.72
   2   1  -1  488.55   15.62
  -2   1   1  494.10   15.20
   2   1  -1  469.59   15.27
  -1  -1   1  172.95    6.06
  -1  -1   1  176.50    6.15
   1  -1  -1  176.39    5.64
   1  -1  -1  175.21    6.00
  -1  -1   1  178.05    6.49
   1  -1  -1  164.76    6.48
   1   1  -1  186.42    6.13
   1   1  -1  188.02    6.12
  -1   1   1  192.05    5.71
   1   1  -1  186.19    6.53
  -1   1   1  186.05    6.10
   0  -1  -1   73.94    3.07
   0  -1  -1   79.82    2.67
   0  -1  -1   70.27    3.27
   0  -1   1   75.76    2.92
   0  -1   1   70.77    3.53
   0  -1   1   71.52    3.03
   0   1  -1   76.06    2.96
   0   1   1   76.18    3.65
   0   1   1   71.18    3.22
   0   1  -1   77.83    3.66
   0   1   1   80.02    2.64
  -1  -1  -1  351.32   10.90
  -1  -1  -1  322.30   11.00
  -1  -1  -1  321.58   10.73
   1  -1   1  342.52   10.81
   1  -1   1  336.92   10.75
   1  -1   1  337.22   10.84
   1   1   1  336.21   10.86
   1   1   1  323.21   10.75
  -1   1  -1  332.19   10.73
   1   1   1  336.73   11.15
   1   1   1  327.99   11.71
   2  -1   1   95.11    4.73
   2  -1   1   85.49    4.98
  -2  -1  -1   98.92    5.30
   2  -1   1   86.96    5.28
  -2  -1  -1   93.96    5.12
   2  -1   1   97.01    5.73
  -2  -1  -1   85.97    4.66
   2   1   1   89.98    5.18
   2   1   1   95.63    4.96
  -2   1  -1  100.36    5.21
   2   1   1   94.30    5.33
   2   1   1  100.47    6.31
  -2   1  -1   94.62    4.50
   3  -1   1  716.70   22.29
  -3  -1  -1  698.23   22.83
  -3  -1  -1  700.56   23.23
   3  -1   1  697.81   23.11
   3  -1   1  707.72   23.10
  -3  -1  -1  729.30   22.53
   3  -1   1  708.47   22.66
   3   1   1  671.83   23.41
  -3   1  -1  672.07   22.68
   3   1   1  707.85   22.56
   3   1   1  683.67   22.81
  -3   1  -1  705.26   22.27
   3   1   1  698.29   22.83
   4  -1   1   99.61    6.65
  -4  -1  -1   93.31    7.91
   4  -1   1   96.25    8.22
   4  -1   1  100.15    9.10
  -4  -1  -1  101.60    7.73
   4  -1   1   85.69    7.71
  -4  -1  -1  100.48    8.29
   4   1   1  103.68    7.31
  -4   1  -1   92.42    7.94
  -4   1  -1   96.76    8.12
  -4   1  -1  111.18    6.89
   4   1   1   96.92    8.60
   4   1   1  105.12    8.96
   4   1   1   90.81    7.90
  -5  -1  -1   61.54    7.92
   5  -1   1   50.98    6.88
   5  -1   1   58.83    7.95
  -5  -1  -1   64.30    8.65
   5  -1   1   62.51    8.87
  -5  -1  -1   47.39    6.17
   5  -1   1   60.82    7.53
   5   1   1   48.12    7.55
  -5   1  -1   51.97    8.07
  -5   1  -1   60.33    7.77
  -5   1  -1   54.67    8.12
   5   1   1   51.52    8.34
   5   1   1   43.05    6.40
   5   1   1   62.56    8.47
   6  -1   1   43.43    6.45
  -6  -1  -1   36.68    9.68
   6  -1   1   33.98    5.44
  -6  -1  -1   37.43    6.00
   6  -1   1   49.87   14.24
   6  -1   1   36.92    4.68
   6  -1   1   40.36    5.87
   6  -1   1   47.07    5.80
   6  -1   1   44.30    5.82
   6   1   1   32.30   10.03
   6   1   1   39.21    6.58
   6   1   1   35.40    5.38
   6   1   1   30.06    7.48
   6   1   1   56.14    9.87
   6   1   1   37.82    6.32
   6   1   1   37.72    6.35
   6   1   1   41.49    6.21
  -6   1  -1   40.65   12.60
   7  -1   1   25.90    6.16
   7  -1   1   17.27    6.97
   7  -1   1   23.79    4.85
   7  -1   1   19.85    5.90
   7  -1   1   19.86    5.66
   7  -1   1    4.82    5.92
  -7  -1  -1   20.06    6.78
   7  -1   1   20.55   11.14
   7   1   1   32.31    7.39
   7   1   1   29.58    6.86
   7   1   1   32.09   10.97
   7   1   1   17.45    6.37
   7   1   1   25.71    5.93
   7   1   1   24.42    6.69
   7   1   1   18.60    5.66
   7   1   1   11.36    5.93
   8  -2  -1   42.94    6.72
  -8  -2   1   15.94    8.49
   8  -2  -1   38.20    7.92
   8  -2  -1   17.43    6.67
   8  -2  -1   33.93    5.34
   8  -2  -1   -3.66   11.66
   8  -2  -1   23.95    6.93
  -8  -2   1   30.97    6.54
   8  -2  -1   42.19    7.14
   8  -2  -1   30.59    7.88
   8   2  -1   38.86    6.88
   8   2  -1   21.12    7.60
   8   2  -1   32.34    6.74
   8   2  -1   27.40    8.06
   8   2  -1   34.91    6.16
   8   2  -1   35.47    6.31
   8   2  -1   17.61   11.74
   8   2  -1   25.18    7.26
   7  -2  -1   92.86    7.18
  -7  -2   1   89.18    7.37
   7  -2  -1   94.48    7.09
   7  -2  -1   81.56   11.94
   7  -2  -1   98.50    5.87
  -7  -2   1   85.48    6.27
   7  -2  -1   86.84    7.57
   7  -2  -1   95.27    7.15
   7   2  -1  102.22    7.36
   7   2  -1   84.53   13.05
   7   2  -1  100.73    7.75
   7   2  -1   60.03   13.64
   7   2  -1   88.71    6.38
   7   2  -1  100.73    8.60
   7   2  -1   90.70    7.82
   7   2  -1   97.81    7.97
   7   2  -1   82.73    7.92
   6  -2  -1   46.45    9.22
   6  -2  -1   41.76    4.20
   6  -2  -1   50.63    5.27
   6  -2  -1   30.97    5.08
  -6  -2   1   38.85    8.16
   6  -2  -1   35.39    8.08
   6   2  -1   44.21    7.23
   6   2  -1   48.35    5.73
   6   2  -1   50.13    5.29
   6   2  -1   41.18    7.33
  -6   2   1   36.77    8.01
   6   2  -1   19.82    8.29
  -5  -2   1   57.41    7.88
   5  -2  -1   46.52    7.16
  -5  -2   1   34.25    5.89
  -5  -2   1   58.97    8.74
   5  -2  -1   47.54    6.45
   5  -2  -1   50.82    6.29
   5  -2  -1   57.65    5.25
  -5   2   1   69.91    6.37
  -5   2   1   63.88    8.40
  -5   2   1   35.27    6.82
   5   2  -1   39.86    5.65
   5   2  -1   38.10    6.10
   5   2  -1   65.97    9.37
   5   2  -1   61.69    7.89
  -4  -2   1    8.71    4.29
   4  -2  -1    5.78    2.74
   4  -2  -1   -0.54    3.73
   4  -2  -1    2.91    3.56
  -4  -2   1    2.67    3.52
  -4  -2   1    4.63    3.67
   4  -2  -1    7.80    5.02
   4   2  -1   -2.04    3.75
  -4   2   1    1.68    3.85
  -4   2   1   -2.10    4.44
   4   2  -1    0.91    3.02
   4   2  -1    5.07    3.50
   4   2  -1    5.61    5.90
  -4   2   1    7.13    3.09
   4   2  -1    7.34    3.35
  -3  -2   1  156.48    7.51
   3  -2  -1  155.80    6.28
   3  -2  -1  162.50    7.30
  -3  -2   1  167.88    7.22
   3  -2  -1  163.59    8.13
  -3  -2   1  153.87    7.27
   3   2  -1  147.59    6.51
   3   2  -1  156.15    7.72
   3   2  -1  166.09    8.63
  -3   2   1  161.40    6.69
  -3   2   1  154.67    6.89
  -3   2   1  154.12    7.70
   3   2  -1  155.69    6.93
   2  -2  -1  186.70    6.74
  -2  -2   1  181.87    7.56
   2  -2  -1  178.73    6.21
  -2  -2   1  180.52    6.95
   2  -2  -1  184.57    7.88
   2  -2  -1  181.12    6.56
  -2  -2   1  180.00    6.88
   2   2  -1  177.61    7.72
   2   2  -1  177.68    7.62
   2   2  -1  173.85    6.78
   2   2  -1  178.42    6.99
  -2   2   1  184.62    6.63
  -1  -2   1  104.88    4.29
   1  -2  -1  109.22    4.22
  -1  -2   1  113.35    4.58
  -1  -2   1  113.84    5.45
   1   2  -1  103.17    5.51
   1   2  -1  114.68    4.55
   1   2  -1  106.61    4.39
  -1   2   1  120.74    4.43
   1   2  -1  100.07    5.01
  -1   2   1  116.82    4.42
   0  -2  -1  772.07   23.17
   0  -2  -1  818.59   23.35
   0  -2   1  774.98   24.19
   0  -2  -1  792.47   23.23
   0   2   1  738.60   23.53
   0   2   1  763.75   23.35
   0   2  -1  805.67   23.21
   0   2   1  796.78   23.29
   0   2  -1  773.00   24.24
   0   2  -1  762.99   23.33
  -1  -2  -1   94.92    4.83
  -1  -2  -1  105.24    4.66
   1  -2   1   96.56    4.69
   1  -2   1  112.05    4.40
   1  -2   1  108.67    4.17
   1   2   1   94.56    6.26
   1   2   1  107.27    5.13
  -1   2  -1  106.08    4.41
  -1   2  -1  104.24    4.51
   1   2   1  107.16    4.95
  -2  -2  -1   85.36    5.21
  -2  -2  -1   82.19    4.73
   2  -2   1   83.48    5.26
   2  -2   1   86.17    4.58
   2  -2   1   79.72    4.37
  -2  -2  -1   82.41    4.79
   2   2   1   80.07    4.69
   2   2   1   75.79    5.25
  -2   2  -1   75.09    5.64
   2   2   1   81.90    6.69
   2   2   1   81.47    5.26
   3  -2   1   14.61    4.38
  -3  -2  -1   14.09    3.28
  -3  -2  -1   10.88    3.47
   3  -2   1   16.54    3.18
   3  -2   1   15.81    3.66
  -3  -2  -1    8.88    3.68
   3  -2   1   10.70    3.82
   3   2   1   18.38    3.57
  -3   2  -1   14.20    3.62
   3   2   1   12.85    3.41
  -3   2  -1   14.24    2.89
   3   2   1    9.83    3.54
   3   2   1   13.17    5.18
   4  -2   1   -0.95    3.48
  -4  -2  -1    4.58    3.83
   4  -2   1   -0.15    4.22
   4  -2   1    1.63    4.56
  -4  -2  -1   -1.10    4.60
   4  -2   1    9.71    5.75
  -4  -2  -1    0.69    4.82
  -4   2  -1   11.32    4.96
   4   2   1    4.19    6.92
  -4   2  -1   11.16    3.44
   4   2   1   10.28    4.67
   4   2   1   -0.86    3.96
   4   2   1    7.29    5.12
   5  -2   1  213.89   16.78
   5  -2   1  215.26    9.37
  -5  -2  -1  225.15   12.17
   5  -2   1  238.77    9.37
   5  -2   1  239.54    8.64
  -5  -2  -1  211.26   12.93
   5  -2   1  252.54   13.99
  -5   2  -1  234.27   13.37
   5   2   1  218.38   13.25
   5   2   1  226.59   12.17
   5   2   1  227.20    9.59
   5   2   1  246.63   14.86
  -5   2  -1  256.94   11.27
  -6  -2  -1   46.08    6.19
   6  -2   1   42.94    5.95
   6  -2   1   54.79    6.06
  -6  -2  -1   41.20    5.56
   6  -2   1   47.63   10.42
   6  -2   1   44.66    4.75
   6  -2   1   36.57    5.39
   6  -2   1   34.12    6.18
   6  -2   1   44.93    5.73
   6   2   1   48.08    6.83
   6   2   1   47.24    7.60
   6   2   1   45.72    6.43
   6   2   1   58.39    6.73
   6   2   1   32.65   10.06
   6   2   1   38.55    8.70
   6   2   1   44.41    5.87
   6   2   1   45.22    5.87
   7  -2   1   11.20    5.90
   7  -2   1   11.24    7.05
   7  -2   1   10.58    6.06
  -7  -2  -1   19.42   10.39
  -7  -2  -1    8.53    7.61
   7  -2   1    7.81    6.23
  -7  -2  -1    8.26    5.83
   7  -2   1    0.60   10.81
   7  -2   1    7.64    5.49
  -7  -2  -1    5.62    7.29
   7  -2   1    2.42    4.81
   7   2   1    6.78    7.02
   7   2   1   11.60    6.13
   7   2   1    6.53    6.37
   7   2   1    3.33    7.30
   7   2   1    9.42    6.16
   7   2   1   17.81    6.27
   7   2   1   18.16    8.26
   7   2   1   10.27    6.40
   7   2   1    0.00   10.56
  -7  -3   1    2.65    6.37
  -7  -3   1    1.81    5.01
   7  -3  -1    7.12   10.15
   7  -3  -1   -5.10    5.04
   7  -3  -1   -0.57    7.15
   7  -3  -1    3.94    4.24
   7  -3  -1   -0.53    5.56
   7  -3  -1    8.63    6.30
   7   3  -1   -8.80    5.24
   7   3  -1   -1.92    5.53
   7   3  -1   -4.67    5.47
   7   3  -1    5.35    8.62
   7   3  -1    5.83    6.95
   7   3  -1    5.35    5.02
   7   3  -1   -6.20    6.31
   7   3  -1   15.79   11.55
   6  -3  -1   27.50    3.58
   6  -3  -1   30.98    5.08
   6  -3  -1   19.60    8.06
  -6  -3   1   35.76    4.46
   6  -3  -1   30.90    5.69
   6  -3  -1   28.15    4.39
   6  -3  -1   28.50    5.35
   6   3  -1   29.75    5.60
   6   3  -1   20.01   13.05
   6   3  -1   19.05    5.37
   6   3  -1   26.50    6.33
   6   3  -1   22.35    4.89
   6   3  -1   35.64    5.40
   6   3  -1   36.61    4.56
  -5  -3   1  119.78    8.76
   5  -3  -1   94.34    9.88
  -5  -3   1  111.35    8.77
   5  -3  -1  107.23    5.12
  -5  -3   1  102.36   10.27
   5  -3  -1  107.30   10.78
   5  -3  -1  107.89    6.40
   5  -3  -1  106.50    6.92
   5   3  -1  100.20    9.43
   5   3  -1   99.53    7.88
   5   3  -1  111.24   12.66
  -5   3   1  112.34    9.70
   5   3  -1  114.58    8.32
   5   3  -1   88.00   11.74
   4  -3  -1  121.19    5.88
   4  -3  -1  117.10    9.08
  -4  -3   1  111.10    7.73
  -4  -3   1  111.79    8.02
   4  -3  -1  118.40    8.56
  -4  -3   1  103.32    8.15
   4  -3  -1  114.59    7.04
  -4   3   1  119.42    6.78
   4   3  -1  117.86    8.93
  -4   3   1  108.95    7.79
   4   3  -1  113.29   10.84
   4   3  -1  126.64    7.18
   4   3  -1  108.99    7.58
   3  -3  -1    2.44    3.22
   3  -3  -1    1.67    4.15
  -3  -3   1    3.02    3.42
  -3  -3   1   -1.13    3.01
   3  -3  -1    1.65    2.67
  -3  -3   1    4.65    2.95
   3  -3  -1    7.13    1.91
   3   3  -1    2.78    3.40
  -3   3   1    5.56    2.52
   3   3  -1    6.44    2.77
   3   3  -1   -1.33    2.94
  -3   3   1   -2.18    3.58
   3   3  -1    8.61    5.39
   2  -3  -1  220.96    7.35
   2  -3  -1  227.66    8.37
  -2  -3   1  216.50    8.12
  -2  -3   1  217.68    7.99
   2  -3  -1  209.94   10.20
  -2  -3   1  217.69    9.06
   2  -3  -1  217.63    6.92
  -2   3   1  220.73    7.57
   2   3  -1  218.61    8.19
  -2   3   1  213.04    7.79
   2   3  -1  210.25    9.26
   2   3  -1  207.74    9.84
   2   3  -1  209.59    7.95
   1  -3  -1  377.42   12.08
  -1  -3   1  385.96   13.14
   1   3  -1  377.87   13.35
  -1   3   1  372.93   11.89
  -1   3   1  389.53   11.81
   1   3  -1  388.41   11.95
   1   3  -1  348.81   12.73
   1   3  -1  386.21   12.06
   0  -3   1  154.08    7.02
   0  -3  -1  154.94    5.89
   0   3   1  158.92    6.27
   0   3  -1  159.70    7.19
   0   3  -1  155.53    5.58
   0   3   1  153.84    5.71
   0   3   1  158.01    5.86
   0   3  -1  161.76    5.28
  -1  -3  -1   64.71    4.20
  -1  -3  -1   61.27    4.04
   1  -3   1   58.34    5.39
   1  -3   1   60.20    4.49
   1   3   1   63.35    3.88
   1   3   1   62.60    4.82
   1   3   1   64.37    6.24
  -1   3  -1   66.68    3.35
  -1   3  -1   67.62    3.66
   1   3   1   58.68    4.92
   2  -3   1  248.89    8.42
   2  -3   1  235.03    9.78
  -2  -3  -1  236.69    9.55
  -2  -3  -1  241.53    9.55
   2  -3   1  257.35    8.66
   2   3   1  240.12    9.77
   2   3   1  256.59   10.14
   2   3   1  240.41    9.26
  -2   3  -1  255.21    8.73
  -2   3  -1  236.16    9.12
   2   3   1  255.43   11.57
  -3  -3  -1  124.84    7.87
   3  -3   1  117.08    6.23
  -3  -3  -1  118.98    7.69
   3  -3   1  110.62    6.82
   3  -3   1  128.70    8.73
   3  -3   1  121.07    8.70
   3   3   1  125.46    7.46
   3   3   1  132.47    8.88
   3   3   1  136.87    7.64
  -3   3  -1  125.45    6.34
   3   3   1  120.87    9.41
  -4  -3  -1    9.22    5.01
   4  -3   1    2.57    4.86
   4  -3   1   10.70    3.47
  -4  -3  -1   14.40    4.74
   4  -3   1    8.35    6.57
   4  -3   1    2.03    5.48
  -4   3  -1   10.70    5.42
   4   3   1    8.78    5.13
   4   3   1    6.94    5.66
   4   3   1    9.53    7.32
  -4   3  -1   15.92    3.78
   4   3   1   11.33    4.95
  -5  -3  -1   -2.48    3.78
   5  -3   1    3.42    8.06
   5  -3   1    4.55    2.82
  -5  -3  -1    0.94    4.55
   5  -3   1    5.09    4.83
   5  -3   1    6.66    4.47
   5   3   1    3.06    4.12
   5   3   1    0.22    6.57
   5   3   1   -5.36    5.36
   5   3   1   -4.28    4.41
   5   3   1    4.44    9.31
   5   3   1   12.14    8.00
   6  -3   1   11.49    5.21
   6  -3   1   17.80    5.66
   6  -3   1   12.30    5.37
   6  -3   1   10.05    6.94
  -6  -3  -1   13.79    5.61
   6  -3   1   13.13    3.53
   6  -3   1   10.21    9.45
  -6  -3  -1   12.54    5.25
   6  -3   1    9.51    6.14
   6   3   1    7.26    5.31
   6   3   1   20.16    4.89
   6   3   1   15.89    6.35
   6   3   1   19.04    9.51
   6   3   1   -0.51    7.41
   6   3   1   27.47    5.27
   6   3   1    9.53    5.23
   6   3   1   15.04    6.72
   7  -3   1   53.01    5.27
  -7  -3  -1   53.80    8.20
   7  -3   1   43.13    7.79
   7  -3   1   66.03    7.23
   7  -3   1   45.86   10.40
  -7  -3  -1   39.03    6.96
   7  -3   1   62.28    7.57
   7  -3   1   59.95   13.22
   7   3   1   55.43    6.93
   7   3   1   51.59    7.71
   7   3   1   53.29    7.07
   7   3   1   49.23    8.98
   7   3   1   53.84    7.13
   7   3   1   34.64    8.81
   7   3   1   54.82    8.09
   7   3   1   49.60   11.71
   7  -4  -1   65.67    6.86
   7  -4  -1   68.50    5.74
   7  -4  -1   58.60    7.85
  -7  -4   1   59.26    7.16
   7  -4  -1   79.88    7.71
  -7  -4   1   71.39    5.99
   7  -4  -1   85.53   13.28
   7  -4  -1   74.09    7.45
   7   4  -1   68.09    7.53
   7   4  -1   71.51    7.52
   7   4  -1   52.30    9.85
   7   4  -1   64.60    7.16
   7   4  -1   71.72    6.74
   7   4  -1   56.67    8.30
   7   4  -1   67.13   13.84
   6  -4  -1   24.07    5.51
   6  -4  -1   30.71    6.81
  -6  -4   1   30.39    4.18
   6  -4  -1   32.24   10.03
   6  -4  -1   31.20    3.74
   6  -4  -1   27.17    5.56
   6  -4  -1   26.00    5.27
   6   4  -1   29.84    5.07
   6   4  -1   48.71   11.98
   6   4  -1   32.85    7.49
   6   4  -1   25.73    6.16
   6   4  -1   25.89    6.97
   6   4  -1   32.56    5.89
   6   4  -1   26.52    4.54
   6   4  -1   31.36    5.93
  -5  -4   1   35.53    3.65
   5  -4  -1   46.41    8.51
   5  -4  -1   38.12    4.99
   5  -4  -1   28.71    3.34
   5  -4  -1   32.38    7.05
   5   4  -1   31.36    6.23
   5   4  -1   31.98    5.74
   5   4  -1   46.55   10.44
   5   4  -1   34.53    5.44
   5   4  -1   40.11    5.31
   5   4  -1   36.75    4.11
  -4  -4   1   49.23    5.70
   4  -4  -1   52.85    6.04
   4  -4  -1   44.53    4.68
   4  -4  -1   56.24    8.32
   4  -4  -1   49.32    7.48
   4   4  -1   49.33    7.03
  -4   4   1   44.91    5.51
   4   4  -1   47.16    6.38
   4   4  -1   62.01    6.02
   4   4  -1   52.54    9.86
  -3  -4   1  108.80    6.67
  -3  -4   1  108.29    7.46
   3  -4  -1  117.14    8.20
   3  -4  -1  113.79    9.02
  -3  -4   1  114.35    7.74
  -3   4   1  132.79    5.87
   3   4  -1  102.72   10.32
  -3   4   1  115.00    6.52
   3   4  -1  129.10    6.86
   3   4  -1  116.04    9.07
   2  -4  -1  146.79    7.84
  -2  -4   1  152.19    6.28
   2  -4  -1  156.87    8.94
  -2  -4   1  163.13    6.69
  -2  -4   1  152.72    7.95
  -2   4   1  157.13    6.45
  -2   4   1  163.06    6.14
   2   4  -1  161.80    7.10
   2   4  -1  148.33    8.99
   2   4  -1  167.21    6.68
   2   4  -1  150.85    9.72
  -1  -4   1   40.82    5.26
   1  -4  -1   40.42    4.40
  -1   4   1   38.34    3.37
   1   4  -1   36.78    4.30
  -1   4   1   30.85    3.04
   1   4  -1   43.40    3.08
   1   4  -1   39.35    3.67
   1   4  -1   37.15    4.60
   0  -4   1  312.93   11.92
   0  -4  -1  325.31   10.85
   0   4  -1  313.08   12.39
   0   4  -1  297.36    9.91
   0   4   1  311.75   10.23
   0   4  -1  301.05    9.81
   0   4   1  313.16   10.43
   0   4   1  310.41   11.41
  -1  -4  -1  162.50    5.84
  -1  -4  -1  150.87    5.46
   1  -4   1  142.63    8.43
  -1  -4  -1  153.67    7.30
   1  -4   1  145.44    7.76
  -1   4  -1  157.68    6.04
  -1   4  -1  153.12    5.76
   1   4   1  149.77    6.89
   1   4   1  155.61    8.02
   1   4   1  153.76    9.58
   1   4   1  149.02    6.59
   2  -4   1   40.19    5.41
   2  -4   1   25.82    6.16
  -2  -4  -1   40.85    5.98
  -2  -4  -1   33.37    4.63
  -2  -4  -1   32.72    4.79
   2   4   1   36.64    4.54
  -2   4  -1   39.55    3.60
  -2   4  -1   35.11    4.99
   2   4   1   45.30    7.86
   2   4   1   39.87    5.32
  -3  -4  -1   10.12    4.57
  -3  -4  -1    4.88    4.26
   3  -4   1    7.40    2.60
  -3  -4  -1    1.57    4.61
   3  -4   1    7.37    5.75
   3  -4   1    7.85    3.32
   3  -4   1    8.32    5.50
   3   4   1   15.47    7.61
  -3   4  -1    7.66    4.51
   3   4   1    8.33    4.36
  -3   4  -1    9.78    2.86
   3   4   1    9.24    5.19
   3   4   1   12.10    4.27
   4  -4   1   46.04    6.51
   4  -4   1   69.50    9.71
   4  -4   1   53.25    6.75
  -4  -4  -1   62.38    4.46
  -4  -4  -1   57.88    5.96
   4  -4   1   61.59    3.65
  -4  -4  -1   43.29    6.48
   4  -4   1   56.63    8.13
   4   4   1   72.92   11.11
   4   4   1   62.85    5.62
   4   4   1   57.60    7.99
   4   4   1   71.13    5.43
   5  -4   1  134.16   13.12
   5  -4   1  136.38    6.13
  -5  -4  -1  138.92    6.63
   5  -4   1  125.34    7.37
  -5  -4  -1  127.79    8.10
   5  -4   1  128.53    8.15
   5   4   1  117.47    8.80
   5   4   1  122.51    7.28
   5   4   1  121.71    6.67
   5   4   1  131.02    7.73
   5   4   1  134.31    7.28
   5   4   1  122.00    8.38
   5   4   1  161.87   14.76
   6  -4   1   32.30    6.17
   6  -4   1   28.79    6.18
   6  -4   1   36.74    6.04
   6  -4   1   27.32   11.06
  -6  -4  -1   35.47    5.33
  -6  -4  -1   41.40    6.21
   6  -4   1   37.59    7.03
   6  -4   1   44.88    4.46
   6   4   1   27.08    7.63
   6   4   1   32.40    6.98
   6   4   1   27.84    6.06
   6   4   1   34.03    6.12
   6   4   1   34.54    5.56
   6   4   1   39.44    5.55
   6   4   1   33.32    8.06
   6   4   1   60.53   12.57
   6  -5  -1   18.05    5.80
   6  -5  -1    4.84    5.85
   6  -5  -1    1.20    5.96
   6  -5  -1   -5.42    9.71
   6  -5  -1    9.83    6.25
  -6  -5   1    8.61    4.17
   6  -5  -1    4.85    3.54
   6   5  -1   47.20   13.29
   6   5  -1    9.24    4.50
   6   5  -1    8.62    7.21
   6   5  -1    6.73    5.98
   6   5  -1    2.88    5.29
   6   5  -1   19.21    6.36
   6   5  -1    3.85    5.78
   5  -5  -1  140.02    8.59
   5  -5  -1  116.42   14.63
   5  -5  -1  148.93    6.30
   5  -5  -1  153.29   17.36
   5  -5  -1  144.73    8.64
  -5  -5   1  137.46    6.22
   5  -5  -1  146.06    7.71
   5   5  -1  146.72    7.43
   5   5  -1  150.73    8.71
   5   5  -1  135.93    9.10
   5   5  -1  156.79    8.42
   5   5  -1  139.13    6.94
   5   5  -1  144.55   17.73
   4  -5  -1   81.53   10.56
   4  -5  -1   88.87    4.68
   4  -5  -1   88.66   10.92
  -4  -5   1   88.60    4.70
   4   5  -1   83.08    6.94
   4   5  -1   83.89    6.53
   4   5  -1   84.19    5.27
   4   5  -1   90.38   12.14
   4   5  -1   88.75    8.59
   3  -5  -1    8.52    6.15
  -3  -5   1   16.05    4.81
  -3  -5   1   13.89    5.36
  -3  -5   1   14.79    4.14
   3  -5  -1   15.68    7.22
   3  -5  -1   18.84    5.61
  -3   5   1   18.29    3.26
   3   5  -1   20.07    8.71
  -3   5   1   14.44    4.00
   3   5  -1   24.66    4.15
   3   5  -1   13.69    6.61
   2  -5  -1  163.86    9.02
  -2  -5   1  170.96    9.83
   2  -5  -1  153.22   10.41
  -2   5   1  166.20    6.90
   2   5  -1  159.66   11.48
   2   5  -1  159.64   10.83
   2   5  -1  179.17    7.31
  -2   5   1  160.59    6.94
   1  -5  -1   43.34    5.83
   1  -5  -1   50.92    5.38
  -1  -5   1   56.23    7.23
  -1   5   1   46.48    4.16
   1   5  -1   50.78    6.64
  -1   5   1   40.17    4.06
   1   5  -1   50.75    4.41
   1   5  -1   49.72    3.93
   0  -5   1   47.11    5.64
   0  -5  -1   51.48    5.92
   0   5   1   49.15    4.62
   0   5   1   56.31    7.53
   0   5  -1   66.54    9.28
   0   5   1   52.21    4.91
   1  -5   1   11.55    5.32
  -1  -5  -1   13.91    6.90
   1  -5   1   18.02    5.36
   1   5   1   10.91    3.50
   1   5   1    7.17    3.35
   1   5   1    6.25    6.38
  -1   5  -1   16.15    2.41
   2  -5   1   59.52    7.91
   2  -5   1   76.25    8.77
  -2  -5  -1   74.37    7.66
  -2  -5  -1   73.21    5.48
  -2  -5  -1   77.88    5.95
   2   5   1   79.30    6.91
   2   5   1   75.38   11.15
   2   5   1   79.15    9.59
  -2   5  -1   79.00    4.87
  -2   5  -1   79.58    6.34
   2   5   1   85.79    6.34
  -3  -5  -1  224.79   11.53
  -3  -5  -1  213.06   11.19
  -3  -5  -1  212.49    7.74
   3  -5   1  221.25   12.45
   3  -5   1  199.01   15.71
   3   5   1  219.14    9.14
   3   5   1  211.73    9.12
   3   5   1  217.00   15.46
   3   5   1  206.74   13.39
  -4  -5  -1   30.40   10.69
   4  -5   1   18.22    6.05
  -4  -5  -1   24.14    5.25
   4  -5   1   32.52    9.11
   4  -5   1   24.77    3.00
  -4  -5  -1   21.73    3.50
   4   5   1   21.20    4.96
   4   5   1   44.86   14.18
   4   5   1   18.64    5.27
   4   5   1   27.15    6.94
   4   5   1   28.54    7.41
   4   5   1   20.40    4.72
   4   5   1   24.17    4.72
   5  -5   1   26.17    5.80
  -5  -5  -1   26.40    4.14
   5  -5   1   32.18   11.52
   5  -5   1   32.06    5.63
  -5  -5  -1   27.45    6.73
   5  -5   1   28.04    3.53
   5   5   1   37.64    5.53
   5   5   1   27.13    8.55
   5   5   1   15.36    6.81
   5   5   1   22.00   10.73
   5   5   1   26.05    5.75
   5   5   1   23.51    5.49
   5   5   1   23.28    5.12
   6  -5   1   27.26   12.05
   6  -5   1   33.04    6.70
  -6  -5  -1   45.64    8.59
   6  -5   1   34.50    4.79
   6  -5   1   26.74    6.87
   6  -5   1   31.82    7.45
  -6  -5  -1   32.13    8.48
   6   5   1   26.31    7.50
   6   5   1   30.65    9.60
   6   5   1   32.01    6.02
   6   5   1   57.08   13.70
   6   5   1   39.83    7.23
   6   5   1   33.01    8.47
   6   5   1   32.84    8.09
   6   5   1   40.42    6.63
   6  -6  -1   58.57    7.09
   6  -6  -1   58.53   12.88
   6  -6  -1   63.71    4.90
   6  -6  -1   45.14    7.91
   6  -6  -1   70.81    8.75
  -6  -6   1   57.46    5.00
   6  -6  -1   73.37    9.97
   6   6  -1   69.15   16.40
   6   6  -1   53.57    7.54
   6   6  -1   47.38    8.51
   6   6  -1   51.56    6.92
   6   6  -1   63.14    9.21
   6   6  -1   47.65    6.87
   5  -6  -1    8.68    5.50
   5  -6  -1    0.81    6.94
  -5  -6   1    6.23    3.64
   5  -6  -1   14.73    9.52
   5  -6  -1   -6.46    6.38
   5  -6  -1    3.15    3.23
   5   6  -1    3.90    5.49
   5   6  -1   -1.87    7.14
   5   6  -1    6.66    5.78
   5   6  -1    4.15    6.53
   5   6  -1    4.25   11.90
   5   6  -1   -2.57    5.54
  -4  -6   1   61.85    4.29
   4  -6  -1   61.31    4.36
   4  -6  -1   57.43    6.45
   4   6  -1   64.55    7.32
   4   6  -1   56.98    5.08
   4   6  -1   61.36   13.87
   4   6  -1   60.74    6.18
   4   6  -1   47.04    6.92
   4   6  -1   52.32    6.15
   3  -6  -1  141.68   12.20
  -3  -6   1  143.74    5.84
   3   6  -1  144.59    6.77
   3   6  -1  139.52    7.83
   3   6  -1  142.90    7.77
   3   6  -1  142.44    7.36
   3   6  -1  147.66   15.41
   2  -6  -1   31.37    5.45
   2  -6  -1   28.21    7.84
  -2  -6   1   31.71    6.35
   2   6  -1   33.50    4.11
  -2   6   1   17.10    3.61
   2   6  -1   18.36    7.66
  -1  -6   1   -1.47    5.08
   1  -6  -1    4.47    5.62
   1   6  -1    5.54    2.89
   1   6  -1    7.05    7.30
   0  -6   1   79.31    9.56
   0  -6  -1   96.48    7.99
   0  -6   1   84.98    9.15
   0   6   1  109.67   10.98
   0   6   1   96.72    6.26
   0   6   1   75.91    6.12
   1  -6   1  109.95   10.08
  -1  -6  -1   95.40    8.76
   1  -6   1   85.68    9.64
   1   6   1   96.54   11.44
   2  -6   1   39.47    8.09
   2  -6   1   45.69    8.08
  -2  -6  -1   42.28    6.23
  -2  -6  -1   47.57    3.46
   2   6   1   46.27    5.23
   2   6   1   28.05    8.01
   2   6   1   41.91    5.69
  -2   6  -1   52.71    5.58
   3  -6   1   21.75    8.91
   3  -6   1   19.03    2.58
  -3  -6  -1   21.77    6.54
   3  -6   1   -0.13    9.67
  -3  -6  -1   19.18    3.12
   3   6   1   20.71    5.31
   3   6   1    3.02   10.81
   3   6   1   24.20    6.43
   3   6   1   26.17    4.86
   3   6   1   23.48    5.09
   3   6   1   24.49    5.34
   3   6   1   28.28    9.22
  -4  -6  -1   52.27    4.47
  -4  -6  -1   47.27    6.36
   4  -6   1   46.29    3.90
   4  -6   1   71.12   11.77
   4  -6   1   62.34    6.94
   4  -6   1   49.81    6.01
   4   6   1   48.25    5.74
   4   6   1   52.82    6.21
   4   6   1   54.54    6.23
   4   6   1   44.50    7.68
   4   6   1   42.28    7.28
   4   6   1   52.25    6.55
   4   6   1   79.03   13.80
   5  -6   1   46.71   12.04
   5  -6   1   35.00    6.95
  -5  -6  -1   54.73    7.97
  -5  -6  -1   71.78   10.09
   5  -6   1   57.06    7.55
   5  -6   1   41.48    4.08
   5   6   1   50.71    6.18
   5   6   1   47.36    9.39
   5   6   1   43.45    9.57
   5   6   1   44.17    7.95
   5   6   1   55.59   14.37
   5   6   1   46.53    7.22
   5   6   1   46.13    6.24
   4  -7  -1   50.23    4.33
   4  -7  -1   71.84   11.54
   4  -7  -1   35.76    6.70
   4  -7  -1   42.59    7.36
  -4  -7   1   41.36    4.10
   4   7  -1   42.65    7.56
   4   7  -1   24.63   16.22
   4   7  -1   34.42    6.46
   4   7  -1   51.52    6.37
   4   7  -1   48.66    7.18
  -3  -7   1   11.15    3.05
   3  -7  -1   28.22   14.31
   3  -7  -1    7.49    2.79
   3   7  -1   15.18    5.37
   3   7  -1   13.43    5.48
   3   7  -1   11.40    6.20
   3   7  -1    6.55    7.13
   2  -7  -1   71.02   10.67
  -2  -7   1   51.98    3.79
   2   7  -1   54.42    6.35
   2   7  -1   65.25    5.84
   1  -7  -1   91.55    8.99
   1  -7  -1   89.55   11.58
  -1  -7   1   94.76   13.44
   1   7  -1   82.40    6.82
   0  -7   1   34.54    7.42
   0  -7  -1   45.74    7.27
  -1  -7  -1   35.99    3.15
   1  -7   1   32.90    8.22
   1   7   1   40.80    6.94
   1   7   1   34.80    5.62
  -2  -7  -1   32.44    3.23
   2   7   1   46.88    8.10
   2   7   1   34.86    5.82
   2   7   1   39.13    6.24
   2   7   1   43.57    7.43
   2   7   1   36.97    6.96
   3  -7   1   92.76    4.49
  -3  -7  -1   93.16    7.83
  -3  -7  -1   98.72    5.26
   3   7   1  101.94    6.96
   3   7   1   74.17    8.68
   3   7   1   85.16    7.88
   3   7   1   97.34    7.61
   3   7   1   95.06    8.70
   3   7   1   87.68    7.12
  -4  -7  -1   13.04    8.41
  -4  -7  -1   14.25    4.42
   4  -7   1   18.87    7.07
   4  -7   1   14.56    3.21
   4  -7   1   10.31    7.06
   4   7   1    2.29    5.52
   4   7   1   17.27    6.09
   4   7   1   33.36   14.22
   4   7   1   15.77    6.60
   4   7   1   10.08    7.49
   4   7   1   15.85    5.71
   4   7   1   25.40   10.45
  -3  -8   1   30.80    3.88
   3  -8  -1   23.64    3.31
   3  -8  -1   36.78   11.64
   3   8  -1   30.98    6.98
   3   8  -1   24.79    7.34
   3   8  -1   31.97    7.57
   2  -8  -1   44.73   11.22
  -2  -8   1   27.90    3.35
   2   8  -1   29.03    7.00
   2   8  -1   21.94    7.29
   2   8  -1   19.62    6.62
   1  -8  -1    7.29    8.79
   1  -8  -1   -1.91   10.65
  -1  -8   1    3.54    2.31
   1   8  -1    5.54    6.31
   0  -8  -1   76.29    9.25
   0  -8  -1   65.83    4.93
   0   8   1   57.22    7.30
  -1  -8  -1   67.11    8.59
  -1  -8  -1   66.25    3.96
   1   8   1   58.88    7.42
   1   8   1   43.25    8.28
   1   8   1   62.33    8.12
  -2  -8  -1   13.78    3.24
   2   8   1    7.56    6.77
   2   8   1   20.74    9.36
   2   8   1   14.70    7.08
   8   0  -2    8.10    6.59
   8   0  -2    4.96    6.45
   8   0  -2   10.37    6.65
   8   0  -2    4.60    5.64
   8   0  -2    7.13    6.75
   8   0  -2   -5.28    6.81
   8   0  -2  -17.31   10.86
   8   0  -2    2.80    6.03
   8   0  -2   17.43    6.15
   7   0  -2   87.22    6.96
   7   0  -2   88.03    7.50
  -7   0   2  109.41   13.95
   7   0  -2   84.37    6.90
   7   0  -2   74.65    6.08
   7   0  -2   87.34    6.76
   7   0  -2  106.92   12.84
  -7   0   2   97.17   14.31
   7   0  -2  100.86    8.05
   7   0  -2   88.67    7.71
  -6   0   2  213.31   13.23
   6   0  -2  208.78    9.59
  -6   0   2  225.94   13.28
   6   0  -2  237.26   13.04
   6   0  -2  222.39   13.05
   6   0  -2  219.22   13.11
   6   0  -2  203.27    9.19
  -6   0   2  218.97   12.67
  -5   0   2    4.13    4.39
   5   0  -2    1.41    4.06
   5   0  -2    1.23    3.92
   5   0  -2    3.37    4.36
  -5   0   2   -3.33    4.86
   5   0  -2    3.23    6.43
   5   0  -2    4.25    4.90
  -5   0   2    3.14    4.89
   4   0  -2    2.31    4.51
  -4   0   2    3.88    3.63
   4   0  -2    2.19    3.14
   4   0  -2   -0.55    3.48
  -4   0   2    6.48    3.32
  -4   0   2    0.68    3.60
   3   0  -2  132.64    6.47
   3   0  -2  126.91    6.54
  -3   0   2  132.45    6.36
   3   0  -2  128.82    6.11
  -3   0   2  130.20    6.31
  -3   0   2  133.14    6.17
   3   0  -2  134.11    6.52
   2   0  -2  320.33   10.82
  -2   0   2  315.18   10.78
   2   0  -2  322.50   11.18
   2   0  -2  322.28   11.05
  -2   0   2  325.00   11.10
  -2   0   2  304.71   10.91
   2   0  -2  327.80   11.05
   1   0  -2  825.30   24.34
  -1   0   2  821.79   24.58
  -1   0   2  778.48   24.57
   1   0  -2  814.18   24.62
  -1   0   2  775.79   24.26
   1   0  -2  786.06   24.48
   0   0   2  377.11   12.16
   0   0   2  360.98   11.91
   0   0  -2  359.07   12.02
   0   0  -2  358.15   12.25
   0   0   2  351.24   12.24
   1   0   2  508.88   16.98
  -1   0  -2  516.87   16.81
   1   0   2  518.07   17.10
  -1   0  -2  522.09   17.10
   1   0   2  548.72   17.15
   1   0   2  521.70   16.82
   2   0   2  201.05    8.08
   2   0   2  196.10    8.80
  -2   0  -2  198.01    8.64
  -2   0  -2  193.45    7.98
   2   0   2  193.11    8.68
   2   0   2  200.67    8.88
  -3   0  -2   28.25    4.03
   3   0   2   28.14    4.27
   3   0   2   34.92    5.84
   3   0   2   35.77    4.76
   3   0   2   37.22    4.97
  -3   0  -2   29.72    4.97
  -4   0  -2    4.95    4.71
   4   0   2   11.08    6.13
   4   0   2    2.69    4.64
  -4   0  -2    8.89    5.94
   4   0   2    4.28    6.66
  -4   0  -2    9.43    4.90
   4   0   2    4.23    4.67
  -4   0  -2    9.71    4.47
  -5   0  -2   89.11    9.43
   5   0   2   70.37    9.56
   5   0   2   72.70    6.48
  -5   0  -2   62.88    7.26
   5   0   2   66.57    7.90
   5   0   2   59.54    8.80
   5   0   2   64.40    6.08
  -5   0  -2   60.82    8.77
   6   0   2   81.66    7.02
  -6   0  -2   61.23    7.40
   6   0   2   64.86    6.96
   6   0   2   67.03    7.12
   6   0   2   70.15    5.92
   6   0   2   81.72    7.16
  -6   0  -2   83.11   12.09
   6   0   2   76.01    6.98
   6   0   2   84.97   13.01
   7   0   2   14.62    6.86
   7   0   2   17.00    6.75
   7   0   2    8.80    6.61
   7   0   2    7.90    8.64
  -7   0  -2    5.88    7.59
   7   0   2   15.27   10.80
   7   0   2    9.24    6.70
   8  -1  -2   50.90    6.87
   8  -1  -2   34.46   12.27
   8  -1  -2   38.22    6.91
   8  -1  -2   57.70    7.94
   8  -1  -2   40.78    7.06
   8  -1  -2   38.56    5.55
   8  -1  -2   44.42    6.94
   8  -1  -2   54.03    7.14
   8   1  -2   46.71    6.60
   8   1  -2   43.87    7.42
   8   1  -2   46.19    6.95
   8   1  -2   27.99    7.62
   8   1  -2   45.13    7.33
   8   1  -2   34.07    6.07
   8   1  -2   49.69   13.16
   8   1  -2   41.07    7.38
   7  -1  -2    3.42    6.25
   7  -1  -2   10.14    9.83
   7  -1  -2   13.44    5.34
   7  -1  -2   15.41    5.76
   7  -1  -2    8.55    5.61
   7  -1  -2   16.15    5.09
   7  -1  -2   13.67    6.03
   7  -1  -2   10.01    5.04
   7   1  -2    9.68    6.04
   7   1  -2    6.10    5.79
   7   1  -2    6.15    9.67
   7   1  -2    9.86    6.16
   7   1  -2    9.43    5.51
   7   1  -2   13.25    5.34
   7   1  -2   20.09    8.85
   6  -1  -2   14.74    4.89
   6  -1  -2    7.86    8.00
  -6  -1   2   15.43    6.64
  -6  -1   2    5.32    7.08
   6  -1  -2   10.27    4.56
   6  -1  -2    6.50    4.56
   6  -1  -2    8.63    6.88
   6  -1  -2    7.45    6.42
  -6   1   2   16.96    6.25
   6   1  -2    2.66    5.35
   6   1  -2    7.11    4.86
  -6   1   2    4.67    6.74
   6   1  -2   11.24    6.20
  -6   1   2   18.82    6.82
   6   1  -2   12.65    5.19
   6   1  -2    2.50    7.56
   5  -1  -2  121.37    8.88
  -5  -1   2  111.04    9.51
   5  -1  -2  122.68    9.26
   5  -1  -2  125.04   10.54
  -5  -1   2  132.32    9.33
   5  -1  -2  126.23    7.05
  -5  -1   2  128.88    9.03
  -5   1   2  120.83    8.64
   5   1  -2  116.20    6.96
  -5   1   2  104.67    9.29
   5   1  -2  121.14    8.51
  -5   1   2  112.13    9.53
   5   1  -2  116.72    8.26
   5   1  -2  129.32    8.74
   5   1  -2  117.33   10.47
   4  -1  -2  194.95    9.26
  -4  -1   2  196.96    9.20
   4  -1  -2  197.98    9.74
  -4  -1   2  194.33    9.42
  -4  -1   2  193.58    9.15
   4  -1  -2  198.54    9.45
  -4   1   2  197.88    9.74
   4   1  -2  197.49    9.21
   4   1  -2  182.60    7.68
  -4   1   2  187.48    9.06
  -4   1   2  196.78    8.66
   4   1  -2  199.64    8.99
   4   1  -2  196.69   10.21
  -3  -1   2   50.35    4.85
  -3  -1   2   49.48    4.58
   3  -1  -2   54.58    4.59
   3  -1  -2   49.67    4.44
   3  -1  -2   39.31    7.51
   3  -1  -2   49.73    4.71
  -3  -1   2   44.46    4.24
  -3   1   2   50.03    4.49
   3   1  -2   52.21    4.52
   3   1  -2   40.20    5.04
   3   1  -2   53.58    5.12
  -3   1   2   55.35    4.71
  -3   1   2   45.66    4.70
   3   1  -2   43.56    5.54
   2  -1  -2  190.66    7.40
   2  -1  -2  196.25    7.36
  -2  -1   2  187.43    7.60
   2  -1  -2  191.37    8.09
   2  -1  -2  185.54    6.75
  -2  -1   2  188.92    7.56
  -2  -1   2  183.93    7.27
  -2   1   2  191.91    7.48
   2   1  -2  183.23    7.36
  -2   1   2  191.71    6.84
   2   1  -2  189.78    7.72
  -2   1   2  200.20    7.62
   2   1  -2  193.81    7.46
   2   1  -2  192.73    7.68
  -1  -1   2  106.39    5.38
  -1  -1   2  112.45    5.64
   1  -1  -2  112.41    5.31
   1  -1  -2  121.81    5.23
   1  -1  -2  109.38    4.14
  -1  -1   2  112.01    4.92
   1   1  -2  112.70    5.11
   1   1  -2  115.44    5.51
  -1   1   2  106.83    5.30
  -1   1   2  106.47    5.36
   1   1  -2   94.89    4.26
   1   1  -2  106.53    5.71
  -1   1   2  100.61    4.03
   0  -1   2  258.55    9.53
   0  -1   2  247.01    8.52
   0  -1  -2  269.16    9.29
   0  -1   2  269.06    9.94
   0  -1   2  291.39    9.43
   0  -1  -2  270.30    9.73
   0   1  -2  252.80    9.53
   0   1  -2  258.22    9.28
   0   1   2  272.55    8.81
   0   1   2  267.58    9.54
   0   1   2  249.11    9.58
   0   1   2  254.57    9.83
   1  -1   2  124.10    5.62
  -1  -1  -2  124.00    6.17
   1  -1   2  122.69    5.93
   1  -1   2  121.49    6.02
  -1  -1  -2  116.79    5.66
   1   1   2  129.85    5.77
   1   1   2  119.87    6.15
   1   1   2  121.57    5.89
  -1   1  -2  122.98    6.17
  -1   1  -2  123.16    5.74
   1   1   2  125.89    6.60
   2  -1   2   66.41    4.84
  -2  -1  -2   67.69    5.14
  -2  -1  -2   68.70    5.73
  -2  -1  -2   70.44    5.13
   2  -1   2   76.40    6.19
   2  -1   2   62.63    5.72
   2  -1   2   74.18    6.27
  -2   1  -2   70.58    5.58
   2   1   2   79.71    6.27
   2   1   2   76.21    5.30
   2   1   2   73.67    6.07
   2   1   2   66.09    5.39
   3  -1   2  179.19   10.34
  -3  -1  -2  195.33    9.64
  -3  -1  -2  163.19    8.80
   3  -1   2  181.81    8.44
   3  -1   2  190.46    9.31
   3  -1   2  174.78    9.86
  -3  -1  -2  183.55    7.93
  -3  -1  -2  183.06    8.77
  -3   1  -2  190.41    9.42
   3   1   2  187.09    9.58
  -3   1  -2  181.93    8.16
   3   1   2  171.66    9.47
   3   1   2  174.50    9.17
   3   1   2  183.21   10.43
  -4  -1  -2   56.52    6.15
  -4  -1  -2   67.86    8.26
   4  -1   2   52.94    7.94
   4  -1   2   56.98    8.05
   4  -1   2   62.81    6.73
  -4  -1  -2   72.94    9.40
   4  -1   2   64.32    7.24
  -4   1  -2   54.12    7.17
   4   1   2   72.34    9.93
   4   1   2   42.62    5.85
   4   1   2   72.02   10.11
  -4   1  -2   61.02    8.77
   4   1   2   58.74    8.39
  -5  -1  -2   10.02    5.60
   5  -1   2   10.37    4.75
   5  -1   2    8.84    5.02
   5  -1   2   -8.11    7.97
  -5  -1  -2    6.75    7.70
  -5  -1  -2   -1.13    6.42
   5  -1   2    6.11    4.22
   5   1   2   14.34    7.73
   5   1   2    8.41    5.05
   5   1   2    3.13    4.43
   5   1   2    4.77    6.40
  -5   1  -2   16.63    5.94
  -5   1  -2   10.95    7.85
   5   1   2    3.02    7.57
   6  -1   2   -3.37    9.63
   6  -1   2    0.74    6.63
   6  -1   2    6.03    4.54
  -6  -1  -2    0.35    6.61
   6  -1   2   -3.23    5.33
   6  -1   2  -10.84    5.37
   6  -1   2    3.91    5.39
  -6  -1  -2   -9.67    5.88
   6  -1   2    0.66    5.86
   6   1   2    8.30    5.71
   6   1   2    0.40    9.18
   6   1   2    1.49    5.77
   6   1   2   -3.09    5.00
   6   1   2    0.38    6.32
   6   1   2    0.17    7.01
   7  -1   2   24.51    7.44
  -7  -1  -2   25.08    8.04
   7  -1   2   15.63    5.42
   7  -1   2   20.84    6.92
   7  -1   2    6.84   11.08
   7  -1   2   23.55    9.95
   7  -1   2   22.60    7.76
   7  -1   2   19.51    7.54
   7   1   2    9.09    6.90
   7   1   2   24.82    7.69
   7   1   2   23.34    6.67
   7   1   2   21.85    6.75
   7   1   2    9.35    7.03
   7   1   2   22.17   11.81
   8  -2  -2    4.33    4.74
  -8  -2   2    3.30    6.18
  -8  -2   2   -0.86    5.62
   8  -2  -2   21.38    6.55
   8  -2  -2   -6.82    6.16
   8  -2  -2   17.46    7.21
   8  -2  -2   -4.49   10.52
   8  -2  -2   10.91    6.61
   8   2  -2    0.66    5.68
   8   2  -2   -1.10    6.05
   8   2  -2    6.37    7.66
   8   2  -2    1.62    8.65
   8   2  -2    4.87    6.18
   8   2  -2   -2.64    5.66
   8   2  -2   -0.92    7.20
   8   2  -2    2.91    8.51
   8   2  -2    2.34   11.87
   7  -2  -2   52.59    7.29
   7  -2  -2   59.00    6.68
  -7  -2   2   68.90    5.85
   7  -2  -2   58.71    6.12
   7  -2  -2   49.96    6.92
   7  -2  -2   66.65    5.42
   7  -2  -2   55.48    6.34
   7  -2  -2   52.87   10.76
   7  -2  -2   51.72    6.65
   7   2  -2   68.17   12.34
   7   2  -2   56.29    5.83
   7   2  -2   56.15    6.20
   7   2  -2   44.79    6.42
   7   2  -2   56.82    6.02
   7   2  -2   40.67    6.91
   7   2  -2   45.55    9.09
   7   2  -2   52.50    4.85
   7   2  -2   50.09    7.39
   6  -2  -2  135.92    7.25
   6  -2  -2  139.71   12.12
   6  -2  -2  125.10   11.34
   6  -2  -2  137.57    6.40
   6  -2  -2  128.23    7.21
  -6  -2   2  138.68   12.62
   6   2  -2  134.53   10.52
   6   2  -2  135.99    7.45
   6   2  -2  138.64    8.35
   6   2  -2  118.03   13.42
   6   2  -2  127.66    7.51
   6   2  -2  138.82   10.79
  -6   2   2  106.61   12.94
   5  -2  -2   56.07    8.15
  -5  -2   2   63.35    7.07
  -5  -2   2   62.84    8.05
   5  -2  -2   77.09    8.43
  -5  -2   2   58.74    7.02
   5  -2  -2   57.82    8.16
   5  -2  -2   60.43    5.47
   5   2  -2   64.94    8.41
   5   2  -2   64.22    6.51
   5   2  -2   71.09    9.42
   5   2  -2   60.16    7.39
  -5   2   2   72.45    6.62
  -5   2   2   62.47    8.32
  -5   2   2   65.34    7.31
  -4  -2   2   37.03    5.19
   4  -2  -2   44.33    4.36
   4  -2  -2   41.55    4.77
   4  -2  -2   41.37    5.83
  -4  -2   2   47.45    5.29
   4  -2  -2   35.54    6.14
  -4  -2   2   40.39    4.96
  -4   2   2   41.25    5.34
  -4   2   2   29.28    4.63
   4   2  -2   40.16    4.41
   4   2  -2   37.17    5.22
  -4   2   2   36.00    4.88
   4   2  -2   44.87    5.49
   4   2  -2   42.56    7.15
   4   2  -2   33.14    4.91
  -3  -2   2   91.72    6.31
   3  -2  -2   97.34    7.00
   3  -2  -2   92.22    5.66
  -3  -2   2   98.83    6.35
   3  -2  -2  100.25    5.39
  -3  -2   2   95.75    5.56
  -3   2   2   99.29    5.58
   3   2  -2   96.73    7.04
   3   2  -2   85.95    5.00
  -3   2   2   91.88    5.79
   3   2  -2   96.84    5.64
  -3   2   2   95.61    6.10
   3   2  -2   95.68    6.26
   3   2  -2   94.71    6.64
   2  -2  -2  226.68    7.58
   2  -2  -2  228.85    8.17
  -2  -2   2  230.83    9.22
  -2  -2   2  226.99    8.76
  -2  -2   2  218.49    8.39
   2  -2  -2  216.85    9.45
  -2   2   2  229.02    7.80
   2   2  -2  234.41    8.79
   2   2  -2  229.17    9.39
   2   2  -2  235.61    8.55
  -2   2   2  246.59    8.74
   2   2  -2  226.49    8.95
  -1  -2   2  145.17    6.43
  -1  -2   2  150.93    5.86
  -1  -2   2  157.39    7.03
   1  -2  -2  142.29    6.46
   1  -2  -2  153.91    6.08
   1   2  -2  153.81    7.15
   1   2  -2  153.85    6.13
  -1   2   2  154.20    6.28
   0  -2  -2   47.50    4.11
   0  -2  -2   40.77    4.19
   0  -2   2   31.48    4.87
   0  -2   2   43.58    3.27
   0  -2   2   37.47    3.77
   0   2  -2   42.52    3.58
   0   2   2   36.41    3.73
   0   2   2   37.48    3.91
   0   2   2   44.00    2.73
  -1  -2  -2  147.74    6.57
  -1  -2  -2  149.45    6.38
  -1  -2  -2  141.43    6.88
   1  -2   2  156.98    6.61
   1  -2   2  138.00    6.24
   1  -2   2  144.49    6.37
   1   2   2  155.46    7.20
   1   2   2  149.68    6.75
  -1   2  -2  152.00    6.99
   1   2   2  154.25    8.36
   1   2   2  152.24    6.48
  -2  -2  -2  223.36    9.28
  -2  -2  -2  214.81    9.59
   2  -2   2  233.39    9.24
  -2  -2  -2  209.61    8.63
   2  -2   2  235.18    9.29
   2  -2   2  215.11    9.55
  -2  -2  -2  230.32    9.62
   2   2   2  235.02    9.66
   2   2   2  229.18    9.86
  -2   2  -2  224.03    9.54
  -2   2  -2  241.79    9.06
   2   2   2  237.19    9.61
   2   2   2  238.48   10.88
  -3  -2  -2   68.80    5.58
   3  -2   2   53.43    5.91
  -3  -2  -2   58.15    6.98
   3  -2   2   74.74    8.11
  -3  -2  -2   68.41    7.15
   3  -2   2   72.48    8.34
   3  -2   2   67.52    6.83
  -3  -2  -2   65.80    7.19
  -3   2  -2   76.07    5.46
   3   2   2   80.45    9.11
   3   2   2   60.21    7.48
   3   2   2   62.81    7.60
  -3   2  -2   70.31    7.59
   3   2   2   76.00    7.45
  -4  -2  -2   24.26    5.51
  -4  -2  -2   35.60    6.34
   4  -2   2   42.74    7.85
   4  -2   2   35.55    5.12
   4  -2   2   24.69    6.15
  -4  -2  -2   33.40    5.48
   4  -2   2   28.48    6.09
  -4  -2  -2   37.32    6.71
   4   2   2   46.68    7.83
   4   2   2   31.86    6.31
   4   2   2   34.65    6.20
   4   2   2   63.66    9.16
  -4   2  -2   49.04    5.81
  -4   2  -2   39.42    6.95
  -5  -2  -2  108.85    7.55
   5  -2   2  110.34   13.34
   5  -2   2  113.46    7.13
  -5  -2  -2   73.61   11.96
   5  -2   2  115.10    5.82
  -5  -2  -2  117.85    8.42
   5  -2   2  112.37    6.78
   5  -2   2  104.71    7.14
   5   2   2  109.25    7.64
   5   2   2  120.82   13.31
   5   2   2  101.69   11.11
   5   2   2  120.07    7.78
   5   2   2  107.66    6.74
   6  -2   2   52.72    6.58
  -6  -2  -2   54.49    7.93
   6  -2   2   60.64    5.42
   6  -2   2   60.22    6.34
  -6  -2  -2   47.91    7.15
   6  -2   2   50.06    6.30
  -6  -2  -2   62.93    7.83
   6  -2   2   67.21   11.80
   6  -2   2   60.83    7.24
  -6  -2  -2   42.73    5.90
   6  -2   2   47.05    6.58
   6   2   2   52.03    7.16
   6   2   2   55.56    7.47
   6   2   2   54.03    6.04
   6   2   2   55.82    7.23
   6   2   2   61.12    6.10
   6   2   2   58.81   11.33
   6   2   2   55.04    6.23
   6   2   2   55.33    7.38
   7  -2   2    9.97    7.73
   7  -2   2    7.79    6.71
  -7  -2  -2    4.22    7.18
  -7  -2  -2    8.21    8.00
   7  -2   2    2.00    6.02
   7  -2   2    8.16   12.28
   7  -2   2    6.26    7.03
   7  -2   2    6.43    4.77
   7  -2   2    9.06    6.66
   7   2   2   -2.16    7.01
   7   2   2    0.50    7.92
   7   2   2    7.86    7.07
   7   2   2    2.50    8.28
   7   2   2   -6.06    5.82
   7   2   2   11.06    5.71
   7   2   2   10.99   10.67
   7   2   2    1.53    7.08
   7  -3  -2   36.98    6.41
   7  -3  -2   21.92    9.78
   7  -3  -2   21.72    5.68
   7  -3  -2   30.65    6.37
  -7  -3   2   33.22    5.20
   7  -3  -2   27.55    5.96
   7  -3  -2   29.67    4.18
   7  -3  -2   29.30    5.86
   7   3  -2   27.71    7.33
   7   3  -2   29.15    4.65
   7   3  -2   39.23    8.00
   7   3  -2   34.77    5.98
   7   3  -2   19.48    6.23
   7   3  -2   41.44   12.35
   7   3  -2   23.24    5.32
   7   3  -2   29.26    6.32
   6  -3  -2   80.93   11.09
   6  -3  -2   87.84    6.09
   6  -3  -2   87.03    6.31
   6  -3  -2   88.60   11.31
   6  -3  -2   83.08    4.80
   6  -3  -2   85.89    6.89
   6  -3  -2   90.22    6.70
  -6  -3   2   89.47    5.91
   6   3  -2   86.37    7.03
   6   3  -2   77.25   12.49
   6   3  -2   88.25    5.41
   6   3  -2   81.45    7.21
   6   3  -2   87.97    6.50
   6   3  -2   73.73    6.54
   6   3  -2   90.92    6.00
   5  -3  -2  121.99    5.60
  -5  -3   2  117.29   10.57
  -5  -3   2  132.93   11.65
   5  -3  -2  117.99    9.72
  -5  -3   2  100.98    8.33
   5  -3  -2  124.57    6.80
   5  -3  -2  115.45   10.82
   5   3  -2  109.38    8.54
  -5   3   2  116.98   11.07
   5   3  -2  109.17    7.18
   5   3  -2  112.61   13.87
  -5   3   2  110.75   10.02
   5   3  -2  109.80    6.61
   5   3  -2  103.74    9.15
  -4  -3   2  434.98   15.80
   4  -3  -2  431.83   14.64
   4  -3  -2  415.89   15.47
  -4  -3   2  427.24   16.64
   4  -3  -2  450.32   17.72
  -4  -3   2  442.76   16.34
   4  -3  -2  449.16   15.69
   4   3  -2  451.47   15.38
   4   3  -2  444.99   18.34
   4   3  -2  440.98   15.71
  -4   3   2  428.89   15.86
  -4   3   2  440.85   15.54
   4   3  -2  433.79   17.27
  -3  -3   2   70.14    6.40
   3  -3  -2   71.47    7.53
  -3  -3   2   69.22    6.28
   3  -3  -2   72.99    4.05
  -3  -3   2   79.55    5.41
   3  -3  -2   58.14    5.02
   3  -3  -2   66.96    5.67
   3   3  -2   59.45    6.41
  -3   3   2   72.87    5.41
   3   3  -2   63.97    5.16
   3   3  -2   77.66    7.18
   3   3  -2   67.03    5.72
   3   3  -2   63.75    8.16
  -2  -3   2  201.60    9.01
   2  -3  -2  207.24    9.69
   2  -3  -2  210.79    8.12
   2  -3  -2  193.44    6.84
  -2  -3   2  201.91    8.29
  -2  -3   2  206.65    7.65
   2   3  -2  190.64    9.22
   2   3  -2  184.27    8.95
   2   3  -2  205.00    7.99
   2   3  -2  211.90    7.96
  -2   3   2  210.54    8.00
  -2   3   2  201.90    8.08
   1  -3  -2   29.18    3.51
  -1  -3   2   31.21    3.25
  -1  -3   2   31.49    3.96
  -1   3   2   31.56    3.64
   1   3  -2   34.99    4.10
   1   3  -2   37.11    5.28
  -1   3   2   38.51    4.33
   1   3  -2   30.91    3.26
   0  -3  -2  157.54    6.85
   0  -3  -2  155.82    6.41
   0  -3   2  146.57    7.71
   0  -3  -2  148.24    6.07
   0  -3   2  147.42    5.69
   0  -3  -2  153.08    5.60
   0  -3   2  150.55    5.33
   0   3  -2  154.66    6.08
   0   3   2  150.95    5.86
   0   3   2  152.58    6.90
   0   3  -2  142.43    6.64
   0   3  -2  153.15    8.11
   1  -3   2  256.67    8.79
   1  -3   2  222.40    8.95
   1  -3   2  267.99    8.73
  -1  -3  -2  254.61    9.25
  -1  -3  -2  225.89    9.29
  -1  -3  -2  240.34    9.70
  -1  -3  -2  259.98    9.27
   1  -3   2  245.35   10.89
  -1   3  -2  247.51    9.06
  -1   3  -2  254.64    9.67
   1   3   2  258.51   10.25
   1   3   2  254.56   11.64
   1   3   2  259.45    9.60
   1   3   2  232.80    9.47
  -2  -3  -2    0.95    3.87
  -2  -3  -2    1.70    3.85
   2  -3   2    4.56    4.18
  -2  -3  -2    6.11    3.71
   2  -3   2    5.54    3.05
  -2  -3  -2    5.55    3.65
   2  -3   2   -0.87    3.03
   2   3   2   -2.21    3.68
   2   3   2    2.62    3.66
   2   3   2    5.98    5.53
   2   3   2   -0.84    4.67
  -2   3  -2    0.59    2.90
   3  -3   2  438.03   17.58
  -3  -3  -2  424.64   16.55
   3  -3   2  432.47   16.85
  -3  -3  -2  466.90   15.79
  -3  -3  -2  446.12   16.50
  -3  -3  -2  432.54   16.56
   3  -3   2  441.59   15.61
   3  -3   2  442.27   15.91
  -3   3  -2  424.70   15.37
  -3   3  -2  435.63   16.61
   3   3   2  447.83   16.80
   3   3   2  442.77   18.63
   3   3   2  437.39   17.31
   3   3   2  423.50   16.26
   4  -3   2  108.37    6.41
   4  -3   2  105.48    5.10
  -4  -3  -2   90.06   10.26
  -4  -3  -2   98.62    7.23
  -4  -3  -2   99.73   10.32
   4  -3   2  107.99   11.37
  -4  -3  -2   79.40   11.70
  -4  -3  -2  118.50    8.17
   4   3   2   89.60   11.34
   4   3   2  125.93   10.74
   4   3   2   98.49   11.70
   4   3   2  107.55   13.51
   4   3   2   95.14    8.48
   4   3   2   89.17    6.27
  -5  -3  -2   18.33    5.95
  -5  -3  -2   11.29    6.05
   5  -3   2   13.95    5.27
   5  -3   2   15.46    4.75
   5  -3   2   16.73    9.33
  -5  -3  -2   15.33    4.56
  -5  -3  -2   17.96    6.05
   5  -3   2   11.62    3.50
   5  -3   2   19.84    5.21
   5   3   2   22.23    5.05
   5   3   2   21.15    4.70
   5   3   2   20.16    6.32
   5   3   2   10.89    6.41
   5   3   2   23.58    5.88
   5   3   2   32.97    9.75
   5   3   2   19.03    5.10
   6  -3   2   -0.04    5.72
  -6  -3  -2   12.94    7.54
   6  -3   2   17.44    5.51
   6  -3   2    4.79    4.03
   6  -3   2    3.28   10.63
  -6  -3  -2   10.24    6.65
   6  -3   2   -2.25    5.88
   6  -3   2    5.62    7.45
  -6  -3  -2    5.88    5.48
  -6  -3  -2   -0.29    6.14
   6   3   2   12.59    6.37
   6   3   2   23.03   11.03
   6   3   2    5.99    6.65
   6   3   2   13.65    5.72
   6   3   2    3.32    5.68
   6   3   2   11.77    7.06
   6   3   2    0.77   11.25
   6   3   2   10.22    5.37
   6   3   2    8.40    5.34
   7  -4  -2   23.46   11.43
   7  -4  -2   38.36    6.09
   7  -4  -2   27.32    6.30
   7  -4  -2   32.08    4.36
   7  -4  -2   29.13    6.74
   7  -4  -2   20.11    6.07
  -7  -4   2   28.01    4.87
   7  -4  -2   22.82    7.37
   7   4  -2   31.84   13.55
   7   4  -2   29.15    6.50
   7   4  -2   34.61    5.72
   7   4  -2   23.88    4.89
   7   4  -2   26.47    9.00
   7   4  -2   16.72    6.26
   7   4  -2   28.37    6.87
  -6  -4   2   68.88    5.12
   6  -4  -2   75.39    6.56
   6  -4  -2   81.53    5.16
   6  -4  -2   82.87    6.30
   6  -4  -2   52.20    9.36
   6  -4  -2   75.15    6.39
   6  -4  -2   81.66    6.95
   6   4  -2   59.49    8.93
   6   4  -2   71.34    6.25
   6   4  -2   87.30    7.98
   6   4  -2   76.61    5.29
   6   4  -2   72.20    7.12
   6   4  -2   88.52    6.94
   6   4  -2   78.99    6.99
   6   4  -2   88.55   14.01
   5  -4  -2    5.32    5.63
   5  -4  -2    9.56    4.84
   5  -4  -2   10.71    6.83
  -5  -4   2   10.96    3.46
   5  -4  -2    7.84    3.13
   5   4  -2   14.11    5.54
   5   4  -2   -0.29    4.65
   5   4  -2   11.27    4.72
   5   4  -2   11.90    5.68
   5   4  -2    8.11   10.11
   5   4  -2    7.65    3.64
   4  -4  -2    5.03    4.43
   4  -4  -2    2.03    5.64
   4  -4  -2    2.43    4.94
   4  -4  -2   10.05    2.78
  -4  -4   2    8.60    4.19
  -4  -4   2    4.34    8.98
  -4   4   2    4.13    3.42
   4   4  -2    8.93    3.60
   4   4  -2    2.32    8.31
   4   4  -2    5.38    5.21
   4   4  -2    6.98    4.51
  -3  -4   2   53.10    6.95
   3  -4  -2   43.80    5.52
  -3  -4   2   51.76    6.94
  -3  -4   2   38.54    4.98
   3  -4  -2   59.59    7.32
   3  -4  -2   49.44    3.54
   3  -4  -2   43.89    5.38
   3   4  -2   42.73    7.92
   3   4  -2   56.09    5.24
  -3   4   2   40.68    5.85
   3   4  -2   47.66    5.35
  -3   4   2   45.94    5.14
   3   4  -2   43.86    6.07
   2  -4  -2  109.66    5.04
   2  -4  -2   99.17    8.00
  -2  -4   2  104.82    6.33
  -2  -4   2   98.85    5.34
   2  -4  -2  100.38    5.02
  -2  -4   2  107.26    7.42
   2   4  -2  106.82    6.09
   2   4  -2   99.27    6.44
  -2   4   2   99.23    6.16
   2   4  -2  107.66    5.79
   2   4  -2  101.07    8.17
  -2   4   2   97.96    5.60
   2   4  -2   91.41    7.88
  -1  -4   2  116.60    7.68
   1  -4  -2  121.03    4.89
   1  -4  -2  124.68    6.30
   1   4  -2  137.84    8.78
   1   4  -2  125.64    5.64
   1   4  -2  127.41    6.29
   1   4  -2  123.58    6.42
  -1   4   2  123.06    6.77
  -1   4   2  119.83    5.89
   0  -4  -2   21.55    3.25
   0  -4   2   22.28    4.21
   0  -4  -2   31.09    3.69
   0  -4  -2   31.54    4.31
   0  -4   2   27.03    4.15
   0   4  -2   31.31    3.76
   0   4   2   34.44    4.07
   0   4  -2   31.63    4.01
   0   4   2   31.07    3.50
   0   4  -2   27.96    3.54
   0   4   2   32.12    3.82
   1  -4   2   38.18    5.55
  -1  -4  -2   45.67    5.04
  -1  -4  -2   33.36    4.38
  -1  -4  -2   41.46    5.28
  -1  -4  -2   43.28    5.02
   1  -4   2   34.36    5.18
   1   4   2   40.15    4.94
   1   4   2   37.07    4.65
  -1   4  -2   47.15    4.22
   1   4   2   47.76    7.34
  -1   4  -2   38.08    5.55
   2  -4   2   90.97    7.66
  -2  -4  -2   99.49    7.47
  -2  -4  -2   89.23    6.36
  -2  -4  -2   99.03    6.99
   2  -4   2   89.07    4.95
  -2  -4  -2   88.69    6.82
   2  -4   2   95.68    4.84
   2  -4   2   77.06    9.59
   2   4   2   82.85    7.75
  -2   4  -2   99.24    5.82
   2   4   2   90.53    7.92
   2   4   2   97.70    8.48
   2   4   2   89.51   10.74
  -2   4  -2   94.27    7.47
   3  -4   2   49.08    7.32
  -3  -4  -2   35.26    4.59
  -3  -4  -2   50.35    6.16
   3  -4   2   42.13    5.04
   3  -4   2   41.57    5.36
  -3  -4  -2   55.39    6.98
   3  -4   2   40.76    7.25
  -3  -4  -2   40.31    8.60
   3   4   2   34.69    6.10
   3   4   2   63.27    9.25
   3   4   2   40.51    5.03
   3   4   2   37.61    6.31
  -3   4  -2   36.64    4.92
   3   4   2   30.19    6.77
  -4  -4  -2    4.86    6.12
  -4  -4  -2   18.19    5.17
   4  -4   2   18.51    8.26
   4  -4   2   13.92    4.57
   4  -4   2   13.53    3.05
  -4  -4  -2   14.09    3.71
  -4  -4  -2    4.20    5.49
   4   4   2   14.86    4.50
   4   4   2   14.11    6.12
   4   4   2   11.10    7.14
   4   4   2   18.44    5.77
   4   4   2    9.85    4.63
   4   4   2    5.42    7.60
   4   4   2   17.41    4.66
   5  -4   2   77.41    6.76
  -5  -4  -2   99.35    7.66
   5  -4   2   82.08    6.97
  -5  -4  -2   80.50    5.72
   5  -4   2   87.49   12.17
   5  -4   2   85.74    5.20
  -5  -4  -2   71.11    7.84
   5  -4   2   77.46    7.58
   5   4   2   88.06    8.12
   5   4   2   80.20    8.72
   5   4   2   77.04    6.18
   5   4   2   85.44    6.42
   5   4   2   66.47    6.49
   5   4   2   88.32    7.65
   5   4   2   96.70   13.80
   5   4   2   92.00    7.45
   6  -4   2   55.85    7.29
  -6  -4  -2   55.81    6.22
   6  -4   2   49.26    7.25
   6  -4   2   53.49    8.96
   6  -4   2   38.77   12.49
  -6  -4  -2   68.41    9.36
  -6  -4  -2   48.29    7.58
  -6  -4  -2   48.29    7.89
   6  -4   2   55.93    7.10
   6   4   2   54.93    8.05
   6   4   2   59.20    7.11
   6   4   2   57.98    8.25
   6   4   2   82.38   13.08
   6   4   2   63.60    9.41
   6   4   2   37.73    7.50
   6   4   2   59.51    7.25
   6  -5  -2   19.64    6.45
   6  -5  -2    7.07    3.75
  -6  -5   2   11.17    3.74
   6  -5  -2   12.20    5.60
   6  -5  -2   11.19    6.15
   6  -5  -2   13.81    9.71
   6   5  -2   10.05    7.51
   6   5  -2    6.82    4.14
   6   5  -2   -2.14    7.20
   6   5  -2   15.19    7.13
   6   5  -2    6.16    6.79
   6   5  -2   11.20    5.85
   6   5  -2   38.98   13.05
   6   5  -2    4.96    5.14
   5  -5  -2   34.88    5.94
   5  -5  -2   33.69    8.95
   5  -5  -2   35.35    5.99
   5  -5  -2   27.23    3.65
  -5  -5   2   31.24    3.99
   5   5  -2   25.11    5.49
   5   5  -2   31.43    6.01
   5   5  -2   31.67    7.23
   5   5  -2   29.68    6.37
   5   5  -2   29.05    4.14
   5   5  -2   14.36   12.80
   5   5  -2   15.80    4.90
   4  -5  -2  105.21    5.11
   4  -5  -2  113.31   10.68
   4  -5  -2  115.02    6.63
  -4  -5   2  103.71    5.10
   4   5  -2   88.77    5.50
   4   5  -2   95.43    7.00
   4   5  -2  107.64    7.44
   4   5  -2   91.64    7.56
   4   5  -2   95.69   13.72
   4   5  -2  104.42    6.42
   3  -5  -2  113.60    8.21
  -3  -5   2  143.18    9.69
  -3  -5   2  123.25    8.04
   3  -5  -2  115.11   10.34
  -3  -5   2  113.36    7.35
   3  -5  -2  108.14    7.51
   3   5  -2   98.92   10.24
   3   5  -2  109.31   10.72
  -3   5   2  115.97    7.03
   3   5  -2  136.61    6.16
   3   5  -2  124.68   12.00
   2  -5  -2   83.35    5.93
   2  -5  -2   78.18    5.65
   2  -5  -2   73.11    6.98
  -2  -5   2   84.42    8.09
   2  -5  -2   89.45    9.64
  -2   5   2   70.90    5.80
   2   5  -2   84.24    5.52
   2   5  -2   80.29    6.95
   2   5  -2   74.72    9.83
  -2   5   2   83.33    6.53
   2   5  -2   83.55    6.33
   1  -5  -2  115.05    7.50
  -1  -5   2  115.22    8.99
   1  -5  -2  121.54    6.20
   1   5  -2  118.93    6.21
   1   5  -2  142.82   10.46
   1   5  -2  131.93    7.10
  -1   5   2  128.14    7.52
  -1   5   2  129.83    6.81
   1   5  -2  132.98    7.18
   0  -5   2  284.17   13.07
   0  -5  -2  268.62   10.33
   0  -5  -2  297.66   11.50
   0  -5   2  256.54   10.97
   0   5   2  290.51   11.63
   0   5   2  284.87   11.30
   0   5  -2  280.10   10.90
   0   5  -2  275.42   10.05
   0   5   2  289.75   11.08
   0   5  -2  268.16   10.65
  -1  -5  -2   73.63    4.89
   1  -5   2   71.79    7.36
  -1  -5  -2   81.46    6.78
   1  -5   2   68.38    9.74
  -1  -5  -2   73.67    7.10
   1   5   2   56.62    6.62
  -1   5  -2   83.54    5.64
  -1   5  -2   79.97    7.02
  -1   5  -2   61.76    5.44
   1   5   2   85.07    7.67
   1   5   2   75.83    8.88
  -2  -5  -2   26.36    5.25
  -2  -5  -2   26.63    5.54
   2  -5   2   14.73    8.00
  -2  -5  -2   27.05    3.10
  -2  -5  -2   32.75    5.11
   2   5   2   27.05    4.40
   2   5   2   26.12    4.80
   2   5   2   23.37    6.74
  -2   5  -2   26.64    3.85
   2   5   2   29.44    8.35
  -3  -5  -2   92.39   10.21
   3  -5   2   81.81    5.95
   3  -5   2   80.30    4.35
  -3  -5  -2   86.82    7.09
   3  -5   2   98.97   11.30
  -3  -5  -2   98.05    6.76
  -3  -5  -2   94.73    4.97
   3   5   2  112.96   13.31
   3   5   2   97.07    7.76
   3   5   2   89.96    6.17
   3   5   2   93.65    7.26
   3   5   2   85.11    6.01
   3   5   2   84.63   12.72
   3   5   2   90.01    6.00
  -4  -5  -2   53.36    5.98
   4  -5   2   50.02    4.21
  -4  -5  -2   53.92    7.21
  -4  -5  -2   49.06    4.67
   4  -5   2   52.26    9.93
   4  -5   2   46.59    5.82
   4  -5   2   52.42    5.92
   4  -5   2   61.01   10.59
   4   5   2   36.18    5.73
   4   5   2   52.76    5.61
   4   5   2   44.37    6.62
   4   5   2   46.93   11.29
   4   5   2   30.59    7.88
   4   5   2   52.84    5.93
   4   5   2   48.89    7.26
   5  -5   2   14.18    5.80
   5  -5   2   25.58    6.36
  -5  -5  -2   31.97    6.48
   5  -5   2   30.24   12.88
  -5  -5  -2   28.49    4.95
   5  -5   2   25.81    6.22
   5  -5   2   26.18    3.99
  -5  -5  -2   30.39    7.76
   5   5   2   17.86    5.81
   5   5   2   32.25   11.18
   5   5   2    8.57    6.51
   5   5   2   24.99    5.55
   5   5   2   30.07    9.14
   5   5   2   20.93    5.72
   5   5   2   36.70    8.34
  -6  -6   2   47.11    4.99
   6  -6  -2   32.26    7.13
   6  -6  -2   45.59    4.55
   6  -6  -2   50.54    7.53
   6  -6  -2   55.03    7.83
   6  -6  -2   40.82   11.67
   6   6  -2   43.34    7.54
   6   6  -2   53.24    9.17
   6   6  -2   66.26   15.65
   6   6  -2   42.72    7.26
   6   6  -2   45.62    5.75
   6   6  -2   48.41    6.34
   6   6  -2   30.44    9.92
  -5  -6   2   14.53    3.63
   5  -6  -2   12.56    5.97
   5  -6  -2   20.24    6.24
   5  -6  -2   29.24    9.98
   5  -6  -2   14.17    3.73
   5   6  -2   17.99    6.51
   5   6  -2   10.15    5.11
   5   6  -2   10.00   14.31
   5   6  -2   14.29    6.24
   5   6  -2   37.80    7.49
   5   6  -2   20.27    4.55
   5   6  -2   21.60    7.76
   4  -6  -2    6.58    8.49
   4  -6  -2   20.35    6.20
  -4  -6   2    8.95    3.29
   4  -6  -2   14.75    3.25
   4   6  -2   10.62    6.98
   4   6  -2   11.82   12.58
   4   6  -2   17.80    5.87
   4   6  -2    8.87    5.32
   4   6  -2   11.52    4.65
   4   6  -2    9.47    3.93
   4   6  -2   11.65    5.79
   3  -6  -2   28.32    8.56
   3  -6  -2   28.67    3.23
  -3  -6   2   29.13    3.14
   3   6  -2   26.15    5.76
  -3   6   2   35.01    4.69
   3   6  -2   30.33    5.37
   3   6  -2   26.30    4.15
   3   6  -2   30.03    4.97
   2  -6  -2  149.12    9.86
   2  -6  -2  162.09   12.61
  -2  -6   2  162.61    7.54
  -2   6   2  146.00   10.73
   2   6  -2  157.32    6.83
   1  -6  -2  152.23    9.09
  -1  -6   2  162.46   11.24
  -1   6   2  183.51   11.50
   1   6  -2  151.25    8.97
   1   6  -2  180.33   13.10
   0  -6   2   47.10    7.19
   0  -6  -2   62.06    6.84
   0   6   2   50.79    5.48
   0   6  -2   39.63    4.12
   1  -6   2  124.36   11.68
  -1  -6  -2  117.37    5.14
  -1  -6  -2  122.24    7.86
   1   6   2  119.56   10.73
   1   6   2  109.38    7.06
   2  -6   2   37.51    3.18
  -2  -6  -2   54.27    6.71
  -2  -6  -2   44.73    3.92
  -2  -6  -2   48.42    5.95
   2   6   2   43.26    5.87
   2   6   2   42.06    5.81
   2   6   2   54.60    6.79
   2   6   2   50.69    7.09
  -3  -6  -2    7.61    3.43
  -3  -6  -2    4.85    5.99
   3  -6   2    5.49    2.80
   3  -6   2    6.68    5.07
  -3  -6  -2   12.43    5.35
   3   6   2    6.24    6.32
   3   6   2    9.95    6.71
   3   6   2   10.14    5.07
   3   6   2   17.62   10.21
   3   6   2    6.62    5.34
   3   6   2    7.46    5.41
   4  -6   2   13.52    5.94
   4  -6   2    8.60    3.40
  -4  -6  -2    5.85    3.94
  -4  -6  -2   -6.46    5.31
  -4  -6  -2    9.46    7.33
   4  -6   2   10.66    6.59
   4  -6   2    8.46    5.38
   4   6   2    2.10    5.36
   4   6   2   30.51   12.50
   4   6   2   15.79    5.35
   4   6   2    7.23    8.35
   4   6   2   13.34    5.27
   4   6   2    8.26    7.19
   4   6   2    3.23    6.41
   4  -7  -2   34.10    7.16
   4  -7  -2   24.88    3.73
   4  -7  -2   32.78   10.48
  -4  -7   2   27.15    3.81
   4   7  -2   41.08   12.84
   4   7  -2   32.14    6.91
   4   7  -2   24.42    6.42
   4   7  -2   11.86    5.06
   4   7  -2   28.28    6.49
   4   7  -2   26.63    7.00
   3  -7  -2   28.33    3.44
   3  -7  -2   21.89    6.61
   3  -7  -2   43.59   10.24
  -3  -7   2   33.46    3.62
   3   7  -2   25.24    6.14
   3   7  -2   31.56    4.83
   3   7  -2   31.92    6.55
   3   7  -2   33.14    6.77
   3   7  -2   32.39    6.22
   2  -7  -2    0.73    2.98
  -2  -7   2    3.98    2.55
   2  -7  -2   -2.24    8.94
   2   7  -2   -0.08    6.03
   2   7  -2    0.45    5.36
   2   7  -2   -7.20    5.22
   2   7  -2   -4.07    4.22
  -2   7   2    9.30    4.65
   1  -7  -2   27.76    6.99
  -1  -7   2   29.60    2.72
   1  -7  -2   28.59    2.88
   1   7  -2   29.65    8.47
  -1   7   2   29.47    6.04
   1   7  -2   40.03    5.30
  -1   7   2   28.77    5.91
  -1   7   2   20.22    5.07
   0  -7  -2   72.01    8.37
   0  -7  -2   60.11    3.83
   0   7   2   57.80    5.93
   0   7  -2   43.14    5.99
   0   7   2   64.86    7.60
  -1  -7  -2   26.32    7.44
  -1  -7  -2   17.28    6.06
  -1  -7  -2   14.05    3.04
   1   7   2   13.10    5.70
   1   7   2   14.80    5.59
   1   7   2   10.15    6.02
   1   7   2   19.27    6.86
  -2  -7  -2    6.95    7.38
  -2  -7  -2   -0.40    3.24
  -2  -7  -2   10.69    5.84
   2  -7   2   -4.46    2.48
   2  -7   2    1.47    6.20
   2   7   2    6.18    6.20
   2   7   2    9.36    6.31
   2   7   2   -3.92    7.51
   2   7   2   -8.54    5.15
   2   7   2    0.02    5.77
  -3  -7  -2   25.86    7.42
   3  -7   2   24.68    3.34
   3  -7   2   29.36    6.00
  -3  -7  -2   29.36    4.11
  -3  -7  -2   26.46    6.24
   3   7   2   23.85    6.13
   3   7   2   21.42    6.35
   3   7   2   31.87    8.36
   3   7   2   32.31    8.19
   3   7   2   43.42   11.79
   2  -8  -2   41.43    3.92
   2  -8  -2   21.93   11.66
  -2  -8   2   42.69    3.55
   2   8  -2   30.08    6.82
   2   8  -2   42.75    6.38
   2   8  -2   37.21    7.84
   2   8  -2   40.42    5.80
  -1  -8   2   17.71    2.90
   1  -8  -2   15.84    3.22
   1  -8  -2   16.55    8.05
   1  -8  -2   17.21   11.38
   1   8  -2   20.24    7.31
  -1   8   2   15.62    6.53
   0  -8  -2    9.65    7.31
   0  -8  -2   -5.44    7.58
   0  -8  -2    1.66    3.17
   0   8   2   -2.25    5.77
   0   8   2   14.63    7.79
   0   8   2   -1.82    5.44
  -1  -8  -2   23.60    3.66
  -1  -8  -2   22.13    8.67
  -1  -8  -2   38.85    7.31
   1   8   2    8.30    7.50
   1   8   2   16.09    6.75
   1   8   2   28.32    6.91
   8   0  -3   53.57    6.85
   8   0  -3   58.09    7.43
   8   0  -3   55.15    6.98
   8   0  -3   56.23   13.42
   8   0  -3   72.02    7.99
   8   0  -3   45.30    6.15
   8   0  -3   55.60    7.09
   8   0  -3   35.87    7.90
   8   0  -3   43.26    6.98
   7   0  -3   12.85    6.20
  -7   0   3   15.75    8.81
   7   0  -3   -2.45    5.08
   7   0  -3   -3.03    9.39
   7   0  -3    5.69    4.91
   7   0  -3    3.18    5.46
  -7   0   3    4.66    9.93
   7   0  -3    2.45    5.83
   7   0  -3    5.04    6.27
   7   0  -3   -4.99    4.72
   6   0  -3   96.42   11.79
   6   0  -3   91.96   11.17
   6   0  -3  104.55    6.90
   6   0  -3  105.15    7.37
  -6   0   3   93.35   10.55
   6   0  -3  115.62    6.73
  -6   0   3  119.58   11.53
  -6   0   3  101.33   10.70
   6   0  -3  114.92    8.79
   6   0  -3  104.12   10.62
  -5   0   3  206.12   11.02
   5   0  -3  202.81   12.30
   5   0  -3  212.80   11.31
  -5   0   3  231.98   11.86
   5   0  -3  204.30   11.19
   5   0  -3  190.98    8.94
  -5   0   3  187.58   11.04
   4   0  -3   77.74    7.32
   4   0  -3   72.76    5.76
  -4   0   3   72.93    7.25
   4   0  -3   75.04    6.78
   4   0  -3   76.98    7.72
   4   0  -3   65.06    6.95
  -4   0   3   81.86    7.10
   3   0  -3   25.28    3.98
   3   0  -3   31.04    4.15
   3   0  -3   23.56    3.50
  -3   0   3   24.45    3.98
   3   0  -3   26.74    4.49
  -3   0   3   25.38    3.60
   3   0  -3   25.97    3.94
  -3   0   3   20.86    3.72
  -2   0   3  322.08   11.69
   2   0  -3  324.62   11.63
  -2   0   3  322.81   11.25
   2   0  -3  317.51   11.24
   2   0  -3  322.07   11.64
  -2   0   3  317.62   11.71
   2   0  -3  317.99   11.52
  -1   0   3  289.88   10.49
   1   0  -3  273.70   10.35
  -1   0   3  277.05   10.57
  -1   0   3  290.96   10.19
   1   0  -3  288.03   10.77
   1   0  -3  281.31   10.10
   0   0   3    8.47    2.99
   0   0   3    8.73    3.00
   0   0   3    6.41    3.17
   0   0  -3    6.45    3.29
   0   0   3    8.92    2.92
   0   0  -3   12.45    2.88
  -1   0  -3   11.62    3.90
   1   0   3    5.45    3.54
  -1   0  -3    7.36    3.30
   1   0   3    2.98    3.36
   1   0   3    6.55    3.95
  -2   0  -3   75.79    6.00
   2   0   3   74.89    6.67
  -2   0  -3   80.10    7.43
   2   0   3   73.67    6.79
   2   0   3   82.94    7.82
  -2   0  -3   80.76    6.77
   2   0   3   75.70    7.13
   3   0   3  178.36   10.79
  -3   0  -3  178.66   10.12
  -3   0  -3  158.00    8.48
   3   0   3  182.16   11.74
   3   0   3  161.86    9.95
   3   0   3  170.65    9.66
  -3   0  -3  166.90   11.01
   4   0   3   93.80   11.06
   4   0   3   44.41    7.05
   4   0   3   64.67    9.04
   4   0   3   52.01    6.95
  -4   0  -3   58.79    6.62
  -4   0  -3   56.55    8.50
  -4   0  -3   65.02    8.55
   4   0   3   62.62    8.94
  -5   0  -3   44.36    8.61
   5   0   3   37.20    5.91
  -5   0  -3   38.52    8.32
   5   0   3   46.61    5.73
  -5   0  -3   24.69    9.35
   5   0   3   41.38    6.37
  -5   0  -3   46.88    7.74
   5   0   3   41.56    5.33
   5   0   3   31.58    6.02
   6   0   3   64.69    7.54
   6   0   3   65.89    7.29
   6   0   3   79.77    8.20
   6   0   3   74.62    7.73
  -6   0  -3   63.16    8.36
   6   0   3   83.79    6.82
   6   0   3   76.78    6.52
   6   0   3   63.95   11.89
   8  -1  -3    9.00    5.42
   8  -1  -3   10.78    6.03
   8  -1  -3    3.94    6.79
   8  -1  -3    2.23    6.67
   8  -1  -3    0.84   11.53
   8  -1  -3   18.73    7.37
   8  -1  -3    9.25    6.08
   8   1  -3   12.32    5.73
   8   1  -3   14.65    6.37
   8   1  -3    3.05    6.18
   8   1  -3   19.40    7.68
   8   1  -3   -8.69   12.00
   8   1  -3   24.55    7.26
   8   1  -3    4.37    7.52
   8   1  -3   18.81    6.74
   8   1  -3    8.49    6.87
   7  -1  -3   19.53    5.52
   7  -1  -3    6.94    5.95
   7  -1  -3   23.33    5.72
   7  -1  -3   17.85    5.53
   7  -1  -3   22.94    6.13
   7  -1  -3   19.91    9.89
   7  -1  -3   26.13    6.39
   7  -1  -3    9.76    5.01
   7   1  -3   26.61    6.60
   7   1  -3   17.52    4.59
   7   1  -3   11.48    6.53
   7   1  -3   14.15    9.09
   7   1  -3    8.59   10.21
   7   1  -3   26.17    6.51
   7   1  -3   25.13    6.12
   7   1  -3   13.91    6.27
   7   1  -3   11.05    5.53
   7   1  -3   18.20    5.34
   6  -1  -3  161.23   12.66
   6  -1  -3  144.46    7.48
   6  -1  -3  129.46    7.72
   6  -1  -3  143.35    7.38
   6  -1  -3  140.59   11.54
  -6  -1   3  152.19   12.12
   6  -1  -3  144.60   11.85
  -6  -1   3  161.78   11.55
   6   1  -3  140.67   11.48
  -6   1   3  148.77   11.51
  -6   1   3  128.25   12.24
   6   1  -3  134.12    8.61
   6   1  -3  140.42    7.70
   6   1  -3  150.65    7.50
  -6   1   3  135.21   12.17
   6   1  -3  133.02   12.75
   5  -1  -3    4.36    5.10
   5  -1  -3    3.09    4.28
  -5  -1   3    6.27    5.77
   5  -1  -3    9.71    6.68
  -5  -1   3    3.87    4.68
   5  -1  -3    4.91    5.35
  -5  -1   3    6.08    4.79
   5   1  -3    4.10    5.39
   5   1  -3   -1.29    4.55
   5   1  -3   -3.69    5.56
   5   1  -3    3.35    7.07
  -5   1   3    6.21    5.40
   5   1  -3    1.23    4.58
  -5   1   3    6.00    5.26
   4  -1  -3  124.00    8.29
  -4  -1   3  108.13    8.83
   4  -1  -3  113.86    6.94
  -4  -1   3  115.74    7.60
   4  -1  -3   97.85    5.71
   4  -1  -3  103.56    8.46
   4  -1  -3  127.42    8.99
  -4  -1   3  107.71    7.26
   4   1  -3  108.88    6.07
   4   1  -3  112.25    8.56
   4   1  -3  117.55    7.80
  -4   1   3  107.28    9.11
  -4   1   3  121.56    8.03
   4   1  -3  118.02    7.98
   4   1  -3  106.27    8.39
  -4   1   3  115.32    7.82
   3  -1  -3  341.16   12.90
   3  -1  -3  357.81   12.24
  -3  -1   3  364.71   13.20
   3  -1  -3  360.44   12.68
   3  -1  -3  357.21   13.56
  -3  -1   3  337.86   12.73
  -3  -1   3  358.80   12.70
   3   1  -3  340.43   12.91
   3   1  -3  341.30   12.98
   3   1  -3  352.46   12.18
  -3   1   3  351.69   12.87
   3   1  -3  334.39   13.63
  -3   1   3  345.90   12.90
  -3   1   3  349.25   12.26
   3   1  -3  350.95   12.86
   2  -1  -3   52.16    4.08
   2  -1  -3   50.26    5.39
  -2  -1   3   56.90    4.92
   2  -1  -3   47.24    5.10
  -2  -1   3   46.02    5.40
  -2  -1   3   53.89    4.59
   2  -1  -3   50.82    4.75
   2   1  -3   42.44    4.57
  -2   1   3   50.84    4.79
   2   1  -3   54.78    4.22
   2   1  -3   51.29    5.17
  -2   1   3   52.70    3.83
   2   1  -3   52.88    5.16
   2   1  -3   52.56    4.39
  -2   1   3   50.09    5.39
  -1  -1   3   24.59    3.71
  -1  -1   3   25.57    3.38
   1  -1  -3   32.37    4.73
  -1  -1   3   28.42    3.44
   1  -1  -3   25.01    3.55
  -1   1   3   29.32    3.52
  -1   1   3   25.72    3.66
   1   1  -3   27.04    3.89
   1   1  -3   24.38    3.67
   1   1  -3   23.58    3.06
  -1   1   3   30.95    3.44
   1   1  -3   33.40    4.27
   0  -1   3  234.07    9.93
   0  -1  -3  243.88    9.98
   0  -1   3  235.25    9.74
   0  -1   3  247.40    9.55
   0  -1  -3  240.97    9.72
   0   1   3  238.50    9.96
   0   1  -3  249.82   10.15
   0   1  -3  236.65    9.36
   0   1   3  256.91   10.06
  -1  -1  -3  395.10   13.94
   1  -1   3  404.18   13.81
   1  -1   3  375.02   14.06
   1  -1   3  375.52   13.42
  -1  -1  -3  373.09   13.03
  -1  -1  -3  348.69   15.07
   1   1   3  407.97   13.87
   1   1   3  379.17   15.05
  -1   1  -3  368.72   14.06
   1   1   3  389.66   14.44
   1   1   3  387.75   13.81
  -1   1  -3  369.00   13.48
   2  -1   3  131.82    8.94
  -2  -1  -3  130.49    8.34
   2  -1   3  121.06    7.90
   2  -1   3  123.16    8.41
  -2  -1  -3  127.82    6.68
  -2  -1  -3  139.95    8.77
   2  -1   3  132.42    7.60
  -2   1  -3  116.08    8.47
   2   1   3  127.78    8.17
   2   1   3  127.42    8.27
   2   1   3  140.30    9.19
   2   1   3  120.60    7.82
  -2   1  -3  129.95    7.63
   3  -1   3  122.78   10.60
   3  -1   3  124.44    8.20
  -3  -1  -3  112.53    8.99
  -3  -1  -3  120.75    7.77
   3  -1   3  111.64    9.89
  -3  -1  -3  117.98    9.93
   3  -1   3  127.70    9.99
   3   1   3  117.20    9.19
   3   1   3  128.66   11.01
  -3   1  -3  118.49    9.88
   3   1   3  110.24   10.18
   3   1   3  127.84    9.03
  -3   1  -3  120.11    8.12
  -4  -1  -3   80.23   11.63
   4  -1   3  114.70   11.55
   4  -1   3   96.98    6.63
   4  -1   3  116.73   11.61
   4  -1   3   94.15    8.73
  -4  -1  -3  112.62   10.80
  -4  -1  -3  124.76    8.38
   4   1   3  133.91   11.85
   4   1   3  108.28    7.07
   4   1   3  113.28   11.10
  -4   1  -3  108.63   12.00
   4   1   3  103.20   10.49
  -4   1  -3   95.80   12.26
   4   1   3  112.43   10.14
  -4   1  -3  104.86    8.80
   5  -1   3   37.80    6.08
  -5  -1  -3   26.03    6.34
  -5  -1  -3   39.36    9.31
   5  -1   3   14.74    9.38
   5  -1   3   25.40    5.94
  -5  -1  -3   37.16    7.13
   5  -1   3   34.57    6.22
   5   1   3   33.33    5.59
   5   1   3   36.93    6.26
   5   1   3   22.82    6.66
   5   1   3   31.94   10.16
   5   1   3   38.77    9.52
  -5   1  -3   28.50    7.71
   5   1   3   33.43    6.15
   5   1   3   39.93    6.18
   6  -1   3   13.67    7.10
   6  -1   3    2.00    6.03
   6  -1   3   13.85    5.91
  -6  -1  -3    8.28    6.92
   6  -1   3   -8.52    6.07
  -6  -1  -3   17.45    9.66
   6  -1   3   15.78    6.32
   6  -1   3   18.17   10.39
   6   1   3   15.16    6.67
   6   1   3    1.19    6.32
  -6   1  -3    9.86    7.56
   6   1   3    6.07    7.08
   6   1   3   22.00   10.07
   6   1   3   10.01    5.97
   6   1   3    7.75    6.68
   6   1   3    6.40    6.16
   8  -2  -3   35.07    7.28
   8  -2  -3   38.41    8.03
   8  -2  -3   40.45    5.92
   8  -2  -3   51.58    8.68
   8  -2  -3   68.99   13.31
  -8  -2   3   43.42    6.23
   8  -2  -3   44.68    7.64
   8  -2  -3   40.69    7.34
   8   2  -3   60.29   11.68
   8   2  -3   43.67    5.91
   8   2  -3   38.89    6.39
   8   2  -3   39.10    8.32
   8   2  -3   42.96    8.82
   8   2  -3   57.62    7.94
   8   2  -3   43.86   13.76
   8   2  -3   37.94    7.20
   7  -2  -3   15.13    5.55
  -7  -2   3   10.23    5.15
   7  -2  -3   13.57    5.23
   7  -2  -3    6.34    5.74
   7  -2  -3   13.72    4.49
   7  -2  -3   19.51    6.13
   7  -2  -3   15.12    9.98
   7  -2  -3   12.42    6.56
   7  -2  -3   13.19    5.56
   7   2  -3   17.90    6.66
   7   2  -3   14.60    5.04
   7   2  -3    9.36    4.12
   7   2  -3    2.37   10.83
   7   2  -3    9.35    5.64
   7   2  -3    2.95    6.24
   7   2  -3   11.01    5.52
   7   2  -3    9.99    7.23
   7   2  -3    4.79    7.25
   6  -2  -3   88.55    5.32
   6  -2  -3   84.87    6.24
   6  -2  -3   99.92    7.14
  -6  -2   3   79.95   14.99
   6  -2  -3   84.03   11.34
   6  -2  -3   82.50    6.66
   6   2  -3   92.75   11.77
   6   2  -3   84.04    5.27
  -6   2   3   87.41   12.43
   6   2  -3   87.35    6.68
   6   2  -3   98.54    7.09
   6   2  -3   94.72    6.63
   6   2  -3   88.31   10.37
   6   2  -3   80.63    6.54
   5  -2  -3   15.15    5.85
   5  -2  -3   21.47    7.16
   5  -2  -3   14.64    5.42
  -5  -2   3   11.96    6.58
  -5  -2   3   23.42    4.70
  -5  -2   3   12.83    4.98
   5  -2  -3   10.60    4.45
  -5   2   3   12.09    6.15
   5   2  -3   17.02    8.37
   5   2  -3    3.80    6.11
   5   2  -3    8.98    4.66
   5   2  -3    6.66    4.77
   5   2  -3   13.38    5.23
  -5   2   3   15.87    4.80
  -5   2   3    9.17    5.55
   4  -2  -3   69.91    6.81
  -4  -2   3   93.58    8.78
  -4  -2   3   86.73    6.84
   4  -2  -3   81.99    7.62
   4  -2  -3   81.91    8.80
   4  -2  -3   76.70    6.25
  -4  -2   3   77.65    7.73
  -4   2   3   80.20    7.64
  -4   2   3   75.98    6.77
   4   2  -3   72.12    5.76
   4   2  -3   86.62    9.65
   4   2  -3   85.66    7.74
   4   2  -3   75.32    7.03
   4   2  -3   74.35    8.17
  -4   2   3   74.54    7.75
   3  -2  -3   52.49    4.64
   3  -2  -3   54.61    6.23
  -3  -2   3   54.51    5.11
   3  -2  -3   52.31    7.00
   3  -2  -3   54.53    5.23
  -3  -2   3   63.44    5.81
  -3  -2   3   54.83    6.73
  -3   2   3   50.18    5.94
   3   2  -3   58.03    5.09
   3   2  -3   60.19    6.80
   3   2  -3   51.09    4.57
  -3   2   3   50.56    5.69
   3   2  -3   54.58    7.09
   3   2  -3   59.14    6.50
  -3   2   3   56.17    5.12
  -2  -2   3  116.00    6.87
   2  -2  -3  110.79    6.13
  -2  -2   3  118.56    7.08
   2  -2  -3  116.05    7.43
   2  -2  -3  118.38    4.63
   2  -2  -3  120.95    6.80
  -2  -2   3  121.86    6.11
   2   2  -3  120.91    7.31
   2   2  -3  112.03    6.90
   2   2  -3  118.27    5.84
  -2   2   3  114.88    6.49
   2   2  -3  104.21    6.15
  -2   2   3  113.85    6.94
   2   2  -3  120.09    6.30
   1  -2  -3  926.77   29.58
  -1  -2   3  964.00   30.25
   1  -2  -3  908.65   29.32
   1  -2  -3 1000.00   29.70
  -1  -2   3  922.85   29.72
  -1  -2   3  963.58   29.37
   1   2  -3  978.81   29.23
  -1   2   3  942.53   29.80
  -1   2   3  937.09   29.71
   1   2  -3  959.89   29.46
   1   2  -3  976.15   30.31
   1   2  -3  917.74   29.72
   0  -2   3    7.45    3.50
   0  -2  -3   12.97    3.60
   0  -2  -3   10.27    3.43
   0  -2   3   16.48    3.25
   0  -2  -3   15.62    3.75
   0  -2   3   14.57    3.94
   0   2  -3    8.38    2.87
   0   2   3   13.61    2.55
   0   2   3   10.34    3.72
   0   2   3   12.68    3.44
   0   2  -3   14.54    3.83
   1  -2   3  118.82    7.00
   1  -2   3  115.38    7.21
   1  -2   3  107.62    6.26
  -1  -2  -3  117.59    6.37
  -1  -2  -3  128.29    7.48
   1  -2   3  105.25    8.32
  -1  -2  -3  116.09    7.28
   1   2   3  121.00    7.62
  -1   2  -3  116.47    6.52
   1   2   3  107.83    8.21
   1   2   3  113.57    7.13
  -1   2  -3  116.26    7.67
   1   2   3  119.65    6.99
  -2  -2  -3   99.13    7.87
   2  -2   3  105.90    7.57
   2  -2   3   94.33    7.85
  -2  -2  -3   98.04    7.58
  -2  -2  -3  100.10    7.83
   2  -2   3   94.38    8.20
  -2  -2  -3   96.91    6.39
  -2   2  -3   91.69    6.51
   2   2   3   94.78    8.75
   2   2   3   97.31    8.06
   2   2   3   93.44    7.66
   2   2   3   94.38    8.81
  -2   2  -3   97.32    8.60
   3  -2   3   30.74    6.72
   3  -2   3   46.85    5.81
   3  -2   3   49.64    6.66
  -3  -2  -3   30.43    5.89
   3  -2   3   43.48    7.58
  -3  -2  -3   44.85    6.52
  -3  -2  -3   43.39    6.46
  -3  -2  -3   52.90    6.08
   3   2   3   36.36    7.33
  -3   2  -3   35.73    6.73
   3   2   3   39.64    7.02
   3   2   3   49.17    6.85
   3   2   3   31.67    6.52
  -3   2  -3   49.22    6.18
   4  -2   3   99.39    6.56
  -4  -2  -3   74.83   10.60
  -4  -2  -3   83.61   11.60
  -4  -2  -3  108.39   11.57
  -4  -2  -3   94.94    7.44
   4  -2   3  101.99   11.39
  -4  -2  -3  104.64    8.29
   4   2   3  101.76   10.64
   4   2   3  100.62    6.88
   4   2   3  109.05   12.24
   4   2   3   83.46    6.91
   4   2   3  100.36   10.33
  -4   2  -3   92.60   12.27
   4   2   3   89.63   10.53
  -5  -2  -3   12.97    5.67
   5  -2   3   13.11    5.95
  -5  -2  -3   11.15    6.18
  -5  -2  -3   12.07    6.25
  -5  -2  -3    9.71    6.84
   5  -2   3   -0.07    9.94
   5  -2   3    3.24    6.00
   5  -2   3    9.33    5.19
   5   2   3   -1.51    5.82
   5   2   3   10.15    5.14
   5   2   3   13.91    5.89
   5   2   3   13.44    5.04
   5   2   3    5.82    6.18
   5   2   3   29.99    9.25
   5   2   3   12.28    8.89
   5   2   3   10.84    6.42
   6  -2   3   71.35   12.05
   6  -2   3   62.75    7.15
  -6  -2  -3   72.56    7.60
   6  -2   3   73.29    7.62
  -6  -2  -3   80.06    6.78
  -6  -2  -3   83.22    8.91
   6  -2   3   74.99    7.75
   6  -2   3   78.28    8.07
  -6  -2  -3   71.48    8.06
  -6  -2  -3   94.99   10.25
   6   2   3   76.36    7.97
   6   2   3   85.38    7.91
   6   2   3   73.42    6.91
   6   2   3   71.30    8.39
   6   2   3   73.43    7.73
   6   2   3   74.76    7.19
   6   2   3   75.89    6.42
   7  -3  -3   50.05    7.04
   7  -3  -3   42.95    6.37
   7  -3  -3   43.87    6.72
   7  -3  -3   58.88   11.79
   7  -3  -3   49.09    6.44
   7  -3  -3   40.47    4.62
   7  -3  -3   44.10    6.44
   7  -3  -3   48.77    6.04
  -7  -3   3   45.97    5.53
   7   3  -3   44.33    6.57
   7   3  -3   49.60    5.97
   7   3  -3   57.98    5.24
   7   3  -3   38.56    6.48
   7   3  -3   50.90   13.27
   7   3  -3   50.10    6.78
   7   3  -3   50.14    6.87
   7   3  -3   54.74    6.82
   7   3  -3   44.84    8.65
   6  -3  -3   35.84    4.35
   6  -3  -3   31.30    5.80
  -6  -3   3   41.67    4.53
   6  -3  -3   36.22    6.18
   6  -3  -3   33.89    9.49
   6  -3  -3   43.15    5.58
   6  -3  -3   42.21    9.73
   6  -3  -3   48.86    9.54
   6  -3  -3   34.68    7.51
   6   3  -3   51.42    6.00
   6   3  -3   38.70    4.38
   6   3  -3   38.71    6.12
   6   3  -3   27.00   11.85
   6   3  -3   40.59    5.96
   6   3  -3   33.61    4.97
   6   3  -3   43.20    5.89
   6   3  -3   44.37    6.65
  -6   3   3   19.67    9.52
   5  -3  -3    3.04    5.03
   5  -3  -3    2.75    3.40
   5  -3  -3   12.15    4.74
  -5  -3   3    4.28    3.25
   5  -3  -3    7.62    7.28
   5   3  -3   -4.31    6.76
   5   3  -3    9.98    4.83
  -5   3   3    1.64    6.63
   5   3  -3    2.39    4.88
   5   3  -3    3.80    3.67
  -5   3   3   -0.44    3.86
   5   3  -3    4.06    4.85
   5   3  -3    7.46    9.36
   4  -3  -3   97.77    7.18
  -4  -3   3  102.09    7.25
   4  -3  -3  106.64    9.87
  -4  -3   3   91.88    9.20
  -4  -3   3  103.70    8.60
   4   3  -3  102.88    9.21
   4   3  -3  102.78    7.36
   4   3  -3  103.50    6.81
   4   3  -3   87.39    8.97
  -4   3   3   92.36    8.34
  -4   3   3  103.00    7.58
   4   3  -3   95.11   11.31
   3  -3  -3  165.53    7.53
   3  -3  -3  165.74    8.86
  -3  -3   3  167.84    8.01
   3  -3  -3  171.94    6.74
  -3  -3   3  158.89    9.38
  -3  -3   3  165.37    9.42
   3  -3  -3  179.79   10.46
   3  -3  -3  151.93    8.55
  -3   3   3  169.94    9.06
   3   3  -3  163.04    7.84
   3   3  -3  176.52    9.34
  -3   3   3  170.92    8.71
   3   3  -3  163.56   10.57
   3   3  -3  159.12    9.81
   3   3  -3  170.07    8.16
   2  -3  -3   25.74    4.47
   2  -3  -3   31.85    5.27
   2  -3  -3   33.15    4.12
  -2  -3   3   27.49    4.40
  -2  -3   3   33.38    4.78
  -2  -3   3   30.59    4.15
  -2   3   3   26.67    4.32
  -2   3   3   28.57    3.96
   2   3  -3   28.06    3.86
   2   3  -3   37.10    4.67
   2   3  -3   30.88    4.18
   2   3  -3   33.74    4.51
   2   3  -3   30.74    5.04
  -1  -3   3   15.52    3.73
   1  -3  -3    8.17    3.13
   1  -3  -3   13.95    4.17
  -1  -3   3   10.76    2.61
  -1  -3   3    9.85    3.92
   1  -3  -3    8.09    3.73
   1   3  -3   11.57    3.05
  -1   3   3   12.73    3.48
   1   3  -3   16.48    4.49
  -1   3   3   12.53    4.04
   1   3  -3   12.78    3.21
   0  -3   3  139.09    6.49
   0  -3   3  130.10    8.86
   0  -3  -3  148.31    7.66
   0  -3  -3  141.56    7.07
   0  -3   3  139.38    7.32
   0   3  -3  136.78    6.65
   0   3   3  126.92    5.90
   0   3  -3  125.44    6.80
   0   3   3  137.20    7.85
   0   3   3  135.33    8.01
  -1  -3  -3  132.38    8.14
  -1  -3  -3  130.22    7.10
  -1  -3  -3  132.24    7.32
   1  -3   3  127.71    9.35
   1  -3   3  141.82    7.58
   1  -3   3  120.26    6.95
  -1  -3  -3  129.04    8.06
   1  -3   3  142.70    7.28
   1   3   3  123.33    7.62
  -1   3  -3  131.25    7.26
   1   3   3  131.65    8.46
   1   3   3  139.71    8.48
   1   3   3  143.73   10.01
  -2  -3  -3   13.13    4.74
  -2  -3  -3   15.03    4.80
   2  -3   3   12.61    4.53
  -2  -3  -3   10.70    5.03
   2  -3   3   19.90    5.76
   2  -3   3   12.14    4.71
  -2  -3  -3   27.39    5.41
   2   3   3   11.46    5.16
   2   3   3   25.28    7.62
  -2   3  -3   11.85    5.32
   2   3   3   16.66    5.51
  -2   3  -3   18.09    4.38
   2   3   3    9.49    5.29
  -3  -3  -3   16.28    6.25
  -3  -3  -3    4.89    5.73
   3  -3   3   20.00    7.22
  -3  -3  -3   16.17    5.29
  -3  -3  -3   30.15    5.85
   3  -3   3   10.57    8.80
  -3  -3  -3   16.44    6.49
   3  -3   3   17.87    4.72
   3   3   3   19.51    7.25
  -3   3  -3   12.42    6.72
  -3   3  -3   23.84    5.87
   3   3   3   10.73    6.76
   3   3   3   17.34    6.77
   3   3   3   12.83    6.56
   4  -3   3   22.08    6.11
  -4  -3  -3   31.87    7.99
  -4  -3  -3   31.73    6.00
   4  -3   3   22.86    4.93
   4  -3   3   29.92    3.79
  -4  -3  -3   30.33    4.82
   4  -3   3   26.46    9.38
  -4  -3  -3   34.30    6.75
  -4  -3  -3   10.16    7.15
   4   3   3   30.14    5.28
   4   3   3   28.36    6.00
   4   3   3   35.84    6.05
   4   3   3   20.34    4.84
   4   3   3   22.05   10.25
   4   3   3   29.31    5.77
   4   3   3   23.18    8.17
   5  -3   3   45.68    6.07
  -5  -3  -3   45.34    5.64
   5  -3   3   43.18    6.56
   5  -3   3   43.16   11.91
  -5  -3  -3   44.19    7.09
   5  -3   3   40.63    4.59
   5  -3   3   44.89    6.32
  -5  -3  -3   30.91    6.81
  -5  -3  -3   47.76    7.03
   5   3   3   40.61    5.75
   5   3   3   45.80    8.64
   5   3   3   41.33   10.13
   5   3   3   37.25    5.71
   5   3   3   39.12    5.32
   5   3   3   31.85    6.90
   5   3   3   42.16    6.67
   5   3   3   44.22    7.27
   6  -3   3   23.53    6.89
  -6  -3  -3   21.50    7.37
   6  -3   3   24.74    7.17
  -6  -3  -3   26.54    6.34
  -6  -3  -3   10.58    8.26
  -6  -3  -3   29.79   10.29
   6  -3   3    4.81   12.22
   6  -3   3   17.80    6.13
   6   3   3   31.66   11.07
   6   3   3   31.50    7.66
   6   3   3   18.31    5.49
   6   3   3   13.92    8.02
   6   3   3   19.72    7.06
   6   3   3   19.79    9.85
   6   3   3   39.94    6.66
   6   3   3   11.11    6.97
   7  -4  -3    8.76    6.67
   7  -4  -3   10.20    9.35
   7  -4  -3   20.42    6.90
   7  -4  -3   13.09    5.77
   7  -4  -3   30.09    6.51
   7  -4  -3    5.38    3.84
   7  -4  -3   29.46    7.63
  -7  -4   3   12.59    4.46
   7   4  -3   25.92    6.67
   7   4  -3   11.81    5.60
   7   4  -3   19.40    6.60
   7   4  -3    7.75    6.08
   7   4  -3    7.36    6.54
   7   4  -3   12.83    5.30
   7   4  -3   15.97    7.79
   7   4  -3    8.08   14.16
   6  -4  -3   41.09    4.15
   6  -4  -3   52.07    9.62
   6  -4  -3   36.48    6.17
   6  -4  -3   47.20    6.33
   6  -4  -3   52.37    6.81
  -6  -4   3   59.87    5.15
   6  -4  -3   51.82    6.42
   6   4  -3   53.74    5.62
   6   4  -3   50.35    6.85
   6   4  -3   42.49    4.83
   6   4  -3   56.71    7.45
   6   4  -3   49.52    5.92
   6   4  -3   39.13    6.02
   6   4  -3   53.53    7.20
   6   4  -3   43.79   14.53
   5  -4  -3   53.65    4.45
   5  -4  -3   43.09    5.45
  -5  -4   3   51.42    4.50
   5  -4  -3   55.76    6.05
   5   4  -3   55.00    5.32
  -5   4   3   53.01    5.15
   5   4  -3   52.63   12.00
   5   4  -3   60.19    4.59
   5   4  -3   64.41    5.86
   5   4  -3   52.85    6.55
   5   4  -3   48.85    5.87
   4  -4  -3   32.59    6.26
   4  -4  -3   37.14    3.82
   4  -4  -3   22.51    7.35
   4  -4  -3   28.48    7.00
   4  -4  -3   28.12    7.81
   4  -4  -3   41.25    4.25
   4  -4  -3   26.26    4.43
  -4  -4   3   36.77    3.66
  -4   4   3   27.81    4.38
   4   4  -3   31.45    4.06
   4   4  -3   33.14    5.56
   4   4  -3   35.05   10.26
   4   4  -3   29.53    5.03
   4   4  -3   27.14    9.12
  -3  -4   3  109.26    8.85
  -3  -4   3  123.54    6.49
   3  -4  -3   84.39    8.00
   3  -4  -3  103.01    8.46
  -3  -4   3  120.12    8.60
   3  -4  -3  122.50   10.09
   3   4  -3   87.37   10.06
   3   4  -3  112.36    8.83
   3   4  -3  102.55    7.05
   3   4  -3  101.15    9.63
  -3   4   3   98.09    7.21
   3   4  -3  105.20    7.16
  -2  -4   3   64.30    4.75
   2  -4  -3   51.46    6.42
  -2  -4   3   55.74    7.08
  -2  -4   3   52.82    7.09
   2  -4  -3   57.37    6.57
   2  -4  -3   61.84    4.59
   2   4  -3   65.61    8.18
   2   4  -3   54.44    5.64
  -2   4   3   58.60    7.28
  -2   4   3   52.30    5.87
   2   4  -3   61.34    5.49
  -1  -4   3  482.48   16.39
  -1  -4   3  488.38   15.68
  -1  -4   3  521.35   18.48
   1  -4  -3  505.26   17.32
   1  -4  -3  488.73   16.00
   1  -4  -3  521.94   16.50
   1   4  -3  519.22   16.94
  -1   4   3  448.59   20.18
   1   4  -3  459.55   17.56
   1   4  -3  496.31   18.61
   1   4  -3  490.08   16.47
  -1   4   3  492.37   17.13
   0  -4  -3   29.81    4.07
   0  -4  -3   32.02    4.18
   0  -4   3   36.80    4.73
   0  -4  -3   35.59    5.32
   0  -4   3   27.13    3.59
   0  -4   3   33.61    5.43
   0   4  -3   21.65    3.71
   0   4   3   32.58    3.49
   0   4  -3   25.18    5.06
   0   4   3   42.53    5.38
   0   4  -3   30.08    4.80
   1  -4   3   98.91    9.42
  -1  -4  -3  107.92    7.31
   1  -4   3  100.83   10.50
  -1  -4  -3  119.58    7.72
  -1  -4  -3   98.22    6.89
   1  -4   3  115.06    6.06
   1  -4   3  108.53    6.55
  -1  -4  -3  116.96    7.53
   1   4   3  103.13    8.70
  -1   4  -3   97.89    6.73
   1   4   3  111.53    8.86
   1   4   3  104.83    7.95
  -1   4  -3  109.85    8.80
  -1   4  -3  110.05    6.58
   2  -4   3   50.57    5.44
   2  -4   3   62.92    6.83
   2  -4   3   44.15    6.98
   2  -4   3   57.10    6.90
  -2  -4  -3   75.84    7.66
  -2  -4  -3   61.62    9.89
  -2  -4  -3   40.84    5.84
  -2  -4  -3   45.31    6.14
   2   4   3   63.76    9.53
   2   4   3   47.99    6.96
  -2   4  -3   51.76    6.45
   2   4   3   53.39    7.07
   2   4   3   44.78    6.85
   3  -4   3   65.25    8.66
   3  -4   3   60.05    4.01
  -3  -4  -3   67.94    7.97
  -3  -4  -3   42.87    7.08
   3  -4   3   55.29    5.41
  -3  -4  -3   50.78    6.29
  -3  -4  -3   62.17    4.85
  -3  -4  -3   54.66    6.43
   3   4   3   67.46    5.46
   3   4   3   63.68    5.54
   3   4   3   60.01    6.61
   3   4   3   68.34   13.26
   3   4   3   60.92    6.82
   3   4   3   52.88    8.70
  -4  -4  -3   46.38    6.97
  -4  -4  -3   54.94    6.62
  -4  -4  -3   45.02    5.10
   4  -4   3   46.06    5.73
   4  -4   3   57.98    6.72
   4  -4   3   57.95   10.62
   4  -4   3   47.51    4.00
  -4  -4  -3   55.17    6.76
   4   4   3   46.33    6.39
   4   4   3   45.97    5.37
   4   4   3   56.48    7.31
   4   4   3   53.26    5.93
   4   4   3   35.40    9.27
   4   4   3   50.66    7.00
   4   4   3   46.36    5.52
   4   4   3   34.33    8.81
  -5  -4  -3    9.58    6.69
   5  -4   3    0.28   12.21
   5  -4   3    3.12    3.73
   5  -4   3    4.93    5.60
  -5  -4  -3    6.52    4.71
   5  -4   3   -1.21    6.87
   5  -4   3    0.86    5.26
  -5  -4  -3   -1.90    6.08
  -5  -4  -3   -4.97    6.73
   5   4   3   12.08    7.11
   5   4   3    5.99    5.22
   5   4   3    2.35    5.49
   5   4   3    6.12    6.47
   5   4   3    9.22    9.92
   5   4   3    5.23    6.70
   5   4   3    0.46    5.59
   5   4   3    8.60   10.24
   6  -5  -3   73.83    5.38
   6  -5  -3   66.55    7.93
  -6  -5   3   73.95    5.87
   6  -5  -3   78.65    7.52
   6  -5  -3   62.92    6.97
   6   5  -3   67.04   16.69
   6   5  -3   65.70    7.98
   6   5  -3   72.71    5.82
   6   5  -3   76.87    7.80
   6   5  -3   63.89    7.66
   6   5  -3   75.19    6.57
   6   5  -3   65.12    7.23
   6   5  -3   91.49    8.41
   5  -5  -3   -1.77    3.45
   5  -5  -3    4.32    7.42
   5  -5  -3   10.79    6.97
   5  -5  -3    1.52    6.80
   5  -5  -3   -5.51    5.52
  -5  -5   3   -2.33    3.38
   5  -5  -3    2.88    5.15
   5   5  -3  -10.41   12.82
   5   5  -3   -4.81    6.71
   5   5  -3    1.32    3.86
   5   5  -3    7.93    6.86
   5   5  -3    3.66    5.66
   5   5  -3    4.27    5.85
   5   5  -3    3.97    4.80
   5   5  -3   -2.24    4.65
  -4  -5   3  109.86    5.34
   4  -5  -3  104.97    5.45
   4  -5  -3  100.43    6.67
   4   5  -3  109.17    8.16
  -4   5   3  108.63    6.42
   4   5  -3  107.07    5.70
   4   5  -3  120.93    8.00
   4   5  -3  102.08    6.72
   4   5  -3  107.26    6.60
  -3  -5   3  108.18    7.59
  -3  -5   3  123.84    5.20
   3  -5  -3  107.82    9.75
   3  -5  -3  131.64    5.77
   3  -5  -3  121.95   10.98
   3   5  -3  116.73    5.92
  -3   5   3  118.73    6.33
   3   5  -3  120.69    6.92
   3   5  -3  118.68    7.72
   2  -5  -3    8.42    6.21
   2  -5  -3    7.10    6.60
  -2  -5   3   10.39    4.27
   2   5  -3    6.80    5.76
   2   5  -3    3.10    5.14
  -2   5   3    4.56    3.51
   1  -5  -3    9.31    5.35
  -1  -5   3    1.08    4.46
  -1   5   3    9.16    5.82
   1   5  -3   10.30    5.14
  -1   5   3   15.94    3.96
   1   5  -3   13.55    5.74
   1   5  -3    9.59    5.20
   0  -5  -3   18.44    3.71
   0  -5  -3   18.80    3.27
   0  -5  -3   20.32    3.37
   0  -5  -3   24.39    5.52
   0  -5   3   19.86    5.20
   0   5  -3   26.49    5.25
   0   5  -3   22.88    6.21
   0   5  -3   17.05    3.63
   0   5   3   29.81    6.46
  -1  -5  -3   92.81    4.60
  -1  -5  -3   89.18    7.69
  -1  -5  -3  102.52    7.26
  -1  -5  -3   78.50    8.97
   1  -5   3   82.44   11.02
  -1  -5  -3   73.79    7.70
   1   5   3   95.53    6.73
   1   5   3   85.43    6.12
   1   5   3   88.10   11.45
  -1   5  -3   90.14    7.27
  -2  -5  -3   88.32    7.03
  -2  -5  -3   75.12    6.34
  -2  -5  -3   70.70    9.45
  -2  -5  -3   76.33    4.66
  -2  -5  -3   72.53    6.75
   2   5   3   76.40    6.11
   2   5   3   79.80    7.05
   2   5   3   84.51    6.72
   2   5   3   75.09    5.79
  -3  -5  -3   32.96    3.79
  -3  -5  -3   21.27   10.67
  -3  -5  -3   39.29    6.12
  -3  -5  -3   26.58    6.16
   3  -5   3   32.27    5.34
   3  -5   3   31.21    3.42
  -3  -5  -3   46.84    6.28
   3   5   3   29.50    5.37
   3   5   3   34.94    7.79
   3   5   3   28.82    5.95
   3   5   3   32.32    5.15
   3   5   3   40.43    9.65
   3   5   3   26.44    6.42
  -4  -5  -3   55.00    7.06
   4  -5   3   63.41    7.49
  -4  -5  -3   59.85    7.25
   4  -5   3   50.75    4.41
  -4  -5  -3   52.35    4.84
  -4  -5  -3   58.75    7.41
   4  -5   3   59.73    7.15
   4  -5   3   59.36    6.38
   4   5   3   46.57    7.84
   4   5   3   53.61   11.65
   4   5   3   62.07    6.44
   4   5   3   55.14    6.16
   4   5   3   57.85    7.35
   4   5   3   65.48    6.77
   4   5   3   59.52    7.90
   5  -5   3   11.66    6.52
   5  -5   3   24.84    7.84
  -5  -5  -3   23.24    7.09
   5  -5   3   26.64    4.31
  -5  -5  -3   23.75    7.76
  -5  -5  -3   22.47    5.90
   5  -5   3   24.03    7.38
  -5  -5  -3   17.21    7.33
   5   5   3   13.75    8.47
   5   5   3   20.88    6.03
   5   5   3   21.38    6.15
   5   5   3   20.60   12.01
   5   5   3   10.78    8.70
   5   5   3   18.75    6.84
   5   5   3    3.65   10.81
   5  -6  -3   77.75    9.04
   5  -6  -3   83.80   11.69
   5  -6  -3   77.46    6.77
   5  -6  -3   80.16    7.50
   5  -6  -3   74.55    5.59
  -5  -6   3   82.28    5.48
   5   6  -3   80.78    7.78
   5   6  -3   76.02    8.65
   5   6  -3   69.39    9.49
   5   6  -3   82.30    5.76
   5   6  -3   71.88    7.83
   5   6  -3   74.01    6.92
   4  -6  -3   20.73    3.86
   4  -6  -3   20.07    9.33
   4  -6  -3   18.39    7.26
  -4  -6   3   17.48    3.50
   4  -6  -3   24.01    7.26
   4   6  -3   19.03    4.50
   4   6  -3   19.25    5.34
   4   6  -3   15.54    7.27
  -4   6   3   15.98    4.80
   4   6  -3   13.53    6.38
   4   6  -3   17.78    6.12
   4   6  -3    6.46    5.87
   3  -6  -3   30.41    3.79
  -3  -6   3   33.15    3.30
   3  -6  -3   24.66    6.85
   3  -6  -3   24.11    9.04
   3  -6  -3   37.77    6.06
   3   6  -3   39.73    6.25
   3   6  -3   35.18    5.47
   3   6  -3   27.60    4.39
  -3   6   3   38.36    5.13
  -3   6   3   39.23    5.09
   3   6  -3   49.25    6.76
   3   6  -3   36.39    6.37
  -2  -6   3   46.05    4.00
   2  -6  -3   59.01    7.48
   2  -6  -3   41.48    4.01
  -2   6   3   52.76    5.32
  -2   6   3   46.83    5.38
   2   6  -3   50.39    6.40
   2   6  -3   40.87    9.23
   2   6  -3   48.16    4.51
  -2   6   3   50.31    5.33
   2   6  -3   54.29    5.75
   1  -6  -3   29.61    3.53
   1  -6  -3   36.42    8.12
  -1  -6   3   35.45    3.22
   1   6  -3   35.67    6.38
  -1   6   3   32.10    5.87
  -1   6   3   33.47    5.11
   1   6  -3   24.08    5.32
  -1   6   3   31.44    5.00
   0  -6  -3   14.85    6.41
   0  -6  -3   10.89    4.06
   0  -6  -3   11.03    2.98
   0  -6   3    9.64    2.57
   0   6  -3    7.58    5.77
   0   6   3    8.37    5.07
   0   6   3    8.83    5.56
   0   6  -3   12.48    5.68
   0   6   3    0.87    5.28
  -1  -6  -3   19.47    6.07
  -1  -6  -3    7.47    3.08
   1  -6   3    5.58    2.48
  -1  -6  -3   10.70    6.01
  -1  -6  -3   18.07    5.74
   1   6   3    8.83    6.45
   1   6   3   20.00    6.17
   1   6   3   15.15    5.19
  -1   6  -3   10.83    8.24
   1   6   3    3.44    4.96
   1   6   3   16.92    5.52
  -2  -6  -3   48.84    6.44
  -2  -6  -3   39.78    6.16
  -2  -6  -3   53.65    7.05
   2  -6   3   40.95    6.41
  -2  -6  -3   43.11    4.07
   2   6   3   47.15    5.56
   2   6   3   41.88    7.20
   2   6   3   42.78    6.77
   2   6   3   38.93    7.10
   2   6   3   48.12    5.92
  -3  -6  -3   54.10    6.96
  -3  -6  -3   65.83    7.25
  -3  -6  -3   70.75    5.52
  -3  -6  -3   72.55    7.64
   3  -6   3   73.74    7.41
   3   6   3   69.10    7.98
   3   6   3   73.00    6.70
   3   6   3   65.72    8.32
   3   6   3   66.03    7.42
   3   6   3   75.04   12.22
   3   6   3   68.70    6.69
   4  -6   3   20.38    6.27
  -4  -6  -3    3.60    6.90
   4  -6   3   13.69    6.18
  -4  -6  -3    8.89    4.25
  -4  -6  -3   18.51    7.01
  -4  -6  -3   12.40    7.31
   4   6   3   10.26    6.78
   4   6   3    8.81    8.09
   4   6   3   12.26    5.97
   4   6   3   39.66   12.34
   4   6   3   15.25    5.95
   4   6   3   11.76    7.32
   4  -7  -3   35.03    4.40
   4  -7  -3   32.06    8.24
  -4  -7   3   32.56    4.07
   4  -7  -3   65.05   12.14
   4  -7  -3   32.47    7.86
   4   7  -3   50.00    9.03
   4   7  -3   44.49    7.44
   4   7  -3   29.12    6.67
   4   7  -3   38.31    6.18
   4   7  -3   36.39    5.07
  -3  -7   3   39.31    3.71
   3  -7  -3   42.27    7.13
   3  -7  -3   44.42    7.57
   3  -7  -3   48.80   10.92
   3  -7  -3   33.76    4.31
   3   7  -3   47.44    6.28
   3   7  -3   48.22    6.94
   3   7  -3   44.19    7.12
   3   7  -3   52.28    5.27
  -3   7   3   50.66    5.83
   2  -7  -3   26.91    7.21
   2  -7  -3   26.75   10.61
   2  -7  -3   29.34    3.97
   2  -7  -3   30.08    7.78
  -2  -7   3   29.97    3.36
   2   7  -3   43.87    6.47
  -2   7   3   31.97    5.56
   2   7  -3   37.48    5.58
   2   7  -3   29.12    5.94
  -2   7   3   37.70    5.53
   1  -7  -3    1.25    3.31
  -1  -7   3    0.18    2.86
   1  -7  -3   -1.20    5.23
   1  -7  -3   11.17    7.56
  -1   7   3    8.05    5.28
   1   7  -3   -1.44    5.12
   1   7  -3   -4.15    5.66
   1   7  -3    9.12    5.02
  -1   7   3    8.15    6.30
  -1   7   3   -0.04    4.99
  -1   7   3    6.52    5.40
   0  -7   3   45.32    3.75
   0  -7  -3   45.68    4.07
   0  -7  -3   36.69    7.13
   0  -7  -3   41.69    5.20
   0  -7  -3   35.47    7.92
   0  -7  -3   36.01    7.46
   0   7   3   40.90    6.11
   0   7  -3   40.67    6.27
   0   7   3   42.46    6.37
   0   7   3   39.02    7.06
   0   7   3   42.33    6.03
   1  -7   3   61.39    4.13
  -1  -7  -3   65.87    7.09
  -1  -7  -3   65.66    4.86
  -1  -7  -3   66.40    7.65
  -1  -7  -3   61.78    7.74
   1   7   3   61.68    7.16
   1   7   3   69.91    7.68
  -1   7  -3   53.70    7.10
   1   7   3   62.56    8.13
   1   7   3   55.59    8.02
  -2  -7  -3   19.61    3.86
  -2  -7  -3   32.29    7.53
   2  -7   3    4.01   10.98
  -2  -7  -3   31.48    7.40
  -2  -7  -3   20.17    7.17
   2   7   3   19.92    7.44
   2   7   3   33.70    6.14
   2   7   3   22.98    7.13
   2   7   3   30.47    7.24
   2   7   3   35.14    8.16
   1  -8  -3   47.72    5.97
   1  -8  -3   47.55    4.43
  -1  -8   3   60.92    4.69
   1  -8  -3   54.33    9.63
   1   8  -3   39.16    6.39
  -1   8   3   48.25    6.45
  -1   8   3   52.83    6.65
  -1   8   3   59.83    7.65
   1   8  -3   40.45    7.03
   8   0  -4   67.26    7.38
   8   0  -4   77.89    8.78
   8   0  -4   81.40   14.47
   8   0  -4   83.47    8.43
   8   0  -4   63.56    7.68
   8   0  -4   80.38    8.60
   8   0  -4   68.42    7.97
   8   0  -4   85.07    7.60
   8   0  -4   72.63    7.55
   7   0  -4    1.13    5.82
   7   0  -4   -5.78    5.12
   7   0  -4  -11.58    5.18
   7   0  -4    1.37    6.69
   7   0  -4    1.27    5.25
   7   0  -4   -0.46    5.52
   7   0  -4   -6.29    4.62
   7   0  -4    0.63    6.09
   7   0  -4   -1.99    6.58
   7   0  -4   18.55   10.83
   6   0  -4   34.68    8.39
  -6   0   4   32.15    7.79
   6   0  -4   25.84    8.97
   6   0  -4   26.29    5.91
   6   0  -4   24.46    7.28
   6   0  -4   29.31    5.74
  -6   0   4   23.75    7.56
  -6   0   4   31.06    8.67
   6   0  -4   33.95    5.41
   6   0  -4   25.49    6.17
  -5   0   4    1.67    5.63
   5   0  -4    7.48    7.26
   5   0  -4   -0.05    6.11
  -5   0   4    1.42    6.53
   5   0  -4   -2.36    4.99
   5   0  -4   -4.24    5.51
   5   0  -4    7.14    6.04
  -5   0   4    8.90    5.66
  -4   0   4   74.66    8.97
   4   0  -4   60.91    6.42
  -4   0   4   61.23    8.07
  -4   0   4   73.68    7.84
   4   0  -4   63.08    8.38
   4   0  -4   71.32    8.58
   4   0  -4   69.21    9.94
   4   0  -4   59.56    9.07
   3   0  -4  292.48   11.87
  -3   0   4  292.14   12.33
  -3   0   4  262.43   14.32
   3   0  -4  287.37   11.93
   3   0  -4  256.56   14.89
  -3   0   4  272.56   13.98
   3   0  -4  270.85   10.79
   3   0  -4  270.04   11.81
   2   0  -4   -0.36    3.63
   2   0  -4    2.09    4.00
   2   0  -4    5.70    3.68
   2   0  -4   -1.70    4.33
   2   0  -4    7.22    4.05
  -2   0   4    0.90    3.28
  -2   0   4    1.75    4.03
  -2   0   4    1.75    3.91
  -1   0   4  484.84   17.52
  -1   0   4  488.30   17.13
  -1   0   4  490.37   16.81
   1   0  -4  484.26   16.70
   1   0  -4  453.37   16.79
   1   0  -4  486.29   17.53
   0   0   4   75.05   10.97
   0   0   4   97.39    8.18
   0   0  -4   99.11    7.28
   0   0  -4   97.84    6.43
   0   0   4  113.27    7.98
   0   0  -4  106.74    8.12
  -1   0  -4    8.59    4.96
   1   0   4    7.73    5.88
   1   0   4    4.05    4.64
  -1   0  -4   10.85    6.74
  -1   0  -4    5.16    4.96
   1   0   4    2.04    4.94
   2   0   4   -2.49    6.11
   2   0   4    9.62   11.69
   2   0   4    2.30    5.41
   2   0   4  -10.76    5.33
  -2   0  -4    4.81    6.30
  -2   0  -4   -0.81    5.62
  -2   0  -4    3.81    5.71
  -3   0  -4   19.59    7.28
   3   0   4   23.26    8.41
  -3   0  -4   22.89    6.91
   3   0   4   10.43    7.81
   3   0   4    1.49    6.40
   3   0   4   14.05    5.12
   3   0   4   20.29    6.33
  -3   0  -4   19.30    5.54
  -4   0  -4  182.86   10.76
   4   0   4  187.41    9.09
   4   0   4  189.57    9.33
  -4   0  -4  196.59   11.40
  -4   0  -4  181.33   12.72
   4   0   4  195.13    9.38
   4   0   4  212.44   14.37
  -4   0  -4  196.76   16.21
  -5   0  -4   26.55    8.29
   5   0   4   20.56    7.07
   5   0   4   48.25   10.39
   5   0   4   19.59    6.30
   5   0   4   17.82    5.11
   5   0   4   23.23    5.50
   5   0   4   28.05    7.01
   5   0   4   15.58    6.00
   6   0   4   36.35    8.15
   6   0   4   31.72    7.99
   6   0   4   18.19    6.85
   6   0   4   30.36    7.39
   6   0   4   63.81   12.49
   6   0   4   40.27    7.26
  -6   0  -4   27.44    8.37
   6   0   4   30.93    6.67
   8  -1  -4    1.73    7.57
   8  -1  -4   -4.95    6.54
   8  -1  -4    4.76    7.38
   8  -1  -4    8.58    6.24
   8  -1  -4   -0.42    6.40
   8  -1  -4    2.35    5.32
   8  -1  -4    3.83    8.56
   8  -1  -4   17.43   12.63
   8  -1  -4   10.32    7.12
   8   1  -4    1.93    5.36
   8   1  -4    3.11    6.64
   8   1  -4    5.39    6.27
   8   1  -4   -1.72    7.59
   8   1  -4   11.08    7.73
   8   1  -4  -22.29   12.26
   8   1  -4   -3.56    7.65
   8   1  -4    4.42    7.28
   8   1  -4   -3.75    6.57
   7  -1  -4    2.94    4.66
   7  -1  -4    4.80    5.38
   7  -1  -4   -2.31    6.05
   7  -1  -4    9.40    6.17
   7  -1  -4   16.87    6.04
   7  -1  -4    6.01    5.44
   7  -1  -4   15.47    7.48
   7  -1  -4   12.58    5.30
   7  -1  -4   15.45   10.34
   7  -1  -4    6.23    5.56
   7   1  -4   10.71    4.81
   7   1  -4   17.03    6.05
   7   1  -4   -9.62   10.16
   7   1  -4    7.15    4.97
   7   1  -4    5.04    7.31
   7   1  -4    7.83    5.71
   7   1  -4    5.78    6.55
   7   1  -4   14.31    6.86
   7   1  -4   10.28    5.24
   6  -1  -4   97.48    6.64
   6  -1  -4  107.04    7.39
   6  -1  -4  103.27    6.99
  -6  -1   4  114.01   10.98
   6  -1  -4   98.40    7.42
   6  -1  -4  110.66   11.69
   6  -1  -4  103.02    7.17
  -6  -1   4  103.43   13.11
   6  -1  -4  106.11    6.18
   6  -1  -4   98.83   12.15
   6   1  -4  105.28    6.90
  -6   1   4  105.22   12.66
   6   1  -4  101.70    7.11
   6   1  -4   97.62   11.21
  -6   1   4  106.70   12.43
  -6   1   4   87.90   12.29
   6   1  -4  106.86   11.58
   6   1  -4  114.45    7.94
   6   1  -4  109.34    7.12
   6   1  -4  108.60   13.15
   5  -1  -4   35.81    7.97
   5  -1  -4   39.46    6.34
  -5  -1   4   43.37    7.94
  -5  -1   4   36.62    6.75
   5  -1  -4   41.35    5.71
  -5  -1   4   38.87    6.64
   5  -1  -4   37.61    7.37
   5  -1  -4   43.05    6.27
   5   1  -4   40.54    6.87
  -5   1   4   35.09    7.01
   5   1  -4   53.40    8.84
   5   1  -4   32.25    5.23
   5   1  -4   38.70    6.99
   5   1  -4   36.54    6.77
  -5   1   4   63.61    9.47
  -5   1   4   45.68    7.30
   4  -1  -4   25.54    6.45
   4  -1  -4   28.78    5.36
  -4  -1   4   24.95    5.96
  -4  -1   4   31.45    5.44
  -4  -1   4   21.10    5.03
   4  -1  -4   28.06    5.65
   4  -1  -4   26.28    5.13
   4  -1  -4   27.68    8.46
  -4   1   4   22.98    8.49
   4   1  -4   20.86    5.38
   4   1  -4   25.54    4.94
  -4   1   4   27.70    6.05
   4   1  -4   26.81    6.10
   4   1  -4   28.88    5.63
  -4   1   4   21.87    5.90
   4   1  -4   22.23    6.73
   3  -1  -4  162.13    8.44
   3  -1  -4  165.08    9.64
  -3  -1   4  171.75   10.01
  -3  -1   4  158.65    9.03
   3  -1  -4  167.52    9.24
  -3  -1   4  165.83    8.84
   3  -1  -4  161.47    8.86
   3  -1  -4  162.60    8.67
   3   1  -4  160.88    9.13
   3   1  -4  153.27    9.22
  -3   1   4  163.76    9.27
   3   1  -4  173.11    9.29
  -3   1   4  168.37    8.28
  -3   1   4  164.60    9.14
   3   1  -4  165.94    7.88
   3   1  -4  162.18    9.37
   2  -1  -4   85.55    6.68
   2  -1  -4   92.39    7.30
  -2  -1   4   90.23    7.42
  -2  -1   4   86.83    6.68
  -2  -1   4   86.67    6.28
   2  -1  -4   89.37    7.17
   2  -1  -4   89.40    6.33
   2  -1  -4   97.88    6.23
   2   1  -4   89.07    7.44
  -2   1   4   89.81    7.57
   2   1  -4   89.90    6.96
   2   1  -4   72.05    6.19
   2   1  -4   92.53    6.03
  -2   1   4   83.74    6.60
  -2   1   4   84.98    5.94
   2   1  -4   76.52    6.53
  -1  -1   4   38.81    5.74
  -1  -1   4   49.95    6.71
   1  -1  -4   46.76    6.09
  -1  -1   4   46.31    5.26
   1  -1  -4   49.30    5.21
   1  -1  -4   50.95    6.34
   1   1  -4   36.87    5.21
  -1   1   4   48.75    6.45
  -1   1   4   39.75    5.60
   1   1  -4   46.93    5.36
   1   1  -4   51.49    5.94
  -1   1   4   42.38    5.31
   0  -1  -4   16.31    4.66
   0  -1  -4    8.72    4.47
   0  -1  -4   15.32    4.75
   0  -1   4   11.61    5.31
   0  -1   4    7.25    3.76
   0  -1   4    4.24    4.11
   0   1   4    5.73    4.69
   0   1  -4   13.01    5.16
   0   1  -4    5.10    4.51
   0   1  -4   13.50    4.03
   0   1   4    8.00    5.00
   1  -1   4  101.23    8.00
  -1  -1  -4   96.91    6.90
  -1  -1  -4  101.88    9.18
  -1  -1  -4  118.15    9.15
   1  -1   4  112.44    9.94
   1  -1   4   97.78    7.47
   1   1   4  104.21    8.59
  -1   1  -4  110.50    7.62
   1   1   4  100.25   11.92
  -1   1  -4  106.83    8.06
   1   1   4   93.80    8.66
  -1   1  -4  106.39    9.54
   1   1   4  109.77   10.21
   2  -1   4  139.04   10.22
   2  -1   4  146.00   10.49
  -2  -1  -4  139.26   10.55
   2  -1   4  149.12    9.50
  -2  -1  -4  159.11   10.56
   2  -1   4  157.29   12.11
  -2  -1  -4  140.82    8.37
   2   1   4  161.36   11.94
   2   1   4  154.74   10.57
  -2   1  -4  162.56   11.69
   2   1   4  150.26   10.89
   2   1   4  156.27   10.31
  -2   1  -4  150.66   10.31
  -2   1  -4  148.35    9.19
  -3  -1  -4    9.51    6.35
  -3  -1  -4    1.06    5.46
  -3  -1  -4    4.08    6.65
   3  -1   4    1.30    7.40
   3  -1   4    4.34    4.87
  -3  -1  -4    9.01    7.09
   3  -1   4   -2.53    5.60
   3  -1   4   -5.75    7.80
  -3   1  -4    0.36    7.47
  -3   1  -4    7.75    6.88
   3   1   4   -2.25    6.43
   3   1   4    3.76    5.53
   3   1   4   -2.96    8.31
   3   1   4    9.40    7.43
   3   1   4   -0.89    6.69
   3   1   4    5.63    4.90
  -3   1  -4   14.28    6.17
   4  -1   4    8.70    4.15
   4  -1   4    0.93    5.73
   4  -1   4    4.95    5.10
  -4  -1  -4   14.84   12.96
  -4  -1  -4    4.99    6.13
   4  -1   4    5.84    8.59
  -4  -1  -4    2.48    6.06
   4  -1   4   12.59    6.13
  -4  -1  -4   -2.74    7.57
   4   1   4    7.77    5.93
   4   1   4    1.79    5.35
  -4   1  -4    2.34    6.67
   4   1   4   -0.15    5.20
   4   1   4   19.98   11.50
   4   1   4   -2.15    7.91
   4   1   4   -9.33    9.50
   4   1   4    4.17    5.24
  -4   1  -4   -3.81   10.18
   5  -1   4    7.44    6.35
   5  -1   4   21.78    4.69
   5  -1   4   21.38    6.13
  -5  -1  -4   13.05    5.85
  -5  -1  -4   18.43    6.85
  -5  -1  -4   19.38    7.65
   5  -1   4   23.77    9.51
   5  -1   4   22.51    6.68
   5  -1   4   13.05    6.03
  -5  -1  -4   12.25    7.87
   5   1   4   26.96    6.07
  -5   1  -4   10.51    6.73
   5   1   4   19.29    6.63
   5   1   4   13.81    6.29
   5   1   4   37.59   10.78
   5   1   4   28.03    6.62
   5   1   4   12.26    6.41
   8  -2  -4   36.85    7.45
   8  -2  -4   37.83    7.45
   8  -2  -4   47.85    5.77
   8  -2  -4   37.92    9.18
   8  -2  -4   48.45    8.14
   8  -2  -4   47.94    7.05
   8  -2  -4   63.99   13.26
  -8  -2   4   50.30    6.80
   8  -2  -4   47.49    7.60
   8   2  -4   21.76   14.77
   8   2  -4   52.24    7.32
   8   2  -4   30.46    9.68
   8   2  -4   44.57    6.47
   8   2  -4   43.06    8.97
   8   2  -4   37.22    7.15
   8   2  -4   51.10    7.41
   8   2  -4   52.57    6.00
   8   2  -4   54.42    8.60
   7  -2  -4   33.33    6.57
   7  -2  -4   29.32    6.29
   7  -2  -4   32.37    6.24
   7  -2  -4   28.97    4.99
   7  -2  -4   24.44    9.79
   7  -2  -4   44.21    6.55
   7  -2  -4   35.50    7.29
   7  -2  -4   34.97    6.98
  -7  -2   4   31.99    5.59
   7   2  -4   32.63    6.36
   7   2  -4   29.81    5.82
   7   2  -4   29.89    6.79
   7   2  -4   32.03    5.72
   7   2  -4   35.18    8.06
   7   2  -4    6.58   11.67
   7   2  -4   33.20    6.16
   7   2  -4   35.33    4.95
   7   2  -4   29.89    7.29
   6  -2  -4   21.98    9.01
   6  -2  -4   15.46    5.65
   6  -2  -4   18.12    5.48
   6  -2  -4   10.18    6.00
   6  -2  -4   19.34    4.63
  -6  -2   4   17.09    4.28
   6  -2  -4   14.69    7.23
   6  -2  -4   17.85    5.56
   6  -2  -4   18.13    5.66
  -6   2   4   15.79    4.55
   6   2  -4   24.57    5.57
   6   2  -4   12.27    4.95
   6   2  -4   12.83    8.68
   6   2  -4   20.43    6.22
   6   2  -4   21.80    4.77
   6   2  -4    2.00    5.79
   6   2  -4   20.38    4.05
  -6   2   4   16.78    8.38
   6   2  -4   14.41   10.31
  -5  -2   4   85.48    9.08
   5  -2  -4   65.48    5.80
  -5  -2   4   63.15    8.70
   5  -2  -4   55.27    8.09
  -5  -2   4   69.21    9.31
   5  -2  -4   57.65    6.82
   5  -2  -4   53.44    6.24
   5  -2  -4   74.67    9.94
   5   2  -4   61.54    8.29
   5   2  -4   78.85   10.39
  -5   2   4   54.02    7.52
   5   2  -4   71.62    7.96
   5   2  -4   63.71    5.99
   5   2  -4   72.04    9.73
  -5   2   4   67.62    9.81
   5   2  -4   76.23    9.11
  -5   2   4   72.05    9.91
   4  -2  -4  134.19    8.38
  -4  -2   4  133.22    8.93
   4  -2  -4  127.62    7.96
   4  -2  -4  125.97    9.85
   4  -2  -4  125.38   10.51
  -4  -2   4  125.51    8.28
   4  -2  -4  125.32    8.22
  -4  -2   4  136.06   10.86
   4   2  -4  124.66    7.37
  -4   2   4  130.19   10.03
   4   2  -4  136.85   10.43
   4   2  -4  130.19    9.80
  -4   2   4  118.73    8.90
  -4   2   4  121.11    8.68
   4   2  -4  135.17    9.12
   4   2  -4  131.20   10.72
  -3  -2   4   56.52    6.72
  -3  -2   4   57.03    6.89
   3  -2  -4   62.15    5.50
   3  -2  -4   63.91    8.23
   3  -2  -4   63.28    6.38
   3  -2  -4   55.00    7.83
  -3  -2   4   47.49    5.98
   3  -2  -4   59.21    6.12
   3   2  -4   55.73    6.35
  -3   2   4   64.38    5.51
   3   2  -4   46.14    5.98
   3   2  -4   55.33    7.67
  -3   2   4   51.70    6.43
   3   2  -4   49.95    5.70
   3   2  -4   61.22    7.43
  -3   2   4   59.50    8.07
  -2  -2   4   20.57    5.40
   2  -2  -4   21.64    5.01
   2  -2  -4   18.63    5.01
  -2  -2   4   17.07    4.42
   2  -2  -4   25.19    4.55
  -2  -2   4   23.86    4.10
  -2   2   4   20.69    2.76
  -2   2   4   20.75    4.13
   2   2  -4   27.31    4.89
   2   2  -4   22.66    5.34
  -2   2   4   25.14    5.23
   2   2  -4   25.72    4.47
   2   2  -4   16.46    4.11
   2   2  -4   16.15    3.83
  -1  -2   4  160.81    8.57
   1  -2  -4  156.41    8.96
   1  -2  -4  156.14    9.22
  -1  -2   4  144.30    9.36
  -1  -2   4  156.74    9.72
   1  -2  -4  148.86    8.16
  -1   2   4  156.60    8.64
  -1   2   4  158.04    6.88
   1   2  -4  149.43    8.09
  -1   2   4  165.92    9.67
   1   2  -4  161.60    7.82
   1   2  -4  155.57    9.30
   1   2  -4  151.21    9.08
   0  -2   4   99.11    8.33
   0  -2  -4  101.03    8.66
   0  -2   4   89.23    7.64
   0  -2   4  103.01    9.35
   0  -2  -4   92.44    6.94
   0  -2  -4  109.71    7.97
   0   2  -4  106.46    7.45
   0   2  -4  102.54    9.01
   0   2   4  111.08    9.16
   0   2   4  110.27    8.36
   0   2   4  104.57    7.27
   0   2  -4   99.18    7.00
   1  -2   4   23.96    5.69
   1  -2   4   26.78    5.44
   1  -2   4   30.24    5.01
   1  -2   4   30.71    6.43
  -1  -2  -4   31.69    6.21
  -1  -2  -4   34.61    5.58
  -1  -2  -4   34.50    5.47
   1   2   4   30.80    5.45
  -1   2  -4   19.35    6.21
  -1   2  -4   27.23    6.32
   1   2   4   23.61    6.07
   1   2   4   46.47    6.76
   1   2   4   31.79    6.78
  -1   2  -4   33.40    4.70
  -2  -2  -4   29.70    6.72
  -2  -2  -4   37.29    6.57
   2  -2   4   34.10    8.13
  -2  -2  -4   31.80    6.34
   2  -2   4   32.01    7.21
   2  -2   4   41.12    6.03
   2   2   4   39.76    6.59
  -2   2  -4   35.42    5.38
  -2   2  -4   38.48    7.35
   2   2   4   42.57    7.80
  -2   2  -4   22.29    6.64
   2   2   4   33.88    7.89
   2   2   4   34.39    6.69
   3  -2   4  101.54   10.93
  -3  -2  -4  103.78   11.05
  -3  -2  -4  104.49   11.45
  -3  -2  -4   95.98    7.59
   3  -2   4   91.78    7.43
  -3  -2  -4   71.24   10.32
   3  -2   4   94.99    5.45
   3   2   4   89.52   10.59
   3   2   4   95.32    6.87
  -3   2  -4  103.63   12.92
   3   2   4  118.43   10.66
   3   2   4   97.12    7.54
   3   2   4   83.90   11.70
  -4  -2  -4  121.35    8.52
  -4  -2  -4  119.19    6.59
   4  -2   4  107.46    5.84
  -4  -2  -4  101.11    8.28
  -4  -2  -4  117.41    7.11
  -4  -2  -4  113.92    8.85
   4  -2   4  113.49    7.77
   4  -2   4  117.06    7.65
   4  -2   4  108.01    7.36
   4  -2   4  123.63   13.68
   4   2   4   99.06    7.48
   4   2   4   97.55    9.25
   4   2   4  136.33   13.13
   4   2   4   98.48    7.59
  -4   2  -4  116.14    8.92
   4   2   4  118.18    6.74
   4   2   4  101.60    7.78
   4   2   4   89.75   13.22
  -5  -2  -4    5.86    7.95
   5  -2   4   19.24    6.19
   5  -2   4   18.05    6.15
   5  -2   4   13.00    4.71
   5  -2   4   15.49    6.66
  -5  -2  -4   21.87    6.95
  -5  -2  -4   21.30    6.25
   5  -2   4   17.33   10.35
  -5  -2  -4   21.69    6.03
  -5  -2  -4   21.76    8.62
   5   2   4   12.07    6.80
   5   2   4   18.10    5.33
   5   2   4    7.73    5.50
   5   2   4   26.01   10.01
   5   2   4    6.91    6.20
  -5   2  -4   20.03    8.66
   5   2   4   13.46    6.20
   5   2   4   21.53    6.56
   7  -3  -4    9.46    6.47
   7  -3  -4    2.84    6.36
   7  -3  -4    6.58    4.84
   7  -3  -4    3.32    5.60
  -7  -3   4   12.68    4.59
   7  -3  -4   13.68    6.50
   7  -3  -4    5.12    9.68
   7  -3  -4    6.83    6.25
   7   3  -4    7.36    6.04
   7   3  -4    5.73   13.28
   7   3  -4   12.45    4.62
   7   3  -4   -1.37    7.54
   7   3  -4    6.65    5.63
   7   3  -4   15.94    6.87
   7   3  -4    8.68    5.15
   7   3  -4    6.89    6.13
   7   3  -4   -5.86    5.92
   6  -3  -4  135.91    8.16
   6  -3  -4  144.97    8.24
  -6  -3   4  128.57    6.74
   6  -3  -4  147.99    8.28
   6  -3  -4  162.28   13.34
   6  -3  -4  140.49    7.31
   6  -3  -4  129.77    8.30
   6   3  -4  140.39   18.08
   6   3  -4  128.92    8.29
  -6   3   4  142.23    7.37
   6   3  -4  136.69    7.73
   6   3  -4  149.88    9.35
   6   3  -4  134.18    8.14
   6   3  -4  136.62    7.42
   6   3  -4  141.59    6.89
   6   3  -4  142.15    8.09
   5  -3  -4   79.09    5.12
   5  -3  -4   76.68    5.92
   5  -3  -4   71.22    7.02
   5  -3  -4   79.31    6.68
   5  -3  -4   82.00    9.42
  -5  -3   4   74.74    4.95
   5   3  -4   74.60    5.09
   5   3  -4   91.25   12.25
   5   3  -4   72.48    6.10
  -5   3   4   82.88    5.62
   5   3  -4   83.07    7.09
   5   3  -4   85.03    6.80
   4  -3  -4   22.72    4.33
   4  -3  -4   34.78    5.12
   4  -3  -4   21.40    6.68
  -4  -3   4   22.37    5.59
   4  -3  -4   23.21    6.24
  -4  -3   4   22.71    6.96
   4  -3  -4   26.37    6.31
   4   3  -4   27.00    6.87
   4   3  -4   24.44    5.11
  -4   3   4   18.72    5.20
   4   3  -4   27.99   14.41
  -4   3   4   21.86    6.47
   4   3  -4   25.78    6.39
   4   3  -4    9.58    5.46
   3  -3  -4  214.38   11.67
   3  -3  -4  223.01    9.98
  -3  -3   4  208.44   11.62
  -3  -3   4  224.04   10.00
   3  -3  -4  220.61   10.21
  -3  -3   4  225.00   11.44
   3  -3  -4  236.62   12.78
  -3   3   4  225.60   11.79
   3   3  -4  219.11   11.65
   3   3  -4  241.64   10.04
   3   3  -4  194.46   11.71
  -3   3   4  229.59   10.63
   3   3  -4  219.31   10.35
   3   3  -4  235.96   12.55
  -2  -3   4   24.69    4.16
  -2  -3   4   19.89    5.60
   2  -3  -4   23.80    5.75
   2  -3  -4   27.51    6.40
   2  -3  -4   18.64    4.34
  -2  -3   4   20.72    4.86
  -2   3   4   34.79    5.80
  -2   3   4   22.60    4.63
   2   3  -4   27.06    5.88
   2   3  -4   33.75    4.86
   2   3  -4   28.13    4.47
   2   3  -4   29.34    5.68
   1  -3  -4   52.46    6.34
   1  -3  -4   46.04    5.66
  -1  -3   4   43.84    5.69
   1  -3  -4   43.51    6.01
  -1  -3   4   48.02    7.44
   1   3  -4   43.54    6.42
   1   3  -4   40.85    5.40
   1   3  -4   41.55    5.90
  -1   3   4   44.84    6.37
  -1   3   4   55.21    6.89
   1   3  -4   47.05    6.36
   0  -3   4   20.85    4.51
   0  -3  -4   16.78    5.78
   0  -3   4   28.87    6.78
   0  -3  -4   24.63    5.42
   0  -3  -4   22.04    5.47
   0  -3   4   13.19    5.04
   0   3   4   28.29    5.29
   0   3   4   12.56    3.72
   0   3   4   25.22    6.23
   0   3  -4   22.68    5.18
   0   3  -4   23.31    6.20
   0   3  -4   20.76    4.29
  -1  -3  -4   75.20    7.87
   1  -3   4   52.73    7.12
  -1  -3  -4   71.30    9.24
   1  -3   4   53.54    7.24
  -1  -3  -4   69.96    6.74
   1  -3   4   57.80   10.85
   1   3   4   61.65    7.78
   1   3   4   73.60    8.53
   1   3   4   79.20   10.06
  -1   3  -4   55.10    7.39
   1   3   4   52.22    8.05
  -1   3  -4   64.56    7.08
  -1   3  -4   68.92    6.83
  -2  -3  -4  365.39   12.52
   2  -3   4  368.85   12.20
  -2  -3  -4  346.42   15.70
   2  -3   4  361.27   15.04
  -2  -3  -4  372.56   13.85
  -2  -3  -4  366.48   16.40
  -2  -3  -4  396.53   18.37
   2   3   4  380.08   13.68
   2   3   4  353.04   17.21
   2   3   4  375.59   16.42
  -2   3  -4  382.08   21.82
  -2   3  -4  326.92   14.20
   2   3   4  367.30   16.42
   2   3   4  384.95   17.78
  -3  -3  -4    4.91    5.65
  -3  -3  -4    8.59    4.21
   3  -3   4    3.16    3.23
  -3  -3  -4    5.95    5.82
  -3  -3  -4    5.20    5.67
  -3  -3  -4    6.35    4.05
   3  -3   4    8.74    8.16
   3  -3   4    5.98    4.84
   3   3   4   -0.97    5.39
   3   3   4    7.84    4.49
   3   3   4    2.20    8.18
   3   3   4    5.44    4.89
   3   3   4    3.94    4.99
   3   3   4    6.48    6.45
  -4  -3  -4   63.27    6.12
  -4  -3  -4   62.12    7.35
   4  -3   4   49.36    6.62
   4  -3   4   57.82    4.57
   4  -3   4   56.12    6.22
   4  -3   4   48.60    7.15
   4  -3   4   72.95   11.45
  -4  -3  -4   63.30    7.30
  -4  -3  -4   55.37    5.47
  -4  -3  -4   56.06    7.65
   4   3   4   52.52    5.80
  -4   3  -4   39.68    8.21
   4   3   4   42.77    6.71
   4   3   4   63.06    7.67
   4   3   4   62.00    6.43
   4   3   4   59.00    8.56
   4   3   4   62.67    6.62
   4   3   4   63.89   10.72
   5  -3   4   39.97    7.73
  -5  -3  -4   53.20    9.36
  -5  -3  -4   33.93    7.30
   5  -3   4   32.15   17.96
  -5  -3  -4   49.41    6.40
   5  -3   4   36.20    6.94
   5  -3   4   42.47    4.92
  -5  -3  -4   55.49    6.70
   5  -3   4   44.17    7.06
  -5  -3  -4   42.50    8.55
   5   3   4   47.19    8.97
   5   3   4   46.87    8.02
  -5   3  -4   34.38   10.01
   5   3   4   36.32    6.27
   5   3   4   66.54   12.36
   5   3   4   56.60    7.54
   5   3   4   38.44    6.99
   5   3   4   47.46    6.19
   7  -4  -4   24.38    6.83
   7  -4  -4   14.60   11.09
   7  -4  -4   23.10    6.89
   7  -4  -4   11.90   10.65
   7  -4  -4    9.20    7.01
   7  -4  -4   22.40    7.62
  -7  -4   4   19.55    5.12
   7  -4  -4   15.33    7.18
   7   4  -4   35.73   12.07
   7   4  -4   26.23    7.98
   7   4  -4   19.67    7.96
   7   4  -4   19.56    6.67
   7   4  -4   36.19   15.21
   7   4  -4   12.08    6.77
   7   4  -4   29.99    6.10
   7   4  -4   24.11    4.81
   7   4  -4   14.56    5.79
   6  -4  -4    9.07    8.04
  -6  -4   4    8.35    4.21
   6  -4  -4    4.51    6.22
   6  -4  -4    2.15    5.95
   6  -4  -4   10.40    4.41
   6  -4  -4    6.12    5.44
   6  -4  -4   19.35    6.06
   6   4  -4    9.26    6.62
   6   4  -4   12.19    7.27
   6   4  -4   11.69    6.24
   6   4  -4    7.95    4.83
   6   4  -4    7.71    7.27
   6   4  -4   31.27   15.13
   6   4  -4   10.46    4.41
   6   4  -4   15.98    5.43
  -5  -4   4   54.52    4.77
   5  -4  -4   53.89    9.58
   5  -4  -4   47.89    5.62
   5  -4  -4   47.43    6.58
   5  -4  -4   53.44    6.84
   5  -4  -4   42.30    7.11
   5  -4  -4   49.81    4.74
   5   4  -4   48.11    8.68
   5   4  -4   54.91    4.97
  -5   4   4   44.88    5.36
   5   4  -4   50.83    5.46
   5   4  -4   50.62    6.63
   5   4  -4   52.33    5.89
   5   4  -4   49.43    5.82
   5   4  -4   45.35   14.61
   5   4  -4   46.95    6.86
   4  -4  -4   86.34    9.32
   4  -4  -4   81.93    6.83
   4  -4  -4   74.57    8.35
   4  -4  -4   74.05    5.98
  -4  -4   4   79.27    4.74
   4  -4  -4   72.87    5.20
   4   4  -4   68.20    6.86
  -4   4   4   78.10    5.45
   4   4  -4   73.03    6.46
   4   4  -4   83.38    6.64
   4   4  -4   72.40    5.01
  -3  -4   4   22.85    3.32
   3  -4  -4   31.76    4.23
   3  -4  -4   18.54    7.35
  -3  -4   4   40.59    5.71
   3  -4  -4   20.49    6.35
   3  -4  -4   33.73    7.92
   3  -4  -4   23.02    3.92
  -3   4   4   21.82    4.39
   3   4  -4   29.04    5.88
   3   4  -4   22.32    4.98
  -2  -4   4   17.78    3.34
  -2  -4   4   17.86    5.47
  -2  -4   4    3.42    5.86
   2  -4  -4    9.78    5.83
   2  -4  -4   10.28    5.93
   2  -4  -4   17.19    3.70
   2   4  -4   18.94    6.75
   2   4  -4   11.22    5.98
  -2   4   4   13.37    5.98
   2   4  -4   15.98    5.58
  -2   4   4   13.63    4.84
   2   4  -4   10.78    4.41
   1  -4  -4  133.43    8.52
   1  -4  -4  107.55    7.64
  -1  -4   4  110.84    9.57
  -1  -4   4  125.12    6.73
   1  -4  -4  118.33    9.74
  -1  -4   4  134.07    9.71
   1   4  -4  111.21    7.68
   1   4  -4  130.61   10.95
   1   4  -4  120.50    7.84
  -1   4   4  126.87   10.57
  -1   4   4  140.84    9.20
   0  -4  -4   46.76    6.22
   0  -4  -4   56.77    6.70
   0  -4  -4   51.11    6.78
   0  -4   4   51.87    5.79
   0  -4   4   52.03    6.30
   0  -4   4   41.18    6.77
   0   4   4   54.35    7.55
   0   4  -4   46.03    6.22
   0   4   4   63.85    8.01
   0   4  -4   57.56    5.71
  -1  -4  -4    9.10    5.79
  -1  -4  -4   10.36    3.77
  -1  -4  -4   10.92    3.99
   1  -4   4    8.47    3.03
   1  -4   4   -2.99    4.52
   1   4   4    7.33    4.46
   1   4   4    4.78    5.08
  -1   4  -4   13.71    5.54
   1   4   4    3.12    5.59
   2  -4   4   17.86    5.01
   2  -4   4   20.31    3.13
  -2  -4  -4    8.89    3.43
  -2  -4  -4   19.33    5.65
  -2  -4  -4   23.48    6.03
  -2  -4  -4   15.58    4.06
  -2  -4  -4   10.40    5.62
   2   4   4    8.43    7.39
   2   4   4   16.94    7.62
   2   4   4    9.76    8.59
   2   4   4   14.31    5.13
   2   4   4   11.03    4.49
   2   4   4    7.74    5.32
   2   4   4   12.59    6.08
  -3  -4  -4   41.35    7.04
   3  -4   4   32.62    3.79
  -3  -4  -4   34.24    4.46
  -3  -4  -4   27.46    6.29
  -3  -4  -4   25.02    4.70
  -3  -4  -4   32.85    6.43
   3  -4   4   35.33    5.69
   3   4   4   24.03    7.18
   3   4   4   32.69    5.71
   3   4   4   27.43    6.27
   3   4   4   44.43   10.24
  -3   4  -4   28.26    8.24
   3   4   4   32.66    5.36
   3   4   4   37.83    6.50
   3   4   4   29.48    5.29
  -4  -4  -4   63.62    5.76
   4  -4   4   51.54    7.69
  -4  -4  -4   64.32    5.88
  -4  -4  -4   61.66    8.31
   4  -4   4   58.57    6.69
   4  -4   4   68.03    5.00
  -4  -4  -4   54.02    8.15
   4  -4   4   67.44    7.79
  -4  -4  -4   70.62    7.52
   4   4   4   63.60    7.63
   4   4   4   62.85   11.78
   4   4   4   52.03    7.08
   4   4   4   51.69    7.76
  -4   4  -4   57.60    9.95
   4   4   4   60.48    6.90
   4   4   4   66.82    6.35
   4   4   4   46.87    8.08
   6  -5  -4   36.67    9.83
  -6  -5   4   46.60    4.85
   6  -5  -4   54.25    6.29
   6  -5  -4   53.93    8.18
   6  -5  -4   39.74    6.83
   6  -5  -4   49.26    4.96
   6  -5  -4   42.86    7.03
   6   5  -4   57.17    6.27
   6   5  -4   50.28    5.38
   6   5  -4   38.52    7.55
   6   5  -4   55.06    8.40
   6   5  -4   46.01    7.54
   6   5  -4   45.40    9.07
   6   5  -4   49.03    6.59
   5  -5  -4   33.49    6.69
  -5  -5   4   28.08    4.25
   5  -5  -4   28.41    4.23
   5  -5  -4   22.44    8.65
   5  -5  -4   29.25    5.77
   5  -5  -4   21.44    6.55
   5  -5  -4   24.34    7.05
   5   5  -4   24.24    7.03
   5   5  -4   22.65    4.65
   5   5  -4   36.45    5.57
   5   5  -4   24.72    5.93
   5   5  -4   27.68    6.84
  -5   5   4   30.39    5.30
   5   5  -4   31.40    6.57
   4  -5  -4   21.89    3.96
   4  -5  -4   24.08    9.73
   4  -5  -4   30.17    9.15
   4  -5  -4   18.76    6.81
  -4  -5   4   23.13    3.46
   4  -5  -4   15.09    6.39
   4   5  -4   17.39    4.94
   4   5  -4   27.44    4.58
   4   5  -4   19.53    5.22
   4   5  -4   16.81    5.96
   4   5  -4   27.94    6.43
  -4   5   4   21.08    4.62
   4   5  -4   24.04    5.11
   3  -5  -4   68.50    8.48
   3  -5  -4   60.66   11.32
   3  -5  -4   65.27    6.94
  -3  -5   4   70.75    4.36
   3  -5  -4   63.31    5.33
   3  -5  -4   77.46    6.61
   3   5  -4   70.58    6.63
  -3   5   4   82.53    5.87
   3   5  -4   67.28    7.24
  -3   5   4   59.20    5.37
   3   5  -4   69.10    5.87
   3   5  -4   64.66    5.01
  -2  -5   4  161.48    6.70
   2  -5  -4  177.55    8.43
   2  -5  -4  152.54   11.21
   2  -5  -4  175.20    9.90
   2  -5  -4  157.88    7.35
  -2  -5   4  174.76    9.22
   2   5  -4  171.00    7.23
  -2   5   4  173.07    7.94
   2   5  -4  175.67    9.11
   2   5  -4  170.24    8.70
  -2   5   4  173.65    8.56
   1  -5  -4   49.97    4.28
  -1  -5   4   43.54    3.82
   1  -5  -4   30.19    8.41
   1  -5  -4   48.24    5.54
  -1  -5   4   58.07    4.91
  -1  -5   4   41.32    6.55
  -1   5   4   31.21    5.09
   1   5  -4   52.43    5.57
  -1   5   4   59.58    6.14
   1   5  -4   42.16    6.22
   0  -5   4   66.92    4.44
   0  -5  -4   72.92    7.59
   0  -5  -4   66.46    5.34
   0  -5  -4   78.32    5.16
   0   5  -4   74.34    7.44
   0   5  -4   76.61    7.47
   0   5   4   70.22    5.91
   0   5   4   79.50    6.29
   0   5   4   68.22    6.60
   0   5   4   81.41    7.42
  -1  -5  -4  121.08    6.07
  -1  -5  -4  117.51    8.57
  -1  -5  -4  123.08    6.26
  -1  -5  -4  104.11    7.78
   1  -5   4  119.87    5.57
  -1  -5  -4  116.41    7.54
   1   5   4  125.82    8.17
   1   5   4  121.06    7.17
   1   5   4  130.30    8.04
   1   5   4  124.05    7.23
  -1   5  -4  113.98    7.65
  -1   5  -4  106.65   11.65
   1   5   4  124.33    8.08
   1   5   4  124.10    7.89
   2  -5   4   63.08    4.53
  -2  -5  -4   73.87    7.12
  -2  -5  -4   45.65    7.27
  -2  -5  -4   60.46    6.94
  -2  -5  -4   62.95    5.29
   2  -5   4   66.48    6.37
  -2  -5  -4   59.02    5.02
   2   5   4   57.80    5.98
  -2   5  -4   65.13    8.09
   2   5   4   58.00    5.95
   2   5   4   56.93    7.10
   2   5   4   59.50    6.71
   2   5   4   56.22    7.15
   2   5   4   52.93    7.35
  -3  -5  -4    1.33    6.35
   3  -5   4    4.11    3.28
  -3  -5  -4   -7.22    6.01
  -3  -5  -4   12.33    4.16
   3  -5   4    3.73    6.37
  -3  -5  -4    0.04    6.26
  -3  -5  -4   -6.00    4.24
  -3   5  -4   16.91    7.93
   3   5   4    3.66    7.00
   3   5   4    9.41    5.87
   3   5   4    2.05    4.97
   3   5   4   -3.89    4.71
   3   5   4   15.39    9.80
   3   5   4  -11.08    6.74
   3   5   4    6.58    8.11
   4  -5   4    7.18    3.81
  -4  -5  -4    7.63    6.51
  -4  -5  -4    2.34    7.07
   4  -5   4    5.21    8.47
  -4  -5  -4    6.10    6.82
  -4  -5  -4    4.79    7.84
   4  -5   4   11.07    6.92
   4   5   4   26.64   11.47
   4   5   4   10.91    6.54
   4   5   4    8.26    5.80
   4   5   4    6.57    5.95
   4   5   4    1.79    9.47
   4   5   4   10.02    7.57
   5  -6  -4   21.60    6.96
   5  -6  -4    9.19    7.81
   5  -6  -4   15.54    5.97
   5  -6  -4    9.83    6.71
   5  -6  -4   16.12    4.22
   5  -6  -4   16.63   10.30
   5   6  -4   26.73    9.22
   5   6  -4   24.60    5.90
   5   6  -4   20.45    8.29
   5   6  -4   16.81    6.96
  -5   6   4   17.23    5.76
   5   6  -4   18.51    6.92
   5   6  -4   21.28    5.82
   4  -6  -4   21.62    4.31
  -4  -6   4   38.97    4.15
   4  -6  -4   25.12    7.71
   4  -6  -4   45.59   10.50
   4  -6  -4   31.57    9.24
   4  -6  -4   36.53    7.19
   4   6  -4   32.53    5.98
   4   6  -4   28.76    4.81
   4   6  -4   29.13    7.16
   4   6  -4   30.72    6.04
   4   6  -4   34.40    7.56
  -4   6   4   29.25    5.62
   4   6  -4   27.33    5.85
   3  -6  -4   77.91   14.76
   3  -6  -4   62.85    5.37
   3  -6  -4   71.16    7.23
  -3  -6   4   53.31    4.76
   3  -6  -4   56.11   10.48
   3  -6  -4   61.51    7.17
   3  -6  -4   75.42    7.50
   3   6  -4   68.53    8.10
  -3   6   4   61.09    6.10
  -3   6   4   65.91    6.11
   3   6  -4   76.25    7.23
   3   6  -4   68.49    7.02
   3   6  -4   67.93    7.79
   3   6  -4   64.90    5.62
   3   6  -4   84.40    7.18
   2  -6  -4    0.18    5.06
   2  -6  -4   -4.60    4.92
  -2  -6   4    2.05    3.29
   2  -6  -4   -3.61    6.75
   2  -6  -4   -6.87    6.31
   2  -6  -4    0.56    3.80
  -2   6   4   -5.03    5.07
  -2   6   4   -0.65    4.50
   2   6  -4    3.71    5.22
   2   6  -4    5.07    5.21
   2   6  -4    0.95    5.42
  -2   6   4   -7.02    4.93
   2   6  -4    2.61    4.54
  -1  -6   4  144.35    6.63
   1  -6  -4  144.88    6.85
   1  -6  -4  157.70    8.09
   1  -6  -4  151.22    7.47
   1  -6  -4  162.19   10.82
   1   6  -4  139.26    9.49
   1   6  -4  152.40    8.88
  -1   6   4  151.72    8.20
  -1   6   4  152.66    8.31
  -1   6   4  150.36    8.87
  -1   6   4  160.19    8.64
   1   6  -4  140.48    7.17
   0  -6  -4   72.14    5.33
   0  -6  -4   79.53    7.84
   0  -6  -4   79.36    5.65
   0  -6  -4   70.70    8.16
   0  -6   4   65.24    4.74
   0  -6  -4   72.08    7.75
   0   6   4   86.83    6.87
   0   6  -4   81.15    9.28
   0   6   4   74.16    6.88
   0   6  -4   71.29    7.64
   0   6   4   79.03    7.23
   0   6   4   73.57    7.31
   0   6   4   86.94    7.19
  -1  -6  -4    7.16    6.19
  -1  -6  -4   -6.61    6.51
  -1  -6  -4    2.84    7.29
  -1  -6  -4   10.24    3.86
  -1  -6  -4   15.19    4.54
   1  -6   4    6.64    3.00
   1   6   4    0.00    6.03
   1   6   4    9.85    5.52
   1   6   4   13.94    6.25
   1   6   4   10.48    6.87
  -1   6  -4    4.68    5.71
   1   6   4    4.54    6.63
  -2  -6  -4    9.84    4.58
   2  -6   4    8.00    6.67
  -2  -6  -4   21.89    7.69
  -2  -6  -4    8.02    3.84
  -2  -6  -4    8.67    6.37
  -2  -6  -4    5.17    6.32
   2  -6   4   12.11    3.46
   2   6   4   18.04    7.64
   2   6   4   -7.58    7.14
  -2   6  -4   13.22    6.99
   2   6   4   -2.13    6.94
   2   6   4    9.67    5.58
   2   6   4    9.83    5.60
   2   6   4   28.53    6.65
  -3  -6  -4    6.98    4.10
  -3  -6  -4   12.16    4.90
  -3  -6  -4   12.30    7.13
   3  -6   4   25.89    6.15
  -3  -6  -4   13.63    7.03
  -3  -6  -4   12.36    8.41
   3  -6   4    6.57    6.53
   3   6   4   27.76    6.10
   3   6   4    2.25    8.29
   3   6   4   24.02    6.95
   3   6   4    9.15    5.72
   3   6   4   21.34   11.93
  -3  -7   4   30.23    4.02
   3  -7  -4   32.66    8.31
   3  -7  -4   55.37    8.44
   3  -7  -4   33.48    4.72
   3  -7  -4   29.21   11.32
   3  -7  -4   36.88    7.07
   3   7  -4   46.29    7.94
   3   7  -4   28.95    6.52
   3   7  -4   33.71    5.16
   3   7  -4   43.07    7.91
  -3   7   4   34.46    6.23
  -3   7   4   37.63    5.95
   3   7  -4   43.06    7.63
   3   7  -4   40.63    6.99
   2  -7  -4   26.96    9.25
   2  -7  -4   26.10    4.48
   2  -7  -4   35.13   11.32
   2  -7  -4   20.24    7.42
  -2  -7   4   25.36    3.87
   2  -7  -4   32.19    6.62
  -2   7   4   23.17    5.88
   2   7  -4   26.18    5.52
   2   7  -4   26.19    6.22
  -2   7   4   27.76    5.85
   2   7  -4   39.27    7.14
  -2   7   4   22.41    6.41
   2   7  -4   37.57    8.20
   1  -7  -4   16.50    5.88
   1  -7  -4   29.81    6.29
  -1  -7   4   19.53    3.61
   1  -7  -4   27.95    8.53
   1  -7  -4   23.45    8.17
   1  -7  -4   20.54    3.96
  -1   7   4   18.64    6.01
   1   7  -4   21.47    6.25
  -1   7   4    8.56    5.79
   1   7  -4   21.49    6.62
   1   7  -4   15.78    5.52
  -1   7   4   15.12    6.13
   1   7  -4   29.66    8.11
  -1   7   4   16.74    6.88
   0  -7  -4    2.34    9.37
   0  -7  -4   15.14    6.61
   0  -7  -4   16.06    4.99
   0  -7  -4   15.20    4.06
   0  -7  -4   13.28    7.83
   0  -7   4   10.41    3.40
   0   7   4   13.25    6.35
   0   7   4    9.42    6.50
   0   7  -4    8.60    6.01
   0   7   4   18.94    6.32
   0   7   4    7.43    6.95
   1  -7   4   36.16    3.80
  -1  -7  -4   26.85    6.96
  -1  -7  -4   36.88    8.33
  -1  -7  -4   46.04    5.70
  -1  -7  -4   37.13    7.27
  -1   7  -4   34.75    7.97
   1   7   4   22.15    7.53
   1   7   4   42.91    7.60
   1   7   4   44.25    7.82
   1   7   4   46.50    7.80
   1   7   4   47.74   11.43
   8   0  -5   18.72    7.96
   8   0  -5   34.90    7.53
   8   0  -5   34.89   12.60
   8   0  -5   35.46    8.52
   8   0  -5   64.51   14.61
   8   0  -5   28.23    8.31
   8   0  -5   24.01    6.83
   8   0  -5   27.01    7.51
   8   0  -5   33.98    7.36
   7   0  -5   60.69    6.59
   7   0  -5   56.98    6.06
   7   0  -5   48.87    7.33
   7   0  -5   62.50    8.22
   7   0  -5   74.58    7.65
   7   0  -5   53.83    6.44
   7   0  -5   67.47    7.36
   7   0  -5   56.31    6.96
   7   0  -5   54.05    7.24
   7   0  -5   70.86   12.89
   6   0  -5   25.72   11.58
   6   0  -5   10.94    5.77
   6   0  -5   15.13    8.49
   6   0  -5   10.64    4.21
   6   0  -5   13.22    5.56
  -6   0   5   21.62    7.92
   6   0  -5   14.25    5.03
   6   0  -5   22.66    5.63
  -6   0   5    9.29    9.76
  -6   0   5    0.48    7.78
   6   0  -5    9.97    5.40
   6   0  -5    9.96    9.80
   5   0  -5    9.76    5.09
   5   0  -5   10.99    7.01
  -5   0   5   13.59    6.50
  -5   0   5   -0.04    7.35
   5   0  -5   10.93    8.66
  -5   0   5   12.13    6.78
   5   0  -5   16.51    7.67
   5   0  -5    4.12    6.96
   5   0  -5   11.63    5.65
  -4   0   5  114.21   10.19
   4   0  -5  109.99   10.89
   4   0  -5  113.19   11.34
   4   0  -5  116.42   10.81
   4   0  -5   97.58    9.60
  -4   0   5   98.89   10.69
  -4   0   5  109.54   10.32
   4   0  -5  104.86    7.81
   3   0  -5  131.17   10.44
   3   0  -5  134.43    9.65
   3   0  -5  128.72    9.66
  -3   0   5  127.34    9.61
  -3   0   5  125.22   10.81
   3   0  -5  121.45    8.10
  -3   0   5  128.35    9.45
   3   0  -5  126.78   10.05
   2   0  -5    8.46    5.42
   2   0  -5   14.85    6.09
  -2   0   5    8.17    5.04
  -2   0   5   12.86    5.84
   2   0  -5    1.88    5.63
   2   0  -5   17.46    6.01
  -2   0   5   10.30    5.96
   1   0  -5   51.01    6.31
   1   0  -5   60.63    8.10
  -1   0   5   42.13    6.46
   1   0  -5   37.18    7.01
  -1   0   5   43.16    6.44
  -1   0   5   48.15    7.27
   0   0   5   83.10   10.30
   0   0  -5   83.30    9.95
   0   0   5   79.53    9.52
   0   0   5   81.82    9.15
   0   0  -5   81.10    7.66
   0   0  -5   93.31    9.15
   1   0   5   75.02   10.53
  -1   0  -5   86.96   10.54
   1   0   5   84.17    9.89
  -1   0  -5   73.09    8.33
   1   0   5   72.37   10.61
   1   0   5   68.92    9.82
  -1   0  -5   94.00    8.69
   2   0   5   14.06    5.14
  -2   0  -5   15.88    7.15
  -2   0  -5   22.44    8.18
  -2   0  -5   14.44    7.65
   2   0   5   21.89    9.93
   2   0   5   19.80    6.89
   2   0   5   27.12    7.83
   2   0   5    4.51    7.30
  -2   0  -5    7.50    5.41
   3   0   5   30.44    9.10
  -3   0  -5   20.26    9.85
  -3   0  -5   20.23    5.81
   3   0   5   17.08    5.73
   3   0   5   14.22    5.49
  -3   0  -5   14.74    7.89
  -3   0  -5   35.43    8.94
   3   0   5   21.47    5.84
  -4   0  -5   82.87    8.61
  -4   0  -5   89.30    8.39
   4   0   5  120.58   12.84
   4   0   5   69.36    7.46
  -4   0  -5   80.13    8.50
   4   0   5   85.35    7.99
   4   0   5   90.37    7.37
  -4   0  -5   70.25    9.84
   4   0   5   93.16    7.98
   4   0   5   82.92    7.44
   5   0   5   10.40    8.85
   5   0   5    9.79    9.70
   5   0   5   21.28    7.00
  -5   0  -5   10.20    7.11
   5   0   5   34.48   10.90
   5   0   5   20.29    6.60
   5   0   5   17.63    6.82
   8  -1  -5    7.78   12.54
   8  -1  -5    5.95    6.33
   8  -1  -5   16.34    7.19
   8  -1  -5    9.97    6.11
   8  -1  -5   11.20    7.18
   8  -1  -5    2.09    6.60
   8  -1  -5    1.46    6.79
   8  -1  -5    4.49    6.47
   8   1  -5   14.17    7.25
   8   1  -5   15.29    8.16
   8   1  -5    2.00    5.87
   8   1  -5   17.05    8.85
   8   1  -5    7.00    6.11
   8   1  -5   -4.04   13.53
   8   1  -5   12.70    8.72
   8   1  -5    9.39    6.58
   7  -1  -5   20.32    6.55
   7  -1  -5   23.83    6.99
   7  -1  -5   15.01    6.66
   7  -1  -5   30.58   11.45
   7  -1  -5   30.02    6.47
   7  -1  -5   28.57    6.14
   7  -1  -5   27.03    7.89
   7  -1  -5   22.23    6.39
   7  -1  -5   26.90    6.44
   7  -1  -5   29.87    6.67
   7   1  -5   27.38    6.54
   7   1  -5   22.04    6.58
   7   1  -5   18.57    8.02
   7   1  -5   14.04    6.68
   7   1  -5   25.83   11.48
   7   1  -5   22.67    6.59
   7   1  -5   23.11    5.80
   7   1  -5   27.42    7.27
   7   1  -5   27.55    4.91
   6  -1  -5  133.01    8.10
   6  -1  -5  124.45    8.95
   6  -1  -5  132.38    8.20
   6  -1  -5  131.99   13.35
   6  -1  -5  132.79    8.06
   6  -1  -5  127.23    7.19
   6  -1  -5  127.13    8.13
   6   1  -5  137.52    8.66
  -6   1   5  121.76    7.05
   6   1  -5  139.40    8.72
   6   1  -5  132.18    7.29
  -6   1   5  155.90   14.69
   6   1  -5  117.96    8.28
  -6   1   5  130.21   14.79
   6   1  -5  127.72   14.49
   6   1  -5  126.22    8.31
   6   1  -5  122.84    6.61
   6   1  -5  128.12   15.06
   6   1  -5  131.01   14.52
   5  -1  -5  184.44   14.13
  -5  -1   5  189.84   14.71
  -5  -1   5  192.43   12.67
   5  -1  -5  183.47   10.09
   5  -1  -5  182.99    8.72
   5  -1  -5  198.74   17.38
  -5  -1   5  176.61   12.66
   5  -1  -5  211.12   12.68
   5  -1  -5  188.20    9.05
   5  -1  -5  200.53   13.37
  -5   1   5  173.80   12.69
  -5   1   5  175.92   12.07
  -5   1   5  163.82   12.77
   5   1  -5  171.95    9.53
   5   1  -5  165.28   12.56
   5   1  -5  181.40    7.66
   5   1  -5  175.81   13.64
   5   1  -5  175.89    8.93
   5   1  -5  168.38   13.29
   5   1  -5  185.18   14.17
   4  -1  -5    9.32    6.10
   4  -1  -5   14.52    5.74
  -4  -1   5    3.39    5.49
   4  -1  -5    9.88    5.60
   4  -1  -5    6.15    6.59
  -4  -1   5    9.37    7.09
  -4  -1   5   10.11    5.63
   4  -1  -5   12.60    7.43
  -4   1   5   12.09    5.53
   4   1  -5    9.18    7.45
   4   1  -5   18.49    6.37
  -4   1   5    0.36    6.40
   4   1  -5    6.63    6.59
  -4   1   5   12.03    6.45
   4   1  -5    3.40    6.39
   4   1  -5    1.69    5.15
   3  -1  -5  186.26   11.26
   3  -1  -5  167.60    9.30
   3  -1  -5  158.86   10.84
  -3  -1   5  177.41   10.66
   3  -1  -5  197.19   10.11
  -3  -1   5  184.60   12.04
   3  -1  -5  181.24   11.72
  -3  -1   5  176.39   10.90
   3   1  -5  182.08   10.73
   3   1  -5  179.89    9.37
  -3   1   5  172.36    9.66
  -3   1   5  175.00   11.36
   3   1  -5  147.81   11.92
  -3   1   5  165.35   10.95
   3   1  -5  196.24   11.55
   3   1  -5  173.19   11.82
   2  -1  -5    3.67    5.81
  -2  -1   5    9.69    5.26
  -2  -1   5   12.15    6.22
   2  -1  -5   13.70    6.13
   2  -1  -5   11.63    5.91
  -2  -1   5   11.21    5.53
  -2   1   5   10.57    5.81
   2   1  -5   21.50    5.59
  -2   1   5   10.94    4.47
   2   1  -5   15.26    5.75
   2   1  -5   18.60    6.00
  -2   1   5   16.52    6.59
   2   1  -5   18.99    5.85
   1  -1  -5   85.27    9.82
   1  -1  -5   90.33    7.42
  -1  -1   5   74.22    8.00
  -1  -1   5  101.26   10.13
   1  -1  -5   94.58    9.74
  -1  -1   5   82.29    9.91
  -1   1   5   90.88    8.50
   1   1  -5   93.11   10.67
   1   1  -5   76.95    8.19
  -1   1   5  117.63    9.80
   1   1  -5   94.55    7.68
  -1   1   5  100.28    9.56
   0  -1  -5   94.15    7.59
   0  -1  -5   85.25    9.52
   0  -1   5   71.19    8.55
   0  -1   5   84.61    9.53
   0  -1  -5   95.80   14.59
   0  -1   5   85.23   11.58
   0   1   5   70.06    9.69
   0   1  -5   79.10    7.76
   0   1   5   78.90    9.26
   0   1  -5   69.35    8.47
   0   1   5   88.94   10.30
   1  -1   5    8.55    8.21
   1  -1   5    7.50    5.80
  -1  -1  -5   14.73    7.01
  -1  -1  -5   12.21    7.01
   1  -1   5   -1.45    6.19
   1  -1   5    8.46    6.55
  -1  -1  -5   12.31    6.02
   1   1   5    9.98    6.91
   1   1   5   23.34    8.16
   1   1   5   13.83    7.07
  -1   1  -5    9.93    5.98
  -1   1  -5   18.97    7.50
  -1   1  -5   16.76    7.03
   1   1   5   19.18    6.72
   2  -1   5  269.21   17.44
   2  -1   5  233.26   10.43
  -2  -1  -5  234.25   11.05
  -2  -1  -5  261.68   15.45
  -2  -1  -5  255.46   15.49
   2  -1   5  273.96   13.66
  -2  -1  -5  248.08   12.39
   2   1   5  209.99   14.90
  -2   1  -5  233.10   15.30
   2   1   5  228.98   10.62
  -2   1  -5  237.95   10.95
   2   1   5  251.14   17.46
  -2   1  -5  248.51   12.58
   2   1   5  225.34    9.96
  -2   1  -5  249.42   13.87
   2   1   5  291.17   15.73
  -3  -1  -5   30.14    5.61
   3  -1   5   23.81    9.05
   3  -1   5   32.96    6.35
  -3  -1  -5   25.80    6.72
   3  -1   5   21.82    4.32
   3  -1   5   30.66    5.84
  -3  -1  -5   26.51    7.56
   3  -1   5   24.00    5.78
  -3  -1  -5   28.07    9.26
  -3  -1  -5   18.78    6.48
  -3   1  -5   21.16    7.34
   3   1   5   40.55    9.09
  -3   1  -5   30.19    8.22
   3   1   5   25.17    5.44
   3   1   5   27.73    6.06
   3   1   5   21.00    5.59
   3   1   5   11.72    9.55
   3   1   5   16.96   11.59
  -3   1  -5   18.94   15.21
   4  -1   5   14.87    6.03
  -4  -1  -5    2.27    6.87
   4  -1   5   19.08    6.01
  -4  -1  -5    7.93    7.12
   4  -1   5   13.30   11.41
  -4  -1  -5    7.91    5.33
   4  -1   5    8.65    5.78
   4  -1   5    6.28    4.70
  -4  -1  -5    8.89    6.77
   4   1   5    7.21    5.04
   4   1   5   18.60    9.77
   4   1   5   11.59    6.58
   4   1   5   -0.29    5.72
  -4   1  -5    0.83    7.14
   4   1   5    5.94    6.17
   4   1   5   13.98    6.35
   5  -1   5    6.49    5.59
  -5  -1  -5   11.55    9.31
   5  -1   5   10.89    6.69
   5  -1   5    1.37    6.49
  -5  -1  -5    3.52    9.02
   5  -1   5   35.66   11.49
  -5  -1  -5    7.37    7.99
   5  -1   5    7.77    6.58
   5   1   5    0.32    7.59
   5   1   5   20.36   11.13
   5   1   5    0.94    6.14
   5   1   5    7.97   10.70
   5   1   5   10.56    6.69
   5   1   5   -5.27    6.41
  -5   1  -5   -5.28    8.60
   7  -2  -5   38.23    6.42
  -7  -2   5   50.06    6.56
   7  -2  -5   54.69    6.67
   7  -2  -5   48.23    7.26
   7  -2  -5   26.00   10.27
   7  -2  -5   40.78    7.21
   7  -2  -5   56.05    7.43
   7  -2  -5   31.32    5.80
   7  -2  -5   45.25    7.02
   7   2  -5   39.10    7.45
   7   2  -5   30.41    8.07
   7   2  -5   26.92   12.92
   7   2  -5   43.85    6.04
   7   2  -5   45.08    6.29
   7   2  -5   53.92    7.57
   7   2  -5   41.09    6.95
   7   2  -5   53.16    5.42
   7   2  -5   46.46    6.77
   6  -2  -5   -0.24    6.03
   6  -2  -5   -1.24    5.21
   6  -2  -5    4.85    4.58
  -6  -2   5   -0.92    4.44
   6  -2  -5    4.00    8.65
   6  -2  -5   -0.14    6.00
   6  -2  -5    6.89    6.28
   6  -2  -5    3.52    5.88
   6  -2  -5   12.89    5.35
   6   2  -5    4.49    4.88
   6   2  -5   -1.42    5.28
   6   2  -5   -4.20    5.55
  -6   2   5    5.54    4.72
   6   2  -5    2.94    6.16
   6   2  -5    3.00   11.76
   6   2  -5    2.04    5.95
   6   2  -5    1.93    6.92
   6   2  -5   -2.38    4.97
   6   2  -5    3.90    4.91
   5  -2  -5  -10.45    4.89
  -5  -2   5    2.52    3.77
   5  -2  -5    2.47    5.93
   5  -2  -5    9.35    4.70
   5  -2  -5    4.21    7.16
   5  -2  -5    4.14    5.27
   5  -2  -5   -3.20    4.58
   5   2  -5   11.28    4.78
   5   2  -5    4.00    5.12
   5   2  -5    2.22    5.37
  -5   2   5   -2.89    8.65
   5   2  -5    5.11    7.13
   5   2  -5   -2.42    4.04
   5   2  -5    5.09    9.63
   5   2  -5   -4.68    8.01
   5   2  -5    2.66    4.48
  -5   2   5    2.05    4.30
   4  -2  -5   22.97    5.51
  -4  -2   5   21.77    8.08
   4  -2  -5   26.51    7.35
  -4  -2   5   20.78    5.95
   4  -2  -5   26.26    7.65
   4  -2  -5   29.70    6.26
   4  -2  -5   29.85    5.60
  -4  -2   5   24.02    5.54
   4   2  -5   22.29    7.03
  -4   2   5   25.79    5.42
   4   2  -5   17.58    6.38
   4   2  -5   18.38    7.40
   4   2  -5   25.84    5.79
  -4   2   5   16.01    6.29
   4   2  -5   29.38    8.46
   4   2  -5   25.35    4.17
  -3  -2   5  157.64   12.40
   3  -2  -5  176.34   11.77
  -3  -2   5  170.01    9.70
  -3  -2   5  173.69   11.34
   3  -2  -5  178.86    9.56
   3  -2  -5  148.24   11.88
   3  -2  -5  151.17    9.35
  -3   2   5  176.20   12.38
   3   2  -5  160.40   10.68
  -3   2   5  160.94    8.71
   3   2  -5  162.90   10.74
   3   2  -5  173.40    9.65
  -3   2   5  166.15   10.74
   3   2  -5  167.26   12.26
   3   2  -5  176.55   11.23
   2  -2  -5   73.32    9.19
  -2  -2   5   49.61    7.18
  -2  -2   5   54.43    7.84
  -2  -2   5   52.99    6.73
   2  -2  -5   68.12    7.29
   2  -2  -5   46.73    6.40
   2   2  -5   53.73    7.54
  -2   2   5   53.85    7.67
  -2   2   5   62.34    6.34
  -2   2   5   61.16    7.94
   2   2  -5   46.70    7.25
   2   2  -5   64.89    6.70
   2   2  -5   57.56    7.57
   2   2  -5   80.19    9.24
   1  -2  -5  105.27   10.30
   1  -2  -5   87.10    7.98
  -1  -2   5   83.22    8.24
  -1  -2   5   58.94    9.37
   1  -2  -5   80.58    9.09
  -1  -2   5   86.71   11.06
   1   2  -5   84.66    8.28
   1   2  -5   64.36    7.81
  -1   2   5   94.99    7.65
  -1   2   5   86.64   10.58
  -1   2   5   84.04    8.08
   1   2  -5   97.31   10.59
  -1   2   5  113.41    9.37
   0  -2  -5  132.13   11.09
   0  -2   5  128.29   10.11
   0  -2  -5  160.72   10.27
   0  -2   5  153.49   12.88
   0  -2  -5  131.12    8.76
   0  -2   5  114.24    9.27
   0   2   5  129.43   11.12
   0   2  -5  130.37    8.62
   0   2   5  127.47   10.53
   0   2  -5  134.55    9.09
   0   2  -5  143.36   12.38
   0   2   5  121.75   10.10
   0   2   5  134.58   15.92
   1  -2   5   23.67    8.78
   1  -2   5   22.23    6.36
   1  -2   5   21.36    6.12
  -1  -2  -5   28.18    8.10
  -1  -2  -5   35.65    7.07
   1  -2   5   16.62    6.33
  -1   2  -5   27.87    5.81
   1   2   5   23.07    5.90
  -1   2  -5   21.81    7.44
  -1   2  -5   20.52    8.34
   1   2   5   18.17    6.85
   1   2   5   32.61    8.06
   1   2   5   32.13    7.93
   1   2   5   43.80    8.59
  -2  -2  -5   -7.56    6.89
   2  -2   5    5.99    4.92
   2  -2   5   12.93    3.62
  -2  -2  -5   18.15   11.33
   2  -2   5   13.49    7.41
  -2  -2  -5   19.87    5.81
  -2  -2  -5   18.73    4.45
   2   2   5   12.87    7.93
  -2   2  -5   11.65    6.03
   2   2   5    0.95    9.05
   2   2   5    1.50    7.73
   2   2   5   -4.64    8.36
   2   2   5   11.10    6.26
   2   2   5   13.96    5.93
   2   2   5    9.30    4.80
  -2   2  -5    7.64    7.47
   3  -2   5    2.68    5.24
   3  -2   5    4.73    8.81
  -3  -2  -5    9.56    7.78
   3  -2   5   -0.47    6.15
  -3  -2  -5   10.53    6.48
  -3  -2  -5   -2.18    5.37
   3  -2   5    1.61    4.06
  -3  -2  -5    5.33    6.57
   3  -2   5    2.41    8.38
  -3  -2  -5    1.81    5.41
   3   2   5   -2.83    5.27
   3   2   5    6.27    4.95
   3   2   5    1.95    8.69
   3   2   5   -5.23    5.05
   3   2   5    1.72    6.14
  -3   2  -5    8.02    7.17
   3   2   5   -7.31    9.77
   3   2   5   -4.75    5.15
   4  -2   5   58.31    5.91
  -4  -2  -5   50.73    5.96
   4  -2   5   49.67    6.72
  -4  -2  -5   37.75    7.40
  -4  -2  -5   39.60    7.86
  -4  -2  -5   41.63    7.79
   4  -2   5   65.81    7.91
   4  -2   5   60.13   12.56
  -4  -2  -5   58.42    8.45
   4  -2   5   61.76    7.10
   4   2   5   56.04    6.08
   4   2   5   44.44    5.72
   4   2   5   50.15    6.81
   4   2   5   52.57    7.64
   4   2   5   52.53    7.07
   4   2   5   67.47    7.58
   4   2   5   50.19   10.68
  -4   2  -5   56.04    7.91
   7  -3  -5    7.63    7.02
   7  -3  -5    9.62    7.67
   7  -3  -5    0.68   10.16
   7  -3  -5    2.54    6.18
   7  -3  -5    1.48    4.43
   7  -3  -5   20.85    6.95
  -7  -3   5    2.09    5.45
   7  -3  -5    4.52    6.50
   7   3  -5    1.32    6.97
   7   3  -5   25.27    6.48
   7   3  -5    9.00    5.06
   7   3  -5    6.67   19.33
   7   3  -5   -8.85    6.88
   7   3  -5   -4.08    5.68
   7   3  -5    5.06    7.71
   7   3  -5   -6.45    6.88
   6  -3  -5   43.74    6.79
   6  -3  -5   35.71   11.31
   6  -3  -5   32.56    7.10
  -6  -3   5   33.05    5.08
   6  -3  -5   51.93   10.78
   6  -3  -5   32.34    6.64
   6  -3  -5   30.60    6.05
   6  -3  -5   38.66    4.92
   6  -3  -5   46.66    6.73
   6   3  -5   39.37    4.86
  -6   3   5   45.13    5.77
   6   3  -5   29.58    5.78
   6   3  -5   49.52    7.98
   6   3  -5   31.00    6.81
   6   3  -5   47.06   15.36
   6   3  -5   28.73    5.97
   6   3  -5   39.28    6.92
   6   3  -5   30.49    5.53
   6   3  -5   37.77    7.06
   5  -3  -5   61.91    9.68
   5  -3  -5   70.64    6.83
   5  -3  -5   55.75    6.98
  -5  -3   5   61.85    4.89
   5  -3  -5   61.54    7.63
   5  -3  -5   58.07    6.85
   5  -3  -5   57.15    6.01
   5  -3  -5   65.97    5.86
   5   3  -5   58.76    6.00
   5   3  -5   65.89    7.49
   5   3  -5   54.96    6.41
   5   3  -5   57.04    6.40
  -5   3   5   54.29    5.37
   5   3  -5   50.45    5.13
   5   3  -5   62.93    6.75
   4  -3  -5   40.44    6.80
  -4  -3   5   37.37    4.02
   4  -3  -5   44.17    6.06
   4  -3  -5   43.21    4.68
   4  -3  -5   39.60    5.50
   4  -3  -5   38.64    8.58
   4   3  -5   39.15    5.72
   4   3  -5   43.95    5.94
   4   3  -5   43.92    4.45
  -4   3   5   39.79    4.91
   4   3  -5   36.46    6.00
   3  -3  -5    8.33    7.50
   3  -3  -5   13.68    6.50
  -3  -3   5   15.12    3.80
   3  -3  -5    8.24    5.07
   3  -3  -5   19.83    4.29
  -3  -3   5   18.54    5.95
  -3   3   5    5.07    6.47
   3   3  -5    6.31    3.73
   3   3  -5   -4.40    5.44
  -3   3   5    9.38    4.76
  -3   3   5   14.83    7.43
   3   3  -5    6.35    7.17
   3   3  -5   14.71    5.01
   3   3  -5   11.14    5.35
  -3   3   5    1.77    4.10
   2  -3  -5   86.26    8.13
  -2  -3   5   74.24   11.13
  -2  -3   5   76.10    8.90
   2  -3  -5   61.38    8.30
  -2  -3   5   73.97    7.75
   2  -3  -5   82.97   11.17
  -2   3   5  100.17    8.29
   2   3  -5   76.86    7.44
   2   3  -5   81.30   10.90
  -2   3   5   77.10    9.00
   2   3  -5   57.42    7.02
   2   3  -5   82.32    9.47
   1  -3  -5  152.44   10.52
  -1  -3   5  183.31   11.44
   1  -3  -5  172.72   10.05
  -1  -3   5  170.46   12.84
  -1  -3   5  153.92   10.26
   1  -3  -5  182.39   12.56
   1   3  -5  182.26   13.14
   1   3  -5  137.65    9.26
  -1   3   5  170.36   12.76
   1   3  -5  179.40    9.02
   0  -3  -5   17.55    6.25
   0  -3  -5   22.71    6.44
   0  -3  -5   28.73    4.52
   0  -3   5   19.66    3.57
   0  -3   5    8.29    7.31
   0  -3  -5   13.57    8.97
   0   3  -5   12.03    6.50
   0   3   5   14.49    5.55
   0   3   5    9.88    5.06
   0   3   5   15.53    7.72
   0   3  -5   18.88    7.91
   0   3   5   19.12    6.52
   0   3  -5    6.49    5.40
  -1  -3  -5   56.05    5.32
  -1  -3  -5   52.05    5.04
   1  -3   5   54.86    4.63
  -1  -3  -5   47.46    6.49
  -1  -3  -5   62.45    8.04
   1   3   5   38.19    5.66
  -1   3  -5   42.26    7.39
   1   3   5   61.36    7.11
   1   3   5   56.39    5.41
   1   3   5   51.07   10.35
  -1   3  -5   46.99    6.87
  -2  -3  -5   70.76    8.04
  -2  -3  -5   72.36    5.90
   2  -3   5   65.75    5.05
  -2  -3  -5   69.98    5.83
  -2  -3  -5   76.05    7.13
   2  -3   5   70.69    6.63
  -2  -3  -5   73.51    5.71
  -2  -3  -5   70.36    7.26
   2   3   5   73.07    7.52
  -2   3  -5   66.63    8.70
   2   3   5   67.26    6.03
   2   3   5   92.97   11.69
   2   3   5   71.87    6.36
   2   3   5   75.28    6.59
  -2   3  -5   62.05    8.33
   2   3   5   42.64   11.42
   2   3   5   73.82    6.64
   3  -3   5   13.21    5.55
   3  -3   5   18.27    4.10
   3  -3   5   19.58    7.72
  -3  -3  -5   17.52    6.53
  -3  -3  -5   17.87    5.05
  -3  -3  -5    8.92    6.68
  -3  -3  -5   16.79    5.81
   3  -3   5    7.53    6.46
  -3  -3  -5   22.61    8.14
   3   3   5   22.40    6.86
   3   3   5   20.65    5.36
   3   3   5   32.49    9.90
   3   3   5   22.81    6.02
   3   3   5    8.63    5.75
   3   3   5   15.76    5.57
   3   3   5   17.69    6.04
  -3   3  -5   19.16    7.78
  -4  -3  -5   11.12    5.47
  -4  -3  -5   13.25    5.89
  -4  -3  -5   16.57    8.05
  -4  -3  -5    1.73    7.06
   4  -3   5   -3.18    6.73
   4  -3   5   10.78    6.14
  -4  -3  -5   12.54    7.03
   4  -3   5    7.53    4.70
   4  -3   5    9.02    6.69
   4   3   5    8.06    7.53
   4   3   5    5.63    5.49
  -4   3  -5   -2.47    8.24
   4   3   5    6.59    6.31
   4   3   5    5.41    5.39
   4   3   5   11.05    6.28
   4   3   5   16.76   10.91
   4   3   5    9.09    5.98
  -6  -4   5   14.47    4.98
   6  -4  -5   -5.19    5.43
   6  -4  -5    8.59    6.01
   6  -4  -5   23.52    9.90
   6  -4  -5   11.17    4.63
   6  -4  -5   21.06    7.26
   6  -4  -5    6.01    7.26
   6  -4  -5   22.10    6.39
   6   4  -5   19.56    8.26
   6   4  -5   -1.42    7.02
  -6   4   5   13.59    5.17
   6   4  -5   12.22    4.82
   6   4  -5   24.84    6.00
   6   4  -5    9.78    6.56
   6   4  -5   11.20    5.49
   6   4  -5   12.18    7.41
  -5  -4   5    2.18    4.05
   5  -4  -5    7.79    8.11
   5  -4  -5    0.81    5.28
   5  -4  -5   -6.40    7.02
   5  -4  -5    1.45    4.11
   5  -4  -5   -1.12    7.70
   5  -4  -5   -8.90    6.04
   5  -4  -5    0.17    6.29
   5   4  -5   -2.62    5.30
   5   4  -5   -3.12    4.91
   5   4  -5   -3.94    3.96
   5   4  -5   -5.45    5.72
   5   4  -5    3.06    6.72
   5   4  -5    2.41    5.95
   5   4  -5   -0.67    5.34
  -5   4   5    8.45    4.51
   4  -4  -5   22.94    8.84
   4  -4  -5   32.67    6.40
  -4  -4   5   29.21    4.06
   4  -4  -5   17.40    5.97
   4  -4  -5   26.90    8.08
   4  -4  -5   15.19    4.30
   4   4  -5   27.28    6.63
   4   4  -5   15.70    4.54
   4   4  -5   31.92    5.37
   4   4  -5   26.39    5.61
   4   4  -5   27.33    5.08
  -4   4   5   26.27    4.99
  -4   4   5   24.53    4.95
   4   4  -5   26.01    6.28
   3  -4  -5   91.74    7.55
   3  -4  -5   85.92    9.94
  -3  -4   5  105.21    5.67
   3  -4  -5   96.11    5.65
   3  -4  -5   91.41    7.10
  -3   4   5  102.47    6.49
  -3   4   5  100.08    6.42
   3   4  -5  110.27    7.48
   3   4  -5  101.26    7.93
  -3   4   5   87.53    5.96
   3   4  -5  113.22    6.93
   3   4  -5  104.67    5.99
   2  -4  -5   44.60    8.39
   2  -4  -5   50.05    5.96
   2  -4  -5   42.77    4.64
  -2  -4   5   53.56    4.39
   2  -4  -5   38.82    5.20
   2   4  -5   46.32    6.12
   2   4  -5   47.50    4.84
  -2   4   5   41.32    5.29
   2   4  -5   55.35    6.08
  -2   4   5   46.92    5.61
   1  -4  -5   44.33    5.24
  -1  -4   5   43.69    4.12
   1  -4  -5   42.68    7.16
   1  -4  -5   49.41    5.01
  -1   4   5   38.53    5.23
   1   4  -5   53.48    6.04
  -1   4   5   42.39    5.88
   1   4  -5   42.67    6.09
   0  -4  -5   72.26    5.07
   0  -4  -5   73.99    5.77
   0  -4  -5   73.42    5.91
   0  -4   5   78.33    4.82
   0  -4  -5   83.54    9.44
   0   4   5   75.23    6.76
   0   4  -5   80.54    8.49
   0   4   5   68.18    6.28
   0   4   5   71.73    6.70
   0   4  -5   79.79    7.50
   0   4   5   90.50    7.15
   0   4   5   67.60    6.04
  -1  -4  -5   52.99    6.86
  -1  -4  -5   42.13    6.70
  -1  -4  -5   56.22    5.33
  -1  -4  -5   45.76    4.86
   1  -4   5   57.64    6.38
   1  -4   5   48.58    4.47
  -1  -4  -5   56.46    5.71
  -1  -4  -5   63.29    7.71
   1   4   5   65.04    7.33
   1   4   5   54.20    5.82
  -1   4  -5   71.44    8.24
   1   4   5   70.06    6.62
   1   4   5   60.82    6.48
   1   4   5   61.06    6.66
  -1   4  -5   69.67    7.42
  -2  -4  -5   13.74    6.39
  -2  -4  -5   24.73    7.92
  -2  -4  -5   18.08    4.78
  -2  -4  -5   27.37    6.82
  -2  -4  -5   22.39    4.97
   2  -4   5   11.78    3.51
   2  -4   5   20.36    6.56
   2   4   5   20.16    5.60
   2   4   5   29.16    6.46
   2   4   5   10.05    8.20
   2   4   5   19.25    5.65
   2   4   5   13.58    5.44
   2   4   5   30.20    9.89
  -2   4  -5   15.71    7.19
   2   4   5   13.96    5.34
   3  -4   5   15.20    4.32
   3  -4   5   10.97    6.74
  -3  -4  -5   13.19    5.50
  -3  -4  -5    7.57    7.17
  -3  -4  -5   12.60    7.17
  -3  -4  -5   13.47    5.30
  -3  -4  -5   14.36    6.82
   3   4   5   24.43    9.71
  -3   4  -5    0.46    9.38
   3   4   5   12.95    6.46
   3   4   5    5.62    6.00
   3   4   5   20.35    6.31
   3   4   5   21.33    5.74
   3   4   5   -1.63    8.82
   3   4   5   13.35    6.59
  -4  -4  -5   45.25    8.65
  -4  -4  -5   36.40    8.80
  -4  -4  -5   38.62    6.17
   4  -4   5   35.79    5.12
   4  -4   5   36.96    7.67
   4   4   5   48.85    6.96
   4   4   5   45.97    7.38
   4   4   5   48.34    7.15
   6  -5  -5   51.07   11.85
   6  -5  -5   32.95    7.15
   6  -5  -5   36.82    7.72
   6  -5  -5   37.28    6.55
  -6  -5   5   43.13    5.31
   6  -5  -5   58.55    7.93
   6  -5  -5   30.38    4.84
  -6   5   5   37.38    6.00
   6   5  -5   52.88    8.35
   6   5  -5   46.92    7.49
   6   5  -5   51.78    6.58
   6   5  -5   35.42    5.66
   6   5  -5   44.49   10.63
   6   5  -5   45.36    8.60
   5  -5  -5   66.94    8.06
  -5  -5   5   74.45    5.95
   5  -5  -5   77.69    6.20
   5  -5  -5   74.29    7.92
   5  -5  -5   96.89   13.83
   5  -5  -5   85.65    7.53
   5  -5  -5   72.15    8.59
   5   5  -5   69.52    9.58
   5   5  -5   86.76    6.78
   5   5  -5   95.53    7.70
   5   5  -5   87.34    9.12
  -5   5   5   88.41    6.62
   5   5  -5   83.39    6.24
   5   5  -5   86.61    7.38
   5   5  -5   95.40    8.57
   4  -5  -5   19.72    7.32
   4  -5  -5    4.51    6.72
   4  -5  -5    3.84    6.68
   4  -5  -5   10.62    8.73
   4  -5  -5   20.61    8.56
   4  -5  -5   -0.50    8.86
  -4  -5   5   12.59    3.62
   4  -5  -5    8.55    4.17
   4   5  -5   11.51    5.72
  -4   5   5   21.54    5.91
   4   5  -5   20.47    6.83
   4   5  -5   15.11    7.74
  -4   5   5    9.56    5.07
   4   5  -5   11.81    4.43
   4   5  -5   14.70    5.75
   4   5  -5   14.32    5.27
   3  -5  -5   49.84    9.27
   3  -5  -5   46.50   10.21
   3  -5  -5   36.62    4.69
  -3  -5   5   42.62    4.16
   3  -5  -5   54.32    6.67
   3  -5  -5   35.41    6.94
   3  -5  -5   36.33    6.64
   3  -5  -5   45.66    7.13
   3   5  -5   45.52    7.98
  -3   5   5   45.01    5.68
   3   5  -5   42.35    6.16
   3   5  -5   45.24    5.43
   3   5  -5   42.86    6.32
   3   5  -5   45.75    7.64
  -3   5   5   44.87    5.39
   3   5  -5   37.28    5.90
  -3   5   5   35.42    5.55
   2  -5  -5   21.97    4.38
   2  -5  -5    6.83    8.02
   2  -5  -5   13.59    5.06
   2  -5  -5   20.94    5.30
  -2  -5   5   15.64    3.70
   2  -5  -5   12.76    5.94
   2   5  -5   26.37    6.00
  -2   5   5   25.28    4.99
   2   5  -5   19.59    6.44
   2   5  -5   19.13    6.28
  -2   5   5   32.18    5.20
  -2   5   5   16.69    5.59
   2   5  -5   23.10    4.72
   1  -5  -5   46.45    5.54
   1  -5  -5   36.27    6.19
  -1  -5   5   53.46    4.69
   1  -5  -5   50.40    7.08
   1  -5  -5   51.34    8.60
   1  -5  -5   58.22    5.18
  -1   5   5   57.17    7.12
   1   5  -5   50.88    6.60
   1   5  -5   54.47    5.32
  -1   5   5   59.62    6.69
  -1   5   5   45.36    5.90
   1   5  -5   48.12    7.63
  -1   5   5   51.00    6.23
   1   5  -5   50.40    6.85
   0  -5  -5   31.19    4.43
   0  -5  -5   39.51    7.50
   0  -5  -5   34.40    5.43
   0  -5  -5   26.53    6.61
   0  -5  -5   19.97    6.32
   0  -5  -5   30.05    4.94
   0  -5   5   27.26    3.83
   0   5  -5   21.69    8.40
   0   5   5   32.20    6.13
   0   5   5   35.80    6.57
   0   5  -5   33.57    6.91
   0   5   5   22.18    6.38
   0   5   5   20.70    5.16
   0   5   5   21.82    5.81
   1  -5   5   16.34    6.53
  -1  -5  -5   -1.90    6.84
  -1  -5  -5    5.82    4.20
  -1  -5  -5   13.61    7.06
  -1  -5  -5    5.38    4.54
  -1  -5  -5    5.50    6.52
   1  -5   5    4.60    3.41
   1   5   5    1.41    5.24
  -1   5  -5   -1.23    6.55
   1   5   5   -0.59    5.83
   1   5   5    9.37    7.00
   1   5   5    1.50    6.45
   1   5   5    2.35    6.10
   2  -5   5   97.41    8.83
  -2  -5  -5  104.42    8.86
  -2  -5  -5   91.98    6.50
  -2  -5  -5   92.91   10.40
  -2  -5  -5   91.69    6.02
  -2  -5  -5   98.81    8.34
   2  -5   5   94.88    5.60
  -2   5  -5   96.89   10.02
   2   5   5   97.22    8.42
   2   5   5   96.92    7.34
   2   5   5   78.78    7.51
   2   5   5   96.87    9.94
   2   5   5   96.89    8.27
   3  -5   5   23.03    4.37
  -3  -5  -5   34.52    6.90
  -3  -5  -5   21.74    8.23
   3  -5   5   41.47    7.76
  -3  -5  -5   24.66    7.87
  -3  -5  -5   22.70    7.54
  -3  -5  -5   25.88    5.54
   3   5   5   25.47    6.06
   3   5   5   18.70    6.87
   3   5   5   16.47    9.08
   3   5   5   18.82   11.24
  -3   5  -5   28.51    8.72
   3   5   5   28.19    7.05
   3   5   5   23.88    6.15
   3   5   5    9.75    7.26
   4  -6  -5   31.65    8.49
   4  -6  -5   26.88    7.77
   4  -6  -5   32.85    5.02
  -4  -6   5   28.76    4.82
   4  -6  -5   21.09   10.21
   4  -6  -5   27.28    8.29
   4   6  -5   35.89    8.65
   4   6  -5   38.58    7.27
   4   6  -5   39.29   10.08
   4   6  -5   42.36    6.12
   4   6  -5   58.61    9.12
  -4   6   5   33.37    5.81
   4   6  -5   18.25    6.13
  -4   6   5   35.93    5.97
   3  -6  -5   57.98    5.32
   3  -6  -5   46.72    7.56
   3  -6  -5   52.67    7.19
   3  -6  -5   46.19    7.55
  -3  -6   5   48.21    4.50
   3  -6  -5   36.49   11.27
   3  -6  -5   40.32   10.39
   3  -6  -5   55.70    7.35
   3   6  -5   52.88    5.64
   3   6  -5   43.06   12.02
  -3   6   5   53.92    6.10
   3   6  -5   47.06    6.89
  -3   6   5   45.21    6.51
   3   6  -5   50.06    6.98
   3   6  -5   47.40    8.13
   3   6  -5   53.18    6.68
   2  -6  -5    8.10    6.93
   2  -6  -5    7.91    6.31
  -2  -6   5    9.57    3.86
   2  -6  -5   10.58    4.31
   2  -6  -5    9.50    8.66
   2  -6  -5    7.88    7.17
   2  -6  -5    8.90    5.78
  -2   6   5    5.09    5.30
   2   6  -5    3.93    6.13
  -2   6   5   -4.59    5.45
   2   6  -5   11.08    4.89
  -2   6   5    3.23    5.60
   2   6  -5   12.95    6.95
   2   6  -5    5.53    6.05
  -1  -6   5   15.98    3.86
   1  -6  -5    7.64    6.50
   1  -6  -5    7.93    4.54
   1  -6  -5    9.99    6.62
   1  -6  -5   -3.75    7.47
   1  -6  -5   17.04    5.39
   1   6  -5    7.82    6.20
  -1   6   5   16.92    7.22
  -1   6   5  -10.50    5.85
  -1   6   5    9.71    5.92
   1   6  -5   12.10    6.33
   1   6  -5    5.90    5.59
   1   6  -5   11.11    7.56
  -1   6   5   11.43    5.86
   0  -6  -5   10.51    8.56
   0  -6  -5   17.80    6.65
   0  -6   5   16.18    3.79
   0  -6  -5   25.27    7.35
   0  -6  -5   24.18    4.59
   0  -6  -5   14.12    5.76
   0  -6  -5   18.64    5.20
   0   6   5   22.17    6.83
   0   6   5   28.34    6.92
   0   6   5   22.31    7.63
   0   6   5   26.84    6.57
   0   6  -5   32.51    6.41
   0   6  -5   43.54    7.72
   0   6  -5   16.33    7.76
  -1  -6  -5   41.74    7.97
  -1  -6  -5   48.34    8.30
  -1  -6  -5   42.59    7.81
  -1  -6  -5   44.22    5.96
   1  -6   5   57.38    4.74
  -1  -6  -5   38.77    5.44
  -1   6  -5   56.73    8.21
   1   6   5   50.41    8.04
   1   6   5   47.75    7.82
   1   6   5   51.50    6.37
   1   6   5   53.96    7.28
   1   6   5   50.55    7.87
   7   0  -6   26.34    7.14
   7   0  -6   35.16    7.38
   7   0  -6   28.53   12.50
   7   0  -6   22.38    6.89
   7   0  -6   24.87    7.30
   7   0  -6   20.53    6.84
   7   0  -6   31.62    5.45
   7   0  -6   30.82    6.34
   7   0  -6   32.84    6.92
   6   0  -6    2.95    6.32
   6   0  -6   -3.42    7.07
   6   0  -6    5.21    4.67
   6   0  -6   14.01    7.24
   6   0  -6    0.33    6.26
   6   0  -6   13.34   16.83
  -6   0   6   11.01    5.39
   6   0  -6    3.95    6.14
   6   0  -6   -3.36    5.27
   6   0  -6    3.64    5.73
   6   0  -6    3.04    5.45
   5   0  -6   31.90    9.12
   5   0  -6   21.20    6.09
   5   0  -6   23.06    5.61
   5   0  -6   24.97    6.35
   5   0  -6   22.95    4.88
  -5   0   6   26.83    9.80
   5   0  -6   26.29    9.72
   5   0  -6   24.82    9.71
  -5   0   6   22.74    8.33
   5   0  -6   19.11    6.24
  -5   0   6   26.51    8.51
   5   0  -6   22.93    5.98
  -4   0   6   85.44   11.08
   4   0  -6   55.17    9.02
   4   0  -6   69.52    9.69
  -4   0   6   48.68    8.24
   4   0  -6   80.55   11.48
  -4   0   6   44.14    9.16
   4   0  -6   61.51    6.80
   4   0  -6   57.04    5.48
   4   0  -6   76.04    9.62
   4   0  -6   59.22    7.24
   3   0  -6  133.24   11.82
  -3   0   6  131.47   11.64
  -3   0   6  131.43   12.29
   3   0  -6  131.79   12.89
   3   0  -6  148.10   11.68
   3   0  -6  130.56    9.22
   3   0  -6  128.09   12.19
  -3   0   6  137.04   12.85
   3   0  -6  134.11    6.92
   2   0  -6  427.76   18.76
   2   0  -6  436.63   17.81
   2   0  -6  426.75   14.60
  -2   0   6  415.23   19.07
  -2   0   6  417.19   17.80
   2   0  -6  413.09   16.53
  -2   0   6  425.91   19.17
   1   0  -6    8.95    6.87
   1   0  -6   -8.40    7.65
  -1   0   6   -4.30    7.26
  -1   0   6    8.09    7.17
  -1   0   6    4.00    8.28
   1   0  -6    5.23    4.97
   1   0  -6    2.55    7.24
   0   0  -6  162.95   10.95
   0   0   6  184.71   16.04
   0   0  -6  142.17    7.68
   0   0   6  145.20   13.01
   0   0  -6  174.63   13.41
   0   0  -6  165.82   14.20
   0   0  -6  146.71    8.54
   0   0   6  142.55    8.27
   1   0   6   59.34    6.78
   1   0   6   28.77    8.90
  -1   0  -6   44.93    6.25
  -1   0  -6   43.76    8.20
  -1   0  -6   47.93    5.38
  -1   0  -6   50.96   10.17
   1   0   6   37.73   11.54
  -1   0  -6   36.66    9.15
   1   0   6   22.53    8.60
  -1   0  -6   41.25    8.88
   1   0   6   53.01   13.50
  -2   0  -6   19.32   10.58
   2   0   6   33.39    6.08
   2   0   6   11.87    5.47
  -2   0  -6   15.09    6.33
  -2   0  -6   21.22   10.48
  -2   0  -6    8.08    6.69
   2   0   6   17.55   10.07
   2   0   6   14.16    5.29
  -2   0  -6   13.69    7.94
   2   0   6   18.43    5.27
  -2   0  -6   14.16    5.14
   3   0   6   19.76    6.21
  -3   0  -6   14.51    6.69
  -3   0  -6   17.05    6.38
   3   0   6   14.10    6.18
  -3   0  -6   24.52    8.86
   3   0   6   25.58    6.05
  -3   0  -6   27.02    8.36
   3   0   6   15.96    6.15
   4   0   6   22.46    7.14
   4   0   6   -1.37    6.17
   4   0   6    4.68    6.85
  -4   0  -6   -3.03    8.15
   4   0   6   22.00    6.58
   4   0   6    6.83    9.98
  -4   0  -6   -5.06    8.69
  -4   0  -6    8.13    9.52
   7  -1  -6   27.83    6.95
   7  -1  -6   34.95    7.62
   7  -1  -6   33.86    7.55
   7  -1  -6   22.33    6.23
   7  -1  -6   24.23    6.95
   7  -1  -6   12.01   11.70
   7  -1  -6   25.02    7.90
   7  -1  -6   28.93    5.91
   7  -1  -6   33.43    7.75
   7  -1  -6   33.98    7.34
   7   1  -6   29.28    9.01
   7   1  -6   37.25   13.17
   7   1  -6   18.02    7.35
   7   1  -6   27.82    7.53
   7   1  -6   34.97    5.58
  -7   1   6   27.62    6.29
   7   1  -6   29.69    7.03
   7   1  -6   23.00    6.47
   7   1  -6   25.46    7.63
   7   1  -6   23.60    7.22
   6  -1  -6    4.04    5.85
   6  -1  -6   -3.85    6.31
   6  -1  -6   14.68    5.87
   6  -1  -6    0.09    6.36
   6  -1  -6    8.69    6.78
  -6  -1   6    6.67    5.41
   6  -1  -6   11.91    6.12
   6  -1  -6   19.23    9.93
   6  -1  -6    8.08    6.18
   6  -1  -6   11.74    5.04
   6   1  -6   15.34    7.37
   6   1  -6    9.52    5.66
   6   1  -6   -0.10    5.61
   6   1  -6    3.54    4.48
   6   1  -6    8.24    5.83
   6   1  -6   12.34   12.56
  -6   1   6    2.56    4.73
   6   1  -6   -3.20    6.27
   6   1  -6   -2.96    6.20
   6   1  -6   24.57    6.61
   5  -1  -6   62.25    6.85
   5  -1  -6   67.64    7.02
   5  -1  -6   66.85    7.85
   5  -1  -6   68.77    7.30
   5  -1  -6   78.23    6.89
   5  -1  -6   71.62    6.76
   5  -1  -6   65.03    5.70
   5  -1  -6   54.70   10.91
   5   1  -6   56.58   10.48
   5   1  -6   75.30    6.32
   5   1  -6   69.07    5.84
   5   1  -6   69.71    7.58
   5   1  -6   76.89    6.98
  -5   1   6   55.30   10.14
  -5   1   6   67.67    6.32
   5   1  -6   83.27    8.32
   5   1  -6   71.48    7.44
   5   1  -6   64.84   10.47
   5   1  -6   69.10    6.82
   5   1  -6   73.79   11.40
   5   1  -6   67.36    6.75
   4  -1  -6   68.93   10.22
   4  -1  -6   86.07    7.01
   4  -1  -6   88.28   11.24
   4  -1  -6   67.15    7.55
   4  -1  -6   61.08   11.90
   4  -1  -6   70.06    5.70
  -4  -1   6   54.77   10.03
   4  -1  -6   60.60    6.53
   4  -1  -6   70.37    6.72
  -4  -1   6   45.15   12.49
  -4  -1   6   78.14   11.08
  -4   1   6   63.49    5.56
   4   1  -6   65.19    9.13
   4   1  -6   48.29    9.41
  -4   1   6   65.50    9.20
  -4   1   6   71.87   11.14
   4   1  -6   93.50   13.29
   4   1  -6   69.08    5.49
   4   1  -6   70.58    7.54
   4   1  -6   65.83    6.65
   4   1  -6   74.85    9.94
  -4   1   6   80.01   11.75
   4   1  -6   75.78    6.34
  -3  -1   6   20.11    6.74
   3  -1  -6   16.42    7.71
  -3  -1   6   19.18    8.64
   3  -1  -6   20.14    4.73
   3  -1  -6   10.00    8.10
   3  -1  -6   17.46    5.64
   3  -1  -6   24.90    8.49
   3  -1  -6   16.00    6.42
  -3  -1   6   20.37    7.07
   3   1  -6   11.13    5.97
   3   1  -6    9.77    7.43
   3   1  -6   25.47    7.33
   3   1  -6   13.00    7.95
   3   1  -6   10.44    7.63
  -3   1   6   12.44    7.83
  -3   1   6   10.26    7.95
  -3   1   6   18.99    6.34
   3   1  -6   24.10    4.72
   2  -1  -6    3.04    7.18
  -2  -1   6    4.83    8.54
   2  -1  -6    1.18    4.57
  -2  -1   6   -3.21    6.94
   2  -1  -6    3.61    6.12
  -2  -1   6   -1.48    6.67
   2  -1  -6    9.28    7.69
  -2   1   6    6.93    6.18
   2   1  -6    6.55    7.71
   2   1  -6   -3.54    5.90
  -2   1   6    4.63    8.02
  -2   1   6    8.16    7.37
   2   1  -6   -2.79    4.53
   2   1  -6   -6.10    8.48
   2   1  -6   -3.37    6.92
  -1  -1   6   91.51   12.12
  -1  -1   6   75.45   11.05
   1  -1  -6  101.27   12.33
   1  -1  -6   87.65   11.33
   1  -1  -6   91.34    8.50
   1  -1  -6   82.64    5.98
   1   1  -6  108.03   13.38
  -1   1   6  104.76    7.35
  -1   1   6  121.43   13.71
   1   1  -6   78.67   10.54
  -1   1   6   96.99   11.89
   1   1  -6  104.46   11.52
  -1   1   6   94.84   11.52
   1   1  -6   72.26    7.37
   1   1  -6   81.58    6.39
   0  -1  -6   92.37   13.02
   0  -1  -6   85.72    5.90
   0  -1   6   68.75    6.63
   0  -1  -6   87.03    7.27
   0  -1  -6   82.97    8.20
   0  -1   6   66.71    8.93
   0  -1  -6   88.69   12.23
   0   1   6  102.01   13.32
   0   1   6   70.32    8.88
   0   1  -6   80.35   10.58
   0   1   6   76.51   11.76
   0   1  -6   97.85   10.96
   0   1   6   71.98    6.77
   0   1  -6   76.69    6.69
   0   1   6   86.10    9.99
   0   1  -6   78.55    7.45
   0   1  -6   67.15    9.45
  -1  -1  -6   18.40    5.82
   1  -1   6    6.20    5.47
  -1  -1  -6    8.32    6.91
   1  -1   6   20.48    4.65
  -1  -1  -6   13.90    9.81
  -1  -1  -6   10.55    4.77
  -1  -1  -6   32.27   12.90
  -1  -1  -6   14.20    6.46
   1   1   6   16.53    6.00
   1   1   6   -3.62    8.37
   1   1   6   -1.08    8.76
  -1   1  -6   13.64    7.10
   1   1   6   14.29    5.14
  -1   1  -6   22.15    5.60
  -1   1  -6    9.35    5.61
   1   1   6   18.99    8.59
   1   1   6   16.29   10.64
  -1   1  -6   22.17   10.22
   2  -1   6   33.43    6.22
  -2  -1  -6   27.12    5.40
   2  -1   6   25.87    6.18
  -2  -1  -6   24.35    8.64
  -2  -1  -6   27.67    6.11
   2  -1   6   27.52    5.12
  -2  -1  -6   35.67    7.31
   2  -1   6   31.05    6.42
   2  -1   6   38.76   10.63
  -2   1  -6   26.84    7.55
  -2   1  -6   24.66    8.66
   2   1   6   28.37    5.46
  -2   1  -6   31.76    6.32
   2   1   6   33.13    6.45
   2   1   6   33.79   10.20
   2   1   6   13.54   13.30
   2   1   6   23.80    6.00
  -2   1  -6   31.22    6.60
  -3  -1  -6   16.84    6.20
  -3  -1  -6   15.82    5.73
   3  -1   6   11.27    6.73
  -3  -1  -6   11.15    8.02
   3  -1   6   24.09    7.24
   3  -1   6   39.43   11.60
   3  -1   6   16.25    5.19
   3  -1   6    9.21    6.36
  -3  -1  -6   18.24    7.70
  -3   1  -6   21.43    8.97
  -3   1  -6   15.24    7.60
  -3   1  -6   14.69    9.35
   3   1   6   12.18    6.63
   3   1   6   40.52   10.66
   3   1   6   19.31    6.82
  -3   1  -6   16.00    9.75
   3   1   6   13.66    5.90
   3   1   6   17.66    6.19
   3   1   6   13.95    5.95
   4  -1   6   20.42    6.18
  -4  -1  -6   30.51    7.65
  -4  -1  -6   17.29    7.04
   4  -1   6   18.46    7.23
  -4  -1  -6   17.44    8.31
   4  -1   6   13.53   10.77
   4  -1   6   15.86    6.67
   4  -1   6   24.07    7.09
  -4  -1  -6   20.66   10.44
   4   1   6   21.46    7.82
  -4   1  -6    5.46   12.32
   4   1   6   19.76    6.74
  -4   1  -6   25.43   12.05
   4   1   6   10.45    9.49
   4   1   6   20.18   10.06
   4   1   6   12.74   11.16
   4   1   6   26.71    7.63
   7  -2  -6   32.21    7.55
   7  -2  -6   28.34    5.97
   7  -2  -6   35.48    9.94
  -7  -2   6   27.46    5.97
   7  -2  -6   25.64    7.52
   7  -2  -6   39.88   12.38
   7  -2  -6   35.75    7.30
   7  -2  -6   23.19    7.13
   7  -2  -6   23.61    8.30
   7   2  -6   25.27    5.50
   7   2  -6   38.42    6.62
  -7   2   6   30.01    6.63
   7   2  -6   31.27    6.76
   7   2  -6    9.12   14.18
   7   2  -6   42.54    9.23
   7   2  -6   45.23    8.90
   7   2  -6   37.54    7.32
   7   2  -6   42.13    7.67
  -6  -2   6   40.99    6.14
   6  -2  -6   43.03    6.63
   6  -2  -6   44.00    6.88
   6  -2  -6   53.85    7.00
   6  -2  -6   32.02    7.02
   6  -2  -6   43.18    7.40
   6  -2  -6   61.48   11.06
   6  -2  -6   43.15    7.79
   6  -2  -6   46.13    5.52
   6  -2  -6   24.76    5.26
  -6   2   6   46.99    5.77
   6   2  -6   40.87    7.26
   6   2  -6   47.24    5.75
   6   2  -6   49.27    6.92
   6   2  -6   60.06    8.00
   6   2  -6   49.52    7.39
   6   2  -6   40.33    8.20
   6   2  -6   49.91    6.44
   6   2  -6   36.65    6.19
   6   2  -6   38.53   14.94
   5  -2  -6   10.10    5.87
   5  -2  -6   -1.06    5.36
  -5  -2   6   17.01    5.04
   5  -2  -6   15.73    5.05
   5  -2  -6   20.45    5.21
   5  -2  -6   25.35    6.54
   5  -2  -6    9.64    5.95
   5  -2  -6   19.87    9.24
   5  -2  -6   22.58    6.08
   5  -2  -6   13.29    6.68
   5   2  -6   19.90    6.49
  -5   2   6   16.61    4.87
   5   2  -6   16.11    4.57
   5   2  -6   12.02    6.41
   5   2  -6   12.06    5.63
   5   2  -6   19.13    5.41
   5   2  -6   11.58    6.51
   5   2  -6   16.13    5.87
  -4  -2   6   32.59    4.62
   4  -2  -6   42.19    9.50
   4  -2  -6   33.57    6.48
   4  -2  -6   37.49    6.12
   4  -2  -6   33.92    7.69
   4  -2  -6   33.66    5.56
   4  -2  -6   40.19    6.12
   4  -2  -6   43.96    6.04
   4  -2  -6   31.95    5.11
   4   2  -6   41.00    7.24
   4   2  -6   25.33    9.47
   4   2  -6   25.70    5.73
   4   2  -6   33.84    5.61
   4   2  -6   38.03    5.09
   4   2  -6   42.58    6.51
  -4   2   6   38.45    5.80
   4   2  -6   31.11    5.71
  -3  -2   6  103.58   13.26
  -3  -2   6  101.42    6.43
   3  -2  -6   98.10    6.29
   3  -2  -6   83.16    6.46
   3  -2  -6   88.28    7.10
   3  -2  -6   95.39   11.86
   3  -2  -6   95.88    8.67
  -3   2   6   97.24   14.02
   3   2  -6   93.71   13.18
  -3   2   6   90.79    6.37
   3   2  -6   90.98    7.25
  -3   2   6   94.61    7.90
   3   2  -6  105.51    7.95
   3   2  -6   91.24   12.71
  -3   2   6   69.17   10.83
   3   2  -6   99.13    6.23
  -2  -2   6  110.66    6.23
   2  -2  -6  115.27   15.83
   2  -2  -6  134.88   10.11
   2  -2  -6  114.30    9.20
   2  -2  -6  103.91    7.45
  -2  -2   6  107.23   11.94
   2  -2  -6  113.39    6.63
   2   2  -6  109.43    7.76
   2   2  -6  108.37    6.70
  -2   2   6  116.47    7.31
   2   2  -6  123.13    8.96
  -2   2   6  109.48   13.90
  -2   2   6  119.06   12.53
   2   2  -6  105.44   11.62
   2   2  -6  118.44   13.11
  -1  -2   6   -6.58    7.86
   1  -2  -6    6.34    4.34
   1  -2  -6   12.43   12.60
   1  -2  -6   -3.28    6.15
   1  -2  -6    1.93    5.45
  -1  -2   6    0.46    4.43
  -1   2   6   10.31    8.10
   1   2  -6    5.06    6.25
   1   2  -6    5.11    8.84
   1   2  -6   -0.15    4.70
  -1   2   6   -2.73    8.12
  -1   2   6   -2.49    4.56
   1   2  -6   -0.27    5.45
  -1   2   6    1.96    5.35
   0  -2  -6   29.65    5.91
   0  -2  -6   28.84    5.75
   0  -2   6   28.49    4.47
   0  -2  -6   33.01    5.04
   0  -2  -6   28.96    5.42
   0  -2  -6   43.99    7.58
   0  -2  -6   30.63    6.73
   0  -2   6   34.75    5.83
   0   2  -6   27.04    6.15
   0   2   6   29.04    8.95
   0   2  -6   29.59    5.46
   0   2   6   25.94    9.39
   0   2   6   36.30    6.46
   0   2   6   37.19    9.43
   0   2  -6   33.50   10.56
   0   2   6   31.04    5.50
  -1  -2  -6   26.38    5.22
  -1  -2  -6   24.16    5.83
  -1  -2  -6   36.49    7.63
   1  -2   6   21.44    5.84
  -1  -2  -6   25.36    6.72
   1  -2   6   25.52    4.48
  -1  -2  -6   22.26    6.20
  -1  -2  -6   32.88    5.71
   1   2   6   29.77    5.33
   1   2   6   35.98   10.62
   1   2   6   45.46    5.88
   1   2   6   35.03    6.55
  -1   2  -6   23.72    9.30
   1   2   6   41.23    6.56
  -1   2  -6   36.66    6.19
  -1   2  -6   31.63    6.95
  -2  -2  -6   58.83    7.49
   2  -2   6   68.25    7.28
   2  -2   6   44.65    8.23
  -2  -2  -6   58.34    6.05
  -2  -2  -6   81.36    7.78
  -2  -2  -6   62.02    6.67
   2  -2   6   67.22    5.67
  -2  -2  -6   67.59    7.41
  -2  -2  -6   62.57    8.57
   2   2   6   69.23    6.80
   2   2   6   74.66    6.81
   2   2   6   67.46    7.55
   2   2   6   65.86    6.95
  -2   2  -6   63.84    9.21
   2   2   6   57.21    6.51
  -2   2  -6   79.70    7.49
  -2   2  -6   72.46    7.80
  -2   2  -6   70.01    9.96
   2   2   6   91.31   11.88
  -3  -2  -6   23.61    6.64
   3  -2   6   17.13    6.25
  -3  -2  -6   22.52    7.46
  -3  -2  -6   22.24    5.75
   3  -2   6    7.79    4.57
   3  -2   6    8.89    6.74
  -3  -2  -6   13.43    7.38
  -3  -2  -6   19.95    6.29
   3  -2   6   24.33    7.38
  -3  -2  -6   23.05    8.19
   3   2   6   20.85    6.28
  -3   2  -6   25.92    7.46
   3   2   6   14.41    6.88
   3   2   6   20.13    6.33
   3   2   6   28.88    7.17
  -3   2  -6   20.86    9.49
   3   2   6   40.27   10.82
   3   2   6   25.98    6.13
   6  -3  -6    4.70    9.56
   6  -3  -6   -2.15    5.72
   6  -3  -6    7.78    7.25
   6  -3  -6    2.44    5.03
   6  -3  -6    6.09    7.77
   6  -3  -6    1.82    6.27
   6  -3  -6    1.12    6.15
   6  -3  -6   -3.96    7.52
  -6  -3   6   -0.01    5.15
   6  -3  -6    2.85    6.43
   6   3  -6   14.97    6.38
  -6   3   6   15.27    5.75
   6   3  -6   -7.55    6.16
   6   3  -6    4.47    5.73
   6   3  -6   -4.53    8.79
   6   3  -6   10.70    7.41
   6   3  -6   -0.77    5.79
   6   3  -6    4.48    4.83
   6   3  -6    2.12    7.09
  -5  -3   6   82.21    6.33
   5  -3  -6   82.58    6.92
   5  -3  -6   78.23    7.90
   5  -3  -6  100.21   13.30
   5  -3  -6   81.38    7.72
   5  -3  -6   80.50    6.22
   5  -3  -6   71.08    6.83
   5  -3  -6   68.27    7.41
   5  -3  -6   81.57    9.40
   5  -3  -6   65.44    7.50
   5   3  -6   74.32    7.14
   5   3  -6   79.92    8.01
   5   3  -6  102.37    8.76
   5   3  -6   79.30    7.26
  -5   3   6   72.54    6.46
   5   3  -6   63.86    5.98
   5   3  -6   86.09    6.94
   5   3  -6   81.47    8.13
   4  -3  -6   66.63    8.43
   4  -3  -6   62.21    6.56
   4  -3  -6   58.31    6.36
   4  -3  -6   61.80    7.50
   4  -3  -6   67.43    7.16
  -4  -3   6   63.70    5.51
   4  -3  -6   60.73    5.91
   4  -3  -6   75.56   10.82
   4  -3  -6   71.16    7.26
  -4   3   6   72.49    6.45
  -4   3   6   69.91    6.15
   4   3  -6   66.78    6.50
   4   3  -6   67.09    7.65
   4   3  -6   60.60    7.33
   4   3  -6   55.62    6.43
   4   3  -6   65.75    6.66
   4   3  -6   75.63    5.55
   3  -3  -6   -6.92    6.98
  -3  -3   6    8.64    4.21
   3  -3  -6  -10.34    4.21
   3  -3  -6   -3.07    5.28
   3  -3  -6    0.89    5.59
   3  -3  -6    1.95    5.39
   3  -3  -6   -8.44    5.52
   3   3  -6   -1.68    6.06
  -3   3   6   -0.45    4.26
  -3   3   6    4.13    4.66
   3   3  -6    2.40    4.55
   3   3  -6   -0.34    5.02
  -3   3   6   -0.77    5.30
   3   3  -6    3.21    5.34
   2  -3  -6    4.88    5.41
   2  -3  -6   -0.69    4.45
   2  -3  -6    4.72    5.64
   2  -3  -6   18.69    7.75
   2  -3  -6    6.76    4.61
   2  -3  -6   12.00    5.91
  -2  -3   6    9.98    3.91
  -2   3   6    3.47    4.73
   2   3  -6   12.30    4.69
  -2   3   6   13.42    5.30
   2   3  -6    0.72    5.51
   2   3  -6    7.72    5.77
  -2   3   6    7.68    4.80
   2   3  -6   11.60    6.77
   1  -3  -6   45.78    5.89
   1  -3  -6   53.76    6.89
  -1  -3   6   58.96    5.14
   1  -3  -6   53.17    7.11
   1  -3  -6   67.51    6.17
   1  -3  -6   49.50    5.47
   1  -3  -6   56.25    6.08
   1  -3  -6   45.57    7.90
   1   3  -6   46.79    7.92
   1   3  -6   59.01    7.49
  -1   3   6   52.49    6.04
   1   3  -6   48.98    6.16
  -1   3   6   50.04    6.53
  -1   3   6   39.91    5.91
   1   3  -6   49.59    6.74
   0  -3  -6  120.50    8.20
   0  -3  -6  130.30    7.35
   0  -3  -6  107.86    9.45
   0  -3  -6  124.49    6.86
   0  -3  -6  119.50    9.56
   0  -3  -6  127.07    7.26
   0  -3   6  113.35    6.31
   0  -3  -6  120.01    7.52
   0  -3   6  117.09    7.80
   0   3   6  123.61    7.76
   0   3  -6  113.24   10.39
   0   3  -6  119.43    7.31
   0   3  -6  114.32   13.98
   0   3   6  122.60    7.36
   0   3   6  117.04    7.67
   0   3   6  114.91    8.43
   0   3  -6  122.62    8.79
  -1  -3  -6   33.68    5.37
   1  -3   6   31.03    6.27
  -1  -3  -6   40.21    5.65
  -1  -3  -6   30.24    6.93
  -1  -3  -6   28.82    7.93
  -1  -3  -6   30.09    6.82
  -1  -3  -6   36.99    6.02
   1  -3   6   38.80    4.41
   1   3   6   31.50    5.48
  -1   3  -6   32.29    7.11
  -1   3  -6   22.50    9.14
  -1   3  -6   33.12    7.36
   1   3   6   32.44    7.27
  -1   3  -6   27.11    7.61
   1   3   6   35.87    6.25
   1   3   6   33.12    5.98
   1   3   6   31.91    5.79
  -2  -3  -6   86.36    9.27
  -2  -3  -6   89.44   10.45
  -2  -3  -6   76.31    6.53
   2  -3   6   85.81    7.90
  -2  -3  -6   75.52    6.79
  -2  -3  -6   76.10    8.32
  -2  -3  -6   92.18    7.19
   2  -3   6   87.36    5.72
  -2   3  -6   66.69   10.74
   2   3   6   99.42    8.15
   2   3   6   74.02    7.45
  -2   3  -6   74.13    8.68
   2   3   6   63.16   10.95
   2   3   6   79.79    8.55
   2   3   6   80.51    6.78
   2   3   6   73.29    7.24
  -3  -3  -6   70.36    7.60
  -3  -3  -6   50.31    9.72
   3  -3   6   45.04    7.18
   3  -3   6   47.78    5.21
  -3  -3  -6   53.51    8.38
  -3  -3  -6   39.96    6.36
  -3  -3  -6   51.68   11.29
  -3  -3  -6   41.92    6.76
   3  -3   6   34.28    7.81
   3   3   6   36.57    7.78
   3   3   6   42.08    6.97
   3   3   6   76.03   12.22
  -3   3  -6   46.55    8.83
   3   3   6   44.97    7.09
   3   3   6   62.74    7.42
   6  -4  -6   19.21    6.15
   6  -4  -6   14.90    8.31
   6  -4  -6   39.44   10.94
   6  -4  -6   38.76    7.83
   6  -4  -6   19.57    5.79
  -6  -4   6   13.70    5.94
   6  -4  -6   19.10    8.02
   6  -4  -6   17.63    7.18
   6   4  -6   33.73    6.26
   6   4  -6   16.33    6.32
   6   4  -6   28.64    6.85
   6   4  -6   28.02    9.25
  -6   4   6   18.50    5.78
   6   4  -6   31.51    6.08
   6   4  -6   37.99    9.20
   6   4  -6   31.68    9.85
   5  -4  -6    5.48    4.58
   5  -4  -6   -2.71    6.96
   5  -4  -6    2.07    6.58
   5  -4  -6    7.48    8.55
   5  -4  -6   11.88    6.08
   5  -4  -6    7.76    9.98
   5  -4  -6    2.56    6.63
  -5  -4   6   13.74    4.73
   5  -4  -6   10.01    6.94
   5   4  -6    8.22    8.31
   5   4  -6   12.91    7.51
  -5   4   6   16.53    5.98
   5   4  -6   -7.11    4.74
   5   4  -6    5.35    7.91
   5   4  -6    0.03    5.53
   5   4  -6    3.06    6.02
   5   4  -6    5.63    5.89
   4  -4  -6    5.37    6.05
   4  -4  -6   -5.38    5.67
  -4  -4   6    6.37    4.00
   4  -4  -6    1.21    6.60
   4  -4  -6    8.92    7.55
   4  -4  -6   12.11    9.65
   4  -4  -6    3.05    4.84
   4  -4  -6    9.02    6.53
  -4   4   6    3.51    5.08
   4   4  -6   11.81    7.09
   4   4  -6    9.40    6.22
   4   4  -6    5.94    5.83
  -4   4   6    7.22    5.06
   4   4  -6   17.25    4.95
   4   4  -6    7.97    5.84
   4   4  -6   21.73    8.02
   3  -4  -6   55.19    6.39
   3  -4  -6   74.59    7.27
   3  -4  -6   67.15   11.30
   3  -4  -6   61.73    7.38
   3  -4  -6   52.09    8.71
  -3  -4   6   58.07    5.49
   3  -4  -6   66.71    6.19
   3  -4  -6   68.06    6.96
  -3   4   6   66.53    6.46
  -3   4   6   66.84    6.04
   3   4  -6   65.91    6.67
   3   4  -6   74.60    8.10
   3   4  -6   59.73    5.74
   3   4  -6   57.05    7.29
  -3   4   6   74.32    6.59
   3   4  -6   62.91    7.16
   3   4  -6   87.27    8.42
   2  -4  -6   38.38    5.82
   2  -4  -6   35.90    6.28
   2  -4  -6   26.95    6.55
   2  -4  -6   45.48    8.27
   2  -4  -6   36.95    7.00
   2  -4  -6   19.40    8.95
  -2  -4   6   28.16    4.42
  -2   4   6   38.84    6.10
  -2   4   6   47.46    5.89
   2   4  -6   27.75    6.75
  -2   4   6   33.71    5.63
   2   4  -6   30.79    6.29
   2   4  -6   34.07    5.14
   2   4  -6   30.83    5.94
   1  -4  -6   -8.93    7.16
   1  -4  -6   -1.96    6.38
  -1  -4   6    4.23    4.16
   1  -4  -6  -12.03    5.95
   1  -4  -6    1.87    5.51
   1  -4  -6   -4.16    4.85
   1  -4  -6   11.01    4.72
   1  -4  -6   -3.62    5.19
  -1   4   6    3.22    5.52
   1   4  -6    2.86    7.50
   1   4  -6    0.93    4.91
   1   4  -6   -0.40    6.08
  -1   4   6    4.42    5.30
   1   4  -6   -0.32    6.18
  -1   4   6    4.50    5.94
  -1   4   6   -3.53    6.50
   0  -4   6   -6.99    5.98
   0  -4  -6   -1.72    5.48
   0  -4  -6   13.03    4.95
   0  -4  -6    8.71    7.64
   0  -4   6   -0.48    4.10
   0  -4  -6   16.15    6.33
   0  -4  -6    5.06    5.22
   0  -4  -6    8.17    7.12
   0   4   6   17.93    6.00
   0   4  -6   11.17    5.76
   0   4  -6    9.85    6.78
   0   4   6    8.63    5.32
   0   4  -6   18.98    7.02
   0   4   6   10.18    6.05
   0   4  -6    4.67    7.36
   0   4   6    0.32    6.76
  -1  -4  -6   16.69    7.17
  -1  -4  -6    2.87    7.02
  -1  -4  -6    7.65    7.72
  -1  -4  -6    9.02    5.66
  -1  -4  -6   16.82    5.28
  -1  -4  -6    8.06    5.06
   1  -4   6   14.53    6.49
   1  -4   6   10.33    4.07
   1   4   6    6.75    8.05
   1   4   6   19.21    6.09
  -1   4  -6   22.60    7.20
   1   4   6    7.11    5.37
   1   4   6    9.60    6.38
  -1   4  -6   25.87    8.58
  -1   4  -6    8.94    8.35
   1   4   6   11.06    6.20
  -2  -4  -6   39.15    7.75
  -2  -4  -6   35.94    6.11
  -2  -4  -6   31.98    5.87
   2  -4   6   27.78    6.82
  -2  -4  -6   47.99    6.56
  -2  -4  -6   36.55    7.81
  -2  -4  -6   25.21    8.69
   2  -4   6   42.87    4.83
   2   4   6   33.44    8.23
   2   4   6   47.20    7.72
   2   4   6   44.33    7.17
   2   4   6   43.94    7.17
  -2   4  -6   25.21    8.11
   2   4   6   33.51    6.67
  -5  -5   6   35.01    5.26
   5  -5  -6   35.37   11.04
   5  -5  -6   34.20   11.88
   5  -5  -6   44.93    7.68
   5  -5  -6   20.09    8.14
   5  -5  -6   17.43    5.28
   5  -5  -6   31.93   10.00
   5  -5  -6   34.78    8.18
   5   5  -6   32.14    7.73
   5   5  -6   29.86    8.58
   5   5  -6   43.74    9.41
   5   5  -6   28.17    5.60
  -5   5   6   27.89    6.03
   5   5  -6   21.15    6.82
   5   5  -6   32.76    7.19
   4  -5  -6   22.44    7.50
   4  -5  -6   19.24    7.09
  -4  -5   6   26.96    4.75
   4  -5  -6   15.04    9.99
   4  -5  -6   13.31    7.72
   4  -5  -6   23.03    4.94
   4  -5  -6   35.69    7.56
   4  -5  -6   28.59   10.91
   4   5  -6   41.43    6.88
   4   5  -6   27.98    8.26
   4   5  -6   26.27    5.32
  -4   5   6   31.50    6.55
   4   5  -6   26.91    6.28
  -4   5   6   28.12    6.65
   4   5  -6   33.81    7.87
   4   5  -6   18.16    6.42
   3  -5  -6   10.48    8.30
   3  -5  -6   12.21    5.14
   3  -5  -6    3.87    6.31
   3  -5  -6    2.16    9.31
   3  -5  -6   10.79    5.83
   3  -5  -6    6.54   10.61
   3  -5  -6    1.78    7.04
   3  -5  -6   13.46    6.84
  -3  -5   6   11.45    4.15
  -3   5   6   10.95    5.97
   3   5  -6   13.66    6.38
   3   5  -6   10.71    7.21
  -3   5   6   17.24    5.15
  -3   5   6    6.99    5.55
   3   5  -6   22.42    8.37
   3   5  -6   22.16    6.54
   3   5  -6   18.61    5.79
   2  -5  -6    7.28    5.77
   2  -5  -6    3.82    8.47
   2  -5  -6    1.06    5.92
   2  -5  -6    9.76    6.26
   2  -5  -6   17.08    7.60
   2  -5  -6    6.98    5.16
  -2  -5   6    7.12    4.14
   2   5  -6    4.62    5.73
   2   5  -6   -3.19    7.41
   2   5  -6   11.78    7.17
   2   5  -6   13.51    7.39
  -2   5   6    8.71    5.38
  -2   5   6    2.63    5.28
  -2   5   6    9.60    5.78
   2   5  -6    7.62    5.33
   1  -5  -6   44.90    5.96
   1  -5  -6   55.16    5.69
   1  -5  -6   43.74    7.15
  -1  -5   6   53.57    4.92
   1  -5  -6   57.16    9.78
   1  -5  -6   49.10    8.44
   1  -5  -6   59.94    6.52
   1  -5  -6   38.94    7.45
  -1   5   6   43.39    6.70
  -1   5   6   41.06    6.53
  -1   5   6   55.61    7.45
   1   5  -6   59.18    7.47
   1   5  -6   52.50    7.77
  -1   5   6   54.80    7.47
   1   5  -6   58.05    6.28
   1   5  -6   51.19    7.10
   0  -5   6   60.20    5.37
   0  -5  -6   31.26    7.71
   0  -5  -6   40.15    6.42
   0  -5  -6   43.32    7.90
   0  -5  -6   43.98    5.93
   0  -5  -6   34.63    8.59
   0  -5  -6   40.24    5.83
   0   5  -6   48.33    7.05
   0   5  -6   57.06    8.41
   0   5  -6   45.71    8.58
   0   5   6   45.06    7.19
   0   5   6   47.46    7.05
   0   5   6   36.35    7.36
   0   5   6   40.87    7.76
   0   5  -6   58.49    8.38
  -1  -5  -6    8.71    5.78
  -1  -5  -6   -3.03    6.99
   1  -5   6    2.75    7.45
  -1  -5  -6   -4.21    4.78
  -1  -5  -6    8.00    7.19
  -1  -5  -6   -4.51    8.13
  -1  -5  -6    1.86    7.92
   1   5   6    8.75    5.70
   1   5   6    2.79    7.49
  -1   5  -6    3.67    8.62
   1   5   6   -3.25    6.41
   1   5   6  -10.36    6.44
   1   5   6    2.45   11.17
   3  -6  -6   26.16    6.46
   3  -6  -6   34.19   10.87
  -3  -6   6   35.61    4.83
   3  -6  -6   40.29   12.70
   3  -6  -6   37.94    7.58
   3  -6  -6   27.35    7.93
   3  -6  -6   27.55    5.56
   3  -6  -6   31.14    8.93
  -3   6   6   34.47    6.83
  -3   6   6   30.34    6.50
  -3   6   6   32.82    6.38
   3   6  -6   46.06    8.77
   3   6  -6   34.05    7.19
   3   6  -6   48.31    7.76
   3   6  -6   46.11    8.16
   3   6  -6   19.70    5.64
  -2  -6   6   82.49    5.99
   2  -6  -6   70.04    7.83
   2  -6  -6   69.75    6.43
   2  -6  -6   72.58    8.94
   2  -6  -6   88.39    8.88
   2  -6  -6   63.45   10.36
   2  -6  -6   78.53    7.30
   2   6  -6   79.34    8.36
   2   6  -6   97.58    9.98
  -2   6   6   67.41    7.45
   2   6  -6   78.06    6.81
   2   6  -6   66.91    9.58
  -2   6   6   84.41    7.33
  -1  -6   6    6.12    4.25
   1  -6  -6   12.60    6.43
   1  -6  -6    2.08    7.03
   1  -6  -6   10.14    7.47
   1  -6  -6    1.62    4.83
   1  -6  -6    3.00    5.78
   1  -6  -6  -12.76    9.35
  -1   6   6    2.59    7.24
   1   6  -6   13.37    7.40
   1   6  -6    3.62    8.48
   1   6  -6   11.80    9.26
  -1   6   6   -3.35    7.33
  -1   6   6   -0.76    6.22
   1   6  -6   13.86    6.61
  -1   6   6   -0.05    6.67
   6   0  -7   30.59    6.79
   6   0  -7   44.24    6.02
   6   0  -7   36.78    6.64
   6   0  -7   30.91    8.16
   6   0  -7   32.42    8.17
   6   0  -7   37.47   12.06
  -6   0   7   41.22    6.93
   6   0  -7   31.93    8.13
   6   0  -7   43.12    8.09
   6   0  -7   55.26    7.11
   5   0  -7   57.08    6.94
   5   0  -7   50.48    7.31
   5   0  -7   65.51    6.01
   5   0  -7   63.96    6.92
   5   0  -7   66.44    7.34
  -5   0   7   48.92    6.10
   5   0  -7   68.13   13.12
   5   0  -7   72.38    8.50
   5   0  -7   74.66    8.58
   5   0  -7   78.48    8.34
   4   0  -7    1.57    6.06
   4   0  -7    1.55    6.40
   4   0  -7    9.82    5.93
   4   0  -7   -2.09    9.84
   4   0  -7   16.92    6.36
   4   0  -7    6.51    4.71
   4   0  -7   15.03    5.98
   4   0  -7    8.65    7.60
   4   0  -7    4.60    6.27
  -4   0   7    5.99    5.75
   3   0  -7   38.67    6.32
  -3   0   7   44.88    6.50
   3   0  -7   47.30   10.48
   3   0  -7   33.25    6.27
  -3   0   7   39.85   11.26
   3   0  -7   34.54    7.01
   3   0  -7   40.14    6.13
   3   0  -7   32.01    7.28
   3   0  -7   20.14   10.49
   3   0  -7   37.73    5.34
  -3   0   7   40.54    9.38
   2   0  -7   77.31   11.31
  -2   0   7   42.49    9.74
   2   0  -7   67.67    7.04
  -2   0   7   53.80    6.40
   2   0  -7   54.27    5.64
   2   0  -7   38.54   10.13
   2   0  -7   52.55    6.76
   2   0  -7   52.01   10.53
   2   0  -7   54.40    7.93
  -2   0   7   76.81   12.42
   2   0  -7   47.70    6.78
   2   0  -7   57.22    6.46
   1   0  -7   16.45    6.78
   1   0  -7   11.59    5.25
  -1   0   7    3.96    9.09
   1   0  -7   10.00    7.26
   1   0  -7   14.62    6.11
   1   0  -7   14.54    6.58
   1   0  -7   21.73   10.29
  -1   0   7   11.65    5.98
   1   0  -7    4.40   10.31
   1   0  -7    8.51    6.04
   0   0  -7   12.67    6.12
   0   0   7    9.49    5.90
   0   0  -7   12.48   10.83
   0   0   7    6.86    5.67
   0   0  -7    0.93    6.56
   0   0  -7    2.73    6.48
   0   0  -7    3.69    7.10
   0   0   7    6.99    5.66
   0   0  -7    0.66    5.25
  -1   0  -7    4.33    7.80
  -1   0  -7    4.56    8.09
  -1   0  -7   -0.44    5.91
   1   0   7    2.89    5.97
   1   0   7    8.28    6.09
   1   0   7   -6.67    6.49
  -1   0  -7   -7.68    7.34
   1   0   7    4.74    6.27
  -1   0  -7    1.50    5.78
   2   0   7   63.13    7.20
   2   0   7   55.66    7.37
  -2   0  -7   56.88    9.35
   2   0   7   62.11    7.39
  -2   0  -7   61.77    8.29
  -2   0  -7   63.87    6.86
  -2   0  -7   55.10   10.25
   2   0   7   60.13    7.74
   6  -1  -7    4.64    6.43
   6  -1  -7    9.52    6.31
   6  -1  -7    9.76    6.49
   6  -1  -7    7.37    5.47
   6  -1  -7    6.78    7.73
   6  -1  -7   -1.27    6.81
   6  -1  -7   28.89   11.23
   6  -1  -7   15.87    6.34
   6  -1  -7   13.17    7.07
   6  -1  -7   18.29    7.31
   6   1  -7   -3.02    6.62
   6   1  -7   -0.12    5.20
   6   1  -7    7.96    6.86
   6   1  -7    5.87    7.24
   6   1  -7   11.93    7.91
   6   1  -7   15.17    7.66
   6   1  -7    4.43    5.63
   6   1  -7   18.08   18.76
  -6   1   7    8.68    6.43
   6   1  -7    6.35    6.29
   5  -1  -7   31.73    7.27
  -5  -1   7   19.00    5.83
   5  -1  -7   46.16   10.94
   5  -1  -7   26.05    6.36
   5  -1  -7   33.24    6.56
   5  -1  -7   26.74    7.21
   5  -1  -7   35.32    6.68
   5  -1  -7   24.05    7.04
   5  -1  -7   28.29    7.63
   5  -1  -7   15.75    6.50
   5  -1  -7   28.97    5.61
   5   1  -7   20.96    5.28
   5   1  -7   25.74    7.95
   5   1  -7   24.91    5.75
   5   1  -7   29.55    6.45
   5   1  -7   18.72    6.95
   5   1  -7   27.67    6.56
   5   1  -7   32.48    7.24
  -5   1   7   21.58    6.07
   5   1  -7   45.15    8.49
   4  -1  -7   56.92    6.96
   4  -1  -7   60.33    7.53
   4  -1  -7   59.36    7.11
  -4  -1   7   56.66    6.53
   4  -1  -7   82.25   12.15
   4  -1  -7   71.56    9.15
   4  -1  -7   60.05    6.55
  -4  -1   7   57.89    6.16
   4  -1  -7   61.27    7.05
   4  -1  -7   57.82    7.41
   4  -1  -7   56.35    7.79
   4  -1  -7   55.65    6.29
   4   1  -7   55.98    6.66
   4   1  -7   60.46    7.13
  -4   1   7   49.81    6.10
   4   1  -7   62.18    7.21
   4   1  -7   61.06    5.81
   4   1  -7   42.20    7.95
  -4   1   7   64.65   11.87
   4   1  -7   72.14    8.86
   4   1  -7   47.95   11.78
   4   1  -7   57.79    7.41
  -3  -1   7   12.09    5.61
   3  -1  -7   23.71    5.13
  -3  -1   7    7.47    5.54
   3  -1  -7   13.56    6.67
   3  -1  -7   29.02    7.12
   3  -1  -7   15.22    7.05
   3  -1  -7    8.34    6.12
   3  -1  -7   11.77    6.04
   3  -1  -7   21.06   10.52
   3  -1  -7    9.33    5.48
   3  -1  -7   17.33    6.22
   3  -1  -7   14.30    5.97
   3   1  -7   18.48    6.81
   3   1  -7   11.65    6.33
  -3   1   7   12.95    5.42
   3   1  -7   23.13    6.00
  -3   1   7   26.91    6.02
   3   1  -7   10.32   10.79
  -3   1   7   28.83   13.97
   3   1  -7   14.51    6.23
   3   1  -7   25.59    5.09
   3   1  -7   22.70    6.01
  -3   1   7    9.37   10.72
  -2  -1   7    2.01    5.75
  -2  -1   7   -3.28    5.58
   2  -1  -7   14.17    9.87
   2  -1  -7    4.05    7.69
   2  -1  -7    5.59    5.00
   2  -1  -7    8.89    6.46
   2  -1  -7   21.20    6.05
   2  -1  -7   17.04    6.60
   2  -1  -7   21.04    6.46
   2   1  -7   14.44    6.75
  -2   1   7   35.88   10.98
   2   1  -7    9.94    6.82
  -2   1   7    0.85    5.56
   2   1  -7    9.26    6.64
   2   1  -7    8.00    6.65
  -2   1   7    5.90    4.91
  -2   1   7    5.30   10.48
   2   1  -7   16.37   10.64
   2   1  -7   12.88    5.02
   2   1  -7    8.85    6.69
  -1  -1   7   17.28    5.18
  -1  -1   7    1.44    5.66
   1  -1  -7    8.46    5.28
   1  -1  -7    4.11    5.94
   1  -1  -7   13.80    5.69
   1  -1  -7    8.96    6.56
   1  -1  -7   12.58    6.65
   1  -1  -7   -0.65    6.97
  -1   1   7    1.80    5.56
   1   1  -7   -0.04    5.17
   1   1  -7   11.71    5.99
  -1   1   7   13.98   11.58
   1   1  -7    3.96   10.87
  -1   1   7    2.46    9.99
   1   1  -7   15.37    6.00
   1   1  -7    5.64    7.14
  -1   1   7    8.68    5.65
   0  -1  -7   44.53    7.42
   0  -1  -7   34.36    6.61
   0  -1  -7   33.09    6.65
   0  -1  -7   27.43    8.12
   0  -1  -7   42.09    5.86
   0  -1   7   33.65    5.84
   0  -1   7   37.23    6.68
   0  -1  -7   31.80    7.08
   0  -1  -7   36.92    7.65
   0   1  -7   50.80    7.40
   0   1  -7   37.55    7.97
   0   1  -7   42.07    5.97
   0   1   7   50.98   15.00
   0   1  -7   29.46    6.77
   0   1   7   40.18    5.92
   0   1   7   47.63    7.40
   0   1   7   29.23    5.86
  -1  -1  -7  102.61   11.22
   1  -1   7  107.87    7.30
  -1  -1  -7  110.12    8.01
   1  -1   7  104.83    9.24
  -1  -1  -7   83.14    8.45
  -1  -1  -7  100.18    8.62
   1  -1   7  103.58    7.36
  -1  -1  -7  112.14    8.89
  -1  -1  -7   80.29    7.76
   1  -1   7   86.06    9.98
   1   1   7   99.22    7.96
   1   1   7   97.86    7.62
   1   1   7   96.81    8.04
  -1   1  -7  112.63    8.83
  -1   1  -7   96.61    8.90
  -1   1  -7  106.66    8.68
  -1   1  -7  118.09   11.67
  -2  -1  -7   10.89    8.26
  -2  -1  -7  -16.10    8.85
  -2  -1  -7    9.50    7.45
   2  -1   7    8.81    7.20
  -2  -1  -7   -4.61    7.68
  -2  -1  -7   -6.43    6.17
   2  -1   7   11.77    6.09
   2  -1   7  -15.39    5.63
   2  -1   7   -1.89    6.13
  -2   1  -7    8.31    6.52
   2   1   7   -5.78    5.74
   2   1   7    2.83    5.99
  -2   1  -7  -13.39    7.47
  -2   1  -7   16.00    7.34
   2   1   7   -3.16    6.84
  -2   1  -7   -4.32    9.71
   6  -2  -7    5.56    9.35
   6  -2  -7    4.27    6.34
   6  -2  -7   13.58    7.05
   6  -2  -7   21.17   12.12
   6  -2  -7   12.65    6.81
   6  -2  -7    8.51    6.53
   6  -2  -7    4.66    6.89
   6  -2  -7    8.75    6.67
  -6  -2   7    1.82    6.16
   6  -2  -7   15.47    8.66
   6   2  -7   15.68    8.56
  -6   2   7    4.48    5.52
   6   2  -7    2.22    9.61
   6   2  -7   18.07    5.73
   6   2  -7    6.72    6.89
   6   2  -7   -2.21    8.41
   6   2  -7    5.71    6.03
   6   2  -7    3.87    7.14
   6   2  -7   11.68   10.08
   5  -2  -7   25.99    6.99
  -5  -2   7   16.15    5.14
   5  -2  -7    6.64    5.74
   5  -2  -7   26.61    8.19
   5  -2  -7    0.49    6.98
   5  -2  -7   20.68    6.89
   5  -2  -7   13.50    6.18
   5  -2  -7   36.19    7.30
   5  -2  -7    9.91    6.18
   5  -2  -7   18.24   10.59
   5  -2  -7   21.06    6.59
   5   2  -7   13.38    5.85
   5   2  -7    8.75    8.47
  -5   2   7   25.68    6.30
   5   2  -7   13.94    6.32
   5   2  -7   29.21    6.27
  -5   2   7    3.24    5.41
   5   2  -7   14.79    6.21
   5   2  -7   37.54    8.83
   5   2  -7   32.90    8.39
   4  -2  -7   54.37   10.99
   4  -2  -7   37.60    7.22
   4  -2  -7   51.93    6.83
   4  -2  -7   34.59    7.06
   4  -2  -7   47.84    7.14
   4  -2  -7   38.77    5.92
   4  -2  -7   43.77    7.17
  -4  -2   7   49.98    5.69
   4  -2  -7   39.88    6.24
   4  -2  -7   45.82    8.30
  -4   2   7   43.48    5.75
   4   2  -7   39.17    6.62
   4   2  -7   46.04    8.07
  -4   2   7   42.51    6.07
   4   2  -7   29.49    6.02
   4   2  -7   32.06    6.75
   4   2  -7   49.57    7.95
   4   2  -7   41.48    5.57
   3  -2  -7   19.31    7.14
   3  -2  -7   13.84    6.16
   3  -2  -7    8.10    6.86
   3  -2  -7   12.35    6.28
   3  -2  -7   17.27    8.60
  -3  -2   7   14.13    5.03
   3  -2  -7   25.39    5.54
   3  -2  -7    7.18    5.78
   3  -2  -7   14.75    6.23
   3   2  -7   25.57    7.27
   3   2  -7   14.83    6.26
   3   2  -7   20.58    6.31
  -3   2   7   15.65    5.64
   3   2  -7   17.56    6.32
   3   2  -7   22.06    5.21
  -3   2   7   22.42    5.35
   3   2  -7   28.35    7.69
  -3   2   7   21.94    5.49
   2  -2  -7  100.24    9.37
   2  -2  -7   95.67    7.65
   2  -2  -7  100.01    7.10
   2  -2  -7   87.39    9.35
  -2  -2   7   89.02    8.46
   2  -2  -7   97.37    7.46
   2  -2  -7   97.15    8.44
  -2  -2   7   90.43    7.45
   2  -2  -7  112.53    7.69
   2  -2  -7   95.43    7.37
  -2   2   7   84.05    7.58
   2   2  -7   65.81   12.37
   2   2  -7  103.90    9.60
   2   2  -7   99.35    9.24
   2   2  -7  101.42    7.09
   2   2  -7  103.11    7.96
  -2   2   7   94.47    6.71
   2   2  -7   95.96    7.60
  -2   2   7   97.17    7.63
   1  -2  -7   13.39    6.34
   1  -2  -7   30.67    6.73
   1  -2  -7   22.21    6.61
   1  -2  -7   26.56    6.69
   1  -2  -7   24.39    6.47
   1  -2  -7   31.44    5.35
   1  -2  -7   25.49    6.45
  -1  -2   7   19.92    4.96
  -1  -2   7   16.68    5.88
   1  -2  -7   26.54    8.00
   1   2  -7   27.83    7.58
  -1   2   7   38.09    6.64
   1   2  -7   27.76    6.58
  -1   2   7   26.41    8.07
   1   2  -7   20.02    7.06
   1   2  -7   22.04    5.89
  -1   2   7   33.46    6.45
  -1   2   7   23.62    5.97
   0  -2  -7    8.78    6.69
   0  -2  -7    7.56    6.18
   0  -2   7    5.02    5.03
   0  -2  -7    0.75    7.25
   0  -2  -7   13.67    6.73
   0  -2  -7    9.17    6.28
   0  -2  -7    9.07    7.86
   0  -2  -7   17.46    5.06
   0  -2   7   14.96    7.05
   0   2   7   12.13    5.69
   0   2   7   11.88    6.27
   0   2  -7   17.88    7.59
   0   2  -7    9.60    6.54
   0   2   7    0.54    6.50
   0   2  -7    3.53    7.63
   0   2  -7   10.19    5.73
   0   2   7   10.79    6.46
   1  -2   7    5.54    5.01
  -1  -2  -7   -6.69    7.12
  -1  -2  -7    4.81    6.38
  -1  -2  -7   12.95    5.91
  -1  -2  -7   -0.44    5.24
  -1  -2  -7   -1.29    7.94
  -1  -2  -7    2.79    6.23
   1  -2   7    7.13    6.43
  -1  -2  -7   16.00    6.65
   1   2   7    0.09    6.45
   1   2   7    5.41    6.86
   1   2   7   17.06    6.25
  -1   2  -7    1.34    7.35
  -1   2  -7    2.60    6.08
  -1   2  -7    4.11    7.15
  -1   2  -7   16.28    8.51
   1   2   7   17.05    6.00
  -2  -2  -7   20.07    8.31
  -2  -2  -7   20.74    6.11
  -2  -2  -7   23.47    7.55
   2  -2   7    7.96    7.02
   2  -2   7   29.53    5.46
  -2  -2  -7   18.01    6.71
  -2  -2  -7   12.77    6.64
  -2  -2  -7   22.69    7.36
  -2  -2  -7   27.78    9.66
   2  -2   7   15.73    6.85
   2   2   7    9.51    6.39
  -2   2  -7   30.88   10.35
   2   2   7   33.75    6.95
  -2   2  -7   12.19    6.64
  -2   2  -7   16.41    8.39
   2   2   7   20.41    6.73
   2   2   7   12.43    7.72
   2   2   7   24.60    6.83
  -2   2  -7   25.35   11.55
   5  -3  -7   -4.07    6.56
   5  -3  -7    8.42    6.19
   5  -3  -7   24.70    6.96
   5  -3  -7   -1.89    6.84
  -5  -3   7    5.56    4.91
   5  -3  -7    7.72    6.81
   5  -3  -7   15.29    9.32
   5  -3  -7   10.65    6.60
   5  -3  -7    2.39   10.68
   5   3  -7   10.23    6.29
  -5   3   7    1.80    5.81
   5   3  -7    7.61    7.26
   5   3  -7    9.10    6.75
   5   3  -7   14.93    6.00
   5   3  -7   14.37    6.70
   5   3  -7    2.61    7.97
   5   3  -7   17.66    8.35
  -5   3   7   14.93    6.30
   4  -3  -7   37.35    7.29
   4  -3  -7   38.12    8.33
   4  -3  -7   41.41    8.41
  -4  -3   7   39.75    5.87
   4  -3  -7   39.91    6.19
   4  -3  -7   34.73   10.72
   4  -3  -7   40.49    6.72
   4  -3  -7   37.97    6.64
   4  -3  -7   45.48    6.23
   4  -3  -7   42.84    9.51
  -4   3   7   48.74    6.92
   4   3  -7   29.78    6.50
   4   3  -7   31.26    7.67
  -4   3   7   40.44    5.80
   4   3  -7   44.63    8.41
   4   3  -7   32.83    6.59
   4   3  -7   42.62    6.56
   4   3  -7   29.42    5.51
   3  -3  -7   51.14    6.51
  -3  -3   7   50.88    5.99
   3  -3  -7   64.06    6.80
   3  -3  -7   51.93    7.36
   3  -3  -7   57.89   11.83
   3  -3  -7   43.76    6.71
   3  -3  -7   51.75    8.79
   3  -3  -7   44.10    7.50
   3  -3  -7   50.61    7.61
   3   3  -7   48.20    8.79
   3   3  -7   51.91    6.15
  -3   3   7   53.37    6.42
   3   3  -7   48.97    7.27
   3   3  -7   49.68    6.69
  -3   3   7   50.62    6.66
   3   3  -7   58.48    7.35
   3   3  -7   46.88    9.26
  -3   3   7   51.45    5.97
   2  -3  -7   27.54    6.74
   2  -3  -7   12.22    6.44
   2  -3  -7   12.18    5.45
   2  -3  -7    8.24    8.98
   2  -3  -7   -8.42    6.12
  -2  -3   7   13.94    4.78
   2  -3  -7   10.96    6.83
   2  -3  -7    6.24    6.02
   2  -3  -7   10.14    6.13
   2   3  -7   13.28    7.14
  -2   3   7    8.65    5.58
   2   3  -7   21.26    7.30
   2   3  -7    9.83    5.76
  -2   3   7    7.20    6.27
   2   3  -7    9.11    6.33
  -2   3   7    8.59    6.27
   2   3  -7    2.24    6.73
   1  -3  -7   30.42    7.02
   1  -3  -7   32.56    6.74
   1  -3  -7   24.08    6.22
   1  -3  -7   25.10    8.09
  -1  -3   7   34.09    5.25
   1  -3  -7   25.01    5.65
  -1  -3   7   39.15    7.60
   1  -3  -7   32.09    7.34
   1  -3  -7   33.11    6.78
   1   3  -7   25.00    8.06
  -1   3   7   34.12    6.92
  -1   3   7   40.66    6.90
   1   3  -7   26.81    6.87
  -1   3   7   35.81    7.47
   1   3  -7   21.39    7.27
   1   3  -7    9.20    5.66
  -1   3   7   31.81    6.10
   0  -3  -7   93.09    8.48
   0  -3  -7   79.59    9.97
   0  -3   7   80.98    7.81
   0  -3  -7   81.26    7.61
   0  -3  -7   69.66    8.51
   0  -3   7   83.79    7.06
   0  -3  -7   84.42    6.81
   0  -3  -7   82.97    8.09
   0  -3  -7   59.77    6.97
   0   3  -7   84.36   10.70
   0   3  -7   72.19    7.87
   0   3   7   88.51    8.26
   0   3  -7   84.72    8.74
   0   3   7   83.70    7.34
   0   3   7   74.16    7.53
   0   3  -7   66.21    8.65
   0   3   7   78.39    7.40
  -1  -3  -7    5.93    8.73
  -1  -3  -7    4.86    5.52
  -1  -3  -7   16.20    6.55
   1  -3   7    7.37    7.29
   1  -3   7    7.81    4.76
  -1  -3  -7    7.32    6.49
  -1  -3  -7   18.08    7.66
  -1  -3  -7    6.55    5.88
  -1  -3  -7   12.53    6.58
   1   3   7   14.64    7.45
  -1   3  -7    4.59    8.41
  -1   3  -7   11.43    7.58
  -1   3  -7    9.98    7.52
   1   3   7   12.59    6.10
   1   3   7    8.08    6.23
   1   3   7   13.38    7.87
   1   3   7    5.13    5.68
  -1   3  -7    3.87    9.74
   5  -4  -7   13.22    6.26
  -5  -4   7   18.65    4.75
   4  -4  -7   27.84   11.38
   4  -4  -7   33.91    6.07
   4  -4  -7   37.44    9.51
   4  -4  -7   33.95    9.03
  -4  -4   7   40.07    5.49
   4  -4  -7   14.19    7.46
   4  -4  -7   48.76   11.95
   4  -4  -7   37.31    6.88
   4  -4  -7   30.89    7.43
  -4   4   7   31.78    8.88
  -4   4   7   29.05    5.98
   4   4  -7   19.04    8.64
   4   4  -7   23.23    7.00
   4   4  -7   31.70    5.65
   4   4  -7   28.17    6.83
   4   4  -7   33.80    9.14
   4   4  -7   30.07    6.92
   3  -4  -7    6.33   11.06
   3  -4  -7    5.82    9.85
   3  -4  -7   19.15    6.78
   3  -4  -7   14.01    7.00
   3  -4  -7   25.14    6.69
   3  -4  -7   12.04    7.88
   3  -4  -7   -1.29    6.64
   3  -4  -7   -3.81    5.45
  -3  -4   7    8.93    5.19
   3   4  -7    5.66    6.32
   3   4  -7   11.16    7.54
  -3   4   7    4.71    5.70
   3   4  -7   11.62    5.95
   3   4  -7    9.89    8.46
  -3   4   7    4.02    6.42
   3   4  -7    2.68    6.46
  -3   4   7    9.11    5.53
   2  -4  -7   66.51    6.45
   2  -4  -7   40.87   10.98
  -2  -4   7   66.69    6.15
   2  -4  -7   74.90   10.71
   2  -4  -7   63.47    7.71
   2  -4  -7   77.30    8.19
   2  -4  -7   67.38    8.48
   2  -4  -7   76.09    7.44
   2  -4  -7   68.22    7.55
   2   4  -7   74.55    7.62
   2   4  -7   74.99    9.61
   2   4  -7   63.86    8.69
  -2   4   7   55.65    7.71
  -2   4   7   75.19    7.90
   2   4  -7   70.52    6.68
  -2   4   7   62.61    7.12
   2   4  -7   61.26    8.02
   1  -4  -7   11.29    7.23
   1  -4  -7   28.10    8.03
   1  -4  -7   15.57    6.27
   1  -4  -7   18.42    6.56
   1  -4  -7   11.74    6.56
  -1  -4   7   24.33    4.69
   1  -4  -7    1.21    8.77
   1  -4  -7   22.00    6.02
   1   4  -7   28.74   10.06
  -1   4   7   27.56    6.95
  -1   4   7   21.87    7.24
   1   4  -7   15.81    7.23
  -1   4   7   25.09    6.21
  -1   4   7   25.13    6.62
   1   4  -7    5.99    6.89
   1   4  -7   20.47    7.44
   0  -4  -7    5.88    7.46
   0  -4  -7   10.96    5.95
   0  -4  -7   21.09    6.70
   0  -4   7    6.32    6.20
   0  -4   7   13.10    7.08
   0  -4  -7    7.38    9.75
   0  -4  -7    1.55    7.18
   0  -4  -7   -2.20    6.07
   0   4   7    8.17    8.08
   0   4   7    5.94    6.69
   0   4   7   16.45    7.05
   0   4  -7   12.33    8.84
   0   4  -7    4.85    9.82
   0   4  -7   14.03    8.70
   0   4  -7   -5.67    7.37
   0   4   7   10.39    8.01
   2  -5  -7    3.90    7.09
  -2  -5   7   -2.97    4.32
   2  -5  -7   -3.11    5.82
   2  -5  -7   16.63    6.43
   2  -5  -7   16.69    8.25
   2  -5  -7    4.63    9.22
   2  -5  -7  -14.76    7.02
   2   5  -7   11.34    8.27
  -2   5   7    9.46    6.50
  -2   5   7   12.48    6.14
   2   5  -7   12.72    6.24
   2   5  -7   25.05    7.39
  -2   5   7   11.43    6.90
   2   5  -7    2.38    7.43
   5   0  -8    7.66    6.85
   5   0  -8   21.71    8.92
   5   0  -8   10.37    6.41
   5   0  -8    6.08    8.28
   5   0  -8   10.76    7.07
   5   0  -8   15.57    7.80
   5   0  -8    7.76    7.02
  -5   0   8   20.61    6.99
   5   0  -8    9.61   12.70
   4   0  -8   62.92    7.76
   4   0  -8   76.54    7.20
  -4   0   8   61.61    7.12
   4   0  -8   74.79    7.88
   4   0  -8   68.78    8.18
   4   0  -8   85.79    8.16
   4   0  -8   96.16   10.92
   4   0  -8   67.16    7.84
   3   0  -8    8.29    7.40
   3   0  -8   -4.24    6.94
  -3   0   8   -4.79    6.70
   3   0  -8   12.47    6.39
   3   0  -8    8.63    7.39
   3   0  -8   -1.83    5.20
   3   0  -8   -1.23    6.23
   3   0  -8   -2.15    7.13
   2   0  -8   62.47    9.72
  -2   0   8   43.12    7.00
   2   0  -8   58.79    7.43
   2   0  -8   41.15    8.12
   2   0  -8   48.54    7.22
   2   0  -8   38.57    8.14
   2   0  -8   48.35    6.07
   1   0  -8   44.63    7.33
   1   0  -8   52.40    7.38
  -1   0   8   63.88    7.84
   1   0  -8   63.86    6.52
   1   0  -8   71.28    8.18
   1   0  -8   61.73    7.99
  -1   0   8   51.03    7.56
   1   0  -8   88.48   10.49
   0   0   8    2.65    6.93
   0   0   8    1.01    6.65
   0   0  -8   -1.12    8.70
   0   0  -8   10.11    7.53
   0   0  -8   -4.26    7.07
   0   0  -8   15.29    8.17
   0   0  -8   -4.26    6.09
   0   0   8    2.18    6.63
   5  -1  -8    2.33    6.57
   5  -1  -8    9.43    6.99
   5  -1  -8   13.76    8.40
   5  -1  -8    5.71    6.96
   5  -1  -8   -4.63    6.54
   5  -1  -8   12.66    7.54
   5  -1  -8    2.99    6.92
   5  -1  -8    6.05    7.86
   5  -1  -8   -7.54    6.47
   5  -1  -8   20.43   11.61
   5   1  -8    4.03    7.47
   5   1  -8   -0.89    7.49
   5   1  -8    3.89    9.02
   5   1  -8    3.26    6.62
   5   1  -8   -6.20    6.35
  -5   1   8    0.29    6.80
   5   1  -8   -3.26    5.58
   5   1  -8    0.01    7.15
   4  -1  -8   26.34   11.85
   4  -1  -8   -0.63    7.33
  -4  -1   8   23.80    7.08
   4  -1  -8   22.57    7.96
   4  -1  -8   10.22    6.36
   4  -1  -8    8.84    6.77
   4  -1  -8   21.62    7.02
   4  -1  -8   23.55    6.80
  -4  -1   8    9.85    6.60
   4  -1  -8    4.50    5.64
   4  -1  -8   17.91    8.35
   4  -1  -8   19.84    7.20
   4   1  -8   13.62    7.86
   4   1  -8   12.75    6.72
   4   1  -8   13.08    6.48
  -4   1   8   19.85    6.21
  -4   1   8   11.60    6.25
   4   1  -8   23.54    8.16
   4   1  -8   19.65    7.51
   4   1  -8   20.32    6.82
   4   1  -8   16.40    5.38
   3  -1  -8   16.46    7.02
   3  -1  -8   25.97    7.75
   3  -1  -8    7.59    8.01
  -3  -1   8    7.64    7.04
   3  -1  -8   21.07    8.01
   3  -1  -8   13.66    7.03
   3  -1  -8   14.73    8.30
   3  -1  -8   20.15    5.72
   3  -1  -8   14.76    7.62
   3  -1  -8   16.16    6.66
  -3  -1   8   17.11    6.81
   3   1  -8    7.95    5.39
   3   1  -8   15.26    6.78
   3   1  -8   28.48    8.07
  -3   1   8   20.22    6.93
  -3   1   8   16.75    5.99
   3   1  -8   16.07    6.95
  -3   1   8   12.29    6.26
   3   1  -8   22.44    6.90
   3   1  -8   12.28    7.58
   2  -1  -8   47.95    7.66
   2  -1  -8   53.15    8.28
  -2  -1   8   49.60    6.82
   2  -1  -8   41.00    7.03
   2  -1  -8   37.70    7.93
   2  -1  -8   39.93    7.76
   2  -1  -8   45.68    8.67
   2  -1  -8   47.98    7.75
   2  -1  -8   41.94    6.13
   2  -1  -8   64.39   23.32
  -2  -1   8   56.31    7.66
   2   1  -8   51.84    8.22
  -2   1   8   44.62    7.06
  -2   1   8   44.41    7.37
   2   1  -8   53.01    7.54
   2   1  -8   59.22    8.91
   2   1  -8   47.69    8.47
  -2   1   8   53.20    7.13
   2   1  -8   46.54    7.47
   2   1  -8   51.19    6.33
   1  -1  -8    7.16    7.28
   1  -1  -8    1.32    5.67
  -1  -1   8    4.47    6.83
   1  -1  -8    0.82    7.27
   1  -1  -8   -1.10    6.59
  -1  -1   8   14.62    6.68
   1  -1  -8    5.81    7.89
   1  -1  -8   16.49    6.85
  -1   1   8    2.99    6.15
   1   1  -8   -3.05    6.85
   1   1  -8   -1.54    5.66
   1   1  -8    2.22    6.62
  -1   1   8    5.76    6.03
  -1   1   8    0.08    6.10
   1   1  -8    2.08    7.76
   1   1  -8   16.63    8.41
   0  -1  -8   33.52    9.13
   0  -1   8   42.84    6.55
   0  -1  -8   24.66    8.02
   0  -1  -8   27.78    8.49
   0  -1  -8   20.45    6.65
   0  -1  -8   31.63    7.87
   0  -1  -8   25.87    7.30
   0  -1   8   32.78    6.75
   0   1  -8   37.77   10.08
   0   1   8   36.71    7.50
   0   1   8   23.24   12.03
   0   1  -8   18.69    8.76
   0   1  -8   28.76    7.60
   0   1  -8   25.97    6.05
   0   1  -8   25.37    8.05
   0   1   8   23.92    6.37
   4  -2  -8   33.65    7.86
  -4  -2   8   32.92    6.35
   4  -2  -8   35.91    7.15
   4  -2  -8   54.81   12.46
   4  -2  -8   38.15    7.55
   4  -2  -8   40.97   10.37
   4  -2  -8   39.15    7.89
   4  -2  -8   32.71    7.43
   4  -2  -8   36.55    7.30
   4   2  -8   23.78    6.84
   4   2  -8   28.41    8.13
   4   2  -8   32.01    7.34
  -4   2   8   40.27    6.34
   4   2  -8   26.04    6.68
   4   2  -8   20.46    7.59
  -4   2   8   16.28    6.45
   4   2  -8   29.26    7.09
   3  -2  -8   -4.26    7.42
   3  -2  -8  -10.64    7.09
   3  -2  -8   -1.48    5.83
   3  -2  -8   -4.60    6.52
  -3  -2   8   -2.91    6.21
   3  -2  -8    7.82    6.58
   3  -2  -8    5.67    6.24
   3  -2  -8   -4.01    7.76
   3  -2  -8  -11.43   11.62
   3  -2  -8    5.44    8.01
  -3   2   8    6.08    6.32
   3   2  -8   -6.25    5.40
  -3   2   8    1.23    5.92
   3   2  -8    4.60    6.78
   3   2  -8   -7.16    7.79
   3   2  -8   -4.95    7.35
   3   2  -8  -10.15    7.80
  -3   2   8   -3.84    6.12
   3   2  -8   -7.09    6.60
   2  -2  -8    9.51    7.95
   2  -2  -8   18.41    7.23
   2  -2  -8   15.02    6.85
   2  -2  -8   25.19    8.21
   2  -2  -8   19.45    7.36
   2  -2  -8   18.07    7.45
   2  -2  -8   23.45    5.92
  -2  -2   8   23.66    7.76
  -2  -2   8   21.20    6.70
   2  -2  -8   24.39    6.97
   2   2  -8   13.08    8.53
   2   2  -8   12.05    7.04
   2   2  -8   24.88    7.85
  -2   2   8   18.83    6.37
  -2   2   8   14.16    6.87
  -2   2   8   26.44    6.94
   2   2  -8   26.12    7.26
   2   2  -8   10.34    5.99
  -1  -2   8   23.50    7.27
   1  -2  -8   19.91    6.75
  -1  -2   8   48.33    6.66
   1  -2  -8   18.15    7.08
   1  -2  -8   15.18    8.93
   1  -2  -8   19.50    7.89
   1  -2  -8   15.67    7.79
   1  -2  -8   17.06    7.14
   1  -2  -8   26.49    7.81
   1   2  -8   23.31    7.78
  -1   2   8   12.81    6.74
  -1   2   8   20.23   10.29
   1   2  -8   33.15    8.55
   1   2  -8   23.68    9.27
   1   2  -8   33.19    6.16
   1   2  -8   21.00   11.82
  -1   2   8   23.40    7.25
   0  -2   8   24.55    7.24
   0  -2  -8   16.79   10.31
   0  -2  -8   24.42    7.71
   0  -2  -8   29.73    7.79
   0  -2  -8   24.01    6.83
   0  -2   8   20.49    6.02
   0  -2  -8   17.78    7.28
   0  -2  -8   42.26    7.81
   0  -2  -8   26.36   10.69
   0  -2  -8   21.27    6.28
   0   2   8   23.47    6.50
   0   2  -8   24.44    7.70
   0   2  -8   32.72    6.68
   0   2   8   32.59    6.96
   0   2  -8   20.22    8.75
   0   2   8   28.76    7.84
   0   2  -8   42.91    9.24
   0   2   8   29.90    7.54
   3  -3  -8   29.90    9.27
   3  -3  -8   10.97    6.32
   3  -3  -8    0.21    7.02
  -3  -3   8   -3.93    5.42
   3  -3  -8    8.25    7.02
   3  -3  -8    3.48    6.80
   3  -3  -8    7.30   12.57
   3  -3  -8   -1.92    7.61
   3  -3  -8   -3.69    6.67
   3   3  -8   -1.24    6.88
   3   3  -8   -5.82    6.26
   3   3  -8   13.47   12.52
   3   3  -8    5.77    6.73
   3   3  -8    2.59    9.46
   3   3  -8    4.63    7.09
  -3   3   8   16.02    6.96
  -3   3   8   -4.60    5.84
  -3   3   8    4.43    6.35
   2  -3  -8   13.98    6.30
   2  -3  -8    7.28    8.90
   2  -3  -8   16.90    7.48
  -2  -3   8   16.33    5.62
   2  -3  -8    5.56    9.07
   2  -3  -8   -2.45    6.45
   2  -3  -8    7.80    6.58
   2  -3  -8    5.64   10.77
   2  -3  -8   10.97    7.24
  -2   3   8    6.64    6.62
   2   3  -8    9.30    7.60
  -2   3   8   20.97    7.41
  -2   3   8   16.38    6.79
   2   3  -8    5.15    7.26
   2   3  -8   19.71    8.79
   2   3  -8    8.97    7.21
   2   3  -8   16.87    9.39
   1  -3  -8   29.55    9.47
   1  -3  -8   17.74    6.73
   1  -3  -8   11.29    7.75
   1  -3  -8   23.39    8.03
   1  -3  -8   31.91    7.53
  -1  -3   8   31.68    7.92
  -1   3   8   11.71    7.67
  -1   3   8    9.07    7.49
  -1   3   8   22.70    6.82
   1   3  -8   14.42    9.19
   1   3  -8    9.80    7.67
   0   0   0    0.00    0.00
;
_shelx_hkl_checksum              79727
loop_
_space_group_symop_operation_xyz
'x, y, z'
'-x, y+1/2, -z'
loop_
_atom_site_label
_atom_site_type_symbol
_atom_site_fract_x
_atom_site_fract_y
_atom_site_fract_z
_atom_site_U_iso_or_equiv
_atom_site_adp_type
_atom_site_occupancy
_atom_site_site_symmetry_order
_atom_site_calc_flag
_atom_site_refinement_flags_posn
_atom_site_refinement_flags_adp
_atom_site_refinement_flags_occupancy
_atom_site_disorder_assembly
_atom_site_disorder_group
Sr1 Sr 0.37062(9) 0.53926(13) 0.11294(9) 0.01918(16) Uani 1 1 d . . . . .
S1 S 0.2184(3) 1.0070(3) 0.0533(3) 0.0197(5) Uani 1 1 d . . . . .
S2 S 0.7606(3) 0.8634(3) 0.4246(3) 0.0213(4) Uani 1 1 d . . . . .
O11 O -0.0069(6) 0.5365(14) 0.0432(7) 0.0315(11) Uani 1 1 d . . . . .
O21 O 0.6844(9) 0.6752(8) 0.3653(9) 0.0296(13) Uani 1 1 d . . . . .
O22 O 0.2362(9) 0.4800(7) -0.2594(8) 0.0329(15) Uani 1 1 d . . . . .
O13 O 0.3092(7) 0.8769(8) -0.0560(8) 0.0254(12) Uani 1 1 d . . . . .
O12 O 0.3343(8) 0.1820(8) 0.0918(9) 0.0328(14) Uani 1 1 d . . . . .
O23 O 0.3438(8) 0.4558(8) 0.4537(8) 0.0310(14) Uani 1 1 d . . . . .
N2 N 0.9944(10) 0.8336(11) 0.5439(10) 0.0284(16) Uani 1 1 d D . . . .
H21 H 1.076(10) 0.935(8) 0.623(11) 0.034 Uiso 1 1 d D U . . .
H22 H 1.008(12) 0.730(8) 0.639(9) 0.028 Uiso 1 1 d D U . . .
N1 N 0.2396(10) 0.8975(11) 0.2591(10) 0.0313(17) Uani 1 1 d D . . . .
H11 H 0.351(9) 0.947(10) 0.368(9) 0.038 Uiso 1 1 d D U . . .
H12 H 0.123(12) 0.888(12) 0.295(12) 0.038 Uiso 1 1 d . U . . .
loop_
_atom_site_aniso_label
_atom_site_aniso_U_11
_atom_site_aniso_U_22
_atom_site_aniso_U_33
_atom_site_aniso_U_23
_atom_site_aniso_U_13
_atom_site_aniso_U_12
Sr1 0.0189(3) 0.0160(3) 0.0222(3) -0.0010(4) 0.0055(2) -0.0009(4)
S1 0.0179(8) 0.0164(14) 0.0252(9) -0.0005(8) 0.0069(6) -0.0009(8)
S2 0.0211(10) 0.0224(11) 0.0204(9) -0.0019(8) 0.0059(7) -0.0016(8)
O11 0.017(2) 0.033(3) 0.041(3) -0.001(5) 0.0052(19) -0.002(4)
O21 0.033(3) 0.021(3) 0.034(3) -0.006(2) 0.010(3) -0.010(2)
O22 0.050(4) 0.025(4) 0.022(3) -0.004(2) 0.009(3) -0.004(2)
O13 0.027(3) 0.022(3) 0.031(3) 0.000(3) 0.014(2) 0.005(2)
O12 0.034(4) 0.015(3) 0.043(4) 0.000(3) 0.002(3) -0.009(2)
O23 0.027(3) 0.037(3) 0.030(3) 0.006(2) 0.011(2) -0.006(2)
N2 0.019(3) 0.033(5) 0.029(4) -0.004(3) 0.001(3) -0.001(3)
N1 0.026(4) 0.042(5) 0.027(4) 0.001(3) 0.009(3) -0.005(3)
loop_
_atom_type_symbol
_atom_type_description
_atom_type_scat_dispersion_real
_atom_type_scat_dispersion_imag
_atom_type_scat_source
N N 0.0061 0.0033 'International Tables Vol C Tables 4.2.6.8 and 6.1.1.4'
H H 0.0000 0.0000 'International Tables Vol C Tables 4.2.6.8 and 6.1.1.4'
O O 0.0106 0.0060 'International Tables Vol C Tables 4.2.6.8 and 6.1.1.4'
S S 0.1246 0.1234 'International Tables Vol C Tables 4.2.6.8 and 6.1.1.4'
Sr Sr -1.5307 3.2498 'International Tables Vol C Tables 4.2.6.8 and 6.1.1.4'
loop_
_geom_angle_atom_site_label_1
_geom_angle_atom_site_label_2
_geom_angle_atom_site_label_3
_geom_angle
_geom_angle_site_symmetry_1
_geom_angle_site_symmetry_3
_geom_angle_publ_flag
O12 Sr1 O11 84.3(3) . . ?
O12 Sr1 O23 78.10(19) . . ?
O11 Sr1 O23 79.61(17) . . ?
O12 Sr1 O22 77.16(18) . . ?
O11 Sr1 O22 75.87(17) . . ?
O23 Sr1 O22 146.56(18) . . ?
O12 Sr1 O21 117.48(18) . . ?
O11 Sr1 O21 139.6(2) . . ?
O23 Sr1 O21 73.08(18) . . ?
O22 Sr1 O21 139.13(18) . . ?
O12 Sr1 O13 150.26(19) . . ?
O11 Sr1 O13 84.2(2) . . ?
O23 Sr1 O13 126.26(17) . . ?
O22 Sr1 O13 73.48(16) . . ?
O21 Sr1 O13 88.48(18) . . ?
O12 Sr1 O13 68.66(17) . 2_645 ?
O11 Sr1 O13 147.5(2) . 2_645 ?
O23 Sr1 O13 110.43(17) . 2_645 ?
O22 Sr1 O13 80.73(17) . 2_645 ?
O21 Sr1 O13 71.58(18) . 2_645 ?
O13 Sr1 O13 110.43(11) . 2_645 ?
O12 Sr1 N1 145.9(2) . . ?
O11 Sr1 N1 70.4(3) . . ?
O23 Sr1 N1 75.27(18) . . ?
O22 Sr1 N1 116.25(19) . . ?
O21 Sr1 N1 74.15(19) . . ?
O13 Sr1 N1 51.04(17) . . ?
O13 Sr1 N1 141.36(18) 2_645 . ?
O12 Sr1 O12 111.84(15) . 2_655 ?
O11 Sr1 O12 136.51(18) . 2_655 ?
O23 Sr1 O12 141.73(16) . 2_655 ?
O22 Sr1 O12 69.49(17) . 2_655 ?
O21 Sr1 O12 69.67(17) . 2_655 ?
O13 Sr1 O12 61.57(14) . 2_655 ?
O13 Sr1 O12 48.90(15) 2_645 2_655 ?
N1 Sr1 O12 102.21(18) . 2_655 ?
O12 Sr1 S1 89.61(14) . 2_645 ?
O11 Sr1 S1 149.60(12) . 2_645 ?
O23 Sr1 S1 128.17(13) . 2_645 ?
O22 Sr1 S1 73.73(14) . 2_645 ?
O21 Sr1 S1 68.78(13) . 2_645 ?
O13 Sr1 S1 86.66(10) . 2_645 ?
O13 Sr1 S1 23.78(11) 2_645 2_645 ?
N1 Sr1 S1 123.66(14) . 2_645 ?
O12 Sr1 S1 25.12(11) 2_655 2_645 ?
O12 Sr1 S1 157.07(13) . . ?
O11 Sr1 S1 73.6(2) . . ?
O23 Sr1 S1 103.27(13) . . ?
O22 Sr1 S1 91.30(12) . . ?
O21 Sr1 S1 84.19(14) . . ?
O13 Sr1 S1 23.34(11) . . ?
O13 Sr1 S1 129.57(12) 2_645 . ?
N1 Sr1 S1 28.08(14) . . ?
O12 Sr1 S1 81.55(11) 2_655 . ?
S1 Sr1 S1 106.30(5) 2_645 . ?
O12 Sr1 Sr1 40.47(14) . 2_645 ?
O11 Sr1 Sr1 115.6(2) . 2_645 ?
O23 Sr1 Sr1 108.19(13) . 2_645 ?
O22 Sr1 Sr1 64.15(12) . 2_645 ?
O21 Sr1 Sr1 101.11(13) . 2_645 ?
O13 Sr1 Sr1 124.96(11) . 2_645 ?
O13 Sr1 Sr1 32.30(11) 2_645 2_645 ?
N1 Sr1 Sr1 173.30(14) . 2_645 ?
O12 Sr1 Sr1 71.45(10) 2_655 2_645 ?
S1 Sr1 Sr1 49.66(4) 2_645 2_645 ?
S1 Sr1 Sr1 148.29(4) . 2_645 ?
O11 S1 O12 113.6(5) 2 1_565 ?
O11 S1 O13 112.3(4) 2 . ?
O12 S1 O13 109.0(3) 1_565 . ?
O11 S1 N1 107.7(4) 2 . ?
O12 S1 N1 109.5(4) 1_565 . ?
O13 S1 N1 104.2(4) . . ?
O11 S1 Sr1 132.0(2) 2 2_655 ?
O12 S1 Sr1 62.1(3) 1_565 2_655 ?
O13 S1 Sr1 46.9(2) . 2_655 ?
N1 S1 Sr1 118.9(3) . 2_655 ?
O11 S1 Sr1 115.5(4) 2 . ?
O12 S1 Sr1 130.6(2) 1_565 . ?
O13 S1 Sr1 45.7(2) . . ?
N1 S1 Sr1 59.6(3) . . ?
Sr1 S1 Sr1 81.16(4) 2_655 . ?
O22 S2 O21 112.2(3) 2_655 . ?
O22 S2 O23 111.5(3) 2_655 2_656 ?
O21 S2 O23 112.4(3) . 2_656 ?
O22 S2 N2 104.2(4) 2_655 . ?
O21 S2 N2 105.2(4) . . ?
O23 S2 N2 110.8(3) 2_656 . ?
S1 O11 Sr1 161.8(4) 2_545 . ?
S2 O21 Sr1 135.2(4) . . ?
S2 O22 Sr1 147.7(3) 2_645 . ?
S1 O13 Sr1 111.0(3) . . ?
S1 O13 Sr1 109.3(3) . 2_655 ?
Sr1 O13 Sr1 115.32(18) . 2_655 ?
S1 O12 Sr1 153.4(4) 1_545 . ?
S1 O12 Sr1 92.8(3) 1_545 2_645 ?
Sr1 O12 Sr1 106.73(19) . 2_645 ?
S2 O23 Sr1 150.0(4) 2_646 . ?
S1 N1 Sr1 92.4(3) . . ?
loop_
_geom_bond_atom_site_label_1
_geom_bond_atom_site_label_2
_geom_bond_distance
_geom_bond_site_symmetry_2
_geom_bond_publ_flag
Sr1 O12 2.534(5) . ?
Sr1 O11 2.542(4) . ?
Sr1 O23 2.564(5) . ?
Sr1 O22 2.579(6) . ?
Sr1 O21 2.579(6) . ?
Sr1 O13 2.648(5) . ?
Sr1 O13 2.655(5) 2_645 ?
Sr1 N1 2.982(8) . ?
Sr1 O12 3.036(6) 2_655 ?
Sr1 S1 3.4317(18) 2_645 ?
Sr1 S1 3.456(2) . ?
Sr1 Sr1 4.4805(7) 2_645 ?
S1 O11 1.451(5) 2 ?
S1 O12 1.459(6) 1_565 ?
S1 O13 1.467(5) . ?
S1 N1 1.628(7) . ?
S2 O22 1.444(6) 2_655 ?
S2 O21 1.447(6) . ?
S2 O23 1.448(5) 2_656 ?
S2 N2 1.620(7) . ?
