#------------------------------------------------------------------------------
#$Date: 2022-06-29 01:53:26 +0300 (Wed, 29 Jun 2022) $
#$Revision: 276372 $
#$URL: file:///home/coder/svn-repositories/cod/cif/7/71/06/7710630.cif $
#------------------------------------------------------------------------------
#
# This file is available in the Crystallography Open Database (COD),
# http://www.crystallography.net/
#
# All data on this site have been placed in the public domain by the
# contributors.
#
data_7710630
loop_
_publ_author_name
'Gross, Peter'
'Zhang, Yue'
'Bayarjargal, Lkhamsuren'
'Winkler, Bjoern'
'H\"oppe, Henning A.'
_publ_section_title
;
 New Alkaline-Earth Amidosulfates and their Unexpected Decomposition to
 S4N4
;
_journal_name_full               'Dalton Transactions'
_journal_paper_doi               10.1039/D2DT01380K
_journal_year                    2022
_chemical_formula_sum            'Ba H4 N2 O6 S2'
_chemical_formula_weight         329.51
_space_group_crystal_system      orthorhombic
_space_group_IT_number           33
_space_group_name_Hall           'P 2c -2n'
_space_group_name_H-M_alt        'P n a 21'
_atom_sites_solution_hydrogens   difmap
_audit_creation_method           SHELXL-2013
_audit_update_record
;
2021-10-27 deposited with the CCDC.	2022-06-06 downloaded from the CCDC.
;
_cell_angle_alpha                90
_cell_angle_beta                 90
_cell_angle_gamma                90
_cell_formula_units_Z            4
_cell_length_a                   10.5749(8)
_cell_length_b                   13.3927(10)
_cell_length_c                   4.8168(4)
_cell_measurement_reflns_used    18652
_cell_measurement_temperature    283(2)
_cell_measurement_theta_max      42.975
_cell_measurement_theta_min      2.454
_cell_volume                     682.19(9)
_computing_structure_refinement  'SHELXL-2013 (Sheldrick, 2013)'
_diffrn_ambient_temperature      283(2)
_diffrn_measured_fraction_theta_full 1.000
_diffrn_measured_fraction_theta_max 0.997
_diffrn_measurement_device_type  'Bruker D8 Venture'
_diffrn_radiation_type           MoK\a
_diffrn_radiation_wavelength     0.71073
_diffrn_reflns_av_R_equivalents  0.0670
_diffrn_reflns_av_unetI/netI     0.0665
_diffrn_reflns_Laue_measured_fraction_full 1.000
_diffrn_reflns_Laue_measured_fraction_max 0.997
_diffrn_reflns_limit_h_max       13
_diffrn_reflns_limit_h_min       -20
_diffrn_reflns_limit_k_max       24
_diffrn_reflns_limit_k_min       -25
_diffrn_reflns_limit_l_max       9
_diffrn_reflns_limit_l_min       -9
_diffrn_reflns_number            18652
_diffrn_reflns_point_group_measured_fraction_full 0.994
_diffrn_reflns_point_group_measured_fraction_max 0.987
_diffrn_reflns_theta_full        25.242
_diffrn_reflns_theta_max         42.975
_diffrn_reflns_theta_min         2.454
_exptl_absorpt_coefficient_mu    6.421
_exptl_absorpt_correction_type   multi-scan
_exptl_absorpt_process_details
'Krause, L., Herbst-Irmer, R., Sheldrick G.M. & Stalke D., J. Appl. Cryst. 48 (2015) 3-10.'
_exptl_crystal_colour            colourless
_exptl_crystal_density_diffrn    3.208
_exptl_crystal_description       needle
_exptl_crystal_F_000             616
_exptl_crystal_size_max          0.18
_exptl_crystal_size_mid          0.01
_exptl_crystal_size_min          0.02
_exptl_transmission_factor_max   0.7484
_exptl_transmission_factor_min   0.4832
_refine_diff_density_max         1.582
_refine_diff_density_min         -1.816
_refine_diff_density_rms         0.296
_refine_ls_abs_structure_details
;
 Flack x determined using 1403 quotients [(I+)-(I-)]/[(I+)+(I-)]
 (Parsons and Flack (2004), Acta Cryst. A60, s61).
;
_refine_ls_abs_structure_Flack   0.062(11)
_refine_ls_extinction_coef       0.0147(8)
_refine_ls_extinction_expression Fc^*^=kFc[1+0.001xFc^2^\l^3^/sin(2\q)]^-1/4^
_refine_ls_extinction_method     SHELXL
_refine_ls_goodness_of_fit_ref   0.953
_refine_ls_hydrogen_treatment    refxyz
_refine_ls_matrix_type           full
_refine_ls_number_parameters     113
_refine_ls_number_reflns         4979
_refine_ls_number_restraints     5
_refine_ls_restrained_S_all      0.953
_refine_ls_R_factor_all          0.0637
_refine_ls_R_factor_gt           0.0364
_refine_ls_shift/su_max          0.002
_refine_ls_shift/su_mean         0.000
_refine_ls_structure_factor_coef Fsqd
_refine_ls_weighting_details
'w=1/[\s^2^(Fo^2^)+(0.0268P)^2^] where P=(Fo^2^+2Fc^2^)/3'
_refine_ls_weighting_scheme      calc
_refine_ls_wR_factor_gt          0.0631
_refine_ls_wR_factor_ref         0.0700
_reflns_Friedel_coverage         0.831
_reflns_Friedel_fraction_full    0.985
_reflns_Friedel_fraction_max     0.974
_reflns_number_gt                3672
_reflns_number_total             4979
_reflns_threshold_expression     'I > 2\s(I)'
_cod_data_source_file            d2dt01380k2.cif
_cod_data_source_block           mo_PG_19_1145_0m-300K
_cod_original_formula_sum        'H4 Ba N2 O6 S2'
_cod_database_code               7710630
_shelx_space_group_comment
;
The symmetry employed for this shelxl refinement is uniquely defined
by the following loop, which should always be used as a source of
symmetry information in preference to the above space-group names.
They are only intended as comments.
;
_shelxl_version_number           2013-4
_shelx_res_file
;

TITL PG-19-1145_300K in Pna2(1)
CELL 0.71073  10.5749  13.3927   4.8168  90.000  90.000  90.000
ZERR    4.00   0.0008   0.0010   0.0004   0.000   0.000   0.000
LATT -1
SYMM -X, -Y, 0.5+Z
SYMM 0.5+X, 0.5-Y, Z
SYMM 0.5-X, 0.5+Y, 0.5+Z
SFAC N H O S BA
UNIT 8 16 24 8 4
TEMP 9.790

L.S. 10
BOND
FMAP 2
PLAN 20
htab
acta

DFIX 0.99 0.01 N1 H11 N1 H12 N2 H21 N2 H22

WGHT    0.026800
EXTI    0.014698
FVAR       0.14167
MOLE   1
BA1   5    0.324075    0.314953    0.392735    11.00000    0.01104    0.01449 =
         0.01241    0.00137    0.00081   -0.00132
S1    4    0.049507    0.317216   -0.049080    11.00000    0.00995    0.01451 =
         0.01015   -0.00017   -0.00005   -0.00046
S2    4    0.169425    0.050418    0.472738    11.00000    0.01349    0.01085 =
         0.01091   -0.00006    0.00053    0.00073
O11   3    0.438138    0.242668    0.888571    11.00000    0.01602    0.02512 =
         0.01952   -0.00113   -0.00293    0.00852
O23   3    0.280716    0.105584    0.387888    11.00000    0.01738    0.02682 =
         0.02876   -0.00276    0.00792   -0.00799
O21   3    0.324980    0.445969    0.888577    11.00000    0.04349    0.01225 =
         0.01806   -0.00220    0.00307   -0.00086
O13   3    0.064555    0.336157    0.246910    11.00000    0.02132    0.03460 =
         0.01267   -0.00481   -0.00278    0.00471
O22   3    0.552959    0.403371    0.386841    11.00000    0.01733    0.03470 =
         0.04123    0.00062   -0.00152   -0.01157
O12   3    0.164999    0.273651    0.839980    11.00000    0.01451    0.01840 =
         0.02640    0.00040    0.00828    0.00149

N1    1    0.020652    0.425021   -0.191852    11.00000    0.02072    0.01637 =
         0.02116    0.00228   -0.00311    0.00168
H11   2    0.095447    0.467355   -0.165417    11.00000   -1.20000
H12   2    0.000598    0.417144   -0.390813    11.00000   -1.20000
N2    1    0.174188    0.046636    0.812828    11.00000    0.05531    0.02278 =
         0.01216    0.00078   -0.00002   -0.00408
H21   2    0.230069    0.102162    0.868995    11.00000   -1.20000
H22   2    0.102019    0.054495    0.941133    11.00000   -1.20000
MOLE   2
HKLF 4

REM  PG-19-1145_300K in Pna2(1)
REM R1 =  0.0364 for    3672 Fo > 4sig(Fo)  and  0.0637 for all    4979 data
REM    113 parameters refined using      5 restraints

END

WGHT      0.0229      0.0000

REM Instructions for potential hydrogen bonds
EQIV $1 -x+1/2, y+1/2, z-1/2
HTAB N1 S2_$1
HTAB N1 O23_$1
EQIV $2 x, y, z-1
HTAB N1 O21_$2
EQIV $3 x-1/2, -y+1/2, z-1
HTAB N1 O23_$3
HTAB N1 O13_$2
HTAB N2 O12
EQIV $4 x-1/2, -y+1/2, z+1
HTAB N2 O22_$4

REM Highest difference peak  1.582,  deepest hole -1.816,  1-sigma level  0.296
Q1    1   0.3633  0.2873  0.4589  11.00000  0.05    1.58
Q2    1   0.3608  0.3518  0.3829  11.00000  0.05    1.50
Q3    1   0.3619  0.2846  0.3449  11.00000  0.05    1.43
Q4    1   0.2841  0.2860  0.4359  11.00000  0.05    1.28
Q5    1   0.2874  0.3476  0.4342  11.00000  0.05    1.27
Q6    1   0.2815  0.3449  0.3281  11.00000  0.05    1.25
Q7    1   0.2478  0.1783  0.6320  11.00000  0.05    0.97
Q8    1   0.3273  0.3246  0.2434  11.00000  0.05    0.97
Q9    1   0.3978  0.2272  0.6276  11.00000  0.05    0.95
Q10   1   0.4263  0.2155  1.0628  11.00000  0.05    0.94
Q11   1   0.1262  0.2131  0.6313  11.00000  0.05    0.93
Q12   1   0.3951  0.2419  0.4126  11.00000  0.05    0.91
Q13   1   0.3997  0.3612  0.6911  11.00000  0.05    0.90
Q14   1   0.2523  0.1739  0.1636  11.00000  0.05    0.88
Q15   1   0.2516  0.2269  0.6218  11.00000  0.05    0.88
Q16   1   0.3254  0.3164  0.5388  11.00000  0.05    0.87
Q17   1   0.4256  0.4080  0.7327  11.00000  0.05    0.87
Q18   1   0.3606  0.2428  0.5351  11.00000  0.05    0.86
Q19   1   0.2449  0.4303  0.9721  11.00000  0.05    0.86
Q20   1   0.4195  0.4128  0.5648  11.00000  0.05    0.86
;
_shelx_res_checksum              35254
_shelx_hkl_file
;
   0   0  -1    0.12    0.17
   0   0  -1   -0.13    0.14
   0   0  -1   -0.06    0.15
   0   0   1    0.14    0.19
   0   0  -2  987.51   37.29
   0   0  -2 1000.00   37.16
   0   0  -2  837.69   37.07
   0   0  -3   -0.32    0.44
   0   0  -3   -0.31    0.39
   0   0   3    0.07    0.57
   0   0  -3    0.62    0.46
   0   0   4  293.98   12.36
   0   0  -4  289.57   12.04
   0   0  -4  279.59   11.95
   0   0  -4  286.09   12.09
   0   0  -5   -0.27    0.66
   0   0  -5    1.47    0.88
   0   0  -5   -0.26    1.00
   0   0  -6   43.63    3.71
   0   0  -6   51.62    3.36
   0   0  -7   -0.73    1.29
   0   0  -7    0.91    2.00
   0   0  -8   15.09    2.81
   0   0  -8    7.05    3.18
  -1   0  -1   -0.09    0.18
   1   0  -1    0.05    0.16
   1   0  -1    0.21    0.18
  -1   0  -1    0.42    0.16
   1   0  -1   -0.16    0.14
  -1   0   1   -0.12    0.18
   1   0   1    0.21    0.24
   1   0  -2   -0.26    0.28
   1   0   2   -0.17    0.37
  -1   0  -2    0.15    0.27
  -1   0   2    0.10    0.36
   1   0  -2   -0.61    0.28
  -1   0  -2    0.08    0.30
  -1   0  -2   -0.04    0.28
   1   0  -2    0.04    0.32
  -1   0  -3    0.00    0.45
  -1   0  -3   -0.06    0.47
  -1   0  -3   -0.17    0.41
   1   0  -3    0.10    0.49
   1   0  -3    0.05    0.40
   1   0   3   -0.53    0.49
  -1   0   3    0.68    0.51
   1   0  -3   -0.03    0.42
  -1   0   4   -0.79    0.71
  -1   0  -4    0.47    0.62
   1   0  -4    0.75    0.64
   1   0   4    0.38    0.76
   1   0  -4   -0.62    0.51
  -1   0  -4    0.20    0.64
  -1   0  -4    0.18    0.54
   1   0  -5   -0.06    0.73
  -1   0  -5    0.29    0.78
   1   0  -5   -0.63    1.13
  -1   0  -5    0.65    0.90
   1   0  -5   -0.32    0.79
   1   0  -6   -1.01    1.11
  -1   0  -6    0.21    1.53
  -1   0  -6    1.36    1.19
  -1   0  -6    0.30    1.00
   1   0  -6   -1.24    1.08
  -1   0  -7   -1.79    1.74
  -1   0  -7   -1.41    1.34
   1   0  -7    2.09    1.50
   1   0  -7   -0.60    1.71
  -1   0  -8   -1.07    1.91
  -1   0  -8   -0.52    2.75
   1   0  -8    2.01    2.00
  -1   0  -9    2.57    2.81
   2   0   0  146.34    5.52
  -2   0   0  114.96    5.40
  -2   0   0  144.11    5.41
   2   0   1  316.28   12.46
  -2   0  -1  310.49   12.37
  -2   0  -1  296.00   12.36
  -2   0   1  320.92   12.39
  -2   0  -2  170.27    6.98
   2   0  -2  161.72    6.88
  -2   0  -2  157.49    6.96
  -2   0   2  172.61    7.06
   2   0  -2  161.63    6.92
   2   0   2  175.67    7.13
   2   0  -2  172.86    6.88
   2   0  -3  222.07    9.57
   2   0  -3  245.26    9.55
   2   0   3  224.34    9.82
   2   0  -3  228.14    9.51
  -2   0  -3  234.96    9.67
  -2   0   3  218.02    9.75
  -2   0  -3  241.47    9.70
  -2   0  -3  227.66    9.59
  -2   0  -4   85.87    4.40
   2   0  -4   87.98    4.32
   2   0  -4   92.68    4.27
   2   0  -4   96.24    4.34
  -2   0  -4   88.98    4.33
   2   0   4   85.63    4.59
  -2   0  -4   89.15    4.40
  -2   0  -5   94.95    4.73
   2   0  -5   93.86    4.62
  -2   0  -5   99.12    4.85
  -2   0  -5   88.60    4.77
   2   0  -5   91.18    4.70
   2   0  -5   88.67    4.75
  -2   0  -6   37.70    3.02
   2   0  -6   35.50    2.90
  -2   0  -6   37.61    3.18
   2   0  -6   36.48    2.87
  -2   0  -6   39.57    3.05
  -2   0  -7   27.95    3.16
   2   0  -7   23.24    2.93
  -2   0  -7   28.05    3.45
  -2   0  -8   16.96    3.44
  -2   0  -8   15.95    2.95
  -2   0  -9    4.92    5.16
  -2   0   9    6.55    3.83
  -2   0   9   13.36    4.68
  -2   0  -9    8.17    3.16
  -3   0   0   -0.01    0.21
  -3   0   0    0.11    0.39
  -3   0   0    0.38    0.26
  -3   0   1    0.44    0.36
  -3   0  -1    0.13    0.24
   3   0   1    0.18    0.32
  -3   0  -1    0.01    0.22
   3   0   2   -0.09    0.47
  -3   0  -2   -0.16    0.33
  -3   0  -2   -0.03    0.33
  -3   0  -3    0.24    0.45
  -3   0  -3    0.91    0.54
   3   0   3    1.43    0.72
  -3   0  -3   -0.39    0.41
   3   0  -3    0.09    0.40
  -3   0  -4    0.06    0.61
   3   0  -4    0.08    0.58
   3   0  -4    1.42    1.06
  -3   0  -4   -0.04    0.65
   3   0   4   -0.01    0.85
  -3   0  -4    0.08    0.63
   3   0  -5   -0.48    0.73
  -3   0  -5    0.31    0.79
  -3   0  -5   -0.64    0.85
  -3   0  -5    2.28    1.01
  -3   0  -6   -0.84    1.32
  -3   0  -6   -0.45    1.12
  -3   0  -6   -0.04    1.20
   3   0  -6    0.71    1.01
  -3   0  -7   -1.77    1.73
  -3   0  -7    0.38    1.54
  -3   0  -7    0.88    2.31
  -3   0  -8   -0.18    2.07
  -3   0  -8   -0.39    2.61
  -3   0   9   -4.50    4.56
  -3   0  -9    0.18    3.96
  -3   0   9    3.56    3.49
  -3   0  -9    1.61    2.93
  -4   0   0   33.24    1.69
  -4   0   0   35.22    1.94
  -4   0   0   34.40    1.69
  -4   0  -1  487.13   19.90
  -4   0   1  506.11   19.91
  -4   0   1  527.04   20.03
   4   0   1  523.92   19.94
  -4   0   1  518.95   19.99
  -4   0  -1  444.50   19.87
   4   0   2   26.52    1.73
  -4   0  -2   26.53    1.57
  -4   0  -2   28.92    1.60
  -4   0  -3  341.32   13.83
   4   0   3  334.58   13.93
  -4   0  -3  326.64   13.79
   4   0   4    9.68    1.45
  -4   0  -4    8.04    1.17
  -4   0  -4   11.19    1.37
  -4   0  -4    7.87    1.23
  -4   0  -5  227.65   10.32
  -4   0  -5  234.84   10.50
  -4   0  -5  238.16   10.49
  -4   0  -6    6.34    1.68
  -4   0  -6    6.64    1.73
  -4   0  -7  113.42    6.57
  -4   0  -7  108.11    6.48
  -4   0  -8    3.50    2.23
  -4   0   8   -1.20    2.52
  -4   0  -8    6.25    3.02
  -4   0  -9   29.30    5.09
  -4   0   9   25.06    4.54
  -4   0  -9   31.98    4.44
  -4   0   9   33.17    6.26
  -5   0   0   -0.35    0.55
  -5   0   0    0.61    0.40
  -5   0  -1   -0.12    0.33
  -5   0  -1    0.18    0.32
  -5   0   1   -0.16    0.32
  -5   0   1    0.41    0.49
   5   0   2   -0.15    0.60
  -5   0  -2   -0.13    0.42
  -5   0  -2    0.25    0.41
  -5   0   2   -0.39    0.48
  -5   0  -3   -0.89    0.50
   5   0   3    0.04    1.44
  -5   0  -3   -0.04    0.55
   5   0   4    0.28    0.98
  -5   0  -4    0.03    0.65
  -5   0  -4   -0.58    0.64
  -5   0  -4   -1.09    0.68
  -5   0  -5    0.18    0.93
  -5   0  -5    0.80    1.00
  -5   0  -5   -0.67    0.93
  -5   0  -6    0.01    1.21
  -5   0  -6    1.46    1.53
  -5   0  -6   -1.45    1.24
  -5   0  -7   -1.90    1.88
  -5   0  -7   -1.68    1.52
  -5   0  -7    0.29    2.69
  -5   0   8   -0.48    2.41
  -5   0  -8    0.44    2.76
  -5   0   8    0.15    3.67
  -5   0  -8    2.31    2.37
  -6   0   0  412.70   15.26
  -6   0   0  331.73   14.98
  -6   0   1   90.05    3.91
  -6   0  -1   83.68    3.89
  -6   0  -1   84.56    3.88
  -6   0   1   93.56    4.16
  -6   0  -2  359.21   14.96
  -6   0   2  363.12   14.95
  -6   0  -2  360.76   14.93
  -6   0   2  385.40   15.09
  -6   0   3   54.96    3.07
  -6   0  -3   50.12    2.87
   6   0   3   51.64    3.13
  -6   0  -3   51.07    2.88
  -6   0  -4  108.71    5.45
  -6   0  -4  111.02    5.42
  -6   0  -4  112.73    5.51
  -6   0  -5    7.83    1.50
  -6   0  -5    9.08    1.52
  -6   0  -5    9.75    1.70
  -6   0  -6   33.05    3.21
  -6   0  -6   25.02    2.93
  -6   0  -6   29.00    3.10
  -6   0  -7    4.23    2.16
  -6   0  -7    2.57    3.01
  -6   0  -7    2.89    2.11
  -6   0   7    2.84    2.04
  -6   0   7    0.57    2.79
  -6   0   8   17.05    3.42
  -6   0  -8   18.21    3.41
  -6   0  -8   17.55    3.55
  -6   0   8   28.45    4.95
  -7   0   0    0.08    0.44
  -7   0   0   -0.60    0.58
  -7   0  -1   -0.45    0.46
  -7   0  -1    0.33    0.39
  -7   0   1    0.11    0.40
  -7   0   1    0.23    0.74
  -7   0   2   -1.82    0.77
  -7   0   2   -0.20    0.48
  -7   0  -2   -0.27    0.44
  -7   0  -2   -0.25    0.50
   7   0   2    0.04    0.81
  -7   0   3   -0.52    0.61
  -7   0  -3    0.68    0.58
   7   0   3   -0.01    1.07
  -7   0   3   -0.09    0.93
  -7   0  -3    0.93    0.71
  -7   0   4    1.06    1.16
  -7   0  -4    0.13    0.86
  -7   0   4   -0.84    0.83
  -7   0  -4    0.82    0.74
  -7   0   5    0.04    1.46
  -7   0  -5   -0.17    1.06
  -7   0  -5   -0.65    1.09
  -7   0  -6    0.74    1.77
  -7   0   6    0.97    1.95
  -7   0   6    0.47    1.50
  -7   0  -6   -0.89    1.71
  -7   0  -6    1.23    1.42
  -7   0   7   -0.16    2.96
  -7   0  -7    0.28    2.19
  -7   0   7   -0.11    1.92
  -7   0  -7   -3.93    2.84
  -7   0  -7   -2.92    1.75
  -7   0   8    1.49    2.71
  -7   0   8   -4.11    4.34
  -7   0  -8   -3.27    2.80
  -7   0  -8   -0.63    2.45
  -8   0   0  488.42   18.43
  -8   0   0  415.77   18.21
  -8   0  -1   77.43    3.60
  -8   0  -1   79.88    3.66
  -8   0   1   73.33    3.60
  -8   0   1   75.78    4.09
  -8   0   2  348.29   14.42
  -8   0  -2  342.74   14.45
  -8   0   2  359.55   14.73
  -8   0  -2  351.37   14.43
  -8   0  -3   47.33    2.85
  -8   0   3   50.94    3.21
  -8   0  -3   49.13    2.89
  -8   0   3   46.91    2.80
  -8   0  -4  119.42    5.98
  -8   0  -4  111.22    5.93
  -8   0   4  131.61    6.38
  -8   0   4  120.93    5.97
  -8   0  -5   25.52    2.74
  -8   0   5   26.12    3.17
  -8   0   5   21.37    2.50
  -8   0  -5   24.31    2.61
  -8   0  -5   24.31    2.52
  -8   0  -6   35.21    3.63
  -8   0  -6   36.46    3.58
  -8   0   6   33.22    3.53
  -8   0   6   36.22    4.58
  -8   0  -6   34.48    3.84
  -8   0  -7    8.33    2.69
  -8   0   7    8.95    3.67
  -8   0   7    7.34    2.49
  -8   0  -7   12.47    3.70
  -8   0  -7    8.56    2.72
  -8   0  -8   10.15    3.32
  -8   0   8    7.84    3.02
  -8   0  -8   13.56    3.16
  -8   0   8    7.83    5.12
  -9   0   0   -0.10    0.70
  -9   0   0   -0.20    0.47
  -9   0  -1   -0.50    0.58
  -9   0   1   -0.46    0.52
  -9   0  -1    0.03    0.43
  -9   0   1    1.10    1.15
  -9   0  -2   -0.41    0.66
  -9   0  -2    0.89    0.60
  -9   0   2    0.40    0.60
  -9   0   2   -0.86    1.18
  -9   0   3   -0.14    1.28
  -9   0  -3   -0.15    0.79
  -9   0   3    0.33    0.75
  -9   0  -3   -0.17    0.72
  -9   0   4   -0.33    0.84
  -9   0   4    0.60    1.44
  -9   0  -4    0.14    0.93
  -9   0  -4    0.28    0.94
  -9   0  -5   -1.29    1.37
  -9   0   5    0.91    1.34
  -9   0  -5    0.74    1.39
  -9   0   5   -2.65    1.97
  -9   0  -5    0.81    1.86
  -9   0  -6    1.58    1.80
  -9   0   6    3.06    1.78
  -9   0  -6    1.40    2.11
  -9   0  -6   -0.09    1.74
  -9   0  -7   -2.80    3.46
  -9   0   7   -0.41    2.23
  -9   0  -7    0.30    2.30
  -9   0   7    6.03    4.19
  -9   0  -7    2.20    2.50
  -9   0  -8   -4.51    2.89
  -9   0  -8   -2.56    3.20
  -9   0   8    4.01    2.77
  -9   0   8   -0.56    5.41
 -10   0   0   40.26    2.44
 -10   0   0   37.61    2.20
 -10   0  -1   81.84    3.93
 -10   0   1   77.37    4.64
 -10   0  -1   81.52    3.85
 -10   0   1   76.40    3.93
 -10   0  -2   17.27    1.56
 -10   0   2   21.25    2.45
 -10   0   2   16.98    1.56
 -10   0  -2   16.18    1.65
 -10   0   3  110.48    6.13
 -10   0   3  115.37    5.54
 -10   0  -3  118.69    5.64
 -10   0  -3  113.83    5.62
 -10   0   4   10.93    1.94
 -10   0  -4   12.06    1.93
 -10   0   4   15.42    2.62
 -10   0  -4   10.86    1.70
 -10   0   5   80.90    5.15
 -10   0  -5   88.97    5.33
 -10   0   5   96.31    6.20
 -10   0  -5   81.47    5.29
 -10   0  -5   99.32    5.61
 -10   0   6    7.25    2.21
 -10   0  -6    5.71    2.29
 -10   0  -6    7.97    2.35
 -10   0  -6    6.78    2.62
 -10   0   6    7.88    3.39
 -10   0  -7   38.80    5.36
 -10   0  -7   30.47    4.31
 -10   0   7   37.51    4.53
 -10   0   7   49.46    6.12
 -10   0  -7   36.04    4.90
 -10   0   8    0.83    2.87
 -10   0  -8   -2.36    3.25
 -10   0  -8    1.80    3.38
 -10   0  -8   -2.43    8.81
 -11   0   0   -0.28    0.81
 -11   0   0   -0.41    0.56
 -11   0  -1   -0.35    0.58
 -11   0  -1   -0.98    0.81
 -11   0   1    0.85    0.73
 -11   0   1    2.02    1.37
 -11   0   2    0.74    1.69
 -11   0  -2    0.51    0.87
 -11   0  -2    0.70    0.70
 -11   0   2    0.54    0.74
 -11   0  -3    0.00    0.82
 -11   0  -3   -0.87    0.95
 -11   0   3    2.36    1.95
 -11   0   3   -0.27    0.77
 -11   0   4   -1.28    1.02
 -11   0  -4    0.01    1.22
 -11   0   4   -1.83    2.25
 -11   0  -4    0.05    1.17
 -11   0   5   -0.30    1.41
 -11   0   5    4.18    2.82
 -11   0  -5   -2.37    1.41
 -11   0  -5    0.73    1.76
 -11   0  -5    0.80    1.57
 -11   0   6    2.73    2.00
 -11   0   6   -1.95    3.54
 -11   0  -6    1.37    2.16
 -11   0  -6   -1.17    2.65
 -11   0  -6   -3.25    1.90
 -11   0  -7    0.97    2.90
 -11   0   7    3.46    2.68
 -11   0  -7    1.66    2.56
 -11   0  -7    0.22    4.25
 -12   0   0   84.30    4.14
 -12   0   0   84.44    4.35
 -12   0  -1   50.78    2.97
 -12   0   1   44.05    2.79
 -12   0  -1   46.23    2.71
 -12   0   1   47.48    3.43
 -12   0  -2   56.89    3.46
 -12   0   2   59.28    3.38
 -12   0  -2   58.56    3.37
 -12   0   2   62.00    4.80
 -12   0  -3   35.16    2.73
 -12   0  -3   38.21    2.91
 -12   0   3   40.53    4.40
 -12   0   4   37.25    4.80
 -12   0   4   26.79    2.61
 -12   0  -4   25.88    2.75
 -12   0  -5   23.59    3.35
 -12   0  -5   33.75    4.05
 -12   0   5   27.86    3.16
 -12   0  -5   26.19    3.27
 -12   0   5   44.82    5.12
 -12   0  -6   15.74    3.17
 -12   0  -6   15.56    2.98
 -12   0  -6   23.78    4.02
 -12   0   6   13.94    2.82
 -12   0  -7   26.30    5.98
 -12   0  -7   12.81    3.53
 -12   0  -7   21.93    4.01
 -12   0   7   21.67    3.50
 -13   0   0    0.48    1.17
 -13   0   0    0.44    0.71
 -13   0   1   -0.97    1.50
 -13   0  -1   -1.18    0.73
 -13   0  -1   -0.33    1.08
 -13   0   1    0.26    0.77
 -13   0  -2    0.69    0.95
 -13   0  -2   -0.40    1.14
 -13   0   2   -1.45    2.27
 -13   0  -3   -1.20    1.04
 -13   0   3   -1.18    1.03
 -13   0  -3    0.02    1.16
 -13   0   3   -1.22    3.02
 -13   0   4   -0.33    1.26
 -13   0  -4    1.73    1.45
 -13   0  -4    4.30    1.80
 -13   0   5    0.77    1.67
 -13   0  -5    0.21    1.66
 -13   0  -5   -0.23    2.07
 -13   0   6   -2.78    2.08
 -13   0  -6    0.71    2.50
 -13   0  -6   -3.96    2.06
 -13   0  -6    0.08    3.22
 -13   0   7   -0.04    2.72
 -13   0  -7    1.42    3.34
 -13   0  -7    2.81    3.19
 -13   0  -7    7.51    5.74
 -14   0   0  113.45    5.59
 -14   0   0  121.23    5.94
 -14   0   1    7.84    1.83
 -14   0  -1    8.00    1.56
 -14   0   1    4.94    1.22
 -14   0  -1    5.55    1.21
 -14   0  -2   86.19    4.84
 -14   0  -2   85.41    4.78
 -14   0   2   92.85    4.82
 -14   0  -3   22.47    2.59
 -14   0   3   19.55    2.33
 -14   0  -3   15.32    2.15
 -14   0  -4   33.87    3.45
 -14   0   4   37.99    3.28
 -14   0  -4   44.35    4.08
 -14   0  -5    9.92    2.66
 -14   0   5    9.03    2.33
 -14   0  -5   13.53    2.67
 -14   0  -6   21.28    4.47
 -14   0  -6   20.68    3.90
 -14   0   6    9.48    2.76
 -14   0  -6   15.75    3.30
 -15   0   0   -1.46    2.17
 -15   0   0    1.83    1.05
 -15   0   1    0.12    1.00
 -15   0  -1   -1.23    1.51
 -15   0  -1   -0.43    0.99
 -15   0  -2    0.15    1.59
 -15   0   2    0.45    1.15
 -15   0  -2    1.14    1.21
 -15   0  -3   -0.03    1.85
 -15   0  -3   -0.75    1.39
 -15   0   3    0.62    1.38
 -15   0   4   -1.98    1.61
 -15   0  -4   -0.94    2.12
 -15   0  -4    1.16    1.76
 -15   0  -5   -4.16    2.02
 -15   0  -5   -1.48    2.58
 -15   0   5   -0.49    1.92
 -15   0   6   -1.11    2.46
 -15   0  -6    2.33    3.52
 -15   0  -6   -0.28    2.62
 -15   0  -6    3.46    4.13
 -16   0   0   11.54    1.73
 -16   0   1   43.95    3.00
 -16   0  -1   38.89    3.06
 -16   0   2    6.18    1.63
 -16   0  -2    8.10    1.78
 -16   0  -3   47.56    4.32
 -16   0  -3   37.05    3.55
 -16   0   3   38.81    3.46
 -16   0  -4    7.34    2.35
 -16   0  -4    2.28    2.72
 -16   0   4    3.07    2.12
 -16   0  -5   40.53    4.81
 -16   0  -5   23.77    4.10
 -16   0  -5   23.77    3.62
 -16   0   5   32.42    4.20
 -17   0   0    1.86    1.40
 -17   0  -1   -0.34    1.30
 -17   0   1   -1.17    1.25
 -17   0  -2    0.65    1.49
 -17   0   2   -0.19    1.38
 -17   0  -3    3.76    1.89
 -17   0   3    1.58    1.74
 -17   0  -3    1.62    4.36
 -17   0  -4   -6.14    2.98
 -17   0  -4    0.19    2.26
 -17   0   4    1.44    2.20
 -17   0  -5    4.10    3.89
 -17   0  -5   -3.47    2.58
 -18   0   0   36.29    3.35
 -18   0   1    9.89    1.90
 -18   0  -1   11.71    2.22
 -18   0  -2   22.19    2.90
 -18   0   2   20.49    2.79
 -18   0   3   16.61    2.54
 -18   0  -3   24.74    3.23
 -18   0   4   13.33    2.64
 -18   0  -4    6.37    2.85
 -19   0   0   -1.12    1.73
 -19   0   1   -0.46    1.77
 -19   0  -1    0.89    1.94
 -19   0  -2    1.93    2.17
 -19   0   2   -0.28    1.84
 -19   0   3    0.14    1.94
 -19   0  -3   -1.24    2.42
 -20   0   0   19.98    2.86
 -20   0   1    3.65    2.16
 -20   0  -1   -3.06    2.15
   0  -1  -1  244.86    9.89
   0  -1   1  251.90    9.96
   0  -1  -1  256.45    9.92
   0  -1  -1  251.62    9.90
   0   1  -1  237.31    9.85
   0   1  -1  246.31    9.88
   0   1  -1  250.64    9.88
   0  -1   2   -0.32    0.41
   0   1  -2    0.01    0.27
   0  -1  -2   -0.03    0.30
   0   1  -2    0.16    0.30
   0   1  -2   -0.21    0.26
   0  -1  -2    0.12    0.29
   0  -1  -2    0.06    0.33
   0   1   2   -0.07    0.36
   0   1  -3  144.76    6.42
   0   1  -3  148.06    6.34
   0  -1   3  145.55    6.64
   0   1  -3  152.00    6.42
   0  -1  -3  151.41    6.42
   0  -1  -3  146.63    6.47
   0  -1  -3  158.40    6.50
   0  -1  -4   -0.06    0.53
   0  -1   4    0.35    0.74
   0  -1  -4   -0.56    0.62
   0   1  -4    1.14    0.61
   0   1  -4   -0.31    0.66
   0  -1  -4    0.72    0.62
   0   1  -4   -0.23    0.55
   0   1  -5  123.08    5.95
   0   1  -5  122.89    5.87
   0  -1  -5  128.16    6.05
   0  -1   5  128.38    6.38
   0   1  -5  121.48    5.85
   0  -1  -5  122.97    6.01
   0  -1  -5  121.29    5.87
   0  -1  -6   -0.50    1.14
   0   1  -6    1.01    1.25
   0  -1  -6   -1.08    1.03
   0  -1  -6    2.36    1.67
   0   1  -6    2.50    1.81
   0   1  -6    0.54    1.22
   0   1  -7   78.14    4.90
   0  -1  -7   70.39    4.87
   0  -1  -7   78.75    5.07
   0   1  -8    1.12    2.91
   0  -1  -8    7.73    3.21
   0  -1  -8   -1.25    2.66
   0   1  -8    0.37    1.89
   0   1   9   27.91    4.99
  -1   1   0   36.65    1.50
  -1   1   0   31.32    1.58
  -1  -1  -1   28.10    1.30
   1   1  -1   27.12    1.25
  -1  -1  -1   28.25    1.31
   1   1  -1   27.79    1.24
   1  -1  -1   27.99    1.35
  -1   1  -1   26.95    1.32
   1  -1  -1   28.36    1.33
   1  -1  -1   29.05    1.32
  -1   1  -1   28.99    1.32
   1   1  -2   51.77    2.35
   1  -1   2   49.06    2.73
  -1  -1  -2   51.20    2.40
   1   1  -2   51.38    2.39
   1   1  -2   53.10    2.38
  -1  -1  -2   54.69    2.48
  -1   1  -2   53.92    2.49
   1  -1  -2   52.45    2.48
   1   1   2   53.15    2.58
   1  -1  -2   53.66    2.47
   1  -1  -2   53.41    2.46
  -1  -1   2   52.24    2.57
  -1   1  -2   53.39    2.44
  -1   1  -2   51.78    2.48
  -1  -1  -3   34.17    1.98
   1   1  -3   37.56    1.96
   1   1  -3   36.55    1.98
   1  -1   3   29.22    2.13
  -1  -1  -3   37.24    1.99
  -1  -1  -3   36.56    2.03
   1   1  -3   37.49    1.98
  -1   1  -3   35.68    1.95
   1  -1  -3   37.55    1.96
   1  -1  -3   35.56    1.96
   1  -1  -3   35.93    1.93
   1   1   3   29.07    2.07
  -1   1  -3   34.11    1.98
  -1  -1   3   27.23    2.02
  -1   1  -3   35.67    1.94
   1   1  -4   14.00    1.29
   1   1  -4   12.97    1.32
   1   1  -4   14.72    1.44
  -1  -1  -4   11.76    1.33
  -1  -1  -4   14.02    1.34
   1  -1   4   11.63    1.55
  -1  -1  -4   13.31    1.34
   1  -1  -4   11.31    1.25
  -1   1  -4   13.99    1.34
   1  -1  -4   12.25    1.45
  -1  -1   4   12.18    1.50
   1  -1  -4   13.06    1.33
  -1   1  -4   14.69    1.42
  -1   1  -4   11.77    1.30
   1   1  -5   29.31    2.15
  -1  -1  -5   25.10    2.17
   1   1  -5   26.07    2.06
   1  -1   5   24.10    2.41
  -1  -1  -5   25.16    2.12
  -1  -1  -5   26.24    2.23
   1   1  -5   29.15    2.58
  -1   1  -5   24.87    2.17
   1  -1  -5   27.46    2.13
  -1   1  -5   26.53    2.15
  -1  -1   5   20.65    2.33
  -1   1  -5   30.81    2.30
   1  -1  -5   26.28    2.12
   1  -1  -5   26.91    2.38
   1   1  -6    3.18    1.45
  -1  -1  -6    0.16    1.45
   1   1  -6    1.80    1.24
  -1  -1  -6    4.75    1.37
  -1  -1  -6    5.97    1.41
  -1   1  -6   -0.68    1.58
   1  -1  -6    3.97    1.29
   1  -1  -6   -1.39    1.80
  -1   1  -6    3.58    1.21
  -1   1  -6    4.12    1.43
   1  -1  -6    3.32    1.25
   1   1  -7   17.09    2.51
  -1  -1  -7    8.33    2.16
  -1  -1  -7   13.20    2.34
  -1   1  -7   16.23    2.57
  -1   1  -7   13.24    2.37
   1  -1  -7   14.93    2.50
  -1  -1  -8   -0.47    2.67
  -1  -1  -8    3.28    2.32
   1   1  -8    3.15    2.06
  -1   1  -8   -1.50    1.86
  -1   1  -8    0.74    2.85
  -1   1   9   11.56    4.32
  -1  -1  -9    1.78    2.89
  -1   1   9    3.38    3.69
  -1   1  -9    7.43    3.08
  -2   1   0  101.22    4.52
   2  -1   0  115.01    4.54
  -2  -1   0  117.57    4.38
  -2  -1   0  107.37    4.45
   2  -1   1  386.37   15.11
  -2  -1  -1  373.91   14.97
  -2  -1  -1  372.95   14.97
  -2  -1   1  394.39   14.10
  -2   1  -1  357.72   14.17
  -2   1  -1  336.34   14.15
  -2  -1   1  347.05   14.07
   2  -1  -1  345.86   14.18
   2   1  -2  192.72    7.68
   2  -1   2  196.71    8.00
   2   1  -2  179.79    7.71
  -2  -1  -2  190.33    7.81
  -2  -1  -2  184.51    7.76
   2  -1  -2  189.31    7.83
   2   1   2  195.44    8.01
  -2  -1   2  198.57    7.97
  -2   1  -2  189.11    7.91
  -2   1  -2  195.57    7.92
   2  -1  -2  184.13    7.86
   2  -1  -2  186.92    7.91
  -2  -1  -3  187.92    8.04
  -2  -1  -3  196.94    8.14
  -2  -1  -3  188.96    8.10
   2  -1   3  201.68    8.36
   2   1  -3  180.23    7.97
   2   1  -3  182.73    7.90
   2   1  -3  195.96    8.12
  -2   1  -3  183.42    8.00
   2  -1  -3  185.25    7.99
  -2   1  -3  184.15    8.06
  -2  -1   3  198.30    8.26
   2  -1  -3  178.78    8.03
  -2   1  -3  193.49    8.10
   2   1   3  202.15    8.28
   2  -1  -3  195.71    8.00
   2   1  -4  167.28    7.23
  -2  -1  -4  167.46    7.46
   2  -1   4  165.18    7.70
  -2  -1  -4  165.22    7.35
   2   1  -4  160.58    7.29
  -2  -1  -4  169.84    7.45
   2   1  -4  171.75    7.24
  -2  -1   4  165.83    7.71
  -2   1  -4  171.69    7.52
  -2   1  -4  164.40    7.49
   2  -1  -4  163.83    7.44
  -2   1  -4  169.50    7.41
   2  -1  -4  175.36    7.38
   2  -1   5   42.62    3.15
  -2  -1  -5   42.67    2.84
   2   1  -5   44.00    2.66
   2   1  -5   38.40    2.62
  -2  -1  -5   42.77    2.82
  -2  -1  -5   42.94    2.86
  -2   1  -5   41.33    2.80
   2  -1  -5   35.89    2.63
   2  -1  -5   40.10    2.59
  -2   1  -5   40.28    2.78
  -2   1  -5   38.96    2.73
   2  -1  -5   45.27    3.01
  -2  -1  -6   85.96    4.96
  -2  -1  -6   84.68    4.86
   2   1  -6   74.49    5.05
  -2  -1  -6   89.39    4.88
   2   1  -6   85.99    4.57
   2  -1  -6   93.06    5.96
  -2   1  -6   83.79    4.88
  -2   1  -6   86.95    4.84
   2  -1  -6   77.14    4.69
   2   1  -7    6.34    1.74
  -2  -1  -7    7.28    2.19
  -2  -1  -7    5.70    1.95
  -2   1  -7    8.48    2.21
   2  -1  -7    5.75    1.78
  -2   1  -7    7.83    2.02
  -2  -1  -8   35.27    4.19
  -2  -1  -8   33.82    4.16
  -2  -1  -9   10.70    4.47
  -2  -1  -9    3.08    2.91
  -2   1   9   -3.47    4.34
  -2   1   9    3.82    3.52
  -2   1  -9    5.50    3.10
  -3   1   0  293.48   12.52
  -3  -1   0  310.51   12.51
  -3  -1   0  334.04   12.39
  -3  -1  -1   12.17    0.75
  -3   1   1   11.68    0.90
  -3   1   1   12.36    0.82
   3  -1   1   12.15    0.92
  -3  -1  -1   12.32    0.76
  -3   1  -1   12.88    0.82
  -3  -1   1   12.18    0.72
  -3   1  -1   12.34    0.80
  -3  -1   1   11.80    0.68
  -3  -1  -2  184.14    7.63
   3  -1   2  181.92    7.78
  -3   1  -2  183.39    7.72
   3  -1  -2  181.15    7.66
  -3  -1   2  191.29    7.74
  -3   1  -2  187.93    7.72
   3   1   2  182.74    7.77
   3   1  -3    6.23    0.81
   3  -1   3    6.08    1.10
  -3  -1  -3    6.25    0.96
  -3  -1  -3    6.67    0.95
  -3  -1  -3    6.83    0.93
  -3   1  -3    3.96    0.72
   3  -1  -3    5.18    0.78
   3   1   3    5.55    0.99
  -3   1  -3    6.59    0.95
   3  -1  -3    8.39    1.06
  -3   1  -3    5.73    0.82
  -3  -1   3    5.28    0.90
   3   1  -4   21.34    1.59
   3   1  -4   19.77    1.56
  -3  -1  -4   23.92    1.76
  -3  -1  -4   21.85    1.80
   3  -1   4   21.69    2.03
  -3  -1  -4   20.30    1.74
  -3   1  -4   19.96    1.72
   3  -1  -4   22.14    1.97
  -3   1  -4   23.83    1.84
  -3   1  -4   21.09    1.70
   3  -1  -4   19.99    1.68
  -3  -1   4   24.40    1.96
   3   1  -5    1.33    0.76
  -3  -1  -5   -0.35    0.86
  -3  -1  -5   -0.22    0.80
  -3  -1  -5    0.29    0.95
   3  -1   5    0.28    1.12
  -3   1  -5   -1.38    0.76
  -3   1  -5    1.37    1.00
   3  -1  -5    0.04    1.55
   3  -1  -5    0.11    0.71
  -3   1  -5   -0.20    0.95
  -3  -1  -6    1.30    1.42
  -3  -1  -6    0.88    1.25
   3   1  -6   -0.28    1.03
  -3  -1  -6    1.21    1.38
  -3   1  -6    0.71    1.26
  -3   1  -6    1.54    1.54
  -3   1  -6   -0.15    1.25
  -3  -1  -7    1.85    1.87
  -3  -1  -7    3.04    2.42
  -3  -1  -7    1.96    1.96
  -3   1  -7   -0.86    1.45
  -3   1  -7    1.23    1.92
  -3  -1  -8    2.20    2.73
  -3  -1  -8    2.25    2.18
  -3   1   8    1.41    2.59
  -3   1  -8   -1.78    1.97
  -3   1  -8   -2.79    2.72
  -3   1   9   -2.34    3.45
  -3   1   9   -1.33    4.42
  -3  -1  -9   -4.57    3.88
  -3  -1  -9    4.62    3.05
  -3  -1   9    0.46    3.31
  -3   1  -9   -7.61    3.96
  -3  -1   9    3.96    4.84
  -3   1  -9    0.61    2.89
  -4   1   0  321.04   13.36
  -4  -1   0  384.15   13.43
  -4  -1   0  331.69   13.22
  -4   1   0  289.78   13.54
  -4  -1  -1   35.75    1.73
  -4   1   1   34.23    1.88
   4  -1   1   35.86    1.89
  -4   1   1   38.61    1.97
  -4  -1   1   36.05    1.74
  -4   1  -1   36.98    1.81
  -4   1  -1   35.88    1.77
  -4  -1   1   34.06    1.62
  -4  -1   1   36.30    1.67
  -4  -1  -2  319.87   13.57
   4  -1   2  354.65   13.80
  -4  -1  -2  331.40   13.60
   4   1   2  355.44   13.53
  -4   1  -2  304.36   13.45
  -4   1  -2  330.15   13.49
  -4  -1   2  337.42   13.46
  -4  -1  -3   17.60    1.48
   4  -1   3   22.57    1.78
  -4  -1  -3   20.15    1.54
   4  -1  -3   16.23    1.54
  -4  -1   3   19.93    1.53
  -4   1  -3   21.58    1.55
  -4   1  -3   17.89    1.41
  -4  -1  -4  151.40    7.04
  -4  -1  -4  149.68    6.95
   4  -1   4  157.32    7.29
  -4  -1  -4  159.37    7.08
  -4   1  -4  155.35    7.05
  -4   1  -4  154.39    7.15
  -4   1  -4  156.60    7.17
   4  -1  -4  161.40    7.05
  -4  -1  -5    4.86    1.25
   4  -1   5    6.00    1.56
  -4  -1  -5    6.51    1.36
  -4  -1  -5    5.54    1.22
  -4   1  -5    9.62    1.66
  -4   1  -5    5.62    1.34
  -4   1  -5    7.16    1.42
  -4  -1  -6   61.34    4.30
  -4  -1  -6   76.73    4.42
  -4  -1  -6   63.52    4.76
  -4   1  -6   67.86    4.35
  -4   1  -6   64.79    4.22
  -4  -1  -7    2.35    1.66
  -4  -1  -7    2.42    1.92
  -4   1  -7    0.89    1.61
  -4   1  -7    1.34    2.38
  -4   1  -7    2.80    2.20
  -4  -1  -8   17.96    3.34
  -4   1   8   17.77    4.57
  -4  -1  -8   20.15    3.60
  -4   1   8   19.46    3.61
  -4   1  -8   23.65    3.87
  -4   1  -8   21.35    3.47
  -4   1   9    1.44    4.86
  -4  -1  -9    0.19    2.89
  -4   1   9    1.33    3.50
  -4  -1  -9    0.80    4.04
  -4   1  -9   -1.10    4.11
  -4  -1   9    1.49    3.26
  -4  -1   9   -1.50    4.61
  -4   1  -9    0.70    2.96
  -5  -1   0   84.56    3.57
  -5   1   0   78.57    3.73
  -5  -1   0   88.79    3.78
  -5  -1   0   82.84    3.60
  -5   1   0   80.41    4.00
  -5  -1  -1   50.26    2.29
  -5   1   1   49.15    2.40
   5  -1   1   44.74    2.43
  -5   1   1   50.34    2.60
  -5  -1  -1   52.27    2.32
  -5  -1   1   48.55    2.39
  -5   1  -1   52.96    2.45
  -5   1  -1   50.27    2.40
  -5  -1   1   47.86    2.29
  -5   1   2   45.76    2.46
  -5  -1  -2   49.12    2.41
  -5  -1  -2   44.33    2.38
  -5   1   2   51.43    2.62
   5  -1   2   46.38    2.60
  -5   1  -2   45.55    2.34
  -5   1  -2   44.02    2.32
  -5  -1  -3   47.44    2.57
  -5  -1  -3   44.99    2.54
   5  -1   3   40.22    2.70
  -5   1  -3   44.88    2.60
  -5   1  -3   46.15    2.60
   5  -1   4   13.70    1.87
  -5  -1  -4   10.50    1.41
  -5  -1  -4   10.62    1.44
  -5  -1  -4   10.67    1.51
  -5   1  -4   12.60    1.49
  -5   1  -4   11.75    1.53
  -5   1  -4   12.79    1.42
  -5  -1  -5   17.94    2.01
  -5  -1  -5   15.83    1.97
  -5  -1  -5   17.18    2.03
  -5   1  -5   15.04    1.90
  -5   1  -5   18.01    1.90
  -5   1  -5   15.71    1.98
  -5  -1  -6    3.06    1.41
  -5  -1  -6    3.45    1.63
  -5  -1  -6    2.26    1.55
  -5   1  -6    0.85    1.35
  -5   1  -6    1.45    1.47
  -5   1  -6    0.86    1.37
  -5  -1  -7    0.62    2.67
  -5  -1  -7    3.66    1.89
  -5   1   7    5.02    2.15
  -5   1   7    3.27    2.75
  -5  -1  -7    3.15    2.06
  -5   1  -7    4.62    1.87
  -5   1  -7    2.90    2.23
  -5   1   8    7.73    3.63
  -5  -1  -8   -0.85    2.60
  -5   1   8    1.89    2.62
  -5  -1  -8    2.44    2.45
  -5  -1   8   -0.06    2.49
  -5  -1   8   -0.56    3.54
  -5   1  -8    2.11    2.19
  -5   1  -8    0.70    2.94
  -6  -1   0    5.06    0.77
  -6  -1   0    5.93    0.72
  -6  -1   0    6.81    0.89
  -6   1   0    6.45    1.05
  -6   1   0    4.13    0.72
  -6   1   1  253.68   10.55
  -6   1   1  246.50   10.27
  -6  -1  -1  260.69   10.19
  -6  -1  -1  242.40   10.15
   6  -1   1  244.76   10.25
  -6  -1   1  267.13   10.53
  -6  -1   1  259.53   10.53
  -6  -1   1  268.98   10.69
  -6   1  -1  239.47   10.60
  -6   1   2   18.78    1.43
  -6   1   2   18.56    1.81
  -6  -1  -2   22.10    1.41
   6  -1   2   21.09    1.66
  -6  -1  -2   21.85    1.46
  -6  -1   2   22.57    1.44
  -6   1  -2   20.79    1.50
  -6   1  -2   20.80    1.47
  -6  -1   2   20.81    1.57
  -6   1   3  207.15    8.98
  -6   1   3  213.87    9.14
  -6  -1  -3  206.33    8.94
  -6  -1  -3  200.13    8.92
  -6   1  -3  202.58    8.59
  -6   1  -3  190.72    8.54
   6  -1   4   35.97    2.88
  -6   1   4   35.56    2.60
  -6   1   4   35.79    2.87
  -6  -1  -4   41.39    2.57
  -6  -1  -4   38.51    2.62
  -6  -1  -4   36.22    2.51
  -6   1  -4   35.47    2.55
  -6   1  -4   37.31    2.59
  -6  -1  -5   81.66    4.65
  -6  -1  -5   76.78    4.54
  -6   1   5   92.27    5.21
  -6  -1  -5   78.72    4.54
  -6   1   5   81.37    4.73
  -6   1  -5   79.43    4.48
  -6   1  -5   78.58    4.51
  -6   1  -5   76.16    4.49
  -6  -1  -6   25.29    3.01
  -6   1   6   20.99    3.05
  -6  -1  -6   20.01    2.69
  -6   1   6   22.06    2.85
  -6   1  -6   20.74    2.85
  -6   1  -6   26.36    3.68
  -6   1  -6   23.58    2.83
  -6  -1  -7   30.09    3.76
  -6  -1  -7   28.87    4.03
  -6   1   7   23.49    3.43
  -6  -1  -7   32.49    4.00
  -6   1   7   25.68    3.93
  -6   1  -7   21.44    3.27
  -6   1  -7   31.00    3.76
  -6  -1  -8    9.89    3.24
  -6   1   8    9.48    3.08
  -6  -1  -8    8.93    2.77
  -6   1   8    2.22    4.13
  -6  -1   8   12.28    4.45
  -6   1  -8    8.52    3.26
  -6  -1   8    8.47    2.87
  -6   1  -8    8.08    2.72
  -7   1   0   20.02    1.42
  -7  -1   0   19.77    1.45
  -7  -1   0   19.19    1.28
  -7  -1   0   16.95    1.58
  -7   1   0   20.36    1.66
  -7   1   1    5.65    1.14
  -7  -1  -1    9.14    0.93
  -7  -1  -1    9.41    0.83
  -7  -1   1    6.51    1.07
  -7  -1   1    6.44    0.78
  -7  -1   1    5.75    0.95
   7  -1   2    8.47    1.28
  -7  -1  -2    8.54    1.05
  -7   1   2    9.01    1.06
  -7  -1  -2    7.64    0.93
  -7   1   2    6.70    1.22
  -7  -1   2   10.88    1.39
  -7   1  -2    8.44    1.08
  -7  -1   2    8.83    0.99
  -7   1  -2    9.81    1.09
  -7   1   3   26.74    2.35
  -7  -1  -3   33.45    2.13
   7  -1   3   26.04    2.36
  -7  -1  -3   30.11    2.05
  -7   1   3   26.18    2.02
  -7  -1   3   27.65    2.29
  -7   1  -3   35.02    2.20
  -7   1  -3   33.54    2.16
  -7  -1   3   27.76    2.04
  -7  -1  -4    5.81    1.25
  -7  -1  -4    6.93    1.37
  -7   1   4    7.89    1.78
  -7   1   4    4.87    1.21
   7  -1   4    7.13    1.73
  -7   1  -4    7.02    1.36
  -7   1  -4    6.89    1.36
  -7  -1  -5   31.23    2.69
  -7   1   5   30.26    3.26
  -7  -1  -5   33.79    2.76
  -7   1  -5   33.06    2.85
  -7   1  -5   33.63    3.27
  -7   1  -5   32.28    2.76
  -7  -1  -6    0.61    1.37
  -7   1   6   -3.45    2.05
  -7  -1  -6    0.47    1.49
  -7   1   6   -0.10    1.45
  -7  -1  -6    1.93    1.90
  -7  -1   6    1.35    1.91
  -7  -1   6    2.26    1.68
  -7   1  -6    1.71    2.21
  -7   1  -6    0.87    1.48
  -7   1  -6    0.62    1.67
  -7   1   7   13.05    2.84
  -7  -1  -7   16.01    3.03
  -7   1   7   15.46    3.63
  -7  -1  -7   13.46    2.63
  -7  -1  -7   17.67    3.66
  -7   1  -7   17.00    2.84
  -7  -1   7   14.99    2.76
  -7  -1   7   18.57    3.90
  -7   1  -7   16.22    2.99
  -7   1   8    0.24    2.47
  -7  -1  -8    0.20    2.83
  -7  -1  -8   -0.88    2.77
  -7  -1  -8   -0.21    7.88
  -7   1   8    8.89    4.43
  -7   1  -8   -0.53    2.57
  -7  -1   8    2.48    4.38
  -7   1  -8    2.46    3.12
  -7  -1   8   -0.36    2.44
  -8   1   0    6.48    0.97
  -8  -1   0    6.70    0.97
  -8  -1   0    7.08    0.83
  -8  -1  -1  100.98    4.33
  -8  -1  -1  100.18    4.37
  -8   1   1   95.01    4.45
  -8   1   1   87.16    5.29
  -8  -1   1   96.67    4.54
  -8  -1   1  101.38    4.97
  -8   1  -1  102.14    4.72
  -8   1  -1  103.84    4.68
  -8  -1   1  107.64    5.10
  -8   1   2   15.31    1.96
  -8  -1  -2   19.25    1.46
  -8  -1  -2   17.08    1.39
  -8   1   2   15.69    1.43
  -8   1  -2   16.45    1.45
  -8  -1   2   18.08    1.78
  -8   1  -2   16.57    1.36
  -8  -1   2   14.23    1.31
  -8   1   3   55.36    3.27
   8  -1   3   62.74    3.71
  -8  -1  -3   63.78    3.37
  -8  -1  -3   59.08    3.28
  -8   1   3   58.41    3.67
  -8   1  -3   58.38    3.26
  -8   1  -3   60.30    3.31
  -8  -1   3   55.40    3.15
  -8  -1   3   57.30    3.51
  -8   1   4   35.86    3.16
  -8  -1  -4   32.96    2.54
  -8   1   4   34.32    2.55
  -8  -1  -4   33.81    2.63
  -8   1  -4   33.31    2.56
  -8   1  -4   35.93    2.65
  -8  -1   4   30.58    2.42
  -8  -1   4   34.02    3.04
  -8  -1  -5   44.59    3.46
  -8   1   5   49.14    3.57
  -8   1   5   51.83    4.20
  -8  -1  -5   50.62    3.56
  -8  -1   5   51.79    4.19
  -8  -1   5   44.39    3.42
  -8   1  -5   46.68    3.50
  -8   1  -5   47.76    3.56
  -8   1  -5   43.78    4.87
  -8   1   6   28.40    3.32
  -8  -1  -6   28.26    3.37
  -8  -1  -6   26.77    3.35
  -8  -1  -6   34.48    3.73
  -8  -1   6   24.34    3.23
  -8  -1   6   32.22    4.31
  -8   1  -6   28.88    3.24
  -8   1  -6   27.21    3.46
  -8   1  -6   27.46    3.44
  -8  -1  -7   32.10    4.21
  -8   1   7   28.86    4.55
  -8   1   7   30.91    3.85
  -8  -1  -7   37.47    4.35
  -8  -1  -7   33.86    4.54
  -8   1  -7   39.65    4.39
  -8  -1   7   29.33    3.80
  -8  -1   7   29.39    4.63
  -8   1  -7   32.37    4.19
  -8  -1  -8   11.79    3.33
  -8  -1  -8    9.53    3.31
  -8   1   8   24.28    5.76
  -8   1   8    9.26    3.21
  -8  -1   8   11.87    3.12
  -8   1  -8   12.07    3.71
  -8   1  -8   13.00    3.63
  -8  -1   8   17.69    5.64
  -9  -1   0   91.54    4.28
  -9  -1   0   99.26    4.43
  -9   1   0   93.88    4.45
  -9   1   0   95.97    4.65
  -9  -1  -1   13.04    1.30
  -9   1   1   17.02    2.20
  -9   1   1   12.26    1.30
  -9  -1  -1   13.87    1.16
  -9   1  -1   16.14    1.49
  -9  -1   1   12.35    1.24
  -9   1  -1   14.56    1.32
  -9  -1   1   15.79    2.04
  -9  -1  -2   60.23    3.22
  -9   1   2   63.15    3.28
  -9   1   2   61.19    3.84
  -9  -1  -2   64.43    3.25
  -9   1  -2   65.04    3.42
  -9   1  -2   66.84    3.45
  -9  -1   2   69.23    3.83
  -9  -1   2   63.02    3.30
  -9  -1  -3    4.98    1.12
  -9  -1  -3    5.81    1.15
  -9   1   3    4.44    1.02
  -9   1   3    6.92    1.67
  -9   1  -3    7.11    1.29
  -9   1  -3    5.75    1.05
  -9  -1   3    5.91    1.49
  -9  -1   3    4.54    1.00
  -9  -1  -4   12.76    1.80
  -9  -1  -4   11.06    1.66
  -9   1   4   14.55    2.37
  -9   1   4   11.44    1.70
  -9   1  -4   14.73    1.91
  -9  -1   4   16.59    1.80
  -9  -1   4   15.58    2.39
  -9   1  -4   17.25    2.17
  -9  -1  -5    2.89    1.49
  -9  -1  -5    2.08    1.32
  -9   1   5    0.84    1.92
  -9   1   5    3.18    1.51
  -9  -1   5    2.59    1.33
  -9  -1   5    1.76    2.06
  -9   1  -5    1.53    1.51
  -9   1  -5    1.61    1.59
  -9   1  -5    3.08    1.50
  -9  -1  -6    0.42    2.11
  -9   1   6    0.53    1.80
  -9   1   6    0.74    2.81
  -9  -1  -6    3.29    1.92
  -9  -1  -6    1.51    1.75
  -9   1  -6    5.50    2.24
  -9   1  -6    0.85    1.56
  -9   1  -6    1.67    2.28
  -9  -1   6    1.05    2.82
  -9  -1   6    4.65    1.85
  -9   1   7   -1.14    2.09
  -9   1   7    0.88    3.82
  -9  -1  -7    0.80    2.48
  -9  -1  -7    0.75    3.33
  -9  -1  -7    0.09    2.44
  -9   1  -7    2.50    2.84
  -9  -1   7    2.08    4.03
  -9   1  -7    4.23    2.32
  -9   1  -7    2.25    3.71
  -9  -1   7    0.98    2.18
  -9   1   8    0.93    2.76
  -9  -1  -8    0.42    3.27
  -9   1   8   13.82    5.80
  -9  -1  -8    4.05    5.68
  -9  -1  -8    2.93    3.03
  -9  -1   8    0.91    2.83
  -9   1  -8   -3.16    3.29
  -9  -1   8    0.76    5.48
  -9   1  -8    7.25    3.30
 -10   1   0  114.28    5.27
 -10  -1   0  111.18    5.09
 -10   1   0  114.86    5.44
 -10  -1   0  118.59    5.24
 -10  -1  -1   14.68    1.26
 -10  -1  -1   15.42    1.50
 -10   1   1   15.18    1.52
 -10   1   1   19.01    2.45
 -10   1  -1   17.39    1.63
 -10   1  -1   15.76    1.47
 -10  -1   1   16.83    1.49
 -10  -1   1   20.95    2.32
 -10   1   2  123.39    6.36
 -10  -1  -2  118.62    5.59
 -10   1   2  120.46    5.66
 -10  -1  -2  122.15    5.60
 -10   1  -2  119.77    5.64
 -10   1  -2  125.65    5.64
 -10  -1   2  120.03    5.48
 -10  -1   2  111.04    6.42
 -10   1   3   12.79    2.16
 -10  -1  -3    9.26    1.43
 -10  -1  -3   15.00    1.83
 -10   1   3    9.46    1.44
 -10   1  -3    8.77    1.43
 -10  -1   3   13.47    2.13
 -10   1  -3   12.69    1.68
 -10  -1   3    8.91    1.35
 -10   1   4   97.48    5.90
 -10  -1  -4   94.92    5.21
 -10  -1  -4   98.94    5.26
 -10  -1   4  101.43    5.74
 -10   1  -4   86.49    5.06
 -10   1  -4   92.97    5.10
 -10  -1   4   92.59    4.93
 -10  -1  -5    1.35    1.56
 -10  -1  -5    3.71    1.66
 -10  -1  -5    1.60    1.61
 -10   1   5    1.46    2.31
 -10   1   5    0.26    1.34
 -10  -1   5    6.04    2.55
 -10   1  -5   -1.05    1.36
 -10   1  -5    1.50    1.74
 -10  -1   5    0.27    1.30
 -10   1  -5    0.48    1.57
 -10   1   6   47.94    4.15
 -10  -1  -6   46.69    4.26
 -10  -1  -6   41.69    4.25
 -10  -1  -6   52.97    4.75
 -10   1   6   45.74    6.17
 -10   1  -6   43.49    4.36
 -10   1  -6   48.13    4.87
 -10   1  -6   38.50    4.15
 -10  -1   6   44.74    4.08
 -10   1   7   -2.99    2.18
 -10   1   7    2.70    4.47
 -10  -1  -7    1.99    2.73
 -10  -1  -7   -2.17    3.55
 -10  -1  -7   -0.55    2.40
 -10  -1   7   -0.84    2.23
 -10  -1   7   -4.86    4.85
 -10   1  -7    1.19    2.49
 -10   1  -7   -0.86    2.86
 -10   1  -7    3.61    4.16
 -10  -1  -8   26.68    4.94
 -10  -1  -8   19.81    4.22
 -10   1  -8   23.31    4.67
 -10   1  -8   20.79    4.41
 -11  -1   0   64.66    3.39
 -11   1   0   61.12    3.34
 -11  -1   0   64.02    3.21
 -11   1   0   67.43    3.59
 -11  -1  -1    3.33    0.75
 -11   1   1    3.68    0.95
 -11  -1  -1    3.26    0.99
 -11   1   1    3.80    1.43
 -11  -1   1    1.99    0.76
 -11   1  -1    2.70    0.79
 -11   1  -1    3.09    0.97
 -11   1   2   47.50    3.90
 -11  -1  -2   40.19    2.61
 -11  -1  -2   41.13    2.69
 -11   1   2   47.39    2.77
 -11  -1   2   44.34    2.60
 -11  -1   2   50.30    3.85
 -11   1  -2   41.58    2.68
 -11   1  -2   41.91    2.73
 -11  -1  -3    6.22    1.41
 -11  -1  -3    7.82    1.38
 -11   1   3    5.49    1.16
 -11   1   3    7.61    2.04
 -11  -1   3    7.15    1.27
 -11   1  -3    6.53    1.40
 -11   1  -3    7.31    1.51
 -11  -1   3   10.60    2.36
 -11  -1  -4   12.08    2.01
 -11   1   4   16.07    2.84
 -11  -1  -4   15.72    2.12
 -11   1   4   12.43    1.90
 -11   1  -4   12.52    1.91
 -11  -1   4   23.03    3.17
 -11  -1   4   12.21    1.85
 -11   1  -4   11.47    2.02
 -11  -1  -5    3.85    1.79
 -11   1   5    0.45    2.74
 -11  -1  -5    4.49    1.99
 -11   1   5    4.06    1.74
 -11  -1  -5    1.90    1.72
 -11   1  -5    6.95    2.36
 -11   1  -5    5.61    2.05
 -11  -1   5    2.13    2.81
 -11  -1   5    5.79    1.68
 -11   1   6    4.11    2.16
 -11  -1  -6    4.34    2.35
 -11   1   6    1.28    3.81
 -11  -1  -6    2.23    2.57
 -11  -1  -6    5.18    2.16
 -11   1  -6    3.01    2.17
 -11  -1   6    0.77    1.90
 -11   1  -6    3.50    2.27
 -11   1  -6    5.17    3.06
 -11  -1  -7    1.97    2.70
 -11   1   7   -2.38    5.20
 -11   1   7    5.65    2.64
 -11  -1  -7   -5.44    3.95
 -11  -1  -7    2.32    2.81
 -11   1  -7    7.06    4.89
 -11   1  -7    1.87    2.93
 -11   1  -7    4.45    2.78
 -11  -1   7    2.70    2.49
 -12  -1   0   59.37    3.08
 -12   1   0   57.12    3.22
 -12   1   0   60.39    3.52
 -12  -1   0   60.55    3.42
 -12  -1  -1   80.81    4.10
 -12   1   1   87.59    4.87
 -12  -1  -1   86.75    4.28
 -12   1   1   83.39    4.36
 -12  -1   1   84.27    4.24
 -12  -1   1   91.37    4.75
 -12   1  -1   86.88    4.47
 -12   1  -1   82.64    4.29
 -12  -1  -2   38.86    2.66
 -12  -1  -2   36.99    2.49
 -12   1   2   35.98    2.54
 -12   1   2   35.15    4.08
 -12   1  -2   40.43    2.76
 -12  -1   2   35.13    4.11
 -12  -1   2   39.17    2.55
 -12   1  -2   39.23    2.64
 -12  -1  -3   44.50    3.31
 -12   1   3   51.82    3.62
 -12   1   3   60.20    4.90
 -12  -1  -3   49.13    3.24
 -12  -1   3   52.43    3.43
 -12  -1   3   59.10    4.83
 -12   1  -3   50.09    3.42
 -12   1  -3   52.02    3.43
 -12   1   4   28.03    3.86
 -12  -1  -4   21.41    2.64
 -12   1   4   20.86    2.34
 -12  -1  -4   16.97    2.41
 -12   1  -4   13.62    2.97
 -12  -1   4   22.81    2.41
 -12   1  -4   17.41    2.36
 -12  -1  -5   22.80    3.14
 -12  -1  -5   16.25    2.66
 -12   1   5   27.35    4.37
 -12   1   5   21.97    2.93
 -12  -1  -5   21.45    3.11
 -12  -1   5   21.20    2.68
 -12   1  -5   16.20    2.71
 -12   1  -5   15.49    2.62
 -12   1   6   14.36    5.07
 -12  -1  -6    8.35    2.79
 -12  -1  -6   10.23    3.19
 -12  -1  -6    7.73    2.59
 -12   1   6   11.49    2.68
 -12   1  -6   10.25    2.88
 -12   1  -6    8.83    2.66
 -12   1  -6   13.59    3.79
 -12  -1   6    8.14    2.43
 -12  -1  -7   11.44    4.83
 -12   1   7    2.87    2.72
 -12  -1  -7    7.58    3.46
 -12  -1  -7    4.27    3.18
 -12   1  -7    5.01    3.03
 -12   1  -7   15.13    5.64
 -12   1  -7   12.36    3.71
 -12  -1   7    6.07    2.72
 -13   1   0    0.32    0.71
 -13  -1   0   -0.63    0.66
 -13  -1   0   -0.10    1.12
 -13   1   0    1.17    1.27
 -13   1   1    8.45    1.38
 -13   1   1    6.73    1.78
 -13  -1  -1    8.41    1.23
 -13  -1  -1   13.12    1.65
 -13   1  -1   10.52    1.73
 -13  -1   1    9.70    1.83
 -13  -1   1    9.32    1.25
 -13   1   2    3.21    2.35
 -13  -1  -2    1.41    0.93
 -13  -1  -2    3.45    1.28
 -13   1  -2    2.45    1.18
 -13  -1   2    1.69    1.01
 -13   1  -2    3.06    1.16
 -13  -1  -3   18.49    2.34
 -13   1   3   22.66    3.77
 -13   1   3   18.16    2.21
 -13  -1  -3   19.35    2.25
 -13   1  -3   18.13    2.30
 -13   1  -3   18.55    2.29
 -13  -1   3   13.69    1.86
 -13   1   4    3.90    3.25
 -13   1   4    1.00    1.44
 -13  -1  -4    3.69    1.63
 -13  -1  -4    3.02    1.85
 -13   1  -4   -0.37    1.45
 -13   1  -4    1.30    1.69
 -13  -1   4    0.89    1.30
 -13  -1  -5   13.82    2.63
 -13  -1  -5   15.42    2.93
 -13  -1  -5   14.73    2.91
 -13   1   5   14.01    2.38
 -13   1  -5   12.50    2.58
 -13  -1   5   13.07    2.34
 -13   1  -5   15.04    2.78
 -13  -1  -6    5.26    2.66
 -13  -1  -6    0.65    2.79
 -13   1   6    0.77    2.07
 -13  -1  -6   -4.31    2.97
 -13   1  -6    2.85    2.81
 -13  -1   6    4.30    2.34
 -13   1  -6    1.49    2.55
 -13   1  -6   -1.26    3.48
 -13   1   7    6.17    2.92
 -13  -1  -7    8.76    3.51
 -13  -1  -7   19.43    5.71
 -13  -1  -7    9.11    3.70
 -13   1  -7    5.93    3.50
 -13   1  -7   12.93    6.15
 -13  -1   7    8.16    3.07
 -13   1  -7    3.85    3.53
 -14   1   0   11.33    1.83
 -14  -1   0    7.08    1.89
 -14   1   0    8.17    1.35
 -14  -1   0   10.08    1.81
 -14  -1  -1   50.94    3.16
 -14   1   1   56.73    3.33
 -14   1   1   57.18    4.04
 -14  -1  -1   54.63    3.61
 -14  -1   1   46.70    3.88
 -14   1  -1   50.00    3.43
 -14   1  -1   51.34    3.17
 -14  -1  -2    8.43    1.76
 -14   1   2   11.91    2.85
 -14   1   2    6.86    1.52
 -14  -1  -2    5.85    1.39
 -14   1  -2    6.62    1.67
 -14   1  -2    5.26    1.40
 -14  -1   2    8.46    1.55
 -14  -1  -3   39.62    3.13
 -14  -1  -3   42.14    3.42
 -14   1   3   41.58    3.25
 -14   1  -3   42.94    3.29
 -14  -1   3   42.25    3.19
 -14  -1  -4    3.26    2.22
 -14  -1  -4    6.08    1.78
 -14   1   4    6.40    1.84
 -14   1  -4    4.11    1.80
 -14  -1   4    9.54    1.85
 -14   1  -4    4.95    2.01
 -14  -1  -5   27.87    3.75
 -14   1   5   28.63    3.51
 -14  -1  -5   25.13    3.73
 -14  -1  -5   28.11    3.61
 -14   1  -5   24.48    3.40
 -14   1  -5   31.84    3.92
 -14  -1   5   29.37    3.50
 -14  -1  -6    1.55    3.44
 -14   1   6    4.91    2.45
 -14  -1  -6    2.46    2.71
 -14  -1  -6    6.29    3.17
 -14   1  -6    1.35    2.80
 -14   1  -6   -1.17    2.86
 -14   1  -6    1.94    4.01
 -14  -1   6    3.72    2.40
 -15   1   0   14.87    2.23
 -15   1   0   12.15    1.71
 -15  -1   0   14.82    1.77
 -15   1   1    1.39    1.11
 -15   1   1    3.46    1.97
 -15  -1  -1    3.18    1.18
 -15  -1   1    2.65    1.06
 -15   1  -1    2.57    1.59
 -15   1  -1    2.22    1.22
 -15   1   2    8.42    1.73
 -15  -1  -2    8.85    1.96
 -15  -1  -2    6.50    1.47
 -15  -1   2   10.17    1.67
 -15   1  -2    9.55    1.80
 -15   1  -2   10.00    1.91
 -15  -1  -3    8.50    2.95
 -15   1   3    4.11    1.68
 -15  -1  -3    4.30    1.53
 -15  -1   3    4.01    1.63
 -15   1  -3    6.80    1.78
 -15   1  -3    6.37    2.08
 -15  -1  -4    1.37    2.27
 -15  -1  -4    1.72    1.83
 -15   1   4    3.38    1.74
 -15   1  -4    0.86    1.78
 -15   1  -4    0.73    2.18
 -15  -1   4    3.46    1.79
 -15  -1  -5    3.75    2.77
 -15  -1  -5    3.26    2.74
 -15   1   5    0.46    2.09
 -15  -1  -5    2.95    2.32
 -15  -1   5    2.41    2.10
 -15   1  -5    6.77    2.83
 -15   1  -5    4.37    2.54
 -15  -1  -6    4.08    4.04
 -15   1   6    2.97    2.69
 -15  -1  -6   -1.37    3.37
 -15  -1  -6    2.30    2.76
 -15   1  -6    0.05    2.78
 -15   1  -6    1.72    4.31
 -15   1  -6    1.77    3.17
 -15  -1   6    3.90    2.73
 -16  -1   0   13.33    1.80
 -16   1   0   15.89    2.11
 -16   1   1    7.71    1.50
 -16  -1  -1    5.51    1.47
 -16  -1   1    3.80    1.26
 -16   1  -1    4.65    1.80
 -16   1  -1    6.10    1.44
 -16   1   2   17.82    2.39
 -16  -1  -2   18.12    2.46
 -16  -1   2   19.91    2.35
 -16   1  -2   16.15    2.35
 -16   1  -2   17.41    2.62
 -16   1   3    0.45    1.66
 -16  -1  -3    2.79    1.68
 -16  -1  -3    4.45    2.40
 -16  -1   3    1.90    1.66
 -16   1  -3    1.53    2.24
 -16   1  -3    2.96    1.83
 -16   1   4   19.44    2.87
 -16  -1  -4   28.20    3.65
 -16  -1  -4   25.51    3.42
 -16   1  -4   25.96    3.56
 -16  -1   4   18.74    2.83
 -16   1  -4   26.79    3.41
 -16   1   5    1.69    2.37
 -16  -1  -5    0.98    3.23
 -16  -1  -5   -0.06    2.92
 -16  -1  -5    3.05    2.65
 -16   1  -5    4.45    2.52
 -16  -1   5    3.29    2.45
 -16   1  -5   -0.02    3.26
 -17   1   0   13.92    2.05
 -17  -1   0   17.14    2.22
 -17  -1  -1    3.40    1.54
 -17   1   1    1.74    1.41
 -17   1  -1    1.86    1.45
 -17  -1   1    1.71    1.36
 -17   1   2    7.74    1.80
 -17  -1  -2   13.02    2.21
 -17   1  -2    6.54    1.88
 -17   1  -2   10.91    2.85
 -17  -1   2    7.95    1.67
 -17   1   3    1.89    1.69
 -17  -1  -3    3.25    1.93
 -17   1  -3    0.81    2.56
 -17   1  -3    1.29    1.89
 -17  -1   3    1.79    1.58
 -17  -1  -4    1.63    2.28
 -17   1   4    2.39    2.35
 -17  -1   4    6.70    2.39
 -17   1  -4    7.05    2.50
 -17   1  -4    4.74    3.16
 -17  -1  -5   -3.85    2.43
 -18  -1   0   30.47    3.01
 -18   1   0   23.99    3.01
 -18   1   1    6.44    1.76
 -18  -1  -1    3.25    1.83
 -18   1  -1    3.69    1.81
 -18  -1   1    6.78    1.75
 -18   1   2   25.59    3.03
 -18  -1  -2   25.16    3.05
 -18  -1   2   27.96    2.97
 -18   1  -2   24.30    3.08
 -18  -1  -3    1.25    2.21
 -18   1   3   -2.33    1.74
 -18   1  -3    9.09    2.37
 -18  -1   3    2.30    1.84
 -18  -1  -4    7.34    2.93
 -18   1   4   14.45    2.71
 -18  -1   4   21.13    2.88
 -18   1  -4   13.73    3.17
 -19  -1   0    1.32    1.75
 -19   1   0    1.92    1.77
 -19  -1  -1    3.35    1.93
 -19   1   1    4.14    1.88
 -19   1  -1    4.54    2.18
 -19  -1   1    3.30    1.86
 -19   1   2    0.61    1.91
 -19  -1  -2    4.55    2.25
 -19   1  -2    1.48    2.14
 -19  -1   2    2.16    1.83
 -19   1   3    3.64    2.10
 -19  -1  -3    3.76    2.70
 -19   1  -3    2.02    2.54
 -19  -1   3    1.84    1.94
 -20   1   0   -1.46    1.98
 -20  -1   0    0.94    2.09
 -20  -1  -1   30.92    3.53
 -20   1   1   37.10    3.80
 -20   1  -1   24.53    3.19
 -20  -1   1   25.34    3.40
   0   2   0  205.09    8.87
   0  -2   0  251.43    8.81
   0   2   0  210.90    8.79
   0  -2  -1   -0.11    0.17
   0  -2  -1   -0.05    0.20
   0   2  -1   -0.02    0.18
   0  -2  -1    0.09    0.17
   0   2  -1    0.14    0.14
   0   2  -1    0.21    0.16
   0  -2   1   -0.20    0.22
   0   2  -2  218.50    8.71
   0  -2   2  203.80    8.86
   0   2  -2  214.94    8.65
   0   2  -2  215.82    8.71
   0  -2  -2  213.01    8.79
   0  -2  -2  213.96    8.74
   0   2  -3    0.48    0.44
   0   2  -3    0.12    0.44
   0  -2   3   -0.85    0.54
   0  -2  -3   -0.18    0.45
   0   2  -3    0.11    0.48
   0  -2  -3    0.16    0.39
   0  -2  -3    0.15    0.45
   0  -2  -4  128.80    6.12
   0  -2  -4  139.08    6.12
   0   2  -4  127.13    6.02
   0  -2   4  142.44    6.49
   0  -2  -4  131.32    6.05
   0   2  -4  137.13    6.05
   0  -2  -5   -0.19    0.98
   0  -2  -5   -0.86    0.76
   0  -2   5    1.28    0.99
   0   2  -5    0.24    0.73
   0   2  -5    2.52    0.94
   0  -2  -5   -0.18    0.87
   0   2  -5    0.28    1.16
   0  -2  -6   64.51    4.10
   0  -2  -6   60.68    3.81
   0   2  -6   63.19    3.95
   0  -2  -7    0.36    1.83
   0   2  -7    2.37    1.46
   0  -2  -7    0.63    1.48
   0   2  -7    0.56    1.83
   0   2  -8   18.20    3.01
   0   2  -8    4.48    5.42
   0  -2  -8   16.69    2.90
   0   2   9    1.43    3.72
   0   2   9   -2.37    3.74
  -1  -2   0  179.95    7.06
   1  -2   0  188.47    7.27
  -1  -2   0  180.23    7.06
  -1  -2   0  185.46    7.07
  -1   2   0  165.61    7.22
  -1   2   1  297.24   11.59
   1   2  -1  277.33   11.42
  -1   2   1  304.41   11.65
   1  -2   1  296.17   11.65
  -1  -2  -1  285.67   11.52
  -1  -2  -1  288.15   11.52
  -1  -2  -1  275.60   11.48
  -1   2  -1  268.26   10.84
  -1  -2   1  273.68   10.74
  -1  -2   1  293.74   10.82
   1  -2  -1  268.86   10.89
   1  -2  -1  263.70   10.90
  -1   2  -1  266.49   10.84
   1  -2  -1  268.69   10.86
  -1  -2  -2  129.97    5.93
  -1  -2  -2  142.07    5.89
   1   2  -2  147.18    5.80
   1   2  -2  143.09    5.81
   1  -2   2  135.81    6.04
  -1   2  -2  142.40    5.93
   1  -2  -2  142.88    5.98
   1  -2  -2  139.16    5.94
  -1   2  -2  146.74    5.95
  -1   2  -2  140.87    5.88
  -1  -2   2  137.12    6.01
   1  -2   3  105.15    5.09
  -1  -2  -3  110.83    4.85
  -1  -2  -3  107.12    4.89
   1   2  -3  108.27    4.78
   1   2  -3  110.17    4.71
  -1  -2  -3  107.93    4.88
  -1  -2   3  107.73    5.06
   1  -2  -3  114.26    4.89
   1  -2  -3  113.10    4.89
  -1   2  -3  105.87    4.85
  -1   2  -3  101.87    4.84
  -1   2  -3  111.51    4.78
   1  -2  -3  106.59    4.89
   1   2  -4   96.75    4.49
   1  -2   4   94.11    4.95
   1   2  -4   95.38    4.56
  -1  -2  -4   93.43    4.63
   1   2  -4  100.11    4.54
  -1  -2  -4  101.32    4.73
  -1  -2  -4   98.03    4.73
  -1   2  -4   92.31    4.45
  -1   2  -4   93.31    4.58
  -1   2  -4  101.95    4.62
   1  -2  -4   93.08    4.62
   1  -2  -4   97.25    4.54
   1  -2  -4   95.95    4.59
  -1  -2   4   94.84    4.88
   1  -2   5   10.43    1.80
  -1  -2  -5   10.62    1.54
   1   2  -5   10.24    1.46
  -1  -2  -5    7.83    1.38
  -1  -2  -5    9.66    1.44
   1   2  -5    8.87    1.56
   1   2  -5    6.86    1.17
  -1   2  -5   10.10    1.47
  -1   2  -5    9.21    1.46
  -1  -2   5   11.99    1.87
   1  -2  -5    8.11    1.30
   1  -2  -5    9.21    1.55
  -1   2  -5   10.17    1.46
   1  -2  -5   10.20    1.44
  -1  -2  -6   55.82    3.89
   1   2  -6   59.37    3.61
  -1  -2  -6   54.53    3.77
   1   2  -6   51.23    3.96
  -1  -2  -6   56.08    3.65
  -1   2  -6   54.82    3.59
   1  -2  -6   51.96    3.65
   1  -2  -6   61.07    3.63
  -1   2  -6   53.66    3.60
   1   2  -7   -1.35    1.77
  -1  -2  -7    0.30    1.52
  -1  -2  -7   -0.11    2.49
  -1  -2  -7    2.26    1.83
   1   2  -7    1.33    1.43
   1  -2  -7    0.31    1.42
   1  -2  -7    1.87    1.94
  -1   2  -7   -1.42    1.36
  -1  -2  -8   16.45    2.92
  -1  -2  -8   18.63    3.49
   1   2  -8   16.31    2.85
  -1   2  -8    0.84    2.85
  -1   2  -8   14.61    2.76
  -1   2   9    6.24    3.87
  -1   2   9    3.33    4.27
   1   2   9    1.93    3.71
   1   2   9    3.94    3.96
  -1   2  -9    2.02    2.94
  -2   2   0    1.64    0.31
   2  -2   0    1.11    0.35
  -2   2   0    1.06    0.46
  -2  -2  -1  395.21   15.73
  -2  -2  -1  378.96   15.72
   2  -2   1  406.26   15.93
  -2   2   1  383.59   15.82
  -2   2   1  421.04   15.93
  -2  -2   1  351.48   14.20
  -2   2  -1  355.70   14.42
   2  -2  -1  355.21   14.47
  -2  -2   1  398.32   14.21
  -2  -2   1  374.58   14.26
  -2   2  -1  335.13   14.39
  -2  -2  -2   27.49    1.71
   2   2  -2   32.36    1.49
   2  -2   2   24.30    1.73
  -2  -2  -2   33.42    1.62
  -2  -2  -2   29.81    1.60
   2   2  -2   31.33    1.51
   2  -2  -2   33.98    1.75
  -2   2  -2   32.42    1.69
  -2  -2   2   26.19    1.65
  -2   2  -2   34.61    1.74
   2  -2  -2   32.77    1.75
  -2  -2  -3  168.59    7.26
   2  -2   3  172.54    7.52
   2   2  -3  158.76    7.08
  -2  -2  -3  172.92    7.30
   2   2  -3  171.71    7.06
  -2  -2  -3  167.08    7.20
   2  -2  -3  162.12    7.30
  -2  -2   3  172.62    7.44
  -2   2  -3  167.26    7.30
  -2   2  -3  170.03    7.31
  -2   2  -3  172.11    7.23
   2  -2  -3  173.10    7.23
   2  -2  -3  170.79    7.27
  -2  -2  -4   49.88    2.80
  -2  -2  -4   50.02    2.90
   2   2  -4   53.52    2.81
  -2  -2  -4   48.93    2.83
   2   2  -4   52.55    2.72
   2   2  -4   51.90    2.73
   2  -2   4   44.51    3.05
  -2   2  -4   55.75    2.92
   2  -2  -4   48.33    2.83
  -2   2  -4   47.84    2.81
   2  -2  -4   50.22    2.90
  -2   2  -4   50.54    2.78
   2  -2  -4   50.02    2.76
  -2  -2   4   47.37    3.03
   2  -2   5   30.76    2.75
   2   2  -5   28.21    2.12
  -2  -2  -5   32.49    2.38
   2   2  -5   29.31    2.18
  -2  -2  -5   28.86    2.34
  -2  -2  -5   26.02    2.20
  -2   2  -5   27.01    2.30
   2  -2  -5   30.59    2.24
  -2   2  -5   27.23    2.24
  -2   2  -5   29.31    2.31
   2  -2  -5   29.04    2.31
   2  -2  -5   33.00    2.61
  -2  -2   5   32.75    2.71
  -2  -2  -6   26.91    2.63
  -2  -2  -6   26.51    2.50
  -2  -2  -6   32.18    2.87
  -2   2  -6   26.81    2.67
   2  -2  -6   28.11    2.64
   2  -2  -6   25.98    2.57
  -2   2  -6   27.47    2.66
   2   2  -7    5.71    1.66
  -2  -2  -7    7.19    2.10
  -2  -2  -7   -2.68    2.34
  -2  -2  -7    5.32    1.88
  -2   2  -7    5.61    2.13
  -2   2  -7    4.03    1.62
  -2   2   8    9.28    3.13
  -2  -2  -8   10.82    2.96
  -2  -2  -8    6.77    2.43
  -2   2  -8    6.01    2.32
  -2   2  -8   -3.98    2.93
  -2   2   9    7.37    3.87
  -2   2   9    4.39    4.55
  -2  -2  -9    3.37    3.06
  -2   2  -9    3.54    3.03
   2   2   9   11.37    4.44
  -3  -2   0   24.37    1.00
  -3   2   0   21.54    1.57
  -3   2   0   23.33    1.31
  -3  -2   0   22.68    1.11
  -3   2   1  138.24    5.75
  -3  -2  -1  137.41    5.61
   3  -2   1  133.80    5.84
  -3  -2  -1  131.34    5.60
  -3   2   1  145.14    5.88
  -3   2  -1  137.40    5.53
   3  -2  -1  126.12    5.54
  -3   2  -1  131.29    5.49
  -3  -2  -2    0.99    0.47
  -3  -2  -2    1.10    0.41
  -3   2  -2    0.26    0.38
  -3  -2   2    0.90    0.44
  -3   2  -2    1.16    0.42
   3  -2  -2    0.27    0.49
   3  -2   3   86.01    4.29
  -3  -2  -3   89.22    4.08
  -3  -2  -3   84.32    3.99
   3   2  -3   82.86    3.86
  -3  -2  -3   85.99    4.04
  -3   2  -3   83.90    4.06
  -3   2  -3   85.88    4.02
   3  -2  -3   87.57    4.09
  -3   2  -3   85.31    4.08
  -3  -2   3   89.18    4.17
   3  -2   4   13.35    1.76
  -3  -2  -4   12.43    1.44
   3   2  -4   13.27    1.26
  -3  -2  -4   11.49    1.38
  -3  -2  -4   14.62    1.42
   3  -2  -4   11.89    1.37
  -3  -2   4   10.29    1.49
  -3   2  -4   14.00    1.45
  -3   2  -4   15.48    1.46
  -3   2  -4   17.24    1.49
   3  -2  -4   13.61    1.73
   3   2  -5   48.92    2.91
  -3  -2  -5   49.27    3.15
   3  -2   5   46.99    3.47
  -3  -2  -5   50.53    3.17
  -3  -2  -5   46.62    3.04
   3   2  -5   46.52    2.86
  -3   2  -5   46.41    3.05
  -3   2  -5   50.61    3.14
   3  -2  -5   41.40    2.92
  -3   2  -5   48.58    3.04
  -3  -2   5   45.70    3.28
  -3  -2  -6    5.75    1.70
  -3  -2  -6    7.54    1.67
   3   2  -6    6.98    1.73
  -3   2  -6    7.18    1.72
  -3   2  -6    7.17    1.71
  -3  -2  -7   29.08    3.44
  -3  -2  -7   34.46    3.58
  -3   2  -7   30.70    3.55
  -3   2  -7   27.39    3.20
  -3  -2  -8    2.66    2.84
  -3  -2  -8    1.46    2.22
  -3   2   8    0.96    3.27
  -3   2   8    4.71    2.71
  -3   2  -8    1.12    2.05
  -3   2  -8   -3.71    2.89
  -3  -2  -9   13.42    4.39
  -3   2   9    9.34    4.01
  -3  -2  -9   10.91    3.51
  -3   2   9   25.39    5.76
  -3   2  -9   14.53    3.56
   3   2   9    9.13    4.93
  -4  -2   0   17.72    1.00
   4  -2   0   15.20    1.10
  -4   2   0   14.62    1.39
  -4  -2   0   15.03    0.83
  -4   2   1  402.57   16.21
  -4   2   1  377.36   16.01
   4  -2   1  401.35   16.13
  -4  -2  -1  414.43   15.87
  -4   2  -1  332.65   14.20
  -4   2  -1  346.12   14.26
   4  -2  -1  381.42   14.26
   4  -2   2   18.63    1.58
  -4   2   2   16.59    1.57
  -4   2   2   18.07    1.34
  -4  -2  -2   20.51    1.23
  -4  -2   2   18.33    1.24
  -4   2  -2   19.92    1.33
  -4  -2   2   18.19    1.23
   4  -2  -2   20.64    1.44
  -4   2  -2   22.18    1.37
   4  -2   3  143.04    6.62
  -4  -2  -3  144.50    6.32
  -4  -2  -3  149.29    6.39
  -4  -2  -3  138.75    6.35
  -4   2  -3  143.74    6.43
  -4  -2   3  146.24    6.46
  -4   2  -3  144.35    6.43
  -4  -2  -4   15.28    1.57
  -4  -2  -4   15.41    1.50
   4  -2   4   12.96    1.80
  -4  -2  -4   16.89    1.62
  -4   2  -4   16.30    1.65
   4  -2  -4   17.49    2.06
  -4  -2   4   14.29    1.71
  -4   2  -4   19.28    1.68
  -4   2  -4   15.13    1.60
   4  -2   5   54.77    3.89
  -4  -2  -5   56.53    3.46
  -4  -2  -5   55.39    3.42
  -4  -2  -5   53.53    3.37
  -4   2  -5   56.53    3.49
  -4   2  -5   54.43    3.39
  -4   2  -5   59.21    3.57
  -4  -2  -6    5.51    1.76
  -4  -2  -6    5.68    1.61
  -4  -2  -6    7.71    1.84
  -4   2  -6    8.04    1.89
  -4   2  -6    6.43    1.57
  -4   2  -6    7.92    1.86
  -4   2   7   26.44    3.96
  -4  -2  -7   31.58    3.53
  -4   2   7   34.27    3.83
  -4  -2  -7   29.99    3.52
  -4   2  -7   31.42    3.88
  -4   2  -7   35.52    3.68
  -4  -2  -8   -2.68    2.45
  -4  -2  -8    3.51    2.39
  -4   2   8   -2.55    3.15
  -4   2   8    0.83    2.57
  -4   2  -8    6.11    3.13
  -4   2  -8    3.81    2.25
  -4   2   9   13.03    4.01
  -4  -2  -9   13.74    3.60
  -4  -2  -9   16.02    4.41
  -4  -2   9   11.61    5.44
  -4   2  -9   22.78    4.32
   4   2   9   19.41    5.51
  -4  -2   9   18.77    4.21
  -5   2   0   47.50    2.36
  -5  -2   0   49.74    2.17
  -5  -2   0   46.80    2.06
  -5  -2   0   43.84    1.92
  -5   2   0   40.97    2.57
   5  -2   0   40.94    2.25
  -5  -2  -1  127.24    5.17
   5  -2   1  119.62    5.40
  -5  -2  -1  125.00    5.16
  -5   2   1  126.55    5.61
  -5   2   1  118.98    5.32
  -5  -2   1  124.11    4.96
  -5  -2   1  126.02    5.14
  -5   2  -1  123.98    5.53
  -5  -2   1  119.84    4.94
  -5   2  -1  120.20    5.30
  -5  -2  -2   90.91    4.34
  -5   2   2   92.92    4.30
  -5   2   2   93.18    4.45
   5  -2   2   93.02    4.45
  -5  -2  -2   96.65    4.20
  -5  -2   2   90.88    4.12
  -5  -2   2   92.55    4.14
   5  -2  -2   93.67    4.24
  -5   2  -2   97.42    4.31
  -5   2  -2   93.15    4.28
  -5  -2  -3   45.41    2.58
   5  -2   3   46.55    2.88
  -5  -2  -3   48.59    2.65
  -5   2   3   41.57    2.57
  -5   2   3   49.21    2.86
  -5   2  -3   45.15    2.60
   5  -2  -3   45.82    2.69
  -5  -2   3   46.76    2.60
  -5   2  -3   46.37    2.60
  -5  -2  -4  109.20    5.48
  -5  -2  -4  121.05    5.53
   5  -2   4  112.18    5.79
  -5   2   4  115.35    5.68
  -5   2   4  105.61    5.74
  -5  -2  -4  120.78    5.60
  -5   2  -4  108.71    5.40
   5  -2  -4  110.76    5.51
  -5   2  -4  115.82    5.56
  -5   2  -4  119.01    5.60
  -5  -2  -5   18.21    2.05
  -5   2   5   18.86    2.21
   5  -2   5   18.61    2.51
  -5  -2  -5   16.19    1.96
  -5  -2  -5   17.71    2.00
  -5   2  -5   19.02    2.14
  -5   2  -5   19.53    2.13
  -5   2  -5   19.49    2.08
  -5   2   6   57.56    4.22
  -5  -2  -6   52.41    3.97
  -5  -2  -6   58.05    4.01
  -5  -2  -6   62.94    4.13
  -5   2   6   52.94    4.49
  -5   2  -6   56.85    4.11
  -5   2  -6   56.81    3.98
  -5   2  -6   58.60    4.08
  -5   2   7   13.77    3.41
  -5   2   7    5.32    2.32
  -5  -2  -7    9.17    2.46
  -5  -2  -7    8.38    2.99
  -5  -2  -7   11.58    2.59
  -5   2  -7    9.67    2.59
  -5   2  -7    1.75    2.60
  -5   2  -7    7.10    2.28
  -5  -2  -8   19.53    3.69
  -5   2   8   20.77    3.67
  -5  -2  -8   17.56    3.29
  -5   2   8   20.98    4.71
  -5   2  -8   16.62    3.21
  -5   2  -8   19.29    3.74
  -6   2   0   31.56    2.21
  -6  -2   0   34.90    1.68
  -6   2   0   33.64    1.97
  -6  -2   0   34.87    1.77
  -6  -2   0   31.22    1.65
   6  -2   1   36.80    2.17
  -6   2   1   41.30    2.43
  -6  -2  -1   35.67    1.86
  -6   2   1   38.31    2.05
  -6  -2  -1   36.04    1.83
  -6  -2   1   40.23    2.10
  -6   2  -1   39.74    2.22
  -6  -2   1   39.86    1.91
  -6   2  -1   38.62    2.14
  -6  -2   1   39.83    1.90
   6  -2   2   67.57    3.63
  -6  -2  -2   72.31    3.38
  -6  -2  -2   74.51    3.40
  -6   2   2   67.98    3.47
  -6   2   2   73.19    3.75
  -6   2  -2   74.12    3.48
  -6  -2   2   71.16    3.38
   6  -2  -2   65.40    4.10
  -6  -2  -3   27.86    2.00
  -6   2   3   33.37    2.40
   6  -2   3   34.16    2.38
  -6   2   3   29.69    2.12
  -6  -2  -3   32.83    2.09
  -6   2  -3   27.80    1.95
  -6   2  -3   28.67    2.00
  -6  -2  -4   95.80    4.76
  -6   2   4   95.80    5.10
   6  -2   4   87.01    5.00
  -6  -2  -4   98.47    4.79
  -6  -2  -4   90.47    4.65
  -6   2   4   86.47    4.79
  -6   2  -4   94.04    4.86
  -6   2  -4   94.85    4.90
  -6  -2  -5    7.15    1.42
  -6  -2  -5    8.66    1.64
  -6   2   5    7.92    1.61
  -6   2   5    6.26    1.72
  -6  -2  -5    8.58    1.74
   6  -2   5    7.71    1.94
  -6   2  -5    8.05    1.61
  -6   2  -5    6.28    1.38
  -6   2  -5    9.73    1.72
  -6  -2  -6   52.60    4.11
  -6  -2  -6   49.58    3.78
  -6  -2  -6   52.13    3.95
  -6   2   6   49.81    4.06
  -6   2   6   59.80    5.73
  -6   2  -6   51.98    4.00
  -6   2  -6   52.15    4.06
  -6   2  -6   53.71    4.05
  -6   2   7   -0.64    2.74
  -6   2   7    1.46    1.95
  -6  -2  -7   -0.55    2.10
  -6  -2  -7    1.33    1.85
  -6  -2  -7    2.51    2.76
  -6   2  -7    2.69    2.97
  -6   2  -7   -1.99    2.00
  -6   2   8   18.57    3.55
  -6  -2  -8   -0.17    4.70
  -6  -2  -8   17.74    3.41
  -6   2   8   15.67    4.59
  -6  -2  -8   12.51    3.28
  -6   2  -8   13.72    3.09
  -6  -2   8   17.20    4.63
  -6  -2   8   15.43    3.42
  -6   2  -8   14.88    3.70
  -7  -2   0  226.32    8.69
  -7   2   0  195.56    9.11
  -7  -2   0  208.73    8.60
  -7  -2   0  218.11    8.67
  -7   2   0  199.78    8.91
  -7   2   1    5.58    1.20
  -7  -2  -1    8.31    0.88
  -7  -2  -1    8.28    0.77
  -7   2   1    8.28    0.96
   7  -2   1    6.92    1.19
  -7  -2   1    7.63    0.78
  -7  -2   1    9.11    1.17
  -7   2  -1    8.88    1.03
  -7   2  -1    7.25    0.99
   7   2   1    8.32    1.30
  -7  -2   1    7.45    1.00
  -7  -2  -2  177.48    7.34
  -7   2   2  170.78    7.76
  -7  -2  -2  162.90    7.30
   7  -2   2  177.11    8.51
  -7   2   2  168.15    7.46
  -7  -2   2  169.97    7.22
  -7  -2   2  172.48    7.34
  -7   2  -2  165.96    7.42
  -7  -2   2  175.60    7.37
  -7   2  -2  168.66    7.45
  -7   2   3    2.41    0.97
  -7  -2  -3    2.24    0.80
   7  -2   3    0.31    1.09
  -7   2   3    1.88    0.78
  -7  -2  -3    1.27    0.67
  -7   2  -3    1.23    0.77
  -7   2  -3    2.68    0.81
  -7  -2  -4   90.76    4.80
  -7  -2  -4   95.44    4.88
  -7  -2  -4   94.18    4.81
  -7   2   4   88.58    4.85
   7  -2   4   96.39    5.17
  -7   2   4   97.00    5.30
  -7   2  -4   93.62    4.95
  -7   2  -4   94.34    4.93
   7  -2   5    1.15    1.70
  -7  -2  -5    1.12    1.13
  -7  -2  -5    2.11    1.14
  -7   2   5   -1.75    1.49
  -7   2  -5   -0.18    1.03
  -7   2  -5    0.54    1.36
  -7   2  -5   -0.18    1.18
  -7  -2  -6   38.75    3.61
  -7  -2  -6   44.16    3.94
  -7   2   6   41.92    3.80
  -7  -2  -6   48.22    3.87
  -7   2  -6   43.21    3.85
  -7   2  -6   38.70    3.61
  -7   2   7    3.73    2.11
  -7   2   7    6.17    3.16
  -7  -2  -7   -1.88    2.07
  -7  -2  -7    3.16    2.19
  -7  -2  -7   -2.19    2.81
  -7   2  -7    2.78    1.98
  -7   2  -7    2.40    2.42
  -7  -2   7    0.67    3.09
  -7  -2   7    0.60    2.01
  -7   2  -7    4.59    3.30
  -7   2   8   17.80    5.10
  -7   2   8   12.13    3.25
  -7  -2  -8    9.74    3.44
  -7  -2  -8    5.92    4.94
  -7  -2  -8   11.46    3.19
  -7  -2   8    8.06    3.17
  -7   2  -8   12.49    3.74
  -7  -2   8    8.72    4.84
  -7   2  -8   18.43    3.49
  -8  -2   0  128.26    5.34
  -8   2   0  119.27    5.56
  -8  -2   0  127.61    5.48
  -8  -2   0  119.18    5.24
  -8   2   0  119.80    5.78
  -8  -2  -1  132.82    5.63
  -8   2   1  131.49    6.43
  -8  -2  -1  126.33    5.58
  -8   2   1  131.90    5.89
  -8  -2   1  133.45    5.78
  -8   2  -1  129.72    5.91
  -8  -2   1  139.00    6.02
  -8  -2   1  126.62    5.62
  -8   2  -1  130.63    5.96
  -8   2   2   99.69    5.01
   8  -2   2   94.32    4.69
  -8  -2  -2   88.10    4.33
  -8  -2  -2   99.89    4.43
  -8   2   2   89.40    4.48
  -8  -2   2   95.42    4.57
  -8  -2   2   88.83    4.26
  -8   2  -2   91.29    4.52
  -8  -2   2   96.74    4.57
  -8   2  -2   96.17    4.53
   8  -2   3   63.26    3.85
  -8  -2  -3   60.24    3.33
  -8   2   3   60.54    3.39
  -8  -2  -3   53.58    3.25
  -8   2   3   65.37    3.90
  -8  -2   3   59.55    3.18
  -8  -2   3   56.65    3.63
  -8   2  -3   57.91    3.28
  -8   2  -3   56.69    3.30
  -8  -2  -4   60.90    3.55
  -8   2   4   61.12    4.01
  -8  -2  -4   49.65    3.36
  -8   2   4   53.46    3.44
  -8  -2   4   54.55    3.37
  -8   2  -4   54.06    3.47
  -8   2  -4   54.22    3.51
  -8  -2   4   59.87    3.84
  -8   2   5   10.88    1.93
  -8   2   5    9.78    2.31
  -8  -2  -5   11.09    1.96
  -8  -2  -5    6.09    1.95
  -8  -2  -5   12.76    2.00
  -8   2  -5    9.31    2.00
  -8   2  -5   10.85    1.91
  -8  -2   5   13.22    2.54
  -8  -2   5   10.84    1.91
  -8   2   6   21.11    2.90
  -8   2   6   28.95    3.89
  -8  -2  -6   30.63    3.36
  -8  -2  -6   27.94    3.42
  -8  -2  -6   23.96    3.16
  -8   2  -6   24.51    3.13
  -8  -2   6   35.13    4.26
  -8   2  -6   28.99    3.78
  -8  -2   6   19.89    2.86
  -8   2  -6   31.32    3.55
  -8   2   7    5.95    3.69
  -8  -2  -7    2.72    2.28
  -8  -2  -7    2.23    2.33
  -8   2   7    3.16    2.24
  -8  -2  -7   -0.36    2.97
  -8   2  -7    0.09    1.95
  -8  -2   7    2.13    3.72
  -8  -2   7    2.93    2.17
  -8   2  -7    1.58    3.57
  -8   2  -7    1.58    2.50
  -8  -2  -8    6.40    3.09
  -8  -2  -8    3.46    5.09
  -8   2   8    1.23    5.15
  -8   2   8    7.43    2.95
  -8  -2  -8    7.33    3.06
  -8   2  -8    4.32    3.20
  -8  -2   8    5.69    2.85
  -8   2  -8    2.46    3.56
  -8  -2   8   13.09    5.38
  -9   2   0   19.71    1.79
  -9  -2   0   16.19    1.38
  -9   2   0   17.28    1.47
  -9  -2   0   16.19    2.14
  -9  -2   0   17.50    1.21
  -9   2   1  200.67    9.49
  -9   2   1  198.63    8.86
  -9  -2  -1  203.38    8.55
  -9  -2  -1  215.15    8.60
  -9  -2   1  214.90    9.28
  -9   2  -1  204.17    9.07
  -9  -2   1  222.16    9.06
  -9  -2   1  197.37    8.79
  -9   2  -1  217.20    9.15
  -9  -2  -2   15.73    1.38
   9  -2   2   14.73    1.96
  -9   2   2   15.14    1.48
  -9   2   2   17.99    2.25
  -9  -2  -2   16.18    1.51
  -9  -2   2   14.55    1.32
  -9   2  -2   18.46    1.62
  -9  -2   2   16.55    2.12
  -9   2  -2   16.66    1.55
  -9  -2  -3  121.40    5.96
  -9   2   3  124.83    6.05
  -9   2   3  134.96    6.58
  -9  -2  -3  127.78    6.01
  -9   2  -3  119.63    6.00
  -9   2  -3  122.62    6.01
  -9  -2   3  131.63    5.82
  -9  -2  -4   18.15    2.17
  -9  -2  -4   19.51    1.98
  -9   2   4   18.30    1.99
  -9   2   4   19.55    2.66
  -9  -2   4   21.14    2.66
  -9   2  -4   16.93    2.05
  -9  -2   4   15.24    1.91
  -9   2  -4   15.54    2.06
  -9   2   5   30.48    3.74
  -9   2   5   32.24    2.92
  -9  -2  -5   28.09    2.96
  -9  -2  -5   26.00    2.81
  -9  -2   5   37.31    4.07
  -9   2  -5   25.49    2.98
  -9  -2   5   29.41    2.89
  -9   2  -5   33.17    3.17
  -9   2  -5   27.65    3.14
  -9   2   6   10.25    2.41
  -9  -2  -6   12.73    2.39
  -9   2   6   16.39    3.30
  -9  -2  -6   16.66    2.78
  -9  -2  -6   13.37    2.51
  -9   2  -6   11.20    2.28
  -9   2  -6   12.89    2.67
  -9  -2   6   15.69    3.37
  -9   2  -6   17.22    3.06
  -9  -2   6   13.71    2.52
  -9  -2  -7    7.59    2.66
  -9   2   7    9.02    4.07
  -9  -2  -7   -0.28    2.30
  -9   2   7    3.25    2.40
  -9  -2  -7    0.60    3.47
  -9  -2   7    5.22    2.46
  -9   2  -7    2.08    2.93
  -9   2  -7   -2.09    3.87
  -9  -2   7    0.20    3.95
  -9   2  -7    5.99    2.53
  -9   2   8    9.31    5.85
  -9  -2  -8   10.16    3.93
  -9   2   8    6.18    3.00
  -9  -2  -8    7.96    3.37
  -9   2  -8    8.25    3.33
  -9   2  -8    3.72    3.64
  -9  -2   8   10.52    3.07
 -10  -2   0    6.09    0.98
 -10  -2   0    6.08    0.82
 -10   2   0    5.51    1.18
 -10   2   0    6.31    1.06
 -10  -2  -1  145.66    6.13
 -10  -2  -1  132.01    6.02
 -10   2   1  137.12    6.41
 -10   2   1  139.78    7.06
  10   2   1  141.24    5.92
 -10   2  -1  144.17    6.50
 -10   2  -1  141.15    6.42
 -10  -2   1  134.58    6.18
 -10  -2   1  145.31    6.70
 -10   2   2    1.05    1.44
 -10  -2  -2    1.41    0.80
 -10  -2  -2    1.81    0.72
 -10   2   2    2.30    0.90
 -10  -2   2    1.78    0.72
 -10  -2   2    0.55    1.43
 -10   2  -2    2.29    0.93
 -10   2  -2    2.22    0.87
 -10   2   3   77.14    4.81
 -10  -2  -3   68.57    3.90
 -10  -2  -3   78.64    4.05
 -10   2   3   69.73    3.98
 -10   2  -3   71.36    4.11
 -10  -2   3   78.81    4.57
 -10   2  -3   74.86    4.15
 -10  -2   3   73.18    3.86
 -10   2   4    1.97    1.40
 -10  -2  -4    0.47    1.02
 -10  -2  -4    2.74    1.18
 -10   2   4    2.48    1.85
 -10   2  -4    0.07    1.22
 -10   2  -4    0.12    0.99
 -10  -2   4   -1.35    1.94
 -10  -2   4    0.67    0.99
 -10  -2  -5   25.28    3.05
 -10  -2  -5   18.52    2.55
 -10  -2  -5   23.20    2.97
 -10   2   5   20.51    2.74
 -10   2   5   22.89    3.59
 -10   2  -5   23.43    3.13
 -10  -2   5   22.34    2.60
 -10   2  -5   17.66    2.73
 -10  -2   5   26.91    3.64
 -10   2  -5   18.39    2.69
 -10  -2  -6    1.61    2.04
 -10   2   6    3.48    3.41
 -10   2   6    1.60    2.03
 -10  -2  -6    0.78    2.18
 -10  -2  -6    3.09    1.95
 -10   2  -6    1.38    2.25
 -10   2  -6    3.92    2.81
 -10  -2   6    1.07    3.58
 -10   2  -6    0.23    1.75
 -10  -2   6    1.54    1.77
 -10  -2  -7   10.87    3.92
 -10  -2  -7    3.56    2.78
 -10   2   7    7.67    2.78
 -10  -2  -7    6.07    2.69
 -10   2   7   20.51    5.22
 -10   2  -7    6.81    3.19
 -10  -2   7    9.48    2.68
 -10   2  -7    2.64    4.39
 -10   2  -7    6.92    3.23
 -11   2   0   12.38    1.38
 -11  -2   0   11.71    1.39
 -11   2   0   12.82    1.76
 -11  -2   0   11.58    1.12
 -11   2   1   52.14    3.68
 -11   2   1   48.41    3.04
 -11  -2  -1   52.87    2.89
 -11  -2  -1   50.49    2.69
 -11   2  -1   49.70    3.04
 -11  -2   1   50.80    3.28
 -11   2  -1   50.93    2.91
 -11  -2   1   47.86    2.73
 -11   2   2    8.71    2.20
 -11  -2  -2    8.75    1.31
 -11   2   2    9.32    1.39
 -11  -2  -2    9.29    1.30
 -11   2  -2    8.11    1.29
 -11   2  -2    9.42    1.46
 -11  -2   2    9.96    1.30
 -11  -2   2   12.47    2.26
 -11  -2  -3   32.59    2.50
 -11   2   3   37.64    3.76
 -11  -2  -3   37.50    2.75
 -11   2   3   36.31    2.64
 -11  -2   3   40.52    3.88
 -11  -2   3   36.32    2.47
 -11   2  -3   36.45    2.79
 -11   2   4    8.32    1.71
 -11  -2  -4    7.46    1.70
 -11  -2  -4    8.19    1.74
 -11   2   4   11.17    2.58
 -11   2  -4    5.79    1.76
 -11   2  -4    8.35    1.82
 -11  -2   4    9.44    1.61
 -11   2   5   23.92    2.95
 -11  -2  -5   26.00    3.27
 -11   2   5   31.44    4.09
 -11  -2  -5   23.74    2.89
 -11  -2  -5   26.02    3.19
 -11   2  -5   19.77    2.72
 -11   2  -5   20.87    2.85
 -11  -2   5   24.10    2.80
 -11  -2  -6    9.20    2.40
 -11  -2  -6    9.46    2.80
 -11   2   6   11.78    2.56
 -11  -2  -6   12.92    2.91
 -11   2   6    8.05    4.20
 -11   2  -6    7.52    3.52
 -11   2  -6    9.14    2.80
 -11  -2   6    7.34    2.17
 -11   2  -6    7.19    2.61
 -11  -2  -7   20.52    4.08
 -11   2   7   11.28    3.10
 -11   2   7   27.86    6.15
 -11  -2  -7   13.25    3.35
 -11  -2  -7   13.63    4.55
 -11   2  -7   19.24    4.09
 -11   2  -7   13.49    3.60
 -11  -2   7   17.86    3.36
 -11   2  -7   32.80    6.05
 -12   2   0    6.42    1.45
 -12   2   0    9.35    1.36
 -12  -2   0   12.17    1.52
 -12  -2   0    8.22    1.08
 -12   2   1   26.49    2.79
 -12  -2  -1   25.06    1.81
 -12  -2  -1   25.41    2.16
 -12   2   1   26.16    2.11
 -12  -2   1   24.75    1.86
 -12   2  -1   27.82    2.30
 -12   2  -1   24.60    2.00
 -12  -2   1   27.30    2.54
 -12   2   2   24.04    3.26
 -12   2   2   21.93    2.06
 -12  -2  -2   24.96    1.93
 -12  -2  -2   24.46    2.23
 -12   2  -2   27.94    2.28
 -12  -2   2   20.34    1.83
 -12   2  -2   23.20    2.36
 -12  -2  -3   18.17    2.31
 -12  -2  -3   15.74    1.90
 -12   2   3   15.51    2.01
 -12   2   3   21.60    3.29
 -12   2  -3   17.40    2.11
 -12   2  -3   17.88    2.27
 -12  -2   3   17.95    1.82
 -12   2   4   34.29    4.21
 -12  -2  -4   30.89    2.89
 -12   2   4   30.42    2.87
 -12  -2  -4   36.99    3.22
 -12  -2   4   28.39    2.69
 -12   2  -4   32.70    3.09
 -12   2  -4   36.11    3.25
 -12  -2  -5   14.60    2.48
 -12   2   5   15.99    2.41
 -12  -2  -5   17.15    2.78
 -12  -2  -5   14.93    2.54
 -12  -2   5   16.28    2.39
 -12   2  -5   18.07    2.90
 -12   2  -5    8.48    2.37
 -12  -2  -6   22.86    3.78
 -12   2   6   19.95    5.16
 -12   2   6   19.93    3.12
 -12  -2  -6   22.42    3.35
 -12  -2  -6   25.63    3.67
 -12   2  -6   27.07    4.71
 -12   2  -6   18.77    3.31
 -12   2  -6   24.03    3.57
 -12  -2   6   21.17    3.16
 -12  -2  -7    9.37    3.17
 -12  -2  -7   13.02    4.76
 -12  -2  -7    7.03    3.32
 -12   2   7   12.40    3.11
 -12   2  -7    3.97    5.61
 -12  -2   7   11.90    3.11
 -12   2  -7    9.87    3.66
 -12   2  -7   10.51    4.02
 -13  -2   0   33.14    2.14
 -13   2   0   35.04    2.45
 -13   2   0   32.37    2.85
 -13  -2   0   39.73    2.75
 -13  -2  -1    9.32    1.57
 -13  -2  -1    9.23    1.21
 -13   2   1    8.60    1.78
 -13  -2   1   11.25    1.35
 -13   2  -1   10.39    1.72
 -13  -2  -2   42.38    2.82
 -13  -2  -2   46.62    3.20
 -13   2   2   40.42    3.10
 -13   2   2   51.90    4.56
 -13   2  -2   43.00    3.03
 -13  -2   2   44.92    2.84
 -13   2  -2   44.20    3.03
 -13   2   3    3.64    1.36
 -13   2   3    8.06    2.89
 -13  -2  -3    5.59    1.55
 -13  -2  -3    3.33    1.29
 -13   2  -3    4.73    1.45
 -13  -2   3    3.34    1.21
 -13   2  -3    2.64    1.34
 -13   2   4   42.25    3.46
 -13  -2  -4   44.45    3.58
 -13   2   4   54.42    5.84
 -13  -2  -4   47.84    4.99
 -13   2  -4   55.68    4.08
 -13   2  -4   49.21    3.90
 -13  -2   4   44.23    3.42
 -13  -2  -5    5.16    2.24
 -13   2   5    0.43    3.78
 -13   2   5    2.35    1.68
 -13  -2  -5   -0.62    1.67
 -13  -2  -5    1.81    2.04
 -13  -2   5    3.54    1.78
 -13   2  -5    0.74    1.98
 -13   2  -5    2.46    2.07
 -13   2   6   26.26    3.49
 -13  -2  -6   31.79    4.37
 -13  -2  -6   37.58    4.67
 -13  -2  -6   25.12    3.60
 -13  -2   6   22.11    3.32
 -13   2  -6   31.24    4.23
 -13   2  -6   28.52    4.03
 -13   2  -6   30.94    5.09
 -13  -2  -7   -0.66    2.79
 -13  -2  -7   11.11    4.96
 -13   2   7   -4.05    2.57
 -13  -2  -7    3.86    3.58
 -13   2  -7    2.88    6.29
 -13   2  -7   -2.48    3.36
 -13   2  -7   -0.32    3.62
 -13  -2   7    0.74    2.64
 -14   2   0   23.52    2.69
 -14   2   0   25.02    2.16
 -14   2   1    2.49    1.77
 -14  -2  -1    1.89    1.00
 -14   2   1    4.29    1.20
 -14  -2  -1    8.14    1.55
 -14   2  -1    3.90    1.11
 -14   2  -1    2.86    1.31
 -14   2   2   25.88    2.65
 -14  -2  -2   28.23    2.39
 -14  -2  -2   30.95    3.06
 -14   2   2   32.50    4.26
 -14   2  -2   29.58    2.76
 -14  -2   2   29.43    2.51
 -14   2  -2   30.77    2.63
 -14   2   3    7.44    3.13
 -14  -2  -3    3.14    1.67
 -14   2   3    1.13    1.33
 -14  -2  -3    0.73    1.27
 -14   2  -3   -1.78    1.18
 -14   2  -3    2.18    1.61
 -14  -2   3    1.47    1.29
 -14   2   4   29.85    5.32
 -14  -2  -4   24.12    3.08
 -14  -2  -4   28.67    3.67
 -14   2   4   22.47    2.81
 -14  -2   4   28.07    2.93
 -14   2  -4   27.04    3.33
 -14   2  -4   28.26    3.48
 -14  -2  -5    2.47    1.95
 -14  -2  -5    1.24    2.20
 -14   2   5   -1.44    1.85
 -14  -2  -5    3.59    2.55
 -14  -2   5    1.59    1.88
 -14   2  -5    2.28    2.18
 -14   2  -5    0.02    2.37
 -14  -2  -6   13.38    3.10
 -14  -2  -6   14.49    3.77
 -14   2   6    7.85    2.67
 -14  -2  -6   16.50    3.87
 -14   2  -6   13.69    3.51
 -14   2  -6   19.16    5.14
 -14   2  -6   14.44    3.43
 -14  -2   6   13.98    2.92
 -15  -2   0   29.49    2.28
 -15   2   0   31.48    3.25
 -15   2   0   27.67    2.50
 -15   2   1   24.37    2.90
 -15  -2  -1   17.84    2.05
 -15   2   1   19.36    2.22
 -15   2  -1   22.12    2.25
 -15   2  -1   19.43    2.67
 -15  -2   1   22.22    2.01
 -15  -2  -2   23.25    2.47
 -15   2   2   24.19    2.58
 -15   2   2   30.60    4.13
 -15   2  -2   22.20    2.61
 -15   2  -2   36.85    4.82
 -15  -2   2   28.23    2.37
 -15  -2  -3    8.52    1.87
 -15   2   3    8.28    2.00
 -15  -2  -3   15.01    4.17
 -15   2  -3    7.48    1.97
 -15   2  -3    6.73    2.18
 -15  -2   3    8.52    1.79
 -15  -2  -4   16.19    2.68
 -15   2   4   19.37    2.66
 -15  -2  -4   18.78    3.15
 -15   2  -4   12.37    2.61
 -15   2  -4   15.37    2.93
 -15  -2   4   18.88    2.46
 -15   2   5    3.66    2.25
 -15  -2  -5    4.31    2.40
 -15  -2  -5    8.96    3.18
 -15  -2  -5    0.05    2.37
 -15   2  -5   -0.10    2.70
 -15   2  -5    5.06    2.50
 -15  -2   5    4.19    2.07
 -15  -2  -6    6.72    2.87
 -15   2   6    7.33    2.82
 -15  -2  -6    7.14    3.82
 -15  -2  -6   12.02    4.15
 -15  -2   6   12.12    3.14
 -15   2  -6   11.21    3.45
 -15   2  -6    7.07    3.37
 -15   2  -6    8.28    5.06
 -16   2   0   11.19    2.24
 -16   2   0    7.63    1.54
 -16  -2   0   11.50    1.67
 -16  -2  -1   51.03    3.37
 -16   2   1   48.59    3.41
 -16  -2   1   53.74    3.35
 -16   2  -1   53.77    3.75
 -16   2  -1   58.96    4.31
 -16   2   2    6.14    1.62
 -16  -2  -2    6.15    1.68
 -16  -2   2    6.76    1.44
 -16   2  -2    5.93    2.11
 -16   2  -2    5.12    1.76
 -16   2   3   29.59    3.20
 -16  -2  -3   25.20    3.08
 -16   2  -3   20.92    2.84
 -16  -2   3   28.61    2.93
 -16   2  -3   30.10    3.69
 -16   2   4    1.42    2.07
 -16  -2  -4    6.25    2.98
 -16  -2  -4    1.62    2.00
 -16  -2   4    5.66    2.08
 -16   2  -4   -0.19    1.96
 -16   2  -4    1.93    2.57
 -16   2   5   11.85    2.86
 -16  -2  -5    6.78    2.69
 -16  -2  -5    3.26    2.88
 -16  -2  -5   11.76    3.89
 -16   2  -5    7.46    2.76
 -16  -2   5   12.29    2.76
 -16   2  -5    5.42    3.59
 -17   2   0   -0.01    1.30
 -17  -2   0   -1.09    1.25
 -17  -2  -1   33.52    3.03
 -17   2   1   38.82    3.13
 -17   2  -1   35.83    3.25
 -17   2  -1   34.85    3.90
 -17  -2   1   38.60    2.86
 -17   2   2    2.57    1.51
 -17  -2  -2   -0.26    1.63
 -17   2  -2   -2.29    2.25
 -17   2  -2   -2.41    1.55
 -17  -2   2    0.06    1.28
 -17   2   3   24.24    3.08
 -17  -2  -3   25.43    3.36
 -17   2  -3   24.55    3.14
 -17   2  -3   29.54    3.77
 -17  -2   3   21.91    2.82
 -17  -2  -4    1.32    2.25
 -17   2   4   -2.82    2.10
 -17   2  -4   -1.44    2.14
 -17   2  -4    6.23    3.32
 -17  -2   4    3.20    2.11
 -18  -2   0    4.75    1.70
 -18   2   0    5.31    1.83
 -18  -2  -1    8.22    1.92
 -18   2   1    6.52    1.89
 -18   2  -1    7.38    2.05
 -18  -2   1   10.92    1.84
 -18  -2  -2    8.10    2.18
 -18   2   2    5.62    1.90
 -18  -2   2    6.55    1.79
 -18   2  -2    6.99    2.15
 -18  -2  -3    8.11    2.61
 -18   2   3    9.19    2.20
 -18   2  -3    4.65    3.15
 -18  -2   3    8.19    1.93
 -18   2  -3    8.34    2.38
 -18  -2  -4    3.52    2.65
 -18   2   4    5.32    2.33
 -18   2  -4    5.84    3.72
 -18   2  -4    3.64    2.66
 -18  -2   4    2.27    2.17
 -19  -2   0    4.48    1.97
 -19   2   0    3.99    2.02
 -19  -2  -1    1.54    1.99
 -19   2   1    0.43    1.80
 -19  -2   1    0.34    1.74
 -19   2  -1    4.17    2.10
 -19  -2  -2    9.14    2.47
 -19   2   2    5.86    2.16
 -19  -2   2    2.16    1.83
 -19   2  -2    7.33    2.41
 -19  -2  -3    4.47    2.69
 -19   2   3    2.14    2.05
 -19  -2   3    1.25    1.99
 -19   2  -3    2.59    2.53
 -20   2   0    3.30    2.21
 -20  -2   0    4.37    2.22
 -20   2   1    3.14    2.09
 -20  -2  -1    0.21    2.37
 -20  -2   1   -2.54    1.99
 -20   2  -1    0.47    2.28
   0  -3   0    0.11    0.15
   0   3   0    0.15    0.22
   0   3   0    0.19    0.16
   0   3   1   30.60    1.67
   0  -3  -1   38.57    1.71
   0  -3  -1   38.87    1.69
   0  -3   1   30.91    1.69
   0   3  -1   38.75    1.61
   0   3   1   30.47    1.71
   0  -3  -1   40.53    1.69
   0   3  -1   36.66    1.61
   0   3  -2    0.34    0.33
   0  -3  -2   -0.03    0.31
   0  -3  -2    0.38    0.34
   0   3  -2    0.08    0.24
   0   3  -2    0.34    0.31
   0  -3  -2    0.15    0.35
   0  -3   2   -0.23    0.36
   0  -3  -3   39.81    2.24
   0  -3  -3   39.23    2.27
   0   3  -3   42.17    2.19
   0   3  -3   41.41    2.19
   0   3  -3   41.77    2.12
   0  -3  -3   41.58    2.23
   0  -3  -4    0.36    0.63
   0  -3  -4    0.25    0.71
   0   3  -4    0.67    0.66
   0  -3  -4   -0.13    0.65
   0   3  -4   -0.09    0.55
   0  -3   4   -0.10    0.78
   0   3  -4    1.00    0.76
   0   3  -5   23.22    1.95
   0  -3   5   23.95    2.41
   0  -3  -5   25.57    2.10
   0  -3  -5   21.77    2.14
   0  -3  -5   22.76    2.04
   0   3  -5   22.76    2.02
   0  -3  -6   -0.54    1.59
   0  -3  -6   -1.25    1.04
   0  -3   6    1.20    1.48
   0  -3  -6   -0.51    1.03
   0   3  -6   -1.06    1.13
   0   3  -6    0.07    0.93
   0  -3  -7    7.41    1.96
   0  -3  -7   10.80    2.36
   0   3  -7   11.23    2.04
   0   3   8    1.20    2.88
   0   3  -8    0.86    1.94
   0  -3  -8   -3.32    1.97
   0   3   9    8.86    4.07
   0   3   9    7.35    4.09
  -1  -3   0    7.83    0.46
  -1   3   0    9.47    0.81
  -1  -3   0    8.10    0.48
  -1   3   0    8.56    0.62
   1   3   0    8.27    0.41
  -1  -3   0    7.62    0.42
   1   3  -1  379.99   15.65
   1  -3   1  403.40   15.94
  -1   3   1  410.02   15.87
  -1   3   1  414.97   15.96
  -1  -3  -1  381.02   15.76
  -1  -3  -1  398.77   15.78
  -1  -3  -1  394.91   15.74
   1  -3  -1  383.21   15.59
  -1   3  -1  383.63   15.52
  -1  -3   1  387.17   15.46
  -1  -3   1  392.50   15.38
   1   3   1  415.05   15.55
  -1   3  -1  384.00   15.52
   1   3  -2   23.31    1.21
  -1  -3  -2   21.69    1.31
   1  -3   2   19.68    1.45
  -1  -3  -2   22.58    1.29
   1   3  -2   22.47    1.21
  -1   3  -2   22.62    1.30
  -1  -3   2   21.64    1.38
  -1   3  -2   23.02    1.31
   1  -3  -2   21.75    1.36
   1  -3  -2   22.73    1.33
  -1   3  -2   23.38    1.27
   1  -3  -2   21.58    1.36
   1   3  -3  187.20    8.07
   1   3  -3  197.06    8.07
   1  -3   3  200.37    8.52
  -1  -3  -3  194.77    8.26
  -1  -3  -3  184.22    8.15
  -1  -3  -3  196.49    8.24
  -1   3  -3  188.36    7.96
  -1  -3   3  207.85    8.37
   1  -3  -3  181.11    8.12
   1  -3  -3  193.59    8.12
  -1   3  -3  183.18    8.05
  -1   3  -3  190.65    8.06
   1   3  -4   69.20    3.44
   1   3  -4   72.41    3.49
   1  -3   4   63.75    3.86
  -1  -3  -4   70.19    3.60
  -1  -3  -4   71.08    3.67
   1   3  -4   66.39    3.45
  -1  -3  -4   69.85    3.61
  -1  -3   4   62.04    3.79
  -1   3  -4   66.85    3.54
   1  -3  -4   68.40    3.65
   1  -3  -4   72.18    3.59
  -1   3  -4   71.70    3.57
   1  -3  -4   73.29    3.66
  -1  -3  -5   90.67    4.74
   1  -3   5   95.12    5.19
  -1  -3  -5   87.20    4.64
  -1  -3  -5   87.82    4.61
   1   3  -5   86.36    4.47
   1  -3  -5   89.19    4.64
   1  -3  -5   86.40    4.73
  -1   3  -5   93.78    4.67
  -1   3  -5   89.25    4.66
  -1  -3   5   95.24    5.18
  -1   3  -5   90.40    4.59
   1   3  -6   34.92    2.90
   1  -3   6   33.94    3.37
   1   3  -6   29.79    2.84
  -1  -3  -6   35.01    3.00
  -1  -3  -6   36.39    2.96
  -1  -3  -6   38.00    3.13
  -1   3  -6   41.94    3.05
   1  -3  -6   33.77    3.00
  -1   3  -6   34.41    2.86
   1  -3  -6   39.73    2.94
   1  -3  -7   41.16    3.81
  -1   3  -7   47.75    3.71
  -1   3   8    9.84    3.24
  -1  -3  -8   15.68    2.99
  -1  -3  -8   14.91    3.27
   1   3  -8   15.92    2.82
  -1   3   8   21.24    4.06
  -1   3  -8   12.34    2.66
  -1   3  -8    1.35    3.06
  -1   3   9   25.87    4.81
  -1   3   9   16.57    4.75
  -1   3  -9   17.98    3.65
   1   3   9   16.94    4.65
   1   3   9   22.62    4.88
  -2   3   0  126.14    5.95
  -2   3   0  143.78    5.77
   2  -3   0  144.26    5.82
  -2  -3  -1   30.37    1.41
  -2  -3  -1   28.40    1.41
   2  -3   1   30.45    1.66
  -2   3   1   28.95    1.53
  -2   3   1   28.97    1.64
  -2   3  -1   29.90    1.47
   2  -3  -1   28.28    1.55
  -2  -3   1   27.79    1.26
  -2   3  -1   29.33    1.46
  -2  -3  -2   53.88    2.70
  -2  -3  -2   55.60    2.64
  -2  -3  -2   56.84    2.69
   2  -3   2   59.75    2.95
   2   3  -2   54.77    2.50
  -2   3   2   57.06    2.87
  -2   3   2   60.18    2.82
   2   3  -2   56.92    2.48
  -2  -3   2   57.56    2.68
  -2   3  -2   55.00    2.65
  -2   3  -2   58.92    2.68
   2  -3  -2   53.98    2.72
  -2  -3  -3   27.53    1.78
   2   3  -3   27.90    1.60
  -2  -3  -3   27.31    1.73
  -2  -3  -3   27.66    1.77
   2   3  -3   29.41    1.62
   2  -3   3   27.79    2.05
  -2   3  -3   30.74    1.84
  -2  -3   3   28.97    1.93
   2  -3  -3   26.65    1.67
   2  -3  -3   25.92    1.79
  -2   3  -3   29.54    1.74
   2  -3  -3   27.55    1.85
  -2   3  -3   28.98    1.78
   2   3  -4    8.39    1.07
  -2  -3  -4    6.80    1.09
  -2  -3  -4    8.76    1.22
   2  -3   4    9.35    1.58
  -2  -3  -4    6.45    1.06
   2   3  -4   10.96    1.22
  -2   3  -4    7.62    1.11
   2  -3  -4    8.82    1.09
   2  -3  -4   10.13    1.40
  -2   3  -4   10.29    1.33
  -2  -3   4    8.83    1.37
   2  -3  -4    9.13    1.33
  -2   3  -4    8.98    1.18
   2  -3   5   15.10    2.17
  -2  -3  -5   20.23    1.97
   2   3  -5   18.83    1.68
  -2  -3  -5   18.97    1.94
  -2  -3  -5   17.25    1.94
   2   3  -5   20.28    1.83
  -2   3  -5   17.14    1.81
   2  -3  -5   19.65    2.24
   2  -3  -5   16.11    1.76
  -2   3  -5   18.93    1.99
  -2  -3   5   18.00    2.13
  -2   3  -5   16.98    1.95
   2  -3  -5   16.93    1.83
   2   3  -6   -0.86    1.34
   2  -3   6    1.36    1.62
   2   3  -6    0.74    1.18
  -2  -3  -6    0.39    1.42
  -2  -3  -6    2.17    1.36
  -2   3  -6   -0.66    1.27
   2  -3  -6   -0.13    1.06
   2  -3  -6   -3.91    1.90
  -2   3  -6    1.06    1.64
  -2   3  -6    2.40    1.25
  -2  -3  -7    6.19    1.90
  -2  -3  -7    6.27    2.06
  -2  -3  -7   -1.68    2.28
   2   3  -7    6.77    1.68
  -2   3  -7    3.80    1.59
  -2   3  -7    3.12    2.24
  -2   3   8    0.69    2.74
  -2  -3  -8   -1.19    2.49
  -2   3   8    2.05    2.88
  -2  -3  -8   -0.10    2.16
  -2   3  -8   -0.85    3.14
  -2   3  -8    2.83    2.09
  -2   3   9    1.05    3.56
  -2  -3  -9    1.77    2.93
  -2   3   9    4.37    4.33
  -2   3  -9   -3.02    2.74
   2   3   9   -7.57    4.01
   2   3   9   -1.38    3.46
  -3   3   0  267.27   10.78
   3  -3   0  300.87   10.85
  -3   3   0  224.73   10.96
  -3   3   1   53.25    2.47
  -3  -3  -1   49.97    2.27
   3  -3   1   51.59    2.58
  -3  -3  -1   49.41    2.26
  -3   3   1   52.32    2.63
   3  -3  -1   48.80    2.42
  -3  -3  -2  251.75   10.54
  -3   3   2  257.01   10.79
  -3  -3  -2  250.73   10.54
   3  -3   2  270.01   10.87
  -3   3   2  260.47   10.70
  -3   3  -2  241.25   10.27
   3  -3  -2  250.59   10.35
  -3  -3   2  248.89   10.05
  -3  -3   2  258.54   10.19
  -3  -3  -3   40.86    2.32
   3   3  -3   41.59    2.14
  -3  -3  -3   42.72    2.31
  -3  -3  -3   42.83    2.39
   3  -3   3   43.17    2.68
  -3   3  -3   43.28    2.43
   3  -3  -3   43.96    2.51
  -3   3  -3   42.22    2.42
  -3  -3   3   44.04    2.48
   3   3  -4  180.15    7.44
  -3  -3  -4  170.63    7.80
  -3  -3  -4  177.87    7.81
  -3  -3  -4  176.58    7.85
   3  -3   4  178.00    8.18
   3   3  -4  167.01    7.52
  -3   3  -4  177.29    7.90
  -3   3  -4  173.08    7.89
  -3  -3   4  183.59    8.13
  -3   3  -4  174.87    7.75
  -3  -3  -5    4.26    1.23
   3   3  -5    3.91    1.16
   3  -3   5    5.29    1.61
   3   3  -5    2.11    0.81
  -3  -3  -5    4.15    1.15
  -3  -3  -5    3.16    1.06
  -3   3  -5    3.01    1.18
  -3   3  -5    3.62    1.19
  -3   3  -5    3.24    1.11
  -3  -3   5    3.63    1.27
   3  -3  -5    5.58    1.63
   3  -3   6  102.19    5.85
  -3  -3  -6   78.09    5.47
  -3  -3  -6   90.00    5.28
  -3  -3  -6   91.60    5.22
  -3   3  -6   88.07    5.23
  -3   3  -6   98.49    5.28
  -3   3   7    3.95    2.07
  -3  -3  -7    1.00    1.60
  -3  -3  -7   -0.83    1.76
  -3   3   7    3.95    2.22
  -3   3  -7   -1.08    1.48
  -3   3  -7    2.43    1.97
  -3   3   8   27.12    4.00
  -3  -3  -8   26.84    3.72
  -3   3   8   25.47    4.45
  -3  -3  -8   25.52    3.74
  -3  -3  -9    1.27    2.93
  -3  -3  -9    4.29    4.11
  -3   3   9   -1.01    4.43
  -3   3   9   -0.79    3.51
  -3   3  -9   -7.06    2.71
   3   3   9   -6.64    4.37
   3   3   9    6.75    3.96
  -4   3   0    4.60    0.98
   4  -3   0    3.69    0.71
  -4   3   0    4.00    0.69
  -4  -3   0    4.20    0.35
  -4   3   1    3.32    0.71
  -4  -3  -1    3.43    0.46
   4  -3   1    4.39    0.82
  -4   3   1    3.75    0.59
  -4   3  -1    3.12    0.56
   4  -3  -1    4.00    0.70
  -4   3  -1    4.79    0.74
  -4   3   2   30.67    1.75
   4  -3   2   30.95    1.93
  -4  -3  -2   22.03    1.49
  -4  -3  -2   23.58    1.54
  -4   3   2   31.33    1.92
  -4  -3   2   30.18    1.46
   4  -3  -2   23.28    1.69
  -4   3  -2   24.49    1.61
  -4  -3   2   29.64    1.50
  -4   3  -2   23.53    1.56
  -4  -3  -3    9.71    1.21
  -4   3   3    9.63    1.21
  -4  -3  -3    8.46    1.01
  -4   3   3    8.81    1.31
  -4  -3  -3    7.99    1.00
   4  -3   3    9.36    1.36
  -4   3  -3   10.16    1.12
  -4   3  -3   10.98    1.23
  -4  -3   3    8.25    1.11
   4  -3  -3   10.75    1.38
  -4   3   4   18.76    1.85
   4  -3   4   16.93    1.96
  -4  -3  -4   14.72    1.61
  -4   3   4   19.73    2.04
  -4  -3  -4   14.06    1.50
  -4  -3  -4   15.19    1.54
  -4  -3   4   16.62    1.73
  -4   3  -4   11.37    1.47
   4  -3  -4   14.62    1.99
  -4   3  -4   14.01    1.57
  -4   3  -4   14.03    1.57
   4  -3   5    7.63    1.83
  -4   3   5    7.63    1.65
  -4  -3  -5   10.36    1.64
  -4  -3  -5    9.14    1.52
  -4  -3  -5    5.59    1.38
  -4  -3   5    6.79    1.45
  -4   3  -5    8.82    1.62
  -4   3  -5    6.78    1.36
  -4   3  -5    9.68    1.76
  -4  -3  -6    0.54    1.31
  -4   3   6    0.48    1.54
   4  -3   6    0.80    1.71
  -4  -3  -6    3.40    1.65
  -4  -3  -6    3.19    1.48
  -4   3  -6    0.71    1.38
  -4   3  -6    2.59    1.47
  -4   3  -6   -0.53    1.58
  -4  -3  -7    5.67    2.06
  -4   3   7    2.84    2.35
  -4   3   7    1.92    2.05
  -4  -3  -7    3.03    1.96
  -4  -3  -7    6.89    2.69
  -4   3  -7    4.87    1.94
  -4   3  -7    3.83    2.30
  -4   3   8    2.67    3.58
  -4  -3  -8    2.00    2.61
  -4   3   8    1.20    2.70
  -4  -3  -8    0.54    2.38
  -4   3  -8    0.70    2.19
  -4   3  -8   -0.60    3.02
  -5  -3   0  135.67    5.40
   5  -3   0  130.26    5.80
  -5   3   0  133.76    5.85
  -5  -3   0  132.51    5.41
  -5  -3  -1  361.55   14.21
  -5  -3  -1  367.97   14.11
  -5  -3  -1  359.78   14.11
  -5   3   1  336.61   14.33
   5  -3   1  371.88   14.52
  -5   3   1  317.51   14.78
  -5   3  -1  297.24   12.56
   5  -3  -1  319.19   12.51
  -5   3  -1  299.25   12.50
   5  -3   2  104.02    4.94
  -5  -3  -2  106.65    4.63
  -5   3   2  100.05    4.75
  -5  -3  -2   96.97    4.78
  -5   3   2  112.94    5.04
  -5   3  -2  106.17    4.73
  -5  -3   2   97.60    4.41
  -5  -3   2  100.09    4.43
  -5   3  -2  105.73    4.71
   5  -3  -2  107.04    4.75
  -5   3   3  240.59   10.28
  -5  -3  -3  228.32    9.93
  -5  -3  -3  226.58    9.95
  -5   3   3  232.83   10.10
   5  -3   3  243.68   10.32
  -5  -3   3  228.37    9.37
   5  -3  -3  218.15    9.38
  -5   3  -3  208.98    9.38
  -5   3  -3  219.42    9.41
  -5   3   4   77.89    4.41
   5  -3   4   80.22    4.44
  -5  -3  -4   73.57    4.00
  -5  -3  -4   75.21    4.00
  -5  -3  -4   77.44    4.08
  -5   3   4   73.87    4.12
  -5   3  -4   80.06    4.18
  -5   3  -4   74.66    4.00
  -5  -3   4   73.97    4.15
   5  -3  -4   80.23    4.26
  -5   3  -4   77.86    4.16
  -5  -3  -5   46.13    3.22
   5  -3   5   53.13    3.83
  -5   3   5   53.30    3.85
  -5   3   5   53.18    3.51
  -5  -3  -5   46.21    3.24
  -5  -3  -5   48.36    3.30
  -5   3  -5   47.52    3.18
  -5   3  -5   45.94    3.12
  -5   3  -5   46.34    3.24
  -5   3   6   47.53    3.88
  -5  -3  -6   51.06    3.79
  -5  -3  -6   47.98    3.83
   5  -3   6   45.60    4.09
  -5   3  -6   49.82    3.85
  -5   3  -6   45.19    3.63
  -5  -3  -7    5.25    2.94
  -5  -3  -7    5.51    2.20
  -5  -3  -7    2.67    1.83
  -5   3   7   10.32    3.23
  -5   3   7   10.76    2.59
  -5   3  -7    6.22    2.50
  -5   3  -7    2.32    1.77
  -5   3   8   22.43    4.75
  -5   3   8   17.00    3.41
  -5  -3  -8   20.75    3.50
  -5  -3  -8   12.38    3.09
  -5   3  -8   12.52    2.83
  -5   3  -8   21.54    3.96
   6  -3   0   14.44    1.38
  -6   3   0   17.54    1.36
  -6  -3   0   16.00    0.80
  -6  -3   0   15.03    0.99
  -6   3   0   15.34    1.62
  -6  -3  -1   58.98    2.75
   6  -3   1   57.58    3.17
  -6   3   1   63.89    3.48
  -6  -3  -1   64.97    2.81
  -6  -3  -1   63.14    3.01
  -6   3   1   60.97    3.06
  -6   3  -1   67.11    3.24
  -6   3  -1   59.79    3.11
   6  -3  -1   60.00    3.11
  -6  -3   1   63.18    2.85
  -6   3   2    7.75    1.19
  -6  -3  -2   10.42    1.15
  -6   3   2    7.48    1.06
  -6  -3  -2    9.60    0.94
  -6   3  -2   10.42    1.12
  -6   3  -2    9.30    1.11
  -6  -3   2    8.55    0.85
   6  -3  -2    8.79    1.20
  -6  -3   2    8.99    1.06
  -6  -3  -3   57.85    3.02
  -6  -3  -3   55.61    2.96
  -6   3   3   49.31    2.98
   6  -3   3   51.31    3.25
  -6   3   3   53.55    3.34
  -6  -3   3   51.57    2.90
  -6   3  -3   54.23    3.03
   6  -3  -3   56.63    3.24
  -6   3  -3   55.50    3.05
  -6  -3  -4    3.81    1.06
  -6  -3  -4    2.60    1.06
   6  -3   4    5.21    1.49
  -6  -3  -4    3.85    1.04
  -6   3   4    4.22    1.43
  -6   3   4    3.70    1.12
  -6   3  -4    4.29    1.02
  -6  -3   4    2.31    1.00
  -6   3  -4    3.99    1.20
  -6   3   5   31.32    2.83
  -6   3   5   38.31    3.43
  -6  -3  -5   35.40    2.72
   6  -3   5   28.79    3.27
  -6  -3  -5   33.54    2.76
  -6  -3  -5   35.19    2.78
  -6   3  -5   37.88    2.90
  -6   3  -5   30.23    2.83
  -6   3  -5   33.24    2.76
  -6  -3  -6    1.53    1.70
  -6   3   6   -1.98    2.27
   6  -3   6    0.23    2.16
  -6  -3  -6    1.35    1.45
  -6   3   6    3.08    1.72
  -6  -3  -6    1.16    1.49
  -6   3  -6    1.04    1.32
  -6   3  -6    0.53    1.70
  -6   3  -6    0.65    1.58
  -6  -3  -7   15.06    2.82
  -6   3   7   18.39    3.96
  -6  -3  -7   10.72    2.55
  -6  -3  -7   21.86    3.65
  -6   3   7   12.71    2.79
  -6   3  -7   19.00    3.07
  -6   3  -7    0.29    3.44
  -6   3  -7   10.73    2.94
  -6   3   8  -10.14    3.58
  -6  -3  -8   -0.73    2.56
  -6  -3  -8   -4.68    4.42
  -6  -3  -8    0.94    2.32
  -6   3   8    0.64    2.77
  -6   3  -8   -2.17    2.13
  -6   3  -8    1.73    3.24
  -7  -3   0   22.27    1.34
  -7  -3   0   24.27    1.27
  -7  -3   0   22.43    1.35
  -7   3   0   26.16    1.74
  -7   3   0   23.09    1.99
  -7   3   1  218.14   10.12
  -7  -3  -1  226.30    9.34
  -7  -3  -1  239.58    9.38
   7  -3   1  233.48    9.75
  -7   3   1  225.98    9.68
  -7  -3   1  233.55    9.10
  -7   3  -1  204.77    9.47
   7   3   1  208.29    9.06
  -7   3  -1  226.56    9.61
  -7  -3   1  236.71    9.02
  -7  -3   1  232.15    9.28
  -7  -3  -2    6.32    0.93
   7  -3   2    6.26    1.30
  -7   3   2    5.47    1.25
  -7   3   2    7.55    1.10
  -7  -3  -2    6.54    0.91
  -7   3  -2    7.32    1.07
  -7  -3   2    5.61    0.81
  -7  -3   2    9.09    1.22
  -7  -3   2    6.93    1.00
  -7   3  -2    7.45    1.05
  -7  -3  -3  145.76    6.67
  -7   3   3  142.87    6.78
  -7  -3  -3  152.41    6.70
  -7   3   3  148.53    7.11
  -7   3  -3  148.08    6.90
  -7   3  -3  151.44    6.89
  -7   3   4    5.69    1.73
  -7   3   4    3.86    1.18
  -7  -3  -4    5.65    1.20
  -7  -3  -4    5.34    1.24
  -7  -3  -4    4.83    1.17
   7  -3   4    3.43    1.65
  -7   3  -4    3.54    1.10
  -7   3  -4    2.57    1.19
  -7  -3  -5   87.34    4.79
  -7  -3  -5   88.93    4.94
   7  -3   5   87.18    5.47
  -7   3   5   80.40    4.94
  -7   3   5   91.56    5.50
  -7  -3  -5   72.06    5.00
  -7   3  -5   83.11    4.84
  -7   3  -5   80.47    5.26
  -7  -3  -6    6.55    2.04
  -7   3   6    3.07    1.68
  -7  -3  -6    3.99    1.78
  -7  -3  -6    6.35    2.14
  -7   3   6    4.85    2.46
  -7   3  -6    3.55    1.53
  -7   3  -6    2.70    2.08
  -7   3  -6    4.64    1.99
  -7  -3  -7   59.23    5.07
  -7   3   7   43.84    4.60
  -7   3   7   51.57    6.20
  -7  -3  -7   51.76    5.72
  -7  -3  -7   52.31    4.66
  -7   3  -7   50.87    4.59
  -7   3  -7   52.62    4.97
  -7   3   8    1.08    4.14
  -7  -3  -8    2.58    2.84
  -7   3   8   -2.61    2.63
  -7  -3  -8    5.92    4.93
  -7  -3  -8    2.93    2.86
  -7  -3   8   -1.84    2.47
  -7   3  -8    2.75    2.75
  -7   3  -8   -0.47    3.33
  -7  -3   8   -7.50    4.27
  -8  -3   0   40.11    2.20
  -8  -3   0   39.44    1.95
  -8   3   0   39.99    2.39
  -8   3   0   40.97    2.70
  -8  -3   0   40.99    2.04
   8  -3   1    0.99    1.04
  -8   3   1    1.42    1.11
  -8  -3  -1    2.04    0.48
  -8  -3  -1    2.01    0.62
  -8   3   1    1.53    0.67
  -8  -3   1    1.10    0.64
  -8  -3   1    2.86    0.97
   8   3   1    1.26    0.51
  -8   3  -1    2.47    0.78
  -8   3  -1    3.56    0.95
  -8  -3   1    1.02    0.47
   8  -3   2   22.01    2.17
  -8  -3  -2   19.71    1.48
  -8  -3  -2   19.41    1.55
  -8   3   2   22.50    2.30
  -8   3   2   19.68    1.61
  -8   3  -2   22.81    1.85
  -8  -3   2   21.96    1.94
  -8  -3   2   22.21    1.47
  -8   3  -2   21.34    1.79
  -8  -3   2   23.58    1.92
   8  -3   3    7.74    1.69
  -8  -3  -3    8.57    1.20
  -8  -3  -3    9.67    1.29
  -8   3   3    8.61    1.75
  -8   3   3    6.07    1.13
  -8  -3   3    5.85    1.07
  -8  -3   3   10.10    1.48
  -8   3  -3   11.79    1.62
  -8   3  -3    8.54    1.41
  -8   3   4    2.67    1.56
   8  -3   4    4.62    1.83
  -8  -3  -4    3.60    1.19
  -8  -3  -4    3.47    1.07
  -8   3   4    2.28    1.12
  -8  -3  -4    3.17    1.10
  -8   3  -4    3.30    1.20
  -8   3  -4    2.80    1.17
  -8  -3  -5   11.99    2.05
  -8   3   5   15.17    2.67
  -8   3   5    9.49    1.82
  -8  -3  -5   13.61    2.16
  -8  -3  -5   13.75    2.12
  -8   3  -5   10.51    1.94
  -8   3  -5   11.10    2.14
  -8   3  -5   11.45    2.10
  -8  -3  -6    0.00    1.59
  -8  -3  -6    2.97    2.06
  -8   3   6    0.67    2.42
  -8   3   6   -1.84    1.53
  -8  -3  -6   -0.09    1.54
  -8  -3   6   -3.14    2.29
  -8   3  -6   -0.49    2.30
  -8   3  -6    0.50    1.94
  -8   3  -6   -0.55    1.57
  -8  -3  -7    5.15    2.49
  -8   3   7    8.46    2.66
  -8  -3  -7    8.27    3.33
  -8  -3  -7    7.03    2.73
  -8   3   7    8.20    3.44
  -8  -3   7    8.34    3.79
  -8   3  -7   11.69    3.32
  -8   3  -7   -3.82    3.52
  -8   3  -7    2.66    2.18
  -8  -3   7    4.81    2.35
  -8   3   8    2.64    2.93
  -8  -3  -8    0.70    2.95
  -8   3   8   -7.57    4.52
  -8  -3  -8   -0.54    2.63
  -8  -3  -8   -3.06    5.08
  -8   3  -8    2.58    3.60
  -8  -3   8    3.05    2.77
  -8   3  -8    0.73    3.01
  -9  -3   0   29.22    2.21
  -9  -3   0   29.29    1.58
  -9  -3   0   28.11    1.74
  -9   3   0   28.93    2.28
  -9   3   0   30.27    2.04
  -9  -3  -1   74.43    3.48
  -9   3   1   76.13    3.88
  -9   3   1   75.16    4.56
  -9  -3  -1   70.46    3.40
  -9  -3   1   73.03    3.40
  -9   3  -1   75.83    3.89
  -9  -3   1   75.89    3.67
  -9   3  -1   70.36    3.77
  -9  -3   1   72.34    3.97
  -9   3   2   70.67    4.30
  -9  -3  -2   67.67    3.40
  -9  -3  -2   67.26    3.35
   9  -3   2   66.03    3.97
  -9   3   2   63.25    3.54
  -9   3  -2   71.07    3.71
  -9  -3   2   62.06    3.24
  -9   3  -2   72.33    3.72
  -9  -3   2   65.51    3.73
  -9  -3   2   66.83    3.77
  -9   3   3   39.83    3.34
  -9  -3  -3   38.44    2.48
   9  -3   3   38.27    3.38
  -9  -3  -3   35.41    2.59
  -9   3   3   39.20    2.63
  -9   3  -3   33.70    2.52
  -9  -3   3   35.73    2.30
  -9   3  -3   35.69    2.57
  -9  -3   3   37.63    2.94
  -9   3   4   94.33    5.40
  -9   3   4  100.35    6.02
  -9  -3  -4  104.74    5.42
  -9  -3  -4  113.38    5.50
  -9  -3   4   99.56    5.76
  -9   3  -4  104.34    5.54
  -9   3  -4  111.92    5.69
  -9  -3   4  100.86    5.23
  -9  -3  -5   15.20    2.19
  -9   3   5   15.81    2.34
  -9  -3  -5   21.18    2.79
  -9  -3  -5   18.93    2.64
  -9   3   5   19.60    3.02
  -9   3  -5   13.37    2.09
  -9  -3   5   16.07    2.18
  -9   3  -5   13.01    3.83
  -9  -3   5   24.05    3.20
  -9   3  -5   13.69    2.33
  -9   3   6   71.70    6.27
  -9  -3  -6   67.59    4.93
  -9   3   6   59.73    4.73
  -9  -3  -6   74.07    5.02
  -9  -3  -6   59.90    4.71
  -9  -3   6   60.04    4.55
  -9   3  -6   60.15    4.72
  -9  -3   6   64.56    5.98
  -9   3  -6   70.12    5.33
  -9   3  -6   65.62    5.53
  -9   3   7    7.67    2.74
  -9  -3  -7    7.21    3.42
  -9  -3  -7    7.96    2.96
  -9   3   7   -1.97    3.85
  -9  -3  -7    7.30    2.57
  -9   3  -7    4.04    2.41
  -9   3  -7   -3.22    4.06
  -9   3  -7    9.51    3.24
  -9  -3   7    6.32    2.55
  -9  -3  -8    5.65    6.05
  -9  -3  -8   25.51    4.01
  -9   3   8   27.17    4.18
  -9   3   8   40.39    6.97
  -9  -3  -8   23.81    4.10
  -9   3  -8   26.80    4.40
  -9   3  -8   31.56    5.15
  -9  -3   8   26.63    3.95
 -10   3   0   47.91    2.83
 -10  -3   0   47.83    2.42
 -10  -3   0   55.87    3.73
 -10  -3   0   53.57    2.68
 -10   3   0   44.39    3.10
 -10   3   1   18.28    2.48
 -10  -3  -1   13.17    1.17
 -10   3   1   13.45    1.57
 -10  -3  -1   13.26    1.44
 -10  -3   1   18.62    2.04
 -10   3  -1   13.33    1.69
 -10   3  -1   13.67    1.47
 -10  -3   1   13.50    1.26
 -10  -3   1   14.71    1.79
 -10  -3  -2   33.50    2.18
 -10  -3  -2   35.94    2.33
 -10   3   2   35.99    3.37
 -10   3   2   37.64    2.46
 -10  -3   2   45.15    3.26
 -10   3  -2   40.22    2.68
 -10  -3   2   37.13    2.20
 -10   3  -2   36.24    2.57
 -10   3   3   -1.06    1.54
 -10  -3  -3    3.53    1.06
 -10  -3  -3    5.22    1.27
 -10   3   3    2.59    1.01
 -10   3  -3    1.86    0.93
 -10  -3   3    3.35    0.92
 -10  -3   3    2.69    1.73
 -10   3  -3    4.06    1.05
 -10  -3  -4   17.23    2.30
 -10   3   4   12.01    2.44
 -10  -3  -4   14.99    2.03
 -10   3   4   15.86    2.09
 -10  -3   4   17.24    1.88
 -10   3  -4   14.63    2.25
 -10  -3   4   18.18    2.68
 -10   3  -4   12.68    1.95
 -10  -3  -5   -1.73    1.33
 -10  -3  -5   -1.49    1.59
 -10   3   5    4.62    2.39
 -10   3   5   -0.76    1.45
 -10  -3  -5    0.03    1.53
 -10   3  -5    1.19    1.90
 -10  -3   5   -1.00    1.34
 -10   3  -5   -1.93    1.39
 -10   3  -5   -1.77    1.46
 -10   3   6    4.78    2.10
 -10  -3  -6    0.88    1.85
 -10  -3  -6    3.04    2.25
 -10   3   6   -0.86    3.62
 -10  -3  -6    3.94    2.35
 -10   3  -6    2.00    3.09
 -10   3  -6    2.06    1.98
 -10   3  -6    3.06    2.50
 -10  -3   6    4.28    1.95
 -10  -3  -7    0.16    2.36
 -10  -3  -7    0.62    3.41
 -10   3   7    0.17    2.23
 -10  -3  -7   -3.33    2.44
 -10   3   7    3.23    4.70
 -10   3  -7   12.71    4.90
 -10  -3   7   -0.56    2.34
 -10   3  -7    4.76    2.81
 -10   3  -7   -3.58    2.95
 -11  -3   0  143.52    6.27
 -11  -3   0  153.69    6.44
 -11   3   0  138.89    6.70
 -11   3   0  150.39    6.98
 -11  -3  -1   24.85    1.92
 -11   3   1   27.46    2.14
 -11  -3  -1   22.52    1.62
 -11   3   1   27.76    2.90
 -11   3  -1   25.89    1.98
 -11  -3   1   22.99    1.72
 -11  -3   1   27.73    2.48
 -11   3  -1   27.16    2.27
 -11  -3  -2  113.89    5.43
 -11   3   2  114.79    5.73
 -11  -3  -2  120.29    5.55
 -11   3   2  119.25    6.70
 -11   3  -2  118.20    5.95
 -11  -3   2  120.23    5.50
 -11   3  -2  126.28    6.00
 -11  -3  -3   10.34    1.69
 -11   3   3    8.75    1.93
 -11   3   3   11.84    2.62
 -11  -3  -3   10.76    1.59
 -11  -3   3   11.03    1.39
 -11   3  -3    8.75    1.48
 -11  -3  -4   61.86    4.10
 -11   3   4   71.40    4.26
 -11  -3  -4   68.69    4.29
 -11   3   4   74.47    5.47
 -11  -3   4   60.65    4.11
 -11   3  -4   56.56    5.78
 -11   3  -4   67.28    4.31
 -11  -3  -5    5.08    1.95
 -11  -3  -5    5.81    2.06
 -11  -3  -5    8.58    1.96
 -11   3   5    7.62    1.93
 -11   3  -5    7.84    2.21
 -11  -3   5    8.85    1.87
 -11   3  -5    6.47    2.01
 -11  -3  -6   23.94    3.41
 -11   3   6   28.26    3.53
 -11  -3  -6   30.98    3.86
 -11  -3  -6   20.16    3.36
 -11   3   6   34.29    5.13
 -11   3  -6   22.66    3.27
 -11   3  -6   29.76    4.69
 -11  -3   6   31.04    3.62
 -11   3  -6   31.08    4.15
 -11  -3  -7    8.13    3.91
 -11   3   7    3.74    2.66
 -11   3   7   10.40    5.56
 -11  -3  -7    5.74    2.75
 -11  -3  -7    7.76    3.57
 -11   3  -7   10.09    3.16
 -11   3  -7    6.09    5.24
 -11   3  -7    5.56    3.65
 -11  -3   7    8.90    2.79
 -12   3   0    6.48    1.45
 -12  -3   0   12.23    1.49
 -12   3   0    8.33    1.38
 -12  -3   0    8.02    1.02
 -12  -3  -1    9.39    1.33
 -12  -3  -1    6.20    0.99
 -12   3   1    7.32    1.37
 -12   3   1    8.36    1.93
 -12   3  -1    6.96    1.24
 -12  -3   1    6.36    0.97
 -12   3  -1    5.78    1.36
 -12  -3  -2    5.47    1.07
 -12   3   2    3.48    1.21
 -12  -3  -2    3.85    1.27
 -12   3   2    3.43    2.26
 -12  -3   2    3.91    0.96
 -12   3  -2    5.68    1.38
 -12  -3  -3   10.38    1.73
 -12  -3  -3   12.74    1.92
 -12   3   3   14.70    2.93
 -12   3   3   10.67    1.74
 -12   3  -3   10.43    1.82
 -12   3  -3   13.88    2.00
 -12  -3   3   13.21    1.60
 -12   3   4   -0.85    2.46
 -12  -3  -4   -0.71    1.44
 -12  -3  -4   -0.97    1.20
 -12   3   4    1.44    1.28
 -12  -3   4    0.73    1.16
 -12   3  -4    2.75    1.46
 -12   3  -4    1.54    1.52
 -12  -3  -5    6.01    1.96
 -12   3   5   15.95    3.97
 -12  -3  -5   10.60    2.33
 -12   3   5    8.61    2.10
 -12  -3  -5    9.90    2.35
 -12   3  -5   10.35    2.33
 -12  -3   5   11.25    2.15
 -12   3  -5   12.38    2.57
 -12  -3  -6   -0.42    2.51
 -12  -3  -6   -0.49    2.55
 -12   3   6  -10.72    4.34
 -12  -3  -6   -0.49    1.95
 -12   3   6    0.61    1.95
 -12   3  -6   -4.75    2.15
 -12   3  -6    0.45    2.43
 -12  -3   6    1.01    2.12
 -12   3  -6   -1.52    3.67
 -12  -3  -7    7.67    3.51
 -12  -3  -7    6.37    2.82
 -12   3   7    5.86    2.86
 -12   3   7   -3.29    6.01
 -12  -3  -7    3.94    4.29
 -12   3  -7   -2.45    5.63
 -12   3  -7    6.37    3.28
 -12  -3   7    3.85    2.78
 -12   3  -7    6.51    3.93
 -13  -3   0    2.73    0.77
 -13   3   0    4.72    1.46
 -13  -3  -1  132.18    6.15
 -13  -3  -1  137.90    6.37
 -13   3   1  138.74    7.05
 -13   3  -1  125.52    6.34
 -13  -3   1  129.82    5.80
 -13   3  -1  133.67    6.43
 -13  -3  -2    2.31    1.04
 -13  -3  -2    4.92    1.55
 -13   3   2    5.09    1.41
 -13   3   2    4.53    2.41
 -13   3  -2    1.80    1.18
 -13   3  -2    4.70    1.30
 -13  -3   2    2.47    0.99
 -13  -3  -3   81.64    4.77
 -13   3   3   90.04    5.01
 -13  -3  -3   89.62    5.05
 -13   3   3   92.95    6.59
 -13  -3   3   87.45    4.55
 -13   3   4    3.33    1.57
 -13   3   4    2.82    3.17
 -13  -3  -4    3.31    1.55
 -13   3  -4    4.13    1.90
 -13  -3   4    4.49    1.51
 -13   3  -4    5.24    1.93
 -13   3   5   43.92    5.72
 -13  -3  -5   25.63    3.63
 -13  -3  -5   21.52    3.10
 -13   3   5   33.93    3.42
 -13  -3  -5   26.26    3.49
 -13  -3   5   30.10    3.28
 -13   3  -5   29.36    3.85
 -13   3  -5   24.35    3.24
 -13   3   6    7.07    2.44
 -13  -3  -6    3.94    2.48
 -13  -3  -6    6.62    2.98
 -13   3   6    4.51    5.02
 -13  -3  -6    6.26    3.19
 -13   3  -6    3.08    2.66
 -13   3  -6    1.17    4.39
 -13   3  -6    2.39    2.79
 -13  -3   6    0.94    2.32
 -14  -3   0    2.34    1.38
 -14   3   0    4.05    1.17
 -14   3   0    4.16    1.57
 -14   3   1    8.41    1.98
 -14   3   1    7.72    1.51
 -14  -3  -1    8.42    1.33
 -14   3  -1    4.61    1.28
 -14   3  -1    7.05    1.65
 -14  -3   1    7.80    1.31
 -14  -3  -2    2.35    1.66
 -14  -3  -2    3.57    1.16
 -14   3   2    4.79    2.29
 -14   3   2    1.87    1.28
 -14   3  -2    4.60    1.40
 -14  -3   2    2.09    1.21
 -14   3  -2    0.54    1.18
 -14   3   3   13.92    3.72
 -14  -3  -3   10.70    1.90
 -14  -3  -3   12.45    2.27
 -14   3   3    8.84    1.88
 -14  -3   3   11.18    1.69
 -14   3  -3    6.84    1.78
 -14   3  -3    6.63    1.92
 -14   3   4   -3.14    3.93
 -14   3   4    3.19    1.68
 -14  -3  -4    3.41    2.28
 -14  -3  -4    0.91    1.65
 -14  -3   4    2.62    1.55
 -14   3  -4    4.67    1.94
 -14   3  -4    2.44    1.85
 -14   3   5    6.04    5.06
 -14  -3  -5   13.81    3.26
 -14  -3  -5    7.63    2.27
 -14   3   5   10.48    2.42
 -14  -3  -5    8.91    2.58
 -14   3  -5   13.19    2.97
 -14   3  -5    8.99    2.71
 -14  -3   5    8.87    2.24
 -14  -3  -6    3.62    3.32
 -14   3   6    0.02    2.38
 -14  -3  -6    0.78    2.52
 -14  -3  -6    4.56    3.22
 -14   3  -6   -0.97    2.92
 -14   3  -6    6.82    4.92
 -14   3  -6    0.21    2.95
 -14  -3   6    0.08    2.43
 -15  -3   0   12.84    1.61
 -15   3   0   16.68    2.38
 -15   3   0   14.95    2.02
 -15   3   1   19.66    2.19
 -15  -3  -1   18.99    2.09
 -15   3   1   21.04    2.81
 -15   3  -1   17.90    2.30
 -15   3  -1   16.93    2.21
 -15  -3   1   18.74    1.81
 -15   3   2   13.24    2.94
 -15  -3  -2   14.96    1.97
 -15   3   2   11.29    2.02
 -15   3  -2   14.37    2.35
 -15   3  -2   14.80    2.16
 -15  -3   2   10.20    1.51
 -15  -3  -3   19.65    2.65
 -15   3   3   36.49    7.07
 -15   3   3   16.29    2.45
 -15  -3  -3   27.20    4.10
 -15   3  -3   25.27    2.96
 -15  -3   3   16.52    2.13
 -15   3  -3   16.91    2.53
 -15  -3  -4   13.30    3.03
 -15  -3  -4   12.03    2.52
 -15   3   4   13.84    2.45
 -15  -3   4   13.80    2.16
 -15   3  -4   17.79    3.01
 -15   3  -4   11.45    2.66
 -15   3   5   13.77    2.88
 -15  -3  -5   21.18    3.06
 -15  -3  -5   23.00    3.99
 -15  -3  -5   19.25    3.23
 -15  -3   5   15.92    2.72
 -15   3  -5   18.86    3.40
 -15   3  -5   15.59    3.20
 -15  -3  -6    3.36    4.06
 -15  -3  -6   14.72    4.06
 -15  -3  -6    8.93    3.18
 -15   3   6   15.00    3.27
 -15   3  -6   15.22    4.06
 -15  -3   6   18.91    3.40
 -15   3  -6   22.78    6.03
 -15   3  -6    8.83    3.54
 -16  -3   0    7.66    1.45
 -16   3   0    6.72    1.66
 -16   3   0    6.62    2.25
 -16   3   1    0.89    1.21
 -16  -3  -1    1.97    1.26
 -16   3   1    1.80    2.18
 -16   3  -1    0.40    1.87
 -16  -3   1   -0.27    1.10
 -16   3  -1    1.09    1.42
 -16  -3  -2    8.51    1.87
 -16   3   2    8.13    1.82
 -16  -3   2    6.68    1.43
 -16   3  -2    8.09    2.23
 -16   3  -2    5.98    1.78
 -16   3   3   -0.67    1.57
 -16  -3  -3    2.82    1.79
 -16   3  -3   -2.09    1.63
 -16   3  -3    0.24    2.18
 -16  -3   3    1.85    1.39
 -16   3   4    3.03    2.18
 -16  -3  -4    5.80    2.30
 -16  -3   4    6.21    2.08
 -16   3  -4    4.16    2.54
 -16   3  -4    3.06    2.35
 -16   3   5    0.47    2.42
 -16  -3  -5   -2.42    2.57
 -16  -3  -5   -1.54    2.31
 -16   3  -5   -4.03    2.84
 -16   3  -5    0.76    2.61
 -16  -3   5    2.63    2.33
 -17   3   0   20.42    2.95
 -17  -3   0   18.60    2.34
 -17   3   0   16.98    2.31
 -17   3   1    1.15    1.42
 -17  -3  -1    2.49    1.50
 -17  -3   1    1.44    1.24
 -17   3  -1    1.62    1.55
 -17   3  -1    1.54    2.08
 -17  -3  -2   27.94    3.06
 -17   3   2   19.13    2.51
 -17  -3   2   23.67    2.44
 -17   3  -2   25.35    3.29
 -17   3  -2   23.29    3.23
 -17   3   3   -1.71    1.55
 -17  -3  -3   -0.85    1.90
 -17   3  -3   -0.25    1.99
 -17   3  -3    0.21    2.52
 -17  -3   3    1.01    1.48
 -17  -3  -4   24.80    3.40
 -17   3   4   23.87    3.31
 -17  -3   4   30.73    3.72
 -17   3  -4   33.23    4.17
 -17   3  -4   35.17    4.68
 -18   3   0    6.80    1.99
 -18  -3   0    5.85    1.75
 -18   3   1    0.98    1.62
 -18  -3  -1    1.29    1.75
 -18   3  -1    2.30    1.79
 -18  -3   1    2.96    1.53
 -18  -3  -2    5.43    2.18
 -18   3   2    4.47    1.88
 -18   3  -2    5.63    2.81
 -18  -3   2    4.17    1.64
 -18   3  -2    3.86    2.07
 -18  -3  -3    1.13    2.29
 -18   3   3    0.51    1.77
 -18   3  -3    1.93    3.09
 -18  -3   3   -0.20    1.68
 -18   3  -3    0.31    2.09
 -18   3   4    4.36    2.29
 -18  -3  -4    3.26    2.70
 -18   3  -4    2.81    2.57
 -18  -3   4    3.43    2.14
 -18   3  -4    1.81    3.70
 -19   3   0   12.69    2.54
 -19  -3   0   17.86    2.51
 -19  -3  -1   21.16    2.82
 -19   3   1   19.90    2.82
 -19   3  -1   21.83    3.02
 -19  -3   1   23.52    3.07
 -19   3   2    8.91    2.27
 -19  -3  -2   15.61    2.88
 -19  -3   2   14.96    2.24
 -19   3  -2   10.40    2.59
 -20   3   0    1.34    2.16
 -20  -3   0   -0.17    2.13
   0   4   0    0.55    0.28
   0  -4   0    0.85    0.23
   0   4   0    0.71    0.24
   0  -4  -1    0.32    0.32
   0  -4  -1    0.14    0.25
   0  -4   1   -0.30    0.27
   0   4   1    0.25    0.31
   0   4  -1    0.07    0.18
   0   4   1    0.39    0.30
   0   4  -1   -0.01    0.22
   0  -4  -1   -0.17    0.21
   0  -4   2    0.99    0.53
   0  -4  -2    0.75    0.37
   0  -4  -2    1.33    0.46
   0   4  -2    0.94    0.36
   0   4   2    0.72    0.49
   0   4  -2    1.13    0.33
   0   4  -2    1.52    0.41
   0  -4  -2    1.15    0.49
   0  -4  -3    0.06    0.45
   0   4  -3    0.47    0.54
   0  -4  -3   -0.07    0.46
   0  -4   3   -0.33    0.57
   0  -4  -3    0.54    0.48
   0   4  -3    0.32    0.36
   0   4  -3    0.00    0.50
   0   4  -4    1.12    0.80
   0  -4  -4    1.92    0.81
   0  -4  -4    1.51    0.76
   0   4  -4    0.98    0.57
   0   4  -4    1.90    0.80
   0  -4  -4    1.64    0.71
   0  -4   4    1.46    0.87
   0   4  -5    0.21    0.69
   0   4  -5    0.27    1.28
   0  -4   5   -0.55    1.05
   0  -4  -5   -0.66    1.00
   0   4  -5   -0.35    0.90
   0  -4  -5   -0.42    0.77
   0  -4  -6    4.68    1.80
   0  -4  -6    4.16    1.46
   0   4  -6    3.38    1.17
   0   4  -6    3.09    1.42
   0  -4  -6    4.45    1.44
   0   4  -7   -1.13    1.84
   0  -4  -7    2.04    1.85
   0  -4  -7    2.70    2.60
   0  -4  -7   -0.40    1.49
   0   4  -7    0.42    1.40
   0   4  -8    1.81    2.01
   0   4   8    4.18    2.80
   0   4   8   -2.95    2.55
   0   4   9    5.18    4.11
   0   4   9    0.96    3.87
   1   4   0  651.42   26.41
   1  -4   0  738.68   26.68
  -1   4   0  629.72   26.56
  -1   4   1  167.79    6.78
  -1  -4  -1  166.95    6.70
   1  -4   1  164.34    6.88
  -1  -4  -1  152.00    6.66
   1   4  -1  162.05    6.55
  -1  -4  -1  159.17    6.65
  -1   4   1  175.82    6.95
   1  -4  -1  155.50    6.86
  -1   4  -1  162.46    6.76
   1   4   1  170.50    6.86
   1   4   1  172.84    6.78
  -1  -4   1  170.71    6.73
  -1   4  -1  164.02    6.78
  -1  -4  -2  472.55   19.33
  -1  -4  -2  476.67   19.36
   1   4  -2  466.29   19.19
  -1   4   2  511.64   19.58
  -1  -4  -2  452.85   19.47
   1   4  -2  477.44   19.17
  -1   4   2  505.40   19.47
   1  -4   2  506.06   19.60
   1  -4  -2  472.24   18.79
  -1   4  -2  448.72   18.58
  -1   4  -2  461.09   18.67
  -1  -4   2  493.01   18.81
  -1   4  -2  458.67   18.68
   1  -4  -2  461.79   18.72
   1  -4  -2  476.62   18.82
   1   4  -3  134.43    5.74
   1  -4   3  137.37    6.22
  -1  -4  -3  134.31    5.98
  -1  -4  -3  134.12    5.92
   1   4  -3  130.36    5.76
  -1  -4  -3  135.48    5.94
   1  -4  -3  128.22    5.88
  -1   4  -3  139.30    5.83
  -1   4  -3  122.26    5.77
  -1  -4   3  137.43    6.07
   1  -4  -3  133.39    5.95
   1  -4  -3  133.11    5.84
  -1   4  -3  134.43    5.70
  -1  -4  -4  131.07    5.96
  -1  -4  -4  128.72    6.02
   1   4  -4  127.03    5.72
  -1  -4  -4  129.19    5.95
   1  -4   4  135.86    6.39
   1   4  -4  120.57    5.73
   1  -4  -4  124.77    5.88
  -1   4  -4  121.59    5.74
  -1   4  -4  130.80    5.64
   1  -4  -4  129.65    5.83
  -1   4  -4  122.40    5.77
  -1  -4   4  130.36    6.19
   1  -4  -4  121.55    5.90
  -1  -4  -5   40.41    2.84
  -1  -4  -5   41.69    2.82
  -1  -4  -5   45.06    2.94
   1   4  -5   45.75    2.70
   1  -4   5   44.56    3.30
   1   4  -5   35.74    2.50
   1  -4  -5   41.92    2.79
   1  -4  -5   40.39    2.86
  -1   4  -5   43.01    2.77
  -1   4  -5   38.99    2.71
   1  -4  -5   39.84    2.88
  -1  -4   5   43.64    3.24
  -1  -4  -6   28.00    2.78
  -1  -4  -6   29.53    2.97
   1   4  -6   26.49    2.48
  -1  -4  -6   30.37    3.04
  -1  -4   6   28.07    3.30
   1  -4  -6   30.65    2.66
  -1   4  -6   30.35    2.78
  -1   4  -6   30.58    2.65
   1  -4  -6   26.17    2.74
  -1  -4  -7    1.19    2.37
  -1  -4  -7    6.96    2.09
  -1   4   7    7.11    2.36
  -1  -4  -7    4.87    2.04
   1   4  -7    8.37    1.87
   1  -4  -7    6.82    2.00
  -1   4  -7    7.80    1.87
  -1  -4  -8   13.76    3.26
  -1  -4  -8   12.21    2.88
   1   4  -8   14.02    2.64
  -1   4   8   13.27    3.49
  -1   4   8   12.66    3.31
   1   4   8    7.64    3.12
   1   4   8   10.27    3.24
  -1   4  -8   12.03    2.51
  -1   4   9    6.74    4.11
  -1   4   9    1.56    3.95
   1   4   9    1.97    3.56
  -1   4  -9    4.99    3.03
   1   4   9   -0.45    4.15
  -2  -4   0    3.63    0.27
   2  -4   0    2.74    0.53
  -2  -4   0    4.44    0.37
  -2   4   0    3.86    0.59
  -2   4   0    5.44    0.90
  -2  -4   0    3.16    0.31
  -2  -4  -1   11.90    0.71
  -2   4   1   13.65    1.35
  -2  -4  -1   11.35    0.76
   2  -4   1   13.55    1.07
  -2  -4  -1   10.64    0.75
  -2   4   1   10.92    0.88
  -2  -4   1   11.57    0.62
  -2   4  -1   10.42    0.79
   2   4   1   11.89    0.75
   2  -4  -1   10.01    0.90
  -2   4  -1   10.63    0.89
   2   4   1   10.78    0.77
  -2  -4  -2    2.26    0.45
  -2   4   2    2.23    0.56
   2   4  -2    3.22    0.42
   2   4  -2    2.63    0.39
  -2   4   2    3.80    0.76
   2  -4   2    2.90    0.69
  -2  -4  -2    2.52    0.55
  -2  -4  -2    2.63    0.59
  -2  -4   2    2.58    0.52
  -2   4  -2    2.71    0.53
   2  -4  -2    2.27    0.69
  -2   4  -2    2.95    0.57
   2   4  -3   11.75    1.05
  -2   4   3   15.61    1.40
  -2  -4  -3   14.31    1.27
  -2  -4  -3   12.15    1.17
  -2  -4  -3   12.83    1.15
   2  -4   3   13.64    1.48
   2   4  -3   12.64    1.00
  -2   4  -3   10.67    1.28
  -2   4  -3   13.33    1.19
   2  -4  -3   12.19    1.24
  -2  -4   3   12.22    1.31
  -2   4  -3   12.12    1.13
   2  -4  -3   14.31    1.33
   2  -4  -3   13.76    1.22
  -2  -4  -4    5.83    1.11
  -2  -4  -4    5.46    1.01
  -2  -4  -4    4.96    1.03
   2  -4   4    5.47    1.28
   2   4  -4    4.21    0.81
   2  -4  -4    5.99    1.12
  -2   4  -4    4.43    1.13
  -2  -4   4    3.57    1.09
  -2   4  -4    6.37    1.10
   2  -4  -4    3.21    0.86
   2  -4  -4    3.41    0.87
  -2   4  -4    4.84    0.90
  -2  -4  -5    1.24    1.01
   2  -4   5    1.01    1.18
   2   4  -5    1.53    1.06
  -2  -4  -5    1.42    0.86
   2   4  -5    1.65    0.76
  -2  -4  -5    2.85    1.07
  -2   4  -5    0.66    0.74
   2  -4  -5    2.82    1.00
  -2  -4   5    0.66    1.16
  -2   4  -5    0.69    1.01
   2  -4  -5    2.64    1.33
   2  -4  -5    0.92    0.97
  -2   4  -5    1.86    1.17
  -2   4   6    1.50    1.48
  -2  -4  -6    1.77    1.45
   2   4  -6    0.73    1.14
  -2  -4  -6    2.33    1.43
   2   4  -6   -1.32    1.40
   2  -4   6    2.38    1.60
   2  -4  -6   -0.67    1.87
   2  -4  -6    4.44    1.37
  -2  -4   6    4.20    1.67
  -2   4  -6    2.41    1.26
  -2   4  -6    0.79    1.48
  -2  -4  -7   -0.68    1.79
  -2   4   7    2.88    2.37
  -2  -4  -7   -1.37    1.49
   2   4  -7   -0.10    1.32
  -2   4   7   -0.69    1.92
  -2   4  -7    0.47    1.51
  -2   4  -7    0.46    2.14
  -2   4   8    0.59    2.79
  -2  -4  -8   -1.34    2.06
  -2  -4  -8   -1.19    2.48
  -2   4   8    0.44    2.68
  -2   4  -8   -0.99    2.04
   2   4   8   -1.39    2.94
  -2   4  -8    2.40    3.17
  -2   4   9    4.76    3.77
  -2   4   9   -1.66    4.11
  -2   4  -9    2.16    2.86
   2   4   9   -2.65    3.27
   2   4   9    1.36    4.46
  -3   4   0    2.91    0.63
  -3   4   0    5.74    1.00
   3  -4   0    3.97    0.68
  -3   4   1  495.22   20.78
  -3  -4  -1  565.48   20.61
  -3  -4  -1  541.42   20.68
   3  -4   1  514.09   21.14
  -3   4   1  483.39   21.00
   3   4   1  505.94   20.22
   3   4   1  538.68   20.32
  -3   4  -1  480.33   20.44
   3  -4  -1  524.40   20.62
  -3  -4   1  534.00   20.10
  -3   4  -1  492.81   20.51
  -3  -4  -2    4.68    0.66
   3  -4   2    3.68    0.88
  -3   4   2    5.87    0.96
  -3  -4  -2    4.71    0.67
  -3  -4  -2    4.75    0.64
  -3   4   2    4.27    0.70
   3  -4  -2    4.88    0.81
  -3   4  -2    5.12    0.71
  -3  -4   2    4.61    0.57
  -3   4  -2    6.06    0.79
  -3  -4   2    4.69    0.64
   3   4  -3  368.43   14.81
  -3   4   3  357.08   15.38
  -3  -4  -3  383.50   15.15
  -3   4   3  347.26   15.22
  -3  -4  -3  377.32   15.09
  -3  -4  -3  384.30   15.15
   3  -4   3  357.79   15.44
   3  -4  -3  372.67   15.28
  -3  -4   3  366.64   15.25
  -3   4  -3  374.45   15.21
  -3   4  -3  365.67   15.20
   3   4  -4   19.11    1.45
   3  -4   4   18.70    2.07
  -3  -4  -4   18.12    1.72
  -3  -4  -4   18.97    1.63
  -3   4   4   16.29    1.78
  -3   4   4   18.45    2.00
   3   4  -4   22.88    1.59
  -3  -4  -4   21.27    1.69
  -3  -4   4   19.61    1.90
   3  -4  -4   20.58    2.04
  -3   4  -4   21.32    1.75
  -3   4  -4   17.99    1.74
  -3   4  -4   19.96    1.73
  -3  -4  -5  204.06    9.23
   3   4  -5  192.68    8.82
  -3   4   5  198.53    9.48
  -3  -4  -5  218.71    9.41
  -3   4   5  207.35    9.73
   3  -4   5  194.78    9.66
  -3  -4  -5  209.59    9.32
  -3  -4   5  192.82    9.47
  -3   4  -5  203.49    8.99
  -3   4  -5  203.52    9.22
   3  -4  -5  204.58    9.30
  -3   4  -5  209.29    9.22
  -3  -4  -6    9.09    1.83
  -3  -4  -6    8.74    1.88
  -3   4   6    5.37    2.10
  -3  -4  -6    6.72    1.61
   3  -4   6    9.08    2.17
  -3   4   6    8.78    1.91
  -3   4  -6    8.97    1.82
  -3   4  -6    7.94    1.75
  -3  -4   6    5.70    1.78
  -3  -4  -7   85.78    5.77
  -3   4   7   92.61    6.55
  -3  -4  -7   88.94    5.60
  -3   4   7   90.94    6.04
  -3   4  -7   89.08    5.59
  -3   4  -7   87.42    5.88
  -3  -4  -8    8.66    2.79
  -3   4   8    0.33    2.68
  -3  -4  -8    8.30    2.83
  -3   4   8    3.83    3.31
   3   4   8    4.88    3.41
  -3   4  -8    3.23    3.35
  -3   4  -8    6.63    2.39
  -3  -4  -9   21.75    4.03
   3   4   9   41.31    5.37
  -3   4  -9   26.62    4.29
  -4   4   0   31.95    2.08
   4  -4   0   25.53    1.74
  -4   4   0   29.79    1.74
  -4   4   1    3.51    0.64
  -4  -4  -1    4.58    0.54
  -4   4   1    4.42    0.95
   4  -4   1    3.40    0.91
  -4  -4  -1    3.33    0.48
  -4   4  -1    2.64    0.57
   4   4   1    3.50    0.44
   4  -4  -1    3.55    0.78
  -4   4  -1    2.85    0.59
  -4   4   2    4.93    0.90
  -4   4   2    7.04    0.97
  -4  -4  -2    6.83    0.84
  -4  -4  -2    7.01    0.80
   4  -4   2    6.08    1.01
  -4  -4   2    7.18    0.73
   4  -4  -2    8.88    1.15
  -4   4  -2    7.53    0.97
  -4  -4   2    9.43    0.75
  -4   4  -2    9.41    0.98
  -4  -4  -3    3.43    0.78
  -4  -4  -3    2.56    0.66
   4  -4   3    3.55    1.10
  -4   4   3    3.72    0.88
  -4  -4  -3    2.39    0.82
  -4   4   3    3.91    1.04
  -4  -4   3    2.91    0.80
  -4   4  -3    3.66    0.84
  -4   4  -3    2.68    0.74
   4  -4   4    0.98    1.05
  -4   4   4    0.33    0.79
  -4  -4  -4    0.82    0.77
  -4  -4  -4   -0.68    0.62
  -4   4   4    0.40    0.95
  -4  -4  -4   -0.21    0.67
  -4   4  -4    0.53    0.81
  -4   4  -4    0.87    0.85
  -4   4  -4    0.66    0.73
   4  -4  -4    0.12    1.10
  -4  -4   4   -0.83    0.74
  -4  -4  -5    3.21    1.16
   4  -4   5    1.58    1.51
  -4  -4  -5    3.10    1.10
  -4  -4  -5    1.91    1.05
  -4   4   5    2.27    1.15
  -4   4   5    1.60    1.28
  -4   4  -5    1.60    1.00
   4  -4  -5    0.51    1.73
  -4  -4   5    3.95    1.26
  -4   4  -5    2.27    0.98
  -4   4  -5    2.92    1.19
  -4  -4  -6    0.83    1.24
  -4  -4  -6    0.00    1.21
  -4   4   6   -1.52    1.28
   4  -4   6   -1.12    1.74
  -4   4   6    1.94    1.89
  -4  -4  -6    0.81    1.41
  -4   4  -6    0.74    1.68
  -4   4  -6    1.22    1.50
  -4   4  -6   -0.14    1.13
  -4  -4  -7   -0.10    1.78
  -4  -4  -7   -3.99    2.49
  -4  -4  -7   -1.23    1.91
  -4   4   7   -2.54    1.86
  -4   4   7    0.77    2.73
  -4   4  -7   -0.75    1.62
  -4   4  -7    2.88    2.37
  -4  -4  -8   -1.53    2.44
  -4   4   8    5.58    2.91
  -4   4   8   -1.06    3.61
  -4  -4  -8    3.40    5.22
  -4  -4  -8   -2.10    2.23
   4   4   8   -2.68    3.33
  -4   4  -8    2.56    3.29
  -4   4  -8    1.08    2.14
  -5   4   0  144.10    6.12
  -5  -4   0  140.53    5.52
   5  -4   0  136.31    6.12
  -5   4   0  131.52    6.37
  -5  -4  -1  235.24    9.07
  -5   4   1  215.05    9.36
  -5  -4  -1  225.42    9.05
   5  -4   1  214.29    9.51
  -5   4   1  228.11    9.77
  -5   4  -1  200.14    8.69
  -5   4  -1  192.57    8.58
   5   4   1  211.05    8.16
   5  -4  -1  209.37    8.65
  -5  -4  -2  114.27    4.90
  -5  -4  -2  110.10    4.87
   5  -4   2  114.77    5.34
  -5   4   2  108.56    5.34
  -5   4   2  105.92    5.07
  -5   4  -2  111.43    5.01
  -5   4  -2  111.35    5.03
  -5  -4   2  108.64    4.62
   5  -4  -2  106.20    5.07
  -5  -4   2  109.83    4.60
  -5  -4  -3  146.68    6.73
  -5   4   3  146.29    6.89
  -5  -4  -3  156.82    6.77
   5  -4   3  148.80    7.15
  -5  -4  -3  160.34    6.73
  -5   4   3  152.73    7.15
   5  -4  -3  155.24    7.17
  -5   4  -3  148.33    6.78
  -5   4  -3  153.41    6.83
  -5  -4   3  147.79    6.66
  -5  -4  -4   51.19    3.09
   5  -4   4   46.83    3.44
  -5   4   4   54.50    3.51
  -5  -4  -4   52.10    3.02
  -5   4   4   46.70    3.15
  -5  -4  -4   54.22    3.15
  -5   4  -4   52.09    3.16
   5  -4  -4   53.98    3.41
  -5  -4   4   44.30    3.07
  -5   4  -4   55.68    3.09
  -5   4  -4   53.43    3.24
  -5  -4  -5   98.52    5.16
  -5  -4  -5   99.76    5.24
  -5   4   5  100.65    5.74
  -5  -4  -5   93.21    5.14
  -5   4   5   95.67    5.36
   5  -4   5   92.22    5.62
  -5   4  -5   97.04    5.16
  -5   4  -5   96.70    5.10
  -5  -4   5   85.66    5.13
  -5  -4  -6   21.37    2.78
  -5   4   6   17.87    2.76
   5  -4   6   20.15    3.14
  -5   4   6   19.76    3.30
  -5  -4  -6   23.63    2.93
  -5  -4  -6   24.71    2.89
  -5   4  -6   24.97    3.29
  -5   4  -6   23.01    2.75
  -5   4   7   33.79    4.49
  -5  -4  -7   40.90    4.01
  -5  -4  -7   35.88    4.90
  -5  -4  -7   40.63    4.05
  -5   4   7   39.11    4.16
  -5   4  -7   40.36    4.26
  -5   4  -7   36.90    3.82
  -5   4   8   14.43    3.50
  -5  -4  -8   10.44    3.10
  -5  -4  -8   -1.97    4.53
  -5  -4  -8    6.82    2.92
  -5   4   8   12.50    4.57
  -5   4  -8   14.58    3.91
   5   4   8   12.05    4.33
  -5   4  -8   15.97    3.33
  -6   4   0   12.99    1.23
  -6  -4   0   11.63    0.77
  -6  -4   0   11.31    0.68
   6  -4   0   11.89    1.38
  -6   4   0   12.33    1.51
  -6  -4  -1    8.16    0.69
  -6   4   1    6.40    1.22
   6  -4   1    7.63    1.24
  -6   4   1    8.57    1.00
  -6  -4  -1    6.66    0.78
  -6  -4  -1    8.48    1.05
   6  -4  -1    9.15    1.18
  -6   4  -1    7.66    1.07
  -6   4  -1    8.58    1.19
   6   4   1    7.87    0.55
   6   4   1    7.38    0.68
  -6   4   2    0.37    0.86
  -6   4   2    0.49    0.55
  -6  -4  -2    0.50    0.59
   6  -4   2    0.80    0.92
  -6  -4  -2    1.43    0.53
  -6  -4   2    2.40    0.52
  -6  -4   2    1.10    0.44
  -6   4  -2    1.25    0.60
  -6   4  -2    1.03    0.71
  -6   4   3    3.44    1.10
   6  -4   3    5.49    1.38
  -6  -4  -3    4.09    0.88
  -6  -4  -3    5.00    0.94
  -6   4   3    4.31    0.91
  -6   4  -3    2.54    0.88
   6  -4  -3    5.21    1.36
  -6   4  -3    4.46    0.92
  -6  -4   3    3.83    0.81
  -6  -4  -4    1.98    0.81
  -6   4   4    0.02    1.17
  -6   4   4    1.04    0.88
   6  -4   4    0.73    1.27
  -6  -4  -4    1.60    0.92
  -6  -4  -4    1.85    0.82
  -6   4  -4    0.82    1.02
   6  -4  -4    1.40    1.69
  -6  -4   4    2.38    0.96
  -6   4  -4    1.31    0.92
  -6  -4  -5   -1.07    0.96
  -6   4   5    0.67    1.65
   6  -4   5   -0.31    1.68
  -6  -4  -5    1.20    1.03
  -6   4  -5    2.08    1.30
  -6   4  -5   -0.66    1.17
  -6   4  -5    1.44    1.05
  -6   4   6    3.19    1.72
  -6  -4  -6    1.24    1.51
  -6  -4  -6    0.63    1.59
   6  -4   6    1.89    2.26
  -6   4   6   -1.03    2.21
  -6  -4  -6    1.85    1.72
  -6   4  -6   -2.77    1.70
  -6   4  -6    3.74    1.87
  -6   4  -6   -0.60    1.48
  -6  -4  -7   -0.17    2.68
  -6   4   7    0.76    2.89
  -6  -4  -7   -0.71    1.88
  -6   4   7    0.28    2.10
  -6  -4  -7    0.98    2.07
  -6   4  -7   -0.99    2.37
  -6   4  -7   -0.50    1.87
  -6  -4  -8   -1.90    2.66
  -6  -4  -8    1.20    4.78
  -6   4   8    2.54    4.15
  -6  -4  -8   -0.11    2.60
  -6   4   8    1.44    2.71
  -6   4  -8   -0.02    3.41
   6   4   8    1.74    4.32
  -6   4  -8    3.10    2.69
  -7  -4   0  575.45   21.75
  -7  -4   0  490.01   21.68
  -7   4   0  496.54   22.25
  -7  -4   0  599.85   21.65
   7  -4   0  586.66   22.31
  -7  -4  -1    8.93    1.11
  -7  -4  -1    5.48    0.69
  -7  -4  -1    7.42    0.84
  -7   4   1    6.83    1.02
   7  -4   1    6.62    1.25
  -7   4   1    6.95    1.53
  -7  -4   1    6.91    0.65
  -7   4  -1    4.05    0.86
  -7  -4   1    8.03    1.01
   7  -4  -1    6.26    1.13
  -7   4  -1    8.16    1.19
  -7  -4  -2  366.95   15.23
  -7   4   2  369.48   15.48
  -7   4   2  375.83   15.91
   7  -4   2  403.97   15.75
  -7  -4  -2  352.90   15.59
  -7  -4   2  391.30   14.55
  -7   4  -2  345.09   15.02
   7  -4  -2  362.60   14.93
  -7  -4   2  370.90   14.57
  -7   4  -2  334.47   14.99
  -7   4   3    9.04    1.56
  -7  -4  -3    9.75    1.28
  -7   4   3    9.50    1.46
  -7  -4  -3    8.89    1.26
   7  -4   3    8.96    1.63
  -7  -4   3    7.91    1.13
  -7   4  -3   10.82    1.50
   7  -4  -3    9.64    1.66
  -7   4  -3    9.17    1.27
  -7  -4  -4  123.55    6.07
  -7   4   4  131.30    6.73
  -7  -4  -4  127.91    6.16
  -7   4   4  134.56    6.36
  -7  -4  -4  116.66    6.08
  -7   4  -4  128.52    6.30
  -7  -4   4  126.64    6.15
  -7   4  -4  124.49    6.27
  -7  -4  -5    6.97    1.61
  -7  -4  -5    5.24    1.47
   7  -4   5    7.42    2.20
  -7   4   5    5.60    1.62
  -7   4   5    4.61    1.82
  -7   4  -5    6.24    2.71
  -7   4  -5    6.32    1.86
  -7   4  -5    6.34    1.70
  -7  -4  -6   25.42    3.20
  -7   4   6   28.26    3.25
  -7  -4  -6   21.24    2.69
  -7  -4  -6   20.51    2.79
  -7   4   6   36.09    4.50
  -7   4  -6   25.90    3.38
  -7   4  -6   22.44    2.95
  -7  -4  -7    5.35    2.24
  -7  -4  -7    6.87    3.04
  -7   4   7    4.91    2.32
  -7   4   7    8.97    3.55
  -7  -4  -7    9.31    2.45
  -7   4  -7    4.33    2.02
  -7   4  -7    9.72    3.03
  -7  -4  -8   11.69    3.33
  -7  -4  -8   13.03    3.38
  -7  -4  -8    7.97    5.03
  -7   4   8    7.33    3.09
  -7   4   8   14.05    4.98
  -7   4  -8   19.85    4.47
  -7  -4   8   10.35    3.19
  -7  -4   8   20.50    5.15
  -7   4  -8   12.00    3.36
   8  -4   0    0.24    1.01
  -8  -4   0    1.64    0.56
  -8  -4   0    1.20    0.60
  -8  -4   0    0.64    0.34
  -8   4   0   -0.34    0.57
  -8   4   0    1.36    0.87
  -8   4   1    1.86    1.13
  -8   4   1    0.41    0.69
  -8  -4  -1    0.86    1.09
  -8  -4  -1    0.81    0.42
   8  -4   1    0.80    1.09
  -8  -4  -1    0.86    0.59
  -8   4  -1    0.80    0.69
  -8   4  -1    0.69    0.76
  -8  -4   1    0.75    0.43
   8  -4  -1   -1.63    1.13
  -8  -4   1    0.78    0.95
  -8  -4   1    0.64    0.44
  -8   4   2   -0.77    0.58
  -8  -4  -2    0.65    0.55
  -8   4   2    2.09    1.11
  -8  -4  -2    0.93    0.67
  -8  -4   2    1.00    0.53
  -8  -4   2   -0.25    0.83
  -8  -4   2    0.69    0.93
  -8   4  -2    0.25    0.66
  -8   4  -2    0.44    0.78
  -8  -4  -3    4.45    0.98
   8  -4   3    1.26    1.40
  -8   4   3    2.56    0.92
  -8   4   3    3.49    1.37
  -8  -4  -3    2.58    0.87
  -8  -4   3    3.12    1.25
  -8   4  -3    4.97    1.16
  -8   4  -3    2.63    1.00
  -8   4   4    1.40    1.04
  -8   4   4    0.68    1.41
  -8  -4  -4    0.05    0.86
  -8  -4  -4    1.13    0.91
   8  -4   4    3.96    1.81
  -8  -4  -4   -0.20    1.01
  -8   4  -4    0.47    0.95
  -8   4  -4   -0.01    1.06
  -8   4   5   -1.01    1.65
   8  -4   5   -0.26    2.20
  -8  -4  -5    3.75    1.30
  -8  -4  -5    1.43    1.27
  -8   4   5    2.32    1.39
  -8  -4  -5    0.96    1.30
  -8   4  -5    1.52    1.32
  -8   4  -5    2.29    1.49
  -8   4  -5    1.17    1.51
  -8   4   6   -1.49    2.53
  -8   4   6    1.26    1.74
  -8  -4  -6   -0.34    1.69
  -8  -4  -6    1.68    1.78
  -8  -4  -6    0.93    1.86
   8  -4   6    0.17    2.95
  -8   4  -6    4.64    2.54
  -8   4  -6   -0.54    1.71
  -8   4  -6    1.79    2.15
  -8  -4  -7    0.66    2.86
  -8  -4  -7    1.62    2.37
  -8  -4  -7   -2.26    2.15
  -8   4   7   -0.50    2.25
  -8   4   7    2.86    3.43
  -8  -4   7   -0.99    2.09
  -8   4  -7   -4.14    3.62
  -8  -4   7    0.63    3.84
  -8   4  -7   -2.24    2.78
  -8   4  -7   -1.71    2.10
  -8   4   8   -3.77    2.72
  -8  -4  -8   10.16    5.54
  -8  -4  -8    3.54    3.11
  -8  -4  -8    3.35    3.06
  -8   4   8    5.83    5.34
  -8   4  -8    3.04    3.04
  -8   4  -8   -4.26    3.69
  -8  -4   8   -2.12    2.60
  -9   4   0   51.62    3.34
  -9  -4   0   56.58    2.93
  -9  -4   0   53.83    2.54
  -9   4   0   57.81    3.14
  -9  -4   0   57.95    2.70
  -9   4   1  160.90    8.36
  -9  -4  -1  177.31    7.29
  -9  -4  -1  171.73    7.24
  -9   4   1  166.57    7.75
   9  -4   1  182.41    7.88
  -9  -4   1  168.87    7.45
  -9   4  -1  171.76    7.75
  -9  -4   1  178.32    7.14
  -9   4  -1  159.80    7.59
  -9  -4   1  165.45    7.03
  -9   4   2   34.93    2.41
   9  -4   2   33.46    3.07
  -9   4   2   39.05    3.26
  -9  -4  -2   37.66    2.20
  -9  -4  -2   36.48    2.33
  -9  -4   2   37.88    2.64
  -9   4  -2   40.84    2.67
  -9  -4   2   34.33    2.05
  -9   4  -2   41.73    2.64
  -9  -4   2   35.53    2.70
  -9  -4  -3  154.51    6.83
  -9  -4  -3  146.73    6.77
   9  -4   3  147.03    7.31
  -9   4   3  135.74    6.84
  -9   4   3  147.45    7.54
  -9   4  -3  143.31    7.04
  -9   4  -3  147.48    7.04
  -9  -4   3  154.96    6.95
  -9  -4   3  142.64    6.54
  -9  -4  -4   15.80    2.14
  -9   4   4   19.26    2.75
  -9  -4   4   16.14    1.92
  -9   4  -4   18.66    2.41
  -9  -4   4   27.21    3.21
  -9   4  -4   22.19    2.29
  -9  -4  -5   67.24    4.74
  -9  -4  -5   71.95    4.57
  -9   4   5   74.72    5.46
  -9  -4  -5   68.00    4.41
  -9   4   5   64.62    4.55
  -9   4  -5   69.78    4.59
  -9   4  -5   66.63    4.71
  -9  -4   5   62.32    4.24
  -9  -4   5   69.67    5.55
  -9  -4  -6   12.04    2.52
  -9  -4  -6   12.93    2.79
  -9  -4  -6   12.11    2.48
  -9   4   6   11.53    2.55
  -9   4   6   11.39    3.56
  -9   4  -6   15.50    3.28
  -9  -4   6   11.38    2.37
  -9   4  -6   11.55    2.95
  -9   4  -6   12.06    2.55
  -9   4   7   14.95    4.71
  -9  -4  -7   22.18    3.77
  -9   4   7   22.83    3.54
  -9  -4  -7   23.18    3.54
  -9  -4  -7   29.49    4.34
  -9   4  -7   26.70    4.50
  -9   4  -7   19.85    3.38
  -9  -4   7   20.26    3.35
  -9  -4  -8    9.47    3.53
  -9  -4  -8    9.74    3.14
  -9  -4  -8    5.98    5.74
  -9   4   8   19.08    6.22
  -9   4   8    8.10    3.24
  -9   4  -8   12.16    4.53
  -9   4  -8    0.31    3.05
  -9  -4   8   11.92    3.24
 -10  -4   0    1.18    0.47
 -10  -4   0   -0.48    1.20
 -10   4   0    0.34    0.87
 -10  -4   0    0.86    0.83
 -10   4   0    0.59    0.71
 -10  -4  -1    1.37    0.58
 -10   4   1    1.69    1.30
 -10   4   1    0.95    0.84
 -10  -4  -1    1.89    0.84
 -10  -4   1    3.00    1.21
 -10  -4   1    1.78    1.30
 -10  -4   1    1.09    0.61
 -10   4  -1    1.61    0.83
 -10   4  -1    2.01    0.94
 -10   4   2    0.53    0.82
  10  -4   2    2.22    1.93
 -10  -4  -2    1.77    0.98
 -10  -4  -2    0.55    0.65
 -10   4   2    1.23    1.48
 -10   4  -2    0.62    0.86
  10   4   2    0.40    0.99
 -10  -4   2    1.01    0.62
 -10   4  -2    1.82    0.95
 -10   4   3    1.28    1.64
 -10  -4  -3    3.02    1.15
 -10   4   3    5.50    1.19
 -10  -4  -3    2.32    1.01
 -10   4  -3    1.69    1.05
 -10   4  -3    3.46    1.16
 -10  -4   3    2.33    0.82
 -10   4   4   -1.19    1.11
 -10  -4  -4    0.06    1.07
 -10  -4  -4   -0.26    1.27
 -10   4   4   -0.35    1.85
 -10   4  -4    2.17    1.85
 -10  -4   4   -0.18    0.93
 -10   4  -4    2.06    1.35
 -10  -4  -5    2.41    1.80
 -10  -4  -5   -1.74    1.37
 -10  -4  -5    0.95    1.49
 -10   4   5   -0.31    1.34
 -10   4  -5    0.67    1.77
 -10   4  -5    0.95    1.57
 -10  -4   5    1.38    1.46
 -10  -4  -6    0.76    1.77
 -10   4   6   -2.01    1.80
 -10   4   6   -3.29    3.24
 -10  -4  -6   -0.84    2.07
 -10  -4  -6    1.60    2.04
 -10   4  -6   -1.89    3.06
 -10  -4   6   -0.88    1.86
 -10   4  -6    0.49    2.45
 -10   4  -6    0.02    1.75
 -10   4   7   -4.36    2.33
 -10   4   7    8.87    4.93
 -10  -4  -7    4.24    2.78
 -10  -4  -7    3.79    3.31
 -10  -4  -7   -2.75    2.30
 -10   4  -7   -1.93    2.56
 -10   4  -7    8.69    4.95
 -10  -4   7   -1.84    2.33
 -10   4  -7   -1.88    3.33
 -11  -4   0   81.73    3.87
 -11   4   0   80.18    4.18
 -11   4   0   79.81    4.47
 -11  -4   0   76.69    3.63
 -11  -4  -1   67.20    3.22
 -11  -4  -1   69.45    3.45
 -11   4   1   65.94    4.36
 -11   4   1   57.41    3.65
 -11   4  -1   72.87    3.94
 -11   4  -1   66.80    3.71
 -11  -4   1   59.62    3.15
 -11   4   2   35.40    2.67
 -11  -4  -2   37.54    2.42
 -11   4   2   40.71    3.93
 -11  -4  -2   41.11    2.67
 -11   4  -2   38.64    2.85
 -11   4  -2   39.60    2.82
 -11  -4   2   40.08    2.30
 -11  -4  -3   98.85    4.88
 -11   4   3   80.32    5.73
 -11  -4  -3   84.77    5.00
 -11   4  -3   82.15    5.13
 -11   4  -3   96.16    4.91
 -11  -4   3   78.24    4.16
 -11   4   4    6.75    1.62
 -11  -4  -4    5.78    1.67
 -11   4   4    9.42    2.59
 -11  -4  -4    4.54    1.49
 -11   4  -4    7.06    1.95
 -11   4  -4    6.87    1.94
 -11  -4  -5   85.08    5.30
 -11  -4  -5   80.08    5.05
 -11   4   5   78.85    6.75
 -11   4   5   74.16    4.98
 -11  -4  -5   76.69    4.96
 -11  -4   5   73.52    4.76
 -11   4  -5   84.22    5.45
 -11   4  -5   78.33    5.55
 -11   4   6    0.82    2.13
 -11  -4  -6   -0.11    1.87
 -11  -4  -6   -0.61    2.32
 -11  -4  -6    0.72    2.39
 -11   4   6    1.94    4.05
 -11  -4   6    1.57    2.02
 -11   4  -6    0.52    3.75
 -11   4  -6   -1.51    2.45
 -11   4  -6    2.29    2.29
 -11  -4  -7   56.64    6.08
 -11  -4  -7   52.17    6.47
 -11   4   7   40.99    5.07
 -11   4   7   62.66    7.55
 -11  -4  -7   45.79    5.22
 -11   4  -7   35.49    4.72
 -11  -4   7   51.33    5.03
 -11   4  -7   50.73    6.01
 -12  -4   0    4.37    0.79
 -12   4   0    3.21    1.31
 -12   4   0    4.12    1.12
 -12   4   1    0.22    1.43
 -12   4   1    0.85    0.89
 -12  -4  -1   -0.05    1.23
 -12  -4  -1    0.27    0.62
 -12   4  -1    1.32    1.16
 -12  -4   1   -0.19    0.58
 -12   4  -1    0.76    0.88
 -12   4   2    4.96    2.17
 -12  -4  -2    1.56    0.88
 -12  -4  -2    1.49    1.30
 -12  -4   2    1.74    0.82
 -12   4  -2    1.13    1.34
 -12   4  -2    0.71    1.05
 -12  -4  -3   -0.14    1.06
 -12   4   3    1.14    1.18
 -12   4   3    1.84    2.29
 -12  -4  -3    0.51    1.39
 -12   4  -3    1.40    1.22
 -12  -4   3    0.28    0.88
 -12   4  -3   -0.03    1.09
 -12  -4  -4   -1.00    1.18
 -12   4   4    0.54    1.33
 -12  -4  -4    0.86    1.59
 -12   4   4    1.11    2.45
 -12   4  -4   -0.12    1.37
 -12  -4   4    0.56    1.19
 -12   4  -4    3.09    1.71
 -12   4   5    0.03    1.56
 -12   4   5    5.70    3.83
 -12  -4  -5   -0.26    1.59
 -12  -4  -5   -0.64    1.72
 -12  -4  -5   -0.48    2.18
 -12   4  -5    0.55    1.83
 -12  -4   5   -1.50    1.59
 -12   4  -5    3.16    2.26
 -12   4   6    3.32    4.66
 -12  -4  -6    0.54    2.03
 -12  -4  -6    0.73    2.48
 -12  -4  -6    0.33    2.41
 -12   4   6    2.35    2.01
 -12  -4   6    0.36    2.13
 -12   4  -6    1.71    2.83
 -12   4  -6    2.07    2.32
 -12   4  -6    1.18    4.10
 -12  -4  -7   -0.65    2.68
 -12   4   7   -0.32    6.39
 -12  -4  -7    0.86    3.94
 -12  -4  -7   -3.04    3.26
 -12   4   7    0.63    2.50
  12   4   7   -2.53    3.12
 -12   4  -7    3.91    5.91
 -12  -4   7    1.32    2.63
 -12   4  -7    4.14    3.88
 -12   4  -7   -0.31    3.05
 -13  -4   0   70.98    3.48
 -13   4   0   77.13    4.44
 -13   4   0   66.67    4.01
 -13  -4  -1   12.50    1.42
 -13   4   1   13.76    1.84
 -13   4   1   14.12    2.24
 -13   4  -1   14.58    2.05
 -13  -4   1   15.08    1.37
 -13   4  -1   11.71    1.75
 -13  -4  -2   65.28    4.02
 -13   4   2   63.61    4.05
 -13  -4  -2   61.71    3.65
 -13   4   2   71.90    5.34
 -13   4  -2   65.60    4.11
 -13  -4   2   66.57    3.51
 -13   4  -2   66.23    4.11
 -13  -4  -3    7.65    1.59
 -13   4   3    8.20    3.03
 -13   4   3    7.99    1.78
 -13  -4  -3    9.67    1.99
 -13   4  -3    7.26    1.98
 -13  -4   3    7.35    1.72
 -13   4  -3    8.15    1.78
 -13  -4  -4   39.61    3.49
 -13   4   4   39.67    3.48
 -13  -4  -4   44.37    4.97
 -13   4  -4   45.06    3.90
 -13   4  -4   37.17    3.78
 -13  -4   4   40.26    3.05
 -13   4   5    7.33    4.28
 -13  -4  -5    2.68    2.03
 -13   4   5    3.59    2.00
 -13  -4  -5   -0.08    1.70
 -13  -4  -5    4.14    2.45
 -13   4  -5   -0.73    2.25
 -13  -4   5    1.45    1.81
 -13   4  -5    4.76    2.52
 -13   4   6   31.98    6.12
 -13  -4  -6   21.83    3.48
 -13   4   6   21.11    3.33
 -13  -4  -6   28.49    4.26
 -13  -4  -6   27.71    4.07
 -13   4  -6   22.94    4.28
 -13   4  -6   26.01    5.53
 -13  -4   6   21.43    3.23
  13   4   6   22.83    3.69
 -13   4  -6   26.80    3.87
 -14   4   0   -2.09    0.92
 -14   4   0   -2.28    1.35
 -14  -4   0    0.04    0.76
 -14   4   1    1.12    1.57
 -14  -4  -1    0.19    0.93
 -14   4   1    2.31    1.14
 -14  -4   1    0.11    0.71
 -14   4  -1    0.93    1.06
 -14   4  -1   -1.43    1.29
 -14  -4  -2   -0.94    1.01
 -14   4   2    3.34    2.11
 -14   4   2   -0.28    1.24
 -14   4  -2   -1.65    1.07
 -14   4   3    1.35    3.02
 -14  -4  -3   -0.99    1.81
 -14   4   3    0.55    1.50
 -14  -4  -3    2.36    1.41
 -14   4  -3    1.66    1.54
 -14   4  -3   -1.17    1.51
 -14  -4   3   -0.32    1.09
 -14   4   4    2.06    3.86
 -14  -4  -4   -1.68    2.22
 -14  -4  -4    0.20    1.59
 -14   4   4   -0.54    1.61
 -14   4  -4    3.31    1.99
 -14  -4   4    0.56    1.42
 -14   4  -4   -0.39    1.81
 -14   4   5    7.04    4.96
 -14   4   5   -0.49    1.88
 -14  -4  -5   -0.58    1.93
 -14  -4  -5    3.45    2.91
 -14  -4  -5    2.25    2.07
 -14   4  -5    1.91    2.56
 -14   4  -5    2.69    2.46
 -14  -4   5    4.72    1.97
 -14  -4  -6    3.10    3.31
 -14  -4  -6    0.96    3.00
 -14  -4  -6    0.36    2.47
 -14   4   6   -5.25    2.23
 -14   4  -6    2.24    3.22
 -14  -4   6    2.98    2.55
 -14   4  -6   -0.98    3.12
 -14   4  -6    3.68    5.39
 -15  -4   0   76.50    4.00
 -15   4   0   75.06    4.55
 -15   4   0   81.06    4.87
 -15  -4  -1   21.02    2.16
 -15   4   1   19.97    2.73
 -15   4   1   15.34    2.07
 -15  -4   1   18.26    1.82
 -15   4  -1   19.68    2.47
 -15   4  -1   18.67    3.58
 -15   4   2   56.11    3.81
 -15  -4  -2   55.29    3.68
 -15   4   2   58.14    4.93
 -15  -4   2   50.58    3.07
 -15   4  -2   52.61    3.88
 -15   4  -2   56.58    4.07
 -15  -4  -3   21.85    2.81
 -15   4   3   21.77    4.22
 -15   4   3   18.21    2.66
 -15   4  -3   21.81    2.89
 -15   4  -3   14.88    2.52
 -15  -4   3   19.34    2.35
 -15   4   4   24.51    5.12
 -15  -4  -4   18.42    2.82
 -15   4   4   19.62    2.93
 -15   4  -4   21.00    3.15
 -15   4  -4   19.56    3.13
 -15  -4   4   21.90    2.78
 -15  -4  -5   19.29    3.93
 -15  -4  -5   16.64    2.96
 -15   4   5   20.44    3.14
 -15  -4  -5   18.47    3.20
 -15   4  -5   14.60    3.35
 -15  -4   5   20.56    2.84
 -15   4  -5   20.05    3.86
 -15  -4  -6    9.07    3.08
 -15  -4  -6    7.05    3.66
 -15   4   6   10.43    3.16
 -15  -4  -6   10.63    4.23
 -15   4  -6   16.13    6.56
 -15   4  -6   16.04    4.10
 -15  -4   6    9.71    3.11
 -15   4  -6   10.28    4.03
 -16  -4   0    0.24    1.11
 -16   4   0    3.32    2.10
 -16   4   0    1.61    1.36
 -16   4   1    0.28    1.24
 -16  -4  -1    0.74    1.21
 -16   4   1    0.33    2.35
 -16   4  -1   -1.30    1.74
 -16   4  -1    0.15    1.38
 -16  -4   1    1.27    1.01
 -16  -4  -2    0.85    1.42
 -16   4   2    1.40    1.39
 -16   4   2    1.80    2.75
 -16   4  -2    1.09    1.96
 -16   4  -2   -0.77    1.57
 -16  -4   2    1.61    1.09
 -16   4   3    0.93    1.75
 -16  -4  -3   -0.76    1.70
 -16   4   3    5.33    4.12
 -16   4  -3   -1.86    1.99
 -16  -4   3    2.19    1.43
 -16   4  -3    3.75    1.81
 -16  -4  -4   -1.06    2.09
 -16   4   4   -3.46    1.84
 -16   4  -4   -2.13    2.17
 -16  -4   4    1.19    1.87
 -16   4  -4   -1.03    2.64
 -16  -4  -5    2.37    2.59
 -16  -4  -5   -0.16    2.48
 -16   4   5    1.67    2.40
 -16  -4   5   -2.15    2.31
 -16   4  -5   -2.43    3.06
 -16   4  -5    1.56    2.78
 -17   4   0   14.64    2.29
 -17  -4   0   10.12    1.74
 -17   4   0    8.84    2.62
 -17  -4  -1   42.31    3.24
 -17   4   1   39.70    3.38
 -17   4   1   33.28    4.63
 -17   4  -1   36.56    3.50
 -17  -4   1   37.62    2.85
 -17   4  -1   41.38    4.23
 -17   4   2    6.34    1.91
 -17  -4  -2    9.36    2.11
 -17   4  -2    6.39    2.03
 -17  -4   2    5.99    1.50
 -17   4  -2    4.64    2.36
 -17  -4  -3   36.73    4.07
 -17   4   3   34.89    3.39
 -17   4  -3   34.78    4.07
 -17   4  -3   46.56    5.02
 -17  -4   3   34.96    3.06
 -17   4   4    3.48    2.31
 -17  -4  -4    3.29    2.44
 -17  -4   4    4.46    2.09
 -17   4  -4    4.43    2.73
 -17   4  -4    2.75    2.98
 -18  -4   0    3.96    1.60
 -18   4   0   -0.83    1.66
 -18  -4  -1   -0.60    1.73
 -18   4   1   -1.28    1.54
 -18   4  -1    3.23    1.83
 -18   4  -1    4.36    2.45
 -18  -4   1    0.11    1.46
 -18  -4  -2    2.89    2.08
 -18   4   2   -0.91    1.62
 -18   4  -2   -3.88    2.64
 -18  -4   2    1.29    1.51
 -18   4  -2    1.42    1.90
 -18   4   3   -0.75    1.85
 -18  -4  -3    1.77    2.30
 -18   4  -3    1.75    2.29
 -18  -4   3   -1.21    1.64
 -18   4  -3   -4.62    2.89
 -19  -4   0   25.20    3.28
 -19   4   0   17.86    2.88
 -19  -4  -1    6.09    2.21
 -19   4   1   -0.33    1.86
 -19  -4   1    3.14    1.87
 -19   4  -1    3.11    2.16
 -19   4   2   20.65    2.81
 -19  -4  -2   18.69    3.14
 -19   4  -2   20.06    3.12
 -19  -4   2   27.19    3.31
 -20  -4   0    1.23    2.33
   0   5   0   -0.37    0.23
   0  -5   0    0.18    0.24
   0   5   0    0.08    0.22
   0   5  -1  321.65   12.35
   0   5  -1  310.86   12.26
   0  -5   1  276.09   12.67
   0  -5  -1  314.49   12.45
   0  -5  -1  318.77   12.49
   0   5   1  309.69   12.46
   0   5   1  311.62   12.63
   0   5  -1  316.68   12.37
   0  -5  -2    0.00    0.34
   0   5   2    0.17    0.42
   0   5   2   -0.03    0.42
   0   5  -2   -0.15    0.28
   0  -5   2    0.31    0.46
   0  -5  -2    0.55    0.38
   0   5  -2    0.12    0.39
   0  -5  -2    0.24    0.39
   0   5  -3  170.37    7.39
   0  -5  -3  178.99    7.63
   0   5  -3  180.18    7.25
   0  -5  -3  177.24    7.54
   0  -5   3  165.83    7.75
   0  -5  -3  179.60    7.59
   0   5   3  170.21    7.63
   0   5  -4    0.88    0.86
   0  -5  -4   -0.33    0.65
   0   5  -4   -0.11    0.73
   0   5  -4    0.23    0.53
   0  -5  -4    0.01    0.70
   0  -5   4    0.19    0.82
   0  -5  -4   -0.58    0.62
   0  -5   5   85.19    5.01
   0  -5  -5   81.89    4.51
   0  -5  -5   82.67    4.63
   0   5  -5   92.87    4.49
   0  -5  -5   90.87    4.73
   0   5  -5   80.40    4.34
   0   5  -6   -0.49    0.95
   0   5  -6    0.37    1.36
   0  -5  -6    0.95    1.62
   0  -5  -6   -1.96    1.11
   0  -5   6    0.47    1.53
   0   5  -7   37.26    3.31
   0   5   7   41.96    4.08
   0   5   7   38.01    4.33
   0  -5  -7   35.28    3.74
   0  -5  -7   37.66    3.72
   0  -5   7   33.70    4.34
   0   5   8    2.14    2.89
   0   5   8   -0.02    2.95
   0   5  -8    2.61    2.10
   0   5   9   11.56    4.59
   0   5   9   12.80    4.44
   1   5   0    2.02    0.32
  -1  -5   0    2.19    0.30
   1  -5   0    1.42    0.41
   1   5   0    1.93    0.29
  -1   5   0    2.01    0.38
  -1   5   0    1.30    0.41
  -1   5   1  351.35   14.49
   1  -5   1  360.11   14.65
  -1  -5  -1  341.77   14.50
   1   5  -1  363.64   14.27
  -1   5   1  369.66   14.73
  -1  -5  -1  359.59   14.40
  -1  -5  -1  381.87   14.47
  -1   5  -1  356.97   14.37
   1  -5  -1  370.50   14.51
  -1   5  -1  351.69   14.33
  -1  -5   1  353.68   14.32
   1   5   1  363.26   14.32
  -1  -5  -2   14.74    1.16
  -1   5   2   14.16    1.27
   1   5  -2   17.34    1.02
   1   5  -2   16.74    0.96
  -1  -5  -2   16.65    1.12
  -1  -5  -2   16.01    1.13
   1  -5   2   13.74    1.31
  -1   5   2   14.17    1.20
  -1  -5   2   13.39    1.14
   1  -5  -2   17.28    1.23
   1   5   2   14.07    1.60
   1  -5  -2   16.54    1.14
  -1   5  -2   17.78    1.16
   1   5   2   14.40    1.19
  -1   5  -2   15.51    1.07
  -1   5  -2   17.31    1.05
   1  -5  -2   17.66    1.27
   1   5  -3  205.23    8.31
   1   5  -3  193.46    8.32
   1  -5   3  198.66    8.85
  -1  -5  -3  198.28    8.54
  -1  -5  -3  211.19    8.63
  -1  -5  -3  191.15    8.50
  -1   5   3  203.64    8.67
  -1   5   3  200.13    8.79
   1  -5  -3  195.83    8.54
  -1   5  -3  206.77    8.51
  -1   5  -3  199.07    8.50
  -1   5  -3  201.63    8.35
  -1  -5   3  205.64    8.78
   1  -5  -3  202.50    8.64
   1  -5  -3  195.93    8.66
   1   5  -4   34.95    2.03
  -1   5   4   30.19    2.38
  -1  -5  -4   31.78    2.23
  -1  -5  -4   33.77    2.24
   1  -5   4   29.19    2.55
  -1  -5  -4   34.23    2.25
  -1   5  -4   36.39    2.15
   1  -5  -4   34.90    2.21
   1  -5  -4   33.04    2.37
   1  -5  -4   33.47    2.35
  -1  -5   4   30.31    2.48
  -1   5  -4   33.16    2.14
  -1   5  -4   34.35    2.22
   1   5  -5   96.91    4.82
  -1  -5  -5   97.59    5.19
  -1  -5  -5   97.13    5.06
   1   5  -5  106.38    4.85
   1  -5   5   98.62    5.58
  -1   5   5   96.00    5.32
  -1  -5  -5   98.85    5.15
   1  -5  -5   98.67    5.04
   1  -5  -5   91.93    5.12
   1  -5  -5  102.63    5.27
  -1   5  -5   98.36    4.98
  -1  -5   5  100.39    5.53
  -1   5  -5  103.61    5.02
  -1  -5  -6   14.00    2.13
   1   5  -6   19.47    2.10
  -1  -5  -6   23.99    4.03
  -1   5   6   17.15    2.58
  -1  -5  -6   19.45    3.62
   1  -5   6   15.47    2.98
  -1  -5   6   21.61    2.89
   1  -5  -6   19.40    2.50
  -1   5  -6   19.95    2.25
  -1   5  -6   22.41    2.59
   1  -5  -6   16.07    2.19
  -1  -5  -7   51.84    4.13
  -1   5   7   47.78    4.78
  -1  -5  -7   45.74    4.19
   1   5  -7   46.40    3.57
   1  -5   7   42.92    4.63
  -1   5   7   52.10    4.51
  -1   5  -7   40.52    3.60
   1   5   7   52.21    4.59
  -1   5   8    5.74    3.27
  -1  -5  -8    9.85    2.68
  -1   5   8    8.08    3.21
   1   5  -8    9.22    2.45
   1   5   8    5.48    2.82
  -1   5  -8    8.51    2.43
   1   5   8   10.68    3.32
  -1   5   9   19.49    5.13
  -1   5   9   16.07    4.66
   1   5   9   15.28    4.42
  -1   5  -9   14.67    3.59
   1   5   9   15.11    4.95
  -2  -5   0  116.03    4.46
  -2  -5   0  105.63    4.42
  -2   5   0  108.34    4.93
  -2   5   0  108.05    4.67
  -2  -5   0  104.40    4.38
   2  -5   1   34.10    1.93
  -2   5   1   30.21    1.78
  -2  -5  -1   32.25    1.53
  -2  -5  -1   30.02    1.63
  -2  -5  -1   33.39    1.60
  -2   5   1   33.81    1.97
   2   5   1   34.04    1.61
  -2  -5   1   36.53    1.57
  -2   5  -1   33.96    1.75
  -2  -5   1   34.28    1.41
  -2   5  -1   34.85    1.80
   2  -5  -1   32.75    1.91
  -2  -5   1   34.54    1.42
  -2   5   2   66.99    3.31
   2  -5   2   64.25    3.28
  -2  -5  -2   60.59    2.95
  -2  -5  -2   60.77    2.92
   2   5  -2   62.87    2.71
  -2   5   2   62.81    3.10
  -2  -5   2   63.84    2.97
  -2   5  -2   59.90    2.96
  -2   5  -2   63.66    2.99
   2  -5  -2   61.38    3.11
   2   5   2   62.52    3.05
  -2  -5   2   65.46    2.80
   2   5   2   65.13    3.00
   2  -5   3   44.80    2.76
  -2  -5  -3   43.56    2.48
  -2  -5  -3   43.48    2.40
  -2   5   3   40.23    2.53
   2   5  -3   45.89    2.33
  -2  -5  -3   46.11    2.45
  -2   5   3   41.21    2.66
   2   5  -3   42.98    2.16
  -2   5  -3   45.48    2.46
  -2  -5   3   43.79    2.54
  -2   5  -3   43.70    2.35
   2  -5  -3   40.65    2.51
  -2   5  -3   44.89    2.42
  -2  -5  -4    5.88    1.07
   2  -5   4    7.73    1.58
  -2  -5  -4    7.99    1.24
  -2  -5  -4    5.98    1.05
  -2   5   4    7.79    1.36
   2   5  -4    7.51    1.09
  -2   5   4    6.62    1.26
   2   5  -4    7.48    0.97
  -2   5  -4    8.59    1.22
  -2   5  -4    8.41    1.33
  -2   5  -4    7.89    1.21
   2  -5  -4    7.15    1.23
  -2  -5   4    6.60    1.36
   2  -5  -4    6.02    1.26
   2   5  -5   12.54    1.69
  -2  -5  -5   17.82    2.02
  -2  -5  -5   18.58    1.94
  -2   5   5   22.19    2.44
  -2  -5  -5   20.42    2.05
   2   5  -5   16.22    1.59
  -2   5   5   16.37    2.05
   2  -5   5   20.18    2.47
  -2   5  -5   18.78    1.89
   2  -5  -5   17.00    1.98
  -2  -5   5   18.74    2.23
  -2   5  -5   18.89    1.98
   2  -5  -5   19.16    2.38
   2   5  -6    1.02    1.16
  -2  -5  -6   -0.59    1.10
  -2  -5  -6    0.76    1.33
  -2  -5  -6    0.90    1.46
  -2   5   6    0.92    1.69
  -2   5   6    0.36    1.48
   2   5  -6    0.94    2.35
  -2   5  -6    2.04    1.43
  -2  -5   6    2.01    1.53
  -2   5  -6   -0.67    1.13
   2  -5  -6    0.21    1.87
   2   5  -7    2.60    1.44
  -2  -5  -7    6.17    2.16
  -2   5   7    5.13    2.18
   2  -5   7    4.88    2.59
  -2  -5  -7   -2.88    2.59
  -2   5   7    1.42    2.20
  -2  -5  -7    3.34    1.88
   2   5   7    6.44    2.59
  -2   5  -7    3.14    1.60
  -2  -5  -8    3.98    2.31
  -2  -5  -8    0.99    2.47
  -2   5   8   -3.28    2.55
  -2   5   8    5.46    3.13
  -2   5  -8    3.07    2.15
   2   5   8   -0.64    2.57
   2   5   8    1.21    3.13
  -2   5  -9    1.26    3.02
  -3   5   0  428.14   17.96
  -3   5   0  400.83   18.20
  -3  -5   0  507.21   17.61
  -3  -5   0  449.89   17.57
  -3  -5   0  444.69   17.54
   3  -5   1   34.15    2.09
  -3  -5  -1   32.42    1.64
  -3   5   1   33.57    1.83
  -3  -5  -1   34.06    1.67
  -3   5   1   38.90    2.22
  -3   5  -1   31.79    1.83
  -3  -5   1   34.13    1.41
  -3   5  -1   32.12    1.76
   3   5   1   31.83    1.50
   3   5   1   32.67    1.61
  -3   5   2  353.39   14.26
   3  -5   2  351.08   14.47
  -3   5   2  344.23   14.44
  -3  -5  -2  343.15   14.08
  -3  -5  -2  344.28   14.02
  -3  -5  -2  344.18   14.06
  -3  -5   2  344.17   13.50
  -3  -5   2  347.12   13.35
   3   5   2  341.55   13.57
  -3   5  -2  329.43   13.67
   3  -5  -2  329.80   13.83
  -3   5  -2  317.77   13.66
   3  -5   3   23.82    1.99
  -3  -5  -3   21.97    1.66
  -3   5   3   23.57    1.94
  -3  -5  -3   24.95    1.61
  -3  -5  -3   20.87    1.56
   3   5  -3   22.14    1.32
  -3   5   3   22.58    1.70
  -3   5  -3   22.48    1.64
   3  -5  -3   25.82    1.94
  -3   5  -3   22.49    1.69
  -3  -5   3   23.00    1.70
   3  -5   4  170.63    8.02
  -3  -5  -4  171.30    7.54
  -3  -5  -4  154.71    7.51
  -3  -5  -4  168.35    7.58
  -3   5   4  164.11    7.89
  -3   5   4  179.25    7.81
   3   5  -4  172.84    7.05
   3   5  -4  153.72    7.09
  -3   5  -4  160.17    7.46
  -3   5  -4  167.59    7.47
  -3  -5   4  168.70    7.69
   3  -5  -4  163.60    7.58
  -3  -5  -5    4.24    1.10
  -3  -5  -5    5.01    1.31
   3   5  -5    4.90    0.99
  -3   5   5    4.82    1.43
  -3  -5  -5    4.15    1.23
  -3   5   5    4.46    1.26
   3  -5   5    5.61    1.44
  -3  -5   5    4.36    1.37
   3  -5  -5    4.08    1.59
  -3   5  -5    4.64    1.39
  -3   5  -5    1.84    0.87
  -3   5  -5    3.96    1.21
  -3   5   6   70.76    4.90
  -3  -5  -6   65.53    4.22
  -3  -5  -6   55.60    4.17
  -3   5   6   62.80    4.46
  -3  -5  -6   61.86    4.13
  -3  -5   6   61.31    4.58
  -3   5  -6   59.20    4.02
  -3   5  -6   66.47    4.21
  -3  -5  -7    0.79    1.81
  -3  -5  -7    3.38    2.78
  -3   5   7   -0.11    1.99
  -3   5   7    0.60    2.40
   3  -5   7    1.44    2.69
  -3  -5  -7    0.09    1.90
   3   5   7   -1.02    2.40
  -3   5  -7   -1.72    2.28
  -3   5  -7    0.91    1.59
  -3  -5  -8   19.36    3.39
  -3  -5  -8   23.65    3.80
  -3   5   8   19.61    3.66
  -3   5   8   23.24    4.57
   3   5   8   23.46    4.21
  -3   5  -8   22.41    3.33
   3   5   8   17.41    3.77
  -4  -5   0  414.37   15.62
  -4   5   0  374.68   16.47
  -4   5   0  403.31   16.20
  -4  -5   0  399.84   15.65
   4  -5   1    5.96    0.98
  -4   5   1    6.96    0.87
  -4  -5  -1    5.58    0.66
  -4   5   1    8.78    1.28
  -4  -5  -1    5.92    0.59
   4  -5  -1    7.32    1.18
   4   5   1    5.22    0.55
  -4   5  -1    7.05    0.99
  -4   5  -1    6.99    0.91
  -4  -5  -2  165.97    6.85
  -4   5   2  160.55    7.31
  -4  -5  -2  157.41    6.82
  -4   5   2  164.35    7.07
  -4  -5  -2  155.91    6.77
   4  -5   2  163.06    7.31
   4  -5  -2  154.66    7.03
  -4   5  -2  158.15    6.93
  -4   5  -2  156.25    6.92
   4   5   2  166.23    6.72
  -4  -5   2  157.91    6.57
  -4  -5   2  165.01    6.49
  -4  -5  -3    7.10    1.03
  -4  -5  -3    7.40    1.00
  -4   5   3    8.97    1.49
  -4   5   3    5.83    1.04
   4  -5   3    8.88    1.45
  -4  -5  -3    8.44    1.10
  -4   5  -3    6.74    1.07
  -4  -5   3    7.01    1.05
  -4   5  -3    8.25    1.07
   4  -5  -3    9.85    1.36
  -4  -5  -4   29.89    2.21
  -4   5   4   36.80    2.51
  -4  -5  -4   25.44    2.07
  -4  -5  -4   30.54    2.26
  -4   5   4   32.68    2.66
   4  -5   4   31.89    2.70
   4  -5  -4   27.94    2.52
  -4   5  -4   29.86    2.21
  -4   5  -4   28.72    2.16
  -4   5  -4   29.68    2.17
  -4  -5   4   33.86    2.42
  -4  -5  -5    8.06    1.46
   4  -5   5    4.46    1.56
  -4   5   5    6.33    1.70
  -4  -5  -5    4.69    1.31
  -4   5   5    6.40    1.55
  -4  -5  -5    7.15    1.56
  -4   5  -5    8.42    1.50
  -4  -5   5    3.61    1.27
  -4   5  -5    5.69    1.21
  -4   5  -5    4.91    1.32
  -4   5   6    2.53    1.75
  -4  -5  -6    2.13    1.50
  -4  -5  -6    3.32    1.56
  -4   5   6    1.23    1.94
   4  -5   6    4.48    2.46
  -4   5  -6    5.57    1.73
  -4  -5   6    3.97    1.67
  -4   5  -6    6.39    1.55
  -4  -5  -7   -2.31    1.74
   4  -5   7    6.72    3.22
  -4   5   7    3.74    2.52
  -4  -5  -7    2.90    2.02
  -4  -5  -7    3.45    2.84
  -4   5   7    0.94    2.13
  -4   5  -7    2.87    2.55
  -4   5  -7    1.55    1.70
  -4  -5  -8   -0.10    4.39
  -4   5   8    4.30    3.80
  -4   5   8    1.48    2.69
  -4  -5  -8    0.56    2.45
  -4  -5  -8    1.73    2.36
  -4   5  -8    3.10    2.45
  -4   5  -8   -4.90    3.24
   4   5   8    1.48    2.60
   4   5   8    2.79    3.62
  -5   5   0  236.70   10.02
   5  -5   0  231.64   10.31
  -5   5   0  240.43   10.37
  -5  -5   0  243.40    9.39
  -5   5   1  118.74    5.29
  -5   5   1  122.74    5.77
  -5  -5  -1  114.67    4.95
  -5  -5  -1  116.14    4.94
   5  -5   1  119.81    5.54
  -5   5  -1   95.60    4.73
   5  -5  -1  113.67    4.84
  -5   5  -1   93.38    4.58
  -5   5   2  149.11    6.71
  -5   5   2  149.67    7.05
  -5  -5  -2  157.05    6.50
  -5  -5  -2  154.55    6.50
   5  -5   2  146.28    6.96
  -5   5  -2  156.01    6.82
   5  -5  -2  151.94    7.00
  -5   5  -2  159.73    6.86
  -5  -5   2  149.42    6.30
  -5  -5   2  155.01    6.26
  -5  -5  -3   94.80    4.74
  -5  -5  -3   93.92    4.72
  -5   5   3  108.91    5.29
  -5   5   3  106.10    4.99
   5  -5   3  103.56    5.24
  -5  -5  -3  100.07    4.71
  -5   5  -3   98.79    4.82
  -5  -5   3  103.26    4.68
   5  -5  -3   97.55    4.94
  -5   5  -3   97.71    4.80
  -5  -5  -4   74.62    3.95
  -5  -5  -4   69.97    3.86
  -5   5   4   73.14    4.08
  -5  -5  -4   76.41    3.99
   5  -5   4   72.55    4.42
  -5   5   4   68.85    4.37
  -5   5  -4   70.68    3.88
  -5  -5   4   70.20    3.98
  -5   5  -4   74.63    4.02
   5  -5  -4   73.78    4.22
  -5   5  -4   75.67    4.09
  -5  -5  -5   33.40    2.74
  -5   5   5   39.53    3.05
  -5   5   5   35.97    3.41
  -5  -5  -5   43.21    3.01
   5  -5   5   37.86    3.44
  -5  -5  -5   33.50    2.78
  -5   5  -5   34.10    2.85
  -5   5  -5   34.35    2.79
  -5   5  -5   36.29    2.86
  -5  -5   5   34.29    2.86
  -5  -5  -6   31.72    3.30
   5  -5   6   34.66    3.94
  -5  -5  -6   36.50    3.38
  -5   5   6   34.82    3.43
  -5   5   6   31.88    4.10
  -5  -5  -6   32.00    3.12
  -5   5  -6   33.19    3.17
  -5   5  -6   28.35    3.66
  -5  -5  -7    7.76    2.93
  -5  -5  -7    7.72    2.22
   5  -5   7    9.89    3.79
  -5   5   7    8.35    2.52
  -5  -5  -7    6.46    2.27
  -5   5   7    9.66    3.06
  -5   5  -7    7.75    2.23
  -5   5  -7    9.19    2.77
  -5   5   8    9.23    4.07
  -5  -5  -8   12.99    3.11
  -5   5   8   13.74    3.31
  -5  -5  -8    5.80    4.61
  -5  -5  -8   15.76    3.39
   5   5   8   10.81    3.34
   5   5   8    2.37    3.95
  -5   5  -8   12.61    3.06
  -5   5  -8   -0.98    3.52
  -6  -5   0    0.37    0.20
  -6   5   0   -0.54    0.74
   6  -5   0    0.87    0.74
  -6   5   0   -0.01    0.50
   6  -5   1   45.25    2.76
  -6  -5  -1   46.97    2.19
  -6   5   1   42.03    2.99
  -6  -5  -1   45.83    2.15
  -6   5   1   44.87    2.54
  -6   5  -1   38.94    2.32
  -6   5  -1   35.51    2.38
   6  -5  -1   40.25    2.38
  -6   5   2    0.65    0.87
  -6   5   2    1.68    0.69
  -6  -5  -2    2.15    0.57
   6  -5   2   -0.84    0.86
  -6  -5  -2    2.13    0.64
  -6   5  -2    1.56    0.67
   6  -5  -2    1.25    0.92
  -6   5  -2    1.03    0.65
  -6  -5   2    1.20    0.38
   6   5   2    0.89    0.61
  -6  -5   2    1.79    0.44
  -6  -5  -3   69.69    3.44
  -6   5   3   63.76    4.02
  -6  -5  -3   70.85    3.52
  -6  -5  -3   71.64    3.52
   6  -5   3   58.63    3.90
  -6   5   3   62.75    3.60
  -6   5  -3   69.17    3.75
  -6  -5   3   63.67    3.41
  -6  -5   3   68.18    3.42
  -6   5  -3   75.69    3.82
   6  -5  -3   70.41    3.96
  -6   5   4    5.18    1.48
   6  -5   4    4.27    1.53
  -6  -5  -4    4.47    1.16
  -6   5   4    3.24    1.00
  -6  -5  -4    5.12    1.07
  -6  -5  -4    3.08    1.08
   6  -5  -4    4.68    1.84
  -6   5  -4    3.71    1.05
  -6  -5   4    5.56    1.21
  -6   5  -4    6.00    1.35
  -6  -5  -5   39.63    2.97
  -6   5   5   34.48    3.49
   6  -5   5   33.99    3.40
  -6  -5  -5   36.14    2.87
  -6   5  -5   40.47    3.19
  -6   5  -5   38.79    3.10
  -6  -5  -6    2.50    1.60
  -6   5   6    2.03    1.61
  -6  -5  -6    2.51    1.69
  -6   5   6   -3.35    2.01
   6  -5   6   -1.82    2.16
  -6  -5  -6    5.51    1.82
  -6   5  -6    2.35    1.89
  -6   5  -6    0.88    1.59
  -6   5  -6   -0.08    1.89
  -6   5   7   15.92    3.85
  -6  -5  -7   10.97    3.30
  -6  -5  -7   15.45    2.92
  -6   5   7   11.05    2.75
  -6  -5  -7   11.01    2.64
  -6   5  -7    8.66    2.94
  -6   5  -7    9.05    2.35
   6   5   7    0.75    3.29
  -6  -5  -8    2.60    2.65
  -6  -5  -8    3.02    4.83
  -6   5   8    0.93    3.98
  -6  -5  -8   -0.28    2.64
  -6   5   8   -1.69    2.75
  -6   5  -8   -1.99    3.69
   6   5   8   -1.33    2.62
  -6   5  -8    0.79    2.59
   6   5   8   -2.47    4.03
  -7  -5   0   19.51    1.01
  -7   5   0   22.81    1.63
   7  -5   0   17.59    1.85
  -7   5   0   22.19    2.04
  -7   5   1  159.02    7.27
  -7  -5  -1  166.91    6.81
   7  -5   1  161.39    7.64
  -7  -5  -1  170.44    6.99
  -7  -5  -1  170.40    6.83
  -7   5   1  152.98    7.83
  -7   5  -1  129.85    6.44
  -7  -5   1  158.26    5.85
  -7   5  -1  139.18    6.64
   7  -5   2    8.69    1.54
  -7  -5  -2    7.01    0.96
  -7  -5  -2    8.42    1.19
  -7   5   2    9.27    1.12
  -7   5   2    6.64    1.44
   7  -5  -2    8.63    1.40
  -7  -5   2    8.64    0.89
  -7   5  -2    9.35    1.32
  -7  -5   2    7.78    0.77
  -7   5  -2    7.95    1.24
   7   5   2    9.84    1.23
  -7  -5  -3  129.49    5.87
  -7  -5  -3  132.15    5.88
   7  -5   3  123.52    6.37
  -7   5   3  124.78    6.48
  -7   5   3  117.71    5.99
  -7  -5   3  116.38    5.63
  -7  -5   3  116.48    5.48
   7  -5  -3  123.29    6.00
  -7   5  -3  125.08    5.92
  -7   5  -3  125.62    5.94
  -7  -5  -4    3.03    1.24
  -7   5   4    4.20    1.48
  -7  -5  -4    3.86    1.06
   7  -5   4    3.93    1.58
  -7   5   4    3.15    1.09
  -7  -5  -4    3.57    1.03
  -7   5  -4    3.54    1.11
  -7  -5   4    1.96    1.00
  -7   5  -4    4.22    1.19
  -7  -5  -5   75.16    4.63
  -7  -5  -5   77.61    4.65
   7  -5   5   82.45    5.35
  -7  -5  -5   76.47    4.59
  -7   5   5   77.94    4.82
  -7   5   5   78.45    5.27
  -7   5  -5   78.53    4.82
  -7   5  -5   74.69    6.31
  -7   5   6    3.38    1.82
  -7  -5  -6    0.18    1.81
  -7   5   6    2.54    2.56
  -7  -5  -6    1.90    1.66
  -7  -5  -6   -1.10    1.55
   7  -5   6   -2.12    2.49
  -7   5  -6   -2.15    2.00
  -7   5  -6   -0.23    1.56
  -7   5  -6    2.23    2.08
  -7   5   7   48.58    4.65
  -7   5   7   45.81    6.15
  -7  -5  -7   42.01    4.36
  -7  -5  -7   44.46    4.53
  -7  -5  -7   43.72    5.49
  -7   5  -7   38.02    4.32
  -7   5  -7   50.13    5.69
  -7  -5  -8   -7.40    4.81
  -7  -5  -8   -3.89    2.50
  -7   5   8    0.86    4.59
  -7  -5  -8   -0.25    2.89
  -7   5   8    1.14    2.96
  -7   5  -8    0.54    2.83
  -7   5  -8    1.58    3.92
   7   5   8    3.71    3.02
  -8   5   0   48.41    2.74
  -8  -5   0   42.61    2.04
  -8  -5   0   44.75    2.16
  -8   5   0   50.03    3.10
  -8  -5   0   45.83    2.08
   8  -5   0   45.42    2.97
   8  -5   1   37.44    2.73
  -8   5   1   34.77    3.04
  -8  -5  -1   36.02    1.88
  -8  -5  -1   37.40    2.44
  -8   5   1   34.40    2.37
  -8  -5  -1   37.68    1.99
  -8  -5   1   33.47    1.68
  -8   5  -1   34.26    2.34
   8  -5  -1   37.65    2.66
  -8   5  -1   35.14    2.50
  -8   5   2   20.38    2.42
  -8   5   2   19.22    1.75
  -8  -5  -2   17.02    1.41
   8  -5   2   20.33    2.57
  -8  -5  -2   17.20    1.74
  -8  -5   2   17.92    1.73
  -8   5  -2   18.44    1.81
  -8  -5   2   19.06    1.21
  -8   5  -2   19.75    1.80
   8   5   2   15.13    1.76
   8  -5  -2   19.84    2.38
  -8  -5   2   16.48    1.48
  -8  -5  -3   41.68    2.57
  -8   5   3   36.27    3.11
  -8  -5  -3   37.34    2.42
  -8   5   3   33.58    2.53
   8  -5   3   31.22    3.06
  -8   5  -3   43.27    2.83
  -8   5  -3   39.32    2.78
  -8  -5   3   35.06    2.31
  -8  -5  -4    0.72    0.86
  -8   5   4    4.15    1.63
   8  -5   4    1.44    1.69
  -8  -5  -4    0.43    0.78
  -8  -5  -4    1.53    1.17
  -8   5   4    0.04    0.96
  -8   5  -4    0.23    0.88
  -8   5  -4    2.08    1.15
  -8  -5  -5   28.99    2.87
  -8   5   5   34.33    3.18
  -8  -5  -5   36.99    3.12
  -8   5   5   35.95    3.98
  -8  -5  -5   36.95    3.10
  -8   5  -5   36.44    3.27
  -8   5  -5   29.08    3.09
  -8   5  -5   36.19    3.43
  -8  -5  -6    0.85    1.76
   8  -5   6    2.29    3.04
  -8   5   6    0.54    1.86
  -8  -5  -6    0.12    1.71
  -8  -5  -6   -0.36    1.78
  -8   5   6    1.54    2.79
  -8   5  -6   -0.34    2.80
  -8   5  -6   -0.43    1.91
  -8   5  -6    0.40    1.72
  -8  -5  -7   22.09    3.90
  -8  -5  -7   24.30    4.04
  -8   5   7   21.60    4.78
  -8  -5  -7   15.11    3.01
  -8   5   7   18.63    3.50
  -8   5  -7   21.96    4.11
  -8   5  -7   17.10    3.10
  -8  -5  -8   -4.82    2.73
  -8   5   8  -10.06    4.78
  -8   5   8   -1.65    2.83
  -8  -5  -8    5.04    3.10
  -8  -5  -8    2.89    5.21
  -8   5  -8   -3.48    3.94
  -8  -5   8    1.10    2.78
  -8   5  -8    0.43    2.91
   8   5   8    1.44    2.93
  -9   5   0   21.92    2.21
  -9  -5   0   23.37    1.54
   9  -5   0   24.31    2.46
  -9  -5   0   22.75    1.29
  -9  -5   0   24.71    1.68
  -9   5   0   25.31    1.95
  -9  -5  -1   50.03    2.54
  -9  -5  -1   52.30    2.65
  -9   5   1   52.53    3.12
  -9   5   1   47.45    3.76
   9  -5   1   52.61    3.48
  -9  -5  -1   53.69    3.39
  -9  -5   1   50.02    2.37
  -9   5  -1   51.40    3.07
   9  -5  -1   49.32    3.36
  -9   5  -1   48.54    3.15
  -9  -5   1   51.56    2.36
  -9   5   2   34.48    2.40
  -9   5   2   35.93    3.32
   9  -5   2   35.26    3.08
  -9  -5  -2   36.37    2.20
  -9  -5  -2   38.40    2.39
  -9   5  -2   36.58    2.65
  -9  -5   2   32.99    1.93
  -9   5  -2   39.21    2.64
   9   5   2   33.27    1.93
  -9  -5   2   38.29    2.38
  -9  -5  -3   33.38    2.49
  -9   5   3   29.40    2.37
  -9  -5  -3   29.50    2.24
   9  -5   3   36.98    3.26
  -9   5   3   29.77    3.17
  -9   5  -3   33.46    2.64
  -9   5  -3   30.85    2.49
  -9  -5   3   31.71    2.09
  -9   5   4   46.83    4.11
  -9  -5  -4   39.29    3.37
  -9  -5  -4   52.11    3.34
  -9   5   4   43.07    3.57
  -9   5  -4   51.47    3.64
  -9  -5  -5   13.40    2.11
  -9  -5  -5   13.54    2.21
  -9  -5  -5   14.55    2.32
  -9   5   5   14.37    2.45
  -9   5  -5   16.10    2.64
  -9   5  -5   14.65    2.32
  -9   5   6   32.74    3.70
  -9  -5  -6   35.24    3.76
  -9   5   6   41.44    5.31
  -9  -5  -6   36.68    3.95
  -9  -5  -6   28.49    3.92
  -9   5  -6   39.20    4.52
  -9  -5   6   36.33    3.68
  -9   5  -6   35.60    3.93
  -9  -5  -7    3.54    2.81
  -9   5   7    4.42    2.56
  -9   5   7   10.95    4.28
  -9  -5  -7    2.95    3.20
  -9  -5  -7    6.89    2.53
  -9  -5   7    8.72    2.68
  -9   5  -7    5.19    2.83
  -9   5  -7    9.97    3.78
  -9  -5  -8   26.99    6.46
  -9   5   8   17.85    3.88
  -9  -5  -8   21.81    3.95
  -9  -5  -8   15.08    3.76
  -9   5   8   29.40    7.03
  -9  -5   8   19.10    3.62
  -9   5  -8   16.43    4.85
  -9   5  -8   20.14    4.13
   9   5   8   16.17    3.88
 -10   5   0   55.80    3.58
 -10  -5   0   58.36    3.19
 -10  -5   0   58.40    3.38
 -10  -5   0   54.04    2.61
 -10   5   0   56.80    3.28
  10  -5   1    6.97    1.89
 -10   5   1    6.78    1.69
 -10  -5  -1    7.62    1.12
 -10  -5  -1    6.17    0.86
 -10   5   1    5.47    1.20
 -10   5  -1    5.63    1.13
 -10  -5   1    8.23    1.17
 -10  -5   1    6.11    0.78
 -10   5  -1    6.55    1.35
 -10   5   2   49.59    4.00
 -10   5   2   49.36    3.00
 -10  -5  -2   41.30    2.54
 -10  -5  -2   42.52    2.79
 -10  -5   2   50.08    3.14
 -10   5  -2   41.55    2.98
 -10   5  -2   43.38    3.06
 -10  -5   2   45.10    2.37
 -10  -5  -3    6.39    1.44
 -10  -5  -3    8.39    1.33
 -10   5   3    9.78    2.18
  10  -5   3    1.39    1.97
 -10   5   3    8.45    1.47
 -10  -5   3    6.56    1.08
 -10   5  -3    6.04    1.35
 -10   5  -3    7.46    1.53
 -10   5   4    9.09    2.37
 -10  -5  -4   13.25    1.98
 -10   5   4   11.34    1.83
 -10  -5  -4    9.03    1.72
 -10  -5  -4    9.93    1.79
 -10   5  -4    9.15    2.00
 -10  -5   4   14.41    1.83
 -10   5  -4    7.24    1.90
 -10  -5  -5    2.84    1.57
 -10  -5  -5   -1.29    1.77
 -10   5   5    3.57    1.74
 -10  -5  -5   -0.29    1.42
 -10   5   5    6.05    2.87
 -10  -5   5    3.51    1.62
 -10   5  -5   -0.38    1.78
 -10   5  -5    1.26    1.88
 -10   5   6   -0.66    1.86
 -10  -5  -6   -0.23    1.74
 -10  -5  -6    1.76    2.24
 -10  -5  -6    0.62    2.10
 -10   5   6    4.34    3.59
 -10   5  -6    2.50    2.02
 -10   5  -6    2.54    2.59
 -10   5  -6   -2.40    3.18
 -10  -5   6    1.86    1.99
 -10   5   7    3.17    4.59
 -10   5   7    0.74    2.40
 -10  -5  -7    0.68    2.44
 -10  -5  -7   -2.49    2.90
 -10  -5  -7   -0.01    3.08
  10   5   7   -1.64    2.62
 -10  -5   7   -0.87    2.45
 -10   5  -7    2.96    2.91
 -10   5  -7   -1.75    3.52
 -11  -5   0  141.88    6.05
 -11   5   0  144.01    6.75
 -11   5   0  143.51    7.04
 -11   5   1   10.57    2.13
 -11  -5  -1   11.48    1.40
 -11  -5  -1    8.46    1.12
 -11   5   1   11.05    1.65
 -11   5  -1   10.60    1.59
 -11   5  -1   11.64    1.74
 -11  -5   1    8.43    0.97
 -11   5   2  103.30    5.49
 -11   5   2  100.90    6.53
 -11  -5  -2  111.15    5.28
 -11  -5  -2  111.05    5.10
 -11   5  -2  113.03    5.74
 -11   5  -2  113.42    5.76
 -11  -5   2  105.37    4.91
 -11   5   3   12.25    2.75
 -11  -5  -3    9.76    1.81
 -11   5   3    8.05    1.58
 -11   5  -3    9.60    1.81
 -11  -5   3    8.44    1.23
  11   5   3   10.49    1.14
 -11   5  -3    8.66    1.68
 -11   5   4   55.14    4.88
 -11  -5  -4   48.76    3.50
 -11   5   4   50.04    3.64
 -11  -5  -4   48.32    3.75
 -11   5  -4   47.19    3.84
 -11   5  -4   53.26    4.08
 -11  -5  -5    7.04    1.87
 -11   5   5    9.67    3.69
 -11  -5  -5    7.49    2.12
 -11  -5  -5   13.19    2.45
 -11   5   5    8.75    2.17
 -11   5  -5   11.10    2.80
 -11  -5   5    7.96    1.96
 -11   5  -5   10.60    2.47
 -11  -5  -6   16.75    3.14
 -11  -5  -6   20.00    3.57
 -11   5   6   22.15    3.20
 -11   5   6   16.63    4.66
 -11  -5  -6   16.50    2.87
 -11   5  -6   19.93    4.52
 -11   5  -6   22.14    3.88
 -11  -5   6   19.43    2.88
 -11   5  -6   15.51    3.26
 -11  -5  -7    7.16    2.94
 -11   5   7   13.51    5.79
 -11  -5  -7    7.00    3.68
 -11  -5  -7   10.84    3.83
 -11   5   7    3.55    2.72
 -11  -5   7   13.52    3.10
  11   5   7    8.60    3.20
 -11   5  -7    4.57    3.22
 -11   5  -7    3.72    4.08
 -12   5   0   31.96    2.50
 -12   5   0   35.88    2.93
 -12  -5   0   35.01    1.96
 -12   5   1   10.53    2.16
 -12  -5  -1   14.02    1.39
 -12   5   1   14.27    1.78
 -12   5  -1   17.77    2.21
 -12   5  -1   12.71    2.03
 -12  -5   1   12.74    1.18
 -12  -5  -2   17.95    1.70
 -12   5   2   18.44    3.04
 -12   5   2   16.20    2.20
 -12  -5  -2   20.59    2.45
 -12   5  -2   16.12    2.13
 -12   5  -2   18.47    2.23
 -12  -5   2   16.62    1.52
 -12  -5  -3   18.89    2.16
 -12   5   3   11.96    2.03
 -12   5   3   20.14    3.47
 -12  -5  -3   20.63    2.74
 -12  -5   3   17.98    1.71
 -12   5  -3   16.58    2.43
 -12  -5  -4    4.86    1.63
 -12   5   4    5.31    1.68
 -12  -5  -4    7.65    2.01
 -12  -5   4    4.52    1.41
 -12   5  -4    4.64    1.89
  12   5   4    4.75    1.43
 -12   5  -4    6.27    2.01
 -12   5   5    9.03    4.08
 -12   5   5   11.65    2.36
 -12  -5  -5   13.47    2.49
 -12  -5  -5   11.57    2.86
 -12  -5  -5   12.59    2.26
 -12  -5   5   10.94    2.18
  12   5   5   10.36    2.37
 -12   5  -5   12.91    2.89
 -12   5  -5   12.17    2.66
 -12  -5  -6    0.20    2.18
 -12  -5  -6    1.11    2.80
 -12  -5  -6    4.77    2.53
 -12   5   6    2.22    2.23
 -12   5   6    0.98    4.89
 -12   5  -6   -3.52    4.25
  12   5   6    2.45    2.71
 -12  -5   6    6.14    2.43
 -12   5  -6    5.50    3.33
 -12   5  -6    3.22    2.63
 -12  -5  -7    4.94    4.00
 -12   5   7    3.38    2.77
 -12  -5  -7    4.83    2.78
 -12  -5  -7    6.34    4.05
 -12   5   7   -5.88    6.31
 -12  -5   7    8.37    3.02
 -12   5  -7    2.54    4.40
  12   5   7    8.06    3.63
 -12   5  -7   -1.46    3.47
 -13   5   0   -0.72    0.96
 -13   5   0   -0.35    1.31
 -13  -5   0   -0.56    0.66
 -13  -5  -1   72.68    3.79
 -13   5   1   78.90    4.91
 -13   5   1   77.23    4.36
 -13  -5   1   74.76    3.53
 -13   5  -1   76.91    4.53
 -13   5  -1   72.46    4.34
 -13   5   2    5.20    2.27
 -13   5   2    1.61    1.26
 -13  -5  -2    2.35    1.07
 -13   5  -2    3.08    1.44
 -13   5  -2    1.23    1.29
 -13  -5   2    3.05    0.91
 -13   5   3   55.82    5.46
 -13   5   3   44.00    3.64
 -13  -5  -3   50.64    3.47
 -13  -5  -3   51.35    3.95
 -13   5  -3   43.46    3.75
 -13   5  -3   49.87    3.82
 -13   5   4    7.27    3.57
 -13  -5  -4    7.12    2.30
 -13  -5  -4    1.28    1.64
 -13   5   4    4.07    1.75
 -13   5  -4    2.97    1.76
 -13   5  -4    3.26    2.09
 -13  -5   4    3.67    1.42
 -13  -5  -5   16.67    2.86
 -13  -5  -5   18.65    2.87
 -13   5   5   22.70    5.08
 -13   5   5   19.94    2.97
 -13  -5  -5   23.61    3.55
 -13   5  -5   26.18    3.84
 -13   5  -5   24.27    3.93
 -13  -5   5   35.67    3.36
 -13  -5  -6    2.58    2.71
 -13  -5  -6    1.80    2.33
 -13  -5  -6    2.49    3.36
 -13   5   6    9.27    5.38
 -13   5   6    0.34    2.43
 -13   5  -6    2.76    3.53
 -13   5  -6    5.54    2.94
  13   5   6   -2.54    3.04
 -13  -5   6    4.89    2.53
 -13   5  -6    3.44    4.92
 -14   5   0   18.81    2.25
 -14  -5   0   21.50    1.72
 -14   5   0   18.69    2.44
 -14   5   1    8.67    2.19
 -14   5   1    4.16    1.35
 -14  -5  -1    5.60    1.23
 -14   5  -1    5.13    1.71
 -14  -5   1    3.82    0.93
 -14   5  -1    6.92    1.47
 -14  -5  -2   11.28    1.66
 -14   5   2    9.52    2.54
 -14   5   2    8.17    1.90
 -14   5  -2    9.34    1.98
 -14   5  -2    6.77    1.68
 -14   5   3   11.65    4.07
 -14  -5  -3   16.52    2.19
 -14   5   3    9.83    2.08
 -14  -5   3   13.21    1.69
 -14   5  -3   12.47    2.34
 -14   5  -3   13.83    2.58
 -14   5   4   -1.86    4.03
 -14  -5  -4    6.60    2.69
 -14  -5  -4    0.31    1.66
 -14   5   4   -0.12    1.64
 -14   5  -4    2.31    2.14
 -14  -5   4    0.85    1.43
 -14   5  -4   -0.54    1.83
 -14  -5  -5    8.67    2.49
 -14   5   5   17.05    5.58
 -14  -5  -5   10.62    3.39
 -14  -5  -5   12.33    2.66
 -14   5   5   10.97    2.63
 -14  -5   5    7.90    2.17
 -14   5  -5    8.32    3.03
 -14   5  -5   10.42    3.14
 -14   5   6    6.49    6.70
 -14  -5  -6   -0.33    3.01
 -14   5   6   -2.46    2.32
 -14  -5  -6    1.61    3.69
 -14  -5  -6    3.06    2.76
 -14   5  -6    5.01    5.83
 -14   5  -6   -2.51    3.36
 -14  -5   6    2.11    2.62
 -14   5  -6   -0.52    3.15
 -15   5   0   24.76    2.54
 -15  -5   0   23.20    2.01
 -15   5   1   11.73    1.93
 -15  -5  -1   13.49    1.76
 -15   5  -1   15.08    2.48
 -15  -5   1   12.48    1.45
 -15   5  -1   15.36    2.25
 -15   5   2   16.62    2.26
 -15  -5  -2   17.93    2.20
 -15   5   2   16.07    3.37
 -15   5  -2   17.04    2.41
 -15   5  -2   15.42    2.41
 -15  -5   2   18.83    1.86
 -15   5   3   14.15    2.39
 -15   5   3   17.94    4.01
 -15  -5  -3   14.64    2.31
 -15   5  -3   19.90    2.82
 -15  -5   3   14.61    1.87
 -15   5  -3   11.19    2.41
 -15  -5  -4   11.97    2.49
 -15   5   4   10.33    2.53
 -15   5   4   12.27    4.89
 -15   5  -4    5.30    2.37
 -15   5  -4   10.91    2.74
 -15  -5   4    9.97    1.93
 -15  -5  -5   18.22    3.09
 -15  -5  -5   16.08    2.98
 -15   5   5   11.89    2.99
 -15   5   5   15.44    6.52
 -15   5  -5   17.49    3.90
 -15   5  -5   12.35    3.46
 -15  -5   5   15.64    2.66
 -16  -5   0   12.61    1.68
 -16   5   0   14.86    2.23
 -16   5   0   17.37    2.79
 -16   5   1    9.63    2.50
 -16  -5  -1    3.71    1.43
 -16   5   1    2.78    1.43
 -16   5  -1    3.77    2.14
 -16   5  -1    4.77    1.62
 -16  -5   1    4.51    1.26
 -16  -5  -2    8.41    1.93
 -16   5   2    7.04    1.81
 -16   5   2   12.59    3.09
 -16   5  -2    4.62    1.99
 -16   5  -2    8.94    2.25
 -16  -5   2    9.01    1.43
 -16   5   3    0.72    3.52
 -16  -5  -3    4.43    1.94
 -16   5   3    2.00    1.78
 -16  -5   3    1.34    1.31
 -16   5  -3    2.48    2.00
 -16   5  -3    1.79    2.35
 -16   5   4    0.57    7.00
 -16   5   4    0.56    2.05
 -16  -5  -4    2.59    2.19
 -16   5  -4    0.04    2.67
 -16   5  -4    2.66    2.44
 -16  -5   4    7.30    2.07
 -16  -5  -5    5.89    2.61
 -16   5   5    3.90    2.73
 -16   5  -5   -2.43    3.25
 -16   5  -5    1.57    3.16
 -16  -5   5   -1.19    2.41
 -17  -5   0   20.86    2.43
 -17   5   0   14.87    2.38
 -17   5   0   19.90    3.24
 -17   5   1    0.32    1.53
 -17   5   1   -2.27    2.43
 -17  -5  -1    0.95    1.58
 -17   5  -1   -0.50    2.21
 -17  -5   1    1.61    1.33
 -17   5  -1    0.21    1.62
 -17  -5  -2   19.10    2.59
 -17   5   2   19.91    3.66
 -17   5   2   16.13    2.49
 -17   5  -2   21.78    3.28
 -17  -5   2   20.32    2.31
 -17   5  -2   16.02    2.83
 -17   5   3    0.66    1.79
 -17  -5  -3    4.09    2.18
 -17   5  -3    1.59    2.64
 -17  -5   3    1.58    1.45
 -17   5  -3    0.80    2.16
 -17   5   4   15.79    2.97
 -17  -5  -4   18.61    3.14
 -17   5  -4   19.69    3.58
 -17   5  -4   12.14    3.40
 -17  -5   4   20.98    2.54
 -18  -5   0    8.69    1.85
 -18   5   0    7.18    2.87
 -18   5   0    5.68    2.02
 -18   5   1   -1.13    1.66
 -18  -5  -1   -1.90    1.72
 -18   5  -1    1.81    1.87
 -18   5  -1   -0.44    2.43
 -18  -5   1   -0.66    1.50
 -18  -5  -2    8.50    2.47
 -18   5   2    8.26    2.15
 -18  -5   2    8.60    1.86
 -18   5  -2    6.19    2.41
 -18   5  -2   10.45    3.27
 -18  -5  -3    4.33    2.59
 -18   5   3    4.12    2.05
 -18  -5   3    0.76    1.77
 -18   5  -3    2.91    3.10
 -18   5  -3    1.30    2.38
 -19   5   0   15.79    2.66
 -19  -5   0   16.20    2.50
 -19   5   1   15.75    2.65
 -19  -5  -1   18.17    2.81
 -19  -5   1   23.87    2.63
 -19   5  -1   19.85    3.09
 -19   5   2   12.12    2.49
 -19  -5  -2   15.27    3.01
 -19   5  -2   15.80    3.91
 -19   5  -2   11.99    2.82
 -19  -5   2   13.22    2.22
   0  -6   0  101.47    4.37
   0   6   0  102.04    4.23
   0   6   1    0.18    0.41
   0   6  -1   -0.30    0.29
   0   6  -1   -0.06    0.23
   0   6   1    0.00    0.31
   0  -6   1    0.62    0.38
   0  -6  -1    0.14    0.31
   0   6   2   82.92    3.98
   0   6   2   88.91    3.84
   0  -6  -2   82.56    3.83
   0  -6   2   84.42    3.97
   0  -6  -2   80.49    3.77
   0  -6  -2   81.15    3.86
   0   6  -2   81.51    3.63
   0   6  -2   80.32    3.63
   0   6   3   -0.01    0.57
   0   6   3    0.04    0.59
   0  -6  -3   -0.41    0.56
   0   6  -3    0.01    0.38
   0  -6   3    0.08    0.62
   0   6  -3    0.72    0.59
   0  -6  -3    0.07    0.54
   0  -6  -3   -0.19    0.54
   0   6   4   84.30    4.28
   0  -6   4   86.07    4.53
   0  -6  -4   74.83    4.04
   0   6   4   86.07    4.48
   0  -6  -4   77.51    4.13
   0   6  -4   77.19    3.91
   0  -6  -4   77.44    4.20
   0   6   5    0.16    0.99
   0  -6  -5    0.13    0.78
   0  -6   5   -1.34    1.11
   0   6  -5    0.25    1.10
   0  -6  -5   -0.72    0.98
   0  -6  -5   -0.34    0.91
   0   6   5    0.83    1.15
   0   6  -5    0.22    0.74
   0  -6  -6   40.08    3.50
   0   6   6   49.70    4.08
   0  -6   6   49.83    4.14
   0   6  -6   44.90    3.14
   0  -6  -6   44.50    3.44
   0  -6  -6   46.14    3.66
   0  -6  -7    0.77    1.64
   0   6   7   -1.43    1.97
   0   6   7   -2.34    2.03
   0  -6   7   -1.31    2.30
   0  -6  -7    3.18    2.72
   0   6  -7   -0.84    1.41
   0   6   8    7.42    3.15
   0   6   8    9.28    3.37
   0   6  -8   14.32    2.62
   1  -6   0  181.06    7.66
  -1   6   0  185.84    7.49
  -1   6   0  183.69    7.69
   1   6   0  179.86    7.36
  -1   6   1  121.03    5.10
  -1  -6  -1  118.92    5.07
   1  -6   1  116.82    5.25
  -1  -6  -1  120.54    5.00
  -1  -6  -1  116.83    5.00
   1   6  -1  116.84    4.83
  -1   6   1  120.29    5.35
   1   6   1  118.03    5.14
  -1   6  -1  114.87    4.97
  -1  -6   1  119.75    5.01
   1  -6  -1  119.60    5.18
  -1   6  -1  119.23    5.01
   1   6   1  119.00    4.95
  -1  -6  -2  173.11    7.26
   1   6  -2  174.86    7.01
  -1  -6  -2  173.36    7.25
  -1   6   2  175.35    7.35
  -1   6   2  162.72    7.48
   1  -6   2  164.56    7.49
  -1  -6  -2  180.00    7.32
   1   6  -2  167.94    7.02
  -1  -6   2  165.66    7.12
  -1   6  -2  172.79    6.97
  -1   6  -2  166.65    6.85
   1   6   2  159.69    7.16
  -1   6  -2  163.82    6.96
   1  -6  -2  168.53    7.15
  -1   6   3   44.53    2.49
  -1   6   3   42.77    2.60
  -1  -6  -3   38.96    2.33
   1  -6   3   42.12    2.65
  -1  -6  -3   40.49    2.32
   1   6  -3   38.58    2.09
  -1  -6  -3   37.63    2.35
   1   6  -3   40.72    2.33
  -1   6  -3   41.43    2.21
   1  -6  -3   38.14    2.37
  -1   6  -3   38.03    2.08
   1  -6  -3   38.13    2.34
   1   6   3   36.19    2.39
   1  -6  -3   37.17    2.20
  -1  -6   3   41.67    2.47
   1   6   3   42.18    2.37
  -1   6  -3   37.77    2.15
   1   6  -4  130.29    5.71
  -1  -6  -4  128.66    5.91
  -1  -6  -4  120.54    5.77
  -1   6   4  121.71    6.11
  -1  -6  -4  127.25    5.81
   1  -6   4  115.89    6.10
   1   6  -4  115.55    5.46
  -1   6   4  116.95    5.88
   1  -6  -4  121.20    5.74
  -1  -6   4  119.21    6.09
  -1   6  -4  125.59    5.52
   1  -6  -4  130.15    5.94
   1  -6  -4  123.31    5.95
  -1   6  -4  127.08    5.68
  -1   6  -4  116.77    5.64
   1   6   4  122.00    5.91
  -1  -6  -5    7.53    1.36
  -1   6   5    9.61    1.69
  -1  -6  -5    6.01    1.37
   1  -6   5    8.92    1.96
   1   6  -5    5.19    1.28
  -1   6   5    9.96    1.81
   1   6  -5    6.15    1.09
  -1  -6  -5    5.47    1.21
   1  -6  -5    6.06    1.43
  -1   6  -5    6.64    1.42
  -1  -6   5    6.95    1.68
   1  -6  -5    5.60    1.30
   1   6   5    9.94    1.67
  -1   6  -5    8.00    1.31
   1  -6  -5    6.07    1.42
  -1  -6  -6   59.57    4.16
  -1  -6  -6   56.64    3.95
  -1  -6  -6   62.84    4.22
   1   6  -6   55.10    3.53
  -1   6   6   62.68    4.29
   1  -6   6   58.19    4.62
  -1   6   6   57.03    4.47
   1  -6  -6   54.63    4.05
  -1  -6   6   55.96    4.42
   1   6   6   59.34    5.53
  -1   6  -6   55.39    3.71
   1   6   6   54.16    4.33
   1  -6  -6   62.13    4.31
  -1   6   7    1.82    2.37
  -1  -6  -7   -0.61    2.89
   1  -6   7   -4.18    2.21
   1   6  -7   -0.24    1.30
  -1   6   7    1.84    2.08
  -1  -6  -7    0.70    1.78
  -1  -6  -7   -0.33    1.69
   1   6   7    0.70    2.25
   1   6   7   -0.18    1.85
  -1  -6   7   -1.54    2.17
  -1   6  -7   -4.06    2.04
  -1   6  -7    0.01    1.45
   1  -6  -7   -1.23    2.78
  -1   6   8   16.38    3.60
  -1   6   8   17.54    3.91
   1   6  -8   16.47    2.75
  -1   6  -8   15.97    2.90
   1   6   8   18.82    3.76
   1   6   8   17.92    3.85
  -2   6   0   40.60    2.02
   2   6   0   39.74    1.66
   2  -6   0   42.30    2.26
   2   6   0   40.26    1.65
  -2   6   0   44.04    2.31
  -2  -6   0   39.11    1.72
  -2  -6  -1  274.56   10.89
  -2   6   1  273.95   11.09
  -2  -6  -1  278.61   10.94
   2  -6   1  270.35   11.29
  -2  -6  -1  253.41   10.88
  -2   6   1  273.03   11.39
   2  -6  -1  277.49   10.98
   2   6   1  270.37   10.54
   2   6   1  265.74   10.71
  -2   6  -1  251.74   10.76
  -2  -6   1  252.04   10.49
  -2   6  -1  262.53   10.72
  -2   6   2   55.99    2.90
  -2  -6  -2   57.01    2.74
  -2   6   2   54.96    3.09
  -2  -6  -2   59.20    2.78
   2  -6   2   54.08    3.07
  -2  -6  -2   56.61    2.80
   2   6  -2   58.87    2.47
   2   6   2   54.65    2.69
   2   6   2   50.87    2.77
  -2   6  -2   63.57    2.77
  -2   6  -2   55.68    2.72
  -2  -6   2   53.57    2.71
   2  -6  -2   55.10    2.90
  -2  -6  -3  176.77    7.66
  -2   6   3  176.06    8.00
  -2  -6  -3  171.80    7.62
   2  -6   3  174.54    8.03
  -2  -6  -3  176.97    7.70
   2   6  -3  173.74    7.31
  -2   6   3  183.23    7.82
   2   6  -3  177.54    7.25
  -2   6  -3  175.11    7.54
  -2   6  -3  172.39    7.55
  -2   6  -3  175.60    7.44
   2  -6  -3  172.90    7.72
   2   6   3  175.36    7.60
  -2  -6   3  177.55    7.71
   2   6   3  173.83    7.73
  -2  -6  -4   60.19    3.28
   2   6  -4   55.39    2.85
   2   6  -4   58.98    2.92
  -2  -6  -4   61.69    3.31
  -2   6   4   51.29    3.51
  -2  -6  -4   55.50    3.27
   2  -6   4   53.90    3.61
  -2   6   4   54.04    3.32
  -2   6  -4   55.07    3.13
   2  -6  -4   56.88    3.38
  -2   6  -4   56.42    3.04
   2   6   4   53.84    3.28
  -2   6  -4   61.24    3.24
  -2  -6   4   55.37    3.46
  -2  -6  -5   48.18    3.27
  -2   6   5   52.20    3.49
  -2   6   5   51.36    3.67
   2   6  -5   48.29    2.82
  -2  -6  -5   50.26    3.24
  -2  -6  -5   51.23    3.31
   2  -6   5   51.85    3.81
   2  -6  -5   49.68    3.69
  -2  -6   5   56.49    3.69
  -2   6  -5   48.69    3.17
   2   6   5   49.61    3.45
  -2   6  -5   51.24    3.18
  -2   6   6   22.01    2.97
  -2   6   6   26.40    3.42
  -2  -6  -6   24.22    2.88
  -2  -6  -6   22.04    2.80
  -2  -6  -6   23.35    2.49
   2  -6   6   25.40    3.41
   2   6  -6   26.16    2.28
  -2  -6   6   19.18    2.88
  -2   6  -6   23.65    2.50
  -2   6  -6   30.24    2.84
   2   6   6   30.14    3.02
   2  -6   7   12.04    3.12
  -2  -6  -7   10.34    2.45
  -2   6   7   13.69    2.91
  -2  -6  -7   12.14    3.23
  -2  -6  -7   14.79    2.90
   2   6  -7   12.97    2.04
  -2   6   7   14.29    3.10
   2   6   7   12.92    2.87
   2   6   7    6.94    2.32
  -2  -6   7   10.89    2.81
  -2   6  -7   11.09    2.15
  -2  -6  -8   16.00    3.17
  -2   6   8   10.72    3.61
  -2  -6  -8   10.95    2.99
  -2   6   8    9.58    3.26
   2   6   8   11.81    3.27
  -2   6  -8    9.81    2.64
   2   6   8    8.95    3.69
   3  -6   0    0.48    0.56
  -3   6   0    0.93    0.50
  -3  -6   0   -0.07    0.32
  -3  -6   0    0.95    0.23
  -3   6   0    0.93    0.55
  -3  -6   0    1.24    0.32
  -3   6   1  205.79    9.04
  -3  -6  -1  203.99    8.42
   3  -6   1  213.77    8.97
  -3  -6  -1  204.27    8.37
  -3   6   1  204.55    8.66
  -3  -6  -1  211.03    8.45
   3   6   1  179.01    8.13
  -3   6  -1  191.86    8.35
   3  -6  -1  202.66    8.52
  -3   6  -1  205.51    8.28
  -3  -6   1  211.64    7.89
  -3   6   2    2.49    0.64
  -3   6   2    3.15    0.87
  -3  -6  -2    4.79    1.26
  -3  -6  -2    3.64    0.63
  -3  -6  -2    3.55    0.59
   3  -6   2    3.26    0.90
  -3   6  -2    3.13    0.62
  -3  -6   2    3.09    0.58
   3  -6  -2    3.07    0.80
  -3   6  -2    3.37    0.73
   3   6   2    2.98    0.60
  -3  -6   2    2.66    0.47
   3   6   2    3.58    0.65
  -3   6   3   96.99    4.71
  -3  -6  -3   96.49    4.60
   3  -6   3   97.64    5.03
  -3  -6  -3   88.80    4.52
  -3  -6  -3   92.90    4.51
  -3   6   3  113.46    5.13
   3   6  -3   95.04    4.12
   3   6   3   99.66    4.50
  -3  -6   3   99.29    4.56
   3  -6  -3   91.03    4.68
  -3   6  -3   90.67    4.47
  -3   6  -3   91.86    4.47
   3  -6   4    5.26    1.38
  -3  -6  -4    5.67    1.08
   3   6  -4    6.58    0.87
  -3  -6  -4    6.53    1.19
  -3   6   4    4.86    1.44
  -3   6   4    4.97    1.08
  -3  -6  -4    4.72    1.09
   3  -6  -4    8.69    1.58
  -3  -6   4    5.93    1.28
  -3   6  -4    8.04    1.26
  -3   6  -4    8.55    1.30
  -3   6  -4    8.46    1.33
  -3  -6  -5   27.66    2.40
   3   6  -5   25.91    1.89
  -3   6   5   28.60    2.84
  -3  -6  -5   27.17    2.45
  -3  -6  -5   26.07    2.20
   3  -6   5   26.38    2.90
  -3   6   5   27.50    2.55
  -3   6  -5   30.54    2.50
  -3  -6   5   26.28    2.61
  -3   6  -5   26.56    2.25
   3  -6  -5   25.59    2.86
  -3   6   6    1.58    1.83
  -3   6   6    5.40    1.95
  -3  -6  -6    4.65    1.82
  -3  -6  -6    5.70    1.74
   3  -6   6    4.48    2.16
   3   6   6    8.78    1.99
   3  -6  -6   -1.23    2.27
  -3  -6   6    4.95    1.85
  -3   6  -6    9.21    1.86
  -3   6  -6    5.01    1.41
  -3  -6  -7   21.97    3.60
  -3  -6  -7   12.26    2.62
   3  -6   7    9.98    3.25
  -3  -6  -7    9.88    2.33
  -3   6   7   10.42    2.61
  -3   6   7   12.06    3.07
   3   6   7   11.49    2.73
  -3   6  -7   13.34    2.37
   3   6   7   12.50    3.04
  -3  -6  -8    0.31    2.47
  -3   6   8    5.53    3.03
  -3  -6  -8   -0.71    2.41
  -3  -6  -8    2.78    4.44
  -3   6   8    2.24    3.21
  -3   6  -8    1.06    2.28
   3   6   8    0.74    3.43
   3   6   8    1.42    2.56
  -4  -6   0   19.08    0.92
   4  -6   0   17.70    1.56
  -4  -6   0   20.87    1.00
  -4   6   0   21.41    1.42
  -4   6   0   21.07    1.72
  -4   6   1   88.07    4.43
   4  -6   1   78.36    4.17
  -4  -6  -1   90.10    3.70
  -4  -6  -1   87.43    3.67
  -4   6   1   80.16    3.93
   4   6   1   79.19    3.37
   4  -6  -1   90.54    4.18
  -4   6  -1   88.49    3.89
   4   6   1   80.21    3.46
  -4  -6   1   81.62    3.32
  -4   6  -1   79.87    3.96
  -4   6   2   14.42    1.64
  -4   6   2   14.18    1.26
  -4  -6  -2   15.33    1.20
  -4  -6  -2   15.47    1.11
  -4  -6  -2   16.29    1.19
   4  -6   2   13.24    1.55
  -4   6  -2   14.57    1.23
   4  -6  -2   15.00    1.48
   4   6   2   13.00    1.11
  -4   6  -2   16.62    1.33
  -4  -6   2   14.62    0.88
  -4  -6   2   13.25    0.96
   4   6   2   15.48    1.11
  -4   6   3   38.69    2.86
  -4  -6  -3   47.27    2.56
  -4  -6  -3   47.15    2.60
  -4   6   3   41.57    2.67
   4  -6   3   39.00    2.90
  -4  -6  -3   49.03    2.54
  -4   6  -3   44.31    2.61
  -4  -6   3   44.52    2.55
   4  -6  -3   49.70    2.92
  -4   6  -3   45.00    2.60
   4   6   3   42.45    2.54
  -4   6   4   12.17    1.90
  -4  -6  -4   14.64    1.82
  -4  -6  -4   12.75    1.49
   4  -6   4    9.83    1.77
  -4   6   4    9.37    1.50
  -4  -6  -4   12.23    1.44
  -4   6  -4   11.40    1.55
  -4   6  -4   12.52    1.53
  -4   6  -4   11.09    1.65
  -4  -6   4   10.63    1.60
  -4  -6  -5   40.39    3.04
   4  -6   5   45.77    3.70
  -4  -6  -5   43.08    2.99
  -4   6   5   44.99    3.65
  -4   6   5   43.78    3.13
  -4  -6  -5   42.57    3.05
  -4   6  -5   41.48    2.94
  -4  -6   5   38.66    3.14
  -4   6  -5   44.52    3.15
  -4   6   6    5.01    1.74
   4  -6   6    8.21    2.46
  -4  -6  -6    6.44    1.92
  -4   6   6    5.72    2.10
  -4  -6  -6    3.82    1.55
  -4  -6  -6    4.55    1.76
   4   6   6    9.97    3.21
  -4   6  -6    9.99    2.09
  -4  -6   6    4.17    1.91
  -4   6  -6    4.85    1.62
  -4   6   7   31.08    4.02
  -4  -6  -7   33.24    3.95
  -4  -6  -7   32.73    3.63
  -4  -6  -7   48.59    5.06
   4  -6   7   30.87    4.37
  -4   6   7   32.51    4.62
   4   6   7   32.74    4.15
  -4   6  -7   28.38    3.44
   4   6   7   34.76    4.18
  -4  -6  -8    0.09    2.55
  -4  -6  -8    1.82    2.61
  -4  -6  -8    0.98    4.63
  -4   6   8    8.56    3.80
  -4   6   8    3.85    3.10
   4   6   8   -9.84    3.62
  -4   6  -8    5.27    3.90
   4   6   8    4.75    2.83
  -4   6  -8    3.12    2.30
   5  -6   0    6.00    1.07
  -5   6   0    7.46    1.04
  -5  -6   0    6.19    0.41
  -5  -6   0    5.86    0.55
  -5   6   0    8.48    1.33
  -5   6   1  114.87    5.69
   5  -6   1  114.99    5.45
  -5  -6  -1  111.71    4.77
  -5   6   1  113.98    5.19
  -5  -6  -1  111.73    4.78
  -5   6  -1   93.71    4.88
   5  -6  -1  109.40    5.05
  -5   6  -1  108.81    4.85
  -5   6   2   31.81    2.10
  -5  -6  -2   35.66    1.91
   5  -6   2   26.61    2.30
  -5  -6  -2   36.75    1.99
  -5   6   2   32.32    2.47
  -5  -6   2   32.77    1.51
   5  -6  -2   34.98    2.36
  -5   6  -2   37.60    2.22
  -5  -6   2   31.77    1.57
   5   6   2   29.36    1.79
  -5   6  -2   37.03    2.13
   5   6   2   31.86    1.78
   5  -6   3   54.67    3.50
  -5  -6  -3   53.68    2.95
  -5   6   3   56.64    3.58
  -5  -6  -3   50.48    2.89
  -5  -6  -3   56.00    3.00
  -5   6   3   55.37    3.20
  -5   6  -3   53.33    3.03
  -5  -6   3   53.10    2.68
  -5   6  -3   51.76    2.99
   5  -6  -3   50.45    3.20
  -5  -6   3   51.33    2.78
  -5  -6  -4   58.42    3.30
  -5   6   4   56.03    3.49
   5  -6   4   50.74    3.82
  -5   6   4   53.76    3.81
  -5  -6  -4   61.86    3.45
  -5  -6  -4   62.84    3.42
  -5  -6   4   57.58    3.51
  -5   6  -4   60.95    3.43
  -5   6  -4   60.74    3.56
   5  -6  -4   57.23    3.75
  -5   6  -4   63.04    3.63
  -5  -6  -5   15.88    2.20
  -5   6   5   13.34    2.34
  -5  -6  -5   11.70    1.75
  -5   6   5   12.29    2.23
   5  -6   5   13.68    2.48
  -5   6  -5   10.18    1.79
  -5   6  -5   13.24    2.06
  -5  -6  -6   42.76    3.78
  -5   6   6   38.04    3.70
  -5  -6  -6   46.05    3.59
  -5   6   6   39.48    4.43
   5  -6   6   40.70    5.04
  -5  -6  -6   44.36    3.69
  -5   6  -6   39.98    3.52
   5   6   6   44.06    3.77
  -5   6  -6   42.88    4.25
  -5  -6   6   38.51    3.85
   5  -6   7    0.28    3.27
  -5  -6  -7    8.05    2.53
  -5  -6  -7    5.46    2.25
  -5   6   7    3.06    2.47
  -5  -6  -7    9.61    3.08
  -5   6   7    7.25    3.18
  -5   6  -7    8.24    2.83
   5   6   7   -1.93    2.85
   5   6   7    2.85    2.19
  -5   6  -7    3.36    2.16
  -5  -6  -8   11.86    3.11
  -5  -6  -8    0.01    4.70
  -5  -6  -8   10.97    3.18
  -5   6   8   20.16    3.79
  -5   6   8   16.15    4.41
  -5   6  -8    1.74    3.61
   5   6   8   -2.98    3.95
   5   6   8   12.08    3.28
  -6   6   0   72.64    4.01
   6  -6   0   68.86    3.84
  -6  -6   0   72.66    2.98
  -6   6   0   76.94    3.71
  -6  -6  -1   69.17    3.14
  -6   6   1   72.36    4.20
  -6  -6  -1   68.72    3.18
   6  -6   1   68.83    3.86
  -6   6   1   76.38    3.67
   6  -6  -1   66.49    3.49
  -6   6  -1   52.50    3.34
  -6   6  -1   69.25    3.36
   6  -6   2  100.54    5.20
  -6   6   2  105.83    5.41
  -6  -6  -2   99.63    4.59
  -6   6   2   94.53    4.83
  -6  -6  -2  108.44    4.64
  -6   6  -2   98.45    4.87
  -6  -6   2  104.36    4.16
  -6   6  -2  101.51    4.95
   6   6   2   97.24    4.41
  -6  -6   2  100.31    4.15
   6  -6  -2  100.25    5.06
  -6  -6   2  105.32    4.29
  -6   6   3   50.09    3.02
  -6   6   3   52.49    3.49
  -6  -6  -3   46.58    2.69
  -6  -6  -3   48.03    2.85
  -6  -6  -3   45.79    2.72
   6  -6   3   49.43    3.33
  -6   6  -3   48.31    3.03
  -6  -6   3   51.17    2.76
   6  -6  -3   46.25    3.31
   6   6   3   48.91    2.78
  -6   6  -3   52.82    3.06
  -6  -6   3   54.24    2.72
  -6  -6  -4  101.74    5.06
  -6  -6  -4   97.26    4.98
   6  -6   4   97.58    5.64
  -6   6   4   97.29    5.65
  -6  -6  -4   97.29    4.97
  -6   6   4   97.87    5.22
  -6   6  -4  100.52    5.08
  -6   6  -4   96.55    5.07
   6  -6  -4   84.44    5.25
  -6  -6   4   94.30    4.85
  -6  -6  -5    8.47    1.64
  -6   6   5   11.89    2.01
  -6   6   5   10.31    2.02
   6  -6   5   10.71    2.35
  -6  -6  -5   11.16    1.78
  -6  -6   5   13.52    2.02
  -6   6  -5   10.70    1.90
  -6   6  -5    7.53    1.67
  -6   6  -5   12.57    1.99
  -6  -6  -6   50.62    3.99
  -6   6   6   38.35    3.88
  -6  -6  -6   51.46    4.09
  -6   6   6   48.34    4.82
  -6  -6  -6   45.16    3.70
  -6  -6  -7   -1.25    2.06
  -6  -6  -7    2.58    2.87
  -6  -6  -7    1.24    2.10
  -6   6   7   -1.40    2.13
  -6   6   7   -1.25    2.69
   6  -6   7    6.62    3.74
  -6   6  -7   -3.92    1.70
   6   6   7    0.85    2.11
  -6   6  -7   -0.86    2.67
   6   6   7    3.92    3.17
  -6  -6  -8   17.90    3.58
  -6   6   8   23.18    4.03
  -6  -6  -8   18.30    3.64
  -6   6   8   17.31    4.98
   6   6   8   19.07    3.78
  -6   6  -8   19.12    3.47
  -7   6   0  108.30    5.41
  -7   6   0  108.03    5.04
   7  -6   0   98.50    5.15
  -7  -6   0  107.66    4.31
  -7  -6  -1   -0.05    0.55
  -7   6   1    1.13    0.76
  -7   6   1    0.45    1.10
  -7  -6  -1    1.19    0.44
   7  -6   1   -0.06    0.96
   7  -6  -1    1.42    1.05
  -7   6  -1   -0.21    0.71
  -7   6  -1    0.64    0.69
  -7  -6  -2  108.78    4.73
  -7  -6  -2  100.50    4.67
  -7   6   2  102.11    5.03
   7  -6   2  101.94    5.35
  -7   6   2  101.84    5.58
  -7  -6   2   87.27    4.26
   7   6   2   95.34    4.19
  -7   6  -2   95.02    4.85
  -7  -6   2  100.50    4.18
  -7  -6   2   99.46    4.02
  -7   6  -2  101.01    4.96
   7  -6  -2  103.67    5.02
  -7  -6  -3   -0.15    0.61
  -7   6   3    1.77    1.39
   7  -6   3   -1.31    1.17
  -7   6   3   -0.04    0.75
  -7  -6  -3    0.25    0.69
  -7  -6  -3   -0.84    0.84
  -7  -6   3    0.47    0.66
   7   6   3   -0.35    0.95
  -7   6  -3    0.36    0.76
  -7  -6   3   -1.15    0.89
  -7   6  -3    0.51    0.83
   7  -6  -3    0.57    1.44
  -7  -6  -4   83.39    4.40
   7  -6   4   83.11    5.07
  -7   6   4   82.02    4.60
  -7  -6  -4   75.91    4.36
  -7  -6  -4   80.71    4.47
  -7   6   4   81.76    5.15
  -7   6   5    0.43    1.89
  -7  -6  -5   -1.18    1.16
   7  -6   5    0.86    1.88
  -7  -6  -5   -0.07    1.09
  -7   6   5   -0.88    1.30
  -7  -6  -5   -1.13    1.12
  -7   6  -5    4.20    1.65
   7   6   5   -2.03    1.76
  -7  -6   5    0.19    1.24
  -7   6  -5    0.24    1.19
  -7  -6  -6   38.07    3.99
  -7  -6  -6   42.12    3.76
  -7   6   6   42.63    5.13
  -7  -6  -6   41.91    3.81
  -7   6   6   39.06    3.85
  -7  -6  -7   -1.58    2.87
  -7   6   7   -0.63    2.30
  -7   6   7    1.57    3.54
  -7  -6  -7   -0.10    2.19
  -7  -6  -7    2.22    2.26
   7  -6   7    8.31    4.31
   7   6   7    0.78    2.25
  -7   6  -7    2.14    3.16
  -7   6  -7    3.58    2.15
  -7   6   8   14.86    5.09
  -7  -6  -8   12.99    5.52
  -7   6   8   15.55    3.71
  -7  -6  -8   11.29    3.29
  -7  -6  -8   10.30    3.19
  -7   6  -8   12.20    4.49
   7   6   8    9.49    3.27
  -7   6  -8    8.71    3.34
  -8   6   0  110.32    5.65
  -8   6   0  112.63    5.30
  -8  -6   0  109.17    4.54
   8  -6   0  109.00    5.73
  -8   6   1   77.86    4.89
  -8  -6  -1   82.75    3.91
  -8   6   1   80.78    4.17
   8  -6   1   75.28    4.53
  -8  -6  -1   76.00    3.56
  -8  -6  -1   83.66    3.66
   8  -6  -1   76.99    4.17
  -8   6  -1   67.76    4.10
  -8   6  -1   79.32    4.06
  -8  -6   1   78.36    3.20
  -8   6   2   64.70    3.50
   8  -6   2   61.90    3.95
  -8  -6  -2   58.43    3.73
  -8  -6  -2   64.80    3.19
  -8   6   2   64.46    4.26
  -8   6  -2   55.41    3.47
   8  -6  -2   61.78    3.80
   8   6   2   63.01    2.84
  -8   6  -2   59.53    3.62
  -8  -6   2   64.61    2.76
  -8  -6   2   64.34    3.06
  -8  -6  -3   49.39    2.97
  -8  -6  -3   51.50    3.08
  -8   6   3   51.40    3.22
  -8   6   3   55.54    3.97
  -8   6  -3   53.61    3.42
  -8   6  -3   51.32    3.37
  -8  -6   3   52.94    2.86
  -8  -6  -4   29.05    2.61
  -8  -6  -4   30.55    2.42
  -8  -6  -4   28.64    2.61
  -8   6   4   29.93    3.34
  -8   6   4   30.94    2.92
   8  -6   4   33.47    3.43
  -8   6  -4   31.42    2.68
  -8   6  -4   33.91    2.84
  -8  -6   4   28.20    2.37
  -8  -6  -5   19.34    2.40
  -8  -6  -5   15.80    2.29
  -8   6   5   21.01    2.68
  -8  -6  -5   14.68    2.20
  -8   6  -5   26.30    2.80
  -8   6  -5   16.52    2.56
  -8   6  -5   17.19    2.64
  -8  -6  -6   13.34    2.50
  -8   6   6   18.27    3.79
  -8  -6  -6   15.06    2.69
  -8   6   6   17.66    2.84
  -8  -6  -6   18.88    2.92
  -8   6  -6   20.08    3.31
  -8   6  -6   17.88    2.93
  -8   6   7    5.08    2.62
  -8  -6  -7    7.10    2.37
  -8   6   7    6.73    4.23
  -8  -6  -7    5.41    2.43
  -8  -6  -7    1.65    3.03
  -8   6  -7    5.10    2.48
  -8   6  -7    1.44    3.56
   8   6   7    1.50    2.45
  -8  -6  -8    1.18    5.29
  -8  -6  -8    1.73    3.16
  -8   6   8    4.33    5.25
  -8  -6  -8    1.93    3.26
  -8   6   8    2.70    3.12
  -8   6  -8   13.31    4.83
  -8   6  -8    5.95    3.27
  -8  -6   8    8.65    2.95
   8   6   8    3.28    3.39
   9  -6   0    9.61    1.74
  -9  -6   0    8.75    0.75
  -9   6   0    8.60    1.54
  -9  -6   0    8.61    1.03
  -9   6   0    8.72    1.38
   9  -6   1  117.64    7.38
  -9   6   1  124.21    6.65
  -9   6   1  117.28    5.89
  -9  -6  -1  125.07    5.76
  -9  -6  -1  125.99    5.33
  -9  -6  -1  117.07    5.24
  -9   6  -1  107.00    5.80
  -9   6  -1  118.48    5.75
  -9  -6   1  120.56    4.84
   9  -6  -1  116.12    5.82
  -9   6   2    9.04    2.00
  -9   6   2   10.53    1.54
   9  -6   2   15.55    2.18
  -9  -6  -2   12.46    1.54
  -9  -6  -2   11.27    1.29
  -9  -6   2   11.86    1.44
   9  -6  -2    6.68    1.89
  -9   6  -2   10.71    1.70
  -9   6  -2   12.43    1.76
  -9  -6   2   10.14    1.02
  -9  -6   2   11.80    1.00
  -9  -6  -3   55.03    3.25
   9  -6   3   60.60    4.26
  -9   6   3   56.71    3.53
  -9  -6  -3   55.04    3.38
  -9   6   3   62.22    4.37
  -9   6  -3   58.35    3.69
   9   6   3   55.70    2.93
  -9  -6   3   59.25    3.11
  -9   6  -3   54.84    3.70
  -9   6   4   14.09    2.49
  -9  -6  -4   11.87    1.84
  -9   6   4   11.16    1.83
  -9  -6  -4   13.65    1.97
  -9  -6  -4   12.53    1.83
   9  -6   5    1.45    2.77
  -9  -6  -5    8.74    2.27
  -9  -6  -5    6.23    1.80
  -9   6   5   11.36    2.18
  -9   6   5   16.13    3.47
  -9  -6  -5    9.87    1.99
  -9   6  -5    9.25    2.29
  -9   6  -5    7.13    2.32
  -9   6   6   10.08    3.50
  -9   6   6    6.72    2.29
  -9  -6  -6    9.72    2.71
  -9  -6  -6    9.14    2.49
  -9  -6  -6    5.30    2.04
  -9   6  -6   -0.25    2.96
  -9   6  -6    7.16    2.33
  -9   6  -6   10.08    2.84
  -9  -6  -7    0.44    3.10
  -9  -6  -7   -1.04    2.77
  -9   6   7    0.28    2.41
  -9   6   7    1.38    4.38
  -9  -6  -7   -1.01    2.17
  -9  -6   7    0.73    2.24
  -9   6  -7    1.76    2.52
   9   6   7   -0.38    2.49
  -9   6  -7    5.08    3.70
 -10  -6   0   -1.62    0.96
  10  -6   0    2.19    1.74
 -10  -6   0    0.81    0.45
 -10   6   0    2.14    0.91
 -10   6   0   -0.78    1.03
 -10  -6  -1  128.88    5.61
  10  -6   1  122.33    6.45
 -10  -6  -1  123.92    5.51
 -10   6   1  126.44    6.81
 -10   6   1  131.13    6.28
 -10   6  -1  121.46    6.25
 -10  -6   1  133.52    5.89
 -10   6  -1  122.30    6.11
 -10  -6   1  120.94    5.22
 -10  -6  -2    1.71    1.12
 -10   6   2    2.58    1.65
 -10   6   2    1.80    1.00
 -10  -6  -2    1.54    0.75
  10  -6   2   -2.56    1.70
 -10  -6   2    1.99    0.63
 -10   6  -2    2.58    1.11
 -10  -6   2    3.61    1.29
 -10   6  -2    0.54    0.95
 -10   6   3   85.00    5.60
 -10  -6  -3   78.60    4.28
 -10  -6  -3   83.92    4.49
 -10   6  -3   82.72    4.96
 -10  -6   3   78.83    3.97
 -10   6  -3   89.16    4.90
  10   6   3   81.14    3.77
 -10  -6  -4   10.49    1.90
  10  -6   4    0.59    2.54
 -10  -6  -4    5.52    1.51
 -10   6   4    4.87    1.48
 -10  -6  -4    6.73    1.45
 -10   6   4    4.98    2.43
 -10   6  -4    5.22    1.55
  10   6   4    6.68    1.35
 -10  -6   4    6.11    1.42
 -10   6  -4    7.31    1.82
 -10  -6  -5   38.80    3.81
 -10   6   5   33.66    4.39
 -10   6   5   30.95    3.27
 -10  -6  -5   31.37    3.22
 -10  -6  -5   33.78    3.26
 -10   6  -5   33.33    3.69
 -10  -6   5   32.37    3.19
 -10   6  -5   38.40    4.14
 -10  -6  -6    5.52    2.57
 -10   6   6    1.53    2.07
 -10  -6  -6    0.06    1.87
 -10   6   6    6.92    3.67
 -10  -6  -6    3.18    2.19
 -10   6  -6    5.47    3.06
 -10   6  -6   -3.71    3.43
 -10   6  -6    6.06    2.54
  10   6   6    1.98    2.25
 -10  -6   6    2.89    2.06
 -10   6   7   20.35    5.38
 -10  -6  -7   20.26    4.08
 -10  -6  -7   17.28    3.89
 -10   6   7   15.80    3.34
 -10  -6  -7   13.55    3.00
 -10   6  -7   10.21    4.30
 -10  -6   7   15.70    3.13
 -10   6  -7   16.53    3.53
  10   6   7   15.65    3.37
 -11   6   0    2.81    1.14
 -11   6   0    4.47    1.19
 -11  -6   0    2.94    0.65
 -11  -6  -1   35.19    2.13
 -11   6   1   42.20    3.49
 -11   6   1   38.65    2.77
 -11   6  -1   37.10    2.72
 -11  -6   1   34.94    2.51
 -11   6  -1   35.48    2.87
 -11  -6   1   35.14    1.84
 -11  -6  -2    9.01    1.58
 -11   6   2    8.96    1.63
 -11  -6  -2    8.35    1.23
 -11   6   2    5.95    2.09
 -11  -6   2    6.59    0.97
 -11   6  -2   10.06    1.80
 -11   6  -2    7.89    1.59
 -11  -6  -3   24.44    2.69
 -11   6   3   29.38    3.85
 -11   6   3   21.52    2.43
 -11   6  -3   26.29    2.79
 -11   6  -3   23.07    2.75
 -11  -6   3   21.49    1.84
 -11   6   4    8.76    1.95
 -11  -6  -4   11.32    1.94
 -11  -6  -4   10.17    1.77
 -11  -6  -4   12.03    2.18
  11   6   4   11.09    1.56
 -11   6  -4    8.69    2.29
 -11   6  -4   11.54    2.36
 -11  -6  -5   11.52    2.24
 -11   6   5    6.92    1.98
 -11  -6  -5    7.66    2.28
 -11   6   5   22.35    4.30
 -11  -6  -5   10.57    2.18
 -11   6  -5   14.14    2.92
  11   6   5   13.05    2.35
 -11   6  -5   14.94    2.78
 -11  -6   5   11.92    2.14
 -11  -6  -6    9.57    2.79
 -11   6   6    5.49    4.26
 -11   6   6    1.29    2.19
 -11  -6  -6    7.55    2.75
 -11  -6  -6    4.87    2.27
 -11   6  -6    3.69    4.23
 -11   6  -6    3.49    3.20
 -11  -6   6    8.36    2.25
 -11   6  -6    8.21    2.70
  11   6   6    6.28    2.57
 -11  -6  -7    9.31    3.70
 -11  -6  -7    5.03    3.67
 -11   6   7    6.21    2.85
 -11   6   7   10.73    5.94
 -11  -6  -7    8.55    2.97
 -11   6  -7   10.75    4.68
  11   6   7    5.25    3.48
 -11  -6   7    8.59    3.03
 -11   6  -7    5.52    3.26
 -12  -6   0   14.26    1.24
 -12   6   0   13.57    2.11
 -12   6   1   16.11    2.50
 -12  -6  -1   15.00    1.41
 -12  -6   1   10.57    1.06
 -12   6  -1   12.34    1.81
 -12   6   2   22.38    3.35
 -12  -6  -2   19.37    1.80
 -12   6   2   17.10    2.26
 -12   6  -2   16.80    2.24
 -12   6  -2   18.02    2.43
 -12  -6   2   19.63    1.51
 -12   6   3    8.86    2.79
 -12   6   3    8.08    1.76
 -12  -6  -3   11.76    2.04
 -12  -6  -3    9.12    1.60
 -12   6  -3    8.06    2.05
 -12  -6   3   10.20    1.28
 -12   6  -3   12.16    2.26
 -12  -6  -4   22.97    2.69
 -12  -6  -4   26.27    2.84
 -12   6   4   24.12    4.19
 -12   6   4   25.16    2.85
 -12  -6  -4   31.26    3.43
 -12  -6   4   22.82    2.40
 -12   6  -4   20.63    3.06
 -12   6  -4   25.89    3.20
 -12   6   5    8.15    2.29
 -12  -6  -5   10.32    2.25
 -12  -6  -5    9.26    2.69
 -12   6   5   13.38    4.08
 -12  -6  -5   11.39    2.36
 -12   6  -5   13.07    3.30
 -12  -6   5   10.53    2.15
 -12   6  -5   11.28    3.00
 -12   6   6   16.65    5.42
 -12   6   6   16.11    3.12
 -12  -6  -6   25.08    3.41
 -12  -6  -6   19.49    3.75
 -12  -6  -6   24.12    3.70
 -12   6  -6   22.21    4.46
 -12  -6   6   21.90    3.19
 -12   6  -6   22.61    4.14
  12   6   6   20.49    3.57
 -12   6   7    7.91    6.58
 -12  -6  -7   14.52    3.45
 -12   6   7    6.66    3.00
 -12  -6  -7   11.29    4.20
 -12  -6  -7    5.11    4.12
  12   6   7   16.39    4.34
 -12   6  -7   12.73    3.80
 -12   6  -7   11.60    4.85
 -12  -6   7    9.92    3.31
 -13   6   0   14.35    2.19
 -13   6   0    8.12    1.56
 -13  -6   0   10.52    1.25
 -13  -6  -1    0.60    0.75
 -13   6   1    0.69    1.03
 -13   6   1    1.26    1.54
 -13   6  -1   -1.20    1.31
 -13  -6   1    1.10    0.64
 -13   6  -1    1.51    1.17
 -13   6   2   25.48    3.60
 -13   6   2   20.53    2.59
 -13  -6  -2   26.78    2.22
 -13   6  -2   23.52    2.73
 -13  -6   2   18.74    1.68
 -13  -6  -3    1.18    1.31
 -13   6   3    0.30    1.42
 -13   6  -3   -1.39    1.52
 -13   6  -3    3.53    1.78
 -13  -6  -4   32.22    3.10
 -13  -6  -4   30.52    3.14
 -13   6   4   27.23    3.38
 -13   6   4   28.40    4.81
 -13  -6  -4   31.87    3.89
 -13   6  -4   26.04    3.52
 -13  -6   4   25.25    2.56
 -13   6  -4   33.87    4.05
 -13  -6  -5   -0.11    1.85
 -13   6   5    0.65    1.82
 -13  -6  -5   -1.75    2.83
 -13   6   5    8.87    4.33
 -13  -6  -5   -1.51    1.78
 -13   6  -5    1.40    2.84
 -13   6  -5   -1.51    2.26
 -13  -6   5    3.13    1.85
 -13  -6  -6   27.08    3.90
 -13   6   6   17.91    6.11
 -13   6   6   25.98    3.72
 -13  -6  -6   21.62    4.45
 -13  -6  -6   17.37    3.28
 -13   6  -6   28.03    4.68
 -13   6  -6   25.64    4.84
 -13  -6   6   31.37    4.21
 -14   6   0   48.55    3.79
 -14   6   0   43.68    3.23
 -14  -6   0   40.89    2.50
 -14   6   1    1.50    1.77
 -14  -6  -1    0.04    0.98
 -14   6   1    2.47    1.22
 -14  -6   1   -0.10    0.79
 -14   6  -1    1.22    1.25
 -14   6   2   40.40    3.32
 -14  -6  -2   41.90    3.00
 -14   6  -2   39.18    3.57
 -14  -6   2   39.02    2.41
 -14   6  -2   39.66    3.43
 -14  -6  -3    0.69    1.45
 -14   6   3    1.72    1.65
 -14   6   3    3.83    3.28
 -14   6  -3    1.00    1.77
 -14   6  -3   -0.86    1.69
 -14  -6   3   -0.15    1.19
 -14  -6  -4   31.48    3.27
 -14   6   4   35.62    5.54
 -14   6   4   27.14    3.37
 -14  -6  -4   31.27    3.32
 -14   6  -4   32.28    4.06
 -14   6  -4   34.63    4.26
 -14  -6   4   27.45    2.83
 -14  -6  -5    0.79    2.10
 -14  -6  -5    1.29    3.34
 -14  -6  -5   -2.17    2.08
 -14   6   5    2.77    4.71
 -14   6   5   -0.44    2.13
 -14   6  -5   -0.34    2.80
 -14  -6   5    0.15    1.87
 -14   6  -5    2.56    2.88
 -14   6   6   15.75    3.41
 -14  -6  -6   17.64    3.62
 -14  -6  -6   11.01    3.12
 -14  -6  -6    8.81    4.29
 -14   6   6   28.11    7.40
 -14   6  -6   16.18    4.72
 -14   6  -6   32.88    6.98
 -14  -6   6   18.20    3.15
 -14   6  -6    9.75    3.55
 -15  -6   0   17.44    1.92
 -15   6   0   19.21    2.52
 -15   6   0   19.80    2.77
 -15   6   1   29.12    3.74
 -15   6   1   20.20    2.51
 -15  -6  -1   23.62    2.35
 -15   6  -1   30.05    3.41
 -15   6  -1   21.60    2.83
 -15  -6   1   24.62    2.04
 -15  -6  -2   15.68    2.15
 -15   6   2   16.20    3.05
 -15   6   2   16.29    2.33
 -15  -6   2   18.27    1.72
 -15   6  -2   12.74    2.44
 -15   6  -2   14.83    2.50
 -15   6   3    9.84    2.26
 -15  -6  -3   12.01    2.15
 -15   6   3   14.55    3.62
 -15  -6   3   10.74    1.67
 -15   6  -3   12.27    2.55
 -15   6  -3    9.22    2.55
 -15  -6  -4    8.07    2.16
 -15  -6  -4   11.95    2.55
 -15   6   4    2.05    4.36
 -15   6   4   11.62    2.50
 -15   6  -4   15.32    3.46
 -15   6  -4    6.32    2.59
 -15  -6   4   11.36    1.99
 -15   6   5    3.24    6.09
 -15  -6  -5    0.62    2.33
 -15  -6  -5    1.88    2.40
 -15   6   5   -1.13    2.16
 -15  -6   5    2.56    2.18
 -15   6  -5    2.38    3.04
 -15   6  -5   -0.28    3.09
 -16   6   0    8.55    1.98
 -16  -6   0    7.38    1.50
 -16   6   0    8.49    2.43
 -16   6   1   50.58    4.85
 -16   6   1   43.23    3.52
 -16  -6  -1   44.17    3.24
 -16   6  -1   49.11    4.34
 -16  -6   1   46.01    2.92
 -16   6  -1   45.54    3.74
 -16   6   2    4.27    2.80
 -16  -6  -2    6.53    1.89
 -16   6   2    5.90    1.88
 -16  -6   2    6.16    1.36
 -16   6  -2    4.32    2.00
 -16   6  -2    3.78    2.24
 -16  -6  -3   21.23    2.95
 -16   6   3   34.92    4.72
 -16   6   3   28.67    3.30
 -16   6  -3   20.83    3.22
 -16  -6   3   26.06    2.39
 -16   6  -3   20.96    3.37
 -16  -6  -4   -1.37    1.89
 -16   6   4   -0.69    2.16
 -16  -6  -4    2.09    2.32
 -16   6   4    2.71    4.68
 -16  -6   4    8.03    1.99
 -16   6  -4    3.03    2.93
 -16   6  -4    1.95    2.62
 -16  -6  -5   10.01    3.05
 -16   6   5   19.00    3.33
 -16  -6  -5   14.16    3.16
 -16   6  -5    6.86    3.49
 -16  -6   5   13.23    2.89
 -16   6  -5   10.94    3.93
 -17  -6   0    1.30    1.45
 -17   6   0   -0.32    1.63
 -17   6   0    0.86    2.24
 -17   6   1   23.53    2.96
 -17   6   1   23.10    3.46
 -17  -6  -1   23.76    2.82
 -17   6  -1   28.19    3.62
 -17  -6   1   21.37    2.41
 -17   6  -1   24.08    3.07
 -17  -6  -2    0.50    1.90
 -17   6   2   -1.46    2.75
 -17   6   2   -1.58    1.57
 -17   6  -2    0.97    2.57
 -17  -6   2    1.99    1.37
 -17   6  -2    1.58    2.07
 -17  -6  -3   17.34    2.90
 -17   6   3   14.06    4.01
 -17   6   3   14.51    2.58
 -17   6  -3   12.51    3.48
 -17  -6   3   17.38    1.96
 -17   6  -3   10.92    2.83
 -17  -6  -4    2.68    2.24
 -17   6   4   -3.89    2.07
 -17  -6  -4    2.70    2.55
 -17   6  -4   -4.28    2.81
 -17  -6   4    0.92    1.84
 -17   6  -4   -0.98    3.37
 -18   6   0   -1.56    2.66
 -18   6   0    4.74    2.03
 -18  -6   0    4.47    1.83
 -18   6   1    7.08    2.12
 -18   6   1   11.13    3.14
 -18  -6  -1   13.15    2.39
 -18   6  -1   11.98    2.56
 -18  -6   1   12.52    1.99
 -18   6  -1   16.16    3.13
 -18  -6  -2    4.63    2.30
 -18   6   2    3.34    2.00
 -18   6  -2    1.06    2.21
 -18   6  -2    1.68    2.83
 -18  -6   2    4.18    1.79
 -18  -6  -3    8.42    2.89
 -18   6   3   10.70    2.51
 -18   6  -3   15.32    3.89
 -18   6  -3    7.37    3.09
 -19   6   0    9.73    3.74
 -19   6   0    2.95    2.09
 -19  -6   0    5.92    2.22
 -19  -6  -1    2.78    2.41
 -19   6   1   -0.72    1.99
 -19   6  -1    2.49    2.98
 -19   6  -1    3.98    2.39
 -19  -6  -2    5.83    2.80
 -19   6   2    8.21    2.39
 -19   6  -2    7.42    3.66
 -19   6  -2   11.69    2.90
   0   7   0    0.14    0.32
   0  -7   0    0.69    0.37
   0   7   0    0.18    0.30
   0   7   1  235.54    9.92
   0  -7  -1  232.49    9.72
   0   7  -1  238.65    9.54
   0   7  -1  244.71    9.52
   0  -7   1  242.07    9.85
   0   7   1  222.98    9.61
   0   7  -2    0.23    0.50
   0  -7  -2    0.95    0.58
   0  -7  -2    0.06    0.43
   0   7  -2    0.36    0.33
   0   7   2    0.56    0.54
   0  -7  -2   -0.13    0.40
   0   7   2   -0.27    0.47
   0  -7   2   -0.53    0.50
   0  -7  -3  120.11    5.48
   0   7   3  126.48    5.50
   0   7  -3  113.66    5.17
   0  -7  -3  118.15    5.52
   0   7   3  114.65    5.62
   0  -7   3  115.01    5.65
   0  -7  -3  113.25    5.36
   0   7  -3  121.12    5.19
   0   7   4    1.12    0.93
   0  -7  -4   -0.46    0.77
   0  -7  -4    0.28    0.81
   0  -7  -4    0.17    0.77
   0   7  -4    0.96    0.86
   0   7  -4   -0.17    0.57
   0  -7   4    0.27    0.91
   0   7   4   -1.13    0.82
   0   7   5   70.24    4.51
   0  -7   5   72.93    4.65
   0  -7  -5   76.39    4.21
   0  -7  -5   79.85    4.44
   0   7  -5   68.51    3.99
   0  -7  -5   76.87    4.41
   0   7   5   78.59    4.42
   0   7  -5   70.23    3.87
   0  -7  -6   -0.38    1.39
   0   7  -6    0.15    1.01
   0   7  -6    2.14    1.61
   0  -7   6    0.11    1.78
   0   7   6    0.00    1.90
   0  -7  -6    1.11    1.36
   0   7   6    1.44    1.76
   0   7   7   48.71    5.03
   0  -7   7   52.62    5.15
   0   7  -7   55.69    3.92
   0   7   7   51.71    4.76
   0   7  -8    2.96    2.12
   0   7   8    1.82    2.91
   0   7   8    4.23    3.34
   1   7   0    8.14    0.60
  -1   7   0    8.87    0.77
   1  -7   0    8.01    0.90
  -1  -7   0    7.50    0.66
  -1   7   0    7.91    0.87
   1   7   0    8.21    0.62
  -1   7   1    1.18    0.58
  -1  -7  -1    0.84    0.40
  -1  -7  -1    1.75    0.43
   1   7  -1    1.41    0.30
   1  -7  -1    1.29    0.49
   1   7   1    0.87    0.39
  -1   7  -1    1.39    0.38
   1   7   1    0.90    0.48
  -1  -7   1    0.21    0.38
  -1   7  -1    1.93    0.46
   1   7  -2    4.29    0.54
   1   7  -2    4.61    0.86
  -1  -7  -2    5.33    0.88
  -1   7   2    5.87    0.97
  -1  -7  -2    3.52    0.69
  -1   7   2    4.60    0.82
  -1  -7  -2    3.31    0.62
   1  -7   2    5.15    0.98
   1   7   2    5.62    0.90
  -1  -7   2    6.11    0.94
  -1   7  -2    5.32    0.74
   1  -7  -2    4.13    0.79
  -1   7  -2    5.02    0.70
  -1   7   3   10.67    1.29
  -1  -7  -3   12.03    1.21
   1   7  -3   11.13    0.99
  -1   7   3   10.83    1.46
   1  -7   3    8.27    1.36
  -1  -7  -3   11.79    1.23
   1   7  -3   12.55    1.19
  -1  -7  -3   11.45    1.35
   1  -7  -3   11.25    1.30
  -1   7  -3   12.33    1.26
   1   7   3    8.77    1.29
  -1  -7   3   10.35    1.36
   1   7   3    9.68    1.23
  -1   7  -3   11.45    1.09
  -1   7  -3    9.82    1.16
   1   7  -4    3.57    1.01
   1   7  -4    2.93    0.73
  -1  -7  -4    2.90    0.99
  -1   7   4    5.32    1.24
   1  -7   4    3.16    1.16
  -1   7   4    3.53    1.01
  -1  -7  -4    3.75    1.00
  -1  -7  -4    2.74    0.93
   1   7   4    5.34    1.17
  -1   7  -4    3.01    0.78
   1  -7  -4    1.85    0.92
  -1  -7   4    3.73    1.16
   1   7   4    3.62    1.05
  -1   7  -4    5.65    1.14
  -1   7  -4    3.04    1.00
   1  -7  -4    3.55    1.00
   1  -7  -4    3.58    1.06
  -1   7   5   12.21    2.06
   1  -7   5   11.41    1.99
   1   7  -5   10.35    1.39
  -1  -7  -5   12.52    1.91
  -1  -7  -5   11.60    1.78
  -1   7   5   13.58    2.00
  -1  -7  -5   13.81    1.74
   1   7   5    8.73    1.74
   1   7   5   10.11    1.79
   1  -7  -5    9.68    1.60
   1  -7  -5   13.66    1.96
  -1  -7   5   11.10    1.97
  -1   7  -5   11.50    1.51
  -1   7  -5   13.63    1.74
  -1  -7  -6   -0.27    1.33
  -1  -7  -6    2.41    1.73
   1  -7   6    1.84    1.81
  -1   7   6    1.58    1.66
  -1  -7  -6    0.76    1.35
  -1   7   6    2.37    1.87
   1   7  -6    3.30    1.21
  -1  -7   6    3.81    1.83
  -1   7  -6    2.73    1.31
   1   7   6    3.08    1.73
  -1   7  -6   -0.44    1.66
   1  -7  -6    3.31    1.85
  -1  -7  -7    4.27    2.13
  -1   7   7    7.32    2.63
  -1  -7  -7    3.68    2.10
   1  -7   7    6.48    2.63
  -1   7   7    7.81    2.44
   1   7  -7    3.42    1.61
  -1  -7  -7   -2.21    2.92
  -1   7  -7    4.19    1.80
   1  -7  -7   -0.29    3.40
   1   7   7    6.26    2.66
  -1  -7   7    2.92    2.37
   1   7   7    2.69    2.48
  -1   7   8   -0.93    3.04
  -1   7   8   -0.35    2.93
   1   7   8    3.04    3.56
  -1   7  -8    1.26    2.06
   1   7   8   -0.30    2.60
   2   7   0   70.01    2.86
  -2  -7   0   69.70    2.97
  -2   7   0   73.51    3.49
   2   7   0   69.62    2.88
   2  -7   0   70.89    3.52
  -2  -7  -1  165.75    7.02
  -2   7   1  171.18    7.58
   2  -7   1  168.96    7.47
  -2   7   1  173.09    7.22
  -2  -7  -1  163.94    6.99
  -2  -7  -1  178.12    7.11
   2   7   1  170.61    6.94
  -2   7  -1  167.56    7.20
   2   7   1  171.97    7.16
  -2  -7   1  174.78    6.95
   2  -7  -1  167.72    7.41
  -2  -7  -2  119.67    5.29
  -2   7   2  113.56    5.67
  -2  -7  -2  126.79    5.37
   2  -7   2  112.31    5.65
   2   7  -2  126.48    4.96
  -2  -7  -2  123.59    5.31
  -2   7   2  123.22    5.46
   2  -7  -2  124.37    5.54
  -2   7  -2  123.00    5.26
  -2   7  -2  120.27    5.26
   2   7   2  121.46    5.22
   2   7   2  110.52    5.32
  -2  -7   2  119.52    5.30
   2  -7   3  117.90    5.60
  -2  -7  -3  109.80    5.17
  -2   7   3  113.65    5.52
  -2  -7  -3  103.19    5.08
  -2   7   3  120.46    5.32
  -2  -7  -3  109.32    5.13
   2   7  -3  104.22    4.72
  -2  -7   3  113.02    5.28
   2  -7  -3  105.41    5.29
   2   7   3  115.08    5.32
  -2   7  -3  109.85    4.96
  -2   7  -3  107.89    5.07
   2   7   3  117.64    5.15
  -2   7  -3  109.35    5.07
  -2  -7  -4  150.80    6.77
  -2   7   4  136.61    7.04
   2  -7   4  137.10    7.11
  -2  -7  -4  142.98    6.67
   2   7  -4  139.43    6.22
  -2   7   4  135.58    6.75
   2   7  -4  156.00    6.23
  -2  -7  -4  149.89    6.80
  -2   7  -4  139.01    6.43
   2  -7  -4  148.10    6.76
   2   7   4  140.25    6.58
  -2  -7   4  135.34    6.76
  -2   7  -4  142.30    6.26
   2   7   4  129.44    6.68
  -2   7  -4  146.83    6.45
  -2  -7  -5   23.67    2.36
  -2  -7  -5   23.96    2.10
   2   7  -5   25.05    1.87
  -2   7   5   28.72    2.86
  -2   7   5   29.70    2.58
   2  -7   5   23.98    2.81
  -2  -7  -5   23.04    2.34
  -2  -7   5   25.34    2.59
   2   7   5   26.32    2.53
   2   7   5   25.46    2.54
   2  -7  -5   23.67    2.63
  -2   7  -5   21.27    2.05
  -2   7  -5   25.84    2.44
  -2  -7  -6   80.32    4.86
  -2  -7  -6   85.05    5.06
   2  -7   6   70.70    5.44
   2   7  -6   74.26    4.19
  -2   7   6   78.07    5.51
  -2   7   6   80.58    5.09
   2   7   6   82.56    5.01
   2   7   6   73.69    5.12
  -2   7  -6   79.74    4.63
  -2  -7   6   75.72    5.31
  -2   7   7    1.78    2.13
  -2   7   7   -0.47    2.40
  -2  -7  -7    1.55    1.99
   2   7  -7    2.35    1.56
   2  -7   7    5.41    2.62
  -2  -7  -7    2.92    2.02
  -2  -7  -7    1.22    2.83
  -2  -7   7    0.71    2.40
  -2   7  -7   -2.60    2.53
   2   7   7    5.37    2.17
  -2   7  -7    2.45    1.67
   2   7   7    1.15    2.57
  -2   7   8   24.96    4.68
  -2  -7  -8   23.68    3.58
  -2   7   8   28.83    4.21
   2   7   8   33.99    4.84
   2   7   8   24.17    4.29
  -2   7  -8   28.14    3.54
   3  -7   0  104.28    5.06
  -3   7   0  108.40    4.76
  -3   7   0  109.63    5.07
   3  -7   1    4.38    0.93
  -3   7   1    5.32    1.10
  -3  -7  -1    5.29    0.73
  -3  -7  -1    5.81    0.64
  -3   7   1    6.35    0.90
  -3  -7  -1    5.76    0.58
  -3   7  -1    6.40    0.82
   3  -7  -1    6.78    1.11
   3   7   1    6.04    0.72
  -3  -7   1    6.37    0.60
  -3   7  -1    5.76    0.85
  -3  -7  -2   50.71    2.84
  -3   7   2   55.96    3.21
   3  -7   2   55.84    3.16
  -3  -7  -2   52.07    2.66
  -3   7   2   51.80    2.79
  -3  -7  -2   52.53    2.63
   3   7   2   51.57    2.68
  -3  -7   2   53.71    2.58
   3  -7  -2   49.52    2.94
  -3   7  -2   50.67    2.70
   3   7   2   56.40    2.59
  -3  -7   2   53.87    2.38
  -3   7  -2   50.70    2.71
   3   7  -3    0.71    0.39
  -3   7   3    1.39    0.86
  -3  -7  -3    1.04    0.60
   3  -7   3    0.41    0.86
  -3  -7  -3    0.27    0.61
  -3   7   3    0.04    0.65
  -3  -7  -3    0.65    0.66
  -3  -7   3    0.23    0.63
   3   7   3    0.50    0.67
   3  -7  -3   -0.33    0.79
   3   7   3    0.07    0.66
  -3   7  -3    0.29    0.50
  -3   7  -3    1.00    0.71
   3   7  -4    8.32    1.02
  -3  -7  -4   10.31    1.42
  -3   7   4   10.29    1.76
  -3  -7  -4   10.26    1.39
  -3  -7  -4   11.58    1.55
  -3   7   4    9.10    1.48
   3  -7   4   10.73    1.83
  -3   7  -4    8.84    1.39
   3  -7  -4    9.03    1.67
  -3   7  -4   10.06    1.45
   3   7   4    9.10    1.42
  -3  -7   4    9.62    1.52
   3   7   4   10.03    1.50
  -3   7  -4    7.49    1.32
  -3  -7  -5   -1.42    0.96
   3  -7   5   -0.69    1.31
   3   7  -5    0.42    0.71
  -3   7   5   -0.20    1.36
  -3   7   5   -0.81    1.07
  -3  -7  -5   -0.77    0.95
  -3  -7  -5    0.76    0.94
  -3   7  -5    0.98    1.20
  -3   7  -5    0.34    0.81
  -3  -7   5    0.23    1.18
   3  -7  -5    2.68    1.68
  -3   7  -5   -0.25    1.37
   3   7   5    0.18    1.10
   3   7   5    0.19    1.19
  -3  -7  -6    0.76    1.24
  -3  -7  -6   -0.06    1.81
  -3   7   6    0.54    1.92
  -3   7   6    2.69    1.75
  -3  -7  -6   -1.25    1.44
   3  -7   6    2.05    2.06
   3   7   6    0.18    1.64
   3   7   6   -0.88    2.36
  -3  -7   6    0.77    1.70
   3  -7  -6   -1.03    2.25
  -3   7  -6    0.98    1.22
  -3   7  -6   -2.86    1.55
  -3  -7  -7   -0.33    2.85
  -3  -7  -7    0.80    1.87
   3  -7   7   -0.37    2.77
  -3   7   7   -2.34    2.13
  -3  -7  -7   -0.35    1.84
  -3   7   7   -0.87    2.33
  -3   7  -7   -1.40    2.40
  -3   7  -7   -0.31    1.65
  -3  -7   7    3.66    2.28
   3   7   7    3.66    2.16
   3   7   7   -3.77    2.47
  -3  -7  -8   -3.49    4.68
  -3  -7  -8   -1.45    2.49
  -3  -7  -8    2.58    2.41
  -3   7   8   -3.33    2.98
  -3   7   8   -3.19    2.71
   3   7   8    2.48    3.86
   3   7   8   -1.78    2.66
  -3   7  -8    3.45    2.48
  -4  -7   0  374.14   14.23
  -4   7   0  350.85   14.64
  -4   7   0  357.00   14.98
  -4  -7   0  375.19   14.20
   4  -7   0  361.44   14.96
  -4  -7   0  330.33   14.15
   4  -7   1   72.09    3.93
  -4  -7  -1   74.01    3.33
  -4  -7  -1   73.80    3.29
  -4   7   1   75.73    4.12
  -4   7   1   78.74    3.68
  -4  -7   1   79.88    3.13
  -4   7  -1   75.68    3.63
   4  -7  -1   75.97    3.96
   4   7   1   74.94    3.08
  -4   7  -1   74.09    3.77
   4   7   1   76.34    3.16
  -4  -7  -2  261.47   10.70
   4  -7   2  271.10   11.39
  -4   7   2  256.08   10.95
  -4   7   2  255.77   11.37
  -4  -7  -2  246.91   10.93
  -4  -7  -2  267.35   10.74
  -4  -7   2  251.10   10.40
   4   7   2  269.28   10.45
   4  -7  -2  255.51   11.04
   4   7   2  249.20   10.59
  -4   7  -2  251.52   10.82
  -4   7  -2  254.53   10.78
  -4  -7   2  266.02   10.26
  -4  -7  -3   30.82    2.14
  -4   7   3   30.78    2.19
  -4  -7  -3   33.12    2.06
   4  -7   3   33.69    2.64
  -4  -7  -3   30.99    2.06
  -4   7   3   33.28    2.62
  -4   7  -3   31.22    2.10
   4  -7  -3   33.06    2.40
   4   7   3   30.34    2.07
  -4  -7   3   33.04    2.09
  -4   7  -3   30.28    2.14
  -4   7   4  159.11    7.47
  -4  -7  -4  158.53    7.28
  -4  -7  -4  153.65    7.28
   4  -7   4  153.82    7.82
  -4   7   4  166.45    7.90
  -4  -7  -4  153.99    7.22
  -4   7  -4  158.75    7.27
   4   7   4  151.31    7.30
  -4   7  -4  153.75    7.26
  -4   7  -4  159.72    7.08
   4  -7  -4  158.59    7.54
  -4  -7   4  156.66    7.38
  -4  -7  -5    6.25    1.41
  -4   7   5    6.71    1.84
   4  -7   5    7.65    1.92
  -4  -7  -5   10.34    1.75
  -4   7   5    7.92    1.65
   4   7   5    8.48    1.72
   4  -7  -5    5.37    1.99
   4   7   5    6.87    1.66
  -4   7  -5    6.27    1.54
  -4   7   6   81.98    5.88
  -4  -7  -6   77.57    4.94
  -4  -7  -6   81.69    5.21
  -4   7   6   79.12    5.25
   4  -7   6   81.75    5.83
  -4  -7  -6   80.03    5.12
   4   7   6   76.81    5.14
   4   7   6   84.20    5.09
  -4   7  -6   71.59    4.76
  -4   7  -6   78.51    4.97
  -4  -7   6   74.90    5.14
  -4  -7  -7    1.76    2.78
  -4  -7  -7   -0.16    1.91
  -4   7   7    0.80    2.56
  -4   7   7   -3.20    1.93
   4  -7   7    2.43    3.05
  -4  -7  -7    1.12    2.21
  -4   7  -7   -2.20    2.77
   4   7   7   -0.72    2.94
   4   7   7    0.76    2.00
  -4   7  -7    0.12    1.62
  -4  -7  -8   23.55    3.71
  -4  -7  -8   23.33    3.87
  -4   7   8   20.47    4.54
  -4   7   8   25.52    4.12
   4   7   8   23.87    4.16
  -4   7  -8   23.93    3.59
  -5   7   0   19.18    1.79
   5  -7   0   16.46    1.62
  -5   7   0   19.98    1.46
  -5  -7   0   15.13    0.85
  -5  -7   0   17.85    1.00
  -5   7   1    7.31    1.47
  -5  -7  -1    6.65    0.72
   5  -7   1    5.56    1.22
  -5  -7  -1    7.52    0.84
  -5   7   1    5.46    0.92
   5  -7  -1   10.53    1.45
  -5   7  -1    6.73    1.08
  -5   7  -1    7.03    1.03
  -5   7   2   20.88    1.60
  -5   7   2   18.90    2.04
   5  -7   2   20.85    2.01
  -5  -7  -2   20.10    1.48
  -5  -7  -2   19.94    1.33
  -5  -7  -2   18.42    1.38
   5   7   2   19.05    1.34
  -5  -7   2   20.31    1.13
  -5  -7   2   21.95    1.04
  -5   7  -2   19.90    1.67
   5  -7  -2   18.05    1.93
  -5  -7   2   22.47    1.31
  -5   7  -2   19.34    1.64
   5  -7   3    4.28    1.29
  -5  -7  -3    5.31    0.94
  -5   7   3    4.73    1.09
  -5   7   3    4.24    1.38
  -5  -7  -3    6.36    1.09
  -5  -7  -3    4.75    0.92
  -5   7  -3    6.52    1.11
  -5  -7   3    5.68    0.95
   5  -7  -3    7.70    1.47
  -5  -7   3    5.17    0.96
   5   7   3    4.81    0.98
   5   7   3    3.53    0.84
  -5   7  -3    6.11    1.16
  -5  -7  -4    7.85    1.31
  -5  -7  -4    7.91    1.38
  -5  -7  -4   10.16    1.48
  -5   7   4    9.03    1.65
  -5   7   4   12.78    2.08
   5  -7   4    6.90    1.81
   5   7   4    8.01    1.44
  -5   7  -4    8.49    1.48
  -5   7  -4    4.94    1.13
  -5  -7   4    7.24    1.41
   5   7   4    7.55    1.33
  -5   7  -4    7.63    1.34
   5  -7  -4    7.14    1.65
  -5  -7  -5    5.84    1.48
   5  -7   5    4.79    1.93
  -5   7   5    4.45    1.79
  -5  -7  -5    4.48    1.35
  -5   7  -5   -0.89    1.39
   5  -7  -5   -0.74    2.00
   5   7   5    5.37    1.67
  -5   7  -5    2.67    1.32
  -5  -7   5    4.33    1.73
  -5   7  -5    2.91    1.46
  -5  -7  -6    3.01    1.82
  -5  -7  -6    2.37    1.62
  -5  -7  -6    3.02    1.63
  -5   7   6    1.80    2.04
   5  -7   6    2.66    2.34
  -5   7   6    3.28    1.78
  -5   7  -6    3.32    2.31
   5   7   6    0.03    1.96
  -5   7  -6    1.61    1.51
   5   7   6    1.09    1.68
  -5  -7   6    0.65    1.63
   5  -7   7   -0.56    3.41
  -5  -7  -7    4.32    3.02
  -5  -7  -7    3.62    2.19
  -5   7   7    2.74    2.59
  -5   7   7    2.36    2.24
  -5  -7  -7    4.67    2.07
   5   7   7    4.18    2.28
   5   7   7   -5.72    3.01
  -5   7  -7    2.85    2.10
  -5   7  -7   -0.84    2.70
  -5  -7  -8    1.43    2.94
  -5  -7  -8   -0.66    4.95
  -5  -7  -8    0.36    2.52
  -5   7   8    2.31    4.01
  -5   7   8   -1.34    2.93
   5   7   8   -2.04    2.66
  -5   7  -8    2.79    2.44
   6  -7   0    0.08    0.86
  -6   7   0    0.86    0.84
  -6   7   0    0.54    0.59
  -6   7   1  259.99   13.15
  -6   7   1  312.02   12.71
  -6  -7  -1  302.67   12.13
  -6  -7  -1  310.69   12.14
   6  -7   1  314.58   12.99
  -6   7  -1  264.34   12.05
  -6   7  -1  294.69   11.96
   6  -7  -1  285.72   12.10
  -6   7   2    6.14    1.11
  -6   7   2    2.70    1.09
  -6  -7  -2    6.00    0.97
  -6  -7  -2    6.15    0.85
   6  -7   2    5.02    1.24
  -6   7  -2    8.71    1.38
  -6   7  -2    8.40    1.28
  -6  -7   2    6.43    0.76
   6   7   2    5.77    0.77
   6  -7  -2    9.25    1.53
  -6  -7  -3  168.76    7.65
   6  -7   3  175.93    8.35
  -6   7   3  175.01    8.46
  -6  -7  -3  174.59    7.65
  -6   7   3  183.67    7.99
  -6  -7  -3  162.29    7.62
   6   7   3  168.22    7.28
   6  -7  -3  164.68    7.97
  -6  -7   3  185.16    7.20
   6   7   3  170.62    7.44
  -6   7  -3  167.90    7.81
  -6   7  -3  158.95    7.75
  -6  -7   3  171.84    7.38
  -6  -7  -4   20.45    1.93
  -6  -7  -4   22.97    1.95
  -6  -7  -4   22.08    2.16
  -6   7   4   18.49    2.10
  -6   7   4   22.29    2.96
   6  -7   4   19.99    2.71
  -6   7  -4   23.74    2.19
  -6   7  -4   25.45    2.36
   6   7   4   17.76    2.20
   6   7   4   21.60    2.00
   6  -7  -4   23.12    2.96
  -6  -7   4   17.73    1.97
  -6  -7  -5   53.26    3.68
   6  -7   5   52.20    4.24
  -6  -7  -5   49.16    3.46
  -6  -7  -5   45.47    3.45
  -6   7   5   48.75    3.69
  -6  -7   5   45.01    3.45
  -6   7  -5   43.52    3.45
  -6   7  -5   43.32    3.42
   6   7   5   44.73    3.44
   6  -7   6   16.60    3.58
  -6  -7  -6   13.50    2.49
  -6  -7  -6   18.71    2.82
  -6   7   6   14.13    3.31
  -6   7   6   15.34    2.78
  -6  -7  -6   11.83    2.19
  -6  -7   6   12.69    2.35
  -6   7  -6   11.47    2.27
  -6   7  -6   14.19    2.73
   6   7   6   11.61    2.31
  -6  -7  -7   17.04    3.02
  -6   7   7   16.93    3.87
  -6  -7  -7   15.14    2.88
  -6   7   7   10.52    3.01
  -6  -7  -7   17.20    3.52
   6  -7   7    9.55    4.31
   6   7   7   12.91    2.79
  -6   7  -7   15.43    2.84
  -6   7  -7   16.19    3.62
  -6  -7  -8   16.01    5.36
  -6   7   8   10.90    4.61
  -6  -7  -8    6.39    3.02
  -6   7   8    6.20    3.29
  -6  -7  -8    6.38    2.96
  -6   7  -8    7.27    3.01
   6   7   8    7.29    3.04
  -6   7  -8    1.73    3.94
  -7   7   0    0.59    0.85
  -7   7   0   -0.01    0.51
  -7  -7   0    0.35    0.29
   7  -7   0    1.14    1.03
  -7   7   1   -0.18    1.00
  -7  -7  -1    1.08    0.46
  -7  -7  -1    1.97    0.69
  -7   7   1   -0.67    0.71
   7  -7   1    0.66    1.06
  -7   7  -1    3.09    0.89
   7  -7  -1    0.51    1.01
  -7   7  -1    1.26    0.83
  -7   7   2    8.48    1.30
  -7  -7  -2    6.97    1.08
  -7   7   2    6.79    1.64
  -7  -7  -2    4.88    0.83
   7  -7   2    4.68    1.40
  -7  -7   2    8.80    0.86
   7   7   2    6.34    0.76
   7  -7  -2    7.17    1.48
   7   7   2    7.43    0.90
  -7   7  -2    6.35    1.31
  -7   7  -2    4.86    1.11
  -7   7   3    5.60    1.61
  -7  -7  -3    6.59    1.14
  -7  -7  -3    7.95    1.16
  -7   7   3    6.13    1.19
   7  -7   3    9.23    1.74
  -7  -7  -3    8.01    1.40
  -7   7  -3    7.29    1.33
  -7  -7   3    5.59    0.96
  -7  -7   3    6.81    1.21
  -7   7  -3    3.82    1.13
   7   7   3    6.84    1.05
   7  -7  -3    9.07    1.90
  -7  -7  -4    3.01    0.99
  -7  -7  -4    1.73    0.99
  -7   7   4    2.47    1.54
  -7   7   4    2.13    1.15
   7  -7   4    1.51    1.67
  -7  -7  -4    2.00    1.13
  -7   7  -4    2.51    1.22
  -7   7  -4    1.78    1.09
   7  -7  -4   -0.99    1.98
   7   7   4    2.27    1.04
  -7  -7   4    1.56    1.04
   7   7   4    2.07    1.40
  -7  -7  -5   13.35    2.17
  -7   7   5   14.66    3.03
  -7  -7  -5   12.35    2.00
  -7  -7  -5   12.21    2.02
  -7   7   5   12.97    2.27
   7   7   5   12.20    2.00
  -7   7  -5   12.97    2.22
  -7  -7   5    9.80    1.91
  -7   7   6    2.96    2.55
  -7  -7  -6    1.68    1.60
  -7   7   6    0.83    1.83
  -7  -7  -6    2.24    1.97
  -7  -7  -6    0.45    1.78
   7  -7   6   -0.19    3.16
  -7   7  -6   -1.22    1.58
  -7   7  -6    1.80    2.41
  -7   7  -6   -1.48    2.24
   7   7   6    0.79    1.69
  -7  -7  -7    6.03    2.64
   7  -7   7   -3.16    4.25
  -7   7   7    4.60    2.65
  -7  -7  -7    5.91    3.22
  -7  -7  -7    6.45    2.52
  -7   7   7    4.07    3.56
  -7   7  -7    8.30    3.59
   7   7   7    2.34    2.31
  -7   7  -7    5.23    2.42
  -7  -7  -8   -1.09    5.11
  -7   7   8   -3.31    4.62
  -7   7   8    6.18    3.29
  -7  -7  -8    0.21    2.98
  -7  -7  -8   -1.85    2.76
  -7   7  -8   10.83    4.55
   7   7   8   -0.80    3.03
  -7   7  -8    0.39    2.69
  -8   7   0   33.77    2.57
  -8   7   0   31.77    2.20
  -8  -7   0   28.53    1.43
   8  -7   0   23.34    3.21
  -8  -7  -1  107.14    4.87
  -8   7   1  107.51    5.32
  -8  -7  -1  108.12    4.72
  -8   7   1  103.32    5.98
   8  -7   1  106.22    5.52
  -8  -7  -1  106.90    4.64
   8  -7  -1  106.06    5.36
  -8   7  -1   96.35    5.25
  -8   7  -1  103.54    5.12
  -8   7   2   42.32    2.87
  -8  -7  -2   45.67    2.60
  -8   7   2   48.50    3.71
  -8  -7  -2   46.30    2.50
   8  -7   2   40.49    3.27
  -8   7  -2   41.39    2.93
  -8   7  -2   40.73    2.83
  -8  -7   2   41.78    2.22
  -8   7   3   67.97    4.53
   8  -7   3   63.55    4.26
  -8  -7  -3   58.94    3.40
  -8   7   3   62.35    3.73
  -8  -7  -3   65.21    3.61
  -8  -7  -3   64.51    3.43
  -8   7  -3   60.14    3.81
   8   7   3   57.55    3.06
  -8   7  -3   66.56    3.89
  -8  -7   3   60.58    3.16
  -8  -7  -4   61.23    3.64
   8  -7   4   52.54    4.31
  -8   7   4   50.73    4.27
  -8   7  -4   54.68    3.72
  -8  -7   4   49.75    3.17
   8   7   4   46.83    3.05
  -8  -7  -5   48.26    3.56
  -8  -7  -5   47.15    3.62
  -8  -7  -5   35.93    3.24
  -8   7   5   40.50    3.62
   8  -7   5   43.70    4.53
  -8   7   5   49.53    4.83
   8   7   5   40.62    3.37
  -8   7  -5   40.26    3.73
  -8  -7   5   42.34    3.43
  -8   7  -5   43.93    3.88
  -8   7  -5   47.80    3.75
  -8   7   6   41.49    5.47
  -8  -7  -6   32.20    3.51
  -8  -7  -6   39.03    4.01
  -8  -7  -6   38.32    4.14
  -8   7   6   30.81    3.82
  -8   7  -6   33.57    4.49
   8   7   6   32.22    3.72
  -8   7  -6   35.22    3.89
  -8   7   7   41.69    5.82
  -8  -7  -7   33.98    4.12
  -8  -7  -7   35.08    4.76
  -8   7   7   31.30    4.26
  -8  -7  -7   38.82    5.38
  -8   7  -7   29.97    4.25
  -8   7  -7   33.39    5.09
   8   7   7   27.95    3.87
  -8   7   8   16.77    5.73
  -8  -7  -8   16.58    5.93
  -8  -7  -8    9.10    3.80
  -8   7   8   14.09    3.94
  -8  -7  -8   10.29    3.32
  -8   7  -8    0.43    4.52
  -8   7  -8   19.79    4.10
  -8  -7   8    2.69    3.20
   8   7   8   12.52    3.86
  -9  -7   0   30.35    1.55
   9  -7   0   30.76    2.91
  -9   7   0   31.54    2.67
  -9   7   0   33.76    2.35
  -9  -7  -1    3.51    0.68
   9  -7   1    5.60    1.56
  -9  -7  -1    5.21    1.02
  -9   7   1    6.06    1.85
  -9  -7  -1    3.93    1.34
  -9   7   1    4.04    1.04
  -9  -7   1    4.31    0.50
   9  -7  -1    6.88    1.72
  -9   7  -1    2.92    1.00
  -9   7  -1    4.18    1.18
  -9   7   2   13.23    2.31
  -9   7   2   14.15    1.72
  -9  -7  -2   12.88    1.35
   9  -7   2   15.76    2.31
  -9  -7   2   15.06    1.32
  -9   7  -2   15.66    2.02
  -9  -7   2   15.81    1.17
  -9   7  -2   12.92    1.90
  -9  -7   2   15.40    1.05
  -9   7   3    1.90    0.94
   9  -7   3    0.95    1.78
  -9  -7  -3    2.18    0.97
  -9   7   3    3.82    1.94
  -9  -7  -3    4.23    1.33
  -9   7  -3    2.89    1.20
  -9  -7   3    2.08    0.87
  -9   7  -3    2.51    1.29
  -9  -7  -4    4.12    1.48
  -9  -7  -4    2.07    1.14
  -9  -7  -4    2.30    1.23
  -9   7   4    5.19    1.53
   9  -7   4   -0.65    2.05
  -9   7   4    3.00    1.98
   9   7   4    3.67    1.22
  -9   7  -4    2.17    1.35
  -9   7  -4    1.79    1.64
  -9  -7  -5    1.14    1.38
   9  -7   5    2.25    2.68
  -9   7   5    1.68    1.53
  -9   7   5    1.66    2.52
  -9  -7  -5    2.30    1.54
   9   7   5   -0.08    1.44
  -9   7  -5    0.05    1.54
  -9   7  -5    2.78    2.19
  -9   7  -5   -0.06    1.90
  -9   7   6    1.64    3.23
  -9  -7  -6   -0.84    2.04
  -9   7   6    2.82    2.10
  -9  -7  -6   -1.62    1.74
  -9  -7  -6   -0.18    2.23
   9   7   6    0.13    1.96
  -9   7  -6    2.61    3.05
  -9   7  -6   -0.37    2.60
  -9   7  -6    3.25    2.11
  -9   7   7    1.02    4.29
  -9   7   7   -0.91    2.50
  -9  -7  -7   -2.40    2.76
  -9  -7  -7    0.85    2.31
  -9  -7  -7    3.97    3.31
  -9  -7   7   -1.17    2.47
  -9   7  -7   -1.89    2.33
  -9   7  -7    4.80    4.03
   9   7   7   -0.56    2.64
 -10  -7   0  100.15    4.48
 -10   7   0   94.84    5.38
 -10  -7   0   96.28    4.23
 -10   7   0  106.28    5.14
  10  -7   1    3.33    1.93
 -10   7   1    5.20    1.61
 -10   7   1    5.30    1.30
 -10  -7  -1    5.44    0.83
 -10   7  -1    6.17    1.24
  10  -7  -1    0.59    1.97
 -10   7  -1    3.74    1.19
 -10   7   2   99.55    6.50
 -10   7   2  106.03    5.59
 -10  -7  -2  109.35    5.04
 -10  -7  -2  112.72    5.22
 -10  -7   2  108.47    4.52
 -10  -7   2  100.22    4.79
 -10   7  -2  105.81    5.66
 -10   7  -2  102.82    5.59
 -10  -7  -3    9.41    1.61
  10  -7   3    1.16    2.19
 -10   7   3    4.31    1.42
 -10   7   3    7.23    2.37
 -10  -7  -3    5.01    1.17
 -10   7  -3    3.58    1.44
 -10  -7   3    5.07    1.03
 -10  -7  -4   98.07    5.39
 -10   7   4   93.53    5.61
 -10  -7  -4  102.90    5.47
 -10  -7  -4  110.58    5.65
  10   7   4   94.27    5.35
 -10   7  -4  104.95    6.04
 -10  -7   4   97.67    4.97
 -10   7  -4  102.26    5.98
 -10   7   5    0.07    1.57
 -10  -7  -5   -1.44    1.91
 -10  -7  -5    0.73    1.58
 -10  -7  -5    1.27    1.53
 -10   7   5    3.17    3.02
 -10   7  -5   -0.24    1.77
  10   7   5    1.28    1.75
 -10   7  -5    2.02    2.40
 -10  -7   5    0.61    1.67
 -10   7   6   52.89    7.16
 -10  -7  -6   54.63    4.66
 -10   7   6   47.51    4.67
 -10  -7  -6   57.60    5.52
 -10  -7  -6   57.85    4.85
 -10   7  -6   43.84    4.89
  10   7   6   42.76    4.47
 -10   7  -6   45.22    5.73
 -10  -7   6   45.55    4.20
 -10   7   7   -5.80    4.74
 -10  -7  -7    4.61    2.97
 -10   7   7   -2.58    2.38
 -10  -7  -7   -1.16    3.22
 -10  -7  -7    2.12    2.58
 -10  -7   7    3.81    2.66
 -10   7  -7    0.19    4.08
  10   7   7    4.56    3.13
 -10   7  -7    0.34    2.70
 -11   7   0   12.10    1.71
 -11  -7   0   15.18    1.13
 -11   7   0   12.91    1.90
 -11  -7  -1   -0.21    0.62
 -11   7   1    2.98    1.50
 -11   7   1    0.20    0.96
 -11   7  -1    1.37    1.02
 -11  -7   1    0.50    0.96
 -11   7  -1    1.60    1.12
 -11  -7   1    0.13    0.47
 -11  -7  -2    9.10    1.32
 -11   7   2   12.74    2.66
 -11  -7   2   12.07    1.15
 -11   7  -2   13.11    2.10
 -11  -7  -3    4.33    1.66
 -11  -7  -3    3.14    1.14
 -11   7   3    5.29    2.40
 -11   7   3    3.24    1.49
 -11   7  -3    3.77    1.52
 -11  -7   3    3.76    0.95
 -11   7  -3    3.98    1.74
 -11  -7  -4    1.53    1.31
 -11  -7  -4    4.36    1.48
 -11   7   4    1.12    2.63
 -11  -7  -4    6.62    2.02
 -11   7   4    3.42    1.53
  11   7   4    0.82    1.09
 -11   7  -4    1.31    2.01
 -11   7  -4    1.68    1.67
 -11  -7  -5   -1.06    2.19
 -11  -7  -5    2.26    1.71
 -11  -7  -5    0.62    1.65
 -11   7   5    2.90    3.38
 -11   7   5    1.79    1.79
  11   7   5    3.12    1.94
 -11   7  -5    0.19    2.05
 -11   7  -5    9.25    2.94
 -11  -7   5    4.23    1.75
 -11   7   6    4.67    2.38
 -11  -7  -6    3.22    3.16
 -11   7   6    8.34    4.39
 -11  -7  -6    0.11    2.27
 -11  -7  -6    0.74    2.10
 -11  -7   6    0.34    2.10
 -11   7  -6    0.34    3.38
  11   7   6    3.52    2.66
 -11   7  -6   -0.94    4.22
 -11   7  -6    1.92    2.40
 -11  -7  -7    2.73    3.39
 -11   7   7    8.66    2.94
 -11  -7  -7    4.40    2.79
 -11   7   7   13.68    6.23
 -11  -7  -7    8.77    3.87
  11   7   7    7.09    3.86
 -11   7  -7   -0.05    4.68
 -11  -7   7    5.77    2.82
 -11   7  -7    3.61    3.33
 -12   7   0   69.15    4.16
 -12   7   0   71.12    4.41
 -12  -7   0   69.44    3.29
 -12   7   1  142.19    7.17
 -12  -7  -1  135.26    5.90
 -12   7   1  120.36    6.51
 -12  -7   1  130.77    5.50
 -12   7  -1  129.82    6.64
 -12   7  -1  131.44    6.80
 -12   7   2   53.97    3.69
 -12  -7  -2   48.85    3.07
 -12   7   2   55.75    4.81
 -12   7  -2   47.09    3.62
 -12  -7   2   48.07    2.54
 -12   7  -2   55.08    4.68
 -12  -7  -3   76.11    5.31
 -12  -7  -3   58.46    3.82
 -12   7   3   62.62    4.32
 -12  -7   3   64.28    3.23
 -12   7  -3   58.51    4.59
 -12   7  -3   65.08    4.52
 -12   7   4   24.30    3.12
 -12   7   4   31.93    4.86
 -12  -7  -4   26.91    2.79
 -12  -7  -4   27.14    3.65
 -12  -7  -4   26.55    2.87
 -12   7  -4   22.92    3.28
 -12   7  -4   22.57    3.34
 -12  -7   4   25.47    2.41
 -12   7   5   19.08    2.96
 -12  -7  -5   14.45    2.70
 -12   7   5   23.76    4.71
 -12  -7  -5   18.19    3.34
 -12  -7  -5   23.58    3.06
 -12  -7   5   17.64    2.47
 -12   7  -5   19.19    3.71
 -12   7  -5   17.39    3.33
 -12  -7  -6   20.15    3.52
 -12   7   6   18.89    3.37
 -12  -7  -6   15.95    3.92
 -12   7   6   12.51    5.31
 -12  -7  -6   16.35    3.13
 -12  -7   6   21.22    3.05
 -12   7  -6    0.06    5.00
 -12   7  -6   12.04    4.07
 -12   7  -6   12.40    3.55
 -13   7   0   -0.55    0.96
 -13  -7   0   -0.12    0.70
 -13   7   0   -0.09    1.40
 -13   7   1    0.75    1.64
 -13  -7  -1    1.80    0.86
 -13   7   1    2.23    1.20
 -13  -7   1    0.95    0.70
 -13   7  -1    4.28    2.11
 -13   7  -1    0.59    1.31
 -13   7   2    2.39    2.40
 -13  -7  -2   -1.27    1.11
 -13   7   2    0.54    1.21
 -13   7  -2    0.64    1.47
 -13  -7   2    0.25    0.74
 -13   7  -2    0.40    1.48
 -13  -7  -3    1.80    1.37
 -13   7   3    4.99    3.04
 -13   7   3    3.66    1.75
 -13  -7   3    4.41    1.28
 -13   7  -3    3.31    1.82
 -13   7  -3    5.24    1.92
 -13   7   4   -2.09    3.15
 -13   7   4    0.20    1.73
 -13  -7  -4    0.42    1.45
 -13  -7  -4    2.86    1.67
 -13   7  -4    0.60    2.34
 -13   7  -4    0.45    1.79
 -13  -7   4    2.14    1.43
 -13  -7  -5    3.23    2.07
 -13  -7  -5    4.44    2.07
 -13   7   5   -0.05    2.10
 -13  -7  -5    4.71    3.03
 -13   7   5    8.72    4.76
 -13  -7   5    3.31    1.93
 -13   7  -5    2.60    3.11
 -13   7  -5    3.86    3.24
 -13   7   6    0.86    2.37
 -13  -7  -6    2.89    2.75
 -13  -7  -6   -3.44    2.20
 -13   7   6   -2.89    5.60
 -13  -7  -6   -3.96    3.63
 -13   7  -6   -5.34    5.46
 -13   7  -6    0.95    3.13
 -13   7  -6    5.53    4.14
 -13  -7   6   -4.39    2.38
 -14   7   0   11.81    2.38
 -14   7   0    9.76    1.82
 -14  -7   0    8.90    1.21
 -14   7   1   59.91    3.99
 -14  -7  -1   58.45    3.37
 -14   7   1   64.10    4.95
 -14   7  -1   52.59    3.95
 -14  -7   1   62.04    2.97
 -14   7  -1   61.13    4.39
 -14  -7  -2    6.44    1.52
 -14   7   2    4.34    1.49
 -14   7   2    7.79    2.70
 -14   7  -2    5.29    1.96
 -14   7  -2    6.84    1.99
 -14  -7   2    7.03    1.00
 -14   7   3   43.08    3.76
 -14  -7  -3   39.89    3.29
 -14   7   3   46.50    5.81
 -14   7  -3   34.88    4.13
 -14   7  -3   44.68    4.18
 -14  -7   3   43.21    2.76
 -14   7   4    3.02    1.93
 -14   7   4    4.60    4.19
 -14  -7  -4    5.60    2.06
 -14  -7  -4    4.24    1.70
 -14   7  -4    0.42    2.41
 -14   7  -4    4.47    2.39
 -14  -7   4    4.62    1.50
 -14  -7  -5   23.59    3.26
 -14   7   5   20.61    3.31
 -14   7   5   23.37    6.15
 -14  -7  -5   22.44    3.26
 -14   7  -5   21.95    4.20
 -14   7  -5   24.04    4.20
 -14  -7   5   23.59    2.80
 -14  -7  -6    2.22    3.13
 -14   7   6    2.95    2.83
 -14  -7  -6    1.80    2.64
 -14   7   6    2.78    7.05
 -14   7  -6    3.23    6.37
 -14  -7   6    2.36    2.83
 -14   7  -6   -0.18    4.41
 -14   7  -6   -2.86    3.13
 -15  -7   0    4.44    1.20
 -15   7   0    6.82    2.14
 -15   7   0    5.15    1.67
 -15  -7  -1    1.47    1.24
 -15   7   1   -0.21    1.35
 -15   7   1    1.45    2.08
 -15  -7   1    2.24    1.05
 -15   7  -1    0.80    1.69
 -15   7  -1    1.68    1.86
 -15   7   2    3.46    2.56
 -15  -7  -2    6.92    1.65
 -15   7   2    4.80    1.78
 -15   7  -2    2.79    1.87
 -15  -7   2    7.03    1.18
 -15   7  -2    5.70    2.03
 -15   7   3    4.05    1.86
 -15   7   3    0.19    2.88
 -15  -7  -3    1.84    1.73
 -15   7  -3    2.33    2.09
 -15   7  -3    3.18    2.22
 -15  -7   3    0.99    1.26
 -15   7   4    1.66    2.10
 -15   7   4    4.22    4.40
 -15  -7  -4   -0.40    2.00
 -15  -7  -4    2.10    1.82
 -15  -7   4    4.35    1.75
 -15   7  -4    2.28    2.65
 -15   7  -4    3.75    2.57
 -15   7   5   -6.09    5.80
 -15   7   5    2.72    2.54
 -15  -7  -5    1.94    2.32
 -15  -7  -5   -1.65    2.32
 -15   7  -5   -2.65    3.23
 -15  -7   5   -0.33    2.25
 -15   7  -5    1.26    3.36
 -16   7   0   11.89    2.62
 -16  -7   0   11.76    1.68
 -16   7   0   11.63    2.15
 -16   7   1    6.15    1.87
 -16  -7  -1    7.36    1.65
 -16   7   1    5.58    2.60
 -16   7  -1    5.07    1.93
 -16  -7   1    6.11    1.34
 -16   7  -1    3.52    2.03
 -16   7   2   21.80    3.64
 -16  -7  -2   27.83    2.99
 -16   7  -2   18.87    2.95
 -16   7  -2   17.05    2.98
 -16  -7   2   18.61    1.98
 -16   7   3    3.11    1.87
 -16  -7  -3    4.15    2.16
 -16   7   3    5.49    3.41
 -16   7  -3    7.31    2.69
 -16   7  -3    5.15    2.60
 -16  -7   3    4.88    1.36
 -16  -7  -4   36.26    4.15
 -16   7   4   35.34    6.00
 -16   7   4   21.82    3.39
 -16  -7  -4   36.06    3.79
 -16   7  -4   26.63    4.28
 -16   7  -4   29.23    4.10
 -16  -7   4   30.00    3.17
 -16   7   5    1.47    6.27
 -16  -7  -5    7.09    2.79
 -16  -7  -5   11.71    3.19
 -16   7   5    5.49    2.84
 -16   7  -5    3.71    3.97
 -16   7  -5    7.30    3.96
 -17   7   0    5.78    2.52
 -17  -7   0    5.33    1.68
 -17   7   0    5.68    2.06
 -17   7   1   -0.26    1.58
 -17   7   1   -3.71    2.43
 -17  -7  -1    0.74    1.65
 -17   7  -1    1.27    1.90
 -17  -7   1    0.82    1.40
 -17   7  -1    1.84    2.16
 -17   7   2    2.02    1.82
 -17   7   2    1.20    3.02
 -17  -7  -2    6.53    2.18
 -17   7  -2    5.64    2.71
 -17   7  -2    0.35    2.14
 -17   7   3    0.20    1.89
 -17  -7  -3   -0.50    2.19
 -17   7   3   -4.64    3.55
 -17   7  -3    2.13    2.89
 -17   7  -3    1.86    2.44
 -17   7   4    2.42    2.27
 -17  -7  -4    3.80    2.85
 -17  -7  -4    4.35    2.24
 -17   7   4    9.78    5.29
 -17   7  -4    3.07    3.24
 -17   7  -4   -2.73    3.07
 -18   7   0   30.03    4.07
 -18   7   0   21.43    3.05
 -18  -7   0   26.20    3.11
 -18  -7  -1    8.67    2.32
 -18   7   1   10.98    3.36
 -18   7  -1    8.82    2.83
 -18   7  -1    6.59    2.36
 -18  -7  -2   20.83    3.14
 -18   7   2   22.82    4.45
 -18   7   2   29.44    3.51
 -18   7  -2   25.30    3.89
 -18   7  -2   26.46    3.68
 -18  -7  -3    0.48    2.68
 -18   7   3    2.03    2.23
 -18   7  -3    0.26    2.78
 -18   7  -3   -1.51    3.18
 -19   7   0   -1.69    2.02
 -19   7   0    3.70    3.15
 -19   7   1   -7.18    4.37
 -19   7   1   -1.04    1.96
 -19  -7  -1   -1.64    2.52
 -19   7  -1    0.01    2.96
 -19   7  -1    2.03    2.33
 -19  -7  -2    0.62    2.71
   0   8   0  628.92   26.10
   0  -8   0  678.35   26.27
   0   8   0  665.29   25.98
   0   8   1    0.32    0.44
   0   8  -1    0.10    0.29
   0  -8   1   -0.14    0.49
   0   8  -1   -0.16    0.38
   0  -8  -1   -0.17    0.40
   0   8   1   -0.17    0.50
   0  -8   2  434.77   17.51
   0   8  -2  407.49   16.98
   0  -8  -2  391.05   17.25
   0   8   2  440.24   17.19
   0   8  -2  445.43   16.98
   0   8   2  425.02   17.49
   0  -8  -3   -0.59    0.51
   0  -8  -3    1.11    0.73
   0   8   3   -0.79    0.53
   0   8  -3    0.17    0.44
   0   8   3   -0.40    0.66
   0   8  -3   -0.09    0.65
   0  -8   3   -0.33    0.72
   0  -8  -3    0.36    0.67
   0  -8  -4  129.97    6.22
   0   8   4  141.19    6.24
   0  -8  -4  121.56    5.99
   0  -8  -4  123.69    6.19
   0   8  -4  128.57    5.77
   0  -8   4  127.37    6.45
   0   8  -4  115.45    5.71
   0   8   4  135.86    6.47
   0  -8   5    0.73    1.33
   0   8  -5    1.51    0.80
   0  -8  -5    1.11    1.16
   0  -8  -5   -1.23    0.94
   0   8  -5   -1.01    1.30
   0  -8  -5   -0.67    1.05
   0   8   5   -0.40    1.10
   0   8   5    0.01    1.18
   0   8   6   28.82    3.44
   0  -8  -6   23.11    2.97
   0  -8   6   23.26    3.23
   0   8  -6   21.97    2.32
   0   8   6   27.73    3.18
   0  -8  -6   24.25    3.19
   0  -8   7    3.55    2.45
   0  -8  -7   -7.07    3.15
   0   8   7   -0.62    2.41
   0   8   7   -1.76    2.01
   0   8  -7    2.48    1.54
   0   8  -8    8.87    2.49
   0   8   8   11.02    3.46
   0   8   8   11.01    3.77
   1   8   0    2.02    0.40
  -1  -8   0    1.72    0.46
   1   8   0    1.96    0.38
  -1   8   0    3.16    0.63
  -1   8   0    3.01    0.52
   1  -8   0    1.82    0.57
  -1   8   1   17.15    1.17
   1  -8   1   15.11    1.39
   1   8  -1   12.94    0.82
  -1   8   1   15.35    1.45
  -1  -8  -1   13.07    1.05
  -1  -8   1   15.27    1.17
  -1   8  -1   16.00    1.07
   1  -8  -1   14.93    1.27
   1   8   1   13.38    1.24
  -1   8  -1   14.57    1.04
   1   8   1   15.10    1.05
   1   8  -2    4.76    0.63
  -1   8   2    4.65    0.79
  -1  -8  -2    4.59    0.75
   1   8  -2    4.08    0.55
  -1   8   2    3.19    0.88
  -1  -8  -2    3.86    0.79
  -1  -8  -2    4.59    0.76
   1  -8   2    3.53    0.98
   1   8   2    4.48    0.87
   1   8   2    3.66    0.80
  -1   8  -2    5.52    0.81
  -1   8  -2    3.79    0.62
   1  -8  -2    3.15    0.72
  -1  -8   2    3.74    0.80
   1   8  -3   13.81    1.06
   1  -8   3   11.82    1.59
  -1  -8  -3   13.18    1.36
   1   8  -3   12.31    1.27
  -1  -8  -3   11.49    1.21
  -1  -8  -3   11.72    1.47
  -1   8   3   12.70    1.60
  -1   8   3   11.26    1.38
  -1   8  -3   13.76    1.19
  -1  -8   3   13.81    1.52
   1   8   3   12.64    1.40
  -1   8  -3   10.79    1.33
   1   8   3   14.28    1.52
   1  -8  -3   10.94    1.41
   1   8  -4   10.00    1.13
  -1  -8  -4    8.18    1.39
   1  -8   4   11.01    1.80
   1   8  -4    9.11    1.31
  -1  -8  -4   12.78    1.39
  -1   8   4   10.72    1.69
  -1  -8  -4   10.11    1.62
  -1   8   4   10.65    1.65
   1   8   4    8.82    1.46
  -1   8  -4   11.63    1.56
  -1  -8   4    9.71    1.67
  -1   8  -4    9.49    1.22
   1   8   4    8.75    1.35
   1  -8  -4    9.28    1.53
   1   8  -5    0.56    0.71
  -1   8   5    1.42    1.13
  -1  -8  -5   -0.82    1.00
  -1  -8  -5    2.03    1.21
  -1   8   5    0.20    1.29
  -1  -8  -5    2.45    1.10
   1  -8   5   -0.61    1.28
   1   8   5    2.72    1.29
  -1   8  -5    5.19    1.42
  -1  -8   5    1.76    1.40
   1   8   5    2.98    1.32
   1  -8  -5    1.25    1.29
  -1   8  -5    2.86    0.94
  -1  -8  -6    7.28    1.88
  -1   8   6    9.79    2.39
   1  -8   6   10.68    2.52
   1   8  -6    9.36    1.54
  -1   8   6    7.84    2.13
  -1  -8  -6    8.66    1.91
  -1   8  -6    9.75    1.72
  -1  -8   6    8.43    2.29
   1  -8  -6   10.19    2.24
   1   8   6    7.71    2.20
   1   8  -7    2.84    1.60
  -1   8   7    0.33    2.24
  -1   8   7    1.86    2.38
  -1  -8  -7   -0.07    1.95
   1  -8   7    3.16    2.57
  -1  -8  -7   -0.16    3.08
  -1  -8   7    1.91    2.45
   1   8   7    5.49    2.57
   1  -8  -7    6.64    3.28
  -1   8  -7   -1.38    1.50
   1   8   7   -0.79    2.11
  -1   8   8    3.89    3.31
  -1   8   8    3.55    3.11
   1   8   8    2.13    2.89
  -1   8  -8    3.10    2.25
   1   8   8    6.82    3.67
  -2  -8   0   92.66    3.96
   2  -8   0   93.22    4.52
   2   8   0   92.80    3.82
  -2   8   0   96.68    4.16
  -2   8   0   98.03    4.41
   2   8   0   89.67    3.81
  -2   8   1  176.62    8.33
   2  -8   1  182.04    8.25
  -2   8   1  191.74    7.96
  -2  -8  -1  187.78    7.77
  -2  -8  -1  188.04    7.77
  -2  -8  -1  199.97    7.89
   2   8   1  172.16    7.74
  -2  -8   1  185.49    7.59
  -2   8  -1  179.12    7.77
   2   8   1  182.68    7.50
  -2   8  -1  198.00    7.74
   2  -8  -1  189.14    8.06
  -2  -8  -2   84.34    3.97
  -2  -8  -2   83.50    3.94
  -2   8   2   85.30    4.43
   2  -8   2   82.51    4.41
  -2   8   2   89.32    4.10
   2   8  -2   86.69    3.55
  -2  -8  -2   88.04    4.06
   2  -8  -2   84.80    4.28
  -2   8  -2   87.09    3.97
  -2   8  -2   78.04    3.92
   2   8   2   84.74    4.12
  -2  -8   2   90.09    4.08
   2   8   2   90.61    3.91
  -2  -8  -3  150.42    6.71
  -2   8   3  145.06    7.05
  -2  -8  -3  150.94    6.67
   2   8  -3  147.48    6.16
  -2  -8  -3  145.16    6.60
  -2   8   3  151.23    6.76
   2  -8   3  143.82    7.05
   2   8   3  138.98    6.66
  -2  -8   3  142.87    6.67
  -2   8  -3  153.44    6.32
   2  -8  -3  151.01    6.80
  -2   8  -3  149.95    6.48
  -2   8  -3  141.11    6.45
   2   8   3  142.83    6.46
  -2   8   4   52.70    3.62
  -2  -8  -4   52.45    3.18
  -2  -8  -4   56.11    3.27
   2  -8   4   54.32    3.70
   2   8  -4   56.23    2.76
  -2   8   4   55.98    3.32
  -2  -8  -4   58.71    3.42
  -2   8  -4   59.99    3.26
   2  -8  -4   57.35    3.56
   2   8   4   55.16    3.51
   2   8   4   56.60    3.33
  -2   8  -4   61.21    3.27
  -2  -8   4   53.82    3.51
   2   8  -5   75.80    3.79
  -2  -8  -5   83.00    4.60
  -2  -8  -5   72.21    4.32
  -2   8   5   73.26    4.52
  -2   8   5   75.26    4.91
   2  -8   5   77.35    4.99
  -2  -8  -5   77.95    4.48
  -2   8  -5   72.72    4.09
  -2  -8   5   75.65    5.22
   2   8   5   69.51    4.85
  -2   8  -5   76.35    4.23
   2   8   5   81.40    4.47
   2  -8  -5   74.05    4.55
  -2   8   6   30.21    3.25
  -2  -8  -6   28.25    3.03
   2  -8   6   27.91    3.80
  -2   8   6   26.81    3.66
  -2  -8  -6   32.79    3.34
  -2  -8  -6   31.08    3.40
   2   8  -6   32.26    2.45
   2   8   6   28.14    3.48
   2   8   6   29.22    3.27
  -2   8  -6   30.42    2.81
  -2  -8   6   29.86    3.49
  -2   8   7   26.64    3.71
  -2  -8  -7   29.09    3.64
  -2  -8  -7   20.25    2.99
  -2   8   7   27.68    4.17
   2  -8   7   27.70    4.20
  -2  -8  -7   33.09    4.21
  -2  -8   7   23.08    3.69
   2   8   7   21.30    3.35
  -2   8  -7   24.81    3.02
   2   8   7   26.99    3.86
  -2   8   8   19.73    3.87
  -2   8   8   11.22    3.77
  -2  -8  -8    6.26    6.83
   2   8   8   15.25    3.65
  -2   8  -8   16.15    2.93
   2   8   8   22.03    4.46
  -3  -8   0    5.36    0.47
   3  -8   0    5.67    1.06
  -3   8   0    7.25    1.09
  -3   8   0    5.77    0.78
  -3  -8  -1   13.01    0.91
  -3  -8  -1   13.58    1.14
  -3   8   1   16.51    1.28
  -3   8   1   15.09    1.64
  -3  -8  -1   11.74    0.95
   3  -8   1   12.29    1.46
  -3   8  -1   12.58    1.17
   3  -8  -1   14.69    1.45
  -3   8  -1   11.78    1.09
   3   8   1   13.01    1.01
  -3  -8   1   13.29    0.75
  -3   8   2    0.87    0.57
  -3  -8  -2    0.34    0.47
   3  -8   2   -0.51    0.72
  -3  -8  -2    0.13    0.41
  -3  -8  -2    0.11    0.53
  -3   8   2   -0.09    0.69
  -3  -8   2    0.30    0.50
  -3   8  -2    0.51    0.49
   3   8   2   -0.16    0.79
  -3   8  -2   -0.20    0.56
   3   8   2    0.04    0.52
   3  -8  -2    0.02    0.66
  -3   8   3    7.25    1.36
   3  -8   3   11.67    1.81
  -3  -8  -3    9.55    1.18
  -3  -8  -3    9.82    1.34
  -3   8   3    8.76    1.35
  -3  -8  -3    8.58    1.13
  -3  -8   3    9.19    1.27
  -3   8  -3    7.33    1.14
   3   8   3   11.12    1.34
   3   8   3    8.43    1.27
  -3   8  -3    8.81    1.22
   3  -8  -3    9.87    1.53
  -3  -8  -4    0.94    0.76
  -3   8   4    0.36    0.95
  -3   8   4    0.50    0.91
  -3  -8  -4    0.75    0.86
   3  -8   4    2.63    1.30
   3   8  -4    1.73    0.59
  -3  -8  -4    1.18    0.81
  -3  -8   4    0.89    0.91
  -3   8  -4    0.79    0.96
   3   8   4    0.73    0.89
  -3   8  -4    1.85    1.10
   3   8   4    1.62    1.03
  -3   8  -4    1.61    0.78
   3  -8  -4    0.90    1.13
   3   8  -5    3.50    0.89
  -3  -8  -5    3.08    1.20
  -3  -8  -5    3.28    1.23
  -3   8   5    3.39    1.40
   3  -8   5    2.30    1.42
  -3   8   5    2.56    1.50
  -3   8  -5    4.39    1.36
   3  -8  -5    2.21    1.54
  -3   8   6    0.18    1.68
   3  -8   6   -2.60    1.93
  -3  -8  -6   -0.40    1.33
  -3   8   6   -0.74    1.70
  -3  -8  -6    0.36    1.56
  -3  -8  -6   -0.30    1.80
   3   8   6   -1.05    1.70
  -3   8  -6    2.34    1.31
   3   8   6   -1.08    1.57
  -3  -8   6   -0.35    1.76
   3  -8  -6    1.12    2.32
  -3   8  -6    1.50    1.85
  -3  -8  -7   -4.92    2.87
  -3  -8  -7    2.02    2.11
  -3  -8  -7    0.74    1.92
  -3   8   7    1.37    2.28
  -3   8   7    0.77    2.22
   3  -8   7    6.82    2.95
  -3   8  -7   -1.55    2.69
   3   8   7    2.12    2.83
  -3   8  -7    0.45    1.73
   3   8   7   -2.48    2.01
  -3  -8   7    3.54    2.52
  -3  -8  -8   -4.08    4.82
  -3   8   8    2.32    3.58
  -3  -8  -8   -0.07    2.42
  -3   8   8   -0.04    2.93
   3   8   8    2.47    4.11
  -3   8  -8    0.57    2.32
   3   8   8   -0.20    2.68
  -4  -8   0   32.41    1.62
   4  -8   0   30.53    2.24
  -4   8   0   29.56    1.84
  -4   8   0   29.93    2.11
  -4  -8   0   29.27    1.44
  -4   8   1   53.10    2.96
  -4  -8  -1   59.50    2.69
  -4   8   1   48.52    3.36
   4  -8   1   51.56    3.26
  -4  -8  -1   59.29    2.64
  -4  -8  -1   61.23    2.59
  -4   8  -1   64.14    3.24
  -4  -8   1   53.97    2.55
  -4   8  -1   65.52    3.10
   4  -8  -1   60.66    3.43
  -4   8   2   23.61    1.72
  -4  -8  -2   21.78    1.55
  -4  -8  -2   23.33    1.50
  -4   8   2   27.42    2.26
   4  -8   2   24.99    2.15
  -4   8  -2   26.50    1.79
   4   8   2   25.07    1.49
  -4   8  -2   22.69    1.73
  -4  -8   2   26.23    1.32
   4  -8  -2   25.58    2.06
   4   8   2   23.45    1.59
  -4  -8   2   24.41    1.48
  -4  -8  -3  121.35    5.19
  -4  -8  -3  113.83    5.08
  -4   8   3   99.13    5.19
  -4   8   3  103.05    5.64
   4  -8   3   93.40    5.50
  -4  -8  -3  108.93    5.03
   4  -8  -3  108.14    5.31
   4   8   3   87.73    4.77
  -4   8  -3  114.33    5.02
  -4  -8   3   93.08    4.79
  -4   8  -3  108.86    5.00
  -4  -8  -4   12.19    1.53
  -4   8   4    9.25    1.78
  -4  -8  -4   10.21    1.53
  -4  -8  -4   14.37    1.83
   4  -8   4   12.96    2.02
  -4   8   4   13.71    1.81
   4  -8  -4   15.64    2.15
  -4   8  -4   12.00    1.65
   4   8   4   15.60    1.76
   4   8   4   10.28    1.58
  -4   8  -4   11.29    1.68
  -4  -8   4   11.61    1.70
  -4   8  -4   11.73    1.59
   4  -8   5  102.98    6.32
  -4   8   5  100.00    6.23
  -4  -8  -5  104.56    6.18
  -4  -8  -5  106.25    5.63
  -4  -8  -5  113.27    5.73
  -4  -8   5   97.14    5.86
  -4   8  -5  106.11    5.56
   4   8   5  113.51    5.60
  -4   8  -5   99.07    5.51
   4  -8  -5  106.86    6.06
  -4  -8  -6    3.60    1.59
  -4   8   6    4.35    2.33
  -4  -8  -6    2.89    1.76
   4  -8   6    5.34    2.51
  -4   8   6    5.13    2.04
  -4  -8  -6    6.54    2.05
   4   8   6    3.63    1.87
   4  -8  -6   -0.08    2.72
  -4   8  -6    4.52    1.62
  -4   8  -6    8.24    2.06
  -4  -8   6    4.20    1.89
   4   8   6   -0.95    1.93
  -4  -8  -7   73.03    6.20
  -4   8   7   69.91    5.43
  -4   8   7   71.38    6.39
  -4  -8  -7   60.21    4.81
   4  -8   7   52.21    6.06
  -4  -8  -7   55.38    5.08
  -4   8  -7   59.16    4.52
  -4  -8   7   62.81    5.25
   4   8   7   49.09    4.93
  -4  -8  -8    2.76    2.80
  -4   8   8    4.56    4.09
  -4  -8  -8   -2.25    2.37
  -4   8   8    2.50    3.39
  -4  -8  -8    3.72    4.89
   4   8   8    0.98    2.83
  -4   8  -8    3.96    2.40
   4   8   8   11.34    4.97
  -5   8   0   36.80    2.20
  -5  -8   0   39.14    1.84
  -5   8   0   39.23    2.54
  -5  -8   0   34.56    1.66
   5  -8   0   36.00    2.52
   5  -8   1    7.23    1.31
  -5   8   1    9.27    1.20
  -5   8   1    7.56    1.59
  -5  -8  -1    6.73    0.76
  -5  -8  -1    8.82    0.99
  -5   8  -1    5.99    1.09
  -5  -8   1    8.74    0.57
   5  -8  -1    7.65    1.35
  -5   8  -1    8.57    1.15
   5  -8   2    5.12    1.39
  -5  -8  -2    7.58    0.93
  -5   8   2    7.20    1.14
  -5  -8  -2    8.11    1.07
  -5  -8  -2    6.47    0.89
  -5   8   2    6.93    1.41
  -5   8  -2    5.76    1.02
  -5   8  -2    7.46    1.18
   5  -8  -2    6.35    1.32
   5   8   2    4.94    0.78
  -5  -8   2    6.01    0.75
  -5  -8   2    5.37    0.57
  -5  -8   2    8.34    0.91
   5   8   2    9.45    1.13
   5  -8   3    7.45    1.60
  -5  -8  -3    4.80    0.93
  -5  -8  -3    5.73    1.03
  -5   8   3    7.03    1.61
  -5   8   3    7.78    1.30
  -5  -8  -3    6.60    1.20
  -5   8  -3    6.95    1.24
   5   8   3    6.67    1.09
  -5  -8   3    7.69    1.13
  -5  -8   3    8.90    1.12
   5   8   3    8.90    1.23
  -5   8  -3    7.90    1.26
   5  -8  -3    6.07    1.46
  -5  -8  -4    2.21    0.91
  -5  -8  -4    3.45    1.07
  -5   8   4    2.05    1.36
  -5  -8  -4    0.77    0.88
  -5   8   4    1.23    1.06
   5  -8   4    3.25    1.50
  -5   8  -4    2.05    1.09
  -5  -8   4    2.10    1.05
  -5   8  -4    2.17    1.12
   5   8   4    2.96    1.25
  -5   8  -4    2.04    1.03
   5   8   4    0.47    0.91
   5  -8  -4    3.95    1.54
  -5   8   5    1.83    1.47
   5  -8   5    3.77    1.91
  -5   8   5    1.65    1.90
  -5  -8  -5    2.93    1.36
  -5  -8  -5    1.85    1.36
  -5  -8  -5    3.83    1.40
  -5   8  -5    2.75    1.29
   5   8   5    3.49    1.44
   5  -8  -5    2.85    2.04
   5   8   5    1.16    1.56
  -5   8  -5    2.56    1.45
  -5  -8   5    2.24    1.33
  -5   8  -5   -2.34    1.52
  -5  -8  -6    0.56    1.92
  -5   8   6    1.48    2.33
   5  -8   6    3.15    2.41
  -5  -8  -6   -0.06    1.77
  -5   8   6    4.29    1.94
  -5  -8  -6    1.26    1.56
  -5   8  -6    0.90    1.47
   5   8   6    1.27    2.15
  -5   8  -6    2.42    2.14
   5   8   6    0.34    1.71
  -5  -8   6    3.37    1.93
  -5   8   7   -1.75    2.95
  -5  -8  -7   -4.55    1.96
  -5   8   7    4.47    2.50
   5  -8   7   -1.92    3.32
  -5  -8  -7    4.25    2.97
  -5  -8  -7    2.22    2.14
   5   8   7    1.47    2.29
  -5   8  -7    0.97    1.97
   5   8   7    2.97    3.36
  -5   8  -7    1.33    2.94
  -5   8   8    7.56    3.29
  -5  -8  -8    1.42    2.87
  -5  -8  -8   -0.70    5.18
  -5   8   8   -1.95    3.94
  -5  -8  -8   -1.16    2.77
  -5   8  -8    5.72    2.65
   5   8   8    5.96    3.22
  -6   8   0  364.37   15.08
  -6  -8   0  362.00   14.38
   6  -8   0  360.27   15.44
  -6   8   0  367.38   15.45
  -6  -8  -1   70.61    3.25
  -6   8   1   77.28    3.87
   6  -8   1   70.42    4.14
  -6   8   1   67.80    4.38
  -6  -8  -1   74.91    3.33
   6  -8  -1   73.00    4.14
  -6   8  -1   73.16    4.04
  -6   8  -1   79.42    3.91
  -6   8   2  252.56   10.99
  -6  -8  -2  256.62   10.57
  -6  -8  -2  252.04   10.62
  -6   8   2  256.57   11.67
   6  -8   2  257.28   11.43
  -6  -8  -2  255.43   10.61
   6   8   2  243.04    9.87
  -6   8  -2  221.81   10.56
   6  -8  -2  241.73   10.81
  -6   8  -2  237.27   10.52
   6   8   2  252.34    9.76
  -6  -8   2  259.55    9.80
  -6  -8  -3   35.05    2.29
  -6   8   3   38.38    2.61
  -6  -8  -3   34.44    2.46
  -6  -8  -3   36.28    2.36
  -6   8   3   39.83    3.21
   6  -8   3   42.69    3.18
  -6   8  -3   35.17    2.56
  -6  -8   3   37.73    2.18
  -6  -8   3   36.01    2.24
   6   8   3   34.13    2.24
  -6   8  -3   37.96    2.67
   6   8   3   37.46    2.33
  -6  -8  -4   99.78    5.18
  -6   8   4  103.09    5.46
  -6  -8  -4  102.20    5.25
  -6  -8  -4   99.66    5.30
   6  -8   4  108.50    6.09
  -6   8   4  103.42    6.06
  -6  -8   4  104.49    5.24
   6  -8  -4   95.52    5.76
   6   8   4  101.75    5.12
  -6   8  -4  103.83    5.46
  -6   8  -4  100.81    5.38
   6  -8   5    8.57    2.23
  -6  -8  -5    7.73    1.68
  -6   8   5    9.23    2.04
  -6  -8  -5    9.63    1.82
  -6   8   5   10.12    2.53
  -6  -8  -5   10.07    1.89
  -6   8  -5    8.80    1.89
   6   8   5    6.42    1.71
  -6  -8   5   10.14    1.84
  -6   8  -5    7.67    1.71
  -6   8   6   35.78    3.82
  -6   8   6   38.74    4.85
  -6  -8  -6   33.54    3.46
   6  -8   6   41.54    4.88
  -6  -8  -6   38.63    3.79
  -6  -8  -6   34.22    3.78
   6   8   6   34.50    3.71
  -6   8  -6   37.60    4.20
  -6   8  -6   30.54    3.35
  -6  -8   6   33.31    3.65
  -6  -8  -7    0.77    2.05
  -6  -8  -7    0.08    2.20
  -6   8   7   -0.03    2.50
   6  -8   7    3.83    4.11
  -6  -8  -7    2.13    2.94
  -6   8   7    4.05    3.50
   6   8   7    2.43    2.50
  -6   8  -7    1.54    1.96
  -6   8  -7   -0.84    3.11
  -6  -8  -8   19.69    4.21
  -6  -8  -8   16.07    3.50
  -6   8   8   18.90    4.18
  -6   8   8   20.13    5.26
  -6  -8  -8    6.87    5.65
  -6   8  -8   21.71    3.78
   6   8   8   16.52    3.77
  -7   8   0   -0.31    0.56
  -7  -8   0    0.10    0.31
   7  -8   0    1.26    1.20
  -7   8   0   -0.30    0.78
  -7   8   1    0.84    0.80
   7  -8   1    0.03    1.04
  -7   8   1   -0.41    1.13
  -7  -8  -1   -0.08    0.44
  -7  -8  -1    0.15    0.70
  -7   8  -1    0.66    0.68
  -7   8  -1    0.19    0.80
   7  -8  -1    0.01    1.03
   7  -8   2    2.65    1.32
  -7  -8  -2    1.10    0.66
  -7   8   2    1.27    1.21
  -7  -8  -2    1.70    0.87
  -7   8   2    0.06    0.79
  -7   8  -2    2.41    0.98
  -7   8  -2    2.15    0.96
  -7   8   3    1.83    1.47
  -7  -8  -3    2.14    1.05
   7  -8   3    1.98    1.43
  -7   8   3    1.69    0.91
  -7  -8  -3    1.95    0.75
  -7  -8  -3    1.83    0.70
   7   8   3    2.27    0.77
   7  -8  -3    0.65    1.57
  -7   8  -3    3.12    0.96
  -7   8  -3    2.35    1.13
  -7  -8   3    0.46    0.71
  -7  -8  -4    5.62    1.44
  -7  -8  -4    4.74    1.28
   7  -8   4    5.02    1.91
  -7   8   4    4.40    1.79
  -7   8   4    5.76    1.43
   7   8   4    6.30    1.22
  -7   8  -4    8.46    1.83
  -7   8  -4    5.43    1.75
   7  -8  -4    1.94    2.18
  -7  -8   4    3.87    1.19
  -7  -8  -5    2.14    1.38
  -7   8   5   -1.50    1.86
  -7  -8  -5   -0.15    1.31
   7  -8   5   -0.71    1.96
  -7   8   5    1.85    1.52
  -7  -8  -5   -0.34    1.30
  -7   8  -5    0.33    1.85
  -7   8  -5    1.49    1.36
  -7  -8   5    1.04    1.37
   7   8   5   -0.15    1.32
  -7   8  -5   -2.82    1.71
  -7   8   6    5.09    2.99
   7  -8   6    6.19    3.32
  -7  -8  -6    8.63    2.38
  -7  -8  -6    6.48    2.21
  -7   8   6    7.68    2.39
  -7  -8  -6    5.68    1.95
  -7   8  -6    6.27    2.73
  -7   8  -6    4.65    1.93
  -7  -8   6    4.38    2.02
   7   8   6    6.53    2.18
  -7  -8  -7    1.76    2.24
  -7   8   7   -1.24    2.36
  -7  -8  -7    3.27    3.01
   7  -8   7   -8.95    4.44
  -7  -8  -7   -2.58    2.43
  -7   8   7    0.79    3.69
   7   8   7    1.31    2.52
  -7   8  -7    1.90    2.13
  -7   8  -7    0.50    3.53
  -7  -8  -8    9.07    5.48
  -7  -8  -8    4.62    2.90
  -7  -8  -8   -0.81    3.18
  -7   8   8    3.50    3.39
  -7   8   8    3.06    4.95
  -7   8  -8    0.88    3.00
   7   8   8    0.31    3.37
   8  -8   0  223.07   10.47
  -8   8   0  245.25   10.67
  -8   8   0  239.33   10.24
  -8  -8   0  230.29    9.37
  -8   8   1   56.24    3.46
  -8  -8  -1   65.67    2.99
  -8  -8  -1   58.75    2.80
  -8   8   1   53.30    4.04
   8  -8   1   58.72    3.81
  -8   8  -1   62.23    3.88
   8  -8  -1   60.78    3.97
  -8   8  -1   72.33    3.80
  -8  -8  -2  151.45    6.94
  -8  -8  -2  164.13    7.05
  -8   8   2  167.04    8.44
  -8   8   2  159.71    7.49
   8  -8   2  159.22    7.87
  -8   8  -2  113.43    6.39
  -8   8  -2  137.78    6.45
   8  -8  -2  139.63    6.60
  -8  -8  -3   45.34    2.71
  -8   8   3   48.02    3.92
  -8  -8  -3   46.75    2.93
  -8  -8  -3   42.44    2.74
  -8   8   3   42.25    3.04
   8  -8   3   44.40    3.61
   8   8   3   41.78    2.32
  -8   8  -3   41.82    3.13
  -8   8  -3   42.17    3.16
  -8  -8   3   42.04    2.44
  -8  -8  -4   57.81    3.77
   8  -8   4   69.40    5.38
  -8   8   4   58.88    3.88
  -8  -8  -4   54.16    3.55
  -8   8   4   65.54    4.76
  -8  -8  -4   52.35    3.54
  -8  -8   4   61.59    3.58
   8   8   4   57.10    3.36
  -8   8  -4   55.88    4.00
  -8   8  -4   56.80    4.05
  -8  -8  -5   23.99    3.01
   8  -8   5   25.35    3.73
  -8   8   5   22.04    2.89
  -8   8   5   21.41    3.48
  -8  -8  -5   25.57    2.88
  -8  -8  -5   24.58    2.73
  -8  -8   5   21.24    2.74
  -8   8  -5   23.14    3.09
  -8   8  -5   24.98    3.24
   8   8   5   23.31    2.78
   8  -8   6    5.16    4.08
  -8  -8  -6   13.87    2.85
  -8   8   6   19.61    4.35
  -8  -8  -6   19.21    3.14
  -8  -8  -6   17.60    2.77
  -8   8   6   18.80    2.91
  -8   8  -6   20.35    3.15
  -8   8  -6   17.53    3.53
   8   8   6   19.58    2.87
  -8  -8  -7    6.76    2.63
  -8   8   7   11.90    4.68
  -8   8   7   10.98    3.21
  -8  -8  -7    6.60    3.05
  -8  -8  -7    9.34    3.60
  -8   8  -7   12.97    4.32
  -8   8  -7    9.67    2.93
   8   8   7    8.31    2.89
  -9  -8   0    2.07    0.48
   9  -8   0    3.81    1.59
  -9   8   0    2.80    1.00
  -9   8   0    1.85    1.01
  -9  -8  -1    3.05    0.69
   9  -8   1    3.84    1.60
  -9   8   1    3.41    1.00
  -9  -8  -1    3.96    1.76
  -9   8   1    4.49    1.60
  -9   8  -1    3.04    1.13
   9  -8  -1    4.51    1.69
  -9   8  -1    3.62    1.29
  -9   8   2    1.37    1.03
   9  -8   2    0.18    1.59
  -9  -8  -2    0.82    1.18
  -9   8   2    2.92    1.65
  -9  -8  -2    1.61    0.71
  -9   8  -2    2.72    1.21
   9  -8  -2    0.27    1.77
  -9   8  -2    3.60    1.24
  -9  -8   2    1.60    0.59
  -9  -8  -3    8.79    1.66
  -9   8   3   10.26    1.90
  -9  -8  -3    7.01    1.18
  -9  -8  -3    7.37    1.27
  -9   8   3   11.61    2.44
   9  -8   3   12.19    2.50
  -9   8  -3    8.42    1.69
  -9  -8   3    9.84    1.21
  -9   8  -3    6.95    1.83
  -9  -8  -4   -0.38    1.08
   9  -8   4    1.10    2.30
  -9  -8  -4    0.57    1.14
  -9   8   4    0.49    1.18
  -9  -8  -4   -0.92    1.37
  -9   8  -4   -1.10    1.42
  -9   8  -4    2.33    1.50
  -9  -8   4    1.25    1.28
   9   8   4    2.55    1.08
  -9  -8  -5    4.08    1.69
  -9  -8  -5    2.18    1.46
  -9   8   5    3.19    1.72
  -9   8   5    0.85    2.81
   9  -8   5    1.84    2.84
   9   8   5    3.59    1.64
  -9   8  -5    2.55    1.77
  -9   8  -5    0.33    1.99
  -9   8  -5    2.30    2.21
  -9  -8  -6   -1.86    2.26
  -9   8   6   -2.34    3.29
   9  -8   6    0.01    4.38
  -9  -8  -6   -0.95    1.75
  -9  -8  -6   -0.50    2.02
  -9   8   6    2.80    2.08
  -9   8  -6    1.01    2.93
  -9   8  -6    1.82    2.13
   9   8   6    1.86    2.23
  -9  -8  -7    1.27    3.25
  -9   8   7    1.76    2.52
  -9  -8  -7    5.24    2.97
  -9  -8  -7   -0.58    2.41
  -9   8   7   -0.49    4.48
  -9   8  -7    1.41    2.71
   9   8   7    0.85    2.96
  -9   8  -7   -0.34    4.05
 -10  -8   0    7.58    0.97
  10  -8   0    0.75    1.88
 -10  -8   0    5.00    0.67
 -10   8   0    5.42    1.30
 -10   8   0    6.91    1.64
  10  -8   1   79.19    5.28
 -10   8   1   94.47    5.48
 -10  -8  -1   89.41    4.10
 -10   8   1   94.72    4.89
 -10  -8   1   88.80    3.85
 -10   8  -1   97.58    5.05
 -10   8  -1   98.72    5.30
 -10   8   2    9.59    2.44
 -10   8   2    4.88    1.30
  10  -8   2    5.23    2.13
 -10  -8  -2    7.14    1.15
 -10  -8   2    7.34    0.80
 -10   8  -2    6.63    1.49
 -10  -8   2    7.11    1.10
 -10   8  -2    5.79    1.50
 -10  -8   2    8.48    0.91
 -10  -8  -3   94.47    5.36
 -10  -8  -3  102.09    5.25
 -10   8   3   95.70    6.35
 -10   8   3   95.94    5.41
 -10  -8   3   94.39    4.24
 -10  -8   3   96.63    4.38
 -10   8  -3   69.72    5.60
 -10  -8  -4   12.96    1.90
 -10  -8  -4   14.21    2.20
 -10   8   4    8.98    1.96
 -10   8   4   11.85    3.13
 -10  -8  -4    9.10    1.82
 -10   8  -4   11.68    2.50
 -10   8  -4   14.05    2.78
 -10  -8  -5   79.04    4.93
 -10   8   5   73.93    6.74
 -10  -8  -5   68.08    4.64
 -10   8   5   71.36    4.99
 -10  -8  -5   73.95    5.34
 -10   8  -5   84.25    5.98
 -10   8  -5   75.08    5.70
  10   8   5   72.04    4.71
 -10  -8  -6    2.90    2.13
 -10   8   6   10.63    4.22
 -10  -8  -6    7.26    2.58
 -10   8   6    6.16    2.36
 -10  -8  -6    7.54    2.97
 -10   8  -6    6.54    3.68
 -10  -8   6    7.11    2.38
  10   8   6    8.03    2.76
 -10   8  -6    4.29    2.60
 -10   8   7   37.06    7.02
 -10  -8  -7   34.75    4.52
 -10  -8  -7   36.29    4.62
 -10  -8  -7   42.25    5.33
 -10   8   7   35.72    4.69
 -10  -8   7   31.11    3.95
  10   8   7   31.46    4.39
 -10   8  -7   34.20    4.95
 -10   8  -7   28.13    5.67
 -11  -8   0   -0.31    0.53
 -11   8   0    0.27    0.99
 -11   8   0    0.82    1.20
 -11   8   1    1.03    1.42
 -11  -8  -1    2.10    0.79
  11  -8   1    0.76    2.43
 -11   8  -1   -0.33    1.23
 -11  -8   1    0.92    0.49
 -11  -8   1    2.02    0.81
 -11   8  -1    2.12    1.32
 -11  -8  -2    1.96    0.92
  11  -8   2   -0.80    2.26
 -11   8   2    1.73    2.10
 -11   8   2   -0.20    1.08
 -11   8  -2    2.18    1.33
 -11   8  -2    1.76    1.40
 -11  -8   2    0.67    0.62
 -11   8   3    1.94    1.32
 -11  -8  -3   -0.96    1.05
 -11  -8  -3   -0.94    1.62
 -11  -8   3    2.30    0.89
 -11   8  -3    2.75    1.68
 -11   8  -3    0.55    1.53
 -11  -8  -4   -1.92    1.12
 -11   8   4   -1.78    2.68
 -11   8   4   -0.91    1.33
 -11  -8  -4    3.81    1.95
 -11  -8  -4   -0.63    1.31
 -11   8  -4   -0.75    1.49
 -11   8  -4   -0.71    1.95
 -11  -8  -5    2.05    1.63
 -11   8   5   -3.28    3.11
 -11   8   5   -0.17    1.73
 -11  -8  -5    0.33    1.69
 -11  -8  -5    0.28    2.37
  11   8   5    1.87    2.00
 -11   8  -5    4.32    2.91
 -11  -8   5   -0.23    1.75
 -11   8  -5   -0.88    2.45
 -11  -8  -6   -1.26    2.28
 -11  -8  -6   -1.00    1.99
 -11  -8  -6    2.36    3.00
 -11   8   6    2.57    2.29
 -11   8   6    6.45    4.64
 -11   8  -6   -1.39    3.38
  11   8   6   -4.01    2.74
 -11   8  -6   -6.27    4.72
 -11  -8   6    3.45    2.36
 -11   8  -6    3.11    2.44
 -11  -8  -7    5.28    3.54
 -11  -8  -7    0.42    2.73
 -11   8   7    3.84    2.97
 -11  -8  -7   -1.31    3.61
 -11   8   7   -3.97    5.51
 -11   8  -7    2.59    5.02
  11   8   7    9.03    4.20
 -11  -8   7    1.44    2.87
 -11   8  -7   -0.22    3.05
 -12   8   0   61.87    4.04
 -12  -8   0   53.18    2.71
 -12   8   0   55.57    3.66
 -12   8   1   23.53    2.92
 -12  -8  -1   20.84    1.69
 -12   8   1   18.20    2.23
 -12  -8   1   21.03    1.34
 -12   8  -1   20.26    2.24
 -12   8  -1   26.21    2.77
 -12   8   2   42.36    3.35
 -12   8   2   45.66    4.39
 -12  -8  -2   42.87    3.13
 -12  -8   2   43.53    2.27
 -12   8  -2   39.25    3.62
 -12   8  -2   48.68    3.72
 -12  -8  -3   18.67    2.33
 -12   8   3   20.33    3.79
 -12   8   3   18.24    2.59
 -12  -8   3   18.17    1.64
 -12   8  -3   23.52    3.04
 -12   8  -3   20.37    3.00
 -12  -8  -4   29.17    3.55
 -12   8   4   23.59    3.11
 -12  -8  -4   31.72    2.99
 -12  -8  -4   20.42    2.72
 -12   8   4   26.36    4.62
 -12  -8   4   27.07    2.51
 -12   8  -4   25.39    3.81
 -12   8  -4   24.49    3.49
 -12   8   5   18.29    4.68
 -12  -8  -5   10.53    2.45
 -12   8   5   13.69    2.72
 -12  -8  -5   17.92    3.38
 -12  -8  -5   13.26    2.57
 -12   8  -5   14.94    3.85
 -12  -8   5   14.71    2.35
 -12   8  -5   14.37    3.35
 -12  -8  -6   17.04    4.07
 -12  -8  -6   15.59    3.22
 -12   8   6   12.81    3.11
 -12  -8  -6   16.67    3.45
 -12   8   6   19.70    5.58
 -12  -8   6   19.08    3.07
 -12   8  -6   20.74    4.46
 -12   8  -6   18.39    4.70
 -13   8   0    5.57    1.60
 -13  -8   0    6.22    0.94
 -13   8   1   -1.09    1.13
 -13  -8  -1   -0.11    0.82
 -13   8  -1   -1.43    1.19
 -13   8  -1    4.51    1.75
 -13  -8   1    0.37    0.66
 -13   8   2    1.56    1.41
 -13  -8  -2    1.26    1.14
 -13   8   2    4.13    2.27
 -13   8  -2    1.51    1.60
 -13  -8   2    1.41    0.73
 -13   8  -2    3.73    1.83
 -13   8   3    0.96    1.63
 -13   8   3    2.05    2.90
 -13  -8  -3   -0.41    1.31
 -13  -8   3    0.06    0.95
 -13   8  -3    0.33    1.71
 -13   8  -3    0.36    1.90
 -13  -8  -4    0.84    1.61
 -13  -8  -4    3.47    1.65
 -13   8   4    7.46    4.17
 -13   8   4    0.12    1.67
 -13   8  -4    0.12    2.14
 -13   8  -4    1.23    2.29
 -13  -8   4    1.09    1.36
 -13   8   5    0.67    1.97
 -13   8   5    5.33    4.57
 -13  -8  -5   -0.19    1.93
 -13  -8  -5    0.41    2.00
 -13   8  -5    1.91    3.21
 -13  -8   5    1.03    1.91
 -13   8  -5    1.01    2.84
 -13   8   6    1.54    6.14
 -13  -8  -6    0.80    2.86
 -13   8   6    2.26    2.64
 -13  -8  -6   -0.59    4.00
 -13  -8  -6    2.79    2.67
 -13  -8   6    6.36    2.73
 -13   8  -6    3.26    3.59
 -13   8  -6   -3.35    4.28
 -14   8   0  105.00    6.05
 -14  -8   0   96.62    4.53
 -14   8   0   93.67    5.49
 -14   8   1    2.23    1.82
 -14   8   1    2.60    1.47
 -14  -8  -1    3.47    1.21
 -14  -8   1    4.33    0.85
 -14   8  -1    2.98    1.55
 -14   8  -1    3.49    1.86
 -14   8   2   86.03    6.07
 -14  -8  -2   79.54    4.49
 -14   8   2   79.87    4.98
 -14  -8   2   77.14    3.57
 -14   8  -2   77.71    5.22
 -14   8  -2   80.31    5.37
 -14  -8  -3    5.02    1.71
 -14   8   3    4.67    3.10
 -14   8   3    3.14    1.90
 -14   8  -3    5.69    2.16
 -14   8  -3    4.92    2.23
 -14  -8   3    2.90    1.24
 -14   8   4   46.21    6.55
 -14   8   4   39.72    4.08
 -14  -8  -4   38.21    3.75
 -14  -8  -4   34.27    3.50
 -14  -8   4   39.17    2.91
 -14   8  -4   32.74    4.52
 -14   8  -4   38.94    4.79
 -14  -8  -5    5.23    2.44
 -14   8   5   -1.13    2.27
 -14   8   5    1.34    5.55
 -14  -8  -5    2.26    2.28
 -14   8  -5    4.53    3.58
 -14  -8   5    5.03    2.18
 -14   8  -5    7.31    3.77
 -14   8   6   15.87    3.53
 -14  -8  -6   15.20    3.57
 -14   8  -6   14.11    5.68
 -14   8  -6   13.02    4.11
 -15   8   0    2.10    1.81
 -15   8   0    3.03    1.59
 -15  -8   0    2.88    1.18
 -15   8   1    2.07    1.57
 -15   8   1    1.99    1.93
 -15  -8  -1    1.08    1.30
 -15   8  -1    1.45    1.98
 -15   8  -1    0.83    1.75
 -15  -8  -2    0.03    1.47
 -15   8   2   -3.68    2.33
 -15   8   2    1.15    1.56
 -15   8  -2   -2.38    1.88
 -15   8  -2    0.75    1.81
 -15  -8   2    2.49    1.03
 -15  -8  -3    2.10    1.78
 -15   8   3   -0.42    3.04
 -15   8   3    1.78    1.71
 -15  -8   3    0.37    1.44
 -15   8  -3   -0.25    2.42
 -15   8  -3    1.86    2.35
 -15   8   4    2.56    2.15
 -15   8   4   -6.10    3.90
 -15  -8  -4   -0.82    1.85
 -15  -8  -4   -1.49    2.01
 -15   8  -4    0.24    2.73
 -15  -8   4    1.55    1.77
 -15   8  -4    2.86    2.88
 -15   8   5   -0.82    6.00
 -15  -8  -5    4.52    2.63
 -15   8   5    0.45    2.53
 -15  -8  -5    2.84    2.73
 -15  -8   5   -2.54    2.22
 -15   8  -5    3.45    3.85
 -15   8  -5    0.83    3.15
 -16   8   0    7.48    2.55
 -16   8   0    7.65    1.99
 -16  -8   0    6.98    1.52
 -16   8   1   44.75    4.71
 -16   8   1   28.75    3.19
 -16  -8  -1   32.68    3.06
 -16   8  -1   35.73    3.63
 -16   8  -1   38.34    4.21
 -16  -8   1   32.64    2.44
 -16   8   2    5.60    1.92
 -16   8   2    1.77    2.68
 -16  -8  -2    4.18    1.83
 -16   8  -2    4.61    2.26
 -16   8  -2    2.81    2.12
 -16   8   3   31.89    4.86
 -16  -8  -3   28.94    3.71
 -16   8   3   30.98    3.60
 -16   8  -3   28.59    4.15
 -16   8  -3   26.41    3.93
 -16   8   4    2.62    4.60
 -16  -8  -4    4.13    2.60
 -16  -8  -4    2.58    2.09
 -16   8   4    4.91    2.38
 -16   8  -4    7.52    3.55
 -16   8  -4    7.17    3.42
 -17   8   0   -2.66    2.21
 -17  -8   0   -0.98    1.54
 -17   8   0   -0.52    1.69
 -17   8   1   -1.02    2.45
 -17  -8  -1    3.74    1.82
 -17   8   1    0.64    1.70
 -17   8  -1    2.02    2.44
 -17   8  -1    1.64    1.97
 -17   8   2    0.87    1.87
 -17  -8  -2    0.04    1.94
 -17   8   2    1.35    2.94
 -17   8  -2    2.81    2.62
 -17   8  -2    0.42    2.29
 -17  -8  -3    2.22    2.47
 -17   8   3    2.34    2.04
 -17   8   3    5.91    3.81
 -17   8  -3    5.54    3.42
 -17   8  -3   -1.24    2.53
 -17  -8  -4    0.85    2.24
 -17   8   4    2.27    2.31
 -17  -8  -4   -0.14    2.67
 -17   8   4   -0.67    4.72
 -17   8  -4   -2.51    3.28
 -17   8  -4    2.49    3.45
 -18   8   0   15.16    2.79
 -18   8   1   13.46    2.74
 -18  -8  -1   17.73    2.62
 -18   8   1   20.62    3.74
 -18   8  -1   12.83    2.87
 -18   8  -1   24.86    3.85
 -18   8   2   17.74    4.06
 -18  -8  -2   15.63    2.89
 -18   8   2   12.33    2.60
 -18   8  -2   14.38    3.65
 -18   8  -2   10.72    3.02
 -18  -8  -3   21.27    3.32
 -18   8   3   15.37    2.83
 -18   8   3   17.40    4.62
 -18   8  -3   18.82    4.14
 -18   8  -3   15.46    3.73
 -19   8   0   -1.45    2.17
 -19   8   0    1.65    3.21
 -19  -8  -1   -1.54    2.59
 -19   8   1   -6.03    3.43
 -19   8   1   -0.58    2.16
 -19   8  -1    2.70    3.04
 -19   8  -1    1.72    2.56
   0   9   0   -0.12    0.38
   0  -9   0   -0.28    0.46
   0   9   0    0.04    0.34
   0  -9  -1  181.90    7.81
   0   9   1  184.67    7.63
   0   9   1  160.86    7.93
   0   9  -1  184.41    7.52
   0   9  -1  193.03    7.50
   0  -9   1  188.63    7.97
   0   9   2    1.09    0.67
   0   9  -2    0.71    0.38
   0   9  -2    0.74    0.60
   0  -9  -2   -0.03    0.53
   0  -9   2   -0.16    0.64
   0   9   2   -0.19    0.53
   0   9   3  168.63    7.67
   0   9   3  163.92    7.98
   0  -9   3  175.17    8.08
   0   9  -3  166.57    7.39
   0  -9  -3  181.50    7.89
   0   9  -3  190.29    7.44
   0   9  -4    0.51    0.64
   0  -9   4    0.45    1.04
   0  -9  -4    0.75    0.93
   0   9   4   -0.01    0.97
   0   9   4   -0.69    0.87
   0  -9  -4    0.11    0.92
   0   9  -4   -0.78    1.64
   0  -9  -5  126.90    6.35
   0   9   5  118.43    6.20
   0   9  -5  114.92    5.63
   0  -9   6    0.80    1.91
   0   9   6   -1.08    1.66
   0   9  -6   -0.21    1.05
   0   9   6   -1.49    1.69
   0  -9   7   49.49    5.40
   0   9  -7   54.24    3.92
   0   9   7   55.82    5.07
   0   9   7   55.90    5.32
   0   9   8   -3.03    3.41
   0   9   8    1.70    3.17
   0  -9   8    2.17    3.31
   0   9  -8   -1.47    2.26
   1   9   0   14.54    0.91
  -1   9   0   13.14    1.13
  -1  -9   0   13.32    1.07
   1  -9   0   12.50    1.26
  -1   9   0   15.55    1.07
   1   9  -1   51.45    2.24
  -1   9   1   49.78    2.55
  -1  -9  -1   51.16    2.56
   1  -9   1   49.27    2.86
  -1   9   1   46.80    2.90
   1   9   1   43.46    2.68
  -1  -9   1   48.99    2.65
  -1   9  -1   52.74    2.51
   1   9   1   49.78    2.45
   1  -9  -1   54.83    2.85
  -1   9  -1   57.05    2.50
  -1  -9  -2   17.77    1.41
  -1   9   2   17.81    1.72
  -1  -9  -2   19.16    1.47
  -1   9   2   19.83    1.50
   1  -9   2   21.38    1.85
   1   9  -2   19.08    1.15
  -1   9  -2   17.95    1.28
   1  -9  -2   17.82    1.57
  -1  -9   2   20.17    1.64
  -1   9  -2   17.69    1.38
   1   9   2   22.70    1.46
   1   9   2   18.14    1.58
   1  -9   3   51.16    3.46
  -1  -9  -3   59.62    3.17
  -1  -9  -3   60.82    3.33
  -1  -9  -3   58.90    3.25
  -1   9   3   53.95    3.17
   1   9  -3   65.22    2.89
   1   9  -3   61.67    2.83
  -1   9   3   54.65    3.49
  -1   9  -3   59.74    2.98
   1   9   3   52.27    3.30
   1   9   3   54.82    3.09
  -1  -9   3   54.12    3.37
   1  -9  -3   61.61    3.39
  -1   9  -3   65.35    3.09
  -1   9   4   11.97    1.88
  -1  -9  -4    9.31    1.49
   1  -9   4    9.72    1.74
   1   9  -4   12.71    1.20
  -1  -9  -4   13.26    1.75
  -1  -9  -4    8.61    1.37
  -1   9   4    8.46    1.55
   1   9   4    9.28    1.61
   1   9   4   10.09    1.53
  -1  -9   4    8.46    1.62
  -1   9  -4    9.59    1.30
  -1   9  -4   12.26    1.50
   1  -9  -4    9.83    1.69
  -1  -9  -5   38.88    3.11
   1   9  -5   36.28    2.35
  -1   9   5   34.73    2.99
  -1  -9  -5   38.58    3.07
  -1   9  -5   34.75    2.49
   1  -9  -5   34.65    3.09
   1   9   5   39.11    3.02
  -1  -9  -6    5.74    1.85
  -1  -9  -6    2.21    1.70
   1   9  -6    1.88    1.19
  -1   9   6    2.66    1.92
  -1  -9  -6    4.37    2.03
   1  -9   6    8.64    2.55
  -1   9   6    2.54    1.83
  -1   9  -6    3.30    1.40
  -1  -9   6    2.07    1.95
   1  -9  -6    5.87    2.21
   1   9   6    4.49    1.96
   1   9  -7   16.89    2.31
   1  -9   7   10.97    3.19
  -1   9   7   11.02    2.83
  -1  -9  -7   17.36    3.80
  -1   9   7   17.97    3.24
   1   9   7   15.20    3.15
  -1   9  -7   15.20    2.35
  -1  -9   7   15.42    3.24
   1  -9  -7    5.22    3.74
   1   9   7   17.35    3.35
  -1   9   8    0.25    3.49
   1  -9   8    6.45    3.66
  -1   9   8    0.25    3.33
  -1   9  -8   -0.35    2.18
   1   9   8   10.48    3.95
  -1  -9   8   -3.22    3.26
   1   9   8    0.14    2.79
   2   9   0  113.22    4.53
  -2   9   0  110.27    5.05
  -2  -9   0  106.71    4.72
  -2   9   0  114.33    4.85
   2   9   0  111.81    4.50
   2  -9   0  107.74    5.27
  -2  -9  -1  109.75    4.75
  -2   9   1   97.20    5.29
  -2   9   1  113.79    4.94
   2  -9   1  112.33    5.29
  -2   9  -1  115.52    5.01
   2  -9  -1  107.89    5.28
   2   9   1  106.48    4.95
   2   9   1  114.32    4.69
  -2   9  -1  120.08    4.95
  -2  -9   1  109.07    4.88
  -2  -9  -2   85.18    4.06
  -2   9   2   79.31    4.42
   2  -9   2   87.66    4.51
   2   9  -2   87.09    3.46
  -2   9   2   85.28    4.08
  -2  -9  -2   80.91    3.96
  -2  -9  -2   81.99    3.93
   2   9   2   81.03    4.08
   2   9   2   88.93    4.23
  -2   9  -2   85.19    3.94
  -2  -9   2   82.14    4.07
   2  -9  -2   85.98    4.34
  -2   9  -2   82.96    3.93
   2   9  -3   50.83    2.32
  -2   9   3   49.30    2.86
  -2  -9  -3   48.67    2.75
  -2  -9  -3   51.87    2.96
  -2  -9  -3   49.06    2.83
   2  -9   3   48.46    3.27
  -2   9   3   45.22    3.20
   2   9   3   54.92    2.92
   2   9   3   49.02    3.06
  -2  -9   3   51.87    3.12
  -2   9  -3   51.97    2.77
  -2   9  -3   52.58    2.86
   2  -9  -3   52.24    3.21
  -2   9  -3   51.57    2.82
  -2   9   4   46.51    3.16
   2   9  -4   49.98    2.53
  -2  -9  -4   51.56    3.09
   2  -9   4   45.49    3.54
  -2  -9  -4   53.68    3.20
  -2  -9  -4   51.62    3.29
  -2   9   4   48.47    3.57
  -2   9  -4   45.19    2.84
   2   9   4   44.33    3.16
  -2  -9   4   49.03    3.33
   2  -9  -4   54.53    3.40
  -2   9  -4   51.06    2.97
   2   9   4   47.70    3.04
  -2   9   5   18.40    2.34
  -2   9   5   14.90    2.77
  -2  -9  -5   16.39    2.22
  -2  -9  -5   18.74    2.31
  -2  -9  -5   13.43    2.30
   2   9  -5   15.17    1.52
   2   9   5   15.66    2.63
   2  -9  -5   18.26    2.56
  -2  -9   5   16.76    2.62
  -2  -9  -6   29.46    3.06
   2   9  -6   26.15    2.35
  -2   9   6   24.98    3.26
  -2  -9  -6   27.70    3.55
  -2   9   6   16.96    2.82
  -2  -9  -6   28.74    3.30
   2  -9   6   24.14    3.59
   2   9   6   21.05    3.01
  -2  -9   6   25.43    3.40
   2  -9  -6   14.88    2.98
   2   9   6   29.39    3.68
  -2   9  -6   25.02    2.65
  -2   9   7    2.79    2.44
  -2  -9  -7    7.32    2.64
  -2  -9  -7    5.84    2.39
   2  -9   7    3.52    3.01
  -2  -9  -7    5.50    3.34
  -2   9   7    1.12    2.46
   2   9   7    8.06    3.09
  -2   9  -7    5.62    1.92
   2   9   7    3.64    2.30
  -2  -9   7    7.40    2.74
   2  -9  -7    3.07    5.51
  -2   9   8    9.02    3.98
  -2  -9  -8   -0.32    5.16
   2  -9   8   13.26    3.99
  -2   9   8   15.78    4.00
  -2   9  -8   15.83    2.96
   2   9   8    5.35    3.29
   2   9   8    7.26    4.20
  -3   9   0  346.23   15.22
   3  -9   0  375.69   15.52
  -3  -9   0  376.76   14.69
  -3   9   0  375.12   15.00
  -3  -9  -1   14.30    1.22
  -3   9   1   12.13    1.18
   3  -9   1   11.30    1.47
  -3  -9  -1   12.93    0.97
  -3  -9  -1   12.04    0.98
  -3   9   1   12.80    1.72
  -3   9  -1   14.75    1.27
  -3   9  -1   13.38    1.15
   3   9   1   13.84    0.95
  -3  -9   1   13.79    0.92
   3  -9  -1   13.14    1.55
  -3   9   2  189.19    8.82
  -3  -9  -2  199.49    8.25
  -3  -9  -2  189.44    8.14
   3  -9   2  193.36    8.83
  -3   9   2  191.91    8.35
  -3  -9  -2  188.60    8.16
  -3  -9   2  188.65    8.01
   3   9   2  186.07    8.05
  -3   9  -2  182.90    8.06
  -3   9  -2  189.42    8.06
   3   9   2  191.13    7.78
   3  -9  -2  185.05    8.44
  -3  -9  -3   10.39    1.29
  -3   9   3   12.52    1.90
   3  -9   3   10.97    1.69
  -3  -9  -3   10.84    1.47
  -3   9   3   12.83    1.52
  -3  -9  -3   12.11    1.34
   3   9   3   11.83    1.53
  -3  -9   3   12.60    1.53
   3  -9  -3   14.00    1.81
   3   9   3   14.93    1.50
  -3   9  -3   11.43    1.29
  -3   9  -3   11.43    1.44
  -3   9  -3   10.97    1.46
  -3  -9  -4   36.38    2.69
   3  -9   4   36.63    3.10
  -3   9   4   33.66    3.04
  -3  -9  -4   33.96    2.52
  -3   9   4   34.70    2.69
  -3  -9  -4   34.70    2.48
  -3   9  -4   34.37    2.53
  -3   9  -4   28.65    2.28
  -3  -9   4   34.87    2.71
   3  -9  -4   33.45    2.89
   3   9   4   35.86    2.59
   3   9   4   34.01    2.61
  -3   9   5    2.54    1.31
  -3   9   5    0.67    1.52
  -3  -9  -5    0.55    1.05
  -3  -9  -5    1.63    1.16
  -3  -9   5    0.19    1.39
  -3   9  -5    0.57    1.41
   3   9   5    0.90    1.25
   3   9   5    3.39    1.52
  -3   9  -5   -0.50    0.95
  -3  -9  -6    1.24    1.65
   3  -9   6    3.25    2.49
  -3   9   6    2.83    2.10
  -3   9   6    3.48    1.98
  -3  -9  -6    2.09    1.95
  -3  -9  -6    2.95    1.48
   3   9   6    4.53    1.91
  -3   9  -6    3.69    1.46
  -3   9  -6   -1.04    1.96
  -3  -9   6    4.62    2.07
   3   9   6    3.89    2.08
   3  -9  -6    2.39    2.45
  -3  -9  -7    0.35    1.99
  -3   9   7   -0.64    2.62
  -3  -9  -7   -0.89    2.11
  -3  -9  -7    0.42    3.04
  -3   9   7   -2.04    2.26
   3  -9   7   -0.23    2.74
  -3   9  -7   -1.29    1.63
   3   9   7    0.60    2.21
   3   9   7    2.35    3.22
  -3  -9   7    2.82    2.45
  -3   9   8    1.32    3.21
  -3  -9  -8    4.30    5.18
   3  -9   8    3.78    4.01
  -3   9   8    3.03    3.66
   3   9   8    1.95    2.81
  -3   9  -8    2.66    2.32
   3   9   8    1.24    4.05
  -4   9   0  380.53   16.19
  -4  -9   0  396.00   15.40
  -4   9   0  394.18   15.90
   4  -9   0  386.09   16.42
   4  -9   1   24.16    2.15
  -4  -9  -1   25.29    1.62
  -4  -9  -1   26.60    1.48
  -4  -9  -1   25.22    1.41
  -4   9   1   23.33    1.79
  -4   9   1   24.91    2.26
  -4  -9   1   24.01    1.14
   4  -9  -1   23.59    2.09
  -4  -9   1   25.70    1.35
  -4   9  -1   27.28    1.84
  -4   9  -1   26.34    1.73
  -4   9   2  267.24   12.25
   4  -9   2  276.48   12.23
  -4  -9  -2  267.08   11.42
  -4   9   2  271.80   11.69
  -4  -9  -2  292.61   11.52
  -4  -9  -2  281.57   11.44
   4   9   2  287.57   11.00
  -4   9  -2  264.72   11.51
  -4  -9   2  277.68   11.22
  -4   9  -2  272.71   11.46
   4   9   2  262.33   11.25
   4  -9  -2  267.47   11.84
  -4   9   3   11.67    1.57
  -4  -9  -3   12.66    1.32
  -4   9   3   10.77    1.73
  -4  -9  -3   11.23    1.54
  -4  -9  -3   11.56    1.36
   4  -9   3   11.50    1.94
  -4   9  -3   12.06    1.37
  -4  -9   3   10.10    1.37
  -4   9  -3   12.20    1.51
   4   9   3   10.00    1.35
   4  -9  -3    9.91    1.63
   4   9   3   12.04    1.35
   4  -9   4  103.90    5.85
  -4  -9  -4   97.44    5.09
  -4   9   4  102.91    5.84
  -4  -9  -4   98.27    5.06
  -4  -9  -4  101.90    5.22
  -4   9   4  102.28    5.32
   4  -9  -4   97.12    5.45
   4   9   4   95.43    5.09
  -4   9  -4   97.48    5.08
   4   9   4  107.53    5.03
  -4  -9   4   97.71    5.15
  -4   9  -4   95.80    5.05
  -4   9   5    5.74    2.17
  -4  -9  -5    4.76    1.46
  -4  -9  -5    2.71    1.26
  -4  -9  -5    4.98    1.47
  -4   9  -5    6.49    1.68
   4   9   5   -1.40    1.55
   4  -9  -5    0.08    1.82
   4   9   5    6.03    1.62
  -4  -9   5    1.93    1.47
  -4   9  -5    3.39    1.23
   4  -9   6   24.66    3.72
  -4  -9  -6   22.63    2.88
  -4   9   6   24.20    3.49
  -4   9   6   28.77    3.48
  -4  -9  -6   28.62    3.46
  -4  -9  -6   26.38    3.49
   4  -9   7    3.18    3.29
  -4   9   7    2.39    2.47
  -4  -9  -7    2.68    3.09
  -4  -9  -7    0.82    2.14
  -4   9   7    3.06    3.02
  -4  -9  -7   -0.60    2.25
  -4   9  -7    2.13    1.84
   4   9   7   -2.92    1.97
   4   9   7    1.78    3.21
  -4  -9   7   -1.39    2.42
  -4   9   8    8.75    4.17
  -4  -9  -8    9.01    3.20
  -4  -9  -8  -10.67    5.03
  -4  -9  -8    5.87    3.03
   4  -9   8   11.80    4.57
  -4   9   8    2.60    3.41
   4   9   8   13.63    3.55
  -4   9  -8   10.30    2.89
  -5  -9   0  117.69    4.96
  -5   9   0  116.29    5.34
   5  -9   0  113.14    5.79
  -5  -9   0  114.65    4.81
  -5   9   0  121.30    5.71
  -5  -9  -1   15.13    1.03
  -5  -9  -1   17.32    1.31
  -5  -9  -1   16.35    1.12
   5  -9   1   15.49    1.98
  -5   9   1   13.48    2.06
  -5   9   1   15.96    1.54
  -5   9  -1   18.71    1.65
  -5  -9   1   17.10    1.00
   5  -9  -1   15.54    1.86
  -5   9  -1   19.03    1.54
  -5  -9  -2   63.88    3.14
   5  -9   2   64.55    3.97
  -5   9   2   64.47    4.06
  -5   9   2   58.32    3.38
  -5  -9  -2   62.20    3.08
  -5   9  -2   65.35    3.43
   5   9   2   64.25    3.03
   5  -9  -2   69.57    3.93
  -5  -9   2   60.70    2.93
  -5   9  -2   59.99    3.46
  -5  -9   2   62.12    2.72
  -5  -9  -3   24.94    1.87
   5  -9   3   23.44    2.61
  -5  -9  -3   26.27    2.05
  -5   9   3   24.18    2.62
  -5   9   3   19.89    1.89
  -5  -9  -3   26.84    1.91
  -5   9  -3   22.95    2.01
   5  -9  -3   28.53    2.58
  -5   9  -3   24.52    2.01
   5   9   3   22.72    1.89
  -5  -9   3   22.53    1.82
   5   9   3   25.14    1.89
  -5   9   4   17.83    1.94
   5  -9   4   20.51    2.82
  -5  -9  -4   17.30    1.82
  -5  -9  -4   16.72    1.74
  -5  -9  -4   17.17    2.18
  -5   9   4   16.13    2.48
   5   9   4   14.62    1.90
  -5  -9   4   15.65    1.96
  -5   9  -4   19.02    1.96
  -5   9  -4   21.25    2.17
   5  -9  -4   21.26    2.63
  -5  -9  -5    9.60    1.77
  -5   9   5   11.88    2.04
  -5  -9  -5   13.50    2.05
  -5   9   5   10.26    2.49
  -5  -9  -5   10.12    1.87
  -5  -9   5   10.56    2.03
  -5   9  -5   10.90    1.97
   5   9   5    9.49    1.86
  -5   9  -5   11.32    2.02
  -5  -9  -6    4.32    1.74
  -5  -9  -6    5.28    2.01
   5  -9   6    3.75    2.66
  -5   9   6    2.24    1.98
  -5  -9  -6    8.39    2.18
  -5   9   6    4.99    2.48
  -5   9  -6    4.59    1.64
   5   9   6    7.76    2.20
   5   9   6   -1.22    2.22
  -5   9  -6    3.40    2.42
  -5  -9   6    4.82    2.03
  -5  -9  -7   -0.12    2.06
  -5  -9  -7    2.80    3.10
  -5   9   7    8.86    3.33
  -5   9   7    0.42    2.45
   5  -9   7    9.97    4.02
  -5  -9  -7    0.03    2.37
   5   9   7    5.45    2.51
  -5   9  -7   -4.55    2.95
  -5   9  -7    0.95    2.02
  -5  -9   7    5.64    2.57
  -5  -9  -8    1.04    2.82
  -5   9   8    4.65    3.41
  -5  -9  -8   15.71    5.56
  -5  -9  -8    3.52    3.16
  -5   9   8    2.35    4.25
   5  -9   8    4.45    5.09
  -5   9  -8    2.76    2.65
   5   9   8    9.16    3.41
  -6   9   0    0.73    0.63
  -6   9   0    0.26    0.76
  -6  -9   0    0.33    0.34
   6  -9   0    2.02    1.07
  -6  -9   0    0.99    0.68
  -6   9   1  112.92    5.55
  -6  -9  -1  123.16    5.10
  -6  -9  -1  117.99    5.01
   6  -9   1  116.90    6.02
  -6   9   1  111.03    6.19
  -6   9  -1  128.72    5.84
  -6  -9   1  122.30    4.98
  -6   9  -1  128.86    6.04
   6  -9  -1  116.63    6.16
   6  -9   2    2.99    1.25
  -6   9   2    1.12    1.15
  -6  -9  -2    1.85    0.69
  -6   9   2    1.73    0.81
  -6  -9  -2    3.37    0.70
  -6  -9  -2    3.89    0.97
   6  -9  -2    3.38    1.28
  -6  -9   2    3.31    0.67
  -6  -9   2    1.80    0.49
  -6  -9   2    1.93    0.55
  -6   9  -2    3.01    1.03
  -6   9  -2    2.88    1.04
  -6  -9  -3   85.60    4.34
  -6   9   3   92.09    4.72
  -6  -9  -3   84.79    4.37
   6  -9   3   92.28    5.27
  -6   9   3   88.78    5.33
  -6  -9  -3   86.03    4.45
  -6   9  -3   85.12    4.60
  -6  -9   3   84.18    4.17
   6   9   3   82.94    4.14
   6  -9  -3   86.28    5.17
  -6   9  -3   92.91    4.70
  -6  -9  -4   10.17    1.51
  -6  -9  -4    8.61    1.67
   6  -9   4    8.99    2.16
  -6   9   4   10.45    2.25
  -6  -9  -4    8.25    1.50
  -6   9   4    6.82    1.42
  -6   9  -4   10.76    1.84
  -6  -9   4    7.67    1.44
   6  -9  -4   10.59    2.26
  -6   9  -4    7.12    1.55
   6   9   4    8.53    1.48
  -6  -9  -5   49.70    3.59
  -6   9   5   48.32    4.67
  -6  -9  -5   50.18    3.75
  -6  -9  -5   48.55    3.65
  -6   9   5   54.52    3.94
  -6  -9   5   48.26    3.79
   6   9   5   50.57    3.79
  -6   9  -5   58.62    4.02
  -6   9  -5   54.64    3.90
  -6   9   6   11.73    2.56
  -6   9   6    8.26    2.90
   6  -9   6    3.19    2.88
  -6  -9  -6    7.75    2.37
  -6  -9  -6   12.98    2.54
  -6  -9  -6    6.80    2.09
  -6  -9   6    8.85    2.33
  -6   9  -6   10.22    2.81
   6   9   6    8.73    2.28
  -6   9  -6    8.81    2.05
  -6  -9  -7   20.79    3.40
  -6  -9  -7   21.46    3.40
  -6  -9  -7   22.70    4.08
  -6   9   7   23.66    4.77
   6  -9   7   22.04    5.03
  -6   9   7   19.97    3.61
  -6   9  -7   17.95    3.01
   6   9   7   22.46    3.50
  -6   9   8    8.44    4.88
  -6   9   8    5.98    3.49
  -6  -9  -8    0.04    2.98
  -6  -9  -8    5.93    3.30
  -6  -9  -8   14.48    5.76
   6   9   8    1.43    3.33
  -6   9  -8    9.27    3.16
  -7   9   0   15.13    1.84
  -7  -9   0   13.22    0.87
  -7   9   0   13.34    1.50
   7  -9   0   14.95    2.02
  -7  -9  -1   17.42    1.22
  -7   9   1   17.55    2.33
  -7  -9  -1   19.34    1.53
   7  -9   1   14.67    2.13
  -7   9   1   15.05    1.70
  -7   9  -1   20.21    1.74
   7  -9  -1   15.56    2.20
  -7   9  -1   18.74    1.94
  -7  -9  -2    2.14    0.71
  -7  -9  -2    4.48    1.01
   7  -9   2    2.52    1.45
  -7   9   2    3.79    1.13
  -7  -9  -2    3.18    0.71
  -7   9   2    2.18    1.27
  -7   9  -2    2.02    0.97
   7  -9  -2    3.70    1.49
  -7   9  -2    3.67    1.10
  -7  -9   2    2.83    0.71
  -7  -9  -3   41.57    2.45
  -7   9   3   32.10    2.69
  -7  -9  -3   38.59    2.47
   7  -9   3   36.67    3.32
  -7   9   3   36.23    3.45
  -7  -9  -3   38.22    2.71
  -7   9  -3   36.29    2.81
   7   9   3   33.20    2.14
  -7   9  -3   38.78    2.84
   7  -9  -3   40.43    3.48
  -7  -9   3   35.87    2.24
  -7   9   4    2.36    1.64
  -7  -9  -4    2.54    1.25
  -7  -9  -4    4.28    1.24
   7  -9   4    3.76    1.90
   7   9   4    4.64    1.13
   7  -9  -4   -2.89    2.12
  -7   9  -4    4.61    1.54
  -7  -9   4    4.74    1.23
  -7   9  -4    3.47    1.42
  -7   9   5   32.93    3.11
  -7  -9  -5   33.64    3.12
  -7   9   5   30.92    4.20
  -7  -9  -5   40.26    3.34
  -7  -9  -5   31.35    2.96
   7   9   5   31.59    3.07
  -7  -9   5   29.95    3.17
  -7   9  -5   32.85    3.35
  -7   9  -5   38.81    3.62
  -7  -9  -6    1.91    2.11
  -7  -9  -6    0.59    1.60
  -7  -9  -6    1.78    2.19
   7  -9   6    2.84    3.44
  -7   9   6   -0.47    2.70
  -7   9   6    1.56    2.08
  -7   9  -6    0.32    2.69
  -7  -9   6    2.46    1.99
   7   9   6    1.68    1.90
  -7   9  -6   -0.54    1.50
  -7  -9  -7   23.86    3.91
  -7   9   7   26.14    3.88
  -7   9   7   21.70    5.08
  -7  -9  -7   24.53    4.05
   7   9   7   13.70    3.21
  -7   9  -7   -0.19    3.75
  -7   9  -7   12.88    2.84
  -7  -9  -8   -0.71    3.24
  -7  -9  -8    0.65    2.96
  -7   9   8    0.81    3.34
  -7   9   8    3.34    5.09
   7   9   8    2.27    3.71
  -7   9  -8   -2.48    2.85
  -8   9   0   20.47    1.85
   8  -9   0   18.17    2.45
  -8   9   0   22.76    2.24
  -8  -9   0   19.35    1.13
   8  -9   1   72.77    4.61
  -8   9   1   73.13    4.11
  -8   9   1   79.27    4.81
  -8  -9  -1   76.48    3.47
  -8   9  -1   88.47    4.88
  -8   9  -1   87.79    4.59
  -8   9   2   18.97    2.96
  -8  -9  -2   21.76    1.67
  -8  -9  -2   20.54    1.98
   8  -9   2   21.54    2.70
  -8   9   2   21.22    2.10
  -8   9  -2   22.40    2.18
   8  -9  -2   19.63    2.72
  -8   9  -2   19.51    2.22
  -8  -9  -3   73.74    4.01
  -8   9   3   73.12    5.07
  -8  -9  -3   70.75    3.79
  -8  -9  -3   72.40    3.81
   8  -9   3   63.28    4.71
  -8   9   3   70.99    4.11
   8   9   3   65.66    3.11
  -8   9  -3   70.46    4.25
  -8   9  -3   68.62    4.22
  -8  -9   3   65.66    3.37
  -8   9   4   15.03    2.25
  -8   9   4   11.81    4.02
  -8  -9  -4   18.51    2.10
  -8  -9  -4   17.99    2.11
  -8  -9  -4   13.93    2.11
  -8   9  -4   13.00    2.03
  -8   9  -4    8.59    2.45
   8   9   4   14.03    1.70
  -8   9   5   44.21    5.03
  -8   9   5   45.50    3.84
  -8  -9  -5   44.45    3.52
  -8  -9  -5   47.72    3.72
   8   9   5   48.39    3.62
  -8   9  -5   52.82    4.41
  -8  -9   5   43.31    3.60
  -8   9  -5   44.35    4.05
   8  -9   6    3.65    4.03
  -8  -9  -6    9.83    2.29
  -8   9   6    9.91    3.69
  -8  -9  -6    8.52    2.57
  -8  -9  -6    8.78    2.49
  -8   9   6   11.63    2.74
   8   9   6    8.29    2.49
  -8   9  -6   10.13    2.47
  -8   9  -6   16.83    3.60
  -8   9   7   20.20    3.59
  -8   9   7   17.32    5.08
  -8  -9  -7   18.01    3.60
  -8  -9  -7   24.38    4.26
  -8  -9  -7   21.72    3.26
   8  -9   7    1.16    5.28
   8   9   7   22.91    3.76
  -8   9  -7   20.06    3.72
  -8   9  -7   27.95    5.19
   9  -9   0   40.93    3.38
  -9   9   0   40.59    2.67
  -9   9   0   40.04    3.08
  -9  -9   0   38.33    1.88
  -9  -9  -1   12.11    1.16
  -9   9   1   12.04    1.58
   9  -9   1   11.94    2.11
  -9   9   1   10.90    2.09
  -9   9  -1   14.82    1.99
  -9   9  -1   14.56    1.72
   9  -9  -1   15.69    2.45
   9  -9   2   29.55    3.19
  -9   9   2   28.51    2.50
  -9  -9  -2   33.84    2.52
  -9   9   2   34.06    3.59
  -9  -9  -2   30.79    2.06
  -9   9  -2   26.60    2.66
  -9   9  -2   32.39    2.70
   9  -9   3    5.36    2.03
  -9   9   3    5.37    2.33
  -9   9   3    7.36    2.07
  -9  -9  -3    6.44    1.58
  -9  -9  -3    5.84    1.19
  -9  -9   3    8.15    1.13
  -9   9  -3    6.37    1.78
  -9   9   4    9.78    2.01
  -9  -9  -4   13.89    2.21
   9  -9   4    4.55    2.57
  -9   9   4    6.50    2.52
  -9  -9  -4   10.94    1.77
  -9  -9  -4    9.89    1.71
  -9   9  -4    6.75    1.91
  -9  -9   4    7.21    1.55
  -9   9  -4    6.73    2.19
   9   9   4    9.55    1.42
  -9   9   5    5.54    2.99
  -9  -9  -5    0.78    2.44
  -9  -9  -5    0.81    1.50
  -9   9   5    3.00    1.77
  -9  -9  -5    4.89    1.77
  -9   9  -5    2.61    1.95
  -9  -9   5    0.21    1.59
  -9   9  -5    5.00    2.64
   9   9   5    4.09    1.82
  -9   9  -5    0.87    2.16
  -9   9   6    4.41    3.87
  -9  -9  -6    3.32    2.41
   9  -9   6    0.50    4.39
  -9  -9  -6    5.67    2.63
  -9   9   6    0.72    2.08
  -9  -9  -6    3.84    2.06
  -9   9  -6    5.19    3.36
  -9   9  -6    4.91    2.50
   9   9   6    2.96    2.38
  -9   9   7   -4.62    4.57
  -9  -9  -7   -2.65    3.00
  -9   9   7    2.23    2.73
  -9  -9  -7   -0.45    2.48
  -9  -9  -7    2.76    3.48
  -9   9  -7    2.11    4.53
  -9   9  -7   -3.00    2.63
   9   9   7    3.67    3.24
 -10   9   0  124.84    6.29
 -10  -9   0  113.28    4.88
 -10   9   0  112.90    5.78
 -10  -9  -1    5.07    0.87
  10  -9   1    3.89    1.90
 -10   9   1    1.66    1.31
 -10   9   1    3.95    1.17
  10  -9  -1   -2.58    2.04
 -10   9  -1    4.41    1.28
 -10   9  -1    3.64    1.33
 -10  -9  -2   78.13    3.98
 -10   9   2   83.04    5.64
 -10   9  -2   84.66    4.96
 -10  -9   2   79.76    3.47
 -10   9  -2   81.53    4.95
 -10  -9  -3    4.86    1.15
  10  -9   3   -3.16    2.17
 -10   9   3    4.69    1.68
 -10  -9  -3    4.66    1.64
 -10   9  -3    3.09    1.59
 -10   9  -3    1.38    1.58
 -10  -9   3    5.17    1.03
 -10  -9   3    4.83    0.99
 -10  -9  -4   38.95    3.03
 -10   9   4   35.96    3.32
 -10   9   4   36.22    4.71
 -10  -9  -4   40.99    3.72
 -10  -9  -4   32.49    2.85
 -10   9  -4   36.04    4.05
 -10  -9   4   35.87    2.85
 -10   9  -4   30.85    3.47
  10  -9   5   -1.27    3.74
 -10  -9  -5    4.34    2.42
 -10   9   5   -1.13    3.14
 -10   9   5    3.00    1.95
 -10  -9  -5    0.60    1.64
 -10  -9  -5    1.92    1.86
 -10   9  -5   -0.25    1.98
 -10   9  -5   -5.03    2.67
 -10   9  -5    3.32    2.78
  10   9   5   -1.81    1.90
 -10  -9  -6   16.18    2.97
 -10  -9  -6   19.72    3.53
 -10   9   6   15.56    3.06
 -10  -9  -6   16.27    3.05
 -10   9   6   24.08    5.05
  10   9   6   19.64    3.36
 -10  -9   6   19.73    2.99
 -10   9  -6   18.10    4.09
 -10   9  -6   17.67    3.48
 -10   9   7   -0.91    5.08
 -10  -9  -7    1.28    3.47
 -10   9   7   -1.47    2.94
 -10  -9  -7    4.88    3.87
 -10  -9  -7    2.22    2.70
  10   9   7    7.03    3.91
 -10   9  -7    2.92    5.04
 -10  -9   7   -0.70    2.66
 -10   9  -7    0.65    2.88
 -11   9   0   79.61    4.67
 -11  -9   0   70.86    3.31
 -11   9   1    3.83    1.18
 -11  -9  -1    3.70    0.89
 -11   9   1    4.77    1.63
  11  -9   1   -0.53    2.40
 -11  -9   1    3.66    0.51
 -11   9  -1    3.06    2.04
 -11   9  -1    2.06    1.36
 -11   9   2   48.78    4.52
 -11   9   2   45.59    3.46
 -11  -9  -2   45.21    2.77
 -11   9  -2   48.52    3.75
 -11   9  -2   43.64    3.91
 -11  -9   2   47.12    2.21
 -11  -9   2   46.90    2.67
 -11   9   3    6.54    1.80
  11  -9   3   -1.97    2.78
 -11  -9  -3    6.79    1.43
 -11   9   3   14.19    3.50
 -11  -9  -3    7.59    1.44
 -11  -9   3    5.53    1.04
 -11   9  -3    7.22    2.21
 -11   9  -3    7.86    2.20
 -11  -9  -4   19.32    2.71
 -11   9   4   20.90    4.35
 -11   9   4   18.48    2.64
 -11  -9  -4   13.07    2.03
 -11  -9  -4   10.31    1.98
 -11  -9   4   16.66    2.21
 -11   9  -4   11.56    2.90
 -11   9  -4   14.68    2.82
 -11  -9  -5    5.81    2.84
 -11  -9  -5    4.23    1.91
 -11   9   5    5.90    3.48
 -11   9   5    1.93    1.82
 -11  -9  -5    1.95    1.79
 -11   9  -5    2.02    2.99
 -11  -9   5    5.01    1.95
 -11   9  -5    1.69    2.26
 -11   9   6   -0.12    2.46
 -11   9   6    3.27    4.72
 -11  -9  -6   -0.11    2.38
 -11  -9  -6    5.12    3.32
 -11  -9  -6    5.38    2.28
 -11   9  -6    2.75    3.01
 -11   9  -6    5.16    3.93
 -11  -9   6    8.83    2.56
 -11  -9  -7    0.16    3.90
 -11   9   7   -1.36    5.73
 -11  -9  -7   -0.04    2.87
 -11   9   7    0.59    3.05
 -11  -9  -7    3.53    3.98
 -11   9  -7    6.01    5.66
 -11   9  -7    4.82    3.42
 -11  -9   7    5.92    3.10
 -12   9   0   41.63    3.11
 -12  -9   0   37.81    2.11
 -12  -9  -1   42.28    2.51
 -12   9   1   45.61    3.27
 -12   9  -1   46.95    3.45
 -12  -9   1   42.15    2.02
 -12   9  -1   39.13    3.59
 -12   9   2   34.07    4.27
 -12   9   2   37.14    3.28
 -12   9  -2   34.09    3.47
 -12  -9   2   33.62    1.71
 -12   9  -2   35.19    3.23
 -12  -9  -3   28.18    2.57
 -12   9   3   30.17    4.53
 -12   9   3   31.38    3.27
 -12  -9  -3   29.72    2.70
 -12   9  -3   29.91    3.75
 -12  -9   3   26.59    1.88
 -12   9  -3   29.02    3.54
 -12  -9  -4   19.07    2.52
 -12  -9  -4   20.46    2.72
 -12   9   4   18.45    4.16
 -12   9   4   18.92    2.89
 -12  -9   4   21.01    2.29
 -12   9  -4   12.69    3.31
 -12   9  -4   16.02    2.83
 -12   9   5   16.79    4.85
 -12   9   5   17.08    3.07
 -12  -9  -5   16.78    2.79
 -12  -9  -5   12.67    2.60
 -12  -9  -5   17.69    3.92
 -12   9  -5   12.81    3.43
 -12   9  -5   16.28    3.85
 -12  -9   5   18.62    2.46
 -12   9   6   13.43    5.57
 -12  -9  -6    6.57    2.91
 -12  -9  -6    7.63    2.80
 -12  -9  -6   13.48    3.89
 -12   9   6   10.51    3.04
 -12   9  -6    8.46    4.27
 -12  -9   6   13.87    2.97
 -12   9  -6    9.87    3.53
 -13   9   0    0.73    1.27
 -13   9   0   -0.18    1.68
 -13  -9   0    1.51    0.81
 -13  -9  -1    9.49    1.29
 -13   9   1    7.11    1.80
 -13   9   1    7.71    2.09
 -13   9  -1    8.12    1.88
 -13   9  -1    8.06    2.00
 -13  -9   1    8.65    0.91
 -13   9   2    1.55    2.16
 -13   9   2    1.30    1.42
 -13  -9  -2    2.57    1.24
 -13   9  -2    2.71    1.93
 -13  -9   2    1.41    0.70
 -13   9  -2   -0.03    1.66
 -13   9   3   12.38    2.42
 -13  -9  -3   13.83    1.95
 -13  -9  -3   13.89    2.08
 -13   9   3   21.49    4.08
 -13   9  -3   14.38    3.02
 -13   9  -3   12.10    2.59
 -13  -9   3   11.61    1.51
 -13   9   4    5.16    3.91
 -13  -9  -4    3.02    1.74
 -13  -9  -4   -0.03    1.56
 -13   9   4    2.28    2.03
 -13  -9   4    0.65    1.39
 -13   9  -4   -0.51    2.21
 -13   9  -4    2.69    2.67
 -13  -9  -5    9.33    2.55
 -13  -9  -5   11.70    2.66
 -13   9   5   10.42    5.21
 -13   9   5   10.39    2.90
 -13   9  -5   13.73    3.50
 -13   9  -5   14.45    4.08
 -13  -9   5   10.54    2.24
 -13  -9  -6    3.67    2.70
 -13   9   6    9.29    6.53
 -13  -9  -6    0.45    2.79
 -13   9   6    4.30    2.96
 -13   9  -6    4.12    3.56
 -13  -9   6    2.04    2.70
 -13   9  -6   -2.62    4.62
 -14   9   0   18.33    2.49
 -14  -9   0   15.16    1.67
 -14   9   0   15.00    2.53
 -14   9   1   28.15    3.75
 -14  -9  -1   26.89    2.34
 -14   9   1   30.69    2.97
 -14   9  -1   30.02    3.15
 -14  -9   1   26.91    1.76
 -14   9  -1   31.40    3.65
 -14   9   2    7.71    1.88
 -14   9   2   12.89    2.80
 -14  -9  -2   13.53    1.88
 -14   9  -2   11.86    2.62
 -14   9  -2   11.56    2.49
 -14   9   3   25.81    4.14
 -14  -9  -3   25.53    2.95
 -14  -9  -3   27.90    2.82
 -14   9   3   27.45    3.44
 -14   9  -3   26.58    3.70
 -14   9  -3   26.72    3.61
 -14  -9  -4    4.93    2.12
 -14   9   4    6.15    2.35
 -14  -9  -4    6.81    2.18
 -14   9   4    9.09    4.48
 -14   9  -4    1.82    2.96
 -14   9  -4    4.62    2.58
 -14  -9   4    5.13    1.78
 -14   9   5   18.63    3.57
 -14  -9  -5   20.96    3.42
 -14  -9  -5   21.53    3.24
 -14   9   5   19.82    6.33
 -14   9  -5   20.64    4.72
 -14  -9   5   26.98    3.59
 -14   9  -5   24.27    4.39
 -15   9   0   16.79    2.79
 -15   9   0   17.02    2.52
 -15  -9   0   22.58    2.12
 -15   9   1    1.07    2.06
 -15   9   1   -0.47    1.44
 -15   9  -1    0.68    1.87
 -15   9  -1    1.46    1.88
 -15   9   2    6.08    1.93
 -15   9   2   13.48    3.15
 -15  -9  -2    8.85    1.83
 -15   9  -2    7.73    2.63
 -15   9  -2    8.17    2.50
 -15   9   3    3.52    2.03
 -15  -9  -3    5.38    1.94
 -15   9   3    5.84    3.40
 -15  -9  -3    9.09    1.90
 -15   9  -3    4.67    2.58
 -15   9  -3    5.23    2.70
 -15  -9  -4    1.23    1.93
 -15   9   4    1.02    4.26
 -15   9   4    1.22    2.20
 -15  -9  -4   -0.52    2.10
 -15   9  -4    1.15    2.84
 -15   9  -4    4.26    3.21
 -15   9   5    8.43    6.18
 -15  -9  -5    8.01    2.94
 -15  -9  -5    9.03    2.76
 -15   9   5    5.08    2.83
 -15   9  -5   -1.16    3.25
 -15   9  -5    3.73    4.18
 -16   9   0   12.02    2.76
 -16   9   0   16.93    2.67
 -16  -9   0   16.06    1.86
 -16   9   1    4.78    2.45
 -16   9   1    5.01    1.95
 -16  -9  -1    5.14    1.69
 -16   9  -1    2.18    2.14
 -16   9  -1    4.68    2.09
 -16  -9  -2   13.03    2.37
 -16   9   2   14.46    2.53
 -16   9   2   19.40    3.60
 -16   9  -2   17.29    3.22
 -16   9  -2   16.26    2.94
 -16  -9  -3   -0.23    1.68
 -16  -9  -3    7.99    2.37
 -16   9   3    2.75    1.99
 -16   9   3    3.29    3.53
 -16   9  -3    0.90    2.64
 -16   9  -3    6.61    2.86
 -16   9   4   11.08    2.75
 -16  -9  -4   12.41    2.74
 -16  -9  -4   18.39    3.15
 -16   9   4   16.62    4.88
 -16   9  -4   18.12    4.17
 -16   9  -4    8.55    3.63
 -17   9   0   15.80    3.33
 -17   9   0    7.83    2.30
 -17   9   1    2.97    1.93
 -17   9   1   -2.47    2.34
 -17  -9  -1    0.10    1.88
 -17   9  -1    6.41    2.54
 -17   9  -1    4.04    2.26
 -17  -9  -2    9.24    2.43
 -17   9   2    7.51    2.33
 -17   9   2   11.00    3.59
 -17   9  -2   12.18    2.95
 -17   9  -2   14.55    3.28
 -17  -9  -3    1.54    1.89
 -17  -9  -3    1.34    2.44
 -17   9   3    2.51    3.72
 -17   9   3    2.31    2.11
 -17   9  -3    3.04    2.83
 -17   9  -3    5.97    3.33
 -18   9   0   18.21    3.12
 -18   9   0   20.94    3.70
 -18  -9  -1    7.09    2.37
 -18   9   1    8.99    3.52
 -18   9   1    6.23    2.39
 -18   9  -1    8.06    2.72
 -18   9  -1    6.00    3.18
 -18  -9  -2   16.95    2.97
 -18   9   2   14.41    2.90
 -18   9   2   20.44    4.34
 -18   9  -2   11.37    3.39
 -18   9  -2   11.98    3.30
   0  10   0   30.17    1.55
   0  10   0   27.37    1.59
   0 -10   0   27.14    1.84
   0 -10   1   -0.17    0.58
   0 -10  -1    0.11    0.51
   0  10  -1   -0.13    0.50
   0  10   1    0.91    0.70
   0  10   1   -0.51    0.52
   0  10  -1   -0.11    0.34
   0 -10   2   56.75    3.28
   0  10   2   52.69    3.18
   0  10  -2   54.21    2.66
   0  10  -2   52.18    2.58
   0  10   2   56.57    2.83
   0 -10  -2   52.50    3.00
   0  10   3    0.13    0.87
   0  10  -3   -0.08    0.44
   0  10  -3   -0.16    0.84
   0  10   3    0.90    0.79
   0 -10  -3    0.44    0.72
   0 -10   3    0.25    0.89
   0  10   4   66.08    3.85
   0  10   4   71.99    4.28
   0  10  -4   66.01    3.44
   0 -10  -4   72.26    4.06
   0 -10   4   64.82    4.23
   0  10  -5   -0.17    0.79
   0 -10   5    2.97    1.54
   0  10   5    0.97    1.24
   0  10   5   -1.06    1.32
   0 -10  -5   -0.03    1.42
   0 -10  -6   38.26    4.19
   0  10  -6   34.11    2.71
   0  10   6   32.48    3.63
   0 -10   6   33.65    4.16
   0  10   6   29.51    3.67
   0  10   7    2.41    2.85
   0 -10  -7    0.68    3.43
   0 -10   7    4.34    2.89
   0  10   7    2.93    2.67
   0  10  -7    3.04    1.75
   0  10  -8    7.09    2.67
   0  10   8   15.74    4.31
   0 -10   8    7.84    3.87
   0  10   8    7.43    3.37
  -1  10   0  167.35    7.24
   1  10   0  169.22    6.99
   1  10   0  174.06    6.91
   1 -10   0  163.98    7.53
  -1 -10   0  165.89    7.29
  -1  10   0  178.24    7.10
  -1 -10  -1   69.13    3.43
  -1  10   1   67.52    3.78
   1  10  -1   65.47    3.04
  -1  10   1   72.59    3.41
   1  10  -1   83.26    3.49
   1 -10   1   66.72    3.76
  -1 -10   1   68.39    3.46
  -1  10  -1   70.79    3.19
   1  10   1   76.26    3.34
  -1  10  -1   65.18    3.20
   1 -10  -1   66.73    3.58
   1  10   1   66.24    3.42
  -1  10   2  123.45    6.13
   1 -10   2  130.57    6.23
  -1  10   2  130.61    5.71
   1  10  -2  123.79    5.31
  -1 -10  -2  125.93    5.79
   1  10   2  133.53    5.56
   1  10   2  120.80    5.87
  -1  10  -2  129.54    5.53
  -1  10  -2  120.33    5.46
   1 -10  -2  123.57    5.90
  -1 -10   2  124.36    5.90
   1  10  -3   38.39    2.10
  -1 -10  -3   40.54    2.52
  -1  10   3   41.26    2.97
  -1  10   3   43.74    2.58
  -1 -10  -3   41.77    2.64
   1 -10   3   41.43    3.04
  -1 -10   3   37.45    2.80
   1  10   3   42.07    2.48
  -1  10  -3   39.64    2.29
   1  10   3   40.48    2.77
   1 -10  -3   40.22    2.74
  -1  10  -3   40.93    2.44
  -1  10   4   70.02    4.32
  -1 -10  -4   66.93    3.98
   1  10  -4   63.10    3.28
   1 -10   4   70.92    4.43
  -1 -10  -4   66.39    3.78
  -1  10   4   71.19    3.90
  -1 -10  -4   68.56    4.00
  -1 -10   4   71.23    4.29
   1  10   4   67.22    4.15
   1  10   4   75.03    3.89
   1 -10  -4   72.47    4.14
  -1  10  -4   58.96    3.60
  -1  10  -4   63.61    3.48
  -1 -10  -5    7.40    1.69
  -1 -10  -5    6.74    1.57
  -1  10   5    7.52    1.72
   1 -10   5    6.91    1.90
  -1  10   5    7.01    2.05
   1  10  -5    8.13    1.14
  -1 -10  -5    8.28    1.73
  -1 -10   5    6.07    1.90
   1 -10  -5   10.22    1.97
   1  10   5    5.24    1.51
   1  10   5    9.55    1.98
  -1  10  -5    1.86    1.57
  -1  10   6   30.47    3.99
   1 -10   6   25.81    3.70
   1  10  -6   28.87    2.60
  -1 -10  -6   38.66    4.01
  -1  10   6   32.65    3.66
  -1  10  -6   26.13    2.64
   1 -10  -6   31.76    4.14
  -1 -10   6   33.32    4.02
   1  10   6   29.35    3.63
   1  10   6   34.60    3.91
   1 -10   7    6.36    3.12
  -1 -10  -7   10.16    3.81
  -1  10   7   -1.40    2.51
  -1  10   7   -2.33    2.54
   1  10  -7    4.85    1.77
  -1  10  -7    0.38    1.65
   1  10   7    3.08    2.94
  -1 -10   7    0.65    2.57
   1  10   7    1.42    2.25
   1 -10  -7    0.13    3.85
   1 -10   8    8.87    4.09
  -1  10   8   11.69    4.17
  -1  10   8   11.17    3.69
  -1 -10   8   10.21    3.71
   1  10   8   17.87    4.14
  -1  10  -8   13.53    2.96
   1  10   8    0.14    3.93
  -2 -10   0    4.44    0.69
   2  10   0    6.10    0.67
   2 -10   0    3.87    0.96
   2  10   0    5.39    0.49
  -2  10   0    5.09    0.76
  -2  10   0    4.66    0.81
  -2 -10  -1  152.54    6.62
   2 -10   1  157.63    7.21
  -2  10   1  162.87    6.78
  -2  10   1  144.72    7.18
   2  10   1  150.58    6.60
  -2  10  -1  153.27    6.72
   2 -10  -1  158.88    7.17
   2  10   1  156.96    6.37
  -2  10  -1  161.53    6.67
  -2 -10   1  154.55    6.69
  -2  10   2   15.95    1.45
  -2 -10  -2   17.20    1.40
  -2 -10  -2   14.80    1.30
  -2  10   2   14.76    1.78
   2 -10   2   14.23    1.82
  -2 -10   2   17.18    1.60
   2 -10  -2   17.53    1.75
   2  10   2   15.01    1.49
   2  10   2   12.84    1.35
  -2  10  -2   17.39    1.30
  -2  10  -2   17.18    1.44
   2 -10   3   73.43    4.25
  -2 -10  -3   65.16    3.67
  -2 -10  -3   61.96    3.53
  -2 -10  -3   70.02    3.79
   2  10  -3   69.14    3.03
  -2  10   3   74.83    4.23
  -2  10   3   71.80    3.71
  -2 -10   3   73.04    3.99
   2  10   3   69.44    3.87
  -2  10  -3   63.51    3.51
   2  10   3   76.21    3.65
   2 -10  -3   69.86    4.06
  -2  10  -3   73.90    3.68
  -2 -10  -4   22.69    2.15
  -2  10   4   25.44    2.66
   2 -10   4   22.61    2.65
   2  10  -4   25.73    1.54
  -2 -10  -4   24.37    2.07
  -2  10   4   20.87    2.15
  -2 -10  -4   25.46    2.33
  -2 -10   4   25.66    2.45
   2 -10  -4   21.02    2.39
   2  10   4   25.92    2.43
   2  10   4   22.75    2.27
  -2  10  -4   26.48    2.00
  -2  10  -4   25.75    2.27
  -2  10   5   21.31    2.48
   2 -10   5   20.20    3.01
  -2 -10  -5   14.68    1.97
   2  10  -5   17.28    1.59
  -2  10   5   14.33    2.49
  -2 -10  -5   17.77    2.45
  -2  10  -5   13.92    1.95
   2  10   5   24.45    2.59
   2 -10  -5   18.36    2.52
  -2 -10   5   17.73    2.59
   2  10   5   21.36    2.61
  -2 -10  -6   17.32    2.51
  -2  10   6   17.44    3.05
   2  10  -6   25.68    2.30
   2 -10   6   18.76    3.28
  -2 -10  -6   25.08    3.35
  -2  10   6   26.80    3.39
  -2 -10  -6   19.37    2.83
  -2 -10   6   23.24    3.45
   2  10   6   20.57    2.97
  -2  10  -6   22.64    2.59
   2 -10   7    4.46    2.85
  -2 -10  -7    3.55    3.55
  -2  10   7   10.72    3.44
  -2  10   7    2.13    2.70
   2  10   7   -2.01    3.06
  -2 -10   7    7.38    2.70
   2  10   7    5.84    2.61
  -2  10  -7    6.40    1.92
   2 -10  -7    7.57    4.13
  -2 -10  -8    2.26    5.34
  -2  10   8    7.24    3.76
   2 -10   8    9.61    4.40
  -2  10   8    8.25    3.83
  -2  10  -8    8.30    2.70
   2  10   8   -0.68    4.13
  -2 -10   8    7.02    3.83
   2  10   8   10.66    3.71
   3 -10   0    1.84    0.81
  -3  10   0    3.03    0.77
  -3  10   0    2.36    0.60
  -3 -10   0    1.89    0.47
  -3  10   1   71.08    3.62
  -3  10   1   71.23    4.15
   3 -10   1   74.32    4.07
  -3 -10  -1   74.42    3.38
  -3  10  -1   75.77    3.71
   3  10   1   73.20    3.23
   3 -10  -1   72.75    4.06
  -3 -10   1   75.63    3.41
  -3  10  -1   79.02    3.63
  -3  10   2    0.47    0.82
   3 -10   2   -0.21    0.94
  -3 -10  -2    1.11    0.80
  -3 -10  -2    1.33    0.64
  -3  10   2    1.13    0.70
  -3 -10  -2    0.74    0.59
   3 -10  -2    0.94    0.90
  -3  10  -2    1.88    0.74
  -3  10  -2    1.18    0.62
   3  10   2    1.16    0.68
  -3 -10   2   -0.01    0.61
   3  10   2    1.42    0.69
  -3 -10  -3   71.27    3.71
   3 -10   3   73.59    4.42
  -3 -10  -3   72.88    3.90
  -3 -10  -3   71.54    3.77
  -3  10   3   69.99    3.82
  -3  10   3   72.89    4.39
   3 -10  -3   73.88    4.24
  -3  10  -3   71.29    3.63
   3  10   3   78.20    3.65
  -3  10  -3   71.22    3.73
  -3  10  -3   68.10    3.67
   3  10   3   69.47    3.86
  -3 -10   3   71.75    3.94
  -3  10   4    7.27    1.77
  -3 -10  -4    8.67    1.45
  -3 -10  -4    7.32    1.37
  -3 -10  -4   10.99    1.73
  -3  10   4    9.73    1.65
   3 -10   4    5.81    1.83
  -3  10  -4    7.07    1.46
   3 -10  -4    7.48    1.67
   3  10   4    7.52    1.53
  -3  10  -4    7.76    1.23
   3  10   4    8.55    1.58
  -3 -10   4    6.45    1.51
   3 -10   5   64.03    4.78
  -3  10   5   65.52    5.55
  -3 -10  -5   62.57    4.13
  -3 -10  -5   60.42    4.14
  -3 -10  -5   56.56    3.86
  -3  10   5   56.17    4.58
  -3 -10   5   54.60    4.11
   3  10   5   53.72    3.91
   3 -10  -5   65.33    5.35
  -3  10  -5   49.19    3.43
  -3 -10  -6    6.55    2.11
  -3 -10  -6    6.08    1.83
  -3 -10  -6    4.37    2.22
   3 -10   6    3.68    2.53
  -3  10   6    6.69    2.66
  -3  10   6    5.30    2.33
  -3  10  -6    0.29    2.12
   3 -10  -6   -3.55    2.49
   3  10   6    1.03    1.78
   3  10   6    0.47    2.06
  -3  10  -6    4.45    1.55
  -3 -10   6    4.87    2.24
  -3 -10  -7   37.05    4.16
  -3 -10  -7   35.97    4.45
   3 -10   7   26.04    4.53
  -3  10   7   40.10    5.33
  -3 -10  -7   31.50    4.54
  -3  10   7   38.87    4.59
  -3  10  -7   31.85    3.56
  -3 -10   7   23.77    5.84
   3  10   7   29.81    3.90
  -3  10   8    0.88    3.39
   3 -10   8    6.57    4.33
  -3  10   8    1.66    3.61
  -3 -10  -8   -3.89    5.36
   3  10   8    4.88    3.45
  -3  10  -8    2.07    2.44
   4 -10   0    2.22    0.91
  -4  10   0    1.70    0.76
  -4 -10   0    1.67    0.38
  -4  10   0    1.97    0.70
  -4  10   1  103.21    5.63
  -4  10   1  105.50    5.11
   4 -10   1  115.04    5.71
  -4 -10  -1  106.48    4.74
  -4 -10  -1  106.82    4.72
  -4 -10  -1  115.72    4.91
  -4 -10   1  111.93    4.68
  -4  10  -1  116.40    5.16
  -4  10  -1  115.15    5.30
   4 -10  -1  104.94    5.63
  -4 -10  -2    1.76    0.60
  -4 -10  -2    2.64    0.89
  -4  10   2    0.21    0.97
  -4  10   2    1.79    0.80
   4 -10   2    1.73    1.14
  -4 -10  -2    1.52    0.58
   4  10   2    0.65    0.69
  -4 -10   2    0.79    0.64
  -4  10  -2    1.59    0.73
  -4  10  -2    2.97    0.87
   4 -10  -2    2.36    1.02
  -4 -10  -3   65.50    3.53
  -4  10   3   66.44    4.29
  -4 -10  -3   67.49    3.68
  -4  10   3   71.30    3.78
  -4 -10  -3   64.69    3.54
   4 -10   3   63.61    4.25
   4  10   3   75.62    3.45
   4 -10  -3   66.28    4.06
   4  10   3   66.04    3.59
  -4  10  -3   62.17    3.57
  -4  10  -3   61.61    3.61
  -4 -10   3   68.91    3.69
  -4  10   4    6.58    1.88
  -4  10   4    5.57    1.33
  -4 -10  -4    5.60    1.41
  -4 -10  -4    4.76    1.09
   4 -10   4    4.94    1.67
  -4 -10  -4    4.28    1.25
   4  10   4    3.41    1.16
   4 -10  -4    6.10    1.73
  -4 -10   4    5.06    1.41
  -4  10  -4    7.16    1.64
  -4  10  -4    4.91    1.25
   4  10   4    0.78    1.29
  -4  10   5   21.04    2.68
   4 -10   5   18.42    3.11
  -4  10   5   22.45    3.27
  -4 -10  -5   16.16    2.22
  -4 -10  -5   22.06    2.57
  -4 -10  -5   23.85    2.65
   4 -10  -5   22.52    2.93
   4  10   5   19.80    2.57
  -4 -10   5   21.78    2.91
  -4  10  -5   20.44    2.35
  -4  10  -5   19.61    2.48
  -4 -10  -6    3.97    1.77
  -4  10   6    1.74    2.40
   4 -10   6    4.85    2.61
  -4  10   6    4.31    1.96
  -4 -10  -6    5.41    2.28
  -4 -10  -6    7.22    2.22
   4  10   6    1.11    2.25
   4 -10  -6    3.43    2.93
  -4  10  -6    3.38    1.58
   4  10   6    7.41    2.15
  -4 -10   6    4.34    2.10
  -4  10  -6   -0.56    1.99
  -4  10   7   11.38    3.54
  -4 -10  -7   10.76    2.98
  -4 -10  -7    6.79    2.48
  -4 -10  -7    9.08    3.62
  -4  10   7    7.85    2.92
   4 -10   7   10.64    3.62
  -4 -10   7    7.39    2.83
   4  10   7    6.66    2.78
  -4  10  -7    9.15    2.31
  -4  10   8    4.35    3.57
  -4 -10  -8   -5.22    5.43
  -4  10   8   -0.95    3.84
   4 -10   8   -2.10    4.69
   4  10   8    6.68    3.52
  -4  10  -8    0.35    2.38
  -5  10   0    5.82    0.93
  -5 -10   0    5.58    0.54
  -5  10   0    6.90    1.29
   5 -10   0    7.29    1.46
  -5  10   1   87.79    5.06
  -5 -10  -1   86.92    3.95
   5 -10   1   90.16    5.05
  -5 -10  -1   95.91    4.20
  -5 -10  -1   87.56    4.00
  -5  10   1   92.81    4.53
   5 -10  -1   92.39    4.98
  -5  10  -1   91.03    4.39
  -5 -10   1   89.29    3.67
  -5 -10   1   91.06    3.91
  -5  10  -1   92.96    4.62
  -5 -10  -2   18.79    1.41
   5 -10   2   15.56    2.21
  -5  10   2   18.06    2.27
  -5  10   2   17.16    1.70
  -5 -10  -2   16.96    1.65
  -5 -10  -2   18.71    1.43
   5  10   2   17.83    1.15
  -5  10  -2   17.04    1.67
   5 -10  -2   16.11    2.11
   5  10   2   17.16    1.35
  -5 -10   2   16.28    1.34
  -5  10  -2   17.30    1.66
   5 -10   3   48.47    3.66
  -5  10   3   47.14    3.04
  -5 -10  -3   46.35    2.79
  -5 -10  -3   50.29    2.99
  -5 -10  -3   44.04    2.73
  -5  10   3   48.18    3.70
  -5  10  -3   49.16    3.02
   5 -10  -3   49.93    3.49
  -5 -10   3   47.58    2.88
  -5  10  -3   46.94    2.98
   5  10   3   45.98    2.79
  -5  10   4   38.39    2.84
  -5 -10  -4   31.79    2.53
  -5  10   4   37.30    3.51
  -5 -10  -4   34.96    2.88
  -5 -10  -4   34.63    2.92
   5 -10   4   38.07    3.51
  -5  10  -4   34.42    3.04
   5 -10  -4   33.54    4.68
  -5 -10   4   31.67    2.62
  -5  10  -4   38.01    2.85
   5  10   4   28.31    2.53
  -5 -10  -5   21.99    2.69
  -5  10   5   25.51    2.87
  -5 -10  -5   22.21    2.77
  -5 -10  -5   22.56    2.56
  -5  10   5   23.05    3.29
   5 -10   5   21.51    3.27
  -5 -10   5   21.28    2.86
  -5  10  -5   21.36    2.63
  -5  10  -5   24.20    2.67
   5  10   5   21.32    2.68
  -5  10   6   21.45    3.20
  -5 -10  -6   23.50    2.97
  -5 -10  -6   21.55    3.06
  -5 -10  -6   22.72    3.31
  -5  10   6   25.78    4.05
   5 -10   6   23.76    4.01
  -5 -10   6   20.48    3.17
   5  10   6   20.14    2.97
  -5  10  -6   26.83    3.05
   5 -10   7    9.70    4.13
  -5 -10  -7   13.17    3.54
  -5 -10  -7    8.37    3.07
  -5  10   7   12.80    3.76
  -5  10   7    7.62    3.02
  -5 -10  -7   10.89    2.78
  -5  10  -7    8.73    2.47
   5  10   7   11.45    2.91
  -5 -10   7    9.53    3.08
  -5  10   8   14.93    5.01
  -5 -10  -8   14.39    3.58
  -5 -10  -8   11.94    3.67
  -5 -10  -8   20.23    6.11
   5 -10   8   13.74    5.52
  -5  10   8   17.14    4.18
   5  10   8   13.57    3.94
  -5  10  -8    9.98    3.05
  -6  10   0    8.20    1.40
   6 -10   0    7.23    1.48
  -6  10   0    8.08    1.18
  -6 -10   0    7.95    0.77
  -6 -10   0    9.12    1.11
   6 -10   1   29.15    2.65
  -6 -10  -1   27.11    1.56
  -6  10   1   28.35    2.18
  -6  10   1   26.52    2.69
  -6 -10  -1   29.01    1.93
  -6 -10  -1   29.27    1.63
  -6  10  -1   27.11    1.99
   6 -10  -1   22.89    2.54
  -6 -10   1   30.32    1.51
  -6  10  -1   30.66    2.27
  -6 -10  -2   25.16    1.65
   6 -10   2   21.63    2.60
  -6 -10  -2   25.11    1.71
  -6  10   2   22.75    2.72
  -6  10   2   20.03    1.98
   6 -10  -2   27.55    2.64
  -6  10  -2   25.95    2.14
  -6 -10   2   19.06    1.39
  -6  10  -2   26.01    2.06
  -6 -10  -3   11.06    1.41
  -6 -10  -3   14.01    1.69
  -6  10   3   13.21    1.70
   6 -10   3   13.05    2.31
  -6 -10  -3   10.05    1.37
  -6  10   3   13.72    2.37
   6 -10  -3   11.93    2.14
  -6 -10   3   12.64    1.44
   6  10   3   12.30    1.38
  -6  10  -3    9.89    1.64
  -6  10  -3   10.09    1.60
  -6 -10  -4   37.65    2.96
   6 -10   4   34.43    3.62
  -6 -10  -4   35.73    2.75
  -6  10   4   36.00    3.18
  -6  10  -4   36.39    3.10
   6 -10  -4   41.08    3.86
  -6 -10   4   39.82    2.85
  -6  10  -4   36.39    2.90
   6  10   4   33.16    2.68
  -6  10   5    4.83    2.50
  -6 -10  -5    3.77    1.65
  -6 -10  -5    3.93    1.65
  -6 -10  -5    2.50    1.55
   6 -10   5    4.13    2.34
  -6  10   5    3.29    1.71
  -6  10  -5    4.78    1.67
   6 -10  -5    0.43    2.66
  -6 -10   5    3.46    1.68
   6  10   5    4.15    1.58
  -6 -10  -6   42.20    4.23
   6 -10   6   32.02    4.66
  -6 -10  -6   33.22    3.37
  -6  10   6   32.48    4.60
  -6 -10  -6   29.66    3.92
  -6  10   6   36.73    3.97
  -6  10  -6   25.87    3.38
   6  10   6   33.61    3.78
  -6 -10   6   33.02    3.78
  -6 -10  -7    1.88    2.74
  -6  10   7   -1.53    2.40
   6 -10   7   -2.61    4.03
  -6 -10  -7    1.75    3.11
  -6 -10  -7    4.26    2.30
  -6  10   7    5.18    3.44
  -6 -10   7   -0.55    2.31
  -6  10  -7   -3.19    3.60
  -6  10  -7    4.32    2.22
   6  10   7   -2.86    2.31
  -6  10   8   10.22    3.82
   6 -10   8    6.27    5.69
  -6 -10  -8    5.32    3.64
  -6  10   8   10.13    5.03
  -6 -10  -8   18.83    6.15
  -6 -10  -8   11.57    3.43
  -6  10  -8   11.76    3.38
   6  10   8   15.67    4.22
  -7 -10   0  163.37    6.58
  -7  10   0  165.51    7.73
   7 -10   0  155.36    7.87
  -7  10   0  160.10    7.31
  -7 -10  -1    0.92    0.93
  -7  10   1    1.04    0.86
  -7 -10  -1    0.10    0.54
  -7  10   1    1.37    1.17
   7 -10   1    0.99    1.38
  -7 -10   1    2.89    0.47
   7 -10  -1   -0.98    1.15
  -7  10  -1    2.17    0.99
  -7  10  -1    1.14    0.80
  -7  10   2  113.00    6.60
  -7 -10  -2  111.91    5.17
  -7 -10  -2  118.39    5.37
  -7  10   2  116.13    5.78
  -7 -10  -2  111.17    5.21
   7 -10   2  115.58    6.30
  -7  10  -2  118.55    6.02
  -7  10  -2  122.19    5.93
   7 -10  -2  115.58    6.30
  -7  10   3    0.65    0.95
   7 -10   3    2.60    1.61
  -7 -10  -3    0.63    0.73
  -7 -10  -3    1.11    0.89
  -7 -10  -3    2.83    1.23
  -7  10   3    5.36    1.81
  -7  10  -3    2.61    1.14
  -7 -10   3    1.11    0.83
  -7  10  -3    1.24    1.16
   7  10   3    1.94    0.92
   7 -10  -3    1.37    1.86
  -7  10   4   58.84    4.79
   7 -10   4   58.01    4.56
  -7 -10  -4   54.11    3.64
  -7 -10  -4   49.69    3.41
  -7 -10  -4   52.28    3.42
  -7  10   4   53.76    3.77
  -7  10  -4   52.36    3.81
  -7  10  -4   49.87    3.74
   7  10   4   55.30    3.24
  -7 -10  -5    1.90    1.50
  -7  10   5    1.31    2.28
   7 -10   5    6.33    2.69
  -7 -10  -5    1.17    1.43
  -7 -10  -5   -2.76    2.49
  -7  10   5    1.08    1.52
  -7  10  -5    1.16    1.99
  -7  10  -5    0.68    1.51
   7  10   5    0.95    1.53
  -7 -10   5   -0.57    1.42
   7 -10   6   20.32    4.50
  -7  10   6   24.65    4.16
  -7 -10  -6   21.54    2.99
  -7 -10  -6   15.89    3.17
  -7  10   6   21.03    3.19
  -7 -10  -6   21.87    3.19
   7  10   6   20.08    2.98
  -7 -10   6   18.66    2.99
  -7  10  -6   22.35    3.75
  -7  10  -6   17.70    2.79
  -7  10   7   -0.34    3.64
   7 -10   7   -2.02    4.82
  -7 -10  -7   -0.94    2.81
  -7  10   7    2.09    2.66
  -7 -10  -7    3.73    2.38
  -7 -10  -7    0.80    3.26
  -7  10  -7    2.33    4.04
   7  10   7   -0.02    2.79
  -7  10  -7    1.30    2.33
  -8 -10   0   14.23    1.01
  -8  10   0   15.22    1.97
   8 -10   0   16.53    2.31
  -8  10   0   15.78    1.67
   8 -10   1   33.24    3.22
  -8  10   1   41.13    2.74
  -8  10   1   38.93    3.20
  -8 -10  -1   36.31    2.03
   8 -10  -1   36.53    4.90
  -8  10  -1   39.40    2.97
  -8  10  -1   42.84    2.83
  -8  10   2   19.14    2.14
   8 -10   2   27.56    3.00
  -8  10   2   25.24    3.12
  -8 -10  -2   21.88    2.24
  -8 -10  -2   21.78    1.62
  -8 -10  -2   19.11    1.66
  -8  10  -2   23.84    2.37
   8 -10  -2   20.88    2.90
  -8  10  -2   26.00    2.25
   8 -10   3   21.68    3.12
  -8 -10  -3   19.41    1.92
  -8 -10  -3   18.86    2.44
  -8  10   3   23.51    2.61
  -8  10   3   28.19    3.39
  -8  10  -3   19.73    2.34
  -8 -10   3   19.31    1.70
   8 -10   4   26.84    3.66
  -8  10   4   23.31    3.55
  -8 -10  -4   23.42    2.43
  -8  10   4   23.07    2.74
  -8 -10  -4   26.03    2.89
  -8 -10  -4   26.81    2.47
  -8 -10   4   26.83    2.48
  -8  10  -4   20.86    2.74
   8  10   4   22.11    2.17
   8 -10   5   -0.38    2.95
  -8  10   5    4.94    1.90
  -8 -10  -5    2.85    1.60
  -8 -10  -5    2.39    1.50
  -8  10   5    6.59    2.74
  -8 -10   5    5.91    1.84
  -8  10  -5    3.09    2.35
   8  10   5    2.89    1.77
  -8  10  -5    1.54    1.67
  -8 -10  -6   11.38    3.00
  -8 -10  -6   13.98    2.87
  -8  10   6    9.31    2.57
   8 -10   6    2.07    4.04
  -8 -10  -6    8.44    2.33
  -8  10   6   11.57    3.73
  -8 -10   6   14.13    2.80
  -8  10  -6    8.51    2.43
  -8  10  -6   12.68    3.65
   8  10   6   11.70    2.66
  -8  10   7   -1.61    4.10
  -8  10   7    0.36    2.54
  -8 -10  -7    2.10    3.38
   8 -10   7   -0.74    5.34
  -8 -10  -7    0.91    3.03
  -8 -10  -7   -2.27    2.31
   8  10   7    2.75    3.15
  -8  10  -7    0.07    2.48
  -8  10  -7    4.47    4.46
  -9 -10   0   14.97    1.08
  -9  10   0   16.42    1.71
   9 -10   0   18.48    2.49
  -9  10   0   16.05    2.10
  -9  10   1   68.87    4.00
   9 -10   1   73.70    4.67
  -9 -10  -1   66.46    3.31
  -9  10   1   76.14    4.68
  -9  10  -1   74.71    4.17
   9 -10  -1   69.28    4.81
  -9  10  -1   75.66    4.47
  -9  10   2   15.40    1.87
  -9  10   2   13.06    2.45
  -9 -10  -2   15.47    1.39
   9 -10   2   11.57    2.32
  -9 -10  -2   15.72    1.52
  -9  10  -2   16.80    2.31
  -9  10  -2   20.41    2.28
  -9 -10  -3   53.81    3.73
  -9  10   3   57.57    3.81
  -9 -10  -3   48.74    3.22
   9 -10   3   62.74    4.67
  -9 -10   3   53.72    2.86
  -9  10  -3   45.91    3.83
  -9 -10  -4   11.21    1.87
  -9 -10  -4   17.06    2.22
   9 -10   4   13.08    3.14
  -9  10   4   11.20    2.19
  -9 -10  -4   16.00    2.36
  -9  10   4   13.41    2.93
  -9  10  -4   13.47    2.48
  -9  10  -4   11.18    2.13
  -9 -10   4   12.56    1.92
  -9  10   5   24.13    4.31
  -9  10   5   19.34    2.98
  -9 -10  -5   29.01    3.73
  -9 -10  -5   18.50    2.72
  -9 -10  -5   17.83    2.46
   9  10   5   26.76    3.10
  -9  10  -5   20.17    3.48
  -9 -10   5   20.32    2.70
  -9  10  -5   17.92    2.98
   9 -10   6   -1.56    4.40
  -9 -10  -6    8.74    2.96
  -9  10   6    8.15    2.65
  -9 -10  -6    8.19    2.42
  -9  10   6   14.76    4.58
  -9 -10  -6    7.89    2.62
  -9  10  -6    9.00    2.86
   9  10   6   11.98    3.05
  -9  10  -6   11.75    3.79
  -9 -10  -7    4.25    3.64
  -9 -10  -7    8.07    2.72
  -9  10   7    6.33    5.24
  -9  10   7    8.01    3.20
  -9 -10  -7   10.93    3.79
  -9  10  -7   -1.73    4.73
  -9  10  -7    2.31    2.90
   9  10   7    6.24    3.69
 -10 -10   0    0.68    0.56
  10 -10   0   -2.64    1.96
 -10  10   0    1.18    0.89
 -10  10   0    0.23    1.01
 -10 -10  -1   66.99    3.23
 -10  10   1   62.40    4.24
  10 -10   1   64.44    4.81
 -10  10   1   66.66    4.52
 -10  10  -1   73.62    4.53
 -10  10  -1   69.48    4.24
 -10  10   2    0.43    1.74
 -10 -10  -2    0.04    0.78
 -10  10   2   -0.05    1.07
  10 -10   2    1.14    2.14
 -10  10  -2   -1.43    2.11
  10 -10  -2   -2.08    2.81
 -10 -10  -3   26.42    2.36
 -10  10   3   34.53    3.06
 -10  10   3   33.29    4.45
 -10 -10  -3   25.92    2.33
 -10  10  -3   29.90    3.27
 -10  10  -3   28.44    3.38
 -10 -10   3   31.56    2.15
  10 -10   4   -1.10    2.77
 -10  10   4    0.51    1.67
 -10  10   4   -0.84    2.51
 -10 -10  -4    1.91    1.42
 -10 -10  -4    1.08    1.26
 -10 -10  -4   -5.14    1.84
 -10  10  -4   -0.46    2.04
 -10  10  -4    0.04    1.53
 -10 -10   4    1.67    1.33
 -10  10   5   11.36    3.77
 -10  10   5   10.68    2.37
 -10 -10  -5    6.85    2.00
 -10 -10  -5    9.27    2.82
  10 -10   5   -1.16    3.84
 -10 -10  -5    9.22    2.13
 -10  10  -5    7.67    2.69
 -10  10  -5    6.62    3.06
  10  10   5    2.45    2.28
 -10  10  -5   -2.34    2.79
 -10 -10  -6   -1.58    2.27
 -10  10   6   -1.18    3.99
 -10 -10  -6   -0.43    2.06
 -10 -10  -6    1.35    3.05
 -10  10   6   -1.28    2.29
 -10  10  -6    5.58    2.84
  10  10   6   -1.36    2.81
 -10  10  -6    1.00    3.78
 -10  10   7    3.64    3.16
 -10 -10  -7    7.31    2.87
 -10 -10  -7   11.07    3.98
 -10  10   7    6.92    5.92
 -10 -10  -7    7.18    3.82
 -10  10  -7   22.22    6.03
 -10 -10   7    6.86    3.00
 -10  10  -7    0.71    3.15
  10  10   7   -2.34    5.72
 -11  10   0    8.62    1.57
 -11  10   0    9.64    2.31
 -11 -10   0   10.29    1.01
 -11 -10  -1   22.85    1.79
 -11  10   1   24.45    2.34
 -11  10  -1   30.15    2.80
 -11  10  -1   23.62    3.87
 -11  10   2   12.77    2.88
  11 -10   2    0.90    2.62
 -11  10   2   10.85    1.97
 -11 -10  -2    9.86    1.41
 -11  10  -2    8.32    1.91
 -11 -10   2   10.00    1.08
 -11  10  -2   11.15    2.19
 -11 -10  -3   25.55    2.36
 -11  10   3   23.15    3.92
 -11  10   3   23.97    2.96
 -11 -10  -3   27.28    2.46
 -11  10  -3   24.68    3.33
 -11  10  -3   29.99    3.64
 -11 -10   3   22.66    1.76
 -11 -10   3   20.60    2.91
 -11  10   4    5.52    1.92
 -11 -10  -4    8.14    1.82
 -11  10   4   11.38    3.63
 -11 -10  -4    8.95    1.85
 -11 -10   4    8.03    1.67
 -11  10  -4    5.75    2.40
 -11  10  -4    7.20    2.65
 -11 -10  -5   25.36    3.12
 -11  10   5   14.39    4.58
 -11 -10  -5   20.38    2.89
 -11  10   5   18.01    3.16
 -11 -10  -5   19.18    3.60
 -11  10  -5   26.16    4.43
 -11  10  -5   16.60    3.50
 -11 -10   5   20.24    2.74
 -11 -10  -6    2.18    3.41
 -11  10   6    2.66    2.64
 -11  10   6    8.04    4.92
 -11 -10  -6    3.83    2.61
 -11 -10  -6    5.84    2.72
 -11  10  -6    6.84    3.06
 -11  10  -6    2.14    4.16
 -11 -10   6    5.58    2.68
 -12 -10   0   -0.96    0.71
 -12  10   0    1.60    1.54
 -12  10   0    1.55    1.26
 -12 -10  -1    7.18    1.16
 -12  10   1    4.97    1.60
 -12  10   1    5.59    2.13
 -12  10  -1    8.12    1.88
 -12  10  -1    7.18    1.83
 -12  10   2    3.45    2.03
 -12  10   2    4.39    1.45
 -12 -10  -2    8.12    1.43
 -12  10  -2    9.78    2.14
 -12  10  -2    8.21    2.10
 -12  10   3    4.34    1.83
 -12 -10  -3    5.29    1.45
 -12 -10  -3    3.37    1.49
 -12  10   3    7.88    3.29
 -12  10  -3    4.84    2.17
 -12 -10   3    6.54    0.99
 -12  10  -3    3.23    2.00
 -12 -10  -4   13.37    2.23
 -12  10   4   12.98    2.61
 -12  10   4   16.35    4.20
 -12 -10  -4   17.57    2.44
 -12  10  -4   16.83    3.63
 -12 -10   4   14.32    1.78
 -12  10  -4   10.67    2.76
 -12 -10  -5    5.20    2.23
 -12  10   5    4.05    4.33
 -12 -10  -5    4.06    2.11
 -12  10   5    0.82    2.19
 -12  10  -5    2.34    2.93
 -12 -10   5    6.74    2.13
 -12  10  -5    0.50    3.46
 -12 -10  -6   13.14    3.23
 -12  10   6   18.23    6.30
 -12  10   6   11.57    3.33
 -12 -10  -6    9.27    3.03
 -12  10  -6   12.36    3.80
 -12  10  -6   14.37    5.05
 -12 -10   6   13.79    3.00
 -13  10   0   20.88    2.57
 -13  10   0   18.30    2.73
 -13 -10   0   21.26    1.63
 -13 -10  -1   10.43    1.44
 -13  10   1   11.34    2.51
 -13  10   1   10.64    1.92
 -13  10  -1   13.35    2.40
 -13  10  -1   12.36    2.22
 -13 -10  -2   24.45    2.37
 -13  10   2   22.62    2.76
 -13  10   2   25.88    3.91
 -13  10  -2   27.99    3.42
 -13  10  -2   21.48    2.99
 -13 -10  -3    2.49    1.39
 -13 -10  -3    3.94    1.62
 -13  10   3    6.21    2.11
 -13  10   3   10.19    3.34
 -13  10  -3    4.29    2.37
 -13  10  -3    3.25    2.04
 -13  10   4   17.11    3.30
 -13 -10  -4   18.47    2.77
 -13 -10  -4   25.48    3.07
 -13  10   4   24.93    5.15
 -13  10  -4   22.58    3.87
 -13  10  -4   22.83    4.00
 -13 -10   4   22.79    2.73
 -13 -10  -5    1.39    2.32
 -13  10   5   -1.81    2.25
 -13 -10  -5   -2.07    2.10
 -13  10   5    1.53    4.98
 -13  10  -5    1.32    3.81
 -13  10  -5    2.99    3.10
 -13 -10   5    5.69    2.13
 -13  10   6   12.40    6.75
 -13 -10  -6   12.50    3.26
 -13  10   6   12.47    3.44
 -13 -10  -6   16.93    3.70
 -13  10  -6   17.26    5.82
 -13 -10   6   20.25    3.38
 -13  10  -6   11.70    4.22
 -14  10   0   10.99    2.58
 -14  10   0    9.17    2.05
 -14 -10   0    9.69    1.26
 -14  10   1    5.63    1.77
 -14 -10  -1    1.96    1.33
 -14  10   1    6.37    2.32
 -14  10  -1    4.59    1.78
 -14  10  -1    3.01    1.88
 -14  10   2    9.84    2.07
 -14 -10  -2   10.93    1.82
 -14  10   2   11.80    3.06
 -14  10  -2    9.84    2.63
 -14  10  -2   12.05    2.66
 -14 -10  -3    0.33    1.61
 -14  10   3    4.15    2.81
 -14 -10  -3    0.13    1.35
 -14  10   3    0.68    1.86
 -14  10  -3   -0.78    2.37
 -14  10  -3    1.73    2.23
 -14 -10  -4   13.35    2.37
 -14  10   4    6.43    4.32
 -14  10   4    9.45    2.67
 -14 -10  -4   10.74    2.54
 -14  10  -4   12.92    3.65
 -14  10  -4   12.59    3.18
 -14  10   5   -8.31    5.37
 -14  10   5   -4.78    2.47
 -14 -10  -5    5.59    2.60
 -14 -10  -5    0.11    2.28
 -14  10  -5   -3.14    3.33
 -14  10  -5   -0.17    3.97
 -15  10   0   30.01    4.01
 -15  10   0   28.42    3.15
 -15 -10   0   26.75    2.75
 -15  10   1   11.47    2.25
 -15 -10  -1   15.43    1.99
 -15  10   1   15.78    2.92
 -15  10  -1   17.36    3.13
 -15  10  -1   11.40    2.60
 -15  10   2   25.40    3.93
 -15  10   2   19.58    2.80
 -15 -10  -2   25.47    2.89
 -15  10  -2   16.44    3.09
 -15  10  -2   21.02    3.27
 -15  10   3    9.30    2.34
 -15 -10  -3    8.37    1.92
 -15 -10  -3    7.14    2.17
 -15  10   3   11.02    3.58
 -15  10  -3    3.77    2.73
 -15  10  -3    3.36    2.65
 -15  10   4   22.65    4.89
 -15  10   4   11.11    3.01
 -15 -10  -4   10.82    2.43
 -15 -10  -4   14.50    2.93
 -15  10  -4   10.22    3.69
 -15  10  -4    4.96    3.49
 -15 -10  -5    6.42    2.82
 -15  10   5    6.59    3.09
 -15  10   5    8.17    6.41
 -15 -10  -5    9.72    3.04
 -15  10  -5    7.97    4.69
 -15  10  -5    4.13    3.85
 -16  10   0   -0.49    1.71
 -16  10   0    0.18    2.22
 -16  10   1   27.36    3.31
 -16  10   1   29.58    4.10
 -16 -10  -1   29.18    2.92
 -16  10  -1   27.40    3.62
 -16  10  -1   22.86    3.36
 -16  10   2    2.78    2.01
 -16 -10  -2    2.09    1.93
 -16  10   2    3.91    2.74
 -16  10  -2    5.16    2.50
 -16  10  -2    3.46    2.49
 -16  10   3   11.72    2.57
 -16 -10  -3   18.53    2.74
 -16  10   3   13.33    3.88
 -16 -10  -3   10.84    2.22
 -16  10  -3   11.00    3.52
 -16  10  -3   10.52    3.24
 -16 -10  -4   -4.58    2.46
 -16  10   4    0.17    2.35
 -16  10   4    1.76    4.35
 -16 -10  -4   -0.05    2.01
 -16  10  -4   -1.07    3.62
 -16  10  -4    3.02    3.33
 -17  10   0   -4.37    1.75
 -17  10   0    3.37    2.71
 -17 -10  -1   24.87    2.82
 -17  10   1   22.39    3.86
 -17  10   1   24.43    3.31
 -17  10  -1   17.05    3.42
 -17  10  -1   20.03    3.29
 -17  10   2    1.42    3.25
 -17  10   2    0.96    2.00
 -17 -10  -2    0.96    2.22
 -17  10  -2    1.60    2.67
 -17  10  -2    0.15    2.73
 -17 -10  -3   16.31    2.67
 -17  10   3   14.11    4.07
 -17 -10  -3   22.90    3.24
 -17  10   3   19.83    3.08
 -17  10  -3   19.92    4.05
 -17  10  -3   21.72    4.05
 -18  10   0    8.91    3.21
 -18  10   0    4.20    2.50
 -18  10   1    1.94    3.24
 -18  10   1    6.74    2.40
 -18  10  -1    4.92    3.04
 -18  10  -1    8.35    2.91
 -18  10   2    0.64    3.44
 -18 -10  -2    7.07    2.77
 -18  10   2    0.02    2.16
 -18  10  -2    0.75    2.98
 -18  10  -2    3.75    3.20
   0  11   0   -0.81    0.46
   0 -11   0    0.44    0.62
   0  11   0    0.17    0.38
   0 -11   1   25.32    2.00
   0  11  -1   25.23    1.46
   0  11  -1   27.07    1.56
   0  11   1   24.35    1.84
   0 -11  -1   27.34    1.91
   0  11   2   -0.40    0.76
   0 -11   2   -0.85    0.77
   0  11  -2   -0.93    0.75
   0  11  -2   -0.39    0.41
   0 -11  -2    0.45    0.71
   0  11   2   -0.32    0.66
   0 -11  -3   30.59    2.38
   0  11   3   27.71    2.49
   0  11  -3   32.86    2.15
   0  11  -3   29.69    1.83
   0 -11   3   32.89    2.73
   0  11   3   32.98    2.19
   0  11  -4   -0.07    0.67
   0 -11   4   -0.08    1.15
   0  11   4   -0.30    1.06
   0 -11  -4    1.07    1.03
   0  11   4   -0.24    1.08
   0  11  -5   12.82    1.63
   0  11   5   16.67    2.46
   0  11   5   13.62    2.50
   0 -11   5   15.40    2.60
   0  11  -6   -0.30    1.20
   0  11   6    2.32    2.17
   0  11   6    3.36    2.16
   0 -11   6   -1.86    2.09
   0 -11  -6   -1.52    2.27
   0  11   7    5.97    3.09
   0 -11  -7    2.01    3.57
   0  11  -7    2.00    1.77
   0  11   7    0.14    2.92
   0 -11   7    5.40    2.97
   0  11   8   -0.35    3.34
   0 -11   8   -2.34    3.85
   0  11   8   -2.43    3.91
  -1 -11   0    2.17    0.67
   1  11   0    3.10    0.49
   1  11   0    2.23    0.57
  -1  11   0    3.24    0.80
   1 -11   0    1.49    0.76
  -1  11   0    2.91    0.62
  -1  11   1  215.76    8.77
   1 -11   1  211.90    9.34
   1  11  -1  206.52    8.44
  -1  11   1  199.15    9.13
  -1 -11  -1  207.62    8.92
  -1  11  -1  208.86    8.81
   1  11   1  202.75    8.92
  -1  11  -1  224.25    8.80
   1 -11  -1  204.10    9.27
   1  11   1  216.13    8.67
  -1 -11   1  212.79    9.18
   1 -11   2   19.94    2.08
  -1 -11  -2   21.16    1.66
  -1  11   2   21.03    1.67
   1  11  -2   19.77    1.20
  -1  11   2   16.81    1.90
   1 -11  -2   24.38    1.97
  -1  11  -2   20.57    1.42
  -1  11  -2   21.39    1.61
   1  11   2   20.49    1.60
   1  11   2   18.31    1.83
  -1 -11   2   19.49    1.85
   1  11  -3  109.60    5.00
  -1 -11  -3  111.21    5.65
   1 -11   3  119.61    6.19
  -1  11   3  117.06    6.05
  -1  11   3  126.29    5.59
   1  11   3  113.12    5.80
  -1  11  -3  113.22    5.24
   1 -11  -3  115.35    5.80
  -1 -11   3  117.74    5.99
   1  11   3  119.20    5.41
  -1 -11  -4   44.86    3.12
   1  11  -4   45.85    2.39
  -1  11   4   40.60    2.94
   1 -11   4   44.10    3.55
  -1  11   4   40.40    3.37
   1 -11  -4   46.09    3.31
   1  11   4   43.60    2.91
  -1  11  -4   40.44    2.53
   1  11   4   44.49    3.27
  -1 -11   4   39.78    3.29
  -1  11   5   37.51    3.82
  -1  11   5   51.81    3.47
   1  11  -5   42.99    2.56
  -1 -11  -5   41.97    3.59
   1 -11   5   45.17    4.08
  -1 -11   5   46.08    4.03
   1 -11  -5   47.88    3.77
   1  11   5   52.01    3.47
  -1  11  -5   36.29    3.08
   1  11   5   43.33    3.83
  -1  11   6   34.49    3.77
   1 -11   6   35.18    4.34
  -1 -11  -6   35.28    4.35
   1  11  -6   32.67    2.68
  -1  11   6   32.41    4.08
  -1  11  -6   33.97    2.94
   1  11   6   28.69    3.86
  -1 -11   6   30.82    4.09
   1 -11  -6   42.16    4.58
   1  11   6   31.58    3.68
  -1  11   7   21.43    4.01
   1 -11   7   20.49    4.07
  -1  11   7   26.77    4.00
  -1 -11  -7   23.54    4.84
  -1  11  -7   25.15    3.14
  -1 -11   7   17.94    3.91
   1  11   7   20.72    3.63
   1 -11   8    8.43    4.15
  -1  11   8   12.08    4.11
  -1  11   8   12.79    4.33
   1  11   8    7.39    3.73
  -1 -11   8   11.51    4.16
   1  11   8    3.65    4.15
  -1  11  -8   14.33    3.00
   2  11   0   10.58    0.68
  -2  11   0   10.00    1.12
  -2  11   0    9.39    1.03
  -2 -11   0   11.25    1.08
   2  11   0   11.22    0.86
   2 -11   0   10.31    1.51
   2 -11   1    1.25    0.87
  -2  11   1    2.65    0.73
  -2 -11  -1    1.85    0.63
  -2  11   1    1.86    0.87
   2  11   1    2.43    0.56
  -2 -11   1    3.04    0.73
  -2  11  -1    1.47    0.67
   2 -11  -1    1.09    0.79
  -2  11  -1    3.10    0.67
   2  11   1    0.06    0.51
  -2 -11  -2    3.05    0.80
  -2  11   2    4.79    1.30
   2 -11   2    3.41    1.17
  -2  11   2    4.97    0.96
   2  11   2    2.62    0.87
  -2  11  -2    3.81    0.78
  -2 -11   2    2.92    0.96
   2  11   2    3.88    0.89
   2 -11  -2    2.78    1.04
  -2  11  -2    4.10    1.28
   2 -11   3    2.59    1.21
  -2 -11  -3    2.21    0.95
   2  11  -3    1.97    0.55
  -2  11   3    1.82    1.09
  -2 -11  -3    1.63    0.74
   2  11   3    2.35    0.96
  -2  11  -3    1.81    0.73
  -2 -11   3    2.47    1.07
   2 -11  -3    3.16    1.18
   2  11   3    0.85    0.94
  -2  11  -3    2.14    1.01
  -2  11   4    0.55    1.23
  -2  11   4    1.37    1.02
  -2 -11  -4   -0.79    1.08
  -2 -11  -4   -0.46    0.73
   2 -11   4   -1.40    1.13
  -2 -11  -4   -0.78    0.93
   2  11  -4    0.29    0.60
  -2  11  -4   -0.28    0.70
  -2 -11   4   -0.12    1.15
   2  11   4   -0.76    1.13
   2  11   4    1.38    1.14
  -2  11  -4    0.21    1.19
   2 -11  -4    0.69    1.23
   2 -11   5    6.57    2.36
   2  11  -5    2.48    0.87
  -2 -11  -5    2.72    1.62
  -2  11   5    4.15    1.95
  -2 -11  -5    3.07    1.37
  -2  11   5    2.97    1.48
   2 -11  -5    3.64    1.95
  -2 -11   5    3.21    1.76
   2  11   5    5.03    1.84
  -2  11  -5    4.58    1.26
  -2  11  -5   -0.12    1.67
   2  11   5    1.57    1.63
  -2 -11  -6    0.62    2.12
  -2  11   6   -0.15    2.08
   2 -11   6    0.37    2.41
  -2  11   6   -1.05    2.02
   2 -11  -6    3.87    2.77
   2  11   6    1.36    1.96
  -2 -11   6    1.74    2.19
  -2  11  -6    1.22    1.32
  -2  11   7    0.39    2.74
   2 -11   7    1.46    3.11
  -2  11   7    1.68    2.78
  -2 -11  -7    0.64    3.54
  -2  11  -7    1.83    1.82
   2  11   7    2.24    3.30
   2  11   7    1.42    2.63
   2 -11  -7    4.81    4.43
  -2 -11   7    0.77    2.73
  -2  11   8   -3.65    3.42
  -2 -11  -8   -1.78    4.83
   2 -11   8   -4.38    3.81
  -2  11   8   -4.30    3.62
  -2 -11   8    1.75    3.43
  -2  11  -8    4.97    2.68
   2  11   8   -0.01    3.38
  -3 -11   0  128.54    5.65
   3 -11   0  136.59    6.51
  -3  11   0  131.06    6.03
  -3  11   0  132.81    5.81
   3 -11   1   34.95    2.66
  -3  11   1   38.26    2.26
  -3 -11  -1   34.40    2.00
  -3  11   1   35.13    2.65
  -3  11  -1   35.08    2.08
   3  11   1   34.61    1.65
  -3 -11   1   35.26    1.98
  -3  11  -1   33.58    2.10
   3 -11  -1   35.38    2.62
   3  11   1   35.40    1.72
   3 -11   2  128.20    6.57
  -3 -11  -2  130.43    5.84
  -3  11   2  125.76    6.58
  -3 -11  -2  132.99    5.78
  -3  11   2  125.00    5.95
  -3  11  -2  128.46    5.84
   3 -11  -2  135.44    6.44
  -3  11  -2  133.81    5.83
   3  11   2  120.92    5.85
  -3 -11   2  124.18    5.94
   3  11   2  129.07    5.52
  -3  11   3   19.77    1.97
  -3 -11  -3   21.47    1.82
  -3 -11  -3   19.46    1.70
   3 -11   3   19.45    2.33
  -3  11   3   19.46    2.42
  -3 -11  -3   20.36    2.09
  -3  11  -3   16.82    1.88
  -3  11  -3   18.49    1.63
   3  11   3   18.85    1.89
   3 -11  -3   22.25    2.33
   3  11   3   25.44    2.45
  -3 -11   3   20.86    2.09
   3 -11   4  108.51    6.23
  -3  11   4   99.24    6.06
  -3 -11  -4  111.83    5.66
  -3  11   4  106.79    5.49
  -3 -11  -4  103.25    5.34
  -3 -11  -4  107.12    5.54
  -3  11  -4   97.97    5.02
   3  11   4   94.52    5.29
  -3 -11   4  100.67    5.49
  -3  11  -4  106.10    5.16
  -3 -11  -5    3.58    1.57
   3 -11   5    3.75    2.09
  -3  11   5    4.84    2.16
  -3 -11  -5    5.24    1.71
  -3 -11  -5    3.64    2.94
   3  11   5    0.51    1.68
  -3 -11   5    3.27    1.82
   3  11   5    3.37    1.61
  -3  11  -5    3.77    1.33
  -3  11  -5    1.22    1.70
   3 -11  -5    5.02    1.98
  -3 -11  -6   50.95    4.64
  -3  11   6   68.01    4.78
  -3 -11  -6   52.53    4.59
  -3 -11  -6   52.54    4.17
   3 -11   6   54.78    5.52
  -3  11   6   54.51    5.28
  -3 -11  -7   -3.76    3.33
  -3  11   7   -3.63    2.66
  -3  11   7    2.29    2.90
   3 -11   7   -1.66    2.97
   3  11   7   -2.47    2.34
  -3 -11   7   -3.62    2.43
  -3  11  -7    1.81    1.89
  -3  11   8   15.48    4.53
   3 -11   8   11.47    4.93
  -3 -11  -8   -7.75    5.96
  -3  11   8   22.53    4.68
  -3  11  -8   18.01    3.24
   3  11   8   16.82    4.13
  -3 -11   8   16.67    4.36
   4 -11   0   17.88    2.06
  -4 -11   0   17.28    1.14
  -4  11   0   19.05    1.50
  -4  11   0   18.11    1.65
  -4  11   1    0.05    0.69
   4 -11   1    1.38    1.04
  -4  11   1   -0.70    0.78
  -4 -11  -1    0.44    0.45
  -4  11  -1   -0.04    0.62
  -4  11  -1    0.91    0.65
  -4 -11   1   -0.01    0.44
   4 -11  -1    0.17    0.94
  -4  11   2   21.64    1.86
  -4 -11  -2   21.39    1.60
  -4 -11  -2   21.19    1.59
  -4 -11  -2   20.69    1.90
   4 -11   2   19.18    2.42
  -4  11   2   24.24    2.49
   4  11   2   20.50    1.65
   4 -11  -2   22.08    2.27
  -4  11  -2   19.52    1.74
  -4  11  -2   21.52    1.76
  -4 -11   2   20.05    1.73
  -4  11   3    1.31    1.19
  -4 -11  -3   -0.11    0.72
  -4  11   3    0.47    0.86
   4 -11   3   -1.56    1.16
  -4 -11  -3    0.02    1.05
  -4 -11  -3    0.95    0.76
   4 -11  -3   -0.22    1.13
  -4  11  -3    0.80    0.70
  -4 -11   3    0.89    0.90
   4  11   3    1.21    0.97
  -4  11  -3    1.08    0.96
   4  11   3    0.25    0.81
   4 -11   4    5.32    1.87
  -4  11   4    8.91    1.57
  -4 -11  -4    8.32    1.63
   4 -11  -4    8.24    2.00
  -4  11  -4    8.10    1.68
   4  11   4    8.62    1.59
  -4  11  -4   10.55    2.10
  -4 -11   4    7.98    1.63
  -4  11   5    1.78    1.56
   4 -11   5   -2.14    1.90
  -4 -11  -5   -1.05    1.51
  -4 -11  -5    2.97    2.11
  -4  11   5    3.52    2.00
  -4 -11  -5   -0.56    1.20
  -4  11  -5    3.23    1.79
   4  11   5    1.22    1.50
  -4  11  -5    1.66    1.25
   4  11   5   -0.42    1.79
   4 -11  -5    1.17    2.07
  -4 -11   5   -0.15    1.55
  -4 -11  -6    1.19    1.95
  -4 -11  -6    1.09    1.81
   4 -11   6   -0.90    2.46
  -4 -11  -6   -0.39    2.05
  -4  11   6    0.85    2.50
  -4  11   6    5.05    2.29
   4  11   6    4.04    2.12
  -4 -11   6    0.62    1.95
  -4  11  -6    0.40    1.53
  -4  11  -6    0.92    2.33
  -4 -11  -7   -0.58    2.15
   4 -11   7   -2.14    3.20
  -4 -11  -7   -2.02    2.55
  -4 -11  -7    2.56    3.34
  -4  11   7    0.63    2.62
  -4  11   7   -0.44    3.15
  -4  11  -7    1.12    1.94
  -4 -11   7   -2.09    2.35
   4  11   7    0.72    2.50
  -4  11   8    2.53    3.98
  -4 -11  -8    1.18    5.99
   4 -11   8   -5.89    4.73
  -4  11   8    3.04    3.80
   4  11   8    2.21    3.58
  -4  11  -8    1.51    2.67
  -5 -11   0   37.63    1.83
  -5  11   0   37.80    2.60
  -5  11   0   39.12    2.34
   5 -11   0   36.71    2.96
  -5 -11  -1  253.36   10.47
  -5 -11  -1  248.99   10.44
  -5  11   1  260.32   10.97
   5 -11   1  261.41   11.66
  -5  11   1  249.53   11.49
  -5 -11   1  256.55   10.33
  -5  11  -1  261.22   10.94
  -5  11  -1  258.43   11.13
   5 -11  -1  252.36   11.60
   5 -11   2   47.98    3.63
  -5  11   2   44.58    2.97
  -5 -11  -2   47.67    2.64
  -5 -11  -2   47.18    2.63
  -5  11   2   51.22    3.73
  -5 -11  -2   52.86    2.95
   5  11   2   43.59    2.04
  -5  11  -2   46.47    2.85
  -5  11  -2   46.94    2.80
   5 -11  -2   48.32    3.42
  -5 -11   2   45.61    2.54
  -5 -11  -3  121.16    5.94
  -5 -11  -3  125.73    6.09
  -5  11   3  132.08    6.24
  -5  11   3  129.62    6.99
  -5 -11  -3  121.13    5.89
   5 -11   3  130.37    6.95
   5  11   3  129.04    5.88
   5 -11  -3  123.99    6.71
  -5 -11   3  135.89    6.11
  -5  11  -3  115.23    6.06
  -5  11  -3  131.43    6.15
  -5 -11  -4   45.04    3.22
  -5 -11  -4   41.85    3.24
  -5  11   4   50.03    3.39
  -5 -11  -4   54.81    3.53
  -5  11   4   40.99    4.18
   5 -11   4   48.45    4.12
  -5  11  -4   44.97    3.18
   5  11   4   47.04    3.17
  -5 -11   4   52.04    4.18
  -5  11   5   29.06    2.94
  -5 -11  -5   21.30    2.58
   5 -11   5   31.37    3.95
  -5  11   5   24.05    3.68
  -5 -11  -5   20.98    2.75
   5  11   5   25.39    3.06
  -5  11  -5   21.57    2.63
  -5 -11   5   28.80    3.27
  -5  11  -5   18.14    2.73
  -5  11   6   25.92    3.37
   5 -11   6   31.15    4.47
  -5 -11  -6   33.44    3.91
  -5 -11  -6   35.66    4.27
  -5 -11  -6   26.84    3.35
  -5  11   6   34.31    4.75
  -5 -11   6   28.23    3.90
  -5  11  -6   31.52    3.31
   5  11   6   31.63    3.98
  -5 -11  -7    1.46    2.73
  -5 -11  -7    3.48    3.48
  -5  11   7    3.62    2.80
  -5  11   7    9.06    3.50
  -5 -11  -7    4.20    2.36
   5 -11   7    0.61    3.77
   5  11   7    4.47    2.98
  -5  11  -7    3.14    2.27
  -5 -11   7    0.31    2.59
   5 -11   8   -0.67    5.78
  -5 -11  -8    8.18    6.40
  -5  11   8   14.63    4.15
  -5  11  -8    8.56    3.05
  -6  11   0    1.15    0.80
  -6  11   0    0.34    0.75
   6 -11   0    2.14    1.29
  -6 -11   0    1.63    0.38
  -6 -11  -1    6.52    0.82
  -6 -11  -1    5.71    0.81
  -6  11   1    5.08    1.33
   6 -11   1    5.08    1.53
  -6  11   1    5.07    1.08
  -6 -11  -1    6.54    1.26
  -6  11  -1    5.81    1.09
   6 -11  -1    6.43    1.64
  -6  11  -1    6.07    1.17
  -6  11   2    1.00    0.98
  -6  11   2   -0.72    1.20
   6 -11   2    0.85    1.33
  -6 -11  -2    0.16    0.65
  -6 -11  -2    1.16    1.00
  -6 -11  -2    0.97    0.59
  -6 -11   2    1.59    0.68
   6 -11  -2   -0.06    1.19
  -6  11  -2    1.12    0.89
  -6  11  -2    0.67    0.85
  -6 -11  -3    5.72    1.39
   6 -11   3    1.96    1.57
  -6 -11  -3    3.96    1.02
  -6  11   3    3.77    1.84
  -6 -11  -3    3.35    0.93
  -6  11   3    3.20    1.10
   6  11   3    3.06    1.00
  -6  11  -3    4.73    1.37
  -6 -11   3    4.51    1.08
  -6  11  -3    5.38    1.20
   6 -11  -3    6.98    2.04
  -6 -11  -4    1.77    1.11
  -6 -11  -4    0.17    1.34
   6 -11   4    1.56    1.77
  -6  11   4   -0.09    1.77
  -6 -11  -4    0.37    1.03
  -6  11  -4    1.44    2.04
   6  11   4   -1.30    1.03
  -6  11  -4   -1.06    1.34
   6 -11  -4    2.58    2.15
  -6  11  -4    0.55    1.08
   6 -11   5    5.09    2.69
  -6  11   5    1.89    2.43
  -6 -11  -5    2.28    1.41
  -6  11   5    3.65    1.67
  -6 -11  -5    3.70    1.68
   6  11   5    2.59    1.68
  -6  11  -5    3.61    1.66
   6 -11  -5    3.11    2.94
  -6 -11   5    3.72    1.83
  -6  11  -5    1.80    2.26
  -6  11   6    2.35    2.69
  -6  11   6    1.21    1.99
  -6 -11  -6   -0.39    2.12
  -6 -11  -6   -0.28    1.64
  -6 -11  -6   -2.51    2.15
   6 -11   6    1.69    2.99
  -6  11  -6    0.84    1.66
   6  11   6   -0.44    2.13
  -6 -11   6   -0.51    1.92
  -6  11  -6   -5.24    2.83
   6 -11   7    3.14    4.28
  -6 -11  -7    2.38    2.19
  -6 -11  -7    4.88    2.96
  -6  11   7   -1.93    2.53
  -6 -11  -7    2.93    3.45
  -6  11   7   -1.13    3.46
   6  11   7    4.29    3.01
  -6  11  -7    1.99    2.18
  -6 -11   7    2.75    2.60
  -7  11   0    2.89    1.04
  -7 -11   0    2.09    0.57
   7 -11   0    4.76    1.62
  -7  11   0    2.50    0.86
   7 -11   1  143.15    7.26
  -7  11   1  142.17    7.16
  -7 -11  -1  133.55    5.90
  -7  11   1  139.84    6.59
  -7 -11  -1  134.02    5.87
   7 -11  -1  133.49    7.15
  -7 -11   1  139.80    5.83
  -7  11  -1  144.23    6.86
  -7  11  -1  143.80    6.63
   7 -11   2    2.74    1.54
  -7  11   2    1.47    0.95
  -7  11   2    3.03    1.61
  -7 -11  -2    2.16    0.79
  -7 -11  -2    3.59    0.78
  -7  11  -2    3.38    1.17
  -7  11  -2    3.82    1.13
  -7 -11   2    2.97    0.53
   7 -11  -2    4.58    1.75
  -7 -11   2    2.55    0.67
  -7 -11  -3   86.37    4.58
  -7 -11  -3   82.44    4.26
  -7  11   3   88.51    4.78
  -7  11   3   82.96    5.61
   7 -11   3   75.04    5.36
   7 -11  -3   85.27    5.52
  -7 -11   3   82.66    4.24
  -7  11  -3   88.59    4.78
   7 -11   4    4.82    2.06
  -7  11   4    3.52    1.56
  -7  11   4    2.45    1.89
  -7 -11  -4    3.02    1.55
  -7 -11  -4   -0.29    1.05
  -7  11  -4    1.09    1.39
  -7  11  -4    3.14    1.57
   7  11   4    0.81    1.22
  -7 -11   4    3.67    1.34
   7 -11  -4    1.07    2.48
  -7 -11  -5   38.19    3.52
  -7 -11  -5   50.51    3.80
  -7  11   5   49.36    5.15
  -7 -11  -5   53.79    6.82
   7 -11   5   49.53    5.41
  -7  11   5   38.33    3.74
  -7 -11   5   42.88    3.76
  -7  11  -5   43.21    4.25
   7  11   5   43.46    3.64
  -7  11  -5   43.19    3.84
  -7  11   6    2.64    2.13
  -7  11   6    6.21    3.19
   7 -11   6    1.14    3.61
  -7 -11  -6   -1.02    2.11
  -7 -11  -6    4.67    2.57
  -7 -11  -6   -3.20    1.62
   7  11   6    1.08    2.21
  -7 -11   6    4.46    2.26
  -7  11  -6   -4.23    3.05
  -7  11  -6    3.00    1.93
  -7 -11  -7   26.78    4.29
  -7 -11  -7   25.10    3.74
  -7 -11  -7   35.08    4.90
  -7  11   7   18.38    4.97
  -7  11   7   24.08    3.78
  -7  11  -7   28.74    3.91
   7  11   7   26.23    4.09
   8 -11   0    0.76    1.68
  -8  11   0    3.75    1.11
  -8 -11   0    4.45    0.64
  -8  11   0    4.31    1.16
  -8  11   1    3.25    0.95
  -8 -11  -1    2.80    0.74
  -8 -11  -1    3.08    0.63
   8 -11   1    4.53    1.68
  -8  11   1    3.85    1.31
  -8  11  -1    4.07    1.13
  -8  11  -1    3.29    1.13
   8 -11  -1    6.44    1.88
  -8 -11  -2    1.58    0.77
  -8  11   2    2.37    1.66
  -8 -11  -2    2.67    0.75
  -8 -11  -2    3.71    2.20
   8 -11   2   -1.74    1.53
  -8  11   2    2.74    1.14
  -8  11  -2    2.94    1.29
  -8  11  -2    3.38    1.22
   8 -11  -2    3.40    1.90
  -8 -11  -3    7.42    1.36
  -8  11   3    6.45    2.41
  -8  11   3   12.04    3.95
   8 -11   3    4.54    2.21
  -8 -11  -3    7.85    1.35
  -8 -11  -3    9.79    1.88
  -8 -11   3    6.81    1.18
  -8  11  -3    8.13    1.77
   8 -11  -3    0.88    2.16
  -8  11  -3   10.51    1.88
  -8  11   4    0.15    2.05
   8 -11   4   -3.36    2.10
  -8 -11  -4   -0.26    1.06
  -8 -11  -4   -1.92    1.12
  -8 -11  -4    1.13    1.67
  -8  11   4   -0.37    1.38
  -8  11  -4    0.67    1.70
   8  11   4    1.61    1.16
  -8 -11   4    0.71    1.29
   8 -11  -4    1.83    2.88
  -8  11  -4    0.05    1.27
  -8  11   5    6.80    3.11
  -8 -11  -5    7.30    2.42
  -8 -11  -5    3.41    1.62
   8 -11   5   14.57    3.96
  -8 -11  -5    8.21    2.05
  -8  11   5    6.49    2.14
   8  11   5    7.87    2.09
  -8  11  -5    7.44    2.36
  -8  11  -5    3.90    2.56
  -8 -11   5    5.97    1.86
  -8  11   6   -1.02    2.16
  -8  11   6   -1.56    3.32
  -8 -11  -6   -3.15    1.74
  -8 -11  -6    1.82    2.69
  -8 -11  -6    0.95    2.29
   8 -11   6    2.44    4.27
   8  11   6   -1.37    2.37
  -8  11  -6    4.56    3.50
  -8  11  -6    1.57    2.09
  -8 -11   6    1.02    2.28
  -8  11   7    7.46    4.77
  -8 -11  -7    0.29    3.46
  -8  11   7    3.74    3.10
  -8 -11  -7    2.75    2.37
   8 -11   7    5.95    5.55
  -8 -11  -7    5.84    3.52
  -8  11  -7    0.19    4.54
   8  11   7    0.97    3.32
  -8  11  -7    5.84    2.84
   9 -11   0   29.55    3.18
  -9  11   0   26.38    2.29
  -9  11   0   28.34    2.69
  -9 -11   0   26.31    1.49
   9 -11   1   45.10    4.47
  -9 -11  -1   41.70    2.32
  -9  11   1   41.35    3.43
  -9  11   1   41.23    2.90
  -9  11  -1   48.56    3.15
   9 -11  -1   43.20    4.00
  -9  11  -1   42.43    3.31
  -9 -11  -2   55.42    2.99
  -9 -11  -2   55.65    3.07
  -9  11   2   52.60    4.80
  -9 -11  -3   18.95    2.13
  -9  11   3   17.74    3.35
  -9 -11  -3   25.16    2.92
  -9  11   3   23.60    2.68
   9 -11   3   26.45    3.53
  -9 -11  -3   21.92    2.12
  -9  11  -3   17.84    2.56
  -9  11  -3   22.27    3.15
  -9 -11   3   19.70    1.74
   9 -11   4   73.81    6.01
  -9 -11  -4   69.99    4.39
  -9 -11  -4   80.60    4.94
  -9  11   4   69.02    4.88
  -9 -11  -4   73.84    4.34
  -9  11   4   73.74    6.18
  -9  11  -4   62.99    4.78
  -9  11  -4   78.39    5.14
  -9 -11   4   66.81    4.09
  -9 -11  -5    8.06    2.07
  -9 -11  -5    8.75    2.11
  -9  11   5   10.43    3.62
  -9  11   5    7.70    2.28
   9 -11   5   -3.79    3.61
  -9 -11  -5   10.62    2.71
  -9  11  -5    4.55    2.23
   9  11   5    1.37    2.00
  -9 -11   5    9.13    2.11
  -9  11  -5    9.88    3.18
  -9 -11  -6   60.15    5.29
  -9  11   6   57.28    7.52
  -9 -11  -6   55.37    5.59
  -9 -11  -6   45.67    4.51
  -9  11   6   48.15    4.92
  -9  11  -6   52.57    5.10
  -9  11  -6   53.10    6.43
  -9 -11  -7    6.34    2.79
  -9  11   7    4.10    5.16
  -9 -11  -7    3.88    3.64
  -9  11   7    0.03    3.12
  -9 -11  -7    2.21    3.87
  -9  11  -7   -2.94    5.03
   9  11   7   -4.23    3.99
  -9  11  -7    3.83    3.07
  10 -11   0    0.32    2.16
 -10 -11   0    2.98    0.68
 -10  11   0    4.42    1.61
 -10 -11  -1   -0.71    0.72
 -10  11   1    1.21    1.23
  10 -11   1    3.48    2.14
  10 -11  -1    2.90    2.32
 -10 -11  -2    1.35    0.90
  10 -11   2    2.20    2.24
 -10  11   2    0.04    1.29
 -10  11   2    2.71    1.90
 -10 -11  -2    0.64    0.79
 -10  11  -2    1.96    1.35
  10 -11  -2    2.16    2.78
 -10  11  -2   -0.20    1.33
 -10  11   3   -0.13    1.51
  10 -11   3    3.50    2.51
 -10 -11  -3   -1.24    1.15
 -10 -11  -3    1.28    1.01
 -10  11   3    2.74    2.31
 -10 -11   3    0.78    1.08
 -10  11  -3    3.07    1.70
 -10  11  -3   -1.84    1.64
 -10  11   4    1.51    1.84
 -10  11   4   -2.90    2.87
 -10 -11  -4    0.26    1.33
 -10 -11  -4    4.16    1.54
 -10 -11  -4   -3.04    2.27
  10 -11   4    2.37    3.22
 -10  11  -4    0.87    1.70
 -10 -11   4    2.28    1.48
 -10  11  -4    8.11    2.48
 -10 -11  -5    1.93    1.83
 -10 -11  -5   -5.06    2.50
 -10  11   5    1.97    3.18
 -10 -11  -5   -0.39    1.70
  10 -11   5    2.42    4.18
 -10  11   5   -0.67    1.97
 -10  11  -5   -0.30    2.30
 -10 -11   5   -0.16    1.71
 -10  11  -5    2.46    3.01
 -10 -11  -6   -0.04    3.37
 -10  11   6    0.03    2.30
 -10 -11  -6    0.91    2.64
 -10  11   6   -3.27    4.08
 -10 -11  -6   -1.11    2.15
 -10  11  -6    7.92    4.07
 -10  11  -6   -1.74    2.54
 -11 -11   0   78.88    3.57
 -11  11   0   85.72    5.15
 -11  11   0   79.79    4.70
 -11  11   1   23.78    2.54
 -11 -11  -1   22.27    1.77
 -11  11   1   25.55    3.11
 -11  11  -1   25.27    2.75
 -11  11  -1   26.16    2.95
 -11  11   2   66.78    4.31
 -11  11   2   61.61    5.09
 -11 -11  -2   60.39    3.42
 -11  11  -2   74.59    4.87
 -11  11  -2   67.27    4.86
  11 -11   3    2.51    3.02
 -11 -11  -3    8.28    1.54
 -11  11   3    6.57    1.95
 -11  11   3   13.55    3.39
 -11 -11  -3    8.90    1.62
 -11 -11   3    9.13    1.03
 -11  11  -3    7.98    2.28
 -11  11  -3   12.98    2.74
 -11 -11   3    6.28    1.39
 -11  11   4   49.13    6.28
 -11 -11  -4   39.62    3.49
 -11 -11  -4   45.14    3.54
 -11  11   4   43.74    4.07
 -11  11  -4   33.22    4.21
 -11  11  -4   47.28    5.01
 -11 -11   4   48.43    3.12
 -11 -11  -5    0.83    1.85
 -11  11   5   -2.71    3.65
 -11 -11  -5    1.51    1.94
 -11  11   5    4.32    2.50
 -11  11  -5    1.37    3.25
 -11 -11   5    0.54    2.05
 -11  11  -5    0.51    2.37
 -11  11   6   21.33    6.17
 -11  11   6   25.23    3.95
 -11 -11  -6   32.61    4.83
 -11 -11  -6   17.59    3.49
 -11 -11  -6   22.66    3.42
 -11  11  -6   19.62    5.31
 -11 -11   6   29.56    3.59
 -11  11  -6   17.05    4.18
 -12 -11   0    1.54    0.79
 -12  11   0    0.78    1.29
 -12  11   0    3.20    1.69
 -12  11   1    0.38    1.35
 -12 -11  -1    0.88    0.94
 -12  11   1    0.67    1.58
 -12  11  -1    1.17    1.66
 -12  11  -1    1.90    1.50
 -12 -11  -2    1.44    1.23
 -12  11   2    3.43    1.62
 -12 -11  -2    1.32    1.02
 -12  11   2    2.71    2.31
 -12  11  -2    2.80    1.65
 -12  11  -2    4.48    1.97
 -12  11   3    4.01    2.77
 -12  11   3    1.30    1.81
 -12 -11  -3    2.93    1.57
 -12 -11  -3    2.59    1.35
 -12  11  -3    5.63    2.02
 -12  11  -3    0.69    2.12
 -12  11   4   -0.06    2.15
 -12 -11  -4    2.70    1.77
 -12 -11  -4    2.93    1.58
 -12  11   4    1.28    3.31
 -12  11  -4    0.20    2.11
 -12 -11   4    0.94    1.35
 -12  11  -4    2.41    2.82
 -12  11   5    4.37    2.52
 -12 -11  -5    1.25    2.01
 -12  11   5    8.66    4.61
 -12 -11  -5   -1.75    2.10
 -12  11  -5    1.90    3.02
 -12 -11   5    0.67    2.01
 -12  11  -5    0.97    3.49
 -12 -11  -6   -2.03    2.78
 -12 -11  -6   -1.17    2.48
 -12  11   6   -2.43    5.90
 -12  11   6   -1.38    2.94
 -12  11  -6    3.63    3.29
 -12 -11   6    2.28    2.95
 -12  11  -6    1.16    5.05
 -13 -11   0   -1.57    0.85
 -13  11   0    0.06    1.49
 -13  11   0    1.20    1.62
 -13  11   1  114.53    6.28
 -13  11   1  115.01    6.81
 -13  11  -1  127.03    6.89
 -13  11  -1  117.78    7.00
 -13 -11  -2    2.80    1.19
 -13  11   2    1.85    1.55
 -13  11   2    2.32    2.23
 -13 -11  -2    4.21    1.40
 -13  11  -2    0.72    1.71
 -13  11  -2   -0.45    1.81
 -13  11   3   62.20    4.71
 -13 -11  -3   63.72    4.11
 -13  11   3   62.08    6.25
 -13 -11  -3   63.54    4.12
 -13  11  -3   62.54    5.32
 -13  11  -3   73.16    5.84
 -13  11   4    0.59    2.15
 -13 -11  -4    3.02    2.00
 -13 -11  -4    2.44    1.74
 -13  11   4    3.35    3.65
 -13  11  -4   -1.39    2.33
 -13  11  -4    0.90    2.95
 -13  11   5   22.46    3.66
 -13 -11  -5   23.82    3.26
 -13  11   5   24.33    5.93
 -13 -11  -5   16.87    3.20
 -13  11  -5   17.57    4.05
 -13  11  -5   30.94    5.33
 -14  11   0    5.35    1.97
 -14  11   0    4.26    2.01
 -14  11   1    1.30    1.54
 -14 -11  -1    3.66    1.38
 -14  11   1    2.32    1.93
 -14  11  -1    0.70    1.93
 -14  11  -1   -0.58    1.82
 -14 -11  -2    4.26    1.62
 -14  11   2    5.97    2.59
 -14  11   2   -0.38    1.63
 -14  11  -2   -1.90    1.97
 -14  11  -2    3.13    2.16
 -14 -11  -3   -1.18    1.75
 -14  11   3    0.55    1.77
 -14 -11  -3    1.38    1.50
 -14  11   3   -1.60    2.71
 -14  11  -3   -3.98    2.41
 -14  11  -3    1.18    2.40
 -14 -11  -4    1.53    1.82
 -14  11   4    0.94    2.27
 -14 -11  -4   -0.10    2.15
 -14  11   4    5.35    4.46
 -14  11  -4   -1.48    2.47
 -14  11  -4    1.12    3.29
 -14 -11  -5    2.34    2.29
 -14  11   5   -3.32    2.56
 -14  11   5   -1.66    5.50
 -14 -11  -5    1.10    2.61
 -14  11  -5   -4.54    3.05
 -14  11  -5   -2.19    4.47
 -15  11   0   10.52    2.81
 -15  11   0    7.39    2.19
 -15  11   1   15.10    2.57
 -15  11   1   13.66    3.02
 -15 -11  -1   18.89    2.45
 -15  11  -1   14.74    2.79
 -15  11  -1   15.02    2.95
 -15 -11  -2   11.56    1.98
 -15  11   2   11.65    2.45
 -15 -11  -2   17.64    2.24
 -15  11   2    9.01    2.75
 -15  11  -2   13.77    2.98
 -15  11  -2   13.23    3.17
 -15  11   3   11.42    3.78
 -15 -11  -3   13.97    2.30
 -15 -11  -3   17.34    2.61
 -15  11   3   12.07    2.59
 -15  11  -3   16.75    3.83
 -15  11  -3   19.81    3.88
 -15 -11  -4   16.54    2.72
 -15 -11  -4   16.17    3.11
 -15  11   4   17.22    4.70
 -15  11   4   10.50    2.92
 -15  11  -4   10.65    3.51
 -15  11  -4   14.66    4.08
 -16  11   0    2.23    1.94
 -16  11   0    0.94    2.61
 -16 -11  -1   -1.64    2.82
 -16  11   1    1.68    2.66
 -16  11   1   -0.23    1.82
 -16  11  -1   -3.30    2.00
 -16  11  -1    1.50    2.38
 -16  11   2   -0.33    2.01
 -16 -11  -2    0.12    1.59
 -16 -11  -2    2.10    1.97
 -16  11   2   -0.16    2.82
 -16  11  -2   -0.70    2.54
 -16  11  -2    2.74    2.57
 -16 -11  -3   -0.80    1.90
 -16 -11  -3   -1.72    2.32
 -16  11   3   -0.59    2.12
 -16  11   3   -0.16    3.18
 -16  11  -3    0.62    3.08
 -16  11  -3    2.31    2.99
 -16 -11  -4    0.63    2.24
 -16 -11  -4    2.36    2.85
 -16  11   4    0.35    2.42
 -16  11   4   -2.41    4.12
 -16  11  -4    4.11    4.14
 -16  11  -4    1.90    3.26
 -17  11   0   13.43    2.92
 -17  11   0   21.47    3.75
 -17  11   1   -1.19    2.01
 -17  11   1    2.18    2.66
 -17  11  -1   -1.00    2.38
 -17  11  -1    4.10    2.73
 -17  11   2   20.55    3.14
 -17  11   2   24.27    4.28
 -17 -11  -2   23.88    2.94
 -17 -11  -2   19.46    2.65
 -17  11  -2   30.14    4.47
 -17  11  -2   25.71    4.38
 -17  11   3   -2.85    3.85
 -17 -11  -3    1.04    2.08
 -17 -11  -3    5.17    2.81
 -17  11   3    3.18    2.28
 -17  11  -3    8.57    4.00
 -17  11  -3    2.83    3.46
 -18  11   0    3.94    3.03
 -18  11   0    0.73    2.52
 -18  11   1    2.13    2.29
 -18  11   1    1.81    3.14
 -18  11  -1    0.42    2.80
 -18  11  -1    0.69    2.82
   0  12   0    3.98    0.66
   0 -12   0    3.76    0.92
   0  12   0    4.50    0.75
   0  12  -1   -0.25    0.37
   0  12  -1   -0.71    0.67
   0 -12  -1    0.25    0.67
   0  12   1    0.64    0.64
   0 -12   1    0.69    0.75
   0  12   1    0.02    0.57
   0  12  -2    8.04    1.06
   0 -12  -2    6.26    1.20
   0  12  -2    6.37    0.81
   0 -12   2    4.29    1.22
   0  12   2    6.39    1.31
   0  12   2    4.70    1.03
   0  12   3   -1.01    0.87
   0 -12   3    0.05    1.02
   0  12   3   -0.91    0.84
   0  12  -3    0.06    0.54
   0 -12  -3   -0.98    0.85
   0  12  -4    6.78    1.03
   0  12   4    5.88    1.42
   0 -12  -4    7.17    1.63
   0  12   4    8.56    2.02
   0  12   5   -2.49    1.52
   0 -12   5   -0.82    1.67
   0 -12  -5    0.27    1.68
   0  12   5    2.44    1.53
   0  12   6    8.13    2.53
   0 -12   6   10.21    2.93
   0  12  -6   11.92    1.79
   0 -12  -6    9.22    2.81
   0  12   6    7.09    2.56
   0  12   7   -0.94    3.16
   0  12  -7    0.22    1.88
   0  12   7    2.07    2.74
   0 -12   7   -3.08    2.61
   0 -12  -7    4.22    4.00
   0 -12   8    3.29    3.98
   0  12   8    4.99    3.70
   0  12   8    8.43    4.52
  -1 -12   0  156.81    6.98
   1  12   0  156.66    6.45
  -1  12   0  153.05    6.72
   1 -12   0  154.51    7.24
   1  12  -1   55.75    2.51
  -1 -12  -1   57.20    3.08
   1 -12   1   54.07    3.45
  -1  12   1   54.04    3.12
  -1  12   1   58.72    3.44
   1 -12  -1   54.93    3.35
   1  12   1   57.94    2.91
   1  12   1   59.44    2.76
  -1 -12   1   60.61    3.33
  -1  12  -1   56.79    2.84
  -1  12  -1   58.50    2.87
  -1  12   2  115.01    5.99
   1  12  -2  112.99    4.91
  -1 -12  -2  111.86    5.57
  -1  12   2  128.33    5.50
   1  12   2  118.50    5.60
  -1 -12   2  116.14    5.82
   1  12   2  117.87    5.78
  -1  12  -2  108.01    5.15
   1 -12  -2  118.63    5.84
  -1  12  -2  123.81    5.25
  -1  12   3   42.19    2.64
  -1 -12  -3   40.95    2.75
   1  12  -3   37.47    2.02
   1 -12   3   38.31    3.21
  -1  12   3   37.48    3.01
  -1  12  -3   38.18    2.30
   1  12   3   44.97    3.02
  -1 -12   3   41.14    3.14
   1  12   3   42.61    2.63
   1 -12  -3   35.48    2.88
  -1 -12  -4   57.28    3.70
   1  12  -4   51.59    2.76
  -1  12   4   60.37    3.54
   1 -12  -4   53.73    3.74
   1  12   4   56.59    3.40
  -1  12  -4   46.14    2.86
   1  12   4   54.76    3.73
  -1  12   5   20.60    3.16
   1  12  -5   21.96    1.95
  -1 -12  -5   22.26    2.96
   1 -12   5   19.86    3.15
  -1 -12   5   19.46    2.98
   1 -12  -5   19.12    2.95
   1  12   5   22.76    3.04
  -1  12  -5   18.12    2.00
  -1  12   6   17.67    3.22
  -1  12   6   24.11    3.33
  -1 -12  -6   20.59    3.39
   1 -12   6   18.07    3.60
   1 -12  -6   21.98    3.77
  -1 -12   6   23.21    3.64
   1  12   6   13.82    3.02
  -1  12  -6   15.26    2.11
  -1  12   7    5.22    3.33
   1 -12   7    3.41    3.10
  -1 -12  -7    5.79    3.73
  -1  12   7    4.33    2.98
   1  12   7   -4.43    3.19
  -1 -12   7    3.12    3.08
   1 -12  -7    3.21    4.19
   1  12   7    0.25    2.75
  -1  12  -7    3.47    2.03
  -1  12   8   15.37    4.57
  -1  12   8    6.70    4.35
   1 -12   8   15.93    4.70
   1  12   8   10.60    4.01
  -1 -12   8    7.74    4.15
   2  12   0   16.20    0.90
  -2 -12   0   14.96    1.40
  -2  12   0   18.26    1.38
  -2  12   0   17.25    1.41
   2 -12   0   19.69    1.92
   2  12   0   16.08    1.07
  -2  12   1   17.96    1.44
  -2  12   1   19.22    1.76
   2 -12   1   16.95    1.96
  -2 -12  -1   17.00    1.46
  -2 -12   1   15.14    1.48
   2 -12  -1   17.09    1.78
  -2  12  -1   14.84    1.45
   2  12   1   16.67    1.14
  -2  12  -1   14.62    1.27
   2 -12   2    2.39    1.23
  -2  12   2    2.35    1.24
  -2 -12  -2    1.82    0.79
  -2  12   2    2.62    0.95
   2 -12  -2    0.25    0.93
   2  12   2    2.59    0.89
  -2  12  -2    2.51    0.69
   2  12   2    2.53    0.99
  -2  12  -2    3.94    0.92
  -2 -12   2    1.76    1.00
  -2 -12  -3   14.37    1.71
  -2  12   3   16.29    1.74
   2 -12   3   13.81    2.19
  -2  12   3   16.49    2.20
  -2  12  -3   18.05    1.53
  -2 -12   3   15.45    2.16
   2 -12  -3   12.29    1.89
  -2  12  -3   14.55    1.89
   2  12   3   16.90    1.87
   2  12   3   16.60    1.82
  -2  12   4    1.74    1.20
  -2 -12  -4    3.19    2.14
   2 -12  -4    2.77    1.39
   2  12   4    1.12    1.27
  -2  12  -4    3.03    0.93
  -2  12  -4   -1.01    1.40
   2  12   4    2.24    1.18
   2 -12   5    1.89    2.05
  -2 -12  -5    1.55    1.64
  -2  12   5    3.36    1.91
  -2  12  -5    3.29    1.22
  -2 -12   5    1.95    1.83
   2  12   5    0.55    1.71
   2  12   5    2.45    1.74
  -2 -12  -6    7.79    2.72
  -2  12   6    4.86    2.63
   2 -12   6    0.37    2.46
  -2  12   6    5.79    2.43
  -2  12  -6    3.89    1.53
  -2 -12   6    6.29    2.65
   2 -12  -6    0.23    2.91
   2  12   6   -1.55    2.10
  -2  12   7   -2.25    2.84
  -2  12   7   -1.66    2.92
   2 -12   7   -1.63    3.12
  -2 -12  -7    1.28    3.80
  -2  12  -7   -1.89    1.80
   2 -12  -7    1.47    4.47
  -2 -12   7    0.54    2.83
   2  12   7   -2.09    2.53
  -2  12   8    2.81    4.27
  -2 -12  -8    0.68    4.99
   2 -12   8    4.17    4.54
  -2  12   8    3.91    3.92
  -2 -12   8   -6.16    3.57
  -2  12  -8   -2.89    2.81
   2  12   8    0.89    3.52
  -3  12   0    0.21    0.58
   3 -12   0    1.86    0.95
  -3  12   0    0.29    0.59
  -3 -12   0    0.60    0.48
  -3  12   1   84.04    4.14
   3 -12   1   83.43    4.77
  -3 -12  -1   91.03    4.11
  -3  12   1   81.59    4.53
  -3  12  -1   85.30    4.09
   3  12   1   86.05    3.60
   3 -12  -1   85.54    4.78
   3  12   1   85.53    3.63
  -3 -12   1   83.78    4.08
  -3  12  -1   90.20    4.20
  -3 -12  -2    3.60    0.85
  -3  12   2    3.54    0.97
   3 -12   2    2.62    1.25
  -3  12   2    3.33    1.25
   3 -12  -2    1.60    1.02
   3  12   2    2.44    0.85
  -3  12  -2    3.15    0.81
  -3  12  -2    3.90    1.13
  -3 -12   2    2.38    0.96
  -3  12   3   96.12    5.66
  -3  12   3  104.94    5.07
  -3 -12  -3  101.62    5.05
  -3 -12  -3   98.03    4.86
   3 -12   3   93.22    5.73
  -3 -12   3  102.53    5.50
  -3  12  -3  101.45    5.02
   3  12   3  101.90    5.26
  -3  12  -3  111.24    5.17
   3 -12  -3  108.02    5.74
  -3 -12  -4    4.23    1.22
  -3  12   4    0.92    1.21
  -3 -12  -4    2.59    2.06
  -3  12   4    4.63    1.79
  -3 -12  -4    5.18    1.59
  -3  12  -4    2.04    1.41
   3 -12  -4    3.19    1.68
   3  12   4    3.66    1.27
   3  12   4   -0.20    1.37
   3 -12   5   78.37    5.98
  -3 -12  -5   88.72    4.98
  -3 -12  -5   86.85    5.31
  -3  12   5   77.29    5.76
  -3 -12  -5   88.05    5.45
  -3  12   5   80.68    4.99
   3 -12   6    1.83    2.86
  -3 -12  -6    2.67    2.33
  -3  12   6    3.31    2.31
  -3  12   6    5.41    2.54
  -3 -12   6    4.87    2.34
  -3  12  -6    4.55    1.68
   3  12   6    3.50    2.24
   3 -12  -6   -0.26    3.21
  -3  12   7   52.17    6.10
  -3 -12  -7   45.61    5.66
  -3  12   7   52.89    5.60
   3 -12   7   48.05    6.20
  -3  12  -7   44.90    4.08
   3  12   7   38.74    5.17
  -3 -12   7   44.74    5.46
   3 -12   8    8.25    5.00
  -3  12   8   -0.48    4.09
  -3  12   8    0.36    3.79
  -3 -12  -8   -8.44    6.23
  -3  12  -8    1.08    2.91
  -3 -12   8    3.37    3.69
   3  12   8    1.49    3.78
  -4  12   0    5.89    0.97
  -4 -12   0    3.41    0.69
   4 -12   0    6.05    1.53
  -4  12   0    4.05    0.93
  -4  12   1   19.91    1.74
  -4  12   1   21.21    2.07
   4 -12   1   19.00    2.31
  -4 -12  -1   21.01    1.48
   4 -12  -1   17.27    2.20
  -4 -12   1   22.23    1.48
  -4  12  -1   20.09    1.69
  -4  12  -1   20.67    1.66
   4 -12   2    1.48    1.29
  -4  12   2    1.65    0.95
  -4 -12  -2    0.49    0.67
  -4  12   2    1.09    1.14
  -4 -12  -2    0.56    0.61
   4  12   2    0.48    0.62
  -4 -12   2    1.17    0.90
  -4  12  -2    0.96    0.66
  -4  12  -2    1.19    0.88
   4 -12  -2   -0.73    1.08
  -4  12   3    9.58    1.55
  -4  12   3   10.54    2.09
  -4 -12  -3    8.48    1.53
  -4 -12  -3    7.41    1.24
  -4 -12  -3    9.12    1.33
   4 -12   3   10.95    2.06
  -4  12  -3    6.87    1.43
   4 -12  -3    7.31    1.65
   4  12   3    9.62    1.49
  -4 -12   3    9.52    1.62
  -4  12  -3    8.62    1.33
  -4 -12  -4    0.98    1.09
  -4 -12  -4    1.29    1.15
  -4  12   4    0.70    1.20
  -4  12   4   -0.97    1.56
  -4 -12  -4    1.21    1.38
   4  12   4    1.39    1.16
  -4  12  -4    0.47    1.44
   4 -12  -4    0.72    1.58
  -4  12  -4    1.68    1.07
  -4 -12   4    1.41    1.56
  -4 -12  -5    4.64    2.13
   4 -12   5    2.10    2.44
  -4 -12  -5    6.31    1.90
  -4  12   5    2.38    2.02
  -4  12   5    1.94    1.72
  -4 -12  -5    3.73    1.52
   4  12   5    4.68    1.88
  -4 -12   5    3.22    1.85
  -4  12  -5    4.56    1.53
  -4  12  -5   -2.01    1.83
   4 -12  -5    0.02    2.16
  -4 -12  -6    1.77    1.84
  -4  12   6    2.80    2.51
   4 -12   6    1.72    2.74
  -4  12   6   -0.65    2.11
  -4 -12  -6   -2.08    2.04
  -4 -12  -6    1.50    2.41
  -4  12  -6   -0.83    1.54
  -4 -12   6    2.26    2.19
   4  12   6    1.85    2.26
   4 -12  -6    1.37    3.49
   4 -12   7    2.61    3.45
  -4  12   7   -2.04    3.03
  -4  12   7    6.34    2.96
  -4 -12  -7    1.53    3.61
  -4 -12   7    1.40    2.76
   4  12   7    4.68    2.98
  -4  12  -7    1.67    1.95
  -5  12   0   57.86    3.22
   5 -12   0   51.79    3.68
  -5 -12   0   49.17    2.46
  -5  12   0   50.87    2.88
  -5  12   1   46.77    2.88
   5 -12   1   51.01    3.72
  -5  12   1   47.72    3.32
  -5 -12  -1   49.48    2.53
   5 -12  -1   50.45    3.68
  -5  12  -1   51.07    3.04
  -5  12  -1   52.55    2.93
  -5 -12   1   51.26    2.48
  -5 -12  -2   37.88    2.36
  -5  12   2   35.82    3.38
  -5 -12  -2   40.14    2.37
   5 -12   2   40.50    3.45
  -5 -12  -2   39.59    2.72
  -5  12   2   41.85    2.82
  -5  12  -2   45.41    2.75
   5 -12  -2   41.87    3.40
  -5 -12   2   41.47    2.54
  -5  12  -2   38.34    2.65
  -5  12   3   51.16    4.13
  -5  12   3   49.44    3.39
  -5 -12  -3   56.02    3.21
  -5 -12  -3   54.01    3.48
   5 -12   3   50.66    4.09
  -5 -12  -3   51.88    3.07
   5 -12  -3   52.09    3.99
  -5  12  -3   51.69    3.23
   5  12   3   53.40    3.04
  -5  12  -3   48.12    3.14
  -5 -12   3   50.78    3.28
  -5 -12  -4   26.30    2.41
  -5  12   4   25.33    3.46
  -5  12   4   25.39    3.97
  -5 -12  -4   31.05    3.00
  -5 -12  -4   28.13    2.60
   5 -12   4   19.49    4.07
   5  12   4   22.36    2.37
  -5  12  -4   29.50    2.86
  -5  12  -4   28.42    2.51
   5 -12  -4   26.33    3.70
  -5 -12   4   28.03    2.80
  -5 -12  -5   33.06    3.07
   5 -12   5   35.36    4.58
  -5 -12  -5   38.87    3.86
  -5  12   5   33.82    4.29
  -5 -12  -5   38.23    3.48
  -5  12   5   34.25    3.43
  -5  12   6   13.55    3.39
   5 -12   6   19.55    4.09
  -5 -12  -6   19.88    2.86
  -5 -12  -6   21.85    3.39
  -5 -12  -6   18.95    3.16
  -5  12   6   13.48    2.89
  -5  12  -6   18.81    2.66
  -5 -12   6   19.34    3.16
   5  12   6   15.46    2.89
  -5  12   7   17.60    3.59
  -5  12   7   20.71    4.43
  -5 -12  -7   19.31    3.40
  -5 -12  -7   19.08    4.43
   5 -12   7   20.28    4.97
  -5 -12   7   16.39    3.79
   5  12   7   15.21    3.57
  -5  12  -7   16.14    2.90
   6 -12   0    3.48    1.49
  -6  12   0    4.12    1.05
  -6 -12   0    3.56    0.58
  -6  12   0    4.10    1.14
  -6  12   1    2.88    1.17
  -6  12   1    0.08    0.86
  -6 -12  -1    2.30    0.61
   6 -12   1    2.30    1.39
  -6 -12  -1    2.99    0.68
  -6  12  -1    2.17    0.98
  -6 -12   1    2.27    0.49
   6 -12  -1    1.23    1.47
  -6  12  -1    2.43    0.85
  -6 -12  -2    2.89    0.78
   6 -12   2    1.69    1.38
  -6  12   2    3.03    1.51
  -6  12   2    1.13    1.01
  -6 -12  -2    3.55    1.36
  -6 -12  -2    0.80    0.61
   6 -12  -2    0.72    1.44
  -6 -12   2    2.05    0.85
  -6  12  -2    3.06    0.94
  -6  12  -2    2.28    1.07
   6 -12   3    0.37    1.59
  -6 -12  -3    3.27    1.47
  -6  12   3    2.98    1.28
  -6 -12  -3    2.03    0.87
   6  12   3    3.21    1.01
   6 -12  -3    4.64    1.80
  -6 -12   3    1.80    1.07
  -6  12  -3    3.44    1.30
  -6  12   4    2.22    1.36
   6 -12   4    4.24    2.34
  -6 -12  -4    5.24    1.46
  -6 -12  -4    6.09    1.36
  -6  12   4    3.97    2.17
  -6 -12  -4    5.73    1.77
   6 -12  -4    3.79    2.19
   6  12   4    5.35    1.38
  -6  12  -4    6.54    1.59
  -6  12  -4    9.49    1.86
  -6 -12   4    5.21    1.58
  -6 -12  -5    2.14    2.06
  -6  12   5    2.35    1.86
  -6 -12  -5    0.34    1.40
  -6 -12  -5   -0.24    1.53
  -6  12   5   -4.08    1.97
   6 -12   5    4.61    2.75
  -6  12  -5    0.90    1.42
  -6 -12   5    1.06    1.58
   6  12   5    1.71    1.77
   6 -12  -5   -0.61    2.91
  -6 -12  -6    0.97    1.92
  -6 -12  -6    7.08    2.69
  -6 -12  -6    4.55    2.61
  -6  12   6    4.94    2.46
  -6  12   6    3.29    3.01
   6 -12   6    3.85    3.53
  -6  12  -6    5.64    3.12
   6  12   6    1.58    2.36
  -6 -12   6    3.97    2.32
  -6  12  -6    5.80    2.02
  -6 -12  -7   -0.43    2.23
  -6 -12  -7   -3.40    3.55
  -6 -12  -7   -2.11    3.02
   6 -12   7   12.53    4.93
  -6  12   7   -2.51    2.65
  -6  12   7   -0.86    3.84
  -6 -12   7   -1.81    2.80
   6  12   7   -0.48    3.11
  -6  12  -7    2.49    2.33
  -7  12   0  179.20    8.34
   7 -12   0  175.25    8.86
  -7 -12   0  177.55    7.23
  -7  12   0  175.38    7.97
  -7 -12  -1    0.39    0.52
  -7 -12  -1    1.00    0.64
   7 -12   1    1.55    1.44
  -7  12   1   -0.37    0.84
  -7  12   1    1.06    1.12
  -7  12  -1    0.88    0.88
   7 -12  -1    0.97    1.51
  -7  12  -1    1.28    0.87
  -7 -12   1   -0.01    0.31
  -7  12   2  135.15    7.55
  -7  12   2  131.35    6.61
  -7 -12  -2  142.88    6.38
   7 -12   2  141.34    7.46
  -7 -12  -2  123.43    5.99
  -7 -12  -2  130.26    6.00
  -7  12  -2  142.34    6.81
   7 -12  -2  133.60    7.28
  -7  12  -2  137.70    6.61
  -7 -12   2  130.86    5.87
   7 -12   3   -0.31    1.81
  -7  12   3    3.82    1.99
  -7 -12  -3    0.71    0.85
  -7 -12  -3    3.27    1.59
  -7 -12  -3    2.93    1.20
  -7  12   3    3.21    1.59
   7 -12  -3    0.45    2.04
  -7 -12   3    2.38    1.03
  -7  12  -3    2.36    1.25
  -7  12  -3    2.45    1.27
  -7 -12  -4   51.33    4.12
  -7  12   4   64.41    5.32
   7 -12   4   61.74    5.16
  -7 -12  -4   55.04    3.74
  -7  12   4   63.44    4.06
  -7 -12  -4   57.41    3.81
  -7  12  -4   51.51    4.00
  -7 -12   4   60.15    3.92
  -7  12  -4   57.97    4.13
   7  12   4   65.86    3.52
  -7  12   5    1.30    2.51
  -7  12   5    5.53    2.16
  -7 -12  -5    2.85    2.27
   7 -12   5   -0.03    3.06
  -7 -12  -5    3.88    1.69
  -7 -12  -5    2.07    1.71
  -7  12  -5    1.80    2.43
  -7  12  -5    2.94    1.74
   7  12   5    4.73    2.03
  -7 -12   5    5.06    1.86
  -7  12   6   18.58    4.15
  -7 -12  -6   21.22    3.48
  -7 -12  -6   13.62    2.62
   7 -12   6   18.18    4.56
  -7  12   6   18.27    3.19
  -7 -12  -6   22.49    3.63
   7  12   6   20.06    3.17
  -7  12  -6    4.89    3.32
  -7 -12   6   12.96    3.01
  -7  12  -6   16.84    2.82
  -7 -12  -7    3.50    3.35
  -7 -12  -7    3.06    2.51
  -7 -12  -7    7.75    3.87
  -7  12   7   -4.15    2.79
  -7  12   7   -0.57    4.04
   7 -12   7    3.66    5.49
   7  12   7    2.43    3.53
  -7  12  -7    4.88    2.79
  -7 -12   7    3.28    2.81
   8 -12   0    3.75    1.74
  -8 -12   0    2.73    0.52
  -8  12   0    4.28    1.32
  -8  12   0    2.03    0.96
   8 -12   1   11.67    2.43
  -8  12   1    8.07    1.71
  -8 -12  -1    9.93    1.02
  -8  12   1    9.11    1.54
  -8 -12  -1    9.79    1.15
  -8  12  -1    9.78    1.63
   8 -12  -1    8.28    2.17
  -8  12  -1   10.34    1.74
  -8 -12  -2    2.63    0.89
  -8 -12  -2    3.45    0.81
   8 -12   2    6.08    2.12
  -8  12   2    3.44    1.20
  -8  12  -2    2.67    2.07
  -8  12  -2    4.90    1.43
  -8 -12   2    2.82    0.74
   8 -12  -2    2.45    2.04
   8 -12   3    5.30    2.27
  -8 -12  -3    3.01    1.79
  -8 -12  -3    4.40    1.37
  -8 -12  -3    3.94    1.13
  -8  12   3    6.06    2.33
  -8  12   3    5.88    1.65
  -8  12  -3    4.88    1.54
   8 -12  -3    0.34    2.24
  -8 -12   3    4.61    1.15
  -8  12  -3    4.72    1.57
  -8  12   4    1.27    2.21
  -8 -12  -4    2.78    1.31
   8 -12   4    1.57    2.54
  -8 -12  -4    4.17    2.04
  -8  12   4    4.40    1.82
  -8 -12  -4    5.81    1.52
  -8  12  -4    5.35    2.00
  -8  12  -4    4.00    1.69
  -8 -12   4    5.88    1.61
   8 -12  -4   -0.17    2.96
  -8 -12  -5    6.70    2.61
  -8  12   5    2.16    2.79
  -8 -12  -5    0.81    1.61
  -8 -12  -5    4.16    1.91
   8 -12   5    6.02    3.75
  -8  12   5    2.31    2.02
  -8 -12   5    3.56    1.88
   8  12   5   -2.88    2.02
  -8  12  -5   -1.84    2.52
  -8  12  -5    2.76    1.85
  -8 -12  -6    9.81    2.74
  -8  12   6    7.56    3.79
  -8  12   6    9.42    2.78
  -8 -12  -6    6.27    3.11
   8 -12   6   13.34    5.00
  -8 -12  -6    2.68    2.23
   8  12   6    6.30    3.01
  -8  12  -6   -0.32    3.66
  -8  12  -6    5.77    2.41
  -8 -12   6    5.96    2.41
  -8 -12  -7   -2.11    3.69
   8 -12   7   -0.86    5.71
  -8  12   7    6.57    4.65
  -8 -12  -7    4.64    3.68
  -8 -12  -7   -0.42    2.64
  -8  12   7    0.79    3.14
  -8  12  -7    1.75    2.79
   8  12   7    0.66    3.94
  -9  12   0   19.54    2.00
   9 -12   0   16.50    2.77
  -9 -12  -1   95.70    4.37
  -9 -12  -1   94.57    4.33
  -9  12   1   98.59    5.19
  -9  12  -1   85.13    6.30
   9 -12  -1   96.06    6.18
  -9  12  -1  110.88    5.35
  -9  12   2   12.85    2.53
  -9  12   2   19.11    2.44
  -9 -12  -2   16.17    1.88
  -9 -12  -2   18.74    1.75
  -9  12  -2   17.80    2.41
  -9  12  -2   17.78    2.67
  -9 -12  -3   67.00    3.99
  -9  12   3   72.26    4.71
   9 -12   3   70.68    5.48
  -9 -12  -3   70.40    4.03
  -9  12   3   75.86    6.10
  -9  12  -3   74.12    4.75
  -9  12  -3   71.98    4.75
  -9 -12   3   65.01    3.82
  -9 -12  -4   13.71    2.55
  -9 -12  -4   11.10    1.86
  -9 -12  -4    9.77    1.98
  -9  12   4   14.71    2.52
   9 -12   4   14.00    3.75
  -9  12   4   14.36    3.32
  -9  12  -4    8.11    2.09
  -9 -12   4    8.98    1.81
  -9  12  -4    9.99    2.45
  -9  12   5   39.43    4.18
  -9 -12  -5   38.20    3.70
  -9 -12  -5   36.79    4.70
  -9 -12  -5   34.72    3.45
  -9  12   5   44.14    5.72
  -9  12  -5   31.30    4.08
  -9  12  -5   40.02    5.17
  -9 -12   5   35.90    3.69
  -9  12   6    1.40    2.50
  -9  12   6    1.68    4.31
  -9 -12  -6    6.66    3.43
  -9 -12  -6    6.24    2.40
  -9 -12  -6    6.68    2.73
   9 -12   6   -0.49    4.96
  -9  12  -6    5.23    2.71
  -9  12  -6   -0.60    3.79
  -9 -12   6    9.51    2.70
  -9 -12  -7   10.63    3.26
  -9  12   7   20.40    6.12
  -9  12   7   19.23    3.97
  -9 -12  -7   15.92    4.46
  -9 -12  -7   24.78    4.94
  -9  12  -7   15.53    3.62
 -10 -12   0    0.74    0.64
 -10  12   0   -0.03    1.04
 -10  12   0    1.16    1.30
  10 -12   0    1.90    2.27
 -10  12   1    6.95    1.82
 -10 -12  -1    8.56    1.11
 -10 -12  -1    7.50    1.08
 -10  12   1    9.38    1.76
  10 -12   1    6.01    2.43
  10 -12  -1   -2.70    2.38
 -10  12  -1    6.27    1.62
 -10  12  -1    6.62    1.62
  10 -12   2   -3.50    2.35
 -10  12   2    2.39    1.89
 -10 -12  -2    0.06    0.79
 -10 -12  -2   -1.93    0.91
 -10  12   2   -0.44    1.29
 -10  12  -2    0.38    1.44
  10 -12  -2   -2.54    2.78
 -10  12  -2    1.46    1.43
 -10  12   3    9.04    2.05
 -10  12   3    8.65    3.05
 -10 -12  -3    9.23    1.55
 -10 -12  -3    7.76    1.57
 -10 -12   3   10.18    1.58
 -10  12  -3    9.40    2.24
 -10  12  -3   12.22    2.46
 -10 -12  -4    0.36    1.38
  10 -12   4   -1.82    3.66
 -10  12   4   -0.05    1.86
 -10  12   4    3.02    2.91
 -10 -12  -4   -2.84    1.39
 -10 -12   4   -0.52    1.41
 -10  12  -4    2.28    1.89
 -10  12  -4    1.64    2.41
 -10 -12  -5   -0.01    1.82
 -10  12   5    1.20    2.30
 -10  12   5   -0.14    3.32
 -10 -12  -5    6.59    3.95
 -10 -12  -5   -1.67    1.70
  10 -12   5    4.07    4.34
 -10  12  -5    0.86    2.31
 -10  12  -5    0.09    3.07
 -10 -12   5    2.53    1.99
 -10 -12  -6   -4.15    2.41
 -10 -12  -6    2.89    3.47
 -10  12   6   -5.69    4.25
 -10 -12  -6    0.95    2.20
 -10  12   6   -0.17    2.61
 -10  12  -6    2.57    4.33
 -10  12  -6    1.15    2.53
 -11 -12   0   26.65    1.62
 -11  12   0   26.28    3.06
 -11  12   0   29.58    2.80
 -11 -12  -1   30.48    2.03
 -11  12   1   25.81    3.28
 -11  12   1   29.27    2.89
 -11  12  -1   32.42    3.14
 -11  12  -1   34.91    3.34
 -11  12   2   15.88    2.38
 -11  12   2   15.54    2.79
 -11 -12  -2   16.26    1.90
 -11 -12  -2   15.61    2.07
 -11  12  -2   22.13    3.03
 -11  12  -2   19.86    2.98
 -11  12   3   35.89    3.63
 -11  12   3   35.97    4.75
 -11 -12  -3   39.15    2.96
 -11 -12  -3   38.55    3.09
 -11 -12   3   33.13    2.54
 -11  12  -3   42.40    4.02
 -11  12   4   16.47    4.33
  11 -12   4    2.00    4.58
 -11 -12  -4    4.96    1.71
 -11 -12  -4    6.74    2.00
 -11  12   4    7.16    2.42
 -11 -12   4    9.36    1.96
 -11 -12   4    8.19    1.68
 -11  12  -4    8.08    2.52
 -11  12  -4    6.43    3.06
 -11 -12  -5   38.58    3.98
 -11  12   5   38.80    4.52
 -11 -12  -5   38.15    3.75
 -11  12   5   36.02    6.08
 -11  12  -5   50.11    6.48
 -11  12  -5   37.09    4.82
 -11 -12   5   37.88    3.99
 -11 -12  -6    1.00    2.96
 -11  12   6    3.98    5.19
 -11  12   6    0.75    2.88
 -11 -12  -6   -2.09    2.24
 -11  12  -6    2.18    2.97
 -11 -12   6    4.42    2.95
 -11  12  -6    4.17    4.90
 -12 -12   0    5.27    0.85
 -12  12   0    3.50    1.67
 -12  12   0    1.47    1.88
 -12  12   1    3.97    1.60
 -12  12   1    3.65    1.60
 -12 -12  -1    6.25    1.19
 -12  12  -1    5.34    1.82
 -12  12  -1    7.92    2.05
 -12  12   2    1.05    1.97
 -12  12   2    2.97    1.71
 -12 -12  -2    1.12    1.26
 -12 -12  -2    1.39    1.09
 -12  12  -2    0.19    1.65
 -12  12  -2    3.98    2.10
 -12  12   3   -2.19    1.67
 -12 -12  -3    2.09    1.60
 -12 -12  -3    1.13    1.39
 -12  12   3    2.94    2.68
 -12  12  -3    2.50    1.97
 -12  12  -3    1.97    2.13
 -12  12   4    0.93    3.46
 -12 -12  -4    0.92    1.80
 -12 -12  -4    0.90    1.58
 -12  12   4    2.03    2.19
 -12  12  -4    2.37    2.41
 -12  12  -4    3.75    3.14
 -12 -12  -5   -1.06    1.88
 -12  12   5   -0.04    4.11
 -12 -12  -5    3.80    2.34
 -12  12   5    4.68    2.86
 -12  12  -5    4.32    3.95
 -12  12  -5    1.05    2.83
 -12  12   6    1.85    3.28
 -12 -12  -6    0.57    3.04
 -12  12   6   -0.07    5.90
 -12 -12  -6    2.72    2.64
 -12  12  -6    1.01    3.52
 -12  12  -6    1.97    5.41
 -13  12   0   45.29    4.02
 -13  12   0   37.75    3.56
 -13  12   1   11.87    2.29
 -13 -12  -1    9.88    1.71
 -13  12   1   11.93    2.60
 -13  12  -1   13.36    2.41
 -13  12  -1   12.85    2.42
 -13  12   2   36.15    4.41
 -13 -12  -2   30.94    2.70
 -13  12   2   37.35    3.54
 -13 -12  -2   34.51    2.93
 -13  12  -2   37.58    4.19
 -13  12  -2   38.59    4.09
 -13  12   3   10.20    3.35
 -13  12   3   10.89    2.40
 -13 -12  -3    9.03    2.00
 -13  12  -3    4.04    2.39
 -13  12  -3    7.60    2.68
 -13 -12  -4   26.43    3.47
 -13 -12  -4   29.24    3.73
 -13  12   4   24.94    3.69
 -13  12   4   35.22    5.59
 -13  12  -4   35.33    4.88
 -13  12  -4   20.43    3.71
 -13 -12  -5    4.46    2.45
 -13 -12  -5    0.06    2.08
 -13  12   5   -1.86    4.92
 -13  12   5   -0.64    2.79
 -13  12  -5    0.29    4.16
 -13  12  -5   -0.81    3.20
 -14  12   0    0.39    1.64
 -14  12   0   -1.67    1.71
 -14 -12  -1   -2.26    1.35
 -14  12   1   -0.68    1.57
 -14  12   1    2.04    2.13
 -14  12  -1   -0.67    1.90
 -14  12  -1    0.63    1.91
 -14 -12  -2    2.94    1.38
 -14 -12  -2    1.27    1.69
 -14  12   2    3.25    2.59
 -14  12   2    1.03    1.95
 -14  12  -2    1.93    2.36
 -14  12  -2    2.67    2.28
 -14 -12  -3   -0.53    1.87
 -14  12   3    3.46    3.19
 -14  12   3    0.54    1.91
 -14 -12  -3    0.83    1.51
 -14  12  -3   -0.71    2.34
 -14  12  -3   -1.85    2.63
 -14  12   4   -4.13    3.44
 -14  12   4    3.25    2.42
 -14 -12  -4    1.36    2.29
 -14 -12  -4   -0.42    2.01
 -14  12  -4    4.49    3.64
 -14  12  -4    6.68    3.13
 -14 -12  -5   -1.24    2.33
 -14  12   5   -1.02    2.80
 -14  12   5   -3.09    5.38
 -14 -12  -5   -0.06    2.65
 -14  12  -5    1.21    4.82
 -14  12  -5    0.31    3.54
 -15  12   0   35.26    3.78
 -15  12   0   39.88    4.74
 -15  12   1    7.34    2.71
 -15  12   1    6.27    2.18
 -15  12  -1   12.38    2.83
 -15  12  -1    6.98    2.55
 -15  12   2   24.41    3.24
 -15 -12  -2   28.92    3.35
 -15  12   2   34.73    4.46
 -15 -12  -2   31.98    3.07
 -15  12  -2   29.88    4.00
 -15  12  -2   30.75    4.08
 -15  12   3   12.16    2.67
 -15 -12  -3    7.63    2.17
 -15  12   3   10.81    3.84
 -15 -12  -3   13.74    2.70
 -15  12  -3   11.29    3.21
 -15  12  -3   10.27    3.52
 -15 -12  -4   10.69    2.71
 -15  12   4   17.06    3.14
 -15 -12  -4   13.58    3.02
 -15  12   4   21.71    5.02
 -15  12  -4   16.54    4.17
 -15  12  -4   20.76    4.55
 -16  12   0    0.85    2.08
 -16  12   0   -2.64    2.18
 -16  12   1   -0.18    2.80
 -16  12   1    4.45    2.24
 -16  12  -1    5.23    2.51
 -16  12  -1    3.12    2.52
 -16  12   2    1.58    2.05
 -16 -12  -2   -0.81    2.18
 -16  12   2    6.87    3.25
 -16 -12  -2    1.57    1.67
 -16  12  -2    3.88    2.96
 -16  12  -2    1.71    2.85
 -16  12   3    3.12    3.72
 -16 -12  -3    1.90    1.96
 -16 -12  -3    2.09    2.58
 -16  12   3    1.97    2.29
 -16  12  -3    8.90    3.69
 -16  12  -3    5.24    2.98
 -17  12   0    1.18    2.78
 -17  12   0    3.42    2.41
 -17  12   1   29.44    3.81
 -17  12   1   41.46    5.58
 -17  12  -1   27.06    4.06
 -17  12  -1   23.26    3.82
 -17 -12  -2    4.10    2.00
 -17  12   2    5.10    2.51
 -17  12   2    2.41    3.46
 -17  12  -2    3.19    3.18
 -17  12  -2    5.93    3.44
   0 -13   0   -0.06    0.70
   0  13   0   -0.71    0.67
   0  13   0    0.14    0.44
   0  13   1   34.40    2.04
   0 -13   1   35.00    2.62
   0  13   1   33.76    2.14
   0  13  -1   36.96    1.90
   0 -13  -1   36.24    2.51
   0 -13   2    0.08    0.97
   0 -13  -2    0.58    0.82
   0  13  -2   -0.67    0.44
   0  13   2   -1.24    0.91
   0  13   2    0.30    0.91
   0 -13   3   52.33    3.84
   0  13   3   51.87    3.16
   0  13   3   48.06    3.53
   0  13  -3   55.91    2.72
   0 -13  -3   54.54    3.47
   0  13  -4   -0.50    0.69
   0  13   4   -2.64    1.30
   0  13   4    0.37    1.25
   0 -13   4    1.37    1.57
   0 -13   5   48.07    4.46
   0 -13  -5   46.54    4.00
   0  13   5   34.99    3.92
   0  13  -5   38.32    3.28
   0 -13   6   -1.59    2.43
   0 -13  -6    0.90    2.52
   0  13   6   -0.23    2.53
   0  13  -6   -1.83    1.44
   0  13   6    0.90    2.17
   0 -13   7   24.12    4.73
   0  13   7   22.22    4.11
   0 -13  -7   23.23    5.15
   1 -13   0   38.45    2.69
  -1  13   0   37.31    2.10
  -1 -13   0   31.18    2.32
   1  13   0   36.55    1.82
   1  13  -1   55.35    2.49
  -1  13   1   55.03    3.08
   1 -13   1   50.57    3.47
  -1 -13  -1   59.32    3.24
  -1  13   1   54.23    2.83
  -1  13  -1   55.71    2.80
  -1  13  -1   61.00    2.90
   1 -13  -1   53.27    3.41
   1  13   1   57.57    2.74
  -1 -13   1   54.40    3.33
   1  13   1   54.40    2.80
   1 -13   2   23.44    2.41
  -1  13   2   21.21    2.29
  -1 -13  -2   25.32    2.08
   1  13  -2   23.54    1.32
  -1  13   2   24.94    1.99
   1  13   2   21.45    2.12
  -1 -13   2   21.55    2.17
  -1  13  -2   23.83    1.57
  -1  13  -2   22.73    1.93
   1 -13  -2   24.30    2.23
  -1  13   3   58.45    3.96
  -1  13   3   60.91    3.47
  -1 -13  -3   58.36    3.65
   1 -13   3   57.33    4.15
  -1  13  -3   59.73    3.04
   1  13   3   51.08    3.64
  -1 -13   3   60.36    4.03
   1 -13  -3   61.94    3.88
  -1 -13  -4   14.09    2.27
   1 -13   4    9.05    2.24
  -1  13   4    9.87    2.04
  -1  13   4   11.54    1.78
   1  13  -4   12.89    1.24
  -1  13  -4   10.15    1.28
  -1 -13   4   10.13    2.15
   1 -13  -4    5.74    2.10
   1  13   4    8.46    1.96
  -1 -13  -5   38.97    3.86
  -1  13   5   34.08    3.85
   1 -13   5   39.31    4.28
  -1  13   5   39.56    3.43
  -1 -13   5   35.63    3.97
  -1  13  -5   39.95    2.72
   1  13   5   37.59    3.88
   1 -13  -5   37.82    4.11
  -1  13   6    1.63    2.40
   1 -13   6    4.39    3.12
  -1 -13  -6    8.49    3.15
  -1  13   6    7.58    2.73
   1  13   6   -1.18    2.42
  -1 -13   6   10.94    3.05
  -1  13  -6    7.37    1.65
   1 -13  -6    6.88    3.19
   1  13   6    2.98    2.38
  -1 -13  -7   25.30    4.78
   1 -13   7   19.46    4.54
  -1  13   7   16.17    3.91
  -1 -13   7   14.95    3.78
   1 -13  -7   -0.38    4.49
  -1  13  -7   18.24    2.61
   1  13   7   13.13    3.62
  -2  13   0   46.18    2.44
  -2 -13   0   41.84    2.59
  -2  13   0   42.45    2.49
   2  13   0   44.23    2.06
   2  13   0   44.33    2.01
   2 -13   0   43.69    3.11
   2 -13   1   28.38    2.60
  -2 -13  -1   29.50    2.07
  -2  13   1   33.25    2.31
  -2  13  -1   28.41    1.86
   2  13   1   29.15    1.61
  -2  13  -1   30.51    1.97
   2 -13  -1   28.67    2.43
  -2 -13   1   30.81    2.20
  -2  13   2   28.14    2.65
   2 -13   2   34.45    2.95
  -2 -13  -2   28.23    2.17
  -2  13   2   30.70    2.28
  -2  13  -2   29.61    1.93
  -2 -13   2   29.51    2.50
   2  13   2   31.71    2.28
   2 -13  -2   29.11    2.54
  -2  13  -2   31.34    2.16
  -2  13   3   29.91    2.36
   2 -13   3   28.89    3.04
  -2  13   3   27.00    2.83
  -2 -13  -3   29.33    2.39
  -2 -13   3   25.12    2.71
   2  13   3   28.63    2.51
   2 -13  -3   27.52    2.67
  -2  13  -3   27.12    1.92
   2 -13   4   12.75    2.51
  -2 -13  -4    9.14    1.76
  -2  13   4   12.75    1.85
  -2  13   4   11.13    2.27
  -2  13  -4   11.56    2.25
   2  13   4    8.41    2.21
  -2 -13   4    8.56    2.24
   2 -13  -4    9.42    2.01
   2 -13   5    9.55    2.62
  -2 -13  -5   15.18    2.56
  -2  13   5   10.11    2.61
  -2  13   5   14.91    2.88
   2  13   5   15.10    2.58
  -2 -13   5   13.29    2.75
  -2  13  -5   15.71    2.10
   2 -13  -5   14.11    2.80
  -2 -13  -6    3.13    2.71
  -2  13   6   -0.33    2.33
  -2  13   6   -0.13    2.31
   2 -13   6    3.73    3.07
   2 -13  -6    4.78    3.28
  -2 -13   6    4.22    2.51
  -2  13  -6    1.64    1.54
   2  13   6    5.11    2.51
  -2  13   7    2.54    3.30
  -2  13   7   -1.98    3.04
  -2 -13  -7    0.48    4.07
   2 -13   7    4.39    3.68
  -2  13  -7    3.09    2.08
   2  13   7    1.94    2.98
  -2 -13   7    1.55    3.24
   2 -13  -7    0.76    4.60
  -3 -13   0  179.61    7.87
   3 -13   0  183.30    8.71
  -3  13   0  171.62    7.97
  -3  13   0  191.53    7.84
   3 -13   1    9.68    1.78
  -3 -13  -1    9.18    1.19
  -3  13   1   11.16    1.63
  -3  13   1    8.96    1.18
  -3  13  -1   10.26    1.26
  -3 -13   1    9.89    1.32
  -3  13  -1   11.51    1.40
   3  13   1   10.71    0.95
   3 -13  -1   11.69    1.83
   3  13   1    9.32    0.83
  -3  13   2  141.09    6.38
   3 -13   2  136.88    7.16
  -3 -13  -2  137.84    6.31
  -3  13   2  122.76    6.93
  -3 -13   2  132.70    6.37
  -3  13  -2  125.62    6.01
   3 -13  -2  132.11    6.76
   3  13   2  138.36    5.92
  -3  13  -2  133.37    6.02
  -3  13   3    5.44    1.62
  -3 -13  -3    5.31    1.19
   3 -13   3    3.39    1.64
  -3  13   3    4.28    1.29
  -3  13  -3    2.76    0.87
  -3  13  -3   -0.68    1.23
  -3 -13   3    4.65    1.55
   3 -13  -3    4.33    1.56
   3  13   3    4.82    1.30
  -3  13   4   54.58    3.52
  -3  13   4   49.99    4.27
  -3 -13  -4   44.55    3.57
   3 -13   4   57.89    4.58
  -3  13  -4   44.27    3.07
   3 -13  -4   52.49    4.02
  -3 -13   4   55.80    4.04
  -3  13   5    3.80    2.06
  -3  13   5    2.89    1.87
  -3 -13  -5   -1.63    1.50
   3 -13   5    5.54    2.51
   3  13   5    3.96    1.90
  -3 -13   5    4.02    2.06
  -3  13  -5    3.15    1.33
   3 -13  -5    4.09    2.39
  -3  13   6   10.71    2.78
  -3  13   6   15.55    3.20
  -3 -13  -6   15.80    3.24
   3 -13   6   17.58    3.92
  -3 -13   6   11.07    3.01
  -3  13  -6   14.50    2.21
   3  13   6   12.91    2.90
  -3 -13  -7    0.24    3.85
   3 -13   7    3.32    3.60
  -3  13   7    0.58    3.05
  -3  13   7   -0.48    3.03
   3  13   7   -0.71    2.95
  -3 -13   7    3.29    3.14
  -3  13  -7   -1.34    1.90
  -4  13   0  128.61    5.74
   4 -13   0  129.95    6.66
  -4  13   0  125.67    5.95
  -4 -13   0  121.27    5.58
  -4  13   1    1.54    1.04
  -4 -13  -1    2.47    0.74
   4 -13   1    1.88    1.28
  -4  13   1    1.73    0.81
  -4 -13   1    1.41    0.70
  -4  13  -1    1.06    0.62
  -4  13  -1    2.65    0.90
   4 -13  -1    2.27    1.22
  -4  13   2   69.93    4.68
  -4  13   2   77.14    4.10
   4 -13   2   74.23    4.81
  -4 -13  -2   72.66    3.83
   4 -13  -2   70.71    4.55
  -4  13  -2   72.26    3.80
  -4 -13   2   73.54    3.95
  -4  13  -2   72.01    3.80
  -4 -13  -3    3.14    1.24
  -4  13   3    7.00    3.11
  -4 -13  -3    2.78    1.02
   4 -13   3    3.67    1.59
  -4  13   3    2.76    1.23
  -4  13  -3    3.92    0.95
  -4  13  -3    1.72    1.21
   4  13   3    2.92    1.13
   4 -13  -3    2.03    1.53
  -4 -13   3    4.82    1.46
  -4 -13  -4   18.17    2.36
  -4  13   4   21.43    3.08
  -4 -13  -4   18.92    2.15
  -4  13   4   22.00    2.43
  -4 -13  -4   18.07    2.37
   4 -13   4   26.07    3.47
   4 -13  -4   18.19    2.86
  -4  13  -4   16.71    2.07
  -4 -13   4   20.30    2.73
   4 -13   5    1.57    2.43
  -4 -13  -5   -1.38    1.61
  -4 -13  -5   -0.02    1.50
  -4  13   5    0.96    1.99
  -4  13   5    3.37    1.87
  -4  13  -5    1.69    1.33
  -4 -13   5    4.23    1.99
   4 -13  -5    5.75    2.81
  -4  13  -5    0.14    3.01
   4  13   5    1.72    1.71
  -4  13   6    2.65    2.54
  -4  13   6    3.51    2.82
   4 -13   6    4.40    3.34
  -4 -13  -6    2.61    2.39
  -4 -13   6    6.78    2.66
  -4  13  -6    0.63    1.67
   4  13   6    7.34    2.45
   4 -13  -6   -0.52    3.87
  -4  13   7   -1.28    3.28
   4 -13   7    4.01    3.99
  -4 -13  -7   -1.01    3.83
  -4  13   7   -0.94    3.08
  -4 -13   7    4.72    3.03
  -4  13  -7    0.97    2.21
   4  13   7   -5.55    2.70
   5 -13   0   68.52    4.48
  -5  13   0   68.19    3.58
  -5  13   0   69.16    3.81
  -5 -13   0   69.66    3.29
  -5 -13  -1   70.60    3.46
  -5  13   1   67.93    3.71
  -5  13   1   72.05    4.20
   5 -13   1   70.55    4.68
  -5 -13   1   73.83    3.55
   5 -13  -1   75.80    4.74
  -5  13  -1   75.73    3.89
  -5  13  -1   73.30    3.97
  -5  13   2   40.43    3.67
  -5  13   2   50.26    3.12
  -5 -13  -2   48.50    2.75
   5 -13   2   47.18    3.82
  -5 -13  -2   44.12    2.68
  -5  13  -2   50.62    3.07
  -5  13  -2   49.73    3.11
  -5 -13   2   50.77    3.02
   5 -13  -2   49.48    3.84
  -5 -13  -3   42.88    3.29
  -5  13   3   45.22    3.12
  -5 -13  -3   34.92    3.64
  -5  13   3   37.20    4.35
  -5 -13  -3   43.78    2.80
   5 -13   3   42.66    3.80
  -5  13  -3   47.20    3.16
   5 -13  -3   45.67    3.78
  -5 -13   3   41.34    3.14
  -5  13   4   14.66    2.89
  -5 -13  -4   17.91    2.31
  -5 -13  -4   16.61    2.15
  -5  13   4   17.94    2.75
   5 -13   4   21.43    3.54
  -5 -13  -4   20.04    2.51
  -5  13  -4   16.28    2.13
  -5 -13   4   17.10    2.45
   5 -13  -4   17.88    2.94
   5  13   4   19.93    2.45
   5 -13   5   19.01    3.81
  -5 -13  -5   24.47    2.75
  -5 -13  -5   20.05    2.82
  -5  13   5   19.79    2.88
  -5 -13  -5   22.32    3.02
  -5  13   5   13.72    3.19
   5  13   5   24.16    3.26
  -5  13  -5   22.62    2.79
  -5 -13   5   28.81    3.63
  -5 -13  -6    9.68    2.37
  -5 -13  -6    5.28    2.58
  -5 -13  -6    5.96    2.78
   5 -13   6    0.50    3.37
  -5  13   6    7.10    3.17
  -5  13   6    6.15    2.69
  -5 -13   6    4.90    2.53
  -5  13  -6    6.13    2.04
   5  13   6    5.94    2.55
  -5  13   7    2.56    3.80
   5 -13   7   11.66    4.56
  -5 -13  -7   12.15    4.18
  -5  13   7   12.77    3.50
  -5 -13   7    1.33    2.86
  -5  13  -7    7.67    2.58
   5  13   7    8.03    3.47
  -6  13   0    0.96    0.84
   6 -13   0   -0.99    1.20
  -6 -13   0    0.78    0.52
  -6  13   0    0.76    0.80
   6 -13   1   26.91    3.07
  -6  13   1   23.93    2.49
  -6 -13  -1   29.31    1.83
  -6  13   1   30.45    2.21
  -6  13  -1   27.31    2.16
   6 -13  -1   26.92    3.00
  -6  13  -1   29.44    2.27
  -6 -13   1   25.03    1.58
  -6  13   2    0.74    1.46
   6 -13   2    2.88    1.62
  -6 -13  -2    2.90    0.86
  -6  13   2    2.47    1.14
  -6 -13  -2    1.49    0.79
  -6  13  -2    3.36    1.18
  -6  13  -2    2.31    0.89
  -6 -13   2    3.24    0.93
   6 -13  -2    1.81    1.65
   6 -13   3   37.28    3.78
  -6  13   3   29.47    3.83
  -6  13   3   39.43    3.06
  -6 -13  -3   36.70    2.74
  -6 -13  -3   36.78    3.25
  -6 -13   3   32.91    2.72
  -6  13  -3   35.81    2.75
   6 -13  -3   36.81    3.74
   6 -13   4    6.49    2.62
  -6 -13  -4    4.63    1.42
  -6  13   4    7.38    2.50
  -6 -13  -4    7.21    1.56
  -6 -13  -4    6.13    1.97
  -6  13   4    4.30    1.75
   6  13   4    4.86    1.46
  -6  13  -4    6.77    1.90
  -6 -13   4    4.19    1.64
   6 -13  -4    3.96    2.44
  -6  13  -4    6.26    1.57
  -6 -13  -5   26.36    3.33
  -6  13   5   26.44    3.47
   6 -13   5   24.63    4.26
  -6 -13  -5   29.29    2.97
  -6  13   5   19.87    3.64
  -6 -13  -5   26.35    3.45
  -6 -13   5   26.99    3.62
  -6  13  -5   24.80    3.10
   6  13   5   26.46    3.07
  -6 -13  -6    3.72    2.69
  -6 -13  -6    2.87    2.08
  -6  13   6    2.94    2.63
   6 -13   6    1.44    3.47
  -6 -13  -6    5.48    2.79
  -6  13   6    3.87    3.19
  -6 -13   6    6.06    2.51
   6  13   6    1.72    2.56
  -6  13  -6    1.47    1.88
  -6  13   7    8.52    3.48
  -6  13   7    6.68    4.01
  -6 -13  -7   14.22    4.40
   6 -13   7   14.20    5.21
  -6  13  -7   11.58    2.85
  -6 -13   7   10.10    3.51
   6  13   7   15.65    4.06
  -7  13   0   12.35    1.59
  -7 -13   0   10.93    0.98
  -7  13   0   11.55    1.72
   7 -13   0   12.88    2.57
  -7  13   1   51.94    3.66
  -7 -13  -1   55.60    2.75
   7 -13   1   55.45    4.28
  -7  13   1   49.85    3.22
  -7  13  -1   58.03    3.56
   7 -13  -1   55.98    4.22
  -7 -13   1   52.13    2.56
  -7  13  -1   59.19    3.38
  -7 -13  -2    7.75    1.21
   7 -13   2    6.76    2.20
  -7  13   2    8.85    1.69
  -7 -13  -2    8.33    1.24
   7 -13  -2    7.64    2.22
  -7  13  -2    5.69    1.43
  -7  13  -2    7.03    1.49
  -7 -13   2    7.87    1.18
  -7  13   3   58.16    5.14
  -7 -13  -3   72.53    4.34
   7 -13   3   48.29    5.18
  -7  13   3   50.71    4.20
  -7 -13  -3   61.40    3.54
  -7 -13  -3   60.87    3.58
  -7  13  -3   64.32    3.99
  -7 -13   3   54.55    3.61
  -7  13  -3   65.63    4.05
   7 -13  -3   62.63    5.00
  -7 -13  -4    0.26    2.03
   7 -13   4    0.46    2.39
  -7 -13  -4    0.92    1.38
  -7  13   4    1.12    1.59
  -7 -13  -4   -0.49    1.19
  -7  13   4    2.47    2.43
   7  13   4   -0.38    1.24
   7 -13  -4    1.86    2.71
  -7 -13   4    1.02    1.42
  -7  13  -4   -0.09    1.17
  -7  13   5   42.36    4.01
   7 -13   5   43.76    5.56
  -7  13   5   32.15    4.61
  -7 -13  -5   44.06    3.80
  -7 -13  -5   40.20    3.49
  -7 -13  -5   45.51    4.67
   7  13   5   36.11    3.83
  -7 -13   5   32.52    3.83
  -7  13  -5   40.11    3.76
  -7 -13  -6   -0.41    2.91
  -7 -13  -6    3.67    2.57
  -7  13   6   -0.18    2.36
  -7  13   6   -2.19    3.19
  -7 -13  -6   -3.24    1.94
   7 -13   6   -4.72    3.84
  -7 -13   6    1.50    2.38
  -7  13  -6    1.03    2.06
  -7  13  -6    4.25    5.06
   7  13   6    5.24    3.03
  -7 -13  -7   24.24    3.68
  -7 -13  -7   26.83    5.12
  -7 -13  -7   23.03    4.38
   7 -13   7   25.92    6.37
  -7  13   7   14.57    4.90
  -7  13   7   21.82    4.04
  -7  13  -7   17.37    3.49
  -7 -13   7   20.06    3.88
   7  13   7   26.53    4.89
  -8  13   0    9.05    1.45
   8 -13   0    8.36    2.18
  -8 -13   0    8.85    0.89
  -8 -13  -1   11.96    1.18
  -8 -13  -1   13.41    1.34
  -8  13   1   12.36    1.77
   8 -13   1   10.69    2.40
   8 -13  -1   13.45    2.61
  -8  13  -1    9.70    1.87
  -8 -13   1   10.94    0.84
  -8  13  -1   15.60    1.96
   8 -13   2    2.57    2.09
  -8  13   2    7.71    2.08
  -8 -13  -2    4.30    1.10
  -8 -13  -2    6.00    1.13
  -8 -13   2    4.15    0.95
  -8  13  -2    3.71    1.30
  -8  13  -2    6.41    1.38
   8 -13  -2    3.05    2.13
  -8 -13  -3   18.66    2.07
  -8 -13  -3   21.44    2.15
  -8  13   3   19.73    2.52
  -8  13   3   20.23    3.65
   8 -13   4    1.88    2.87
  -8  13   4   -0.21    1.61
  -8 -13  -4    1.57    1.33
  -8 -13  -4   -0.45    2.07
  -8 -13  -4    0.04    1.20
  -8  13   4   -2.18    2.43
  -8  13  -4   -0.92    2.03
  -8 -13   4    2.80    1.51
  -8  13  -4   -1.69    1.35
   8 -13  -4   -1.60    3.14
  -8  13   5   16.41    3.95
   8 -13   5   19.80    4.66
  -8 -13  -5   13.31    2.45
  -8 -13  -5   22.41    3.64
  -8 -13  -5   21.49    2.89
  -8  13   5   15.04    2.99
  -8 -13   5   15.05    2.67
  -8  13  -5   11.24    2.49
  -8 -13  -6   -0.73    2.53
  -8  13   6    3.67    3.64
  -8 -13  -6    0.76    3.12
   8 -13   6    5.57    4.96
  -8  13   6    2.42    2.62
  -8 -13  -6    1.64    2.19
  -8  13  -6   -1.22    2.09
  -8  13  -6    3.91    3.83
   8  13   6   -0.35    3.06
  -8 -13   6   -3.01    2.11
  -8 -13  -7   13.47    4.41
   8 -13   7    0.45    6.23
  -8 -13  -7    9.96    4.41
  -8 -13  -7    7.90    3.04
  -8  13   7   12.27    3.80
  -8  13   7    2.28    5.03
  -8  13  -7   10.53    3.32
  -9 -13   0   63.17    2.88
  -9  13   0   66.79    5.26
  -9  13   0   61.39    4.19
   9 -13   0   63.88    5.03
  -9  13   1   13.58    2.36
  -9 -13  -1   10.11    1.30
  -9  13   1    6.07    2.17
  -9 -13  -1    7.95    1.12
   9 -13  -1    4.83    2.35
  -9  13  -1    9.23    1.80
  -9  13   2   46.35    3.53
  -9 -13  -2   49.19    2.86
  -9  13   2   51.73    4.32
  -9 -13  -2   45.49    2.87
  -9  13  -2   42.91    3.89
  -9  13  -2   58.01    3.87
  -9 -13   2   43.61    2.43
  -9  13   3    7.09    2.74
  -9 -13  -3   11.68    1.75
  -9  13   3   12.99    2.28
  -9 -13  -3   10.03    1.66
  -9 -13   3    9.38    1.59
  -9  13  -3   11.13    2.28
  -9  13  -3   14.20    2.42
   9 -13   4   28.02    4.71
  -9  13   4   19.51    4.09
  -9  13   4   26.11    3.47
  -9 -13  -4   27.63    2.82
  -9 -13  -4   24.51    2.77
  -9  13  -4   26.59    3.56
  -9 -13   4   23.20    2.65
  -9  13  -4   27.03    3.33
  -9 -13  -5    5.06    2.15
  -9 -13  -5    2.94    3.05
  -9 -13  -5    2.76    1.94
  -9  13   5    6.16    2.60
   9 -13   5    8.62    4.58
  -9  13   5   10.92    3.57
  -9  13  -5    3.98    2.41
  -9 -13   5    6.35    2.22
  -9  13  -5    5.20    3.11
  -9 -13  -6   18.39    4.18
  -9 -13  -6   18.44    3.11
  -9  13   6   15.88    3.42
  -9  13   6   15.69    5.06
  -9 -13  -6   14.36    3.39
  -9  13  -6   -1.01    4.11
  -9 -13   6   18.25    3.25
  -9  13  -6   10.74    3.00
 -10 -13   0   37.46    1.94
 -10  13   0   40.95    3.11
 -10  13   0   35.84    3.33
 -10  13   1    6.18    1.64
 -10  13   1    9.35    2.09
  10 -13   1    7.06    2.67
 -10 -13  -1    8.15    1.14
 -10 -13  -1    6.58    1.22
 -10  13  -1    5.95    1.61
  10 -13  -1   -2.27    2.51
 -10  13  -1    6.71    1.72
 -10 -13  -2   23.83    2.53
  10 -13   2   22.19    3.77
 -10  13   2   33.58    3.69
 -10  13   2   26.39    2.91
 -10 -13  -2   26.06    2.14
 -10  13  -2   29.13    3.16
 -10  13  -2   30.07    3.17
 -10 -13  -3    3.96    1.36
 -10 -13  -3    4.90    1.50
 -10  13   3    2.39    1.85
 -10  13   3    5.88    2.90
 -10  13  -3    4.79    1.79
 -10 -13   3    5.62    1.34
 -10  13  -3    9.43    2.39
 -10  13   4    9.60    2.52
 -10 -13  -4   10.15    2.13
  10 -13   4   -0.04    3.92
 -10 -13  -4    9.06    1.95
 -10  13   4   10.73    3.42
 -10 -13   4   11.21    2.03
 -10  13  -4    7.14    2.24
 -10  13  -4   11.29    3.01
 -10 -13  -5   -0.53    1.69
 -10  13   5   -2.21    2.23
 -10  13   5   -0.36    3.44
 -10 -13  -5    1.01    1.98
  10 -13   5    0.29    4.78
 -10  13  -5    2.26    2.32
 -10 -13   5    0.95    1.99
 -10  13  -5    2.24    3.43
 -10 -13  -6   -1.24    2.25
 -10  13   6    2.13    5.18
 -10  13   6    4.52    3.13
 -10 -13  -6    1.65    2.70
 -10  13  -6    1.98    2.69
 -10  13  -6    4.43    4.54
 -11 -13   0   76.17    4.07
 -11  13   0   80.26    4.86
 -11  13   0   83.97    5.24
  11 -13   1   -2.77    2.84
 -11  13   1    3.29    1.68
 -11 -13  -1    0.66    0.88
 -11 -13  -1    3.01    0.97
 -11  13   1    4.38    1.54
 -11  13  -1    2.64    1.46
 -11  13  -1    2.16    1.72
 -11 -13  -2   51.00    3.26
 -11  13   2   58.00    4.06
 -11  13   2   51.88    4.77
 -11 -13  -2   55.47    3.35
 -11  13  -2   66.39    4.69
 -11  13  -2   59.21    4.59
 -11 -13  -3    5.72    1.55
 -11 -13  -3    7.78    1.78
 -11  13   3    1.25    2.52
 -11  13   3    3.38    2.05
 -11  13  -3    5.10    2.10
 -11  13  -3    7.23    2.53
 -11 -13   3    7.43    1.47
 -11 -13  -4   29.79    3.08
 -11  13   4   19.49    4.36
 -11 -13  -4   19.43    2.59
 -11  13   4   27.57    3.77
  11 -13   4    1.55    5.28
 -11 -13   4   23.45    2.63
 -11  13  -4   17.18    3.28
 -11  13  -4   26.84    3.94
 -11 -13  -5    2.25    2.17
 -11 -13  -5    6.15    2.24
 -11  13   5    0.39    4.12
 -11  13   5    4.71    2.85
 -11  13  -5    9.09    4.05
 -11 -13   5    3.80    2.49
 -11  13  -5    4.56    2.72
 -11 -13  -6    4.41    2.79
 -11  13   6    3.81    5.64
 -11  13   6    9.65    3.53
 -11 -13  -6   11.80    3.46
 -11 -13   6    6.95    3.21
 -11  13  -6    0.30    5.14
 -11  13  -6    7.05    3.17
 -12  13   0   15.40    2.47
 -12  13   0   15.07    2.42
 -12 -13  -1    7.90    1.48
 -12  13   1    8.12    2.23
 -12  13   1    5.53    1.88
 -12 -13  -1    5.97    1.16
 -12  13  -1    7.33    2.10
 -12  13  -1    9.36    2.29
 -12 -13  -2    7.25    1.47
 -12  13   2   11.63    2.24
 -12 -13  -2   10.78    1.77
 -12  13   2   12.34    2.89
 -12  13  -2    9.27    2.43
 -12  13  -2   15.70    2.86
 -12 -13  -3    9.05    1.90
 -12  13   3    9.52    2.33
 -12 -13  -3    8.24    1.81
 -12  13   3    8.03    2.87
 -12  13  -3    8.42    2.77
 -12  13  -3    7.50    2.48
 -12 -13  -4    4.09    1.88
 -12  13   4    5.78    2.49
 -12  13   4    6.55    3.91
 -12 -13  -4    3.74    2.12
 -12  13  -4    1.11    3.12
 -12  13  -4    7.01    2.70
 -12 -13  -5    8.79    2.57
 -12 -13  -5    6.75    2.51
 -12  13   5    4.60    3.02
 -12  13   5    2.80    5.09
 -12  13  -5    3.91    3.18
 -12  13  -5    8.24    4.44
 -13  13   0   -0.50    1.80
 -13  13   0    0.46    1.61
 -13  13   1   44.28    3.81
 -13 -13  -1   41.89    2.76
 -13  13   1   48.54    4.35
 -13 -13  -1   41.90    2.77
 -13  13  -1   51.03    4.35
 -13  13  -1   45.31    4.29
 -13  13   2   -0.84    1.69
 -13  13   2   -0.15    2.16
 -13 -13  -2    0.20    1.50
 -13 -13  -2    2.32    1.32
 -13  13  -2    1.13    2.25
 -13  13  -2   -1.49    1.94
 -13 -13  -3   26.38    3.03
 -13 -13  -3   28.94    3.26
 -13  13   3   25.70    3.42
 -13  13   3   31.28    4.79
 -13  13  -3   27.91    3.90
 -13  13  -3   35.88    4.45
 -13  13   4   -0.82    2.32
 -13  13   4    3.54    3.69
 -13 -13  -4    5.30    2.02
 -13 -13  -4    0.21    2.13
 -13  13  -4    1.95    2.41
 -13  13  -4    1.90    3.32
 -13  13   5   15.93    3.66
 -13  13   5   26.65    6.09
 -13 -13  -5   16.55    3.11
 -13 -13  -5   13.74    3.05
 -13  13  -5   16.52    4.04
 -13  13  -5   27.22    5.66
 -14  13   0    9.17    2.60
 -14  13   0    8.05    2.29
 -14  13   1    6.80    2.52
 -14 -13  -1    7.75    1.48
 -14  13   1    5.30    2.10
 -14  13  -1    8.03    2.48
 -14  13  -1    8.08    2.47
 -14  13   2    9.39    3.02
 -14  13   2    3.67    2.07
 -14 -13  -2    4.63    1.84
 -14 -13  -2    4.06    1.59
 -14  13  -2    3.33    2.68
 -14  13  -2    5.29    2.36
 -14  13   3   12.46    3.55
 -14 -13  -3   10.36    2.14
 -14  13   3    9.72    2.64
 -14 -13  -3   10.20    2.39
 -14  13  -3    8.50    2.90
 -14  13  -3    9.18    3.23
 -14  13   4    4.61    2.70
 -14 -13  -4    2.22    2.07
 -14 -13  -4    2.76    2.50
 -14  13   4    1.63    3.55
 -14  13  -4    2.88    3.14
 -14  13  -4   -5.29    3.58
 -15  13   0   11.74    2.65
 -15  13   0   17.40    3.32
 -15  13   1    4.37    2.39
 -15 -13  -1    8.11    1.63
 -15  13   1    6.69    2.88
 -15  13  -1   10.60    2.86
 -15  13  -1    9.32    2.84
 -15  13   2   10.74    3.42
 -15 -13  -2    8.60    1.92
 -15 -13  -2   13.55    2.25
 -15  13   2   11.85    2.68
 -15  13  -2    9.18    3.24
 -15  13  -2    5.60    2.79
 -15 -13  -3   13.35    2.36
 -15  13   3    7.83    3.75
 -15 -13  -3    9.24    2.57
 -15  13   3    9.56    2.71
 -15  13  -3   10.60    3.56
 -15  13  -3    8.89    3.09
 -15 -13  -4    9.58    2.58
 -15  13   4    4.54    3.91
 -15 -13  -4    6.54    2.87
 -15  13   4    7.43    2.90
 -15  13  -4    2.81    3.04
 -15  13  -4    9.50    4.56
 -16  13   0    4.59    2.67
 -16  13   0    6.77    2.48
 -16 -13  -1    0.44    1.51
 -16  13   1    3.06    2.78
 -16  13   1   -0.84    2.11
 -16  13  -1    2.20    2.56
 -16  13  -1   -4.09    2.58
 -16 -13  -2    4.00    1.90
 -16  13   2    5.54    3.19
 -16  13   2    5.36    2.49
 -16  13  -2    8.33    3.36
 -16  13  -2    7.50    2.99
 -16  13   3    8.70    2.81
 -16 -13  -3    0.20    2.10
 -16 -13  -3    0.06    2.59
 -16  13   3    1.93    3.57
 -16  13  -3   -1.86    3.04
 -16  13  -3   -1.32    3.40
 -17  13   0   14.36    3.36
 -17 -13   0   20.39    2.14
 -17  13   0   20.14    3.93
 -17  13   1    2.16    2.61
 -17 -13  -1    1.35    1.73
 -17  13   1   -1.54    2.89
 -17  13  -1   -1.06    2.91
 -17  13  -1   -0.11    2.98
   0 -14   0  202.67    9.22
   0  14   0  202.80    8.47
   0  14   1   -0.64    0.76
   0 -14   1    0.29    0.98
   0 -14  -1   -0.40    0.79
   0  14  -1    0.55    0.47
   0  14   1   -0.17    0.56
   0 -14   2  144.11    7.52
   0  14  -2  150.40    6.40
   0 -14  -2  153.96    7.33
   0  14   2  153.76    7.21
   0 -14  -3   -1.27    0.93
   0  14   3    0.00    1.18
   0 -14   3    0.60    1.85
   0  14   3    0.24    1.19
   0  14  -3   -0.89    0.58
   0  14   4   66.76    4.77
   0 -14   4   72.74    5.33
   0 -14  -4   70.05    4.75
   0 -14  -5    0.85    1.88
   0  14   5   -1.12    1.80
   0  14   5   -0.42    1.88
   0 -14   5    0.03    1.96
   0  14  -5   -2.75    1.05
   0 -14  -6   19.17    3.92
   0 -14   6   28.90    4.58
   0  14   6   26.84    3.84
   0  14   7   -2.43    2.94
   0 -14  -7    2.27    4.28
   0 -14   7   -2.52    3.38
  -1 -14   0   11.98    1.54
   1 -14   0   10.24    1.70
   1  14   0   11.91    0.93
  -1  14   0   10.30    1.13
   1 -14   1   15.03    2.08
  -1  14   1   13.06    1.41
  -1  14   1   12.78    1.41
   1  14  -1   11.75    0.89
  -1 -14  -1   12.04    1.54
  -1 -14   1   12.68    1.73
   1 -14  -1   10.06    1.68
  -1  14  -1   10.80    1.12
   1  14   1   12.12    1.12
  -1  14   2   25.25    2.07
   1  14  -2   22.11    1.27
   1 -14   2   24.41    2.60
  -1 -14  -2   23.69    2.12
  -1  14   2   20.05    2.27
  -1 -14   2   20.18    2.23
   1  14   2   22.58    2.01
  -1  14  -2   20.89    1.51
   1 -14  -2   22.11    2.31
  -1  14   3    9.02    1.84
   1  14  -3    7.24    0.92
  -1  14   3    8.99    1.54
  -1 -14  -3    7.73    1.78
  -1  14  -3    7.13    1.09
   1  14   3    8.39    1.69
   1 -14  -3    7.36    1.62
  -1 -14   3   11.56    2.39
  -1  14   4   35.86    3.02
  -1 -14  -4   35.04    3.30
  -1  14   4   36.80    3.68
   1 -14   4   38.82    4.01
   1  14   4   39.02    3.47
  -1 -14   4   37.03    3.84
  -1  14  -4   36.88    2.34
   1 -14  -4   34.53    3.55
   1 -14   5    3.99    2.29
  -1 -14  -5    2.91    2.16
  -1  14   5    1.76    2.03
  -1  14   5    3.17    2.18
  -1 -14   5   -0.65    2.14
   1  14   5    1.10    1.98
   1  14   5    0.76    2.07
  -1  14  -5    3.58    1.27
   1 -14  -5    4.96    2.27
  -1  14   6   21.17    3.77
   1 -14   6   18.54    4.07
  -1 -14  -6   20.92    3.55
   1 -14  -6   21.21    3.99
  -1  14  -6   23.56    2.77
  -1 -14   6   20.59    4.12
   1  14   6   23.83    3.66
  -1  14   7   -4.25    3.40
  -1  14   7   -2.04    2.98
   1 -14   7   -1.86    3.40
  -1 -14  -7    3.71    4.02
  -1 -14   7   -1.84    3.08
   1 -14  -7    0.18    4.73
  -1  14  -7   -4.31    2.02
   1  14   7    0.74    3.27
   2 -14   0   18.85    2.22
  -2  14   0   21.75    1.65
  -2 -14   0   20.73    1.84
  -2  14   0   23.32    1.73
  -2 -14  -1   59.36    3.47
  -2  14   1   62.12    3.48
   2 -14   1   64.08    4.10
  -2  14   1   65.94    3.27
  -2 -14   1   65.71    3.66
   2  14   1   63.09    2.88
  -2  14  -1   61.45    3.18
  -2  14  -1   62.37    3.26
   2 -14  -1   61.00    3.90
  -2  14   2   17.18    2.29
  -2 -14  -2   21.68    1.96
   2 -14   2   20.90    2.61
  -2  14   2   19.34    2.00
  -2 -14   2   20.47    2.21
  -2  14  -2   20.91    1.58
   2  14   2   17.84    1.66
   2 -14  -2   18.37    2.25
  -2  14   3   48.13    3.23
  -2  14  -3   44.66    2.63
  -2 -14   3   43.42    3.95
   2  14   3   45.03    3.27
   2 -14  -3   44.61    3.45
  -2 -14  -4   20.49    2.67
  -2  14   4   15.99    2.77
  -2  14   4   18.38    2.31
   2 -14   4   18.65    3.20
   2 -14  -4   17.31    2.73
   2  14   4   15.18    2.38
  -2  14  -4   17.69    1.90
  -2 -14   4   13.04    2.61
   2 -14   5   27.31    3.99
  -2  14   5   19.95    3.21
  -2 -14  -5   20.68    3.07
  -2  14   5   26.02    3.18
  -2  14  -5   20.97    2.41
   2  14   5   24.61    3.20
   2 -14  -5   21.62    3.46
  -2 -14   5   25.42    3.53
  -2  14   6   10.91    3.30
   2 -14   6    7.78    3.65
  -2 -14  -6    9.29    3.39
  -2 -14   6    4.21    2.87
  -2  14  -6   12.92    2.06
   2  14   6    7.42    2.87
   2 -14  -6    9.67    3.81
  -2  14   7    1.77    3.65
  -2  14   7    6.98    3.54
  -2 -14  -7    5.77    3.86
   2 -14   7    6.07    4.09
  -2  14  -7    7.55    2.47
  -2 -14   7    9.83    3.63
   2 -14  -7   -6.81    4.90
   2  14   7   10.70    3.63
  -3  14   0   -0.14    0.61
  -3  14   0   -0.43    0.70
  -3 -14   0   -0.47    0.68
   3 -14   0   -0.29    1.14
  -3  14   1   44.03    2.81
  -3 -14  -1   39.48    2.53
   3 -14   1   40.30    3.26
   3 -14  -1   41.97    3.27
  -3 -14   1   43.45    2.72
  -3  14  -1   38.65    2.47
  -3  14  -1   47.35    2.57
  -3  14   2   -0.54    0.95
  -3 -14  -2    1.11    0.84
  -3  14   2   -0.08    1.09
   3 -14   2    0.84    1.26
   3  14   2    2.37    0.70
  -3  14  -2    2.33    0.77
   3 -14  -2    1.61    1.24
  -3  14  -2    0.66    1.11
  -3 -14   2    0.61    1.04
  -3 -14  -3   21.19    2.45
  -3  14   3   28.78    2.45
  -3  14   3   22.86    3.39
   3 -14  -3   25.17    2.81
  -3 -14   3   23.85    3.26
   3  14   3   24.48    2.41
  -3  14  -3   24.17    1.94
  -3 -14  -4    0.11    1.28
   3 -14   4    1.03    1.99
  -3  14   4   -0.15    1.65
  -3  14   4   -1.17    1.91
   3  14   4    1.41    1.50
   3 -14  -4    1.02    1.86
  -3  14  -4    0.49    1.01
  -3 -14   4    0.50    1.66
   3 -14   5    8.80    3.12
  -3 -14  -5    4.17    1.99
  -3  14   5    1.79    2.22
  -3  14   5    5.03    2.15
   3  14   5    8.00    2.28
   3 -14  -5    4.85    2.89
  -3 -14   5    7.98    2.40
  -3  14  -5    3.46    1.31
  -3  14   6    1.11    2.69
  -3 -14  -6   -0.93    2.52
   3 -14   6    2.63    3.35
  -3  14   6    4.01    2.85
  -3 -14   6    0.78    2.57
   3 -14  -6    1.64    3.76
  -3  14  -6    4.85    1.72
   3  14   6    5.78    2.57
  -3  14   7    5.52    3.79
  -3  14   7    5.15    3.79
   3 -14   7    6.13    4.16
  -3 -14  -7    4.56    4.48
   3  14   7    4.26    3.27
  -3  14  -7    2.55    2.33
  -3 -14   7    3.38    3.41
  -4 -14   0    4.99    0.90
  -4  14   0    5.25    1.11
  -4  14   0    2.97    0.94
   4 -14   0    2.57    1.32
  -4  14   1   60.43    3.23
   4 -14   1   54.78    4.10
  -4  14   1   58.42    3.55
  -4 -14  -1   59.95    3.18
  -4  14  -1   64.53    3.47
  -4 -14   1   62.49    3.37
   4 -14  -1   63.15    4.24
  -4  14  -1   63.22    3.40
   4 -14   2    1.99    1.43
  -4  14   2    3.26    1.23
  -4 -14  -2    4.17    0.94
  -4  14   2    4.15    1.55
  -4  14  -2    6.17    1.26
  -4  14  -2    2.36    0.88
   4 -14  -2    3.47    1.51
  -4 -14   2    5.15    1.23
   4  14   2    3.37    0.53
   4 -14   3   51.19    5.21
  -4 -14  -3   56.84    3.53
  -4  14   3   48.28    4.35
  -4  14   3   58.89    3.65
  -4  14  -3   48.97    3.62
   4  14   3   55.77    3.29
   4 -14  -3   63.73    4.38
   4 -14   4    0.71    2.05
  -4  14   4    3.83    2.20
  -4 -14  -4   -0.12    1.33
  -4  14  -4    0.71    1.76
  -4  14  -4    1.57    1.12
  -4 -14   4    3.18    1.78
   4  14   4   -0.23    1.45
   4 -14   5   46.09    5.32
  -4  14   5   46.62    5.05
  -4  14   5   44.54    4.01
  -4 -14  -5   46.11    4.15
  -4  14  -5   43.61    3.37
  -4 -14   5   42.73    4.34
   4  14   5   43.87    4.06
   4 -14  -5   39.23    5.11
  -4  14   6    0.86    2.79
   4 -14   6    5.98    3.69
  -4 -14  -6    2.43    2.66
  -4  14   6    2.18    2.62
   4  14   6    1.25    2.60
  -4  14  -6   -0.58    1.63
   4 -14  -6   -3.99    4.06
  -4 -14   6   -1.13    2.47
   4 -14   7   38.02    6.02
  -4 -14  -7   37.29    5.72
  -4  14   7   32.50    4.72
  -4  14   7   20.81    4.52
   4  14   7   30.50    4.66
  -4  14  -7   31.94    3.65
  -4 -14   7   29.19    4.80
  -5 -14   0    1.13    0.61
  -5  14   0   -0.04    0.73
   5 -14   0    0.87    1.31
  -5  14   0    0.08    0.79
   5 -14   1   18.58    2.70
  -5  14   1   23.24    1.94
  -5  14   1   19.01    2.11
  -5 -14  -1   20.01    1.63
  -5  14  -1   19.80    1.82
   5 -14  -1   21.07    2.69
  -5 -14   1   20.46    1.63
  -5  14  -1   19.29    1.83
  -5 -14  -2    6.80    1.16
   5 -14   2    6.69    2.10
  -5  14   2    6.20    1.41
   5 -14  -2    8.59    1.95
  -5  14  -2    9.41    1.61
  -5 -14   2    6.17    1.29
  -5  14  -2    9.04    1.48
  -5  14   3   10.45    2.47
   5 -14   3   16.41    2.86
  -5  14   3   14.34    2.12
  -5 -14  -3   12.34    1.74
  -5  14  -3   10.64    1.93
  -5  14  -3   13.99    1.83
   5 -14  -3   14.57    2.58
   5  14   3   15.16    1.45
  -5  14   4   12.37    2.80
  -5 -14  -4   15.65    2.13
   5 -14   4   17.49    3.34
  -5 -14  -4   17.63    2.45
  -5  14   4   16.21    2.45
  -5 -14   4   15.00    2.40
  -5  14  -4   13.08    1.92
  -5 -14  -5    3.16    1.94
  -5  14   5    4.45    2.66
  -5  14   5    2.07    2.13
   5 -14   5    4.99    3.04
  -5 -14   5    1.78    1.99
  -5  14  -5    2.38    1.53
   5  14   5    5.52    2.21
   5 -14  -5    0.38    3.42
  -5  14   6   16.50    3.27
  -5 -14  -6   19.50    3.56
   5 -14   6   12.42    4.36
  -5  14   6   12.51    3.76
  -5  14  -6   18.29    2.73
   5  14   6   16.32    3.39
  -5 -14   6   14.36    3.39
  -5  14   7    0.57    3.45
  -5 -14  -7    2.18    4.15
  -5  14   7    1.80    3.72
   5 -14   7    7.17    4.59
  -5 -14   7   -2.70    2.90
   5  14   7    3.93    3.65
  -5  14  -7   -0.03    2.31
  -6  14   0   49.45    2.84
  -6 -14   0   40.99    2.38
  -6  14   0   44.75    3.01
   6 -14   0   43.48    3.71
  -6  14   1   23.87    2.07
  -6 -14  -1   21.41    1.68
  -6  14   1   22.73    2.59
   6 -14   1   23.20    3.06
   6 -14  -1   24.28    3.15
  -6 -14   1   22.23    1.62
  -6  14  -1   21.52    2.23
  -6  14  -1   24.22    2.07
  -6  14   2   39.61    3.60
  -6  14   2   44.24    3.06
   6 -14   2   41.06    3.90
  -6  14  -2   44.91    3.98
  -6 -14   2   41.22    2.72
  -6  14  -2   38.86    2.85
   6 -14   3   15.40    3.09
  -6 -14  -3   14.40    1.93
  -6 -14  -3   14.49    1.92
  -6  14   3   10.35    2.59
  -6  14  -3   16.87    2.13
   6 -14  -3   14.00    2.75
  -6 -14   3   18.53    3.55
  -6  14  -3   17.64    2.20
  -6 -14  -4   31.85    3.60
  -6 -14  -4   25.15    2.67
  -6  14   4   25.06    3.15
  -6  14   4   23.07    3.73
  -6 -14  -4   26.58    2.76
   6 -14   4   26.70    4.13
  -6 -14   4   28.99    3.31
  -6  14  -4   29.58    2.88
   6 -14  -4   26.08    4.57
  -6 -14  -5    4.28    2.65
  -6  14   5    5.00    2.59
  -6  14   5    6.62    2.54
  -6 -14  -5    3.15    2.01
   6 -14   5    2.08    3.08
  -6 -14  -5    3.91    1.70
  -6 -14   5    5.26    2.34
  -6  14  -5   -0.63    2.58
   6 -14  -5    0.74    3.89
  -6  14  -5    3.05    1.78
   6  14   5    6.60    2.45
   6 -14   6   15.14    4.57
  -6  14   6   16.20    3.19
  -6 -14  -6   14.73    3.45
  -6  14   6   16.29    4.29
   6  14   6   16.54    3.44
  -6 -14   6   14.09    3.11
  -6  14  -6   11.08    2.40
  -6 -14  -7   -5.70    3.91
  -6  14   7   -0.18    3.67
   6 -14   7    3.81    5.00
  -6  14   7   -3.25    3.47
  -6 -14   7    5.36    3.09
   6  14   7   -5.86    3.95
  -6  14  -7   -0.95    2.55
  -7 -14   0   13.26    1.19
   7 -14   0   14.86    2.69
  -7  14   0   13.02    1.71
  -7  14   1    0.29    1.17
   7 -14   1    4.51    1.97
  -7 -14  -1    0.82    0.67
  -7  14   1    2.42    1.13
   7 -14  -1    2.91    1.94
  -7  14  -1    1.69    0.95
  -7  14  -1    1.23    1.06
  -7 -14   1    0.99    0.63
  -7  14   2   22.15    2.34
   7 -14   2   23.35    3.36
  -7  14   2   27.02    3.14
  -7 -14  -2   22.48    1.91
  -7 -14  -2   17.55    1.88
  -7 -14   2   23.10    1.99
  -7  14  -2   20.37    2.31
  -7  14  -2   26.26    2.43
   7 -14  -2   16.12    2.88
  -7 -14  -3    2.42    1.19
   7 -14   3    5.02    2.47
  -7 -14  -3    3.32    2.15
  -7 -14  -3    1.78    1.19
  -7  14   3    3.23    2.23
  -7  14   3    2.43    1.64
   7 -14  -3    2.99    2.35
  -7  14  -3    3.41    1.48
  -7 -14   3   -0.52    1.38
  -7  14  -3    1.89    1.33
  -7  14   4   36.57    4.60
  -7 -14  -4   32.58    3.90
  -7 -14  -4   32.75    3.04
  -7  14   4   30.22    3.46
  -7 -14  -4   29.37    2.86
   7 -14   4   25.19    4.08
  -7  14  -4   19.31    2.68
  -7 -14   4   31.06    3.22
  -7  14   5    0.41    2.57
  -7  14   5    4.61    2.34
  -7 -14  -5   -0.61    1.67
  -7 -14  -5   -0.32    1.69
   7 -14   5    2.65    3.38
  -7 -14  -5   -0.76    2.70
  -7 -14   5    0.57    1.91
  -7  14  -5    2.55    2.86
   7  14   5    2.00    2.35
  -7  14  -5   -0.09    1.62
  -7 -14  -6   19.87    3.17
  -7 -14  -6   21.21    3.78
  -7  14   6   16.67    4.64
  -7  14   6   24.36    3.75
   7 -14   6   19.04    5.24
  -7  14  -6   16.74    2.99
  -7 -14   6   20.62    3.59
   7 -14   7    4.44    5.78
  -7  14   7    1.28    3.78
  -7 -14  -7    4.10    4.34
  -7  14   7    1.17    4.49
   7  14   7   11.12    4.93
  -7 -14   7    3.77    3.38
  -7  14  -7    1.01    2.69
   8 -14   0   96.43    6.22
  -8 -14   0   91.48    4.20
  -8  14   0   91.39    5.27
  -8  14   0  100.20    5.02
  -8 -14  -1   14.27    1.56
  -8  14   1   12.16    2.05
   8 -14   1   17.79    2.90
  -8  14   1   15.86    1.95
  -8  14  -1   11.38    1.76
  -8  14  -1   12.83    1.79
   8 -14  -1   16.49    2.94
  -8 -14   1   12.78    1.14
  -8  14   2   65.70    4.83
  -8 -14  -2   65.75    4.65
   8 -14   2   59.07    4.98
  -8  14   2   71.51    4.22
  -8 -14  -2   62.52    3.57
  -8 -14   2   65.42    3.52
  -8  14  -2   76.62    4.33
   8 -14  -2   65.67    5.19
  -8  14  -2   68.75    4.33
  -8 -14  -3   12.49    1.90
  -8 -14  -3   14.57    2.04
  -8  14   3   14.12    2.31
   8 -14   3   16.59    3.46
  -8  14   3   12.28    2.93
  -8  14  -3   10.93    2.07
  -8  14  -3   14.68    2.45
  -8 -14   3   15.01    1.96
  -8  14   4   28.06    3.45
  -8 -14  -4   26.26    2.96
  -8 -14  -4   34.13    4.61
  -8  14   4   25.94    4.22
  -8 -14  -4   27.36    2.88
   8 -14   4   30.34    4.47
  -8  14  -4   23.92    3.13
  -8 -14   4   24.32    3.06
  -8  14  -4   30.51    3.65
  -8 -14  -5    7.40    2.17
  -8 -14  -5   12.24    3.32
  -8  14   5    5.56    3.38
   8 -14   5    0.95    4.17
  -8 -14  -5    7.81    2.27
  -8  14   5    7.47    2.65
  -8  14  -5   -0.01    3.02
  -8 -14   5   10.60    2.54
  -8  14  -5    7.48    2.25
  -8 -14  -6    8.24    4.01
  -8  14   6   10.37    4.67
  -8 -14  -6   10.49    3.35
  -8 -14  -6    9.43    2.64
  -8  14   6    9.82    3.18
   8 -14   6   10.23    5.14
  -8 -14   6    7.95    2.91
  -8  14  -6    8.27    2.69
   9 -14   0    5.19    2.32
  -9  14   0    2.90    1.44
  -9 -14   0    2.23    0.67
  -9  14   0    4.41    1.42
  -9 -14  -1   27.87    1.97
  -9  14   1   32.55    3.16
  -9  14   1   30.01    2.70
  -9 -14   1   28.85    1.57
   9 -14  -1   32.21    4.35
  -9  14  -1   27.87    2.73
  -9  14  -1   26.72    2.79
  -9  14   2    1.58    1.75
  -9 -14  -2    5.06    1.35
  -9  14   2    2.36    1.44
  -9 -14  -2    5.22    1.11
   9 -14  -2    4.13    2.83
  -9  14  -2    5.50    1.75
  -9 -14   2    4.65    1.07
  -9  14  -2    3.68    1.71
  -9  14   3   16.15    3.33
  -9 -14  -3   11.76    1.82
  -9  14   3   14.06    2.51
  -9 -14  -3   11.32    1.87
   9 -14   3   16.77    3.84
  -9  14  -3    9.53    2.47
  -9 -14   3   15.54    2.13
  -9  14  -3    7.33    2.02
   9 -14   4    7.81    3.97
  -9 -14  -4    5.04    1.77
  -9  14   4    5.97    2.22
  -9 -14  -4    5.68    1.79
  -9  14   4    7.48    3.36
  -9  14  -4    8.16    2.74
  -9 -14   4    5.40    1.83
  -9  14  -4    2.33    1.83
  -9 -14  -5    0.69    1.91
  -9  14   5   -1.94    3.41
  -9 -14  -5    4.09    2.10
   9 -14   5    3.88    4.71
  -9  14   5    5.03    2.68
  -9  14  -5   -4.42    3.16
  -9  14  -5   -0.18    2.02
  -9 -14   5    6.79    2.43
  -9  14   6    2.90    3.12
  -9 -14  -6    0.62    2.49
  -9 -14  -6    9.30    5.09
  -9 -14  -6   -2.10    2.86
  -9  14   6    4.04    4.46
   9 -14   6   -4.09    5.43
  -9 -14   6    0.72    2.75
  -9  14  -6    0.03    2.42
  10 -14   0   -2.18    2.51
 -10  14   0    4.10    1.68
 -10  14   0    2.78    1.41
 -10 -14  -1   32.61    2.14
  10 -14   1   21.02    3.79
 -10  14   1   31.89    2.90
 -10  14   1   31.97    3.32
 -10  14  -1   33.22    3.16
 -10 -14   1   31.60    1.61
 -10  14  -1   30.24    3.01
 -10 -14  -2    2.80    1.12
 -10  14   2    1.73    1.56
 -10  14   2    3.53    1.97
 -10 -14  -2    2.97    1.30
 -10 -14   2    2.64    1.09
 -10  14  -2    4.73    1.66
  10 -14  -2    1.33    3.23
 -10  14  -2    3.88    1.90
 -10 -14  -3   23.70    2.50
 -10  14   3   21.99    3.66
 -10 -14  -3   23.58    2.68
 -10  14   3   21.96    3.09
 -10 -14   3   25.92    2.43
 -10  14  -3   30.68    3.77
 -10  14  -3   22.99    3.12
 -10 -14  -4    3.71    1.86
 -10 -14  -4    3.87    1.71
 -10  14   4    1.27    2.97
 -10  14   4    2.47    2.17
  10 -14   4    8.92    4.52
 -10  14  -4    2.05    1.92
 -10  14  -4   -1.68    2.80
 -10 -14   4    4.63    1.85
 -10 -14  -5   14.66    2.85
  10 -14   5   -2.60    4.88
 -10  14   5   17.87    4.79
 -10 -14  -5   14.22    2.67
 -10  14   5   15.03    3.22
 -10  14  -5   15.45    4.18
 -10  14  -5   16.57    3.29
 -10 -14   5   16.22    2.85
 -10  14   6    8.63    5.29
 -10  14   6    2.32    3.23
 -10 -14  -6   -0.21    2.54
 -10 -14  -6    5.26    3.20
 -10  14  -6   10.45    5.91
  11 -14   0    2.04    3.10
 -11  14   0    0.76    1.44
 -11  14   0    1.34    1.41
 -11 -14   0    0.23    0.73
 -11  14   1   15.28    2.56
 -11  14   1   13.59    2.19
 -11 -14  -1   11.99    1.46
 -11  14  -1   16.35    2.62
 -11  14  -1   11.72    2.24
 -11 -14  -2    2.71    1.22
 -11  14   2    2.28    1.73
 -11  14   2    4.57    2.14
 -11 -14  -2    1.78    1.33
 -11  14  -2    4.88    2.08
 -11  14  -2    3.36    1.76
 -11 -14  -3    8.03    1.74
 -11  14   3    9.12    2.39
  11 -14   3   -4.17    3.76
 -11 -14  -3    9.47    1.86
 -11  14   3    7.90    2.93
 -11 -14   3    9.18    1.66
 -11  14  -3   12.35    2.74
 -11  14  -3   10.28    2.44
 -11 -14  -4    3.12    1.84
 -11  14   4    7.71    3.66
  11 -14   4    0.15    5.56
 -11  14   4    6.05    2.64
 -11 -14  -4    7.10    2.09
 -11  14  -4   10.30    3.45
 -11 -14   4    7.15    2.07
 -11  14  -4    7.70    2.49
 -11 -14  -5    2.96    2.34
 -11 -14  -5    0.70    2.30
 -11  14   5   -0.34    4.31
 -11  14   5    1.07    2.80
 -11  14  -5    9.73    4.40
 -11  14  -5    1.67    2.78
 -12  14   0    8.13    2.13
 -12 -14   0    9.33    1.15
 -12  14   0   14.13    2.29
 -12 -14  -1   10.24    1.46
 -12  14   1   10.35    2.24
 -12  14   1   10.90    2.57
 -12  14  -1   13.37    2.41
 -12  14  -1   14.98    2.81
 -12  14   2   10.82    2.69
 -12 -14  -2    8.65    1.63
 -12 -14  -2    8.66    1.75
 -12  14   2    7.51    2.01
 -12  14  -2   12.42    2.61
 -12  14  -2    9.24    2.64
 -12  14   3   11.85    3.28
 -12 -14  -3   12.04    1.99
 -12 -14  -3    9.91    2.13
 -12  14   3    9.43    2.44
 -12  14  -3    6.25    2.65
 -12  14  -3   13.00    3.08
 -12 -14   3   11.49    1.77
 -12 -14  -4    6.85    2.14
 -12 -14  -4    7.85    2.29
 -12  14   4    6.99    3.68
 -12  14   4    3.92    2.68
 -12  14  -4    5.96    3.50
 -12  14  -4   11.72    2.95
 -12  14   5   11.49    3.60
 -12 -14  -5    7.03    2.71
 -12  14   5    8.90    4.88
 -12 -14  -5   10.26    2.82
 -12  14  -5    5.37    3.21
 -12  14  -5   12.32    4.99
 -13 -14   0    3.43    1.00
 -13  14   0    4.74    2.04
 -13  14   0    2.56    1.89
 -13  14   1   -0.95    1.95
 -13  14   1    2.15    1.77
 -13 -14  -1    1.67    1.19
 -13  14  -1    2.13    1.97
 -13  14  -1   -1.57    1.90
 -13 -14  -2    5.98    1.83
 -13  14   2    4.62    2.55
 -13  14   2    5.15    2.21
 -13 -14  -2    4.39    1.61
 -13  14  -2    5.31    2.74
 -13  14  -2    8.76    2.43
 -13  14   3    0.28    2.75
 -13 -14  -3    2.38    1.90
 -13  14   3    0.61    2.12
 -13 -14  -3   -0.08    1.59
 -13  14  -3   -5.09    2.15
 -13  14  -3    4.59    2.92
 -13  14   4    6.40    3.70
 -13 -14  -4   10.52    2.70
 -13  14   4   11.48    3.10
 -13 -14  -4   10.34    2.38
 -13  14  -4   13.83    4.24
 -13  14  -4    7.22    3.13
 -14  14   0   17.78    3.01
 -14 -14   0   25.19    2.08
 -14  14   0   25.22    3.46
 -14  14   1    0.83    1.94
 -14 -14  -1    0.78    1.27
 -14  14   1    1.96    2.26
 -14  14  -1    1.90    2.09
 -14  14  -1   -2.77    2.15
 -14 -14  -2   21.42    2.45
 -14  14   2   25.29    4.07
 -14 -14  -2   21.53    2.49
 -14  14   2   21.25    3.20
 -14  14  -2   27.66    3.99
 -14  14  -2   22.12    3.55
 -14 -14  -3    1.14    2.18
 -14  14   3    2.79    3.23
 -14  14   3    0.54    2.23
 -14 -14  -3    3.54    1.87
 -14  14  -3    1.25    3.21
 -14  14  -3    0.76    2.63
 -14 -14  -4   12.34    2.64
 -14  14   4   12.28    4.55
 -14  14   4   13.36    3.27
 -14 -14  -4   20.55    3.18
 -14  14  -4   12.13    3.72
 -14  14  -4   15.24    4.76
 -15  14   0    4.17    2.44
 -15  14   0    4.32    2.52
 -15 -14   0    8.22    1.44
 -15  14   1    3.94    2.51
 -15  14   1   10.93    3.16
 -15 -14  -1   10.14    1.79
 -15  14  -1    8.16    2.89
 -15  14  -1    9.56    3.02
 -15 -14  -2    3.21    1.87
 -15 -14  -2    2.73    2.91
 -15  14   2    6.46    2.48
 -15  14   2    7.13    3.02
 -15  14  -2    5.08    3.11
 -15  14  -2    3.81    2.74
 -15 -14  -3    4.25    2.54
 -15  14   3    6.13    2.75
 -15  14   3   10.39    3.58
 -15 -14  -3    4.25    2.17
 -15  14  -3    8.23    3.40
 -15  14  -3    6.33    3.84
 -16  14   0    5.45    2.77
 -16 -14   0    4.68    1.57
 -16  14   0    7.72    2.78
 -16 -14  -1   19.10    2.27
 -16  14   1   18.24    3.75
 -16  14   1   16.31    3.30
 -16  14  -1   22.86    4.10
 -16  14  -1   22.28    3.89
 -16  14   2    7.51    3.16
 -16 -14  -2    3.83    2.05
 -16  14   2    8.31    2.78
 -16  14  -2    9.79    3.51
 -16  14  -2    7.24    3.57
   0  15   0    0.16    0.52
   0 -15   0    0.09    0.98
   0  15  -1   91.46    4.06
   0 -15   1   90.72    5.12
   0  15   1   93.77    4.32
   0 -15  -1   87.14    4.92
   0  15  -2    0.15    0.55
   0 -15   2    0.43    1.22
   0 -15  -2    1.07    1.07
   0  15   2    0.22    1.09
   0  15   2    0.17    0.84
   0 -15   3   56.82    4.46
   0 -15  -3   56.31    3.96
   0 -15   4    0.68    1.97
   0  15   4    0.83    1.66
   0  15  -4   -0.12    0.82
   0  15   4   -1.20    1.55
   0 -15  -4   -0.05    1.68
   0 -15  -5   24.74    3.54
   0 -15   5   25.35    4.10
   0  15   5   23.95    3.52
   0  15   6    0.80    2.72
   0 -15   6   -2.45    2.84
   0 -15  -6   -2.23    2.76
   0  15   7   21.56    4.33
   0 -15  -7   22.03    5.38
   0 -15   7   15.06    4.84
  -1 -15   0   -0.17    0.87
   1 -15   0    1.22    1.05
  -1  15   0    3.25    0.73
   1  15   0    3.16    0.54
  -1  15   0    1.07    1.05
   1 -15   1    2.05    1.30
  -1 -15  -1    4.22    1.20
  -1  15   1    3.47    0.85
   1  15  -1    3.35    0.54
   1 -15  -1    3.53    1.24
  -1 -15   1    3.65    1.16
  -1  15  -1    1.98    0.66
   1  15   1    3.49    0.71
  -1  15   2    1.68    1.04
   1 -15   2   -0.76    1.20
  -1 -15  -2    0.53    0.99
  -1  15   2    0.94    0.94
   1 -15  -2    2.42    1.21
  -1 -15   2    1.01    1.17
  -1  15  -2    0.72    0.61
   1  15   2    0.17    0.82
  -1 -15  -3    1.68    1.33
  -1  15   3   -1.13    1.31
   1 -15   3    3.19    1.81
  -1  15   3    1.86    1.60
  -1 -15   3    4.05    1.76
   1 -15  -3    2.97    1.62
  -1  15  -3    2.64    0.86
   1  15   3    3.43    1.47
  -1  15   4   -0.78    1.84
  -1 -15  -4    0.26    1.56
   1 -15   4    0.78    2.08
  -1  15   4    1.01    1.61
   1  15   4    1.46    1.69
   1 -15  -4    2.01    1.83
  -1 -15   4    2.45    2.02
   1 -15   5    1.53    2.45
  -1 -15  -5    1.59    2.09
  -1  15   5    6.24    2.39
  -1  15  -5    2.31    1.34
  -1 -15   5   -1.01    2.41
   1 -15  -5    0.38    2.26
   1  15   5    3.34    2.31
  -1  15   6   -6.39    2.75
  -1 -15  -6   -4.77    2.60
  -1  15   6    2.05    2.60
   1 -15   6   -4.27    2.86
   1 -15  -6   -0.15    3.29
  -1 -15   6    5.15    3.45
   1  15   6   -6.08    2.29
  -1  15  -6    0.17    1.69
  -1  15   7   -1.61    3.43
   1 -15   7    1.50    3.85
  -1 -15  -7   -0.95    4.07
   1  15   7    3.62    3.56
  -1 -15   7   -6.26    3.27
   1 -15  -7   -4.97    4.71
   2 -15   0   31.69    2.85
  -2 -15   0   33.23    2.44
  -2  15   0   28.74    1.99
  -2  15   1   94.39    4.35
  -2  15   1   90.13    4.52
   2 -15   1   84.04    5.20
  -2 -15  -1   87.42    4.70
   2 -15  -1   83.33    5.03
   2  15   1   92.20    3.91
  -2 -15   1   87.75    4.74
  -2  15  -1   83.07    4.14
  -2 -15  -2   46.53    3.25
  -2  15   2   53.07    3.05
   2 -15   2   48.92    3.98
  -2  15   2   49.25    3.40
   2  15   2   47.49    2.72
   2 -15  -2   56.40    3.80
  -2  15  -2   51.15    2.80
  -2 -15   2   50.28    3.56
  -2 -15  -3   49.42    3.60
   2 -15   3   50.31    4.30
  -2  15   3   55.49    3.50
  -2  15   3   49.44    4.10
  -2 -15   3   42.48    3.99
   2 -15  -3   46.30    4.27
  -2  15  -3   48.84    2.81
   2  15   3   51.09    3.40
  -2  15   4   56.50    4.69
  -2 -15  -4   59.41    4.30
   2 -15   4   56.74    5.20
  -2 -15   4   54.94    4.85
   2  15   4   56.80    4.36
  -2  15  -4   65.81    3.58
   2 -15  -4   71.51    5.01
  -2 -15  -5   14.47    2.90
   2 -15   5   17.70    3.85
  -2  15   5   17.73    3.40
  -2 -15   5   17.26    3.35
  -2  15  -5   12.85    1.87
   2  15   5   16.59    2.96
   2 -15  -5   15.50    3.13
  -2  15   6   44.91    5.50
   2 -15   6   48.47    6.27
  -2 -15  -6   46.28    5.16
  -2 -15   6   49.94    5.92
   2 -15  -6   52.10    6.34
  -2  15  -6   48.01    3.73
   2  15   6   40.67    5.18
  -2  15   7    0.67    3.42
  -2  15   7   -8.58    3.94
  -2 -15  -7    7.95    4.23
   2 -15   7    4.53    4.44
   2  15   7    2.35    3.57
  -2 -15   7    6.05    3.66
   2 -15  -7    4.06    5.26
  -2  15  -7    2.71    2.37
  -3  15   0   13.98    1.50
  -3 -15   0   10.67    1.52
   3 -15   0    8.98    1.84
  -3  15   0    9.81    1.31
  -3  15   1    1.33    0.92
  -3 -15  -1    0.43    0.79
  -3  15   1    0.95    0.79
   3 -15   1    1.53    1.22
  -3  15  -1    1.58    0.72
   3 -15  -1    1.85    1.34
  -3  15  -1    1.40    1.03
  -3 -15   1    1.55    0.95
   3 -15   2    6.96    2.17
  -3  15   2    7.07    1.48
  -3  15  -2    7.15    1.12
  -3 -15   2    7.44    1.57
   3 -15  -2    7.22    1.68
   3 -15   3   -1.73    1.66
  -3  15   3   -1.45    1.47
  -3  15   3   -0.22    1.36
  -3 -15  -3   -0.03    1.15
  -3 -15   3   -0.51    1.49
   3  15   3   -0.63    1.08
  -3  15  -3   -0.51    0.97
  -3 -15  -4    7.64    1.93
  -3  15   4    3.10    1.70
   3 -15   4    5.89    2.59
  -3  15   4    2.25    2.02
   3 -15  -4    4.97    2.20
  -3 -15   4    5.83    2.21
   3  15   4    1.15    1.77
  -3  15  -4    4.28    1.32
  -3 -15  -5   -3.14    1.79
  -3  15   5    1.80    2.41
  -3  15   5   -2.23    2.13
   3 -15   5    1.56    2.64
  -3  15  -5    2.76    1.46
  -3 -15   5    3.60    2.39
   3  15   5   -0.88    2.01
   3 -15  -5    1.78    2.63
  -3 -15  -6    1.69    2.87
  -3  15   6   -0.36    2.82
  -3  15   6    0.36    2.80
   3 -15   6    4.99    3.67
   3 -15  -6   -0.90    3.92
   3  15   6    1.10    2.89
  -3 -15   6   -1.14    2.77
  -3  15  -6   -0.45    1.73
   3 -15   7   -1.64    3.95
  -3  15   7    1.16    3.62
  -3  15   7    0.10    3.62
  -3 -15  -7   -3.86    3.40
  -3 -15   7    1.80    3.45
   3  15   7   -2.14    3.55
  -3  15  -7    1.09    2.49
  -4  15   0   93.02    4.49
   4 -15   0   88.49    5.44
  -4 -15   0   92.27    4.56
  -4  15   0   89.03    4.60
   4 -15   1   14.16    2.48
  -4 -15  -1   16.21    1.70
  -4  15   1   19.15    1.81
  -4  15   1   17.94    1.91
  -4 -15   1   18.78    1.84
  -4  15  -1   18.53    1.89
   4 -15  -1   15.45    2.27
  -4  15  -1   14.27    1.57
  -4 -15  -2   78.39    5.38
  -4  15   2   77.23    5.00
  -4 -15   2   91.58    4.93
   4 -15  -2   89.73    5.55
  -4 -15  -3    9.27    1.72
  -4  15   3   11.31    2.52
   4 -15   3   12.29    2.57
   4  15   3   13.03    1.55
  -4 -15   3   11.64    2.12
  -4  15  -3   10.29    1.57
  -4  15   4   76.11    4.90
  -4  15   4   69.67    5.63
  -4 -15  -4   68.99    4.66
   4 -15   4   70.26    5.87
   4 -15  -4   77.29    5.56
   4  15   4   69.03    4.57
  -4 -15   4   64.00    4.98
  -4  15  -4   67.02    4.10
  -4  15   5    6.15    2.80
  -4  15   5    0.82    2.24
  -4 -15  -5    2.06    1.98
   4 -15   5    2.67    2.84
   4 -15  -5    1.24    3.19
  -4  15  -5    1.26    1.48
  -4 -15   5    5.05    2.44
   4  15   5    4.19    2.36
  -4  15   6   39.50    5.20
  -4  15   6   30.19    4.72
  -4 -15  -6   40.96    4.90
   4 -15   6   39.11    5.76
  -4  15  -6   31.62    3.64
  -4 -15   6   39.48    5.31
   4  15   6   37.29    4.50
  -4  15   7    3.69    3.89
  -4 -15  -7   -7.32    4.33
   4 -15   7   -3.00    4.24
  -4  15   7   -4.12    3.66
  -4  15  -7    0.90    2.56
   4  15   7    1.33    3.88
  -4 -15   7   -3.32    3.21
  -5 -15   0    1.47    0.74
  -5  15   0    1.46    1.02
   5 -15   0    2.42    1.48
  -5  15   1    2.85    1.01
  -5 -15  -1    2.73    0.86
   5 -15   1    4.15    1.73
  -5 -15   1    1.99    0.84
   5 -15  -1    2.14    1.64
  -5  15  -1    2.25    1.13
  -5 -15  -2    1.61    1.05
  -5  15   2    2.16    1.44
  -5  15   2    1.81    1.17
   5 -15  -2    1.84    1.66
  -5 -15   2    2.52    1.16
  -5  15  -2    1.27    0.90
  -5  15  -2    2.02    1.30
  -5  15   3   -0.51    1.83
   5 -15   3    3.44    2.13
  -5  15   3    1.54    1.46
  -5 -15  -3    0.85    1.11
  -5  15  -3    0.69    1.49
  -5 -15   3   -1.86    1.46
  -5  15  -3    0.19    1.01
  -5 -15  -4    0.36    1.40
   5 -15   4    1.33    2.50
  -5  15   4    1.10    1.85
  -5  15   4    0.66    2.17
  -5  15  -4    0.52    1.25
  -5 -15   4    0.29    1.81
   5 -15  -4    2.11    2.65
  -5  15  -4   -0.90    1.90
  -5 -15  -5    0.63    2.07
  -5  15   5   -2.20    2.15
   5 -15   5    0.50    2.94
  -5  15   5    0.97    2.47
  -5 -15   5   -2.63    2.07
  -5  15  -5    0.32    1.51
   5 -15  -5    0.76    3.79
   5  15   5    1.95    2.50
  -5 -15  -6    0.45    2.89
  -5  15   6    2.34    2.96
  -5  15   6    0.98    3.10
   5 -15   6    1.34    3.85
  -5 -15   6    0.50    2.69
  -5  15  -6    1.23    2.00
   5  15   6    4.52    3.20
  -5  15   7    1.54    4.03
  -5 -15  -7   -3.44    4.31
   5 -15   7    1.18    5.04
  -5  15   7    3.50    3.84
  -5 -15   7   -4.81    3.24
  -5  15  -7    0.72    2.73
   5  15   7    0.90    4.33
  -6  15   0    2.04    1.06
  -6 -15   0    2.79    0.84
   6 -15   0    3.73    1.78
  -6  15   0    3.00    1.16
  -6 -15  -1  109.91    5.80
   6 -15   1  124.85    7.16
  -6  15   1  122.24    6.29
  -6  15   1  126.85    5.89
  -6 -15   1  126.27    5.63
   6 -15  -1  123.42    7.06
  -6  15  -1  116.64    6.01
  -6  15   2    5.96    1.76
  -6 -15  -2    6.75    1.37
   6 -15   2    6.73    2.44
  -6  15   2    8.32    1.68
  -6  15  -2   11.15    1.78
   6 -15  -2    7.01    2.25
  -6 -15   2    7.95    1.47
  -6  15  -2   10.34    1.57
  -6 -15  -3   56.97    3.83
  -6  15   3   57.74    5.09
   6 -15   3   65.52    5.39
  -6  15   3   64.14    4.23
  -6  15  -3   61.22    3.82
  -6 -15   3   54.94    4.03
  -6  15   4    5.12    2.57
   6 -15   4    6.35    2.93
  -6  15   4    8.70    2.26
  -6 -15   4   12.88    2.43
  -6  15  -4   10.12    1.97
   6 -15  -4   17.32    3.75
  -6  15   5   22.95    4.25
   6 -15   5   19.33    4.17
  -6 -15  -5   15.82    2.93
  -6  15   5   20.02    3.26
  -6 -15   5   22.12    3.26
   6 -15  -5    0.94    4.28
  -6  15  -5   19.27    2.64
   6 -15   6   10.66    4.58
  -6  15   6    7.05    3.51
  -6 -15  -6   11.16    3.23
  -6  15   6    9.83    3.43
  -6  15  -6   10.77    2.50
   6  15   6   -7.87    3.37
  -6 -15   6   10.21    3.24
  -7  15   0   -0.59    1.02
  -7 -15   0    0.39    0.66
  -7  15   0    0.17    1.10
   7 -15   0   -1.27    1.78
  -7  15   1    2.71    1.30
  -7  15   1    2.01    1.10
   7 -15   1    2.83    1.94
  -7  15  -1    1.24    1.16
  -7 -15   1    2.67    0.79
   7 -15  -1    1.81    1.92
  -7  15  -1    1.62    1.16
   7 -15   2    2.43    2.26
  -7 -15  -2    1.42    0.90
  -7  15   2    1.34    1.52
   7 -15  -2    2.92    2.10
  -7 -15   2    0.20    1.69
  -7  15  -2   -1.35    1.24
  -7  15  -2    0.79    1.10
   7 -15   3    5.72    2.70
  -7 -15  -3    3.30    1.33
  -7  15   3    1.81    2.07
  -7  15   3    0.41    1.53
  -7 -15   3    3.31    1.61
  -7  15  -3   -0.45    1.22
  -7  15  -3    3.42    1.77
  -7  15   4   -0.45    2.58
  -7  15   4    3.10    2.06
  -7 -15  -4    0.44    1.38
   7 -15   4    2.78    3.01
  -7 -15  -4    1.94    1.57
  -7 -15   4    2.98    1.79
  -7  15  -4   -0.09    1.37
   7 -15  -4   -3.65    3.44
  -7  15  -4    0.01    2.27
  -7  15   5   -0.90    2.87
   7 -15   5    2.41    3.62
  -7 -15  -5    3.72    2.63
  -7  15   5    3.84    2.52
  -7 -15   5   -0.11    2.41
  -7  15  -5    0.05    1.83
  -7  15   6    3.18    3.68
   7 -15   6   -7.90    4.43
  -7 -15  -6    0.56    2.99
  -7  15   6   -2.90    2.93
  -7  15  -6   -1.28    2.07
  -7 -15   6    1.49    2.59
  -8  15   0    3.36    1.46
  -8 -15   0    5.00    0.93
   8 -15   0    4.77    2.41
  -8  15   0    5.91    1.68
   8 -15   1   34.25    5.99
  -8 -15  -1   27.82    2.07
  -8  15   1   27.36    2.87
  -8  15   1   29.91    2.99
  -8 -15   1   31.34    1.97
  -8  15  -1   28.36    2.80
  -8  15  -1   31.69    2.75
   8 -15  -1   34.92    4.12
  -8 -15  -2   14.04    1.83
  -8  15   2   12.62    2.14
   8 -15   2   11.81    3.08
  -8  15   2    9.12    2.22
  -8  15  -2   14.28    2.10
   8 -15  -2   18.20    3.23
   8 -15   3   26.94    4.10
  -8 -15  -3   23.57    2.51
  -8 -15  -3   23.55    2.49
  -8  15   3   22.68    3.02
  -8  15   3   25.18    3.79
  -8  15  -3   23.78    2.98
  -8 -15   3   25.64    2.79
  -8  15  -3   24.23    2.79
  -8  15   4   18.28    3.84
  -8 -15  -4   20.63    2.72
  -8 -15  -4   28.38    2.93
   8 -15   4   26.59    4.70
  -8  15   4   18.61    2.94
   8 -15  -4    1.01    3.88
  -8 -15   4   17.14    2.50
  -8 -15  -5   17.91    2.75
   8 -15   5   11.86    4.79
  -8 -15  -5   17.66    3.05
  -8  15   5   15.98    3.29
  -8 -15   5   17.67    3.03
  -8  15  -5   17.13    2.78
   8 -15   6   10.35    5.86
  -8  15   6   18.55    3.85
  -8  15   6   10.27    4.19
  -8 -15  -6    8.25    3.63
  -8  15  -6   16.51    3.10
  -8 -15   6   17.59    3.42
  -9  15   0    4.77    1.58
  -9  15   0    4.96    1.57
  -9 -15   0    3.70    1.42
   9 -15   0    1.80    2.42
  -9  15   1    0.61    1.36
  -9  15   1   -1.48    1.21
  -9 -15  -1   -0.50    0.86
  -9  15  -1    0.18    1.27
  -9  15  -1    1.98    1.58
  -9 -15   1    0.06    0.77
   9 -15  -1    0.85    2.46
   9 -15   2    5.76    3.11
  -9  15   2    1.08    1.71
  -9  15   2    1.52    1.52
  -9 -15  -2    2.02    1.11
  -9  15  -2    0.98    1.75
  -9  15  -2    3.98    1.54
  -9 -15   2    2.77    1.25
   9 -15  -2    0.22    2.78
  -9 -15  -3    0.32    1.35
   9 -15   3   -1.07    3.28
  -9 -15  -3    1.61    1.43
  -9  15   3   -0.06    2.02
  -9  15   3   -0.13    1.68
  -9  15  -3    2.43    1.60
   9 -15  -3    1.97    3.24
  -9  15  -3   -1.67    2.10
  -9 -15   3    3.29    1.55
  -9 -15  -4   -0.68    1.49
  -9  15   4    4.19    3.07
  -9 -15  -4    1.08    1.71
   9 -15   4   -4.09    3.52
  -9  15   4    0.44    2.15
  -9  15  -4    2.77    2.89
  -9 -15   4    0.88    1.82
  -9  15  -4    1.03    1.82
  -9  15   5   -1.13    2.68
  -9 -15  -5    1.68    2.06
   9 -15   5   -1.53    4.87
  -9  15   5    3.16    3.63
  -9 -15  -5   -0.31    2.11
  -9 -15   5   -0.07    2.22
  -9  15  -5   -2.43    3.41
  -9  15  -5   -3.31    1.99
   9 -15   6    6.39    6.23
  -9  15   6    1.80    4.67
  -9 -15  -6    6.47    3.36
  -9  15   6    3.90    3.46
  -9 -15   6    2.52    2.92
  -9  15  -6   -1.08    2.47
 -10  15   0   39.27    3.31
 -10  15   0   33.37    3.28
 -10 -15   0   32.02    2.08
 -10  15   1    5.12    1.81
 -10  15   1    5.43    1.85
 -10 -15  -1    4.17    1.10
  10 -15  -1   -3.94    2.95
 -10  15  -1    2.53    1.61
 -10  15  -1    3.17    1.70
 -10  15   2   36.42    3.43
  10 -15   2   33.56    5.19
 -10  15   2   41.16    4.10
 -10 -15  -2   40.55    2.87
 -10 -15   2   37.97    2.72
 -10  15  -2   43.78    3.97
 -10  15  -2   42.96    3.68
  10 -15   3    2.62    3.93
 -10 -15  -3    4.99    1.69
 -10  15   3    4.38    2.38
 -10 -15  -3   -0.02    1.33
 -10  15   3    2.08    2.06
 -10 -15   3    2.67    1.45
 -10  15  -3    3.02    1.86
 -10  15  -3    2.99    2.48
 -10 -15  -4   47.59    4.06
 -10  15   4   42.49    4.59
 -10  15   4   36.96    5.10
 -10 -15  -4   44.77    3.89
 -10  15  -4   42.87    4.40
 -10 -15   4   49.73    4.01
 -10  15  -4   52.20    5.81
 -10  15   5    0.92    2.89
 -10 -15  -5    3.05    2.20
 -10 -15  -5    0.76    2.27
  10 -15   5   -0.82    5.30
 -10  15   5    1.71    4.12
 -10  15  -5   -2.61    2.15
 -10  15  -5    1.74    3.83
 -10 -15   5    1.09    2.37
 -11  15   0    0.89    1.50
  11 -15   0    7.06    3.50
 -11  15   0    0.10    1.59
 -11 -15   0    1.19    0.86
 -11  15   1   -0.08    1.65
 -11  15   1    1.28    1.58
 -11 -15  -1    1.86    1.05
 -11 -15   1    0.12    0.76
 -11  15  -1   -0.23    1.73
 -11  15  -1    2.75    1.64
 -11 -15  -2    1.10    1.43
 -11 -15  -2    0.16    1.17
  11 -15   2    2.68    4.09
 -11  15   2    0.93    1.91
 -11  15   2   -1.12    1.68
 -11  15  -2    1.28    1.69
 -11 -15   2    0.63    1.17
 -11  15  -2    3.46    2.22
  11 -15   3    5.61    4.44
 -11  15   3    1.88    2.44
 -11  15   3    2.60    2.06
 -11 -15  -3    0.46    1.66
 -11 -15  -3   -0.10    1.35
 -11  15  -3    0.94    1.85
 -11 -15   3    1.05    1.49
 -11  15  -3   -0.17    2.54
 -11 -15  -4    2.41    2.04
  11 -15   4   -8.45    8.20
 -11  15   4    2.10    3.27
 -11 -15  -4    1.52    1.89
 -11  15   4    5.30    2.55
 -11  15  -4    1.95    2.24
 -11  15  -4   -0.65    3.28
 -11 -15   4    4.01    2.01
 -11  15   5    3.07    3.00
 -11 -15  -5    0.35    2.16
 -11  15   5    6.82    4.45
 -11 -15  -5    3.52    2.47
 -11  15  -5   -5.09    4.38
 -11  15  -5    1.32    2.65
 -12  15   0   19.35    2.89
 -12 -15   0   22.37    1.85
 -12  15   0   22.95    3.02
 -12 -15  -1   54.84    3.33
 -12  15   1   64.44    4.51
 -12  15   1   51.03    4.61
 -12  15  -1   56.64    4.77
 -12  15  -1   56.15    4.54
 -12  15   2   15.92    2.71
 -12 -15  -2   24.42    2.73
 -12  15   2   14.18    2.92
 -12 -15  -2   19.11    2.46
 -12  15  -2   16.65    3.30
 -12  15  -2   20.34    3.17
 -12 -15  -3   26.76    3.33
 -12  15   3   36.04    4.57
 -12  15   3   34.74    3.90
 -12 -15  -3   29.74    3.17
 -12  15  -3   34.94    4.38
 -12  15  -3   29.23    3.88
 -12 -15   3   33.23    3.02
 -12  15   4    5.42    3.81
 -12 -15  -4   11.25    2.59
 -12  15   4   12.59    3.01
 -12 -15  -4    5.90    2.19
 -12  15  -4    9.92    4.05
 -12  15  -4   10.88    2.91
 -12  15   5   13.15    5.00
 -12  15   5   13.05    3.73
 -12 -15  -5    9.11    2.90
 -12 -15  -5   10.69    3.12
 -12  15  -5   -2.11    4.84
 -12  15  -5    6.61    3.27
 -13  15   0   -0.90    1.91
 -13 -15   0    1.67    1.10
 -13  15   0    2.52    1.95
 -13 -15  -1   -0.48    1.20
 -13  15   1    1.20    1.99
 -13  15   1    1.64    1.99
 -13  15  -1    1.02    2.35
 -13  15  -1    1.83    2.02
 -13 -15  -2    0.51    1.41
 -13 -15  -2    4.23    1.87
 -13  15   2   -1.41    2.32
 -13  15   2    1.91    2.11
 -13  15  -2   -0.14    2.62
 -13  15  -2   -0.50    1.95
 -13  15   3    2.31    3.00
 -13 -15  -3   -1.34    1.60
 -13 -15  -3   -3.16    2.03
 -13  15   3   -0.56    2.19
 -13  15  -3   -2.22    3.04
 -13  15  -3   -1.99    2.10
 -13  15   4    0.81    2.63
 -13 -15  -4   -0.15    2.03
 -13 -15  -4   -1.92    2.44
 -13  15   4   -1.14    3.48
 -13  15  -4   -4.82    3.95
 -13  15  -4    2.67    2.78
 -14  15   0    3.55    2.27
 -14  15   0    2.99    2.32
 -14 -15   0    3.80    1.28
 -14 -15  -1   30.09    2.82
 -14  15   1   32.57    3.89
 -14  15   1   25.93    3.76
 -14  15  -1   31.12    4.26
 -14  15  -1   35.71    4.44
 -14  15   2    3.71    2.47
 -14  15   2    3.35    2.34
 -14 -15  -2    1.82    1.74
 -14  15  -2    2.83    3.05
 -14  15  -2    0.45    2.49
 -14  15   3   20.57    3.92
 -14 -15  -3   17.02    2.68
 -14  15   3   23.00    3.50
 -14 -15  -3   24.92    3.09
 -14  15  -3   21.10    4.46
 -14  15  -3   18.43    3.51
 -15 -15   0    0.41    1.34
 -15  15   0    4.55    2.66
 -15  15   0   -0.29    2.42
 -15  15   1   -3.40    2.15
 -15  15   1   -1.60    2.63
 -15 -15  -1    2.49    1.62
 -15  15  -1    4.34    2.53
 -15  15  -1   -1.87    2.66
 -15  15   2    1.77    2.49
 -15  15   2    2.09    2.70
 -15 -15  -2    1.81    1.82
 -15  15  -2   -2.92    3.10
 -15  15  -2    1.36    2.55
 -15  15   3    0.19    3.40
 -15 -15  -3   -2.98    1.92
 -15 -15  -3   -0.59    2.72
 -15  15   3    1.02    2.69
 -15  15  -3   -0.94    3.02
 -15  15  -3    0.28    3.83
 -16  15   0    9.40    3.25
 -16  15   0   11.16    3.42
 -16 -15   0    6.54    1.71
 -16  15   1    1.21    2.68
 -16  15   1   -0.28    2.68
 -16 -15  -1   -0.39    1.82
 -16  15  -1   -0.32    3.06
 -16  15  -1    1.73    3.03
   0  16   0  156.99    6.70
   0 -16   0  157.79    7.80
   0  16  -1    0.24    0.52
   0 -16   1   -1.61    1.09
   0 -16  -1   -1.69    1.05
   0  16   1    0.50    0.63
   0  16  -2  118.97    5.24
   0 -16  -2  115.88    6.35
   0 -16   2  125.02    6.80
   0  16   2  121.09    5.76
   0  16   3    0.07    1.44
   0 -16   3   -0.72    1.76
   0 -16  -3    0.09    1.52
   0  16  -3    0.16    0.71
   0 -16  -4   59.34    4.62
   0  16   4   54.51    4.68
   0 -16   4   53.15    5.18
   0 -16  -5    0.27    2.27
   0 -16   5   -2.07    2.61
   0  16   5    2.45    2.36
   0  16   6   17.73    3.79
   0 -16  -6   18.95    4.09
   0 -16   6   17.30    4.51
   0  16   7    8.68    3.95
   0 -16   7    1.58    4.25
   0 -16  -7   -5.06    4.86
  -1 -16   0   -0.57    0.92
   1 -16   0   -0.96    1.05
  -1  16   0   -0.98    0.56
  -1  16   1    8.79    1.20
  -1 -16  -1    6.23    1.59
   1 -16   1    6.92    2.57
  -1 -16   1    7.96    1.63
   1  16   1    7.94    1.05
  -1  16  -1    8.25    1.09
   1 -16  -1    8.84    1.98
  -1  16   2    1.92    1.25
  -1  16   2   -0.88    1.15
  -1 -16  -2    2.88    1.29
   1 -16   2    4.76    1.82
  -1 -16   2    1.43    1.40
   1  16   2    1.62    0.83
   1 -16  -2    1.40    1.31
  -1  16  -2    2.37    0.76
  -1  16   3    8.54    2.06
  -1 -16  -3    7.23    1.92
   1 -16   3    7.07    2.33
  -1 -16   3   11.31    2.40
  -1  16  -3    9.81    1.20
   1 -16  -3    6.58    1.88
   1  16   3    9.77    1.92
  -1 -16  -4    5.95    2.01
   1 -16   4    4.11    2.47
  -1  16   4    5.27    2.28
  -1  16   4   -0.73    1.78
  -1  16  -4    9.49    1.43
   1  16   4   10.18    2.47
   1 -16  -4    5.13    2.24
  -1 -16   4    6.58    2.51
   1 -16   5    5.33    2.97
  -1  16   5    2.94    2.48
  -1 -16  -5    1.67    2.36
  -1  16   5    3.78    2.59
   1 -16  -5    5.46    2.78
   1  16   5    3.38    2.39
  -1 -16   5    1.97    2.68
  -1  16  -5    1.11    1.41
  -1  16   6    7.33    3.22
  -1 -16  -6    8.88    3.34
   1 -16   6    3.93    3.62
   1 -16  -6    4.62    3.65
   1  16   6   10.02    3.17
  -1 -16   6   11.70    3.60
  -1  16   7    5.45    3.73
   1 -16   7    5.78    4.57
  -1 -16  -7   -7.16    4.22
   1  16   7    0.28    3.65
  -1 -16   7   -1.23    3.87
   1 -16  -7   -1.91    5.38
   2 -16   0   19.97    2.52
  -2  16   0   19.54    1.61
  -2 -16   0   19.72    2.05
   2  16   1   51.97    2.33
  -2 -16   1   52.96    3.50
  -2  16  -1   49.41    2.75
   2 -16  -1   44.32    3.97
  -2  16   2   15.87    2.39
   2 -16   2   14.92    2.71
  -2 -16  -2   16.46    2.14
   2  16   2   16.05    1.43
  -2  16  -2   15.73    1.49
   2 -16  -2   20.24    2.63
  -2 -16   2   15.45    2.28
  -2  16   3   31.65    3.46
   2 -16   3   33.12    3.87
  -2 -16  -3   35.19    3.12
   2 -16  -3   35.02    3.58
  -2 -16   3   31.24    3.68
   2 -16   4   15.76    3.37
  -2  16   4    9.77    2.62
  -2 -16  -4   17.55    2.65
   2  16   4   12.88    2.52
  -2 -16   4   13.17    2.82
  -2  16  -4   13.18    1.70
   2 -16  -4   19.25    3.08
  -2 -16  -5   19.54    3.28
  -2  16   5   24.97    3.94
   2 -16   5   21.09    4.35
  -2 -16   5   23.30    3.85
   2  16   5   18.29    3.27
   2 -16  -5   22.86    3.81
  -2  16  -5   22.96    2.64
   2 -16   6   15.21    4.49
  -2 -16  -6   11.50    3.35
  -2  16   6   14.21    3.90
  -2 -16   6   12.68    3.87
   2  16   6   16.93    3.77
   2 -16  -6   12.20    4.31
  -2  16   7   21.14    4.84
   2 -16   7    8.81    4.98
  -2 -16  -7   11.64    4.84
   2  16   7   20.63    4.70
   2 -16  -7    4.56    6.61
  -2 -16   7    8.71    4.12
   3 -16   0    1.16    1.47
  -3  16   0    0.53    1.03
  -3  16   0    0.25    0.72
  -3 -16   0   -0.20    0.90
  -3  16   1   14.35    2.65
  -3  16  -1   10.30    1.35
  -3 -16   1   10.45    1.73
   3 -16   2    0.38    1.68
  -3  16   2    0.60    1.18
  -3 -16  -2    0.83    1.01
  -3  16   2   -1.04    1.05
   3  16   2    0.46    0.56
  -3 -16   2   -0.57    1.24
   3 -16  -2   -0.81    1.49
   3 -16   3    3.13    2.17
  -3  16   3    3.30    1.89
  -3 -16  -3    2.60    1.46
  -3  16   3   -0.29    1.44
   3  16   3    4.52    1.43
  -3 -16   3    5.15    1.99
  -3  16  -3    5.42    1.17
   3 -16  -3    1.79    1.74
  -3  16   4    2.07    2.13
  -3 -16  -4   -0.92    1.58
   3 -16   4    1.69    2.45
  -3  16  -4    1.57    1.22
  -3 -16   4    2.65    2.18
   3  16   4    2.35    1.81
   3 -16  -4    0.58    2.14
   3 -16   5    0.85    2.80
  -3 -16  -5   -0.25    2.24
  -3  16   5   -0.09    2.43
  -3  16   5    4.91    2.71
  -3  16  -5    3.14    1.56
   3 -16  -5   -1.11    2.84
   3  16   5   -0.37    2.33
  -3 -16   5    2.08    2.39
  -3  16   6   -0.77    3.06
  -3  16   6   -0.73    3.39
   3 -16   6   -0.52    3.55
  -3 -16  -6    4.79    3.36
   3  16   6   -0.57    2.92
   3 -16  -6    1.68    4.40
  -3  16  -6    1.21    1.91
  -3 -16   6   -2.03    2.93
  -3  16   7   -2.68    3.75
   3 -16   7   -1.09    4.61
  -3 -16  -7    0.86    4.00
   3  16   7    9.85    4.42
  -3  16  -7   -1.00    2.93
  -3 -16   7   -1.22    3.36
  -4  16   0    5.20    1.28
  -4 -16   0    3.92    1.16
  -4  16   1   27.43    2.15
  -4  16   1   21.08    2.15
  -4  16   2    4.51    1.47
   4 -16   2    4.03    1.97
  -4 -16  -2    3.91    1.36
  -4  16   2    3.93    1.35
  -4  16  -2    6.01    1.15
   4 -16  -2    3.81    1.89
  -4  16  -2    0.71    1.38
  -4 -16   2    4.28    1.63
  -4  16   3   35.02    3.92
   4 -16   3   36.63    4.47
  -4  16   3   43.21    3.31
  -4 -16  -3   41.53    3.35
  -4  16  -3   39.58    2.80
  -4 -16   3   34.64    3.65
   4 -16  -3   39.73    4.17
  -4  16   4    5.33    2.28
  -4 -16  -4    5.34    2.03
  -4  16   4    0.06    2.19
   4 -16   4    7.56    3.04
   4 -16  -4    2.44    2.56
  -4  16  -4    4.56    1.40
   4  16   4    7.90    1.96
  -4 -16   4    3.59    2.36
   4 -16   5   40.78    5.73
  -4  16   5   37.62    5.17
  -4 -16  -5   41.10    4.55
  -4  16  -5   35.83    3.33
   4 -16  -5   44.12    5.46
   4  16   5   40.62    4.66
  -4 -16   5   38.30    4.83
   4 -16   6   10.17    4.35
  -4  16   6    5.30    3.24
  -4  16   6   -2.74    3.34
  -4 -16  -6    6.70    3.38
  -4  16  -6    4.94    2.12
   4  16   6    2.36    3.22
   4 -16  -6   14.99    5.27
  -4 -16   6    3.44    3.10
  -5  16   0    0.74    0.81
  -5  16   0    1.11    1.12
  -5  16   1    4.96    1.25
  -5  16   1    1.39    1.01
  -5 -16  -1    2.20    1.04
   5 -16   1    6.51    2.16
  -5  16  -1    2.08    1.23
  -5  16  -1    2.73    1.08
  -5 -16   1    2.96    1.73
  -5 -16  -2    6.25    1.41
  -5  16   2    2.87    1.23
  -5  16   2    4.39    1.68
   5 -16   2    5.61    2.28
  -5  16  -2    0.61    1.31
   5 -16  -2    4.71    2.21
  -5  16  -2    5.42    1.27
  -5 -16   2    2.88    1.46
  -5 -16  -3    4.13    1.47
  -5  16   3    2.62    2.02
   5 -16   3    4.24    2.38
   5 -16  -3    1.42    2.31
  -5  16  -3   -1.97    1.75
  -5  16  -3    4.68    1.35
  -5 -16   3    3.14    1.81
   5 -16   4   10.93    3.35
  -5  16   4    6.74    2.70
  -5 -16  -4   12.83    2.32
  -5  16   4    7.62    2.43
  -5 -16   4    6.90    2.36
   5 -16  -4    8.50    3.33
  -5  16  -4    8.68    1.81
  -5  16   5    3.70    2.94
  -5 -16  -5    1.48    2.19
   5 -16   5    2.16    3.24
  -5  16   5    1.30    2.61
   5 -16  -5   -2.63    4.01
  -5  16  -5    1.82    1.70
  -5 -16   5    1.60    2.41
   5  16   5   -0.15    2.55
  -5  16   6    5.39    3.57
  -5 -16  -6    6.40    3.43
   5 -16   6    1.91    4.28
  -5  16   6    5.60    3.65
  -5  16  -6    2.43    2.22
   5  16   6    9.03    3.77
  -5 -16   6    1.81    3.20
  -6  16   0   68.16    4.13
  -6  16   0   74.97    4.06
   6 -16   1   17.45    3.16
  -6  16   1   16.86    2.19
  -6 -16  -1   17.45    1.85
  -6  16  -1   18.52    2.15
  -6  16  -1   18.34    2.03
  -6  16   2   58.36    4.26
   6 -16   2   50.84    4.93
  -6 -16  -2   50.83    3.42
  -6  16   2   55.23    3.51
  -6 -16   2   51.95    3.53
  -6  16  -2   51.22    3.40
   6 -16  -2   56.01    4.90
  -6 -16  -3    5.97    1.59
   6 -16   3    8.18    2.75
  -6  16   3    8.30    2.40
  -6  16   3    9.24    2.16
   6 -16  -3    8.09    3.00
  -6  16  -3    9.38    1.71
  -6 -16   3    6.82    2.04
  -6 -16  -4   29.47    3.27
  -6  16   4   26.90    4.40
   6 -16   4   30.80    4.67
  -6  16   4   29.78    3.51
   6 -16  -4   32.32    4.87
  -6 -16   4   27.40    3.79
  -6  16  -4   26.87    2.97
  -6  16   5    8.40    2.87
  -6 -16  -5    2.31    2.25
   6 -16   5    6.66    3.74
  -6  16   5   -1.95    2.92
  -6 -16   5   -0.04    2.49
   6 -16  -5   -7.05    4.38
  -6  16  -5    0.46    1.81
  -6  16   6   10.20    4.11
  -6  16   6   22.54    4.14
  -6 -16  -6   16.66    4.12
   6 -16   6   12.59    4.88
  -6  16  -6   22.40    3.21
  -6 -16   6   19.42    3.84
   7 -16   0   -0.64    2.46
  -7  16   0    0.13    1.21
  -7 -16   0    1.99    0.97
  -7  16   0    1.29    1.11
  -7  16   1    2.57    1.23
   7 -16   1   -0.98    2.07
  -7  16   1   -0.19    1.25
  -7 -16  -1    0.56    0.94
  -7  16  -1   -0.25    1.01
  -7 -16   1    0.57    1.47
  -7  16  -1   -0.76    1.22
  -7  16   2    3.83    1.73
  -7 -16  -2    3.28    1.22
  -7  16   2    3.03    1.49
   7 -16   2    3.55    2.67
   7 -16  -2    7.14    2.76
  -7  16  -2    4.21    1.35
  -7  16  -2    5.04    1.65
  -7 -16   2    2.50    1.38
  -7  16   3    1.91    1.97
  -7 -16  -3   -0.44    1.31
  -7  16   3    1.53    1.79
   7 -16   3    0.51    2.70
   7 -16  -3   -0.48    3.01
  -7 -16   3   -1.00    1.59
  -7  16  -3    1.21    1.27
  -7  16   4    9.60    2.66
   7 -16   4    9.20    3.62
  -7  16   4    8.01    3.29
  -7 -16  -4    5.58    1.96
  -7 -16   4    9.58    2.38
  -7  16  -4   -0.61    2.46
  -7  16  -4    6.57    1.82
   7 -16  -4    5.06    4.03
  -7 -16  -5   -0.26    2.04
  -7  16   5    1.34    2.86
   7 -16   5    4.41    4.10
  -7  16   5    1.37    3.23
  -7 -16   5    0.74    2.56
  -7  16  -5    1.20    1.90
  -7  16   6    1.43    4.07
  -7  16   6    5.13    3.60
   7 -16   6   -0.29    5.06
  -7 -16  -6    5.74    3.41
  -7  16  -6    9.02    2.52
  -7 -16   6    3.99    3.04
  -8  16   0   60.41    4.03
  -8 -16   0   56.74    3.25
   8 -16   0   63.02    5.60
  -8  16   0   62.83    3.96
  -8  16   1   15.40    2.29
   8 -16   1   24.50    3.93
  -8 -16  -1   22.14    2.05
  -8  16   1   24.75    2.56
  -8 -16   1   22.33    1.96
  -8  16  -1   24.36    3.01
  -8  16  -1   19.84    2.47
   8 -16  -1   17.31    4.11
  -8  16   2   57.20    3.92
  -8 -16  -2   50.42    3.43
  -8  16   2   58.93    4.49
   8 -16   2   58.44    5.50
  -8 -16   2   51.27    3.39
  -8  16  -2   55.22    4.16
  -8  16  -2   52.41    3.74
   8 -16  -2   46.61    5.52
  -8  16   3   22.58    2.91
  -8 -16  -3   14.73    2.14
   8 -16   3   12.77    3.68
  -8  16   3   14.49    2.94
  -8 -16   3   18.22    2.41
   8 -16  -3    8.11    3.76
  -8  16  -3   12.76    2.13
  -8  16   4   30.17    4.03
   8 -16   4   24.11    4.77
  -8  16   4   30.61    4.86
  -8 -16  -4   28.76    3.31
   8 -16  -4    0.70    4.35
  -8  16  -4   25.14    3.07
  -8  16  -4    3.37    3.02
  -8 -16  -5    6.62    2.46
  -8  16   5    1.81    3.47
   8 -16   5   14.30    5.21
  -8  16   5    7.34    3.00
  -8 -16   5    8.42    2.86
  -8  16  -5    7.22    2.25
  -8  16   6    6.72    4.53
   8 -16   6   11.59    6.01
  -8 -16  -6   11.77    3.80
  -8  16   6    9.34    4.00
  -8  16  -6    6.55    2.85
  -8 -16   6    7.30    3.36
  -9 -16   0    0.08    0.91
   9 -16   0   -0.49    2.90
  -9  16   0   -0.29    1.27
  -9  16   0    0.31    1.44
   9 -16   1   22.63    4.08
  -9  16   1   15.88    2.32
  -9  16   1   15.67    2.30
  -9 -16  -1   15.87    1.96
  -9 -16   1   18.84    1.82
   9 -16  -1   22.07    4.23
  -9  16  -1   16.20    2.33
  -9  16  -1   21.92    2.91
  -9  16   2    0.64    1.62
  -9 -16  -2    3.59    1.28
   9 -16   2    0.54    3.17
  -9  16   2    1.68    1.66
  -9 -16   2    0.49    1.31
  -9  16  -2    3.11    2.14
  -9  16  -2    1.96    1.54
   9 -16  -2    1.34    3.57
  -9  16   3   10.67    2.57
  -9 -16  -3    7.83    1.77
  -9  16   3    6.53    2.48
   9 -16   3    9.75    3.98
  -9 -16   3    9.85    2.05
   9 -16  -3    1.62    3.74
  -9  16  -3   11.87    2.66
  -9  16  -3    8.95    2.10
  -9  16   4    0.09    2.45
  -9  16   4    0.04    2.91
   9 -16   4    0.68    4.31
  -9 -16  -4    2.55    1.93
  -9  16  -4    0.15    1.57
  -9 -16   4    2.90    1.95
  -9  16  -4   -2.49    3.11
  -9  16   5   -1.44    3.58
   9 -16   5   -1.41    5.38
  -9 -16  -5    2.70    2.51
  -9  16   5    3.03    2.99
  -9  16  -5    1.57    2.21
  -9 -16   5   -0.93    2.40
 -10  16   0   -0.06    1.47
  10 -16   0    0.45    3.45
 -10 -16   0    2.55    1.04
 -10  16   0    2.01    1.62
 -10  16   1   28.39    3.08
 -10 -16  -1   29.71    2.44
 -10  16   1   30.69    3.35
 -10  16  -1   41.02    3.64
 -10  16  -1   33.45    3.32
 -10 -16   1   29.15    2.17
 -10 -16  -2    2.17    1.37
  10 -16   2   -2.05    3.79
 -10  16   2    3.84    2.00
 -10  16   2    1.43    1.74
 -10 -16   2    0.21    1.52
 -10  16  -2    3.77    1.82
 -10  16  -2    2.43    2.36
  10 -16  -2    0.48    4.02
 -10  16   3   25.71    3.48
 -10 -16  -3   29.99    3.02
 -10  16   3   28.75    4.10
 -10  16  -3   25.95    3.37
 -10 -16   3   21.80    2.89
 -10  16  -3   29.58    3.72
 -10 -16  -4    2.00    1.79
 -10  16   4    1.16    3.00
 -10  16   4    3.83    2.63
  10 -16   4   -1.38    4.84
 -10  16  -4   -3.50    3.32
 -10 -16   4   -1.83    2.07
 -10  16  -4    3.63    2.09
  10 -16   5    2.94    6.03
 -10  16   5   24.44    4.00
 -10  16   5   21.11    5.21
 -10 -16  -5   21.21    3.40
 -10  16  -5   19.23    3.36
 -10 -16   5   24.71    3.48
  11 -16   0    1.91    4.15
 -11  16   0   -1.57    1.62
 -11  16   0   -0.91    1.55
 -11 -16   0    0.56    0.99
  11 -16   1   10.17    4.34
 -11  16   1    4.06    2.02
 -11  16   1    4.12    1.98
 -11 -16  -1    3.65    1.30
 -11  16  -1    4.25    2.13
 -11  16  -1    5.35    1.85
 -11 -16   1    5.69    1.15
 -11  16   2    1.90    1.91
 -11  16   2    0.25    2.03
 -11 -16  -2    2.20    1.45
  11 -16   2    3.38    4.65
 -11  16  -2   -0.57    2.32
 -11  16  -2    1.32    1.70
 -11 -16   2    2.10    1.42
 -11 -16  -3    0.38    1.64
 -11  16   3   -1.10    2.28
 -11  16   3    0.40    2.10
  11 -16   3    1.07    4.68
 -11  16  -3    3.04    1.84
 -11 -16   3    1.53    1.67
 -11  16  -3   -0.46    2.70
 -11 -16  -4    2.13    2.38
 -11 -16  -4   -0.86    1.84
 -11  16   4    0.22    3.10
 -11  16   4    2.85    2.55
 -11  16  -4    1.02    3.68
 -11  16  -4   -0.99    2.30
 -11 -16   4   -1.27    2.07
 -11 -16  -5    0.32    2.47
 -11  16   5   -0.85    3.17
 -11  16   5    3.94    3.94
 -11  16  -5   -3.24    2.62
 -11 -16   5    0.29    2.60
 -11  16  -5    7.67    4.79
 -12 -16   0   15.05    1.89
 -12  16   0   15.82    2.79
 -12  16   0   17.83    2.84
 -12 -16  -1    8.16    1.62
 -12  16   1    7.40    2.31
 -12  16   1    3.74    2.20
 -12  16  -1    6.53    2.45
 -12  16  -1    7.65    2.20
 -12  16   2    9.45    2.68
 -12  16   2   16.76    2.90
 -12 -16  -2   16.32    2.21
 -12  16  -2   15.51    3.34
 -12  16  -2   15.86    2.71
 -12  16   3   13.86    2.86
 -12  16   3    7.92    2.88
 -12 -16  -3    9.47    2.26
 -12  16  -3   10.75    2.54
 -12 -16   3   13.08    2.04
 -12  16  -3   14.03    3.58
 -12  16   4   15.11    3.34
 -12 -16  -4   17.22    2.89
 -12 -16  -4   19.72    3.18
 -12  16   4   12.05    3.87
 -12  16  -4    9.27    3.07
 -12  16  -4   24.50    4.86
 -13  16   0    2.46    2.15
 -13  16   0    1.43    1.97
 -13 -16   0   -1.57    1.18
 -13  16   1   -1.28    1.99
 -13  16   1   -1.43    2.12
 -13 -16  -1    0.22    1.44
 -13  16  -1    3.07    2.49
 -13  16  -1   -0.61    2.01
 -13  16   2   -1.99    2.24
 -13  16   2   -1.83    2.14
 -13 -16  -2    1.94    1.74
 -13  16  -2   -2.36    1.97
 -13  16  -2    0.49    2.88
 -13  16   3    4.26    3.32
 -13 -16  -3    1.11    1.97
 -13  16   3    0.81    2.42
 -13  16  -3    0.60    2.41
 -13  16  -3   -3.62    3.23
 -13  16   4    6.31    3.52
 -13  16   4    4.13    2.92
 -13 -16  -4    3.41    2.29
 -13  16  -4    7.03    4.88
 -13  16  -4    5.84    3.00
 -14  16   0   45.15    4.77
 -14  16   0   39.32    4.51
 -14 -16   0   36.64    2.83
 -14  16   1    1.50    2.43
 -14  16   1   -1.75    2.30
 -14 -16  -1    0.87    1.55
 -14  16  -1    0.72    2.22
 -14  16  -1    1.46    2.86
 -14 -16  -2   23.39    2.83
 -14  16   2   26.13    4.05
 -14  16   2   26.49    3.63
 -14  16  -2   29.34    4.05
 -14  16  -2   29.82    4.58
 -14  16   3    1.18    2.82
 -14 -16  -3    2.45    2.18
 -14  16   3    1.16    2.65
 -14  16  -3    3.09    2.53
 -14  16  -3    1.23    3.85
 -15  16   0   -0.84    2.81
 -15  16   0    5.41    2.67
 -15 -16   0    1.44    1.51
 -15 -16  -1    2.20    1.77
 -15  16   1    4.52    2.93
 -15  16   1   -0.79    2.57
 -15  16  -1    3.78    3.25
 -15  16  -1   -0.12    2.48
 -15  16   2    1.27    2.71
 -15 -16  -2    2.04    2.12
 -15  16   2   -4.40    2.82
 -15  16  -2    0.12    3.63
 -15  16  -2    7.81    3.24
   0 -17   0   -0.01    1.15
   0  17   0    0.37    0.62
   0 -17  -1   14.75    2.22
   0  17  -1   15.99    1.20
   0  17   1   13.37    1.39
   0 -17   1   11.25    2.15
   0 -17   2    1.87    1.69
   0  17  -2   -0.25    0.64
   0 -17  -2    1.33    1.31
   0 -17  -3   38.91    3.70
   0  17   3   31.47    3.01
   0 -17   3   39.29    4.21
   0  17   4    0.12    2.01
   0 -17  -4   -0.85    1.96
   0 -17   4   -1.24    2.35
   0  17   5   33.83    4.29
   0 -17   5   32.99    5.01
   0 -17  -5   33.66    4.71
   0  17   6   -3.84    3.08
   0 -17  -6    2.78    3.61
   0 -17   6   -0.58    3.56
   1 -17   0   -2.33    1.23
  -1  17   0    1.43    0.71
  -1 -17   0    0.73    1.22
   1  17   0    1.02    0.55
  -1 -17  -1    9.00    1.75
   1 -17   1    5.45    1.78
  -1  17   1    5.88    1.08
   1  17   1    6.35    1.13
  -1 -17   1    3.95    1.55
  -1  17  -1    9.17    1.12
   1 -17  -1    7.59    1.80
   1 -17   2    0.99    1.84
  -1  17   2    3.96    1.17
  -1 -17  -2    2.41    1.39
   1  17   2    2.51    0.89
  -1 -17   2   -0.21    1.53
  -1  17  -2    2.25    0.75
   1 -17  -2    0.04    1.41
  -1  17   3   13.16    2.18
   1 -17   3   11.96    2.90
  -1 -17  -3   11.59    2.19
   1  17   3   11.75    1.89
  -1  17  -3   13.36    1.49
   1 -17  -3   14.31    2.69
  -1 -17   3   12.11    2.66
  -1  17   4    0.84    2.06
   1 -17   4   -0.92    2.32
  -1 -17  -4    4.76    2.07
  -1 -17   4    0.88    2.36
   1  17   4    1.18    1.85
   1 -17  -4    1.83    2.12
  -1  17  -4    0.60    1.18
  -1  17   5   16.11    3.40
   1 -17   5    9.18    3.40
  -1 -17  -5   10.62    3.00
   1 -17  -5   13.21    3.27
   1  17   5   14.78    3.24
  -1 -17   5    4.91    3.21
   1 -17   6   -1.90    3.56
  -1  17   6    3.74    3.36
  -1 -17  -6    5.28    3.47
   1 -17  -6   -0.97    3.78
   1  17   6    1.65    3.45
  -1 -17   6    1.74    3.49
   2 -17   0   53.64    4.16
  -2  17   0   52.14    2.92
  -2 -17   0   51.29    3.60
  -2 -17  -1   32.78    2.86
   2 -17   1   34.16    3.39
   2 -17  -1   28.34    3.05
  -2  17  -1   28.99    1.98
  -2 -17   1   27.94    2.87
   2 -17   2   31.54    3.74
  -2  17   2   32.84    2.76
  -2 -17  -2   33.73    3.00
   2  17   2   33.74    2.00
   2 -17  -2   32.38    3.43
  -2 -17   2   36.24    3.31
  -2 -17  -3   21.90    2.78
  -2  17   3   16.98    2.54
   2 -17   3   16.45    3.19
   2 -17  -3   19.59    3.03
  -2 -17   3   17.78    2.97
   2  17   3   17.29    2.11
  -2  17  -3   16.18    1.85
   2 -17   4    8.86    3.32
  -2  17   4    9.30    2.74
  -2 -17  -4   12.65    2.56
   2  17   4   11.57    2.39
  -2 -17   4    6.58    2.67
  -2  17  -4   10.55    1.66
   2 -17  -4   12.45    2.88
   2 -17   5    8.96    3.70
  -2  17   5    2.75    2.85
  -2 -17  -5    3.48    2.54
   2  17   5    6.39    2.89
   2 -17  -5    8.69    3.16
  -2 -17   5    6.84    3.11
  -2 -17  -6   10.13    3.57
   2 -17   6    0.06    4.04
  -2  17   6    5.61    3.60
  -2 -17   6    6.93    3.78
   2  17   6    8.57    3.47
   2 -17  -6    0.51    4.10
  -3 -17   0   65.08    3.86
   3 -17   0   64.19    4.60
  -3  17   0   51.99    3.55
  -3  17   1    1.09    1.20
  -3  17   1    3.62    1.07
  -3 -17  -1    1.69    1.21
   3 -17   1    2.83    1.59
  -3 -17   1    1.55    1.21
  -3  17  -1    3.60    1.07
   3 -17  -1    0.77    1.51
  -3  17   2   49.10    3.50
  -3 -17  -2   46.16    3.48
   3 -17   2   48.90    4.46
  -3 -17   2   46.64    3.72
  -3  17  -2   47.56    2.86
   3 -17  -2   45.06    4.15
  -3 -17  -3    1.30    1.48
  -3  17   3   -1.03    1.58
  -3  17   3    1.54    1.64
   3 -17   3    1.63    2.23
   3  17   3    3.87    1.03
  -3 -17   3    2.47    1.93
   3 -17  -3    2.64    2.13
  -3  17  -3    0.68    1.06
  -3  17   4   17.24    3.36
   3 -17   4   16.95    3.75
  -3 -17  -4   16.26    2.78
   3  17   4   23.28    3.12
  -3 -17   4   15.98    3.29
   3 -17  -4   19.34    3.59
  -3  17  -4   20.21    2.40
  -3  17   5   -0.01    2.80
  -3  17   5    1.16    2.78
  -3 -17  -5    0.73    2.32
   3 -17   5   -3.76    3.13
  -3 -17   5   -1.10    2.52
   3 -17  -5    2.16    3.27
  -3  17  -5   -1.48    1.60
   3  17   5    1.49    2.65
   3 -17   6    3.46    4.14
  -3 -17  -6    0.82    2.86
  -3  17   6    7.19    3.76
   3  17   6    5.57    3.71
  -3  17  -6    2.63    2.23
  -3 -17   6    7.88    3.82
   3 -17  -6    2.30    4.78
  -4  17   0   76.89    4.16
   4 -17   0   79.37    5.36
  -4 -17   0   75.94    4.40
  -4 -17  -1    7.85    1.55
  -4  17   1    7.99    1.51
   4 -17   1   10.21    2.52
  -4  17  -1    9.40    1.43
   4 -17  -1    6.23    2.17
  -4 -17   1    8.02    1.64
  -4  17   2   53.42    3.74
  -4 -17  -2   50.76    3.58
   4 -17   2   51.35    4.80
  -4 -17   2   52.67    3.84
   4 -17  -2   53.72    4.55
  -4  17  -2   47.79    3.10
   4 -17   3    7.35    2.76
  -4  17   3    4.25    1.95
  -4 -17  -3    6.18    1.63
   4 -17  -3    5.11    2.44
  -4 -17   3    7.18    2.19
  -4  17  -3    6.99    1.43
   4 -17   4   13.67    3.61
  -4  17   4   14.44    3.34
  -4  17   4    7.37    2.59
  -4 -17  -4   16.14    2.79
  -4  17  -4   12.18    1.93
  -4 -17   4   11.06    2.98
   4 -17  -4   13.63    3.36
  -4 -17  -5    1.08    2.46
   4 -17   5    5.02    3.46
  -4  17   5    1.58    3.00
  -4  17   5    1.25    3.10
   4 -17  -5    3.39    3.85
   4  17   5    4.48    2.69
  -4 -17   5   -0.10    2.51
  -4  17  -5    4.21    1.82
  -4 -17  -6   -3.19    3.42
  -4  17   6    3.03    3.69
  -4  17   6   -3.25    3.54
   4 -17   6    3.52    4.35
  -4 -17   6    4.42    3.15
  -4  17  -6   -1.14    2.21
   4 -17  -6    1.31    5.11
   4  17   6   -3.41    3.81
  -5 -17   0   24.69    2.39
  -5  17   0   23.87    2.26
   5 -17   0   19.69    3.10
  -5  17   1    8.24    1.55
   5 -17   1    7.01    2.54
  -5 -17  -1    9.82    1.59
  -5  17  -1    6.36    1.37
  -5 -17   1    7.97    1.65
   5 -17  -1    6.63    2.38
  -5 -17  -2   16.68    2.26
  -5  17   2   20.24    2.63
   5 -17   2   21.04    3.48
  -5  17   2   17.38    2.11
   5 -17  -2   19.86    3.36
  -5 -17   2   20.33    2.76
  -5  17  -2   17.21    2.09
  -5 -17  -3    9.19    1.92
   5 -17   3    5.70    2.66
  -5  17   3   10.19    2.23
  -5  17   3    7.92    2.20
  -5 -17   3    4.99    2.15
  -5  17  -3    6.44    1.48
   5 -17  -3    9.72    2.96
  -5 -17  -4    8.70    2.24
  -5  17   4    7.04    2.82
  -5  17   4   -0.18    2.52
   5 -17   4    8.66    3.58
  -5  17  -4    6.17    1.70
   5 -17  -4   10.97    3.68
  -5 -17   4    5.59    2.47
  -5  17   5   11.74    3.66
  -5  17   5   -4.45    2.90
   5 -17   5    4.44    3.53
  -5 -17  -5    5.92    2.82
  -5 -17   5    5.49    2.92
   5 -17  -5   -8.54    4.08
  -5  17  -5    6.00    1.97
  -5  17   6   -2.17    3.78
  -5  17   6    8.91    3.87
   5 -17   6    4.72    4.80
  -5 -17  -6    3.61    3.67
  -5 -17   6    3.10    3.42
  -5  17  -6    5.03    2.49
   6 -17   0    1.64    2.11
  -6 -17   0   -0.30    1.04
  -6  17   0    0.85    1.31
  -6  17   0    2.06    1.09
  -6  17   1   30.63    2.86
  -6 -17  -1   33.19    2.66
  -6  17   1   35.62    2.83
   6 -17   1   33.25    4.23
  -6  17  -1   35.46    2.79
   6 -17  -1   41.19    4.44
  -6 -17   1   33.67    2.76
  -6  17   2    0.22    1.39
   6 -17   2    0.98    2.44
  -6 -17  -2    1.68    1.22
   6 -17  -2   -0.11    2.32
  -6  17  -2    1.12    1.52
  -6  17  -2    2.09    1.23
  -6 -17   2    1.66    1.40
  -6 -17  -3   34.63    3.18
  -6  17   3   38.76    3.76
   6 -17   3   32.79    4.54
  -6  17   3   33.91    3.88
   6 -17  -3   41.88    5.42
  -6 -17   3   37.98    3.72
  -6  17  -3   30.45    2.91
  -6  17   4    1.22    2.48
  -6 -17  -4    4.12    1.96
  -6  17   4    6.32    2.75
   6 -17   4    3.99    3.32
  -6 -17   4    4.23    2.28
   6 -17  -4    0.09    3.55
  -6  17  -4    2.11    1.66
   6 -17   5   27.05    4.99
  -6  17   5   11.76    3.87
  -6  17   5   20.90    3.96
  -6 -17  -5   28.34    3.87
  -6  17  -5   20.67    2.82
  -6 -17   5   27.70    3.95
  -6  17   6    4.30    4.33
   6 -17   6   14.75    5.51
  -6  17   6    0.33    3.91
  -6 -17  -6    5.46    3.67
  -6 -17   6    2.73    3.21
  -6  17  -6   -2.72    2.38
  -7  17   0    5.17    1.48
   7 -17   0    7.23    2.68
  -7 -17   0    4.06    1.26
  -7  17   0    3.89    1.56
  -7  17   1    5.43    1.93
  -7  17   1    3.54    1.45
   7 -17   1    6.69    2.96
  -7 -17  -1    7.28    1.44
  -7  17  -1    5.43    1.41
  -7 -17   1    3.96    1.30
  -7  17  -1    2.65    1.56
   7 -17  -1    9.21    2.80
  -7 -17  -2    2.20    1.31
   7 -17   2    0.84    2.53
  -7  17   2    2.03    1.70
  -7  17   2    1.84    1.67
  -7  17  -2    2.02    1.34
  -7  17  -2    0.61    1.76
  -7 -17   2    2.02    1.56
   7 -17  -2    3.25    2.97
  -7 -17  -3   11.88    2.15
  -7  17   3   10.50    2.46
  -7  17   3   17.59    2.72
   7 -17   3   13.99    3.54
   7 -17  -3   14.11    4.05
  -7  17  -3   11.52    1.95
  -7 -17   3   10.05    2.32
   7 -17   4    2.42    3.55
  -7  17   4    1.11    2.76
  -7 -17  -4    4.05    1.95
  -7  17   4    5.13    2.76
  -7  17  -4    0.86    1.60
   7 -17  -4    0.37    4.25
  -7 -17   4    3.67    2.24
  -7  17   5   18.10    3.74
  -7 -17  -5   16.01    3.04
  -7  17   5   11.53    3.96
   7 -17   5   18.28    5.08
  -7  17  -5   17.06    2.85
  -7 -17   5   13.85    3.36
  -7  17   6   -2.35    4.10
  -7 -17  -6    3.48    3.58
   7 -17   6   -6.33    5.25
  -7  17   6    1.15    4.19
  -7  17  -6    4.90    2.73
  -7 -17   6    1.31    3.23
  -8 -17   0   19.87    2.14
  -8  17   0   19.26    2.53
   8 -17   0   19.20    3.78
  -8  17   0   21.67    2.87
  -8  17   1    6.48    1.72
   8 -17   1    9.13    3.16
  -8 -17  -1    9.35    1.57
  -8  17   1   10.34    1.98
  -8 -17   1    8.21    1.51
  -8  17  -1   10.38    2.17
   8 -17  -1    8.58    3.42
  -8  17  -1    9.80    1.88
   8 -17   2   12.16    3.51
  -8  17   2   17.85    2.49
  -8 -17  -2   11.34    1.84
  -8  17   2   14.55    2.66
   8 -17  -2   13.35    3.63
  -8 -17   2   16.84    2.14
  -8  17  -2   12.82    2.07
  -8  17   3   16.98    2.75
  -8  17   3   16.63    3.10
   8 -17   3   10.54    3.94
  -8 -17  -3   16.34    2.38
  -8  17  -3    0.59    2.55
  -8 -17   3   15.63    2.50
  -8  17  -3   15.40    2.27
   8 -17  -3    1.11    4.08
   8 -17   4    7.21    4.23
  -8  17   4    4.28    2.98
  -8 -17  -4    5.01    2.17
  -8  17   4   10.06    2.94
   8 -17  -4   -0.99    4.89
  -8 -17   4    9.73    2.62
  -8  17  -4    6.91    2.13
  -8 -17  -5   14.61    3.12
  -8  17   5   13.11    3.60
  -8  17   5   11.84    4.12
   8 -17   5   15.70    5.42
  -8 -17   5   16.88    3.42
  -8  17  -5   16.09    2.91
  -9 -17   0   11.52    1.61
  -9  17   0    8.49    1.91
  -9  17   0   10.01    2.23
   9 -17   0   11.77    3.84
  -9  17   1    2.56    1.73
  -9 -17  -1    8.10    1.49
  -9  17   1    7.68    2.02
   9 -17   1   11.53    3.83
   9 -17  -1    6.81    3.67
  -9  17  -1    5.12    1.83
  -9 -17   1    6.39    1.34
  -9  17  -1    9.57    2.25
  -9  17   2    8.84    2.21
  -9  17   2   11.72    2.43
   9 -17   2   12.80    3.75
  -9 -17  -2    7.38    1.72
  -9  17  -2    6.64    2.49
  -9  17  -2    5.10    1.67
  -9 -17   2    9.95    1.80
   9 -17  -2   -5.39    3.84
   9 -17   3   12.61    4.50
  -9  17   3    7.01    2.43
  -9  17   3    5.69    2.60
  -9 -17  -3    5.20    1.93
   9 -17  -3    1.52    4.33
  -9  17  -3    4.50    1.80
  -9 -17   3    5.38    2.05
  -9  17  -3    1.28    2.63
  -9  17   4    8.33    2.80
  -9  17   4    3.55    2.89
   9 -17   4    6.80    4.61
  -9 -17  -4    5.73    2.19
  -9 -17   4    8.10    2.49
  -9  17  -4    0.26    3.40
  -9  17  -4    1.56    1.96
  -9  17   5    8.28    4.11
  -9 -17  -5    1.45    2.69
   9 -17   5    0.76    5.97
  -9  17   5    3.08    3.59
  -9 -17   5    6.94    2.81
  -9  17  -5    0.06    2.32
 -10 -17   0   56.80    3.30
 -10  17   0   59.77    4.36
 -10  17   0   49.37    4.19
 -10  17   1    2.11    1.82
  10 -17   1    0.53    4.05
 -10  17   1    3.06    1.93
 -10 -17  -1    2.92    1.32
 -10  17  -1    3.89    2.17
 -10  17  -1    1.28    1.63
  10 -17  -1   -5.13    4.01
 -10 -17   1    1.92    1.18
  10 -17   2   18.39    5.08
 -10  17   2   34.83    3.63
 -10  17   2   41.26    4.15
 -10 -17  -2   32.01    3.07
 -10 -17   2   38.58    3.39
 -10  17  -2   39.29    3.67
 -10  17  -2   41.77    4.62
 -10  17   3    0.00    2.08
  10 -17   3    1.72    4.67
 -10  17   3    1.69    2.20
 -10 -17  -3    1.69    1.77
 -10  17  -3    1.97    2.91
 -10 -17   3   -1.06    1.79
 -10  17  -3    2.08    1.87
  10 -17   4   -5.54    4.94
 -10  17   4   18.91    3.96
 -10 -17  -4    9.88    2.53
 -10  17   4   10.25    3.06
 -10  17  -4   14.46    2.80
 -10 -17   4   15.22    2.71
 -10  17  -4   -4.05    3.52
 -10  17   5    6.96    3.82
 -10 -17  -5   -2.83    2.56
  10 -17   5    4.15    6.30
 -10  17   5   -2.28    3.34
 -10  17  -5    1.94    2.62
 -10 -17   5    2.66    2.74
 -11 -17   0   36.46    2.70
 -11  17   0   34.56    3.66
 -11  17   0   37.19    4.01
  11 -17   1    3.42    4.29
 -11  17   1    1.14    1.96
 -11  17   1    1.80    1.82
 -11 -17  -1    1.06    1.34
 -11  17  -1    0.67    2.25
 -11  17  -1   -0.80    1.78
 -11 -17   1   -0.80    1.18
 -11 -17  -2   23.93    2.99
 -11  17   2   19.39    3.12
 -11  17   2   22.15    3.05
 -11  17  -2   23.89    3.19
 -11  17  -2   22.31    3.60
 -11 -17   2   29.12    2.83
 -11 -17  -3    2.85    1.89
  11 -17   3    6.80    5.20
 -11  17   3   -0.63    2.49
 -11  17   3    4.74    2.33
 -11  17  -3    0.88    3.25
 -11  17  -3    3.92    2.14
 -11 -17   3    6.66    1.94
 -11 -17  -4    7.91    2.48
 -11  17   4    9.72    3.86
 -11  17   4   11.88    3.25
 -11  17  -4   -1.23    3.99
 -11 -17   4   14.15    2.71
 -11  17  -4    8.81    2.67
 -12 -17   0    6.36    1.50
 -12  17   0    5.33    2.48
 -12  17   0    6.50    2.10
 -12 -17  -1   18.68    2.17
 -12  17   1   14.37    2.95
 -12  17   1   20.71    3.14
 -12 -17   1   15.10    2.12
 -12  17  -1   11.32    2.58
 -12  17  -1   15.00    3.16
 -12  17   2   10.28    2.86
 -12 -17  -2    4.41    1.83
 -12  17   2    6.77    2.51
 -12  17  -2    5.97    3.29
 -12  17  -2    6.32    2.26
 -12  17   3   13.59    2.95
 -12 -17  -3   16.42    2.67
 -12  17   3   12.78    3.37
 -12 -17   3   15.32    2.25
 -12  17  -3   15.58    2.90
 -12  17  -3   22.74    4.24
 -12  17   4    5.57    2.96
 -12 -17  -4    2.17    2.37
 -12  17   4    9.24    3.46
 -12  17  -4   -4.79    4.49
 -12  17  -4    7.10    2.68
 -13  17   0    1.24    2.07
 -13  17   0    0.99    2.45
 -13 -17   0   -0.15    1.41
 -13  17   1    6.68    2.67
 -13  17   1    5.67    2.29
 -13 -17  -1    6.85    1.78
 -13  17  -1   10.21    3.14
 -13  17  -1    4.07    2.35
 -13  17   2   -1.49    2.37
 -13  17   2   -0.58    2.52
 -13 -17  -2   -0.37    1.80
 -13  17  -2    0.69    2.32
 -13  17  -2    1.90    3.22
 -13  17   3    3.48    2.91
 -13 -17  -3    3.89    2.20
 -13  17   3    8.07    3.01
 -13  17  -3    9.96    4.25
 -13  17  -3    8.09    2.77
 -14  17   0    6.90    3.01
 -14 -17   0    5.42    1.74
 -14  17   0    2.76    2.31
 -14  17   1   11.14    3.04
 -14  17   1   14.81    3.10
 -14 -17  -1   13.52    2.18
 -14  17  -1   17.48    3.87
 -14  17  -1   10.34    2.77
 -14  17   2    5.29    2.86
 -14 -17  -2    3.98    2.07
 -14  17   2    9.90    3.12
 -14  17  -2    9.46    3.99
 -14  17  -2    1.13    2.75
 -15  17   0    5.09    2.80
 -15  17   0    5.24    3.32
 -15 -17   0    5.60    2.41
 -15 -17  -1    3.26    2.04
   0 -18   0    1.45    1.48
   0  18   0    1.08    0.69
   0  18  -1   -0.23    0.63
   0 -18  -1    0.44    1.43
   0  18   1   -0.49    0.66
   0 -18   1    1.71    1.63
   0 -18   2    4.09    2.11
   0 -18  -2    7.49    2.04
   0  18   2    4.05    1.19
   0 -18   3    2.39    2.23
   0  18   3   -0.38    1.28
   0 -18  -3    2.30    1.67
   0 -18   4   10.35    3.30
   0  18   4   11.20    2.55
   0 -18  -4   11.34    2.78
   0 -18   5    2.30    3.21
   0 -18  -5    1.73    2.71
   0  18   5   -3.65    2.53
   0 -18  -6    5.16    3.84
   0 -18   6    5.19    4.00
   0  18   6    9.89    3.96
  -1 -18   0   70.77    4.73
  -1  18   0   76.88    3.63
   1 -18   0   69.33    4.92
  -1 -18  -1   21.38    2.75
   1 -18   1   23.74    3.17
  -1  18   1   20.71    2.09
  -1  18  -1   26.17    1.78
   1 -18  -1   25.83    3.17
  -1 -18   1   23.92    3.09
   1  18   1   25.61    1.62
  -1  18   2   51.76    3.24
  -1 -18  -2   50.84    3.95
   1 -18   2   53.43    4.71
  -1 -18   2   54.03    4.49
  -1  18  -2   54.24    2.82
   1 -18  -2   54.47    4.36
   1 -18   3   13.66    3.09
  -1  18   3    8.46    1.92
  -1 -18  -3   10.54    2.47
  -1 -18   3   12.57    2.96
   1  18   3   11.46    1.71
   1 -18  -3   12.32    2.76
  -1  18   4   17.35    3.02
   1 -18   4   15.14    3.65
  -1 -18  -4   20.65    3.31
   1 -18  -4   19.64    3.40
  -1 -18   4   17.86    3.53
   1  18   4   16.95    2.68
  -1 -18  -5    3.98    2.77
   1 -18   5    3.93    3.26
  -1  18   5    1.91    2.80
   1 -18  -5    5.31    3.29
  -1 -18   5    3.05    3.32
   1  18   5    4.74    2.76
  -1  18   6    6.54    4.08
   1 -18   6    3.23    4.14
  -1 -18  -6   10.26    3.98
   1 -18  -6    6.97    4.22
   1  18   6    3.07    3.91
  -1 -18   6    9.18    4.33
  -2 -18   0    0.16    1.22
  -2  18   0    0.38    0.87
   2 -18   0    0.13    1.67
  -2 -18  -1   24.43    2.77
  -2  18   1   23.58    2.10
   2 -18   1   24.66    3.31
  -2  18  -1   19.12    2.03
  -2 -18   1   21.51    2.84
   2 -18  -1   23.36    3.04
  -2  18   2    0.75    1.21
   2 -18   2    1.53    1.91
  -2 -18  -2    0.76    1.49
   2  18   2   -0.45    0.68
   2 -18  -2   -0.74    1.61
  -2  18  -2    0.79    0.91
  -2 -18   2    0.58    1.62
   2 -18   3   15.96    3.14
  -2 -18  -3    6.94    2.02
  -2  18   3   10.90    2.07
  -2  18  -3   12.91    1.63
   2 -18  -3    8.77    2.66
  -2 -18   3   11.49    2.81
   2  18   3   13.23    1.64
  -2  18   4   -1.57    1.99
   2 -18   4    2.84    2.96
  -2 -18  -4    3.61    2.12
  -2 -18   4    1.98    2.57
  -2  18  -4    2.94    1.52
   2  18   4    0.97    1.71
   2 -18  -4    3.05    2.45
  -2  18   5    4.40    2.73
   2 -18   5   -1.58    3.18
  -2 -18  -5    1.03    2.46
  -2 -18   5    0.83    2.98
   2  18   5    6.35    2.77
   2 -18  -5    0.78    3.24
  -2  18  -5    1.56    2.05
   2 -18   6    1.36    4.29
  -2 -18  -6   -1.89    3.29
  -2  18   6    5.90    4.07
  -2 -18   6    7.37    3.99
   2 -18  -6    1.85    4.52
   2  18   6    5.05    3.82
   3 -18   0    0.86    1.64
  -3 -18   0    0.00    1.26
  -3  18   0   -0.20    0.86
  -3 -18  -1   27.96    2.81
   3 -18   1   28.76    3.68
  -3  18   1   25.36    2.31
  -3  18  -1   27.14    2.11
  -3 -18   1   22.70    2.88
   3 -18  -1   28.98    3.58
  -3 -18  -2    3.03    1.54
  -3  18   2   -1.75    1.42
  -3  18   2    0.73    1.23
   3 -18   2    0.12    1.97
  -3  18  -2    0.14    0.93
   3 -18  -2    0.62    1.79
  -3 -18   2    2.02    1.54
  -3  18   3   33.12    3.53
  -3 -18  -3   36.85    3.58
   3 -18   3   37.09    4.79
  -3 -18   3   37.60    4.19
   3 -18  -3   42.28    4.34
  -3  18  -3   34.02    2.76
  -3  18   4    0.70    3.71
  -3  18   4   -0.96    2.29
  -3 -18  -4   -1.78    1.79
   3 -18   4   -2.77    2.84
   3 -18  -4   -0.21    2.66
  -3 -18   4    2.48    2.51
   3  18   4   -3.04    1.51
  -3 -18  -5   27.28    3.84
   3 -18   5   32.44    5.44
  -3  18   5   25.12    4.48
  -3 -18   5   24.01    4.13
  -3  18  -5   22.68    2.64
   3  18   5   29.48    3.59
   3 -18  -5   23.93    4.68
   3 -18   6    3.89    4.47
  -3  18   6    4.62    3.99
  -3 -18  -6    1.37    3.33
   3 -18  -6   15.66    5.51
  -3 -18   6    4.54    3.78
   3  18   6    4.33    3.81
  -4  18   0    0.60    0.92
  -4 -18   0    1.05    1.30
   4 -18   0    0.03    1.95
  -4  18   0    1.23    1.41
  -4  18   1   17.45    2.22
   4 -18   1   21.25    3.44
  -4 -18  -1   19.27    2.45
  -4 -18   1   20.37    2.58
   4 -18  -1   20.29    3.31
  -4  18  -1   19.01    2.00
  -4  18   2    0.51    1.47
  -4  18   2    0.52    1.27
  -4 -18  -2   -0.13    1.29
   4 -18   2    2.18    2.25
  -4  18  -2    1.37    1.03
  -4 -18   2    3.47    1.65
   4 -18  -2    1.71    2.14
   4 -18   3    9.48    3.05
  -4  18   3   13.72    2.52
  -4 -18  -3   11.54    2.24
  -4  18  -3   10.88    1.72
  -4 -18   3   16.61    2.79
   4 -18  -3    7.82    2.83
   4 -18   4   -3.60    2.65
  -4  18   4    4.27    2.36
  -4  18   4   -0.80    2.52
  -4 -18  -4    2.91    2.08
   4 -18  -4    0.72    2.98
  -4  18  -4    1.13    1.53
  -4 -18   4    0.46    2.41
  -4  18   5    4.37    3.40
  -4 -18  -5    2.46    2.43
   4 -18   5    3.10    3.67
  -4  18   5    0.81    3.30
  -4  18  -5    4.56    1.97
  -4 -18   5    4.59    2.97
   4 -18  -5   -5.25    3.95
   4  18   5   -2.62    2.11
   4 -18   6    4.74    4.72
  -4 -18  -6   -1.68    3.18
  -4  18   6    1.94    3.86
   4 -18  -6   -1.47    5.58
  -4 -18   6    0.47    3.48
   4  18   6   -3.51    4.06
  -4  18  -6   -4.78    2.42
   5 -18   0   10.39    2.63
  -5 -18   0   11.46    1.97
  -5  18   0   13.50    1.79
  -5 -18  -1   25.37    2.67
  -5  18   1   21.67    2.49
   5 -18   1   23.05    3.58
   5 -18  -1   25.85    3.74
  -5 -18   1   19.29    2.59
  -5  18  -1   25.10    2.32
  -5 -18  -2   10.81    1.94
   5 -18   2   15.65    3.29
  -5  18   2   12.21    2.06
  -5 -18   2   10.95    2.17
   5 -18  -2   10.65    3.02
  -5  18  -2   11.10    1.73
  -5  18   3   22.24    3.08
   5 -18   3   16.20    3.62
  -5 -18  -3   21.17    2.81
   5 -18  -3   17.48    3.68
  -5  18  -3   17.65    2.34
  -5 -18   3   18.53    3.00
  -5 -18  -4    5.78    2.39
  -5  18   4    9.07    2.90
  -5  18   4    4.43    2.77
   5 -18   4   10.25    3.87
   5 -18  -4   14.16    4.17
  -5  18  -4   11.26    2.02
  -5 -18   4    3.35    2.59
  -5 -18  -5   13.48    3.29
   5 -18   5   13.35    4.33
  -5  18   5    8.81    3.68
   5 -18  -5    6.25    4.95
  -5 -18   5    9.59    3.35
  -5  18  -5   10.55    2.30
  -5  18   6    0.97    3.92
   5 -18   6    1.29    4.89
  -5 -18  -6    5.31    3.34
  -5  18  -6    7.14    2.80
  -5 -18   6    5.36    3.70
  -6 -18   0   -0.14    1.18
  -6  18   0    1.52    1.53
   6 -18   0    0.71    2.25
  -6  18   0    0.56    1.07
  -6  18   1    0.40    1.47
  -6  18   1    3.40    1.43
   6 -18   1   -0.73    2.30
  -6 -18  -1    4.09    1.41
  -6 -18   1    2.92    1.45
  -6  18  -1   -2.08    1.53
  -6  18  -1    2.49    1.25
   6 -18  -1    2.06    2.47
  -6 -18  -2    4.37    1.46
   6 -18   2   -0.01    2.45
  -6  18   2    0.19    1.62
  -6  18   2    2.75    1.72
   6 -18  -2    5.50    2.90
  -6  18  -2    4.89    1.48
  -6 -18   2    4.51    1.75
  -6 -18  -3   -2.10    1.37
   6 -18   3    0.62    2.64
  -6  18   3    2.87    1.98
  -6  18   3   -0.56    2.09
  -6 -18   3    2.25    1.96
   6 -18  -3    2.76    3.02
  -6  18  -3   -1.98    1.19
  -6  18   4    0.69    2.68
  -6  18   4    8.52    3.02
  -6 -18  -4    6.95    2.40
   6 -18   4   10.33    3.76
  -6  18  -4    8.67    2.06
  -6 -18   4   13.20    2.97
   6 -18  -4    3.14    4.28
  -6  18   5   -1.14    3.16
  -6  18   5    0.54    3.55
   6 -18   5    3.58    4.03
  -6 -18  -5    4.38    2.65
   6 -18  -5    0.67    5.15
  -6 -18   5   -3.72    2.75
  -6  18  -5    1.74    1.97
  -7  18   0   76.55    4.72
   7 -18   0   84.08    6.57
  -7 -18   0   84.90    4.65
   7 -18   1    3.63    2.84
  -7  18   1   -0.12    1.66
  -7 -18  -1   -0.41    1.25
  -7  18   1    1.96    1.50
  -7 -18   1   -0.59    1.30
  -7  18  -1    1.71    1.27
   7 -18  -1    2.40    2.67
  -7  18   2   56.61    4.02
  -7  18   2   56.55    4.25
  -7 -18  -2   49.58    3.80
   7 -18   2   56.21    5.96
  -7  18  -2   49.81    3.69
   7 -18  -2   56.14    5.95
  -7 -18   2   50.82    3.85
  -7 -18  -3    4.38    1.76
  -7  18   3    1.34    2.10
  -7  18   3   -2.11    2.05
   7 -18   3    2.94    3.12
  -7  18  -3    0.61    1.40
   7 -18  -3   -0.73    3.44
  -7 -18   3    0.03    2.04
  -7 -18  -4   21.84    3.10
   7 -18   4   21.86    4.99
  -7  18   4   24.04    3.95
  -7  18   4   24.50    3.72
  -7 -18   4   25.25    3.60
  -7  18  -4   20.80    2.81
  -7  18   5   -1.22    3.51
  -7  18   5    0.28    3.29
  -7 -18  -5   -2.29    2.57
   7 -18   5    5.78    4.52
  -7  18  -5    1.26    2.16
  -7 -18   5    1.82    3.04
  -8  18   0    1.81    1.45
  -8  18   0    3.93    1.91
   8 -18   0    2.80    3.31
  -8 -18   0    2.50    1.33
  -8  18   1   11.36    2.34
   8 -18   1   11.26    3.67
  -8  18   1    8.91    2.06
  -8 -18  -1   11.65    1.82
  -8  18  -1    3.28    2.18
   8 -18  -1    6.91    3.76
  -8 -18   1    8.96    1.78
  -8  18  -1    9.82    2.00
  -8  18   2    3.75    1.88
  -8 -18  -2    2.03    1.49
  -8  18   2    1.50    1.99
   8 -18   2    3.52    3.34
  -8  18  -2    5.84    1.76
  -8 -18   2    2.65    1.78
   8 -18  -2    4.93    3.53
  -8  18  -2   -0.03    2.29
  -8  18   3    1.16    2.32
   8 -18   3    7.18    4.02
  -8 -18  -3    6.12    1.90
  -8  18   3    6.56    2.46
  -8 -18   3    7.16    2.26
   8 -18  -3   -3.07    4.24
  -8  18  -3    2.20    1.62
  -8  18  -3    2.41    3.91
  -8  18   4    8.41    3.05
   8 -18   4    9.85    4.43
  -8 -18  -4    6.93    2.25
  -8  18   4    6.02    2.95
  -8 -18   4    7.67    2.73
  -8  18  -4    4.14    2.02
   8 -18   5    6.70    5.29
  -8  18   5   -0.67    3.34
  -8  18   5    5.89    3.71
  -8 -18  -5    3.89    2.81
  -8 -18   5    2.09    2.98
  -8  18  -5    2.23    2.34
  -9 -18   0    7.21    1.65
  -9  18   0    3.89    2.12
   9 -18   0   10.86    3.95
  -9  18   0    3.06    1.64
  -9 -18  -1   25.90    2.77
   9 -18   1   25.72    4.84
  -9  18   1   24.61    3.07
  -9  18   1   28.48    3.22
  -9  18  -1   23.40    2.92
   9 -18  -1   32.52    5.29
  -9 -18   1   29.14    2.76
   9 -18   2    5.63    3.97
  -9 -18  -2    5.79    1.78
  -9  18   2    1.75    2.12
  -9  18   2    3.40    1.82
  -9  18  -2    2.77    2.57
  -9 -18   2    4.97    2.00
   9 -18  -2   -3.77    4.30
  -9  18  -2    5.41    1.88
  -9  18   3   20.52    3.29
  -9 -18  -3   19.23    2.76
  -9  18   3   20.63    3.17
   9 -18   3   27.64    5.49
   9 -18  -3    9.74    4.98
  -9 -18   3   20.64    2.85
  -9  18  -3   21.93    2.82
  -9 -18  -4    4.70    2.26
   9 -18   4   11.38    5.02
  -9  18   4    2.50    2.83
  -9  18   4    1.09    2.62
  -9 -18   4    9.72    2.74
  -9  18  -4    3.86    2.21
  -9 -18  -5   17.30    3.41
  -9  18   5    8.53    4.02
   9 -18   5    5.28    6.42
  -9  18   5   10.55    3.99
  -9  18  -5   19.90    3.39
  -9 -18   5   11.10    3.37
 -10 -18   0    0.90    1.41
  10 -18   0   -1.61    4.36
 -10  18   0   -1.49    2.15
 -10  18   0   -0.66    1.53
 -10  18   1   19.71    2.94
 -10  18   1   13.74    2.64
 -10 -18  -1   17.24    2.22
 -10  18  -1   16.20    2.62
 -10  18  -1   19.85    3.21
 -10 -18   1   18.14    2.53
 -10  18   2    1.63    1.92
 -10 -18  -2   -1.35    1.61
  10 -18   2   -5.46    4.47
 -10  18   2   -1.88    2.09
 -10  18  -2    1.59    1.78
  10 -18  -2    0.06    5.34
 -10  18  -2    1.88    2.82
 -10 -18   2    3.78    2.04
  10 -18   3   -2.82    4.87
 -10  18   3    4.89    2.62
 -10  18   3    7.89    2.66
 -10 -18  -3    6.35    2.12
 -10  18  -3    1.15    3.27
 -10 -18   3   10.74    2.38
 -10  18  -3    6.20    2.18
  10 -18   4   -1.03    5.51
 -10 -18  -4   -1.93    2.22
 -10  18   4   -1.22    2.63
 -10  18   4    2.30    2.96
 -10 -18   4   -3.61    2.32
 -10  18  -4    1.63    2.27
 -11  18   0    7.20    2.11
 -11 -18   0    3.26    1.60
  11 -18   0   -3.85    5.10
 -11  18   0    9.15    2.75
  11 -18   1    9.44    5.01
 -11  18   1    9.15    2.65
 -11  18   1    7.82    2.21
 -11 -18  -1   14.28    2.08
 -11  18  -1   10.06    2.33
 -11  18  -1   12.10    3.17
 -11 -18   1   12.63    1.93
 -11  18   2    5.14    2.48
 -11  18   2    4.86    2.23
 -11 -18  -2    3.63    1.85
  11 -18   2    9.30    5.11
 -11  18  -2    4.45    2.09
 -11 -18   2    7.93    2.00
 -11  18  -2    6.56    3.27
 -11 -18  -3   14.57    2.68
 -11  18   3   12.15    3.14
 -11  18   3   14.00    3.07
  11 -18   3    9.27    5.56
 -11  18  -3   -2.64    3.52
 -11  18  -3   14.55    2.80
 -11 -18   3   14.61    2.43
 -11  18   4    2.92    3.11
 -11  18   4    4.28    3.17
 -11 -18  -4    2.67    2.36
 -11 -18   4    2.79    2.57
 -11  18  -4    3.06    2.51
 -12 -18   0    2.63    1.64
 -12  18   0    1.77    1.99
 -12  18   0   -1.99    2.54
 -12  18   1    3.82    2.10
 -12 -18  -1    2.06    1.71
 -12  18   1    3.93    2.55
 -12 -18   1    5.62    1.78
 -12  18  -1    0.51    3.01
 -12  18  -1    1.91    2.08
 -12 -18  -2    0.23    1.86
 -12  18   2    1.59    2.56
 -12  18   2   -1.90    2.05
 -12  18  -2    3.14    3.25
 -12  18  -2   -0.87    2.02
 -12  18   3    4.73    2.91
 -12  18   3    2.37    2.70
 -12 -18  -3    7.26    2.34
 -12  18  -3    4.27    4.11
 -12 -18   3    3.69    2.14
 -12  18  -3    2.30    2.32
 -13  18   0   15.85    2.85
 -13  18   0   22.73    3.65
 -13 -18   0   22.06    2.44
 -13  18   1    2.96    2.82
 -13 -18  -1    0.34    1.80
 -13  18   1    4.79    2.36
 -13  18  -1    5.31    3.35
 -13  18  -1    3.35    2.23
 -13  18   2   16.31    3.46
 -13 -18  -2   15.23    2.60
 -13  18   2   13.90    3.53
 -13  18  -2   17.19    4.05
 -13  18  -2   18.27    3.32
 -14  18   0   -2.38    2.17
 -14 -18   0   -0.06    2.02
 -14  18   0    2.45    3.26
 -14  18   1    1.32    2.55
 -14 -18  -1    4.44    2.17
 -14  18   1   -2.78    2.96
 -14  18  -1   -1.91    3.64
 -14  18  -1    0.35    2.39
   0  19   0    1.05    0.70
   0 -19   0   -1.32    1.49
   0 -19  -1    1.27    1.52
   0 -19   1    2.28    1.76
   0 -19   2   -1.54    1.94
   0 -19  -2   -2.84    1.49
   0  19   2    0.24    1.03
   0 -19   3    3.65    2.41
   0  19   3    0.23    1.35
   0 -19  -3    3.92    2.15
   0  19   4    0.26    1.84
   0 -19  -4   -3.17    2.24
   0 -19   4   -1.39    2.67
   0  19   5    4.08    2.83
   0 -19   5    1.17    3.50
   0 -19  -5    3.48    3.19
   0 -19  -6   -4.53    4.04
   0 -19   6   -1.99    3.95
   0  19   6    4.27    3.80
   1 -19   0    1.94    1.78
  -1 -19   0    0.28    1.41
  -1  19   0    0.79    1.11
  -1 -19  -1   60.13    4.53
  -1  19   1   63.75    3.41
   1 -19   1   65.97    4.94
  -1  19  -1   61.70    3.26
  -1 -19   1   63.96    4.69
   1 -19  -1   58.30    4.69
  -1  19   2    2.46    1.18
   1 -19   2   -1.60    2.04
  -1 -19  -2    3.70    1.66
   1  19   2    2.44    1.02
   1 -19  -2    1.16    1.90
  -1  19  -2    0.48    0.92
  -1 -19   2    0.61    1.88
  -1 -19  -3   37.78    4.13
   1 -19   3   46.83    5.03
  -1  19   3   42.43    3.35
   1  19   3   42.01    2.99
   1 -19  -3   35.27    4.30
  -1 -19   3   43.13    4.85
   1 -19   4    3.39    3.22
  -1  19   4    6.24    2.23
  -1 -19  -4    9.83    2.98
  -1 -19   4    6.64    3.11
   1 -19  -4    9.53    3.14
   1  19   4    8.11    2.04
  -1 -19  -5   18.06    3.76
  -1  19   5   19.41    3.67
   1 -19   5   13.21    4.25
   1  19   5   17.65    3.32
  -1 -19   5   12.77    4.10
   1 -19  -5   14.61    3.86
  -1 -19  -6   14.24    4.18
   1 -19   6    9.56    4.88
  -1  19   6   11.16    4.31
   1  19   6   14.06    4.32
   1 -19  -6    4.59    4.70
  -1 -19   6   14.49    4.81
  -2 -19   0    1.34    1.42
   2 -19   0   -0.25    1.75
  -2  19   0   -0.13    0.90
   2 -19   1    0.30    1.70
  -2  19   1    0.62    0.97
  -2 -19  -1   -0.97    1.41
   2 -19  -1   -0.38    1.79
  -2  19  -1    0.08    0.90
  -2 -19   1   -3.37    1.51
   2 -19   2    5.12    2.33
  -2 -19  -2    1.44    1.53
  -2  19   2    1.06    1.15
   2 -19  -2    0.17    1.85
  -2  19  -2   -0.54    1.01
  -2 -19   2    2.49    1.98
  -2  19   3   -0.49    1.50
  -2 -19  -3   -0.27    1.91
   2 -19   3   -1.60    2.39
   2 -19  -3    0.79    2.37
   2  19   3    0.83    1.20
  -2 -19   3   -2.90    2.05
  -2  19  -3   -0.82    1.21
  -2 -19  -4    2.01    2.34
  -2  19   4    0.62    2.14
   2 -19   4   -3.37    2.80
   2  19   4    0.95    1.70
   2 -19  -4   -2.33    2.57
  -2 -19   4   -2.38    2.49
  -2  19  -4   -0.51    1.43
   2 -19   5   -2.18    3.52
  -2 -19  -5    0.75    2.85
  -2  19   5   -5.80    2.75
  -2 -19   5   -1.72    3.04
   2 -19  -5    6.30    3.60
   2  19   5   -1.30    2.48
  -2  19   6    2.45    3.78
   2 -19   6    3.20    4.58
  -2 -19  -6    1.20    3.77
   2  19   6   -2.32    3.76
  -2 -19   6    2.39    3.90
   2 -19  -6    5.49    5.16
   3 -19   0   33.51    4.03
  -3  19   0   33.54    2.50
  -3 -19   0   34.00    3.30
  -3 -19  -1    5.28    1.75
  -3  19   1    7.29    1.43
   3 -19   1    5.40    2.42
  -3 -19   1    5.18    1.90
   3 -19  -1    3.28    2.34
  -3 -19  -2   34.25    3.46
  -3  19   2   32.90    2.96
   3 -19   2   40.17    4.56
  -3  19  -2   37.85    2.65
  -3 -19   2   35.06    3.83
   3 -19  -2   35.86    4.22
  -3 -19  -3    2.89    1.97
  -3  19   3    2.83    1.76
   3 -19   3    2.75    2.80
   3 -19  -3    0.36    2.34
  -3  19  -3    1.94    1.40
  -3 -19   3    2.59    2.35
  -3 -19  -4   28.96    3.85
  -3  19   4   33.16    4.15
   3 -19   4   33.60    5.29
   3 -19  -4   29.00    4.40
  -3 -19   4   32.72    4.38
  -3  19  -4   27.21    3.00
   3 -19   5   -2.63    3.66
  -3  19   5    0.83    3.11
  -3 -19  -5    2.62    2.72
  -3  19  -5    0.84    2.19
   3 -19  -5   -2.82    3.72
   3  19   5   -3.38    2.20
  -3 -19   5    2.09    3.25
  -3  19   6   23.99    5.20
   3 -19   6   31.31    6.32
  -3 -19  -6   21.49    4.54
  -3 -19   6   24.02    4.90
   3 -19  -6    6.64    6.05
   3  19   6   -0.18    4.01
  -4  19   0   -0.67    1.04
   4 -19   0    4.94    2.27
  -4 -19   0    0.41    1.48
  -4  19   1    1.53    1.15
  -4 -19  -1   -0.85    1.33
   4 -19   1    1.90    2.19
   4 -19  -1    1.01    2.24
  -4  19  -1    1.36    1.08
  -4 -19   1    0.20    1.44
  -4  19   2    0.36    1.27
  -4 -19  -2    0.69    1.46
   4 -19   2   -1.28    2.42
  -4  19  -2    0.62    1.14
  -4 -19   2   -1.48    1.62
   4 -19  -2    0.99    2.42
  -4  19   3   -2.99    1.64
   4 -19   3   -0.77    2.66
  -4 -19  -3   -2.06    1.67
   4 -19  -3   -0.54    2.54
  -4 -19   3   -1.18    2.00
  -4  19  -3   -0.44    1.28
  -4 -19  -4    1.25    2.10
   4 -19   4   -1.73    3.23
  -4  19   4    1.02    2.25
  -4 -19   4   -0.66    2.58
   4 -19  -4    2.44    3.27
  -4  19  -4    2.02    1.71
  -4  19   5   -1.73    2.82
   4 -19   5    3.57    3.83
  -4 -19  -5   -2.43    2.47
   4 -19  -5   -3.01    4.34
  -4 -19   5   -1.80    2.99
  -4  19  -5   -2.77    2.10
  -5  19   0   11.24    1.75
   5 -19   0   12.34    2.97
  -5 -19   0   10.52    2.07
   5 -19   1   57.12    5.50
  -5 -19  -1   54.36    3.98
  -5  19   1   51.39    3.66
  -5 -19   1   51.78    3.88
  -5  19  -1   48.53    3.31
   5 -19  -1   46.85    4.87
   5 -19   2   13.07    3.35
  -5 -19  -2   15.09    2.41
  -5  19   2   14.45    2.25
  -5 -19   2   14.77    2.56
  -5  19  -2   19.75    2.28
   5 -19  -2   14.48    3.38
  -5 -19  -3   21.94    3.00
   5 -19   3   22.46    4.04
  -5  19   3   29.70    3.55
  -5 -19   3   32.45    4.04
   5 -19  -3   19.84    4.00
  -5  19  -3   24.23    2.75
  -5 -19  -4   18.56    3.09
  -5  19   4   19.45    3.37
   5 -19   4   15.71    4.48
   5 -19  -4   17.14    4.51
  -5 -19   4   19.28    3.80
  -5  19  -4   25.40    3.24
   5 -19   5    4.66    4.24
  -5 -19  -5    0.46    2.61
  -5  19   5   12.10    3.60
  -5 -19   5    8.85    3.50
  -5  19  -5    9.27    2.52
   5 -19  -5    1.83    5.07
   6 -19   0   -0.78    2.46
  -6 -19   0    0.71    1.33
  -6  19   0   -0.59    1.11
  -6  19   0   -2.14    1.72
   6 -19   1    4.54    2.83
  -6 -19  -1    3.40    1.57
  -6  19   1    3.05    1.55
  -6  19  -1    2.56    1.38
  -6 -19   1    2.75    1.64
   6 -19  -1    1.02    2.67
  -6  19   2    2.80    2.05
  -6  19   2    0.24    1.53
   6 -19   2   -0.95    2.62
  -6 -19  -2   -0.47    1.50
   6 -19  -2   -1.89    2.89
  -6  19  -2    0.53    1.28
  -6 -19   2   -0.81    1.69
  -6  19   3   -0.01    1.88
  -6  19   3    0.77    2.31
   6 -19   3    3.46    3.05
  -6 -19  -3    2.51    2.02
   6 -19  -3   -1.06    3.55
  -6 -19   3   -0.72    2.08
  -6  19  -3   -0.08    1.42
  -6  19   4    1.76    2.87
   6 -19   4    0.94    3.77
  -6 -19  -4   -2.58    2.05
  -6  19   4   -0.59    2.17
   6 -19  -4    8.86    4.57
  -6 -19   4    7.87    2.79
   6 -19   5    0.86    4.48
  -6 -19  -5   -1.45    2.75
  -6  19   5   -3.10    2.94
  -6  19   5   -1.03    4.98
  -6  19  -5   -1.89    2.16
   6 -19  -5    3.96    5.49
  -6 -19   5    0.59    3.00
  -7 -19   0    0.49    1.50
   7 -19   0   -0.03    2.97
  -7  19   0   -1.44    1.96
  -7  19   0    1.08    1.33
   7 -19   1   45.64    5.63
  -7  19   1   39.59    3.45
  -7 -19  -1   39.71    3.53
  -7 -19   1   36.89    3.38
   7 -19  -1   48.24    5.56
  -7  19  -1   41.33    3.32
   7 -19   2    0.75    3.16
  -7 -19  -2    1.26    1.53
  -7  19   2    2.28    2.19
  -7  19   2    1.26    1.64
   7 -19  -2    2.48    3.46
  -7  19  -2   -1.47    1.27
  -7 -19   2    1.33    1.89
  -7 -19  -3   27.78    3.56
   7 -19   3   37.21    5.50
  -7  19   3   25.76    3.38
   7 -19  -3   24.39    4.92
  -7  19  -3   29.56    3.11
  -7 -19   3   24.50    3.51
  -7 -19  -4    5.10    2.40
  -7  19   4    0.94    2.48
   7 -19   4   -0.92    3.92
  -7  19   4   -5.79    2.78
  -7  19  -4   -2.08    1.72
  -7 -19   4    2.24    2.73
   7 -19  -4   -3.54    4.92
   7 -19   5   16.92    5.45
  -7 -19  -5   24.03    3.96
  -7  19   5   16.62    4.02
  -7  19  -5   22.66    3.17
  -7 -19   5   22.27    4.28
  -8  19   0   -1.25    1.18
   8 -19   0   -4.57    3.15
  -8 -19   0    2.87    1.53
  -8  19   0   -3.32    2.08
  -8  19   1    1.16    1.56
  -8  19   1   -0.75    2.15
   8 -19   1    5.14    3.45
  -8 -19  -1    0.22    1.46
  -8  19  -1    0.96    1.45
  -8  19  -1    0.82    2.30
   8 -19  -1    1.78    3.79
  -8 -19   1    0.57    1.64
  -8  19   2    0.89    1.78
   8 -19   2    1.03    3.34
  -8  19   2   -0.65    2.16
  -8 -19  -2    0.23    1.59
   8 -19  -2   -0.28    3.74
  -8 -19   2    1.30    1.93
  -8  19  -2    1.26    1.58
  -8  19   3    1.38    2.55
  -8  19   3    3.89    2.23
   8 -19   3   -0.97    3.61
  -8 -19  -3   -1.50    1.76
  -8 -19   3   -2.58    2.23
   8 -19  -3    2.22    4.61
  -8  19  -3    2.47    1.75
  -8 -19  -4   -2.45    2.10
   8 -19   4    3.12    4.49
  -8  19   4   -0.52    2.67
  -8  19   4    2.22    3.04
  -8 -19   4    0.72    2.76
  -8  19  -4    0.19    2.07
  -8 -19  -5    2.64    3.15
   8 -19   5    1.05    5.50
  -8 -19   5   -3.61    3.08
  -9  19   0    2.54    1.63
   9 -19   0    6.16    4.05
  -9 -19   0    1.04    1.63
  -9  19   0   -0.96    2.32
  -9  19   1   14.42    2.63
  -9 -19  -1   18.14    2.40
  -9  19   1   12.94    2.87
   9 -19   1   14.59    4.71
  -9  19  -1   17.14    2.58
   9 -19  -1   10.99    4.67
  -9 -19   1   17.28    2.38
  -9 -19  -2   10.65    2.23
   9 -19   2    5.27    4.04
  -9  19   2    5.25    2.06
  -9  19   2    8.08    2.63
   9 -19  -2   -1.27    4.80
  -9  19  -2   11.67    2.35
  -9  19  -2   -3.26    2.62
  -9 -19   2    9.50    2.32
  -9 -19  -3   10.27    2.52
   9 -19   3   16.97    5.06
  -9  19   3   12.53    2.99
  -9  19   3    8.96    2.65
  -9 -19   3    9.15    2.60
  -9  19  -3    7.50    2.16
  -9  19   4   15.61    3.65
  -9  19   4   16.85    3.55
  -9 -19  -4   16.99    3.19
   9 -19   4    3.27    5.49
  -9  19  -4   16.65    2.86
  -9 -19   4   15.79    3.30
 -10 -19   0   -0.39    1.67
 -10  19   0   -2.21    2.50
 -10  19   0   -1.49    1.56
  10 -19   0   -5.07    4.57
 -10  19   1   -0.36    2.49
 -10  19   1   -0.25    1.68
  10 -19   1   -6.40    4.33
 -10 -19  -1   -0.07    1.73
  10 -19  -1   -1.38    4.92
 -10 -19   1    2.01    1.75
 -10  19  -1    0.40    1.59
 -10  19  -1   -0.50    2.77
 -10 -19  -2   -0.62    1.83
 -10  19   2   -1.77    1.78
  10 -19   2   -5.42    4.68
 -10  19   2    0.28    2.42
 -10  19  -2   -4.79    2.86
 -10  19  -2    1.91    1.95
 -10 -19   2    4.82    2.17
  10 -19   3   -1.40    5.25
 -10  19   3    2.44    2.42
 -10  19   3   -0.32    2.73
 -10 -19  -3   -2.67    1.81
 -10 -19   3    2.85    2.46
 -10  19  -3    0.20    1.86
  10 -19   4    7.26    6.19
 -10 -19  -4    0.29    2.39
 -10  19   4   -3.31    3.21
 -10  19   4    0.22    2.81
 -10 -19   4    4.68    2.81
 -10  19  -4    2.46    2.42
 -11 -19   0   23.49    3.20
 -11  19   0   25.81    3.64
 -11  19   0   19.73    3.09
 -11 -19  -1   12.38    2.20
  11 -19   1    4.32    5.18
 -11  19   1    4.41    2.18
 -11  19   1   11.02    2.99
 -11  19  -1    7.74    2.18
 -11 -19   1    6.65    2.16
 -11  19  -1   -0.37    3.02
  11 -19   2    2.62    5.60
 -11  19   2   19.71    3.31
 -11 -19  -2   20.44    2.85
 -11  19   2   24.96    3.69
 -11 -19   2   25.81    2.79
 -11  19  -2   16.69    2.90
 -11  19   3    1.42    2.43
 -11  19   3    5.08    3.31
 -11 -19  -3    8.17    2.44
 -11 -19   3    6.29    2.47
 -11  19  -3    5.69    2.38
 -12  19   0   -0.92    2.88
 -12 -19   0    1.11    1.99
 -12  19   0    0.95    2.08
 -12 -19  -1    0.64    2.04
 -12  19   1   -1.34    2.79
 -12  19   1    1.74    2.15
 -12 -19   1    1.63    2.08
 -12  19  -1    3.19    2.19
 -12  19  -1    5.85    3.44
 -12  19   2   -1.99    2.91
 -12 -19  -2    0.03    2.12
 -12  19   2   -1.36    2.26
 -12  19  -2   -0.87    2.08
 -12  19  -2    1.46    3.60
 -13 -19   0    1.85    2.13
 -13  19   0    0.58    3.49
 -13  19   0    1.19    2.13
 -13  19   1   22.79    3.58
 -13  19   1   39.17    4.61
 -13 -19  -1   28.77    3.87
 -13  19  -1   24.38    3.51
 -13  19  -1   34.03    4.92
   0 -20   0    2.78    2.00
   0 -20  -1    1.65    1.93
   0 -20   1    0.30    1.86
   0  20   1    0.48    1.07
   0  20   2    1.85    1.19
   0 -20  -2   -0.73    1.83
   0 -20   2   -0.36    2.26
   0 -20  -3   -0.73    2.20
   0 -20   3   -0.01    2.30
   0  20   3   -0.64    1.36
   0  20   4    2.04    1.96
   0 -20   4    0.34    2.71
   0 -20  -4   -0.15    2.52
   0  20   5    0.73    2.64
   0 -20   5   -1.39    3.56
   0 -20  -5   -0.05    3.16
  -1 -20   0   32.56    3.63
   1 -20   0   36.34    4.18
  -1  20   0   33.99    2.29
   1 -20   1   20.45    3.13
  -1 -20  -1   15.02    2.72
  -1  20   1   19.93    1.99
   1 -20  -1   15.86    2.85
  -1 -20   1   17.36    2.98
  -1 -20  -2   25.48    3.61
   1 -20   2   30.94    4.27
  -1  20   2   30.19    2.51
   1 -20  -2   31.28    4.00
  -1 -20   2   23.05    3.55
  -1 -20  -3    8.12    2.48
  -1  20   3   11.96    1.95
   1 -20   3    8.14    3.17
  -1 -20   3   11.24    3.31
   1 -20  -3   13.79    3.03
   1 -20   4   18.40    4.34
  -1 -20  -4   19.84    3.63
  -1  20   4   21.65    2.91
  -1 -20   4   17.34    3.96
   1  20   4   26.81    3.20
   1 -20  -4   25.12    4.17
   1 -20   5    1.31    3.74
  -1 -20  -5    4.88    3.26
  -1  20   5    5.01    2.76
  -1 -20   5    7.58    3.81
   1  20   5    0.90    2.55
   1 -20  -5    5.58    3.75
  -2  20   0    0.69    1.04
   2 -20   0   -0.89    1.95
  -2 -20   0    2.32    1.80
  -2  20   1   15.09    1.97
   2 -20   1   12.66    2.99
  -2 -20  -1   17.41    2.64
   2 -20  -1   16.84    3.13
  -2  20  -1   16.76    1.93
  -2 -20   1   17.38    2.84
  -2 -20  -2    2.21    1.73
   2 -20   2   -3.65    2.16
  -2  20   2   -0.87    1.19
  -2  20  -2   -1.67    1.19
  -2 -20   2    1.97    2.10
   2 -20  -2   -0.19    2.06
   2 -20   3    7.73    2.95
  -2  20   3    9.09    1.97
  -2 -20  -3    5.65    2.37
  -2 -20   3    7.32    2.81
   2 -20  -3    6.60    2.82
  -2 -20  -4    3.02    2.45
  -2  20   4    3.61    2.21
   2 -20   4    1.40    3.09
   2  20   4    0.93    1.63
   2 -20  -4    2.96    3.14
  -2 -20   4    0.98    2.88
  -2 -20  -5    7.07    3.39
   2 -20   5   -0.61    3.88
  -2  20   5   -0.13    2.69
   2 -20  -5    4.29    3.80
  -2 -20   5    0.99    3.68
   2  20   5    2.58    2.36
  -3  20   0   -0.11    1.08
   3 -20   0    1.31    2.27
  -3 -20   0    2.29    1.63
  -3  20   1   31.72    2.62
   3 -20   1   28.24    4.12
  -3 -20  -1   29.88    3.38
  -3 -20   1   29.03    3.65
   3 -20  -1   34.42    4.28
  -3  20  -1   29.16    2.44
  -3 -20  -2    1.82    1.68
  -3  20   2    1.26    1.37
   3 -20   2    1.13    2.36
   3 -20  -2    3.78    2.39
  -3 -20   2    2.57    2.21
  -3  20  -2    0.81    1.24
   3 -20   3   27.29    4.55
  -3 -20  -3   28.83    3.97
  -3  20   3   27.70    3.24
  -3 -20   3   32.41    4.48
  -3  20  -3   29.03    2.88
   3 -20  -3   27.79    4.20
   3 -20   4   -0.88    3.23
  -3 -20  -4   -2.16    2.29
  -3  20   4    3.44    2.24
  -3  20  -4   -3.22    1.72
  -3 -20   4    4.88    3.16
   3 -20  -4    2.15    3.16
   3 -20   5   14.36    4.79
  -3 -20  -5   27.74    4.31
  -3  20   5   16.68    3.60
   3 -20  -5   16.58    4.94
  -3 -20   5   18.49    4.36
  -4 -20   0    1.08    1.63
  -4  20   0    0.08    1.09
   4 -20   0   -0.55    2.13
   4 -20   1    8.56    2.86
  -4  20   1    7.18    1.61
  -4 -20  -1    4.80    1.90
  -4 -20   1    6.24    2.09
   4 -20  -1    5.62    2.71
  -4  20  -1    6.86    1.56
  -4 -20  -2    2.52    1.85
   4 -20   2    0.88    2.78
  -4  20   2   -0.32    1.37
   4 -20  -2   -3.53    2.46
  -4  20  -2    0.26    1.23
  -4 -20   2   -0.13    1.87
  -4 -20  -3    1.29    2.06
  -4  20   3    6.86    2.10
   4 -20   3    3.70    2.89
  -4  20  -3    2.84    1.56
  -4 -20   3    4.07    2.42
   4 -20  -3    0.11    2.82
  -4  20   4    0.77    2.19
   4 -20   4   -0.56    3.40
  -4 -20  -4    1.51    2.40
   4 -20  -4    0.71    3.73
  -4 -20   4   -4.20    2.70
  -4  20  -4    0.96    1.89
  -4  20   5    1.22    2.90
  -4 -20  -5   -0.37    2.90
   4 -20   5   -0.27    4.14
   4 -20  -5    5.89    5.18
  -4 -20   5    2.27    3.36
  -5  20   0    9.28    1.77
  -5 -20   0    9.77    2.14
   5 -20   0   13.84    3.47
  -5 -20  -1   14.58    2.46
   5 -20   1   18.47    3.70
  -5  20   1   19.20    2.52
   5 -20  -1   15.40    3.41
  -5 -20   1   18.99    2.74
  -5  20  -1   14.71    1.97
  -5  20   2    7.08    1.84
   5 -20   2   10.12    3.65
  -5 -20  -2   10.08    2.37
  -5  20  -2   10.84    1.82
  -5 -20   2    9.90    2.35
   5 -20  -2   11.40    3.43
   5 -20   3    9.75    3.46
  -5 -20  -3   13.65    2.78
  -5  20   3   15.31    2.71
  -5  20  -3   16.72    2.26
   5 -20  -3   10.27    3.82
  -5 -20   3   15.16    3.05
  -5  20   4   11.61    2.90
  -5 -20  -4   11.52    2.94
   5 -20   4    4.55    3.99
  -5 -20   4   10.40    3.33
  -5  20  -4    9.52    2.22
   5 -20  -4    7.48    4.47
  -5 -20  -5   10.40    3.33
   5 -20   5    4.92    4.57
  -5  20   5    9.81    3.39
  -5 -20   5   12.30    3.91
   5 -20  -5   10.72    6.00
  -5  20  -5    9.09    2.78
  -6  20   0   -0.73    1.26
   6 -20   0    1.14    2.84
  -6 -20   0   -1.27    1.57
   6 -20   1    5.45    3.08
  -6  20   1    2.54    1.52
  -6 -20  -1    2.63    1.78
  -6  20  -1    3.07    1.47
  -6 -20   1    4.76    1.99
   6 -20  -1    6.19    3.03
  -6  20   2    1.65    1.59
  -6 -20  -2    3.68    1.98
   6 -20   2    2.25    3.04
   6 -20  -2    4.93    3.51
  -6  20  -2    2.24    1.42
  -6 -20   2    4.69    2.15
  -6  20   3    1.40    1.89
   6 -20   3    3.12    3.50
  -6 -20  -3    1.43    2.03
   6 -20  -3    0.19    3.78
  -6  20  -3    3.60    1.68
  -6 -20   3    4.11    2.46
  -6 -20  -4    4.46    2.53
   6 -20   4    1.25    3.90
  -6  20   4    0.40    2.33
  -6  20  -4    5.91    2.27
   6 -20  -4    4.15    5.02
  -6 -20   4    4.73    3.05
  -6  20   5    0.53    3.18
  -6 -20  -5    0.48    2.77
   6 -20   5   -0.38    4.73
  -6 -20   5    5.00    3.56
  -6  20  -5   -0.43    2.57
  -7 -20   0   31.59    3.44
   7 -20   0   40.98    5.42
  -7  20   0   29.72    3.12
  -7  20   1   -0.97    2.31
   7 -20   1    1.64    3.27
  -7  20   1    3.91    1.68
  -7 -20  -1    1.26    1.78
  -7  20  -1    1.19    1.49
  -7 -20   1    0.22    1.72
   7 -20  -1   -2.08    3.08
  -7  20   2   27.63    3.37
  -7 -20  -2   28.75    3.68
   7 -20   2   33.18    5.19
  -7  20  -2   28.78    3.11
  -7 -20   2   33.67    4.07
   7 -20  -2   30.30    5.01
  -7  20   3    0.58    2.08
  -7  20   3   -0.56    2.53
   7 -20   3    4.46    3.94
  -7 -20  -3   -0.22    1.96
   7 -20  -3    8.42    4.81
  -7  20  -3    1.10    1.66
  -7 -20   3    4.67    2.78
   7 -20   4   17.71    5.04
  -7 -20  -4   17.54    3.34
  -7  20   4   17.45    3.35
  -7  20  -4   21.50    2.99
  -7 -20   4   25.50    4.10
  -8  20   0    0.91    1.68
   8 -20   0   -0.93    3.52
  -8 -20   0   -0.42    1.71
  -8  20   0   -1.44    2.45
   8 -20   1    3.46    3.90
  -8  20   1    8.79    2.05
  -8 -20  -1   11.58    2.28
  -8  20   1    5.81    2.64
  -8  20  -1    7.41    1.92
  -8 -20   1   10.18    2.31
   8 -20  -1    7.78    4.33
   8 -20   2    0.58    3.77
  -8 -20  -2    1.05    1.81
  -8  20   2    3.31    1.99
  -8  20   2    2.72    2.54
  -8  20  -2    2.11    1.68
   8 -20  -2    6.79    4.46
  -8 -20   2    2.57    2.28
  -8 -20  -3   -1.94    2.09
  -8  20   3    0.43    2.00
  -8  20   3    1.41    2.87
   8 -20   3    6.90    4.43
   8 -20  -3  -10.52    4.49
  -8  20  -3    2.62    1.85
  -8 -20   3    3.71    2.71
   8 -20   4   -0.18    4.79
  -8  20   4   -3.54    3.08
  -8 -20  -4   -0.61    2.50
  -8  20   4    2.85    2.70
  -8  20  -4    0.05    2.22
  -8 -20   4    0.15    3.01
  -9  20   0    0.02    2.73
  -9 -20   0    5.51    1.99
   9 -20   0    6.94    4.54
  -9  20   0    3.46    1.85
  -9  20   1   31.14    3.55
   9 -20   1   31.50    5.74
  -9 -20  -1   29.49    3.71
   9 -20  -1    0.25    4.65
  -9  20  -1   24.87    3.17
   9 -20   2    5.01    4.40
  -9  20   2    0.84    2.70
  -9 -20  -2   -0.07    2.03
  -9  20   2    5.08    2.27
  -9 -20   2    6.90    2.50
  -9  20  -2    1.97    1.90
   9 -20  -2   -9.11    4.83
  -9  20   3   19.72    3.33
  -9 -20  -3   23.34    3.32
   9 -20   3   27.30    5.97
  -9 -20   3   24.90    3.46
  -9  20  -3   14.31    2.60
  -9  20   4    4.92    3.08
   9 -20   4   -2.22    5.39
  -9 -20  -4   10.53    2.91
  -9  20   4   -1.91    3.40
  -9  20  -4    1.99    2.54
  -9 -20   4    0.05    3.07
  10 -20   0   -3.13    4.74
 -10  20   0   -4.20    2.92
 -10 -20   0   -2.89    1.81
 -10  20   0    1.71    1.82
 -10  20   1    1.52    2.93
 -10 -20  -1    6.77    2.35
 -10  20   1    7.44    2.34
  10 -20   1   -5.09    4.65
 -10  20  -1   -2.44    2.99
  10 -20  -1    4.61    5.14
 -10 -20   1    7.47    2.31
 -10  20  -1    6.24    2.08
  10 -20   2   -1.66    5.04
 -10  20   2    1.89    2.13
 -10 -20  -2   -2.41    2.03
 -10  20   2    0.63    2.98
 -10  20  -2   -1.15    1.87
 -10 -20   2    4.15    2.60
 -10 -20  -3    1.88    2.42
  10 -20   3   -5.05    5.76
 -10  20   3    3.14    2.40
 -10  20   3    2.12    3.30
 -10 -20   3    7.05    2.85
 -10  20  -3    0.50    2.08
 -11  20   0    3.45    3.31
 -11 -20   0    4.81    2.11
 -11  20   0    5.54    2.13
 -11 -20  -1   13.87    2.79
 -11  20   1    7.28    2.45
 -11  20   1    5.59    3.23
 -11  20  -1    7.69    2.31
 -11 -20   1   13.27    2.66
 -11  20  -1   -2.20    3.35
 -11 -20  -2    2.96    2.34
 -11  20   2    5.87    3.24
 -11  20   2    4.15    2.36
 -11 -20   2    5.17    2.55
 -11  20  -2    3.47    2.36
 -12 -20   0   -1.74    2.23
 -12  20   0    5.39    3.60
 -12  20   0    2.46    2.10
 -12  20   1    4.09    3.45
 -12  20   1    0.27    2.09
 -12 -20  -1    1.87    2.40
 -12  20  -1    2.50    2.38
 -12 -20   1    2.81    2.45
 -12  20  -1    1.51    3.90
   0 -21   0    1.74    2.15
   0 -21  -1    4.82    2.17
   0 -21   1    3.05    2.20
   0 -21   2    0.48    2.27
   0 -21  -2    0.39    2.17
   0  21   2    1.17    1.28
   0 -21  -3   15.72    3.24
   0  21   3    8.28    1.81
   0 -21   3   10.20    3.23
   0  21   4   -0.56    1.87
   0 -21  -4    1.67    2.91
   0 -21   4    1.11    3.14
   0  21   5   14.87    3.15
   0 -21  -5   13.52    4.38
   0 -21   5   15.83    4.63
   1 -21   0   10.80    2.79
  -1 -21   0    7.49    2.38
   1 -21   1    4.34    2.38
  -1  21   1    5.68    1.38
  -1 -21  -1    7.66    2.34
  -1 -21   1    3.87    2.28
   1 -21  -1    6.61    2.50
  -1  21   2    4.66    1.46
  -1 -21  -2    4.31    2.40
   1 -21   2    4.67    2.69
  -1 -21   2    2.50    2.54
   1 -21  -2    2.18    2.22
  -1 -21  -3   14.04    3.15
  -1  21   3   14.78    2.14
   1 -21   3    7.56    3.35
   1 -21  -3   11.86    3.24
  -1 -21   3   13.80    3.35
  -1  21   4    2.00    2.03
   1 -21   4    0.63    3.37
  -1 -21  -4    0.67    2.72
  -1 -21   4    5.02    3.30
   1 -21  -4   -1.78    2.75
   1  21   4    1.30    1.89
   1 -21   5   13.59    4.60
  -1 -21  -5   10.87    3.93
  -1  21   5   10.55    3.06
  -1 -21   5   14.17    4.32
   1 -21  -5   14.68    4.67
   2 -21   0    8.00    2.70
  -2 -21   0    3.56    2.10
  -2  21   0    6.60    1.42
   2 -21   1    6.65    2.72
  -2  21   1    9.37    1.60
  -2 -21  -1    8.37    2.44
  -2 -21   1    8.63    2.59
   2 -21  -1   10.94    3.01
  -2  21   2    6.10    1.54
  -2 -21  -2    3.35    2.21
   2 -21   2    3.52    2.57
   2 -21  -2    6.53    2.79
  -2 -21   2    1.56    2.25
  -2  21  -2   -2.57    1.67
  -2 -21  -3    1.80    2.31
   2 -21   3    2.95    2.99
  -2  21   3    4.27    1.74
  -2 -21   3    2.48    2.60
   2 -21  -3    5.78    3.11
  -2  21   4    5.02    2.21
  -2 -21  -4    3.64    2.79
   2 -21   4    7.44    3.81
  -2 -21   4    1.47    3.06
   2 -21  -4    6.17    3.46
  -2  21   5    4.39    2.87
  -2 -21  -5    3.40    3.41
   2 -21   5    1.70    4.16
   2 -21  -5    0.46    4.36
  -2 -21   5    0.82    3.63
   3 -21   0   42.48    4.91
  -3 -21   0   40.59    4.15
  -3  21   0   39.51    2.91
  -3  21   1    3.25    1.42
  -3 -21  -1    2.34    1.98
   3 -21   1    2.73    2.58
  -3 -21   1    2.22    1.99
   3 -21  -1    2.86    2.60
  -3  21  -1    2.14    1.30
  -3  21   2   32.08    2.98
  -3 -21  -2   28.22    3.75
   3 -21   2   26.39    4.41
  -3  21  -2   24.53    2.68
   3 -21  -2   28.81    4.48
  -3 -21   2   31.36    3.91
  -3  21   3   -0.34    1.63
  -3 -21  -3   -2.96    1.94
   3 -21   3    0.21    2.96
  -3 -21   3   -2.40    2.31
  -3  21  -3    0.93    1.60
   3 -21  -3    3.42    2.89
  -3  21   4   14.02    2.79
  -3 -21  -4    9.52    3.18
   3 -21   4   13.31    4.45
  -3 -21   4   11.41    3.57
   3 -21  -4    9.32    3.88
   3 -21   5    1.94    4.18
  -3 -21  -5    0.90    3.18
  -3  21   5   -4.68    2.72
   3 -21  -5   -0.90    4.72
  -3 -21   5    0.91    3.57
  -4 -21   0   24.87    3.42
  -4  21   0   19.41    2.47
   4 -21   0   21.16    3.83
   4 -21   1   -2.85    2.49
  -4  21   1    0.16    1.39
  -4 -21  -1   -2.22    1.80
  -4  21  -1    3.71    1.42
   4 -21  -1    0.13    2.57
  -4 -21   1    0.94    1.97
  -4  21   2   17.61    2.32
  -4 -21  -2   11.99    2.62
   4 -21   2   19.57    4.11
  -4  21  -2   16.96    2.07
   4 -21  -2   17.92    3.95
  -4 -21   2   18.46    3.11
  -4  21   3    1.75    1.73
  -4 -21  -3   -0.53    2.25
   4 -21   3    2.59    3.00
  -4 -21   3    0.89    2.51
  -4  21  -3    3.05    1.85
   4 -21  -3    3.68    3.50
  -4 -21  -4    8.98    3.11
  -4  21   4   11.58    2.75
   4 -21   4    9.77    4.18
  -4 -21   4    6.68    3.29
   4 -21  -4    9.94    4.43
  -4  21  -4    0.41    2.06
   5 -21   0   21.66    4.00
  -5  21   0   17.80    2.45
  -5 -21   0   19.95    2.86
  -5  21   1    5.21    1.60
   5 -21   1    7.80    3.49
  -5 -21  -1    5.17    2.16
   5 -21  -1    4.05    3.03
  -5  21  -1    6.44    1.62
  -5 -21   1    6.09    2.33
  -5 -21  -2   13.09    2.67
  -5  21   2   13.73    2.34
   5 -21   2   13.39    3.79
  -5  21  -2   13.51    2.07
  -5 -21   2    9.91    2.88
   5 -21  -2   16.96    3.98
  -5 -21  -3    3.60    2.33
   5 -21   3    6.72    3.59
  -5  21   3    5.88    2.18
  -5  21  -3    3.65    1.94
   5 -21  -3   12.25    4.00
  -5 -21   3    5.52    2.82
   5 -21   4    6.11    4.31
  -5  21   4    3.65    2.52
  -5 -21  -4    3.32    2.68
   5 -21  -4   12.20    5.05
  -5 -21   4    7.68    3.31
  -5  21  -4    7.40    2.44
   6 -21   0   -2.04    3.03
  -6  21   0    0.23    1.46
  -6 -21   0   -2.31    1.86
   6 -21   1    9.88    3.83
  -6 -21  -1   10.37    2.43
  -6  21   1    8.55    2.01
   6 -21  -1   10.24    3.84
  -6  21  -1   10.56    2.00
  -6 -21   1    9.98    2.61
  -6  21   2   -1.55    1.54
  -6 -21  -2   -2.68    1.96
   6 -21   2   -1.55    3.15
  -6 -21   2    0.35    2.28
  -6  21  -2    2.32    1.59
   6 -21  -2   -4.24    3.34
  -6  21   3    8.94    2.36
  -6 -21  -3    7.61    2.63
   6 -21   3    6.26    3.74
  -6  21  -3    9.19    2.21
  -6 -21   3   10.11    3.16
   6 -21  -3    4.88    4.34
  -6 -21  -4   -1.23    2.53
  -6  21   4    5.17    2.59
   6 -21   4   -1.68    4.12
  -6  21  -4    2.67    2.45
  -6 -21   4    5.40    3.32
   6 -21  -4   -1.89    5.34
   7 -21   0   -4.04    3.20
  -7 -21   0    4.34    2.14
  -7  21   0    3.39    1.67
  -7 -21  -1    5.44    2.19
  -7  21   1    5.50    1.83
   7 -21   1    4.23    3.65
   7 -21  -1   10.17    3.98
  -7 -21   1    7.90    2.45
  -7  21  -1    6.51    1.86
  -7 -21  -2    0.57    2.13
   7 -21   2    3.41    3.68
  -7  21   2    1.66    1.81
   7 -21  -2    2.93    3.96
  -7 -21   2    1.31    2.58
  -7  21  -2    4.16    1.79
  -7  21   3    8.36    2.43
   7 -21   3   14.18    4.66
  -7 -21  -3   10.87    3.02
  -7 -21   3   17.02    3.45
  -7  21  -3   15.34    2.54
   7 -21  -3    7.32    5.14
   7 -21   4    8.05    4.70
  -7 -21  -4    0.53    2.79
  -7  21   4   -0.36    2.56
  -7 -21   4   -0.25    3.27
   7 -21  -4   12.66    6.32
  -7  21  -4    5.12    2.59
   8 -21   0    4.11    4.20
  -8 -21   0   -0.23    2.03
  -8  21   0    0.81    1.78
   8 -21   1    5.18    3.98
  -8  21   1    2.80    1.89
  -8 -21  -1    5.26    2.28
  -8  21  -1    6.28    2.02
  -8 -21   1    6.18    2.42
   8 -21  -1   -1.62    4.37
  -8  21   2    1.88    1.97
   8 -21   2    1.79    3.95
  -8 -21  -2    0.18    2.05
   8 -21  -2   -1.38    4.58
  -8 -21   2    2.81    2.73
  -8  21  -2    5.30    1.96
  -8  21   3    6.41    2.40
  -8 -21  -3    5.55    2.72
   8 -21   3   10.41    4.85
  -8 -21   3    7.81    3.08
  -8  21  -3    3.48    2.19
   8 -21  -3    0.09    5.35
   9 -21   0   15.38    5.23
  -9  21   0   16.36    2.68
  -9 -21   0   21.50    3.14
  -9  21   1    2.81    1.98
   9 -21   1   12.24    5.05
  -9 -21  -1    0.67    2.14
  -9  21  -1    3.12    1.88
   9 -21  -1   -0.57    5.12
  -9 -21   1    0.27    2.32
  -9 -21  -2   14.07    3.01
   9 -21   2   16.50    5.25
  -9  21   2    8.00    2.49
  -9  21  -2    9.19    2.24
  -9 -21   2   15.22    3.13
   9 -21  -2    5.52    5.68
  -9 -21  -3    4.48    2.69
   9 -21   3    7.09    5.58
  -9  21  -3    1.47    2.29
  -9 -21   3    1.68    2.92
 -10  21   0   13.72    2.61
 -10 -21   0   10.78    2.76
  10 -21   0    2.60    5.52
 -10 -21  -1    3.22    2.53
  10 -21   1    3.54    5.54
 -10  21   1   -3.48    3.29
 -10  21   1    2.18    2.01
 -10  21  -1   -0.11    1.91
  10 -21  -1    6.80    5.68
 -10 -21   1    1.34    2.43
 -10 -21  -2   11.04    2.94
  10 -21   2   -4.92    5.52
 -10  21   2    4.20    2.40
 -10  21   2   -3.39    3.16
 -10  21  -2    7.63    2.43
 -10 -21   2   13.07    3.11
 -11 -21   0   21.70    3.19
 -11  21   0   -0.23    5.14
 -11  21   0   15.78    2.94
 -11 -21  -1    4.59    2.64
 -11  21   1   -0.62    2.00
 -11  21   1   -0.95    3.59
 -11 -21   1   -2.04    2.64
 -11  21  -1    0.71    1.98
   0 -22   0   57.97    5.34
   0 -22  -1   -0.22    2.18
   0 -22   1    1.31    2.31
   0 -22   2   41.97    5.20
   0 -22  -2   45.12    4.85
   0 -22   3    2.21    2.83
   0 -22  -3   -1.08    2.56
   0  22   3    1.99    1.77
   0 -22  -4   21.95    4.38
   0 -22   4   21.17    4.59
   1 -22   0    0.76    2.50
  -1 -22   0    1.02    2.40
   1 -22   1    1.58    2.46
  -1  22   1    0.84    1.21
  -1 -22  -1    2.46    2.15
   1 -22  -1   -1.87    2.34
  -1 -22   1    1.42    2.09
  -1  22   2   -1.15    1.46
  -1 -22  -2    0.95    2.27
   1 -22   2    2.29    2.61
   1 -22  -2    3.35    2.73
  -1 -22   2    3.19    2.55
  -1 -22  -3    0.70    2.58
   1 -22   3    4.04    3.28
  -1  22   3    2.94    1.78
  -1 -22   3    0.78    2.63
   1 -22  -3    5.10    3.09
   1 -22   4    7.31    3.87
  -1 -22  -4    6.63    3.18
  -1  22   4    8.67    2.43
  -1 -22   4    4.24    3.56
   1 -22  -4    7.02    3.71
  -2 -22   0    9.19    2.80
   2 -22   0    4.83    2.69
  -2  22   0    2.05    1.37
  -2 -22  -1   15.55    2.97
   2 -22   1   12.31    3.37
  -2  22   1   18.99    2.02
  -2 -22   1   11.81    3.01
   2 -22  -1   13.39    3.40
   2 -22   2    3.32    2.90
  -2  22   2    8.47    1.79
  -2 -22  -2    4.94    2.55
  -2 -22   2    4.68    2.73
   2 -22  -2    6.28    3.08
   2 -22   3   13.25    3.80
  -2  22   3   16.03    2.35
  -2 -22  -3   16.61    3.29
   2 -22  -3   15.22    3.83
  -2 -22   3   11.59    3.16
  -2  22   4    3.58    2.28
  -2 -22  -4    2.66    3.27
   2 -22   4    5.17    3.65
  -2 -22   4    6.03    3.57
   2 -22  -4    6.38    3.84
  -3  22   0   -0.20    1.38
   3 -22   0   -0.35    2.55
  -3 -22   0    2.28    2.15
  -3 -22  -1    4.97    2.44
  -3  22   1    5.10    1.61
   3 -22   1    6.51    3.12
   3 -22  -1    4.92    2.93
  -3 -22   1    4.57    2.59
  -3 -22  -2    0.03    2.21
  -3  22   2   -0.74    1.54
   3 -22   2   -0.72    2.88
  -3  22  -2    0.46    1.66
   3 -22  -2    2.03    2.75
  -3 -22   2   -0.83    2.51
  -3 -22  -3    3.66    2.43
   3 -22   3    5.05    3.27
  -3  22   3    2.31    1.89
  -3 -22   3    6.35    2.97
   3 -22  -3   -4.50    3.04
   3 -22   4   -1.94    3.64
  -3 -22  -4    1.52    2.95
  -3  22   4   -1.50    2.21
   3 -22  -4   -2.00    3.72
  -3 -22   4   -1.22    3.18
  -4  22   0    5.14    1.58
  -4 -22   0    4.37    2.29
   4 -22   0    3.75    3.09
  -4  22   1    6.63    1.73
   4 -22   1    9.58    3.45
  -4 -22  -1    9.34    2.61
   4 -22  -1   15.02    3.76
  -4 -22   1    8.96    2.72
  -4  22  -1   11.80    1.96
   4 -22   2    1.60    3.15
  -4  22   2    4.70    1.77
  -4 -22  -2   -1.33    2.24
  -4 -22   2   -0.08    2.31
  -4  22  -2    4.89    1.84
   4 -22  -2    5.02    3.27
   4 -22   3   10.66    4.00
  -4  22   3   19.02    2.69
  -4 -22  -3   12.72    3.16
  -4 -22   3    7.69    2.95
   4 -22  -3   12.78    4.00
  -4  22  -3    4.98    2.00
  -4  22   4   -0.75    2.35
  -4 -22  -4   -0.81    2.67
   4 -22   4   -1.32    4.11
  -4 -22   4    2.39    3.50
   4 -22  -4    6.09    4.73
   5 -22   0    5.24    3.13
  -5  22   0    1.74    1.57
  -5 -22   0    5.40    2.44
   5 -22   1    2.24    3.14
  -5 -22  -1    2.80    2.27
  -5  22   1    2.96    1.69
  -5 -22   1    2.83    2.21
  -5  22  -1    2.11    1.60
   5 -22  -1    4.67    2.93
  -5  22   2    2.61    1.80
   5 -22   2    7.41    3.64
  -5 -22  -2    3.08    2.26
  -5  22  -2    5.06    1.91
   5 -22  -2    6.13    3.58
  -5 -22   2    4.16    2.72
  -5 -22  -3    3.87    2.69
  -5  22   3    2.05    2.09
   5 -22   3   -1.28    3.33
  -5 -22   3    1.04    2.99
   5 -22  -3    7.77    4.21
  -5  22  -3    1.73    2.17
  -5  22   4    1.51    2.46
  -5 -22  -4    3.01    3.19
   5 -22   4    3.21    4.21
  -5 -22   4    4.01    3.49
   5 -22  -4    2.66    5.17
  -6  22   0   27.39    3.21
  -6 -22   0   26.85    3.49
   6 -22   0   44.41    6.09
  -6  22   1    5.27    1.89
   6 -22   1    4.11    3.59
  -6 -22  -1    8.25    2.54
  -6 -22   1    9.72    2.68
   6 -22  -1    2.36    3.64
  -6  22  -1    3.83    1.78
   6 -22   2   25.48    5.01
  -6  22   2   22.58    2.92
  -6 -22  -2   21.60    3.45
  -6 -22   2   24.58    3.71
  -6  22  -2   22.23    2.66
   6 -22  -2   19.05    4.61
  -6  22   3    6.54    2.43
   6 -22   3    6.76    4.13
  -6 -22  -3    0.47    2.70
  -6  22  -3    4.58    2.27
   6 -22  -3    4.63    4.85
  -6 -22   3    3.11    3.03
  -7 -22   0    1.14    2.27
   7 -22   0   -3.14    3.51
  -7  22   0    1.95    1.74
   7 -22   1   -2.57    3.55
  -7  22   1    2.52    1.87
  -7 -22  -1    0.50    2.24
  -7  22  -1   -0.64    1.68
   7 -22  -1   -0.15    3.90
  -7 -22   1    0.90    2.35
  -7  22   2    4.92    2.05
  -7 -22  -2    2.17    2.49
   7 -22   2    6.24    3.92
   7 -22  -2    9.38    4.70
  -7 -22   2    6.53    2.99
  -7  22  -2    2.63    1.91
   7 -22   3   -2.96    4.19
  -7 -22  -3    2.56    2.74
  -7  22   3    0.48    2.22
  -7 -22   3    1.10    3.10
   7 -22  -3    3.94    5.25
  -7  22  -3    1.16    2.31
  -8 -22   0   28.00    3.70
  -8  22   0   26.69    3.15
   8 -22   0   19.88    5.24
  -8 -22  -1    8.30    2.67
  -8  22   1    6.27    2.15
   8 -22   1    9.69    4.73
  -8  22  -1    5.30    2.08
   8 -22  -1    7.45    5.03
  -8 -22   1    9.97    2.82
   8 -22   2   18.68    5.20
  -8  22   2   26.93    3.26
  -8 -22  -2   18.63    3.39
   8 -22  -2   12.38    5.86
  -8  22  -2   21.13    2.91
  -8 -22   2   23.10    3.74
  -8 -22  -3    6.54    3.06
   8 -22   3    1.52    5.00
  -8 -22   3    8.83    3.43
   8 -22  -3   10.11    6.24
  -8  22  -3    7.33    2.62
  -9 -22   0    1.18    2.61
   9 -22   0    0.54    5.12
  -9  22   0    1.33    2.02
  -9  22   1    5.77    2.24
   9 -22   1    1.10    5.17
  -9 -22  -1    7.90    2.77
  -9  22  -1    7.39    2.31
   9 -22  -1    0.28    5.59
  -9 -22   1   12.64    3.14
   9 -22   2   -3.75    5.10
  -9  22   2    0.89    2.22
  -9 -22  -2    3.84    2.84
  -9  22  -2    0.16    2.14
  -9 -22   2   -4.40    2.86
   9 -22  -2    0.64    6.13
 -10  22   0    0.37    2.14
 -10 -22   0   -0.07    2.71
  10 -22   0    0.10    5.87
 -10  22   1   14.60    2.92
 -10 -22  -1   20.91    3.40
 -10  22  -1   13.39    2.81
 -10 -22   1   10.42    3.24
   0 -23   0   -1.06    2.49
   0 -23   1   15.13    3.36
   0 -23  -1   19.56    3.73
   0 -23  -2   -0.69    2.48
   0 -23   2    2.47    2.79
   0 -23  -3   14.97    3.75
   0 -23   3   19.80    4.34
   0 -23   4   -2.30    3.53
   0 -23  -4   -5.74    3.33
  -1 -23   0    0.30    2.40
   1 -23   0    3.40    2.59
  -1 -23  -1    2.14    2.45
   1 -23   1    2.05    2.70
  -1 -23   1    0.59    2.46
   1 -23  -1    0.79    2.86
  -1 -23  -2    0.16    2.30
   1 -23   2   -0.76    2.83
  -1 -23   2    1.81    2.60
   1 -23  -2    1.98    2.83
   1 -23   3    1.00    3.12
  -1 -23  -3   -2.91    2.66
  -1  23   3   -0.39    2.79
   1 -23  -3   -2.28    2.85
  -1 -23   3   -0.92    2.89
  -1 -23  -4   -4.94    3.09
  -1  23   4   -1.82    2.78
   1 -23   4   -0.28    3.73
  -1 -23   4    0.90    3.57
   1 -23  -4    2.52    3.76
  -2 -23   0    6.13    2.81
   2 -23   0    1.73    2.67
   2 -23   1   11.89    3.47
  -2 -23  -1   11.86    3.16
  -2 -23   1   15.38    3.14
   2 -23  -1   11.01    3.47
  -2 -23  -2    8.77    2.78
   2 -23   2    8.42    3.52
  -2 -23   2    6.71    2.97
   2 -23  -2    7.08    3.49
  -2  23   3    6.05    2.18
  -2 -23  -3    6.70    3.08
   2 -23   3    6.72    3.56
   2 -23  -3   11.12    3.65
  -2 -23   3    6.98    3.23
   2 -23   4   13.12    4.49
  -2 -23  -4   14.21    3.88
  -2 -23   4   12.69    3.95
   2 -23  -4    6.49    4.36
  -3  23   0    3.23    1.66
  -3 -23   0    3.99    2.62
   3 -23   0    0.57    2.82
   3 -23   1   -2.66    2.92
  -3 -23  -1    0.73    2.42
  -3  23   1   -1.68    1.57
  -3 -23   1   -2.32    2.41
   3 -23  -1    0.33    3.08
   3 -23   2    0.47    3.15
  -3  23   2    3.80    1.87
  -3 -23  -2    0.03    2.51
  -3 -23   2    3.61    2.65
   3 -23  -2    0.75    3.02
  -3 -23  -3   -0.98    2.69
  -3  23   3    3.30    2.20
   3 -23   3   -2.36    3.13
   3 -23  -3    3.89    3.80
  -3 -23   3    5.80    3.24
  -4  23   0   20.09    2.37
  -4 -23   0   19.76    3.65
   4 -23   0   20.14    4.27
  -4 -23  -1    2.32    2.48
  -4  23   1    6.83    1.89
   4 -23   1    0.08    3.34
   4 -23  -1    0.71    3.09
  -4  23  -1   -0.06    1.74
  -4 -23   1    3.35    2.63
  -4 -23  -2   21.06    3.68
   4 -23   2   16.34    4.28
  -4  23   2   26.81    3.35
  -4 -23   2   20.81    3.80
   4 -23  -2   17.76    4.39
   4 -23   3   -0.19    3.47
  -4 -23  -3    0.44    2.88
  -4  23   3    4.50    2.29
  -4 -23   3    4.75    3.22
   4 -23  -3    3.58    4.07
   5 -23   0    0.35    3.35
  -5  23   0   -0.18    1.67
  -5 -23   0    1.18    2.50
  -5  23   1   -0.18    1.71
   5 -23   1    6.22    3.54
  -5 -23  -1   -3.11    2.40
  -5  23  -1   -0.09    1.75
   5 -23  -1   -2.61    3.32
  -5 -23   1    0.71    2.58
  -5  23   2   -1.24    1.80
  -5 -23  -2   -1.32    2.43
   5 -23   2    0.06    3.57
  -5 -23   2    3.60    2.95
   5 -23  -2   -3.24    3.47
  -5  23  -2    3.28    2.15
  -5  23   3    0.26    2.15
   5 -23   3   -1.13    4.05
  -5 -23  -3   -1.43    2.63
  -5 -23   3    1.73    3.22
   5 -23  -3   -3.31    4.47
  -6  23   0    1.41    1.73
  -6 -23   0   -1.91    2.55
   6 -23   0   -2.23    3.62
  -6  23   1   25.53    3.43
   6 -23   1   18.09    4.59
  -6 -23  -1   24.67    3.71
  -6 -23   1   21.02    3.69
   6 -23  -1   26.75    5.30
  -6  23  -1   26.98    3.49
  -6  23   2    0.75    1.95
  -6 -23  -2   -1.89    2.57
   6 -23   2    2.34    3.84
  -6  23  -2    1.71    2.21
  -6 -23   2   -0.34    2.77
   6 -23  -2    4.62    4.17
  -6 -23  -3   13.13    3.47
   6 -23   3   17.40    5.27
  -6 -23   3   21.20    3.94
   6 -23  -3   11.04    5.46
   7 -23   0   -4.21    3.80
  -7  23   0   -0.67    1.85
  -7 -23   0   -0.56    2.58
  -7 -23  -1    4.96    2.79
  -7  23   1    2.19    1.99
   7 -23   1    3.17    4.20
  -7 -23   1    2.34    2.78
  -7  23  -1    2.03    2.01
   7 -23  -1    0.34    4.44
  -7 -23  -2   -0.34    2.68
  -7  23   2    0.59    2.10
   7 -23   2    1.91    4.31
  -7 -23   2   -0.31    3.00
  -7  23  -2    2.58    2.33
   7 -23  -2   -4.67    4.83
  -8 -23   0   -0.54    2.87
   8 -23   0    3.79    4.88
  -8  23   0   -2.09    1.92
  -8 -23  -1   13.39    3.26
  -8  23   1    6.89    2.37
   8 -23   1   10.43    5.19
  -8  23  -1   13.74    2.59
   8 -23  -1    3.37    5.66
  -8 -23   1   10.91    3.29
  -9 -23   0   -1.87    2.93
   9 -23   0    4.57    5.75
   0 -24   0   22.63    4.08
   0 -24   1   -1.37    2.87
   0 -24  -1    0.53    2.96
   0 -24  -2   20.67    4.17
   0 -24   2   24.16    4.30
   0 -24  -3   -0.74    3.08
   0 -24   3    2.59    3.18
   1 -24   0   -1.11    2.78
  -1 -24   0    1.47    2.72
  -1 -24  -1    4.44    2.97
   1 -24   1    1.18    3.08
   1 -24  -1    5.34    3.18
  -1 -24   1    0.95    2.78
   1 -24   2    4.34    3.45
  -1 -24  -2    3.38    2.95
   1 -24  -2    0.29    3.23
  -1 -24   2    3.18    3.08
   1 -24   3   -0.79    3.27
  -1 -24  -3   -0.26    3.06
  -1 -24   3    4.15    3.32
   1 -24  -3   -0.82    3.36
   2 -24   0    5.59    3.41
  -2 -24   0    6.80    3.01
  -2 -24  -1   14.08    3.47
   2 -24   1   11.90    3.71
   2 -24  -1   16.66    3.85
  -2 -24   1   13.54    3.49
   2 -24   2    5.43    3.75
  -2 -24  -2    3.86    2.87
  -2 -24   2    3.18    2.88
   2 -24  -2    4.05    3.63
  -2 -24  -3    7.83    3.44
   2 -24   3   12.56    4.14
   2 -24  -3   16.85    4.38
  -2 -24   3    9.00    3.65
   3 -24   0   -3.22    3.12
  -3 -24   0    4.90    2.79
   3 -24   1    4.61    3.56
  -3 -24  -1    4.07    2.96
   3 -24  -1    6.87    3.56
  -3 -24   1    6.76    3.03
  -3 -24  -2   -2.82    2.58
  -3  24   2   -0.35    2.01
   3 -24   2   -2.77    3.35
   3 -24  -2   -1.02    3.40
  -3 -24   2   -1.05    2.83
   3 -24   3   -3.73    3.49
  -3 -24   3    3.57    3.40
   3 -24  -3    0.77    4.15
  -4  24   0    1.03    1.91
   4 -24   0   -0.33    3.59
  -4 -24   0    0.87    2.90
   4 -24   1   11.25    3.96
  -4 -24  -1   10.64    3.16
  -4  24   1   13.22    2.25
  -4 -24   1    9.30    3.21
   4 -24  -1   11.77    3.85
  -4  24   2   -0.15    2.12
  -4 -24  -2    2.81    2.82
   4 -24   2    3.69    3.64
  -4 -24   2   -2.09    2.79
   4 -24  -2    6.19    4.03
  -5  24   0    0.13    2.02
  -5 -24   0   -0.49    2.82
   5 -24   0   -0.65    3.75
  -5  24   1   -0.18    2.08
  -5 -24  -1    1.45    2.68
   5 -24   1    5.27    3.93
   5 -24  -1   -1.38    3.62
  -5 -24   1    2.45    2.97
  -5  24  -1    1.23    2.13
  -5 -24  -2    3.89    2.92
   5 -24   2    5.27    4.09
  -5  24   2    3.13    2.30
   5 -24  -2   -6.70    3.60
  -5 -24   2    0.26    3.00
  -6 -24   0   15.03    3.68
  -6  24   0   13.01    2.57
   6 -24   0    5.58    4.28
  -6 -24  -1    5.86    3.01
  -6  24   1    6.94    2.34
   6 -24   1   -0.52    3.96
  -6 -24   1    2.69    2.98
  -6  24  -1    2.03    2.32
   6 -24  -1   -3.13    4.29
  -7  24   0    2.97    2.27
   7 -24   0   -1.10    4.89
  -7 -24   0   -0.42    3.08
   0 -25   0   -0.14    2.90
   0 -25   1    7.49    3.63
   0 -25  -1    3.78    3.29
   0 -25  -2    6.24    3.64
   0 -25   2    0.74    3.28
  -1 -25   0    3.49    3.29
   1 -25   0   -0.97    3.11
   1 -25   1    8.29    3.96
  -1 -25  -1   -1.20    3.15
   1 -25  -1    7.26    3.58
  -1 -25   1    1.46    3.42
   1 -25   2   -3.61    3.37
  -1 -25  -2    4.13    3.34
   1 -25  -2   -2.71    3.48
  -1 -25   2   -1.22    3.26
   2 -25   0    8.94    4.00
  -2 -25   0    6.55    3.40
   2 -25   1   -0.14    3.42
  -2 -25  -1    8.35    3.55
   2 -25  -1    5.72    3.50
  -2 -25   1    4.97    3.38
   3 -25   0    7.13    3.96
  -3 -25   0    9.04    3.70
  -3 -25  -1    5.73    3.42
   3 -25   1    7.99    3.95
  -3 -25   1    1.47    3.12
   3 -25  -1    0.47    3.46
  -4 -25   0   18.22    3.88
   4 -25   0   12.96    4.51
   4 -25   1    2.82    4.05
  -4 -25  -1   -1.23    3.05
   4 -25  -1   -2.03    3.79
  -4 -25   1    4.31    3.42
   0   0   0    0.00    0.00
;
_shelx_hkl_checksum              12111
loop_
_space_group_symop_operation_xyz
'x, y, z'
'-x, -y, z+1/2'
'x+1/2, -y+1/2, z'
'-x+1/2, y+1/2, z+1/2'
loop_
_atom_site_label
_atom_site_type_symbol
_atom_site_fract_x
_atom_site_fract_y
_atom_site_fract_z
_atom_site_U_iso_or_equiv
_atom_site_adp_type
_atom_site_occupancy
_atom_site_site_symmetry_order
_atom_site_calc_flag
_atom_site_refinement_flags_posn
_atom_site_refinement_flags_adp
_atom_site_refinement_flags_occupancy
_atom_site_disorder_assembly
_atom_site_disorder_group
Ba1 Ba 0.32408(2) 0.31495(2) 0.39274(5) 0.01265(6) Uani 1 1 d . . . . .
S1 S 0.04951(9) 0.31722(7) -0.04908(19) 0.01154(17) Uani 1 1 d . . . . .
S2 S 0.16942(9) 0.05042(7) 0.4727(2) 0.01175(16) Uani 1 1 d . . . . .
O11 O 0.4381(2) 0.24267(19) 0.8886(11) 0.0202(5) Uani 1 1 d . . . . .
O23 O 0.2807(3) 0.1056(2) 0.3879(12) 0.0243(6) Uani 1 1 d . . . . .
O21 O 0.3250(3) 0.4460(2) 0.8886(12) 0.0246(6) Uani 1 1 d . . . . .
O13 O 0.0646(4) 0.3362(3) 0.2469(7) 0.0229(7) Uani 1 1 d . . . . .
O22 O 0.5530(3) 0.4034(2) 0.3868(13) 0.0311(7) Uani 1 1 d . . . . .
O12 O 0.1650(3) 0.2737(2) 0.8400(8) 0.0198(8) Uani 1 1 d . . . . .
N1 N 0.0207(4) 0.4250(3) -0.1919(9) 0.0194(7) Uani 1 1 d D . . . .
H11 H 0.095(3) 0.467(3) -0.165(13) 0.023 Uiso 1 1 d D U . . .
H12 H 0.001(6) 0.417(4) -0.391(4) 0.023 Uiso 1 1 d D U . . .
N2 N 0.1742(5) 0.0466(4) 0.8128(10) 0.0301(11) Uani 1 1 d D . . . .
H21 H 0.230(5) 0.102(3) 0.869(18) 0.036 Uiso 1 1 d D U . . .
H22 H 0.102(5) 0.054(4) 0.941(12) 0.036 Uiso 1 1 d D U . . .
loop_
_atom_site_aniso_label
_atom_site_aniso_U_11
_atom_site_aniso_U_22
_atom_site_aniso_U_33
_atom_site_aniso_U_23
_atom_site_aniso_U_13
_atom_site_aniso_U_12
Ba1 0.01104(8) 0.01449(9) 0.01241(9) 0.00137(13) 0.00081(12) -0.00132(7)
S1 0.0099(3) 0.0145(4) 0.0101(4) -0.0002(3) 0.0000(2) -0.0005(3)
S2 0.0135(4) 0.0108(4) 0.0109(4) -0.0001(3) 0.0005(3) 0.0007(3)
O11 0.0160(12) 0.0251(13) 0.0195(13) -0.0011(17) -0.003(2) 0.0085(10)
O23 0.0174(12) 0.0268(14) 0.0288(16) -0.003(2) 0.008(2) -0.0080(11)
O21 0.0435(18) 0.0122(10) 0.0181(12) -0.002(2) 0.003(2) -0.0009(12)
O13 0.0213(16) 0.0346(18) 0.0127(15) -0.0048(13) -0.0028(12) 0.0047(14)
O22 0.0173(13) 0.0347(16) 0.041(2) 0.001(3) -0.002(3) -0.0116(12)
O12 0.0145(13) 0.0184(14) 0.026(2) 0.0004(12) 0.0083(12) 0.0015(10)
N1 0.0207(17) 0.0164(16) 0.0212(17) 0.0023(13) -0.0031(14) 0.0017(14)
N2 0.055(3) 0.023(2) 0.0122(16) 0.0008(15) 0.0000(19) -0.004(2)
loop_
_atom_type_symbol
_atom_type_description
_atom_type_scat_dispersion_real
_atom_type_scat_dispersion_imag
_atom_type_scat_source
N N 0.0061 0.0033 'International Tables Vol C Tables 4.2.6.8 and 6.1.1.4'
H H 0.0000 0.0000 'International Tables Vol C Tables 4.2.6.8 and 6.1.1.4'
O O 0.0106 0.0060 'International Tables Vol C Tables 4.2.6.8 and 6.1.1.4'
S S 0.1246 0.1234 'International Tables Vol C Tables 4.2.6.8 and 6.1.1.4'
Ba Ba -0.3244 2.2819 'International Tables Vol C Tables 4.2.6.8 and 6.1.1.4'
loop_
_geom_angle_atom_site_label_1
_geom_angle_atom_site_label_2
_geom_angle_atom_site_label_3
_geom_angle
_geom_angle_site_symmetry_1
_geom_angle_site_symmetry_3
_geom_angle_publ_flag
O22 Ba1 O12 129.58(15) . . ?
O22 Ba1 O23 125.35(9) . . ?
O12 Ba1 O23 73.34(12) . . ?
O22 Ba1 O11 77.15(13) . . ?
O12 Ba1 O11 62.60(10) . . ?
O23 Ba1 O11 74.90(13) . . ?
O22 Ba1 O13 145.02(11) . . ?
O12 Ba1 O13 68.22(10) . . ?
O23 Ba1 O13 86.61(11) . . ?
O11 Ba1 O13 130.52(10) . . ?
O22 Ba1 O11 76.27(14) . 1_554 ?
O12 Ba1 O11 146.89(9) . 1_554 ?
O23 Ba1 O11 74.27(12) . 1_554 ?
O11 Ba1 O11 114.58(8) . 1_554 ?
O13 Ba1 O11 103.25(10) . 1_554 ?
O22 Ba1 O21 75.25(14) . . ?
O12 Ba1 O21 59.79(10) . . ?
O23 Ba1 O21 126.26(14) . . ?
O11 Ba1 O21 61.55(10) . . ?
O13 Ba1 O21 98.21(10) . . ?
O11 Ba1 O21 151.34(9) 1_554 . ?
O22 Ba1 O21 74.41(13) . 1_554 ?
O12 Ba1 O21 138.09(9) . 1_554 ?
O23 Ba1 O21 124.88(14) . 1_554 ?
O11 Ba1 O21 151.43(9) . 1_554 ?
O13 Ba1 O21 75.21(10) . 1_554 ?
O11 Ba1 O21 60.79(10) 1_554 1_554 ?
O21 Ba1 O21 107.85(8) . 1_554 ?
O22 Ba1 N2 63.73(13) . 4_554 ?
O12 Ba1 N2 107.19(11) . 4_554 ?
O23 Ba1 N2 168.31(14) . 4_554 ?
O11 Ba1 N2 116.01(11) . 4_554 ?
O13 Ba1 N2 82.89(13) . 4_554 ?
O11 Ba1 N2 103.14(11) 1_554 4_554 ?
O21 Ba1 N2 60.77(12) . 4_554 ?
O21 Ba1 N2 47.08(12) 1_554 4_554 ?
O22 Ba1 O12 122.67(14) . 1_554 ?
O12 Ba1 O12 106.95(10) . 1_554 ?
O23 Ba1 O12 74.78(13) . 1_554 ?
O11 Ba1 O12 149.66(8) . 1_554 ?
O13 Ba1 O12 45.95(9) . 1_554 ?
O11 Ba1 O12 57.31(8) 1_554 1_554 ?
O21 Ba1 O12 140.82(9) . 1_554 ?
O21 Ba1 O12 55.12(9) 1_554 1_554 ?
N2 Ba1 O12 94.14(11) 4_554 1_554 ?
O22 Ba1 O13 65.06(10) . 3 ?
O12 Ba1 O13 120.25(9) . 3 ?
O23 Ba1 O13 61.38(9) . 3 ?
O11 Ba1 O13 69.27(9) . 3 ?
O13 Ba1 O13 138.23(9) . 3 ?
O11 Ba1 O13 45.31(9) 1_554 3 ?
O21 Ba1 O13 121.88(9) . 3 ?
O21 Ba1 O13 100.53(9) 1_554 3 ?
N2 Ba1 O13 125.00(12) 4_554 3 ?
O12 Ba1 O13 96.96(8) 1_554 3 ?
O22 Ba1 S1 135.60(12) . . ?
O12 Ba1 S1 88.38(7) . . ?
O23 Ba1 S1 82.72(9) . . ?
O11 Ba1 S1 147.24(6) . . ?
O13 Ba1 S1 22.46(7) . . ?
O11 Ba1 S1 80.92(7) 1_554 . ?
O21 Ba1 S1 118.29(7) . . ?
O21 Ba1 S1 61.22(7) 1_554 . ?
N2 Ba1 S1 85.62(10) 4_554 . ?
O12 Ba1 S1 23.79(5) 1_554 . ?
O13 Ba1 S1 119.81(7) 3 . ?
O12 S1 O11 112.5(2) 1_554 3_454 ?
O12 S1 O13 109.7(2) 1_554 . ?
O11 S1 O13 112.7(3) 3_454 . ?
O12 S1 N1 111.0(2) 1_554 . ?
O11 S1 N1 104.5(2) 3_454 . ?
O13 S1 N1 106.2(2) . . ?
O12 S1 Ba1 62.41(15) 1_554 . ?
O11 S1 Ba1 140.32(17) 3_454 . ?
O13 S1 Ba1 48.31(16) . . ?
N1 S1 Ba1 114.10(15) . . ?
O12 S1 Ba1 124.56(14) 1_554 3_455 ?
O11 S1 Ba1 47.6(2) 3_454 3_455 ?
O13 S1 Ba1 65.51(16) . 3_455 ?
N1 S1 Ba1 123.61(16) . 3_455 ?
Ba1 S1 Ba1 100.25(2) . 3_455 ?
O22 S2 O23 113.3(2) 3_455 . ?
O22 S2 O21 111.6(2) 3_455 4_544 ?
O23 S2 O21 112.2(2) . 4_544 ?
O22 S2 N2 109.1(3) 3_455 . ?
O23 S2 N2 105.8(3) . . ?
O21 S2 N2 104.3(3) 4_544 . ?
S1 O11 Ba1 134.7(3) 3_556 . ?
S1 O11 Ba1 110.5(3) 3_556 1_556 ?
Ba1 O11 Ba1 114.58(8) . 1_556 ?
S2 O23 Ba1 129.21(19) . . ?
S2 O21 Ba1 142.4(3) 4 . ?
S2 O21 Ba1 109.7(3) 4 1_556 ?
Ba1 O21 Ba1 107.85(8) . 1_556 ?
S1 O13 Ba1 109.2(2) . . ?
S1 O13 Ba1 90.99(17) . 3_455 ?
Ba1 O13 Ba1 128.64(13) . 3_455 ?
S2 O22 Ba1 162.7(4) 3 . ?
S1 O12 Ba1 135.27(19) 1_556 . ?
S1 O12 Ba1 93.81(17) 1_556 1_556 ?
Ba1 O12 Ba1 106.95(10) . 1_556 ?
S2 N2 Ba1 98.8(2) . 4_545 ?
loop_
_geom_bond_atom_site_label_1
_geom_bond_atom_site_label_2
_geom_bond_distance
_geom_bond_site_symmetry_2
_geom_bond_publ_flag
Ba1 O22 2.695(3) . ?
Ba1 O12 2.789(3) . ?
Ba1 O23 2.841(3) . ?
Ba1 O11 2.845(5) . ?
Ba1 O13 2.847(4) . ?
Ba1 O11 2.879(5) 1_554 ?
Ba1 O21 2.964(5) . ?
Ba1 O21 2.996(5) 1_554 ?
Ba1 N2 3.127(5) 4_554 ?
Ba1 O12 3.198(4) 1_554 ?
Ba1 O13 3.325(4) 3 ?
Ba1 S1 3.6001(10) . ?
S1 O12 1.455(3) 1_554 ?
S1 O11 1.456(3) 3_454 ?
S1 O13 1.457(4) . ?
S1 N1 1.628(4) . ?
S1 Ba1 3.6532(10) 3_455 ?
S2 O22 1.439(3) 3_455 ?
S2 O23 1.448(3) . ?
S2 O21 1.458(3) 4_544 ?
S2 N2 1.640(5) . ?
O11 S1 1.456(3) 3_556 ?
O11 Ba1 2.879(5) 1_556 ?
O21 S2 1.458(3) 4 ?
O21 Ba1 2.996(5) 1_556 ?
O13 Ba1 3.325(4) 3_455 ?
O22 S2 1.439(3) 3 ?
O12 S1 1.455(3) 1_556 ?
O12 Ba1 3.198(4) 1_556 ?
N2 Ba1 3.127(5) 4_545 ?
