#------------------------------------------------------------------------------
#$Date: 2022-05-03 02:22:52 +0300 (Tue, 03 May 2022) $
#$Revision: 274818 $
#$URL: file:///home/coder/svn-repositories/cod/cif/7/71/01/7710162.cif $
#------------------------------------------------------------------------------
#
# This file is available in the Crystallography Open Database (COD),
# http://www.crystallography.net/
#
# All data on this site have been placed in the public domain by the
# contributors.
#
data_7710162
loop_
_publ_author_name
'Gautier, Romain'
'PARIS, Michael'
'Massuyeau, Florian'
_publ_section_title
;
 Templating Effect of Trans-2,5-dimethylpiperazine (TDMP) on the Structure
 Dimensionality of Hybrid Metal Halides
;
_journal_name_full               'Dalton Transactions'
_journal_paper_doi               10.1039/D2DT00614F
_journal_year                    2022
_chemical_formula_moiety         'Ag Cl2, C3 H8 N'
_chemical_formula_sum            'C3 H8 Ag Cl2 N'
_chemical_formula_weight         236.877
_space_group_crystal_system      monoclinic
_space_group_IT_number           14
_space_group_name_Hall           '-P 2ybc'
_space_group_name_H-M_alt        'P 1 21/c 1'
_symmetry_Int_Tables_number      14
_atom_sites_solution_primary     direct
_audit_creation_date             2022-04-25
_audit_creation_method
;
Olex2 1.5
(compiled 2021.12.09 svn.r5202d8cf for OlexSys, GUI svn.r6439)
;
_audit_update_record
;
2022-04-26 deposited with the CCDC.	2022-04-29 downloaded from the CCDC.
;
_cell_angle_alpha                90
_cell_angle_beta                 119.124(4)
_cell_angle_gamma                90
_cell_formula_units_Z            4
_cell_length_a                   7.8025(3)
_cell_length_b                   7.7952(4)
_cell_length_c                   12.6471(6)
_cell_measurement_reflns_used    80
_cell_measurement_temperature    293
_cell_measurement_theta_max      25
_cell_measurement_theta_min      2
_cell_volume                     671.97(6)
_computing_data_collection       Supergui
_computing_molecular_graphics    'Olex2 1.5 (Dolomanov et al., 2009)'
_computing_publication_material  'Olex2 1.5 (Dolomanov et al., 2009)'
_computing_structure_refinement  'olex2.refine 1.5 (Bourhis et al., 2015)'
_computing_structure_solution    'SIR2004  (Burla et al.,  2007)'
_diffrn_ambient_temperature      293
_diffrn_detector                 'CCD area detector'
_diffrn_measured_fraction_theta_full 0.9820
_diffrn_measured_fraction_theta_max 0.9871
_diffrn_measurement_device_type  'Bruker-Nonius Kappa CCD'
_diffrn_radiation_monochromator  graphite
_diffrn_radiation_probe          x-ray
_diffrn_radiation_type           'Mo K\a'
_diffrn_radiation_wavelength     0.71073
_diffrn_reflns_av_R_equivalents  0.0497
_diffrn_reflns_av_unetI/netI     0.0273
_diffrn_reflns_Laue_measured_fraction_full 0.9820
_diffrn_reflns_Laue_measured_fraction_max 0.9871
_diffrn_reflns_limit_h_max       10
_diffrn_reflns_limit_h_min       -10
_diffrn_reflns_limit_k_max       10
_diffrn_reflns_limit_k_min       -10
_diffrn_reflns_limit_l_max       16
_diffrn_reflns_limit_l_min       -16
_diffrn_reflns_number            13666
_diffrn_reflns_point_group_measured_fraction_full 0.9820
_diffrn_reflns_point_group_measured_fraction_max 0.9871
_diffrn_reflns_theta_full        25.2417
_diffrn_reflns_theta_max         28.48
_diffrn_reflns_theta_min         6.41
_diffrn_source                   'sealed X-ray tube'
_diffrn_source_target            Mo
_exptl_absorpt_coefficient_mu    3.676
_exptl_absorpt_correction_T_max  0.7457
_exptl_absorpt_correction_T_min  0.5831
_exptl_absorpt_correction_type   multi-scan
_exptl_absorpt_process_details
;
SADABS-2008/1 (Bruker,2008) was used for absorption correction.
wR2(int) was 0.0912 before and 0.0667 after correction.
The Ratio of minimum to maximum transmission is 0.7819.
The \l/2 correction factor is 0.0015.
;
_exptl_crystal_colour            colourless
_exptl_crystal_colour_primary    colourless
_exptl_crystal_density_diffrn    2.341
_exptl_crystal_description       block
_exptl_crystal_F_000             453.805
_exptl_crystal_size_max          0.55
_exptl_crystal_size_mid          0.10
_exptl_crystal_size_min          0.10
_refine_diff_density_max         1.0861
_refine_diff_density_min         -1.1039
_refine_diff_density_rms         0.1515
_refine_ls_d_res_high            0.7452
_refine_ls_d_res_low             3.1847
_refine_ls_goodness_of_fit_ref   1.0303
_refine_ls_hydrogen_treatment    constr
_refine_ls_matrix_type           full
_refine_ls_number_constraints    12
_refine_ls_number_parameters     65
_refine_ls_number_reflns         1681
_refine_ls_number_restraints     0
_refine_ls_restrained_S_all      1.0303
_refine_ls_R_factor_all          0.0473
_refine_ls_R_factor_gt           0.0287
_refine_ls_shift/su_max          -0.0005
_refine_ls_shift/su_mean         0.0000
_refine_ls_structure_factor_coef Fsqd
_refine_ls_weighting_details
'w=1/[\s^2^(Fo^2^)+(0.0139P)^2^+1.2661P] where P=(Fo^2^+2Fc^2^)/3'
_refine_ls_weighting_scheme      calc
_refine_ls_wR_factor_gt          0.0545
_refine_ls_wR_factor_ref         0.0620
_reflns_Friedel_coverage         0.0
_reflns_limit_h_max              9
_reflns_limit_h_min              -10
_reflns_limit_k_max              10
_reflns_limit_k_min              0
_reflns_limit_l_max              16
_reflns_limit_l_min              0
_reflns_number_gt                1275
_reflns_number_total             1681
_reflns_threshold_expression     I>=2u(I)
_iucr_refine_instructions_details
;
TITL shelx in P2
REM transformed to space group : P21/c:b1
CELL 0.71073 7.8025 7.7952 12.6471 90 119.124 90
ZERR 4 0.0003 0.0004 0.0006 0 0.004 0
LATT 1
SYMM -X,0.5+Y,0.5-Z
SFAC C H Ag Cl N
UNIT 12 32 4 8 4

L.S. 5
PLAN  25
SIZE 540 650 850
CONF
FMAP 2
ACTA 
MORE -1
BOND $H
MERG 2
WGHT 0.013923 1.266058
FVAR 0.625806
REM <olex2.extras>
REM <HklSrc "%.\\new.hkl">
REM </olex2.extras>

Ag1   3     0.48155 -0.04092 -0.38268  11.00000  0.07237  0.04486  0.03794 =
 0.00481  0.02442  0.00214 
Cl1   4     0.79127 -0.06490 -0.41353  11.00000  0.04468  0.03884  0.03265 =
 -0.00132  0.01460  0.00771 
Cl2   4     0.44456 -0.30556 -0.27894  11.00000  0.04771  0.03172  0.03467 =
 0.00270  0.01637 -0.00575 

C3    1     0.22915 -0.43673 -0.61977  11.00000  0.03934  0.05209  0.03976 =
 0.00389  0.02375 -0.00021 
AFIX 137
H3a   2     0.31962 -0.36021 -0.55855  11.00000 -1.50000 
H3b   2     0.29900 -0.53425 -0.62584  11.00000 -1.50000 
H3c   2     0.16531 -0.37809 -0.69614  11.00000 -1.50000 
AFIX 0
C4    1     0.07653 -0.49627 -0.58620  11.00000  0.02910  0.03076  0.02314 =
 -0.00031  0.00966  0.00157 
AFIX 13
H4    2    -0.01612 -0.57296 -0.64975  11.00000 -1.20000 
AFIX 0
N1    5     0.17551 -0.59321 -0.46885  11.00000  0.02478  0.02864  0.02959 =
 0.00040  0.01156  0.00362 
AFIX 23
H1a   2     0.23744 -0.68488 -0.47778  11.00000 -1.20000 
H1b   2     0.26679 -0.52534 -0.41155  11.00000 -1.20000 
AFIX 0
C2    1     0.03606 -0.65286 -0.42706  11.00000  0.03090  0.02784  0.03193 =
 0.00550  0.01456  0.00240 
AFIX 23
H2a   2     0.10862 -0.71088 -0.34983  11.00000 -1.20000 
H2b   2    -0.05554 -0.73434 -0.48495  11.00000 -1.20000 
AFIX 0
HKLF 4

END
Q3 1 -0.03704 -0.74074 -0.46667 11 0.05 0.53
Q1 1 0.40741 -0.03704 -0.37778 11 0.05 1.09
Q2 1 0.51852 0.03704 -0.4 11 0.05 0.8
Q4 1 0.74074 -0.14815 -0.4 11 0.05 0.53

  REM The information below was added by Olex2.
  REM
  REM R1 = 0.0287 for 1275 Fo > 4sig(Fo) and 0.0473 for all 1681 data
  REM 65 parameters refined using 0 restraints
  REM Highest difference peak 1.0861, deepest hole -1.1039
  REM Mean Shift 0.0000, Max Shift -0.0005.

  REM +++ Tabular Listing of Refinement Information +++
  REM R1_all = 0.0473
  REM R1_gt = 0.0287
  REM wR_ref = 0.0620
  REM GOOF = 1.0303
  REM Shift_max = -0.0005
  REM Shift_mean = 0.0000
  REM Reflections_all = 1681
  REM Reflections_gt = 1275
  REM Parameters = 65
  REM Hole = -1.1039
  REM Peak = 1.0861
  REM Flack = n/a

  
;
_cod_data_source_file            d2dt00614f1.cif
_cod_data_source_block           new_CCDC1
_cod_database_code               7710162
_olex2_refinement_description
;
1. Fixed Uiso
 At 1.2 times of:
  All C(H) groups, All C(H,H) groups, All N(H,H) groups
 At 1.5 times of:
  All C(H,H,H) groups
2. Uiso/Uaniso restraints and constraints
3. Others
 Fixed Sof: C1(0.5) C2(0.5) N1(0.5) N2(0.5)
4.a Ternary CH refined with riding coordinates:
 C4(H4)
4.b Secondary CH2 refined with riding coordinates:
 C2(H2a,H2b), N1(H1a,H1b)
4.c Idealised Me refined as rotating group:
 C3(H3a,H3b,H3c)
;
_iucr_refine_fcf_details
;
data_new_CCDC2
_computing_structure_refinement   'olex2.refine 1.5 (Bourhis et al., 2015)'
_shelx_refln_list_code            4
loop_
  _space_group_symop_id
  _space_group_symop_operation_xyz
  1  x,y,z
  2  -x,y+1/2,-z+1/2
  3  -x,-y,-z
  4  x,-y-1/2,z-1/2

_space_group_crystal_system       monoclinic
_space_group_IT_number            14
_space_group_name_H-M_alt         'P 1 21/c 1'
_space_group_name_Hall            '-P 2ybc'
_symmetry_space_group_name_H-M    'P 1 21/c 1'
_symmetry_space_group_name_Hall   '-P 2ybc'
_symmetry_Int_Tables_number       14
_cell_length_a                    7.8025(3)
_cell_length_b                    7.7952(4)
_cell_length_c                    12.6471(6)
_cell_angle_alpha                 90
_cell_angle_beta                  119.124(4)
_cell_angle_gamma                 90
_cell_volume                      671.97(6)
loop_
  _refln_index_h
  _refln_index_k
  _refln_index_l
  _refln_F_squared_calc
  _refln_F_squared_meas
  _refln_F_squared_sigma
  _refln_F_squared_weight
  _refln_observed_status
-10 0 4 97.292 90.272 30.696 22.742 o
-10 0 6 25.895 29.330 16.374 80.014 o
-10 0 8 0.191 -26.625 15.041 106.909 o
-10 0 10 44.010 72.714 19.113 55.808 o
-10 0 12 23.364 -3.092 21.715 49.263 o
-10 1 4 1.240 -3.421 20.380 58.126 o
-10 1 5 15.129 25.492 14.573 102.564 o
-10 1 6 43.572 43.314 13.332 103.796 o
-10 1 7 22.047 24.876 11.667 146.386 o
-10 1 8 0.668 25.162 13.062 133.113 o
-10 1 9 111.299 158.124 13.091 72.208 o
-10 1 10 13.665 27.753 11.557 154.282 o
-10 1 11 0.645 0.105 13.154 139.407 o
-10 1 12 37.460 36.368 12.485 119.170 o
-10 2 5 0.454 -1.855 20.074 60.003 o
-10 2 6 4.853 32.982 15.589 92.710 o
-10 2 7 3.199 15.385 13.846 120.469 o
-10 2 8 9.169 11.835 11.654 162.903 o
-10 2 9 13.030 -6.848 12.056 154.797 o
-10 2 10 20.059 -5.071 13.880 115.453 o
-10 2 11 0.685 -23.727 12.956 143.694 o
-10 3 7 54.430 72.850 23.098 39.618 o
-10 3 8 25.803 25.265 12.765 123.788 o
-10 3 9 2.807 0.989 11.300 185.503 o
-9 0 2 39.519 38.752 25.887 33.609 o
-9 0 4 148.619 156.437 17.439 48.405 o
-9 0 6 259.471 228.147 18.040 37.078 o
-9 0 8 265.307 392.503 24.031 24.561 o
-9 0 10 6.092 15.181 12.249 149.758 o
-9 0 12 58.729 57.260 17.099 65.990 o
-9 0 14 50.971 63.163 19.430 54.051 o
-9 1 1 54.391 33.610 15.577 79.829 o
-9 1 2 7.754 -14.622 18.922 66.385 o
-9 1 3 218.967 198.533 19.335 37.168 o
-9 1 4 3.744 -20.300 10.494 213.631 o
-9 1 5 17.416 10.292 11.553 158.649 o
-9 1 6 97.464 110.595 11.849 89.192 o
-9 1 7 239.900 253.875 13.782 47.347 o
-9 1 8 109.865 101.492 10.603 96.733 o
-9 1 9 28.582 37.983 10.501 160.680 o
-9 1 10 0.075 -5.367 9.009 297.945 o
-9 1 11 384.181 335.742 16.709 31.374 o
-9 1 12 4.561 -13.404 10.770 201.962 o
-9 1 13 66.650 84.510 13.355 89.209 o
-9 1 14 88.548 85.531 13.343 83.358 o
-9 2 1 53.363 38.248 14.079 93.136 o
-9 2 2 173.206 202.597 18.061 42.884 o
-9 2 3 40.675 36.179 15.468 83.698 o
-9 2 4 3.428 -1.239 11.098 191.977 o
-9 2 5 26.216 17.828 12.239 134.787 o
-9 2 6 61.171 41.137 11.256 123.322 o
-9 2 7 0.076 -22.267 9.585 263.239 o
-9 2 8 193.621 215.080 16.412 45.550 o
-9 2 9 69.659 73.190 10.788 116.900 o
-9 2 10 2.795 -3.821 8.846 300.235 o
-9 2 11 73.833 80.256 11.561 104.789 o
-9 2 12 149.196 167.618 14.879 57.254 o
-9 2 13 10.458 -3.525 11.187 180.638 o
-9 2 14 0.303 -2.293 12.651 150.978 o
-9 3 1 5.790 -24.304 20.819 55.215 o
-9 3 2 5.204 -33.022 21.471 52.004 o
-9 3 3 19.192 13.823 20.412 55.163 o
-9 3 4 168.745 157.453 17.657 46.018 o
-9 3 5 24.317 30.789 15.839 85.058 o
-9 3 6 78.274 83.376 11.910 99.049 o
-9 3 7 188.801 196.532 15.518 49.370 o
-9 3 8 6.607 10.116 10.182 213.167 o
-9 3 9 7.411 7.962 11.386 173.790 o
-9 3 10 201.891 215.691 13.615 53.186 o
-9 3 11 9.151 8.262 9.536 236.923 o
-9 3 12 31.626 -0.742 10.649 172.644 o
-9 3 13 26.652 34.667 14.999 92.288 o
-9 4 3 4.402 -37.029 40.046 15.057 o
-9 4 4 53.706 34.309 20.955 48.469 o
-9 4 5 170.563 172.155 15.335 52.907 o
-9 4 6 6.002 33.733 12.976 128.931 o
-9 4 7 14.330 -4.848 12.034 154.239 o
-9 4 8 11.816 30.717 11.500 155.897 o
-9 4 9 209.726 192.560 14.791 49.889 o
-9 4 10 0.013 19.117 12.170 154.957 o
-9 4 11 29.317 65.433 14.964 87.495 o
-9 4 12 13.754 20.008 13.000 127.995 o
-9 5 5 34.854 36.718 20.193 53.439 o
-9 5 6 90.840 129.784 19.798 46.056 o
-9 5 7 19.125 20.097 14.085 108.489 o
-9 5 8 7.885 6.110 16.005 91.195 o
-9 5 9 9.679 24.309 13.937 113.788 o
-8 0 2 12.836 20.068 14.576 104.404 o
-8 0 4 7.605 15.008 11.838 158.271 o
-8 0 6 344.008 301.062 17.683 32.219 o
-8 0 8 183.375 244.283 19.957 36.438 o
-8 0 10 490.797 389.304 22.359 21.629 o
-8 0 12 163.233 192.342 18.670 42.215 o
-8 0 14 10.528 4.799 14.790 105.377 o
-8 1 1 1.628 -18.962 13.938 123.715 o
-8 1 2 5.255 5.849 11.256 181.158 o
-8 1 3 181.495 170.259 13.971 56.767 o
-8 1 4 47.140 48.585 8.970 171.424 o
-8 1 5 48.267 37.251 8.234 194.173 o
-8 1 6 77.897 82.097 8.702 136.470 o
-8 1 7 157.842 150.980 9.266 84.184 o
-8 1 8 201.116 178.872 10.203 67.868 o
-8 1 9 2.049 -9.995 7.237 447.371 o
-8 1 10 14.316 -4.277 10.020 215.122 o
-8 1 11 535.468 504.646 23.207 19.255 o
-8 1 12 0.037 9.022 9.439 260.406 o
-8 1 13 18.293 14.450 10.378 187.175 o
-8 1 14 26.182 23.296 10.455 171.221 o
-8 1 15 167.929 97.793 13.678 64.686 o
-8 2 1 2.104 2.835 12.512 151.723 o
-8 2 2 101.469 109.039 17.608 54.536 o
-8 2 3 73.935 50.305 10.544 123.695 o
-8 2 4 0.558 11.164 8.058 345.179 o
-8 2 5 11.773 -7.586 7.840 338.935 o
-8 2 6 110.954 90.950 9.159 111.004 o
-8 2 7 15.996 3.595 9.152 244.955 o
-8 2 8 87.374 96.596 9.533 116.937 o
-8 2 9 31.179 29.591 8.273 225.296 o
-8 2 10 65.745 31.689 9.394 153.487 o
-8 2 11 9.402 7.924 13.128 131.787 o
-8 2 12 355.275 384.546 26.593 20.251 o
-8 2 13 244.136 213.776 14.347 47.203 o
-8 2 14 120.140 61.864 14.507 71.199 o
-8 2 15 5.909 20.015 10.670 190.111 o
-8 3 1 21.079 16.434 27.214 31.622 o
-8 3 2 19.729 26.797 11.449 152.090 o
-8 3 3 2.559 -20.655 11.171 190.647 o
-8 3 4 58.606 61.269 9.663 142.893 o
-8 3 5 18.444 25.991 8.240 256.077 o
-8 3 6 48.036 49.376 8.903 171.517 o
-8 3 7 429.815 394.990 14.178 31.663 o
-8 3 8 149.362 122.461 10.469 83.122 o
-8 3 9 31.328 14.275 12.546 127.387 o
-8 3 10 171.022 198.087 11.697 65.229 o
-8 3 11 76.109 65.811 10.546 118.496 o
-8 3 12 176.787 120.527 12.131 68.740 o
-8 3 13 36.476 31.534 13.600 105.561 o
-8 3 14 104.228 115.185 18.436 50.556 o
-8 4 1 22.850 41.298 19.543 57.788 o
-8 4 2 11.719 0.912 13.479 126.080 o
-8 4 3 1.454 -7.624 18.118 73.452 o
-8 4 4 41.555 15.100 9.510 183.218 o
-8 4 5 120.643 142.371 11.373 82.200 o
-8 4 6 48.823 37.764 9.532 163.086 o
-8 4 7 1.569 7.380 9.400 260.793 o
-8 4 8 24.214 12.478 8.691 238.882 o
-8 4 9 168.986 176.351 11.863 66.586 o
-8 4 10 31.778 24.139 9.709 184.147 o
-8 4 11 17.377 11.812 9.810 208.767 o
-8 4 12 76.095 79.781 13.858 83.144 o
-8 4 13 50.743 27.289 15.749 79.944 o
-8 4 14 0.023 -8.956 13.928 124.755 o
-8 5 1 0.826 3.941 17.119 81.921 o
-8 5 2 0.284 -18.485 22.688 46.997 o
-8 5 3 187.355 202.603 16.760 45.518 o
-8 5 4 96.027 95.098 13.490 79.369 o
-8 5 5 1.798 -11.071 13.806 125.970 o
-8 5 6 0.924 21.312 12.670 142.105 o
-8 5 7 1.854 10.191 14.859 106.779 o
-8 5 8 227.539 209.729 12.790 53.349 o
-8 5 9 217.679 200.223 14.351 50.121 o
-8 5 10 122.966 137.625 15.572 59.387 o
-8 5 11 2.576 8.584 11.681 170.135 o
-8 5 12 88.926 94.667 14.393 74.755 o
-8 6 2 0.261 14.774 19.392 63.271 o
-8 6 3 15.065 7.243 15.629 93.065 o
-8 6 4 0.038 -17.714 19.113 66.245 o
-8 6 5 21.904 -1.563 15.178 97.240 o
-8 6 6 3.676 18.242 15.293 98.918 o
-8 6 7 0.455 7.827 14.655 110.792 o
-8 6 8 10.746 14.820 15.204 98.174 o
-8 6 9 97.150 100.310 15.889 63.919 o
-8 6 10 33.625 13.290 16.323 80.521 o
-7 0 2 52.297 32.997 11.555 126.066 o
-7 0 4 1940.790 2033.710 58.628 3.619 o
-7 0 6 109.594 151.644 11.663 81.910 o
-7 0 8 748.322 825.759 45.525 7.638 o
-7 0 10 124.570 103.357 17.467 53.012 o
-7 0 12 15.201 26.214 11.715 150.136 o
-7 0 14 2.757 0.430 21.881 50.286 o
-7 0 16 252.172 248.252 37.934 13.683 o
-7 1 1 185.227 208.877 20.397 36.244 o
-7 1 2 45.603 34.125 8.100 203.653 o
-7 1 3 331.804 335.878 11.702 41.710 o
-7 1 4 165.494 176.314 9.065 80.191 o
-7 1 5 0.734 11.547 5.757 626.310 o
-7 1 6 205.093 237.606 10.107 62.933 o
-7 1 7 236.566 224.179 9.259 61.980 o
-7 1 8 121.119 107.272 8.317 110.362 o
-7 1 9 139.294 216.679 10.504 74.555 o
-7 1 10 14.061 16.498 6.399 404.570 o
-7 1 11 203.685 191.070 13.276 55.444 o
-7 1 12 3.414 8.702 8.212 327.109 o
-7 1 13 16.732 16.896 8.750 247.314 o
-7 1 14 0.786 11.191 9.882 234.872 o
-7 1 15 189.810 176.807 16.244 47.893 o
-7 1 16 0.309 4.590 11.964 166.518 o
-7 2 1 699.953 700.107 20.966 17.034 o
-7 2 2 145.697 120.904 9.750 88.746 o
-7 2 3 191.304 203.810 9.585 69.796 o
-7 2 4 585.677 615.901 15.300 22.894 o
-7 2 5 149.231 151.723 8.364 91.567 o
-7 2 6 0.672 8.795 6.077 587.357 o
-7 2 7 96.421 125.625 8.295 117.835 o
-7 2 8 100.434 105.714 8.146 122.384 o
-7 2 9 9.731 12.354 6.860 399.973 o
-7 2 10 0.684 8.176 6.720 492.103 o
-7 2 11 78.729 107.867 9.308 120.933 o
-7 2 12 399.306 433.053 16.941 28.831 o
-7 2 13 128.048 116.655 11.358 83.659 o
-7 2 14 124.523 86.698 13.002 77.280 o
-7 2 15 2.847 1.693 11.737 171.791 o
-7 2 16 42.337 28.520 12.967 111.948 o
-7 3 1 46.723 32.454 10.932 139.909 o
-7 3 2 264.252 298.771 12.457 46.629 o
-7 3 3 38.369 40.264 6.485 263.850 o
-7 3 4 37.514 43.970 9.197 179.125 o
-7 3 5 268.711 292.117 11.202 49.353 o
-7 3 6 30.131 53.145 7.857 220.298 o
-7 3 7 537.488 541.516 15.143 25.008 o
-7 3 8 60.546 100.736 8.663 142.602 o
-7 3 9 0.412 11.055 8.196 335.235 o
-7 3 10 102.730 109.782 9.895 103.836 o
-7 3 11 70.961 67.781 9.832 130.041 o
-7 3 12 3.245 -8.990 8.519 321.342 o
-7 3 13 19.266 24.908 8.957 226.009 o
-7 3 14 1.878 12.874 13.334 130.963 o
-7 3 15 46.647 30.367 11.599 129.392 o
-7 4 1 224.865 203.408 15.274 46.711 o
-7 4 2 2.059 -1.028 10.114 232.659 o
-7 4 3 331.023 323.991 12.608 40.606 o
-7 4 4 31.686 26.179 11.398 144.168 o
-7 4 5 107.509 99.246 8.718 114.837 o
-7 4 6 76.037 65.472 10.396 120.466 o
-7 4 7 177.237 204.555 10.533 68.446 o
-7 4 8 89.840 122.818 10.099 104.496 o
-7 4 9 279.190 269.480 12.944 45.519 o
-7 4 10 18.603 13.008 8.203 273.384 o
-7 4 11 23.417 29.280 9.086 210.835 o
-7 4 12 35.795 22.882 10.012 172.504 o
-7 4 13 28.096 49.603 11.810 131.282 o
-7 4 14 7.647 -12.380 16.119 90.898 o
-7 5 1 0.693 4.242 11.933 167.175 o
-7 5 2 302.319 310.413 20.370 29.546 o
-7 5 3 215.433 229.588 14.595 48.296 o
-7 5 4 15.128 -10.600 10.283 204.201 o
-7 5 5 149.371 136.789 12.752 69.048 o
-7 5 6 173.481 184.187 11.919 65.008 o
-7 5 7 2.085 8.823 10.326 215.865 o
-7 5 8 7.250 8.281 7.889 336.775 o
-7 5 9 6.363 10.262 8.363 303.839 o
-7 5 10 37.599 38.539 10.972 143.497 o
-7 5 11 292.499 296.974 18.339 33.370 o
-7 5 12 0.085 -0.555 16.510 88.764 o
-7 5 13 28.834 53.672 14.216 97.061 o
-7 6 1 235.766 267.116 20.811 31.989 o
-7 6 2 1.319 21.481 15.220 100.072 o
-7 6 3 7.923 -1.521 15.879 93.509 o
-7 6 4 10.520 10.548 11.972 154.470 o
-7 6 5 102.741 120.240 13.161 77.338 o
-7 6 6 10.261 -0.128 13.434 127.967 o
-7 6 7 6.677 6.535 12.808 140.348 o
-7 6 8 65.968 79.365 13.791 86.338 o
-7 6 9 52.220 95.409 17.411 62.324 o
-7 6 10 4.568 28.379 13.408 123.709 o
-7 6 11 79.618 73.133 21.463 43.229 o
-7 6 12 19.185 -0.900 14.782 103.104 o
-7 7 1 60.952 34.984 19.611 53.627 o
-7 7 2 11.717 13.932 14.749 103.727 o
-7 7 3 36.707 68.817 19.843 53.287 o
-7 7 4 10.120 -5.964 18.156 71.564 o
-7 7 5 10.595 16.398 13.496 122.216 o
-7 7 6 121.945 117.959 19.449 45.342 o
-7 7 7 75.570 71.475 15.912 69.508 o
-7 7 8 73.141 75.594 15.754 70.588 o
-7 7 9 77.059 58.655 15.726 71.586 o
-7 7 10 26.188 25.993 17.847 68.810 o
-6 0 2 1047.630 960.853 27.260 10.834 o
-6 0 4 1211.930 1268.410 33.517 8.135 o
-6 0 6 684.189 569.022 19.302 19.041 o
-6 0 8 4844.400 4925.640 106.141 1.098 o
-6 0 10 461.017 352.625 16.748 28.359 o
-6 0 12 847.672 809.991 30.458 11.415 o
-6 0 14 303.240 318.323 27.318 20.955 o
-6 0 16 369.076 287.412 73.029 4.181 o
-6 1 1 14.746 18.582 6.578 380.508 o
-6 1 2 3.668 -3.386 14.365 115.553 o
-6 1 3 4735.960 4657.250 62.205 1.713 o
-6 1 4 23.222 32.424 9.486 196.136 o
-6 1 5 970.155 1103.460 20.281 12.769 o
-6 1 6 1688.940 1747.960 28.160 6.871 o
-6 1 7 1356.250 1326.950 23.846 9.220 o
-6 1 8 8.573 2.309 5.139 698.897 o
-6 1 9 1654.820 1731.260 29.654 6.810 o
-6 1 10 72.315 80.135 7.187 163.976 o
-6 1 11 254.730 234.359 10.370 55.849 o
-6 1 12 23.093 23.397 7.309 291.958 o
-6 1 13 551.758 567.442 17.231 22.784 o
-6 1 14 1.480 0.850 8.501 327.593 o
-6 1 15 77.838 59.254 10.299 122.381 o
-6 1 16 65.170 22.033 12.682 107.262 o
-6 2 1 609.597 572.962 13.734 23.865 o
-6 2 2 1175.110 1187.430 20.002 11.191 o
-6 2 3 0.709 -13.677 7.886 385.504 o
-6 2 4 1540.940 1648.700 27.483 7.484 o
-6 2 5 863.774 866.555 17.842 15.534 o
-6 2 6 989.884 915.959 19.967 13.436 o
-6 2 7 11.806 11.235 5.815 498.567 o
-6 2 8 1428.790 1515.980 28.408 7.897 o
-6 2 9 278.764 257.820 11.790 48.656 o
-6 2 10 60.731 87.383 7.881 160.081 o
-6 2 11 713.268 709.492 18.973 17.800 o
-6 2 12 1425.040 1444.180 37.483 6.696 o
-6 2 13 138.641 152.170 14.503 61.187 o
-6 2 14 0.386 11.706 9.448 255.999 o
-6 2 15 30.774 29.667 10.507 162.366 o
-6 2 16 58.429 44.309 14.745 84.631 o
-6 3 1 1.060 1.848 5.239 831.073 o
-6 3 2 1244.720 1216.970 20.162 10.678 o
-6 3 3 101.566 117.155 6.904 130.798 o
-6 3 4 833.670 821.663 17.319 16.311 o
-6 3 5 692.368 744.991 16.385 19.133 o
-6 3 6 1559.810 1601.000 27.761 7.463 o
-6 3 7 876.393 868.235 20.761 14.362 o
-6 3 8 140.921 158.914 9.941 83.742 o
-6 3 9 79.982 111.136 9.710 115.098 o
-6 3 10 916.466 958.321 20.690 13.644 o
-6 3 11 221.093 212.103 10.928 59.794 o
-6 3 12 61.008 59.094 8.768 157.142 o
-6 3 13 71.633 78.926 10.101 122.934 o
-6 3 14 257.704 257.865 15.197 42.447 o
-6 3 15 16.012 -8.035 13.843 117.961 o
-6 3 16 46.126 41.557 17.066 69.525 o
-6 4 1 948.625 944.497 40.315 8.071 o
-6 4 2 185.779 199.714 9.346 72.144 o
-6 4 3 0.942 11.685 5.919 593.644 o
-6 4 4 433.225 426.256 11.835 33.539 o
-6 4 5 1177.320 1177.780 22.580 10.665 o
-6 4 6 34.495 32.069 5.969 308.299 o
-6 4 7 758.314 811.992 18.317 16.865 o
-6 4 8 310.577 334.111 13.406 40.169 o
-6 4 9 1497.050 1456.410 30.618 7.465 o
-6 4 10 11.657 3.475 7.577 352.166 o
-6 4 11 197.895 221.818 12.299 57.607 o
-6 4 12 82.414 57.830 11.798 103.328 o
-6 4 13 10.065 5.750 12.255 150.217 o
-6 4 14 0.075 -1.237 11.318 188.842 o
-6 4 15 207.611 186.859 19.180 38.429 o
-6 5 1 521.202 443.179 18.214 24.053 o
-6 5 2 766.945 752.757 20.577 16.123 o
-6 5 3 85.829 92.990 10.051 112.980 o
-6 5 4 236.185 248.591 12.277 51.917 o
-6 5 5 130.107 113.117 8.178 106.416 o
-6 5 6 1076.960 1097.020 23.627 11.216 o
-6 5 7 52.044 61.404 8.816 163.358 o
-6 5 8 5.770 2.786 7.389 399.080 o
-6 5 9 6.225 -6.359 9.092 275.280 o
-6 5 10 664.788 679.201 22.698 16.693 o
-6 5 11 29.680 39.032 11.545 138.283 o
-6 5 12 40.796 46.551 11.819 124.684 o
-6 5 13 1.034 30.619 14.665 105.748 o
-6 5 14 319.034 305.481 25.872 22.270 o
-6 6 1 797.548 843.575 27.849 12.522 o
-6 6 2 25.358 25.687 10.637 166.322 o
-6 6 3 5.199 -2.338 12.649 147.242 o
-6 6 4 52.796 49.023 9.818 149.249 o
-6 6 5 986.619 1025.230 27.711 10.868 o
-6 6 6 43.499 32.234 10.524 149.975 o
-6 6 7 109.161 106.651 12.882 79.256 o
-6 6 8 5.435 8.809 12.209 153.804 o
-6 6 9 83.882 85.629 11.369 101.876 o
-6 6 10 142.232 166.186 14.615 59.297 o
-6 6 11 411.293 395.875 26.240 19.602 o
-6 6 12 8.489 14.983 11.391 168.934 o
-6 6 13 174.600 128.426 18.204 44.996 o
-6 7 1 1.354 6.185 14.109 119.328 o
-6 7 2 101.478 97.487 17.827 54.201 o
-6 7 3 288.287 288.258 18.034 34.266 o
-6 7 4 0.764 -2.810 12.440 155.754 o
-6 7 5 4.481 -3.509 12.241 157.552 o
-6 7 6 507.813 525.117 25.122 18.164 o
-6 7 7 11.726 -17.138 11.198 178.874 o
-6 7 8 33.955 36.135 13.510 106.783 o
-6 7 9 156.653 147.670 24.198 30.844 o
-6 7 10 259.115 267.837 20.267 32.022 o
-6 7 11 23.894 22.815 16.260 82.238 o
-6 8 1 38.046 23.379 20.072 54.381 o
-6 8 2 67.791 26.944 22.522 41.988 o
-6 8 3 25.585 23.950 16.223 82.038 o
-6 8 4 76.702 113.084 15.297 69.552 o
-6 8 5 100.182 113.800 16.813 57.986 o
-6 8 6 4.762 19.816 21.663 50.244 o
-6 8 7 28.169 18.542 17.612 70.791 o
-6 8 8 258.742 228.122 21.330 30.966 o
-6 8 9 60.890 117.389 20.744 45.453 o
-5 0 2 1441.040 1317.840 28.774 8.121 o
-5 0 4 927.886 994.844 33.381 9.711 o
-5 0 6 196.531 162.195 10.296 69.750 o
-5 0 8 6395.470 6483.850 134.006 0.710 o
-5 0 10 576.369 536.584 20.020 20.594 o
-5 0 12 716.761 712.285 25.080 14.814 o
-5 0 14 45.003 56.346 11.989 117.512 o
-5 0 16 814.264 777.140 82.261 3.061 o
-5 1 1 54.051 72.321 6.567 201.743 o
-5 1 2 173.111 160.233 5.322 97.754 o
-5 1 3 3820.050 3876.590 47.879 2.418 o
-5 1 4 202.850 234.525 11.171 59.936 o
-5 1 5 21.420 11.498 14.852 99.364 o
-5 1 6 247.191 246.366 13.823 46.949 o
-5 1 7 4514.720 4589.800 61.079 1.796 o
-5 1 8 531.983 541.716 12.474 27.231 o
-5 1 9 362.557 393.822 13.376 35.692 o
-5 1 10 342.143 316.748 9.665 45.031 o
-5 1 11 3054.870 2997.690 48.356 3.037 o
-5 1 12 108.445 105.684 7.977 119.812 o
-5 1 13 1548.810 1584.850 31.322 7.057 o
-5 1 14 69.704 59.667 8.796 149.177 o
-5 1 15 472.559 459.657 24.442 19.632 o
-5 1 16 98.317 89.861 15.803 64.988 o
-5 2 1 47.964 43.191 5.774 261.750 o
-5 2 2 216.925 202.179 10.932 61.017 o
-5 2 3 53.912 39.125 4.244 300.674 o
-5 2 4 1609.020 1685.580 25.940 7.423 o
-5 2 5 2186.110 2250.890 36.428 4.777 o
-5 2 6 1180.420 1143.980 21.519 10.967 o
-5 2 7 0.777 -6.651 4.255 1289.940 o
-5 2 8 719.253 745.583 15.944 18.928 o
-5 2 9 138.445 131.590 8.011 100.779 o
-5 2 10 3.118 7.043 5.507 673.453 o
-5 2 11 540.943 546.441 14.683 25.213 o
-5 2 12 1822.400 1831.800 34.171 5.867 o
-5 2 13 304.075 305.730 13.097 42.077 o
-5 2 14 41.460 42.849 9.686 164.377 o
-5 2 15 83.269 66.141 12.975 90.402 o
-5 2 16 363.747 340.213 28.413 18.872 o
-5 3 1 549.621 542.017 13.480 25.958 o
-5 3 2 945.561 995.584 16.992 14.351 o
-5 3 3 838.504 856.418 16.970 16.184 o
-5 3 4 994.520 999.955 17.685 13.700 o
-5 3 5 481.289 508.864 12.348 29.511 o
-5 3 6 273.339 299.135 10.127 50.960 o
-5 3 7 2822.250 2798.960 43.859 3.446 o
-5 3 8 677.343 643.202 15.757 20.555 o
-5 3 9 554.268 574.952 14.173 24.890 o
-5 3 10 1691.330 1695.720 30.548 6.664 o
-5 3 11 834.405 795.764 18.127 16.140 o
-5 3 12 26.824 4.211 7.752 286.123 o
-5 3 13 202.594 198.198 12.736 56.987 o
-5 3 14 1052.980 1091.910 35.376 8.578 o
-5 3 15 10.632 9.745 13.292 127.534 o
-5 3 16 18.090 5.992 18.689 65.929 o
-5 4 1 144.233 152.412 14.103 62.193 o
-5 4 2 0.672 1.178 6.299 594.083 o
-5 4 3 202.556 215.379 7.676 73.547 o
-5 4 4 450.823 467.130 11.504 32.255 o
-5 4 5 510.135 526.176 12.967 27.746 o
-5 4 6 1.026 -1.274 5.332 826.018 o
-5 4 7 499.841 501.379 16.401 25.449 o
-5 4 8 265.436 261.983 10.475 52.858 o
-5 4 9 2314.190 2299.870 38.760 4.433 o
-5 4 10 90.274 75.665 10.663 108.412 o
-5 4 11 29.086 20.360 6.511 319.833 o
-5 4 12 170.071 162.352 11.459 69.385 o
-5 4 13 181.741 161.849 14.257 56.166 o
-5 4 14 1.115 -8.499 13.261 136.902 o
-5 4 15 511.430 510.714 29.040 15.704 o
-5 5 1 205.602 207.030 10.123 65.126 o
-5 5 2 515.483 517.911 15.558 25.546 o
-5 5 3 872.301 849.051 19.029 15.112 o
-5 5 4 801.786 834.636 19.542 15.727 o
-5 5 5 16.646 7.388 5.738 482.829 o
-5 5 6 1250.570 1257.060 26.235 9.386 o
-5 5 7 24.982 12.676 6.690 339.572 o
-5 5 8 398.639 423.674 16.799 29.174 o
-5 5 9 209.776 215.265 11.643 58.723 o
-5 5 10 1349.320 1367.490 32.274 7.773 o
-5 5 11 6.866 13.447 9.078 257.742 o
-5 5 12 1.200 0.697 9.721 252.644 o
-5 5 13 46.974 57.427 11.044 129.883 o
-5 5 14 698.188 684.515 29.755 13.035 o
-5 6 1 423.794 448.474 17.230 27.502 o
-5 6 2 2.956 10.839 7.729 362.286 o
-5 6 3 61.849 53.029 10.097 136.585 o
-5 6 4 63.536 60.206 9.486 142.562 o
-5 6 5 1032.110 1134.850 30.271 9.732 o
-5 6 6 274.722 269.603 14.468 42.503 o
-5 6 7 3.489 21.482 8.860 267.334 o
-5 6 8 35.026 24.366 9.748 179.198 o
-5 6 9 277.386 315.601 17.401 35.258 o
-5 6 10 2.392 -16.389 10.766 205.227 o
-5 6 11 534.862 514.601 20.942 20.841 o
-5 6 12 41.970 33.825 13.158 108.467 o
-5 6 13 442.587 416.398 23.436 21.323 o
-5 7 1 9.874 8.060 12.888 136.087 o
-5 7 2 28.322 7.282 11.170 159.403 o
-5 7 3 111.548 137.029 13.214 73.479 o
-5 7 4 77.134 98.837 13.279 85.062 o
-5 7 5 120.545 114.233 14.183 68.400 o
-5 7 6 810.985 741.451 24.747 13.989 o
-5 7 7 14.461 25.823 9.586 210.362 o
-5 7 8 57.704 77.578 12.920 97.135 o
-5 7 9 5.558 -4.259 13.345 132.414 o
-5 7 10 528.491 524.609 45.559 8.653 o
-5 7 11 81.941 75.809 13.111 88.237 o
-5 7 12 19.794 32.616 14.564 99.721 o
-5 8 1 322.061 338.448 23.354 24.675 o
-5 8 2 84.073 106.782 14.309 75.072 o
-5 8 3 79.300 115.539 14.459 74.155 o
-5 8 4 18.896 8.281 13.567 118.897 o
-5 8 5 206.088 223.502 20.292 35.140 o
-5 8 6 5.631 15.005 15.113 101.051 o
-5 8 7 126.093 101.225 15.226 63.083 o
-5 8 8 270.104 314.320 20.233 30.803 o
-5 8 9 212.911 273.325 21.046 32.334 o
-5 8 10 110.663 73.405 27.964 26.648 o
-5 9 2 250.482 209.909 19.868 34.299 o
-5 9 3 23.756 61.322 15.258 86.752 o
-5 9 4 105.061 97.181 16.619 59.333 o
-5 9 5 0.128 1.685 15.440 101.179 o
-5 9 6 54.904 -1.217 18.593 61.694 o
-4 0 2 278.169 259.995 21.826 28.977 o
-4 0 4 5122.190 5324.100 112.114 0.994 o
-4 0 6 2166.340 2354.780 50.756 3.804 o
-4 0 8 5005.090 5006.660 82.355 1.346 o
-4 0 10 673.578 610.885 20.777 18.053 o
-4 0 12 951.701 927.047 28.585 11.081 o
-4 0 14 19.337 54.852 15.055 90.884 o
-4 0 16 709.878 617.236 49.310 7.159 o
-4 1 1 3557.690 3677.820 41.132 2.764 o
-4 1 2 160.486 166.371 6.350 96.384 o
-4 1 3 2071.640 2046.190 31.107 5.494 o
-4 1 4 77.941 74.132 6.187 177.325 o
-4 1 5 605.855 625.097 15.112 22.488 o
-4 1 6 712.326 758.885 14.245 19.723 o
-4 1 7 1658.300 1615.400 23.974 7.611 o
-4 1 8 2.432 -0.705 6.704 514.959 o
-4 1 9 583.125 602.362 11.900 25.333 o
-4 1 10 288.956 289.592 10.306 49.540 o
-4 1 11 466.957 443.700 13.023 30.564 o
-4 1 12 65.832 36.035 6.725 207.551 o
-4 1 13 248.532 237.619 10.758 55.330 o
-4 1 14 48.049 54.883 11.485 123.418 o
-4 1 15 562.515 564.469 25.691 16.871 o
-4 1 16 21.288 19.855 16.460 81.392 o
-4 2 1 636.372 643.237 11.120 23.932 o
-4 2 2 34.429 36.846 4.205 387.040 o
-4 2 3 3804.130 3984.640 47.659 2.406 o
-4 2 4 8731.360 8860.150 115.306 0.615 o
-4 2 5 347.160 340.211 12.620 39.105 o
-4 2 6 360.281 368.685 12.005 38.455 o
-4 2 7 6.445 5.755 8.710 289.022 o
-4 2 8 1152.690 1161.890 20.288 11.342 o
-4 2 9 36.448 37.291 4.271 372.326 o
-4 2 10 156.374 174.216 7.181 92.309 o
-4 2 11 137.609 137.011 7.325 104.640 o
-4 2 12 1719.140 1681.660 30.283 6.645 o
-4 2 13 402.585 375.974 14.858 32.301 o
-4 2 14 0.947 -4.965 11.700 175.788 o
-4 2 15 105.907 103.009 22.948 36.583 o
-4 2 16 324.715 312.644 27.262 20.700 o
-4 3 1 160.461 158.217 9.028 83.844 o
-4 3 2 2276.070 2295.820 35.530 4.688 o
-4 3 3 75.425 68.758 5.679 192.129 o
-4 3 4 82.017 88.827 6.878 155.741 o
-4 3 5 1081.020 1087.230 26.909 10.419 o
-4 3 6 483.299 490.231 15.827 26.566 o
-4 3 7 475.749 484.052 12.353 30.146 o
-4 3 8 9.680 6.770 4.347 808.306 o
-4 3 9 169.527 168.846 7.562 87.347 o
-4 3 10 350.926 336.810 11.631 40.550 o
-4 3 11 1017.990 1042.200 21.241 12.384 o
-4 3 12 2.954 -6.227 8.520 322.353 o
-4 3 13 2.824 -1.491 9.380 267.799 o
-4 3 14 240.951 223.152 18.865 36.442 o
-4 3 15 86.404 76.102 16.466 64.112 o
-4 3 16 63.625 1.252 22.736 42.349 o
-4 4 1 2505.140 2554.030 32.700 4.405 o
-4 4 2 368.550 385.341 9.951 40.346 o
-4 4 3 731.240 742.409 18.550 17.546 o
-4 4 4 752.561 713.501 12.553 20.170 o
-4 4 5 34.559 30.058 6.006 309.754 o
-4 4 6 205.210 224.861 8.528 69.244 o
-4 4 7 2504.180 2461.660 39.278 4.104 o
-4 4 8 1770.510 1713.340 30.026 6.517 o
-4 4 9 979.682 1024.360 20.057 13.060 o
-4 4 10 0.229 -2.067 5.614 763.181 o
-4 4 11 16.808 15.525 6.882 355.098 o
-4 4 12 292.341 300.182 14.216 40.856 o
-4 4 13 104.259 97.288 12.264 85.982 o
-4 4 14 42.222 24.803 13.949 100.451 o
-4 4 15 227.312 211.537 21.658 31.855 o
-4 5 1 276.188 287.385 9.847 51.875 o
-4 5 2 1674.950 1615.560 27.730 7.128 o
-4 5 3 1211.330 1206.730 22.354 10.454 o
-4 5 4 4.119 4.759 4.408 971.101 o
-4 5 5 3.783 2.960 5.168 776.996 o
-4 5 6 712.530 700.872 16.300 19.205 o
-4 5 7 65.576 62.317 7.254 179.179 o
-4 5 8 56.969 88.653 7.979 161.300 o
-4 5 9 0.283 -0.065 8.119 365.878 o
-4 5 10 285.950 308.250 12.978 43.486 o
-4 5 11 29.504 4.676 8.744 234.033 o
-4 5 12 24.625 10.704 9.498 209.374 o
-4 5 13 205.373 205.382 16.773 44.043 o
-4 5 14 394.359 366.416 22.284 23.896 o
-4 6 1 590.752 632.719 17.574 21.130 o
-4 6 2 247.526 244.901 12.716 49.825 o
-4 6 3 930.376 875.646 21.992 13.447 o
-4 6 4 85.072 105.622 9.592 115.240 o
-4 6 5 1378.270 1434.130 34.451 7.260 o
-4 6 6 69.870 62.774 10.002 129.848 o
-4 6 7 62.849 36.124 8.096 180.081 o
-4 6 8 397.232 385.431 14.515 32.767 o
-4 6 9 93.145 101.945 13.781 77.236 o
-4 6 10 27.712 22.045 8.773 220.447 o
-4 6 11 640.547 552.767 18.546 20.333 o
-4 6 12 14.922 17.168 12.088 145.799 o
-4 6 13 269.675 271.803 22.987 27.351 o
-4 7 1 374.090 351.020 23.014 23.738 o
-4 7 2 343.057 314.175 22.314 25.703 o
-4 7 3 5.994 14.814 12.547 143.416 o
-4 7 4 0.110 13.180 10.558 206.627 o
-4 7 5 14.092 3.270 10.052 211.680 o
-4 7 6 677.922 723.841 24.502 15.404 o
-4 7 7 37.110 74.807 13.377 99.886 o
-4 7 8 0.538 7.532 13.163 136.823 o
-4 7 9 2.594 14.851 12.415 148.844 o
-4 7 10 486.667 470.604 19.494 23.400 o
-4 7 11 8.083 6.833 11.863 160.869 o
-4 7 12 53.326 42.308 16.377 72.996 o
-4 8 1 157.717 135.694 14.388 60.239 o
-4 8 2 10.246 1.162 10.538 201.352 o
-4 8 3 20.042 12.219 10.964 170.026 o
-4 8 4 6.396 7.901 15.056 102.801 o
-4 8 5 209.952 210.026 17.161 42.543 o
-4 8 6 259.465 222.396 23.971 26.913 o
-4 8 7 112.285 89.403 22.382 38.080 o
-4 8 8 87.653 64.781 14.735 75.707 o
-4 8 9 376.865 399.700 22.943 23.232 o
-4 8 10 46.792 31.648 14.994 87.059 o
-4 9 1 8.239 5.345 15.303 99.434 o
-4 9 2 373.730 382.530 22.087 24.392 o
-4 9 3 60.102 71.727 16.908 65.825 o
-4 9 4 152.729 158.301 15.210 56.064 o
-4 9 5 76.615 44.457 12.724 98.317 o
-4 9 6 150.213 173.638 20.549 38.592 o
-4 9 7 33.031 35.293 20.817 50.809 o
-4 9 8 7.828 21.045 25.644 35.956 o
-3 0 2 6012.820 6423.750 136.397 0.718 o
-3 0 4 9864.170 9724.050 155.005 0.439 o
-3 0 6 629.395 582.002 13.920 23.191 o
-3 0 8 15898.300 15891.800 220.341 0.206 o
-3 0 10 93.489 92.445 15.515 67.170 o
-3 0 12 1326.170 1399.880 33.680 7.568 o
-3 0 14 317.849 308.820 28.081 20.063 o
-3 0 16 101.899 81.456 31.357 21.896 o
-3 1 1 4295.750 4319.930 47.458 2.143 o
-3 1 2 398.857 366.035 6.451 43.071 o
-3 1 3 19406.200 19469.500 218.976 0.166 o
-3 1 4 593.223 617.413 12.413 24.560 o
-3 1 5 13905.300 14434.800 166.552 0.288 o
-3 1 6 936.813 922.849 16.916 14.805 o
-3 1 7 2956.300 2988.840 33.023 3.693 o
-3 1 8 700.981 702.424 10.965 21.928 o
-3 1 9 5041.760 5022.410 72.394 1.464 o
-3 1 10 492.665 495.090 11.275 30.287 o
-3 1 11 16.144 16.289 4.755 560.800 o
-3 1 12 60.585 79.252 7.599 169.018 o
-3 1 13 1340.290 1394.930 35.237 7.291 o
-3 1 14 23.777 -0.018 11.395 161.398 o
-3 1 15 21.879 12.737 14.488 103.514 o
-3 1 16 107.062 102.210 21.274 41.144 o
-3 2 1 4241.870 4401.070 48.842 2.123 o
-3 2 2 27.843 25.787 4.050 475.230 o
-3 2 3 3829.040 3849.810 48.558 2.404 o
-3 2 4 15693.800 15357.400 176.441 0.247 o
-3 2 5 6194.710 6326.550 75.374 1.146 o
-3 2 6 411.707 432.036 11.034 35.305 o
-3 2 7 798.551 779.588 20.133 15.818 o
-3 2 8 2433.120 2456.350 30.045 4.701 o
-3 2 9 152.135 158.345 12.311 68.872 o
-3 2 10 441.448 428.750 11.650 33.322 o
-3 2 11 1742.870 1798.050 28.042 6.690 o
-3 2 12 1574.450 1643.820 32.177 6.812 o
-3 2 13 8.528 8.611 8.830 272.481 o
-3 2 14 46.160 36.496 12.099 120.349 o
-3 2 15 92.607 91.210 16.065 64.302 o
-3 2 16 259.776 130.164 30.701 19.743 o
-3 3 1 31.291 27.404 5.857 334.018 o
-3 3 2 8770.760 8714.950 96.678 0.686 o
-3 3 3 4076.500 4174.000 49.095 2.223 o
-3 3 4 104.410 114.473 4.314 153.863 o
-3 3 5 2921.430 2891.940 38.660 3.546 o
-3 3 6 6450.390 6477.020 78.349 1.080 o
-3 3 7 1588.800 1601.750 32.993 6.728 o
-3 3 8 966.962 941.507 15.416 14.855 o
-3 3 9 3470.520 3464.320 44.143 2.791 o
-3 3 10 469.066 467.717 11.161 31.827 o
-3 3 11 486.251 511.326 13.799 28.011 o
-3 3 12 543.818 533.658 18.311 22.490 o
-3 3 13 191.153 209.449 15.512 48.610 o
-3 3 14 237.191 243.158 20.814 32.395 o
-3 3 15 50.374 24.548 16.827 71.952 o
-3 4 1 10913.700 10958.000 124.011 0.462 o
-3 4 2 20.678 29.991 7.561 276.968 o
-3 4 3 1366.510 1308.570 18.358 10.107 o
-3 4 4 831.913 811.220 17.209 16.435 o
-3 4 5 789.975 803.959 16.125 17.431 o
-3 4 6 30.901 29.309 4.115 435.598 o
-3 4 7 5386.510 5418.570 85.982 1.218 o
-3 4 8 499.488 471.545 12.755 29.164 o
-3 4 9 1593.710 1685.510 29.038 7.095 o
-3 4 10 85.008 97.339 8.393 130.955 o
-3 4 11 802.121 751.870 20.684 15.698 o
-3 4 12 164.047 157.568 12.918 64.213 o
-3 4 13 0.938 14.824 11.912 162.476 o
-3 4 14 14.608 13.766 13.813 115.808 o
-3 4 15 153.810 115.013 25.034 29.921 o
-3 5 1 892.340 871.722 27.947 11.783 o
-3 5 2 5521.400 5535.390 71.395 1.344 o
-3 5 3 337.619 338.203 8.500 46.359 o
-3 5 4 45.711 60.879 5.423 256.974 o
-3 5 5 11.387 13.053 4.982 605.621 o
-3 5 6 5349.180 5395.640 77.896 1.313 o
-3 5 7 431.454 453.198 13.110 31.654 o
-3 5 8 332.559 266.374 10.844 45.717 o
-3 5 9 13.369 13.652 7.316 342.818 o
-3 5 10 1074.520 1025.970 23.372 11.507 o
-3 5 11 14.635 29.583 12.538 132.892 o
-3 5 12 477.656 423.239 18.673 24.915 o
-3 5 13 287.825 283.162 17.655 35.075 o
-3 5 14 163.060 154.900 23.095 32.647 o
-3 6 1 1827.000 1944.000 37.333 5.462 o
-3 6 2 40.411 44.133 6.354 259.012 o
-3 6 3 2415.300 2328.230 43.338 4.032 o
-3 6 4 443.040 462.304 16.345 27.648 o
-3 6 5 3064.910 3193.140 52.916 2.812 o
-3 6 6 4.039 0.027 5.884 636.132 o
-3 6 7 601.045 555.185 15.431 23.133 o
-3 6 8 0.023 -4.172 10.768 208.691 o
-3 6 9 36.464 38.556 8.640 198.427 o
-3 6 10 196.157 210.667 12.860 56.590 o
-3 6 11 773.286 722.143 28.716 12.786 o
-3 6 12 0.573 13.906 12.133 157.606 o
-3 6 13 104.567 82.949 21.159 42.252 o
-3 7 1 113.812 130.193 10.842 89.206 o
-3 7 2 1156.970 1165.540 33.914 8.405 o
-3 7 3 510.453 513.425 18.700 23.095 o
-3 7 4 10.424 0.134 8.206 317.624 o
-3 7 5 245.354 241.926 14.359 45.930 o
-3 7 6 860.526 816.734 32.415 10.707 o
-3 7 7 1.382 -3.235 9.681 255.050 o
-3 7 8 44.161 22.451 10.012 164.364 o
-3 7 9 136.924 135.169 11.330 79.462 o
-3 7 10 926.177 834.013 26.884 12.030 o
-3 7 11 138.908 114.285 15.007 61.428 o
-3 7 12 0.114 12.503 13.639 126.459 o
-3 8 1 438.081 466.850 22.338 21.910 o
-3 8 2 379.113 411.095 19.137 27.219 o
-3 8 3 52.582 51.175 11.744 118.395 o
-3 8 4 232.001 222.476 14.926 46.308 o
-3 8 5 316.217 361.107 17.896 31.811 o
-3 8 6 278.471 264.282 15.413 40.428 o
-3 8 7 446.431 407.922 19.668 24.893 o
-3 8 8 641.548 606.235 31.995 12.752 o
-3 8 9 183.677 221.597 15.947 47.425 o
-3 8 10 41.555 43.181 15.930 78.732 o
-3 9 1 149.782 128.050 18.133 47.160 o
-3 9 2 344.683 348.510 21.619 26.064 o
-3 9 3 76.445 80.151 14.506 78.086 o
-3 9 4 9.960 8.688 13.223 129.472 o
-3 9 5 238.498 259.208 17.932 37.587 o
-3 9 6 66.411 69.730 12.665 98.083 o
-3 9 7 24.630 42.004 13.850 104.991 o
-3 9 8 78.658 104.442 18.284 54.237 o
-3 10 2 17.151 39.639 19.065 61.304 o
-3 10 3 2.112 -20.113 24.220 41.133 o
-2 0 4 6688.590 6582.110 106.157 0.856 o
-2 0 6 39.154 38.706 3.283 400.332 o
-2 0 8 17229.300 17486.900 240.552 0.175 o
-2 0 10 76.040 74.938 6.782 169.357 o
-2 0 12 2354.320 2541.970 53.934 3.408 o
-2 0 14 194.789 190.008 20.483 36.050 o
-2 0 16 250.850 176.943 38.287 13.734 o
-2 1 3 15966.200 15885.100 193.574 0.226 o
-2 1 4 427.437 459.805 11.191 33.741 o
-2 1 5 5009.330 4796.270 51.134 1.780 o
-2 1 6 538.329 562.384 10.638 28.053 o
-2 1 7 9001.680 9048.210 88.536 0.691 o
-2 1 8 162.257 151.421 8.679 86.112 o
-2 1 9 3375.090 3428.540 48.017 2.740 o
-2 1 10 2084.270 2115.770 36.364 5.016 o
-2 1 11 1471.450 1559.940 26.782 7.924 o
-2 1 12 19.273 26.698 7.765 275.258 o
-2 1 13 3195.480 3261.460 56.247 2.618 o
-2 1 14 1.838 -7.431 16.429 89.158 o
-2 1 15 64.434 38.355 20.168 50.642 o
-2 1 16 191.281 175.520 31.584 19.522 o
-2 2 1 12.739 6.143 2.514 1229.450 o
-2 2 2 736.861 777.281 13.655 19.431 o
-2 2 3 523.039 491.024 12.271 28.468 o
-2 2 4 19307.100 19118.400 201.989 0.177 o
-2 2 5 6797.840 6875.860 78.082 1.018 o
-2 2 6 1928.040 1980.460 23.969 6.417 o
-2 2 7 339.716 325.563 9.186 45.642 o
-2 2 8 5445.860 5561.530 63.664 1.438 o
-2 2 9 368.621 391.790 10.335 39.628 o
-2 2 10 545.738 525.018 15.425 24.787 o
-2 2 11 795.414 816.398 18.571 16.291 o
-2 2 12 1772.970 1876.850 36.404 5.698 o
-2 2 13 56.698 47.658 9.828 146.578 o
-2 2 14 341.010 344.922 22.648 24.976 o
-2 2 15 322.766 286.520 29.901 18.530 o
-2 3 1 850.550 880.832 13.229 17.186 o
-2 3 2 8392.350 8431.370 96.265 0.720 o
-2 3 3 2543.910 2509.070 35.627 4.232 o
-2 3 4 371.189 401.661 9.436 40.334 o
-2 3 5 1288.440 1196.620 21.637 10.223 o
-2 3 6 5823.330 5853.820 71.120 1.271 o
-2 3 7 909.180 942.646 14.289 15.782 o
-2 3 8 204.901 220.908 9.816 65.218 o
-2 3 9 2368.230 2370.860 39.756 4.270 o
-2 3 10 2541.580 2638.460 39.505 3.965 o
-2 3 11 1390.520 1472.400 29.947 7.854 o
-2 3 12 513.615 481.416 18.169 23.826 o
-2 3 13 177.563 192.317 14.047 55.662 o
-2 3 14 959.006 925.002 43.740 7.363 o
-2 3 15 15.101 12.540 19.921 58.330 o
-2 4 1 6719.450 6895.600 77.552 1.030 o
-2 4 2 305.954 330.770 7.070 51.831 o
-2 4 3 663.182 717.784 14.226 20.954 o
-2 4 4 2680.460 2698.930 38.207 3.866 o
-2 4 5 2708.140 2878.290 38.742 3.733 o
-2 4 6 80.031 73.007 8.049 147.287 o
-2 4 7 4025.660 4031.790 50.641 2.239 o
-2 4 8 1474.970 1487.140 33.901 7.024 o
-2 4 9 2501.830 2658.640 40.119 3.963 o
-2 4 10 22.236 19.272 6.686 337.603 o
-2 4 11 1445.440 1376.050 30.726 7.715 o
-2 4 12 306.879 317.282 16.547 35.311 o
-2 4 13 85.914 76.354 15.825 67.892 o
-2 4 14 80.612 61.606 16.410 66.419 o
-2 5 1 864.349 849.551 27.088 12.316 o
-2 5 2 4474.400 4509.830 63.584 1.776 o
-2 5 3 131.816 128.948 6.372 115.469 o
-2 5 4 141.197 173.286 8.082 92.343 o
-2 5 5 185.677 179.544 10.629 68.758 o
-2 5 6 4661.410 4727.270 69.015 1.619 o
-2 5 7 345.182 351.847 10.943 41.515 o
-2 5 8 8.142 23.607 5.622 499.282 o
-2 5 9 33.044 35.706 6.278 293.020 o
-2 5 10 2008.530 2016.000 37.755 5.089 o
-2 5 11 95.284 108.986 13.430 78.398 o
-2 5 12 181.057 166.083 17.157 46.251 o
-2 5 13 47.971 28.829 16.264 76.225 o
-2 5 14 645.638 716.025 49.454 7.161 o
-2 6 1 1137.440 1180.130 24.002 10.563 o
-2 6 2 23.598 21.466 6.509 338.732 o
-2 6 3 1774.110 1708.300 34.392 6.056 o
-2 6 4 0.330 -4.775 7.456 433.252 o
-2 6 5 3990.120 4156.880 65.716 1.919 o
-2 6 6 656.308 606.954 15.544 21.397 o
-2 6 7 395.467 356.812 11.925 36.953 o
-2 6 8 20.664 26.986 6.974 312.004 o
-2 6 9 431.621 446.932 15.152 29.534 o
-2 6 10 6.916 4.267 9.945 227.171 o
-2 6 11 1133.640 1036.950 39.769 7.537 o
-2 6 12 5.538 19.035 17.064 79.636 o
-2 6 13 57.529 57.281 26.127 32.014 o
-2 7 1 14.896 17.699 9.185 231.708 o
-2 7 2 1072.340 1112.430 26.293 10.548 o
-2 7 3 302.135 346.635 13.885 39.446 o
-2 7 4 149.962 198.362 10.965 72.058 o
-2 7 5 56.870 72.543 9.057 149.961 o
-2 7 6 1443.820 1453.920 30.874 7.584 o
-2 7 7 211.044 206.725 12.243 57.111 o
-2 7 8 146.405 107.651 9.684 90.903 o
-2 7 9 30.395 24.092 10.973 154.760 o
-2 7 10 1232.660 1195.420 37.305 7.504 o
-2 7 11 0.265 -26.550 15.393 102.051 o
-2 7 12 4.881 -0.666 30.250 26.331 o
-2 8 1 1042.170 1067.370 30.284 9.834 o
-2 8 2 607.460 680.810 25.964 15.599 o
-2 8 3 472.376 445.003 19.023 24.447 o
-2 8 4 12.153 10.316 11.455 165.940 o
-2 8 5 67.440 81.617 10.013 125.642 o
-2 8 6 0.743 -10.482 8.832 307.797 o
-2 8 7 391.170 342.194 14.567 33.896 o
-2 8 8 488.072 528.347 19.065 23.113 o
-2 8 9 171.962 167.335 20.457 37.822 o
-2 8 10 6.889 3.270 14.584 110.067 o
-2 9 1 1.582 17.831 14.318 113.161 o
-2 9 2 375.088 365.629 21.998 24.655 o
-2 9 3 334.899 383.584 21.504 26.000 o
-2 9 4 1.801 16.864 12.034 157.720 o
-2 9 5 123.052 132.159 15.741 58.962 o
-2 9 6 423.260 376.670 21.466 23.981 o
-2 9 7 307.895 336.114 23.083 25.368 o
-2 9 8 3.805 4.393 16.296 89.438 o
-2 10 1 157.111 193.524 23.971 30.464 o
-2 10 2 26.705 28.052 18.527 64.065 o
-2 10 3 83.473 95.779 20.434 45.674 o
-2 10 4 360.968 384.341 29.997 17.374 o
-1 0 4 3040.830 2717.410 39.572 3.484 o
-1 0 6 2615.400 2554.330 40.588 3.880 o
-1 0 8 4573.690 4682.760 71.067 1.613 o
-1 0 10 1.032 1.520 7.495 419.552 o
-1 0 12 2258.010 2300.610 65.306 2.972 o
-1 0 14 16.768 -6.813 18.975 64.675 o
-1 1 4 5.574 -1.122 1.949 2845.250 o
-1 1 5 5836.700 5855.330 56.046 1.411 o
-1 1 6 144.004 157.845 4.963 111.493 o
-1 1 7 3159.280 3348.570 37.081 3.241 o
-1 1 8 436.196 444.415 8.681 36.207 o
-1 1 9 1389.150 1413.760 19.803 9.529 o
-1 1 10 818.116 831.578 16.444 16.772 o
-1 1 11 302.656 340.358 13.094 41.035 o
-1 1 12 194.850 205.899 11.895 60.432 o
-1 1 13 698.557 735.066 25.656 14.615 o
-1 1 14 0.961 16.765 13.587 125.722 o
-1 1 15 195.448 180.794 22.576 31.931 o
-1 2 3 5952.530 5905.250 68.157 1.274 o
-1 2 4 11871.600 11794.100 124.079 0.420 o
-1 2 5 1170.260 1226.630 15.099 12.056 o
-1 2 6 12.277 24.541 2.262 934.824 o
-1 2 7 166.087 166.429 7.211 90.383 o
-1 2 8 1491.630 1527.440 27.063 7.872 o
-1 2 9 62.275 66.945 5.982 206.177 o
-1 2 10 11.487 0.423 5.837 550.586 o
-1 2 11 130.460 128.504 10.239 88.833 o
-1 2 12 1001.160 1007.700 29.144 10.455 o
-1 2 13 47.779 36.991 11.825 123.398 o
-1 2 14 94.314 69.874 15.616 68.294 o
-1 2 15 293.959 207.702 23.665 26.613 o
-1 3 1 2177.820 2085.980 28.047 5.502 o
-1 3 2 2769.980 2766.450 38.332 3.746 o
-1 3 3 4724.380 4881.950 61.001 1.705 o
-1 3 4 266.438 246.775 8.144 59.255 o
-1 3 5 1432.650 1452.790 19.991 9.225 o
-1 3 6 1963.500 1964.910 27.853 6.035 o
-1 3 7 219.486 244.386 6.771 70.296 o
-1 3 8 125.463 146.740 6.338 114.487 o
-1 3 9 2625.520 2742.170 46.799 3.488 o
-1 3 10 413.533 406.705 16.399 29.430 o
-1 3 11 728.643 786.022 24.579 14.586 o
-1 3 12 68.372 54.650 11.473 113.525 o
-1 3 13 133.133 150.725 14.164 63.634 o
-1 3 14 392.381 374.889 24.082 22.036 o
-1 4 1 4995.940 5024.000 62.330 1.605 o
-1 4 2 3.207 -0.933 4.217 1181.180 o
-1 4 3 1337.860 1303.930 21.646 9.723 o
-1 4 4 993.962 999.374 17.062 13.877 o
-1 4 5 81.856 70.386 6.782 165.806 o
-1 4 6 1.736 -2.383 9.553 261.004 o
-1 4 7 2088.000 2022.140 31.015 5.494 o
-1 4 8 1214.490 1259.730 35.972 7.698 o
-1 4 9 328.329 350.776 14.199 37.313 o
-1 4 10 5.797 7.225 7.748 356.064 o
-1 4 11 290.688 283.946 16.891 36.307 o
-1 4 12 283.764 304.021 19.873 31.065 o
-1 4 13 353.133 348.741 22.544 24.761 o
-1 4 14 6.854 13.097 23.599 42.593 o
-1 5 1 290.576 263.119 12.345 46.182 o
-1 5 2 3189.780 3166.080 49.089 2.881 o
-1 5 3 891.141 924.245 19.693 14.339 o
-1 5 4 38.521 20.285 13.027 114.711 o
-1 5 5 1959.760 1943.120 32.362 5.679 o
-1 5 6 2293.100 2349.390 36.270 4.585 o
-1 5 7 489.686 501.610 14.221 27.676 o
-1 5 8 9.537 18.008 6.229 444.252 o
-1 5 9 0.069 -4.739 6.560 561.675 o
-1 5 10 925.566 919.098 26.010 12.035 o
-1 5 11 92.011 83.861 14.254 76.160 o
-1 5 12 43.721 4.886 15.348 88.106 o
-1 5 13 215.028 251.857 24.861 26.425 o
-1 6 1 138.866 144.768 11.874 74.896 o
-1 6 2 697.075 680.505 17.926 18.767 o
-1 6 3 3716.510 3721.190 63.269 2.125 o
-1 6 4 6.113 5.654 11.155 183.380 o
-1 6 5 1240.820 1314.530 26.192 9.314 o
-1 6 6 97.543 93.797 7.259 137.201 o
-1 6 7 370.630 333.469 12.367 38.333 o
-1 6 8 430.673 407.946 15.532 29.820 o
-1 6 9 129.314 125.625 11.397 81.976 o
-1 6 10 11.875 -6.282 11.275 176.460 o
-1 6 11 377.898 366.849 22.400 24.137 o
-1 6 12 49.785 68.072 29.850 25.150 o
-1 7 1 84.507 88.659 13.003 86.667 o
-1 7 2 2228.140 2295.630 47.756 3.960 o
-1 7 3 123.296 127.579 13.515 70.443 o
-1 7 4 0.031 -6.785 6.945 501.491 o
-1 7 5 17.384 12.067 6.118 422.784 o
-1 7 6 586.978 591.012 15.442 23.041 o
-1 7 7 146.837 151.269 10.205 81.717 o
-1 7 8 221.377 197.451 12.678 55.038 o
-1 7 9 69.324 73.726 10.804 116.742 o
-1 7 10 703.639 724.965 25.923 14.494 o
-1 7 11 0.182 -18.720 18.797 68.474 o
-1 8 1 640.161 699.384 26.186 15.074 o
-1 8 2 2.933 2.473 8.982 287.472 o
-1 8 3 108.047 119.824 11.764 85.646 o
-1 8 4 33.081 20.334 8.376 226.570 o
-1 8 5 327.575 360.724 16.466 33.517 o
-1 8 6 264.144 251.573 14.521 43.758 o
-1 8 7 487.036 442.194 20.339 22.950 o
-1 8 8 35.089 88.468 15.640 77.545 o
-1 8 9 250.219 236.783 18.977 35.438 o
-1 8 10 4.641 30.439 40.464 14.632 o
-1 9 1 132.601 126.397 15.955 57.200 o
-1 9 2 622.519 627.167 29.609 13.891 o
-1 9 3 6.569 33.652 12.988 128.419 o
-1 9 4 35.592 19.461 24.544 37.767 o
-1 9 5 61.767 49.014 13.223 97.468 o
-1 9 6 638.490 627.558 34.484 11.686 o
-1 9 7 8.759 16.151 23.983 41.061 o
-1 9 8 2.426 9.094 13.907 121.435 o
-1 10 1 235.633 197.777 22.755 29.888 o
-1 10 2 143.225 130.464 25.977 28.325 o
-1 10 3 10.605 -13.449 17.463 77.096 o
-1 10 4 293.817 307.282 22.537 26.807 o
0 0 4 20646.800 19775.300 272.485 0.134 o
0 0 6 8477.180 8579.450 119.503 0.619 o
0 0 8 4028.560 3992.020 91.939 1.452 o
0 0 10 1873.920 1997.560 60.252 3.577 o
0 0 12 570.562 657.636 30.664 13.681 o
0 0 14 32.407 22.749 17.628 69.574 o
0 1 4 653.510 669.662 9.003 24.216 o
0 1 5 15477.000 14976.000 138.926 0.288 o
0 1 6 52.462 55.470 4.355 277.507 o
0 1 7 965.357 1011.970 14.695 14.719 o
0 1 8 1771.070 1842.030 30.053 6.369 o
0 1 9 2673.770 2849.720 47.737 3.368 o
0 1 10 452.894 439.833 14.244 29.888 o
0 1 11 31.951 28.823 8.374 221.134 o
0 1 12 8.446 8.171 9.824 225.989 o
0 1 13 535.125 521.947 25.566 17.536 o
0 1 14 11.998 -8.745 14.580 108.666 o
0 2 2 5282.350 5190.720 65.731 1.483 o
0 2 3 20670.700 20021.900 206.702 0.162 o
0 2 4 25063.700 24252.400 260.878 0.111 o
0 2 5 185.810 169.113 4.598 94.674 o
0 2 6 1593.380 1618.880 21.666 8.081 o
0 2 7 1620.990 1577.660 25.151 7.642 o
0 2 8 2656.890 2801.550 44.562 3.544 o
0 2 9 7.056 10.855 6.397 470.167 o
0 2 10 744.290 757.126 20.942 16.190 o
0 2 11 224.299 218.470 12.717 53.447 o
0 2 12 129.076 146.506 17.308 51.074 o
0 2 13 100.077 93.248 13.914 75.807 o
0 2 14 274.571 308.473 25.741 23.263 o
0 3 1 8291.730 8007.410 92.531 0.757 o
0 3 2 9292.600 9079.520 124.627 0.554 o
0 3 3 3628.070 3715.560 47.961 2.541 o
0 3 4 1646.210 1520.630 22.460 7.975 o
0 3 5 1370.620 1289.030 20.751 9.754 o
0 3 6 5556.980 5609.390 72.278 1.322 o
0 3 7 9.305 6.328 12.308 149.381 o
0 3 8 852.645 822.957 20.338 14.956 o
0 3 9 2200.440 2281.720 47.552 4.005 o
0 3 10 8.177 3.350 8.172 322.258 o
0 3 11 298.275 310.792 15.015 38.656 o
0 3 12 320.130 350.715 20.199 28.562 o
0 3 13 92.012 111.323 18.869 50.153 o
0 3 14 30.815 -16.135 23.795 40.862 o
0 4 0 2901.240 2769.090 50.577 3.120 o
0 4 1 13407.000 13115.300 160.693 0.314 o
0 4 2 84.683 94.827 6.687 153.454 o
0 4 3 5619.050 5629.090 76.716 1.265 o
0 4 4 2304.040 2321.490 35.069 4.665 o
0 4 5 58.569 57.607 4.665 251.680 o
0 4 6 144.688 138.144 10.910 79.774 o
0 4 7 4636.790 4586.790 71.057 1.610 o
0 4 8 895.662 970.088 22.836 13.074 o
0 4 9 0.078 7.834 9.374 265.273 o
0 4 10 89.491 101.247 13.268 81.767 o
0 4 11 1219.240 1169.310 41.162 6.920 o
0 4 12 126.410 147.375 16.832 53.115 o
0 4 13 0.172 17.782 18.334 70.399 o
0 5 1 14.279 11.049 10.740 183.217 o
0 5 2 9171.930 9098.650 131.769 0.536 o
0 5 3 17.690 16.050 16.083 86.307 o
0 5 4 1418.020 1379.920 23.081 8.981 o
0 5 5 222.065 226.949 8.065 67.613 o
0 5 6 2948.650 2882.980 50.105 3.073 o
0 5 7 1477.090 1455.500 28.039 7.894 o
0 5 8 846.927 765.661 20.216 15.348 o
0 5 9 44.270 33.456 11.206 136.446 o
0 5 10 147.091 143.856 16.130 53.882 o
0 5 11 20.578 31.530 17.862 69.183 o
0 5 12 167.601 186.307 31.020 20.370 o
0 5 13 276.695 276.149 23.980 25.749 o
0 6 0 5.119 9.589 6.742 449.637 o
0 6 1 957.892 982.397 20.452 13.281 o
0 6 2 380.086 382.806 12.498 36.302 o
0 6 3 5748.170 5741.340 87.327 1.136 o
0 6 4 73.907 91.834 6.899 161.383 o
0 6 5 1300.020 1348.000 25.235 9.172 o
0 6 6 8.102 12.473 7.001 395.881 o
0 6 7 1694.730 1658.950 34.026 6.307 o
0 6 8 0.042 3.529 11.140 192.646 o
0 6 9 18.501 31.229 11.937 141.210 o
0 6 10 17.084 -4.035 12.698 137.760 o
0 6 11 333.514 315.671 24.333 23.552 o
0 6 12 21.444 19.477 18.571 65.186 o
0 7 1 498.727 503.783 16.196 25.627 o
0 7 2 2862.130 2982.930 58.705 2.765 o
0 7 3 0.031 -4.421 12.500 154.861 o
0 7 4 5.339 10.290 6.569 465.299 o
0 7 5 1186.270 1225.180 25.617 9.865 o
0 7 6 425.794 423.393 16.231 28.932 o
0 7 7 67.673 50.875 8.972 151.424 o
0 7 8 318.220 282.355 14.571 39.146 o
0 7 9 0.105 -4.592 10.608 214.921 o
0 7 10 681.642 655.810 53.681 6.333 o
0 7 11 296.352 280.968 26.238 22.544 o
0 8 0 1812.390 2066.030 84.045 2.381 o
0 8 1 718.362 719.895 31.648 12.030 o
0 8 2 36.015 22.096 9.653 181.843 o
0 8 3 369.758 370.140 18.449 28.979 o
0 8 4 124.675 132.274 13.724 68.651 o
0 8 5 140.887 148.955 12.751 69.476 o
0 8 6 310.094 317.050 17.927 32.892 o
0 8 7 519.658 513.696 22.481 19.957 o
0 8 8 73.683 58.096 18.131 58.131 o
0 8 9 15.130 27.111 13.927 110.893 o
0 9 1 463.326 489.175 33.598 13.678 o
0 9 2 90.228 84.678 13.945 78.614 o
0 9 3 56.462 41.416 13.765 94.864 o
0 9 4 26.704 33.548 11.902 135.585 o
0 9 5 377.413 420.120 19.232 27.028 o
0 9 6 430.676 384.179 23.933 21.383 o
0 9 7 2.207 -39.519 17.960 74.601 o
0 10 0 97.954 98.918 25.683 30.797 o
0 10 1 41.440 26.087 14.551 93.819 o
0 10 2 102.939 90.359 19.783 46.700 o
0 10 3 3.929 14.391 18.300 70.301 o
0 10 4 531.065 487.645 32.885 13.542 o
1 0 4 11709.800 11349.700 313.987 0.174 o
1 0 6 8.648 8.947 5.514 583.338 o
1 0 8 7515.000 7941.880 154.114 0.540 o
1 0 10 1802.260 1889.090 48.620 4.539 o
1 0 12 1580.380 1621.590 47.009 5.127 o
1 1 3 6786.810 6551.420 69.646 1.097 o
1 1 4 217.426 190.404 3.978 84.001 o
1 1 5 15371.400 15482.300 156.648 0.269 o
1 1 6 5.855 6.667 3.420 1243.720 o
1 1 7 1020.360 1004.440 19.233 13.049 o
1 1 8 934.707 954.371 19.688 13.822 o
1 1 9 2869.580 3016.890 47.795 3.172 o
1 1 10 503.243 500.184 15.392 26.259 o
1 1 11 1.486 -3.751 8.171 355.816 o
1 1 12 6.445 -6.667 9.893 234.272 o
1 1 13 871.980 922.547 28.483 11.581 o
1 2 1 284.848 280.268 4.482 61.371 o
1 2 2 3.895 2.316 3.062 1773.920 o
1 2 3 816.283 777.977 11.588 18.956 o
1 2 4 12851.700 12504.700 117.007 0.395 o
1 2 5 3824.450 3848.650 45.543 2.476 o
1 2 6 24.973 24.181 7.293 286.140 o
1 2 7 2026.480 2037.250 29.272 5.727 o
1 2 8 4454.900 4618.780 67.476 1.704 o
1 2 9 333.440 345.810 11.908 40.934 o
1 2 10 292.272 320.518 13.416 41.758 o
1 2 11 478.867 469.893 20.261 22.899 o
1 2 12 298.551 293.707 17.764 34.156 o
1 2 13 83.719 74.126 17.487 59.175 o
1 3 0 1445.200 1426.900 17.494 9.568 o
1 3 1 6566.810 6578.000 68.199 1.134 o
1 3 2 7774.220 7755.170 82.097 0.856 o
1 3 3 4383.920 4202.330 48.757 2.109 o
1 3 4 1038.460 1079.610 16.172 13.384 o
1 3 5 1059.390 1078.310 16.761 13.080 o
1 3 6 5151.530 5067.340 69.939 1.470 o
1 3 7 8.616 17.331 11.983 152.993 o
1 3 8 218.523 233.674 13.081 52.176 o
1 3 9 2473.840 2572.430 62.008 2.938 o
1 3 10 567.398 523.182 21.993 19.477 o
1 3 11 81.973 98.329 12.841 87.359 o
1 3 12 575.465 578.189 28.454 15.091 o
1 3 13 178.939 183.099 24.724 28.613 o
1 4 0 3568.690 3476.880 39.835 2.850 o
1 4 1 10280.700 9859.060 112.233 0.533 o
1 4 2 6.133 8.234 3.127 1312.580 o
1 4 3 971.142 918.371 15.181 14.995 o
1 4 4 1559.550 1551.700 22.744 8.181 o
1 4 5 2021.350 2012.080 33.622 5.408 o
1 4 6 152.382 159.465 9.646 82.432 o
1 4 7 2862.570 2751.990 47.465 3.280 o
1 4 8 333.491 356.085 16.497 33.317 o
1 4 9 38.699 37.885 10.006 162.378 o
1 4 10 21.901 29.095 11.827 141.745 o
1 4 11 1471.240 1545.940 42.539 5.849 o
1 4 12 183.013 216.854 23.240 30.504 o
1 5 0 112.494 92.051 9.046 111.125 o
1 5 1 197.922 194.170 12.542 58.489 o
1 5 2 4597.680 4550.930 60.365 1.791 o
1 5 3 354.152 362.198 11.154 40.279 o
1 5 4 79.880 77.740 6.021 175.767 o
1 5 5 906.803 917.359 20.006 14.125 o
1 5 6 3789.540 3740.340 61.991 2.127 o
1 5 7 321.025 325.832 15.599 36.017 o
1 5 8 297.488 307.401 16.839 35.492 o
1 5 9 48.180 24.003 18.922 59.153 o
1 5 10 886.966 848.521 29.501 11.388 o
1 5 11 41.690 31.264 15.183 86.689 o
1 5 12 422.420 389.868 27.061 18.817 o
1 6 0 123.303 120.880 7.778 110.773 o
1 6 1 1028.170 974.063 19.107 13.141 o
1 6 2 4.870 2.390 5.568 669.934 o
1 6 3 3123.960 3108.310 50.937 2.871 o
1 6 4 143.189 121.524 11.465 78.791 o
1 6 5 1070.600 1049.150 24.719 11.119 o
1 6 6 0.406 -1.746 6.716 532.476 o
1 6 7 1409.210 1384.960 30.913 7.782 o
1 6 8 47.592 50.813 12.152 115.387 o
1 6 9 159.461 151.278 17.445 47.689 o
1 6 10 27.229 28.026 12.754 122.475 o
1 6 11 314.828 307.796 35.416 14.503 o
1 7 0 84.696 97.972 9.289 120.612 o
1 7 1 148.628 149.559 10.646 79.040 o
1 7 2 2434.100 2538.150 51.683 3.468 o
1 7 3 68.498 57.405 8.037 164.147 o
1 7 4 12.021 6.715 6.898 399.522 o
1 7 5 287.579 297.036 15.063 39.588 o
1 7 6 530.960 533.656 19.435 21.884 o
1 7 7 304.287 301.480 16.584 35.753 o
1 7 8 444.167 457.875 19.959 24.070 o
1 7 9 58.308 32.097 16.271 73.789 o
1 7 10 392.167 378.489 28.383 18.260 o
1 8 0 852.708 944.587 30.616 10.966 o
1 8 1 484.822 479.604 24.139 19.526 o
1 8 2 266.438 255.756 16.220 39.721 o
1 8 3 408.641 397.639 19.649 26.007 o
1 8 4 198.445 187.364 13.473 55.582 o
1 8 5 52.754 55.353 12.063 113.122 o
1 8 6 32.275 29.054 13.741 105.922 o
1 8 7 198.112 207.170 16.638 44.876 o
1 8 8 108.645 100.030 18.568 50.333 o
1 9 0 19.510 15.123 14.424 104.793 o
1 9 1 57.785 98.878 14.227 82.351 o
1 9 2 66.688 80.744 15.106 75.744 o
1 9 3 189.766 194.728 19.601 38.194 o
1 9 4 203.761 196.072 17.474 42.617 o
1 9 5 188.162 157.530 18.847 41.256 o
1 9 6 360.146 368.447 25.211 21.598 o
1 10 0 38.646 35.060 24.026 38.727 o
1 10 1 27.132 32.562 23.182 42.149 o
1 10 2 33.455 22.027 20.348 53.578 o
1 10 3 66.230 52.838 24.261 36.258 o
2 0 2 356.618 393.046 8.485 42.818 o
2 0 4 3385.990 3386.620 57.206 2.474 o
2 0 6 665.596 721.110 18.061 18.863 o
2 0 8 135.590 148.592 12.016 74.391 o
2 0 10 280.869 334.429 18.854 32.229 o
2 0 12 605.081 589.198 31.788 13.156 o
2 1 0 3653.070 3750.310 40.585 2.705 o
2 1 1 6623.920 6279.400 59.755 1.209 o
2 1 2 1331.380 1294.750 15.499 10.767 o
2 1 3 147.522 149.045 4.276 115.277 o
2 1 4 839.926 851.002 12.332 17.820 o
2 1 5 2370.660 2318.170 27.465 5.035 o
2 1 6 148.133 146.969 6.173 105.504 o
2 1 7 1631.850 1618.250 25.873 7.463 o
2 1 8 91.844 93.591 7.069 143.515 o
2 1 9 1097.850 1078.130 24.007 11.057 o
2 1 10 394.836 401.078 15.909 30.786 o
2 1 11 133.179 105.668 14.758 64.066 o
2 1 12 3.947 14.025 12.200 153.077 o
2 2 0 1937.820 1874.950 22.361 6.650 o
2 2 1 28.049 28.705 2.622 565.231 o
2 2 2 2553.760 2587.130 29.861 4.470 o
2 2 3 1560.650 1551.060 19.010 8.633 o
2 2 4 2199.780 2235.790 27.114 5.398 o
2 2 5 7.722 2.376 3.845 1084.940 o
2 2 6 500.643 533.986 11.350 29.247 o
2 2 7 416.189 400.667 11.244 35.616 o
2 2 8 880.118 851.782 20.008 14.672 o
2 2 9 57.130 54.383 8.889 160.499 o
2 2 10 1.129 2.826 9.246 276.174 o
2 2 11 0.759 -2.348 14.046 122.282 o
2 2 12 73.763 44.098 17.716 61.193 o
2 3 0 887.538 935.745 13.537 16.292 o
2 3 1 6096.520 6037.360 64.073 1.277 o
2 3 2 267.474 230.734 7.551 61.618 o
2 3 3 3242.810 3168.100 39.170 3.178 o
2 3 4 419.666 400.453 8.283 38.728 o
2 3 5 572.521 616.455 12.942 24.754 o
2 3 6 1130.640 1124.890 24.416 10.652 o
2 3 7 5.025 26.554 8.044 301.858 o
2 3 8 51.533 59.232 9.908 144.730 o
2 3 9 974.665 1015.850 30.483 10.212 o
2 3 10 377.381 361.422 18.826 28.397 o
2 3 11 66.525 84.677 23.074 38.706 o
2 3 12 76.406 118.692 23.960 35.063 o
2 4 0 2958.440 2939.050 35.822 3.607 o
2 4 1 439.794 402.236 10.585 35.158 o
2 4 2 483.723 499.316 9.297 32.194 o
2 4 3 558.656 567.846 13.725 25.192 o
2 4 4 377.503 374.745 15.525 32.473 o
2 4 5 86.723 76.581 8.251 138.347 o
2 4 6 36.013 26.120 6.405 292.838 o
2 4 7 157.316 134.555 11.150 76.052 o
2 4 8 216.388 242.664 15.069 46.368 o
2 4 9 1.344 -2.985 14.058 121.775 o
2 4 10 68.401 48.587 12.568 102.146 o
2 4 11 449.872 413.180 26.603 18.633 o
2 5 0 437.274 477.049 13.808 30.237 o
2 5 1 64.153 53.972 7.097 189.072 o
2 5 2 1961.650 1929.700 29.364 5.946 o
2 5 3 6.894 14.649 12.726 139.126 o
2 5 4 407.278 418.954 12.419 34.205 o
2 5 5 1633.820 1676.280 32.609 6.583 o
2 5 6 933.290 890.226 22.408 13.231 o
2 5 7 224.134 193.719 12.544 55.364 o
2 5 8 46.286 26.288 12.955 110.876 o
2 5 9 3.436 -2.043 10.655 207.883 o
2 5 10 267.298 246.298 20.895 31.056 o
2 5 11 9.271 6.816 15.753 93.490 o
2 6 0 1269.410 1251.050 24.618 9.624 o
2 6 1 7.243 11.771 6.079 503.706 o
2 6 2 6.522 -2.053 5.917 597.307 o
2 6 3 1126.720 1163.180 24.683 10.511 o
2 6 4 94.502 85.905 8.944 122.461 o
2 6 5 60.058 32.530 8.564 175.043 o
2 6 6 41.813 37.903 8.670 190.921 o
2 6 7 488.142 494.986 21.022 21.814 o
2 6 8 0.386 11.322 11.894 165.114 o
2 6 9 163.238 150.645 19.835 40.359 o
2 6 10 64.965 79.802 21.028 45.524 o
2 7 0 287.352 320.547 14.585 39.819 o
2 7 1 3.905 14.260 9.244 255.369 o
2 7 2 1820.670 1836.400 37.902 5.507 o
2 7 3 307.906 326.255 14.202 39.138 o
2 7 4 0.222 5.156 9.323 271.084 o
2 7 5 45.155 37.636 10.998 138.068 o
2 7 6 167.945 153.470 12.991 63.614 o
2 7 7 32.458 32.793 20.341 53.170 o
2 7 8 198.211 209.220 21.914 32.543 o
2 7 9 15.450 14.491 18.826 64.779 o
2 8 0 87.992 82.291 10.738 107.217 o
2 8 1 262.413 274.233 15.893 40.100 o
2 8 2 8.547 11.272 11.530 167.002 o
2 8 3 564.253 575.445 22.938 18.507 o
2 8 4 3.855 9.152 13.920 120.477 o
2 8 5 26.691 36.115 16.045 81.937 o
2 8 6 13.601 43.632 16.316 81.704 o
2 8 7 197.430 218.379 22.445 31.404 o
2 9 0 45.096 21.913 12.687 116.057 o
2 9 1 122.053 154.298 16.445 54.758 o
2 9 2 80.371 80.790 14.511 77.136 o
2 9 3 0.039 50.033 19.125 62.542 o
2 9 4 189.780 182.248 27.229 24.563 o
2 9 5 33.322 25.985 22.892 42.964 o
2 10 0 31.427 33.962 16.705 75.605 o
2 10 1 117.531 140.836 20.110 42.754 o
3 0 0 24158.000 23560.700 423.026 0.075 o
3 0 2 5314.020 5384.120 80.788 1.287 o
3 0 4 3172.480 3094.690 73.856 2.131 o
3 0 6 1045.580 1074.340 27.870 10.394 o
3 0 8 36.035 33.029 9.529 178.769 o
3 0 10 740.297 751.897 34.302 10.872 o
3 1 0 2023.650 2041.930 27.857 5.840 o
3 1 1 9856.080 9704.240 96.441 0.600 o
3 1 2 2610.340 2579.140 29.970 4.400 o
3 1 3 1.649 7.570 2.601 2131.250 o
3 1 4 35.648 31.133 4.617 373.681 o
3 1 5 4709.190 4801.500 61.409 1.713 o
3 1 6 39.328 44.275 5.462 295.001 o
3 1 7 103.770 112.809 8.249 117.798 o
3 1 8 421.579 437.126 15.217 29.984 o
3 1 9 220.381 219.093 13.037 52.866 o
3 1 10 2.854 -0.652 12.728 147.200 o
3 1 11 43.984 42.616 22.056 44.661 o
3 2 0 8343.140 8442.700 88.500 0.755 o
3 2 1 1.013 0.863 2.913 2493.480 o
3 2 2 2728.570 2750.120 30.497 4.141 o
3 2 3 2693.660 2666.290 34.197 4.057 o
3 2 4 2050.790 2078.190 28.589 5.697 o
3 2 5 436.710 444.965 11.548 33.282 o
3 2 6 1825.930 1923.540 32.604 5.924 o
3 2 7 346.145 359.314 12.734 38.431 o
3 2 8 588.186 582.872 19.439 20.390 o
3 2 9 11.778 5.874 10.768 188.498 o
3 2 10 91.537 123.936 13.455 77.414 o
3 2 11 2.939 10.180 17.432 77.912 o
3 3 0 521.103 548.978 9.653 29.543 o
3 3 1 7418.560 7359.900 76.908 0.935 o
3 3 2 1113.710 1040.530 16.759 12.805 o
3 3 3 467.558 436.064 14.930 28.741 o
3 3 4 1936.120 1943.790 31.410 5.804 o
3 3 5 192.542 203.996 9.911 68.309 o
3 3 6 551.583 506.352 21.205 20.429 o
3 3 7 97.601 102.263 13.277 79.688 o
3 3 8 330.775 334.035 22.831 25.138 o
3 3 9 238.003 241.420 18.068 37.798 o
3 3 10 19.156 9.476 13.011 127.725 o
3 3 11 3.402 -0.007 18.379 71.044 o
3 4 0 1061.670 1060.480 16.721 13.142 o
3 4 1 786.421 750.092 21.467 15.540 o
3 4 2 0.221 21.977 16.655 84.375 o
3 4 3 4866.380 4762.120 68.237 1.582 o
3 4 4 1221.150 1257.890 34.008 8.033 o
3 4 5 76.063 78.138 7.757 152.713 o
3 4 6 103.684 115.202 10.380 98.334 o
3 4 7 272.319 245.083 15.366 41.527 o
3 4 8 181.234 204.816 17.391 44.102 o
3 4 9 328.248 363.874 22.460 25.277 o
3 4 10 120.591 120.228 22.758 35.948 o
3 5 0 960.308 996.080 19.247 13.562 o
3 5 1 9.704 7.802 11.601 165.667 o
3 5 2 1358.450 1340.470 24.950 8.999 o
3 5 3 235.723 229.480 10.608 57.775 o
3 5 4 989.315 1019.270 26.307 11.253 o
3 5 5 352.887 371.071 25.933 21.010 o
3 5 6 283.661 212.686 14.823 43.065 o
3 5 7 173.916 175.671 16.959 47.047 o
3 5 8 190.244 218.583 18.490 40.175 o
3 5 9 0.563 4.635 18.664 68.998 o
3 6 0 116.703 121.926 7.411 116.578 o
3 6 1 146.332 132.407 8.817 92.723 o
3 6 2 641.577 599.600 17.865 20.337 o
3 6 3 1914.100 1902.700 53.506 4.041 o
3 6 4 60.538 79.749 10.698 120.977 o
3 6 5 22.473 27.959 12.272 133.362 o
3 6 6 213.866 219.097 16.962 42.484 o
3 6 7 911.516 903.055 37.393 8.935 o
3 6 8 72.120 63.596 22.322 41.238 o
3 6 9 0.171 20.628 23.564 42.903 o
3 7 0 446.454 507.478 18.108 25.181 o
3 7 1 6.356 -3.781 8.088 341.892 o
3 7 2 1745.140 1719.970 40.489 5.472 o
3 7 3 140.338 156.003 13.379 65.876 o
3 7 4 88.037 111.684 13.328 80.447 o
3 7 5 141.535 133.978 15.952 55.737 o
3 7 6 29.735 11.242 13.614 112.415 o
3 7 7 2.185 -10.744 18.965 66.951 o
3 8 0 689.744 731.028 25.880 14.611 o
3 8 1 54.964 36.055 10.322 143.544 o
3 8 2 296.948 309.016 20.998 28.828 o
3 8 3 181.171 178.180 18.876 40.971 o
3 8 4 34.808 20.482 17.581 69.691 o
3 8 5 99.456 100.069 27.429 27.488 o
3 8 6 87.623 66.800 20.846 44.990 o
3 9 0 70.633 64.409 14.559 80.760 o
3 9 1 340.519 370.530 23.418 23.821 o
3 9 2 32.696 31.201 22.463 44.363 o
3 9 3 0.136 27.376 21.712 50.100 o
4 0 0 9439.990 9516.310 139.921 0.495 o
4 0 2 745.417 734.430 17.271 18.007 o
4 0 4 4439.380 4306.620 78.155 1.570 o
4 0 6 240.148 236.465 16.785 40.657 o
4 0 8 232.138 205.596 19.265 36.476 o
4 0 10 882.922 891.270 52.870 5.948 o
4 1 0 637.477 617.189 11.002 24.283 o
4 1 1 2577.550 2638.320 30.754 4.366 o
4 1 2 1814.960 1782.660 25.023 6.834 o
4 1 3 465.003 426.486 11.305 32.710 o
4 1 4 26.428 35.859 5.426 360.967 o
4 1 5 3332.760 3344.330 52.459 2.650 o
4 1 6 1.288 -5.112 6.633 536.877 o
4 1 7 0.127 -6.385 8.241 355.853 o
4 1 8 71.631 75.868 11.246 110.016 o
4 1 9 636.488 607.298 27.350 14.961 o
4 1 10 6.279 24.733 18.483 67.721 o
4 2 0 3709.340 3737.830 43.515 2.607 o
4 2 1 639.313 633.172 11.144 23.969 o
4 2 2 275.444 284.715 9.293 53.304 o
4 2 3 663.965 642.710 19.681 18.580 o
4 2 4 1016.040 1034.440 20.741 12.560 o
4 2 5 35.014 36.501 7.447 240.455 o
4 2 6 700.401 731.699 18.522 18.048 o
4 2 7 1142.810 1141.400 26.904 9.988 o
4 2 8 660.186 664.614 24.024 16.138 o
4 2 9 0.084 -3.341 15.338 102.847 o
4 2 10 59.166 61.725 29.964 24.835 o
4 3 0 196.493 195.751 10.322 66.770 o
4 3 1 3032.700 3086.360 39.510 3.349 o
4 3 2 1461.270 1412.980 26.297 8.271 o
4 3 3 1102.130 1038.360 22.840 11.434 o
4 3 4 841.420 847.054 22.693 14.067 o
4 3 5 547.025 570.600 17.789 22.438 o
4 3 6 548.456 525.672 19.483 21.589 o
4 3 7 11.121 34.951 10.802 171.786 o
4 3 8 267.269 259.576 17.056 37.839 o
4 3 9 367.775 376.573 28.526 18.479 o
4 4 0 380.582 388.783 11.254 37.791 o
4 4 1 661.447 630.730 14.818 21.489 o
4 4 2 249.781 276.548 25.809 24.043 o
4 4 3 1713.090 1687.400 35.619 6.066 o
4 4 4 113.132 111.934 9.418 103.480 o
4 4 5 477.432 434.367 16.015 27.367 o
4 4 6 14.777 16.779 10.851 176.235 o
4 4 7 401.511 363.182 19.408 26.947 o
4 4 8 3.352 0.056 12.534 151.304 o
4 4 9 90.828 111.405 25.799 30.594 o
4 5 0 2.112 18.824 9.693 233.423 o
4 5 1 91.177 77.453 6.929 152.106 o
4 5 2 1646.290 1545.420 32.837 6.678 o
4 5 3 115.678 113.491 10.228 95.776 o
4 5 4 443.765 454.786 26.084 18.824 o
4 5 5 112.813 113.710 14.187 69.758 o
4 5 6 587.527 548.682 24.477 17.404 o
4 5 7 105.671 75.108 20.414 44.871 o
4 5 8 337.197 322.425 37.766 12.954 o
4 6 0 4.600 0.872 6.562 511.533 o
4 6 1 360.302 317.517 12.928 38.511 o
4 6 2 31.574 39.624 9.702 175.737 o
4 6 3 598.981 650.725 24.317 16.748 o
4 6 4 21.006 0.113 21.170 51.941 o
4 6 5 0.577 -23.531 15.660 98.500 o
4 6 6 14.242 2.257 26.824 33.041 o
4 6 7 569.551 534.728 36.980 11.340 o
4 7 0 448.833 504.716 16.772 26.437 o
4 7 1 0.854 2.293 13.489 131.799 o
4 7 2 608.418 591.845 27.292 15.331 o
4 7 3 0.309 -7.318 11.474 183.470 o
4 7 4 0.138 3.884 13.084 139.943 o
4 7 5 222.141 201.905 22.143 31.350 o
4 7 6 97.835 100.938 26.057 30.027 o
4 8 0 293.003 272.374 17.352 35.634 o
4 8 1 66.470 51.090 19.601 52.318 o
4 8 2 0.405 -37.136 20.455 57.797 o
4 8 3 325.959 318.846 29.244 18.832 o
4 8 4 290.078 237.464 58.234 6.453 o
4 9 0 2.646 0.521 16.173 91.674 o
4 9 1 60.847 55.668 20.941 47.083 o
5 0 0 173.256 163.392 7.701 86.409 o
5 0 2 215.871 221.344 12.453 55.021 o
5 0 4 1052.010 1002.480 33.681 9.122 o
5 0 6 10.147 -10.822 15.719 94.667 o
5 0 8 16.150 28.965 18.979 62.677 o
5 1 0 573.213 568.599 12.061 25.951 o
5 1 1 729.257 727.376 15.821 18.971 o
5 1 2 372.164 368.261 11.797 38.091 o
5 1 3 27.085 27.228 5.647 364.609 o
5 1 4 38.850 46.523 8.458 194.712 o
5 1 5 218.211 232.180 12.513 53.979 o
5 1 6 5.602 -1.111 9.372 261.479 o
5 1 7 71.806 77.513 12.428 97.265 o
5 1 8 2.845 5.853 17.212 80.371 o
5 1 9 177.012 153.462 22.810 32.706 o
5 2 0 641.844 648.078 14.452 21.913 o
5 2 1 5.620 2.891 3.908 1139.580 o
5 2 2 0.486 -3.998 5.302 848.712 o
5 2 3 15.916 14.124 5.995 437.058 o
5 2 4 152.093 150.266 9.390 85.099 o
5 2 5 1.054 -10.850 7.887 383.562 o
5 2 6 278.777 269.254 16.861 37.353 o
5 2 7 95.580 87.731 16.491 61.845 o
5 2 8 247.922 218.359 25.814 24.728 o
5 3 0 81.929 68.760 7.092 161.754 o
5 3 1 1222.810 1247.470 22.657 10.231 o
5 3 2 4.423 -8.118 5.943 619.709 o
5 3 3 41.498 35.013 10.022 160.777 o
5 3 4 53.578 50.954 12.153 112.589 o
5 3 5 9.423 6.605 9.979 219.338 o
5 3 6 111.268 119.400 13.519 73.435 o
5 3 7 2.522 -0.707 15.694 97.416 o
5 3 8 5.595 -42.175 29.336 27.969 o
5 4 0 529.292 475.440 12.668 28.189 o
5 4 1 0.088 -0.372 5.886 697.030 o
5 4 2 166.922 168.459 10.730 72.777 o
5 4 3 315.391 294.434 15.427 37.413 o
5 4 4 180.443 199.037 14.217 54.366 o
5 4 5 231.119 170.508 15.502 46.906 o
5 4 6 33.801 21.216 17.021 73.929 o
5 4 7 7.809 0.039 20.488 56.764 o
5 5 0 324.047 326.417 13.134 40.056 o
5 5 1 18.269 13.193 7.565 309.210 o
5 5 2 27.273 9.408 8.696 235.653 o
5 5 3 49.603 27.576 10.737 143.092 o
5 5 4 60.072 46.654 12.664 104.612 o
5 5 5 124.818 137.677 17.971 49.430 o
5 5 6 72.678 60.268 15.275 75.391 o
5 6 0 220.950 221.237 14.318 48.960 o
5 6 1 32.142 12.517 8.893 216.812 o
5 6 2 138.349 125.255 14.488 63.192 o
5 6 3 29.575 32.440 18.454 63.796 o
5 6 4 13.734 -9.426 25.004 38.006 o
5 6 5 10.340 4.380 23.617 42.583 o
5 7 0 265.412 283.107 17.658 36.146 o
5 7 1 28.559 18.246 12.024 137.125 o
5 7 2 323.319 262.153 22.107 27.192 o
5 7 3 22.273 3.752 18.895 64.120 o
5 7 4 14.328 -4.576 20.769 54.575 o
5 8 0 30.739 38.291 15.855 82.409 o
5 8 1 19.690 50.821 31.271 23.819 o
5 8 2 4.975 -20.289 24.283 40.753 o
6 0 0 286.853 312.284 16.957 35.678 o
6 0 2 1795.650 1739.770 49.563 4.551 o
6 0 4 93.852 71.630 13.255 84.451 o
6 0 6 16.049 22.822 16.250 84.244 o
6 1 0 734.344 717.927 17.037 18.390 o
6 1 1 982.354 935.094 20.811 13.168 o
6 1 2 35.475 44.288 8.083 211.817 o
6 1 3 110.040 104.560 9.543 105.075 o
6 1 4 0.644 8.694 9.371 262.996 o
6 1 5 228.788 228.335 15.294 45.364 o
6 1 6 0.546 -11.402 11.122 194.937 o
6 1 7 46.191 58.378 20.940 48.155 o
6 2 0 539.273 538.934 14.287 25.663 o
6 2 1 0.372 -7.935 7.619 414.741 o
6 2 2 309.531 303.596 15.258 37.785 o
6 2 3 65.338 56.484 9.750 138.453 o
6 2 4 63.157 76.514 11.847 106.703 o
6 2 5 250.688 259.328 18.229 36.351 o
6 2 6 165.711 186.219 20.690 37.103 o
6 2 7 15.387 -4.267 23.695 42.133 o
6 3 0 442.905 413.999 12.401 32.763 o
6 3 1 1040.400 1042.620 25.480 11.114 o
6 3 2 0.117 -1.643 10.056 239.103 o
6 3 3 24.494 21.109 10.706 167.717 o
6 3 4 120.764 143.135 14.455 64.631 o
6 3 5 168.187 155.402 17.775 45.777 o
6 3 6 0.016 8.175 17.927 74.506 o
6 4 0 4.834 7.762 7.284 400.536 o
6 4 1 396.079 409.295 16.692 29.633 o
6 4 2 53.164 58.390 10.489 134.368 o
6 4 3 545.724 526.895 21.576 20.086 o
6 4 4 25.513 34.287 12.393 127.558 o
6 4 5 35.507 28.929 14.085 100.521 o
6 4 6 1.065 -13.976 30.221 26.474 o
6 5 0 240.163 252.582 13.546 47.986 o
6 5 1 4.221 11.042 16.357 87.764 o
6 5 2 79.124 68.495 13.892 83.517 o
6 5 3 0.771 -8.182 13.197 138.444 o
6 5 4 173.557 178.181 19.983 38.604 o
6 5 5 48.921 49.703 21.557 45.887 o
6 6 0 10.265 15.432 10.533 191.848 o
6 6 1 1.818 29.020 15.831 91.532 o
6 6 2 54.228 23.950 16.197 75.970 o
6 6 3 36.574 50.190 20.352 51.872 o
6 7 0 247.487 274.604 18.899 34.838 o
6 7 1 0.355 -4.918 22.704 46.924 o
6 7 2 157.239 147.039 26.743 26.464 o
7 0 0 486.934 482.720 30.590 15.163 o
7 0 2 895.461 935.682 74.433 3.533 o
7 0 4 284.019 290.602 27.203 21.643 o
7 1 0 17.713 8.398 9.188 235.096 o
7 1 1 237.210 234.173 13.976 47.909 o
7 1 2 123.849 128.754 12.891 73.765 o
7 1 3 8.891 -1.026 12.430 149.376 o
7 1 4 27.354 29.772 12.976 118.536 o
7 1 5 191.629 207.171 18.356 40.770 o
7 2 0 854.255 935.643 26.922 12.154 o
7 2 1 9.967 19.991 10.210 199.805 o
7 2 2 51.721 55.025 10.920 129.654 o
7 2 3 28.671 22.837 13.997 105.278 o
7 2 4 33.489 -10.274 21.727 48.367 o
7 2 5 37.089 43.031 19.428 56.654 o
7 3 0 3.121 -18.289 10.161 228.596 o
7 3 1 196.110 213.159 14.543 50.964 o
7 3 2 204.048 213.655 15.654 46.925 o
7 3 3 0.029 -9.844 14.340 117.683 o
7 3 4 114.344 203.037 29.574 22.814 o
7 4 0 39.514 29.354 11.005 144.847 o
7 4 1 7.350 6.661 13.959 118.721 o
7 4 2 17.738 -2.335 14.546 106.813 o
7 4 3 458.761 436.339 24.801 19.742 o
7 5 0 31.564 24.926 13.557 109.450 o
7 5 1 22.842 23.745 15.180 93.144 o
7 5 2 71.597 82.668 19.504 50.760 o
7 6 0 23.409 26.872 18.515 64.709 o
7 6 1 95.195 104.842 24.807 32.624 o
8 0 0 70.649 57.675 17.066 64.358 o
8 0 2 3.039 -7.723 17.656 77.005 o
8 1 0 32.111 17.354 11.099 153.418 o
8 1 1 89.815 107.581 16.572 60.870 o
8 1 2 0.133 -10.772 16.545 88.376 o
8 1 3 11.307 5.174 20.898 53.966 o
8 2 0 33.097 18.352 12.983 118.411 o
8 2 1 97.129 61.909 14.911 72.931 o
8 2 2 38.455 61.324 18.264 61.691 o
8 3 0 9.589 25.732 15.099 97.993 o
8 3 1 34.100 49.863 15.976 79.264 o
8 3 2 3.210 -16.707 22.476 47.656 o
8 4 0 1.541 -2.323 20.544 57.172 o
8 4 1 8.550 -13.232 15.728 95.061 o
8 5 0 0.040 -20.253 19.508 63.595 o
9 0 0 8.196 -14.311 18.324 70.627 o
9 1 0 4.114 -10.425 16.451 88.292 o
;
_olex2_submission_special_instructions 'No special instructions were received'
loop_
_space_group_symop_id
_space_group_symop_operation_xyz
1 x,y,z
2 -x,y+1/2,-z+1/2
3 -x,-y,-z
4 x,-y-1/2,z-1/2
loop_
_atom_site_label
_atom_site_type_symbol
_atom_site_fract_x
_atom_site_fract_y
_atom_site_fract_z
_atom_site_U_iso_or_equiv
_atom_site_adp_type
_atom_site_occupancy
_atom_site_refinement_flags_posn
Ag1 Ag 0.48155(5) -0.04092(4) -0.38268(3) 0.05275(12) Uani 1.000000 .
Cl1 Cl 0.79127(13) -0.06490(11) -0.41353(7) 0.0405(2) Uani 1.000000 .
Cl2 Cl 0.44456(13) -0.30556(11) -0.27894(7) 0.0396(2) Uani 1.000000 .
C3 C 0.2291(5) -0.4367(5) -0.6198(3) 0.0418(8) Uani 1.000000 .
C4 C 0.0765(5) -0.4963(4) -0.5862(3) 0.0290(7) Uani 1.000000 .
N1 N 0.1755(4) -0.5932(3) -0.4688(2) 0.0284(5) Uani 1.000000 .
C2 C 0.0361(5) -0.6529(4) -0.4271(3) 0.0305(7) Uani 1.000000 .
H3a H 0.320(2) -0.360(3) -0.5585(12) 0.0627(12) Uiso 1.000000 GR
H3b H 0.299(3) -0.5343(6) -0.626(2) 0.0627(12) Uiso 1.000000 GR
H3c H 0.1653(6) -0.378(3) -0.6961(12) 0.0627(12) Uiso 1.000000 GR
H4 H -0.0161(5) -0.5730(4) -0.6497(3) 0.0348(8) Uiso 1.000000 R
H2a H 0.1086(5) -0.7109(4) -0.3498(3) 0.0366(8) Uiso 1.000000 R
H2b H -0.0555(5) -0.7343(4) -0.4850(3) 0.0366(8) Uiso 1.000000 R
H1a H 0.2374(4) -0.6849(3) -0.4778(2) 0.0341(6) Uiso 1.000000 R
H1b H 0.2668(4) -0.5253(3) -0.4115(2) 0.0341(6) Uiso 1.000000 R
loop_
_atom_site_aniso_label
_atom_site_aniso_U_11
_atom_site_aniso_U_22
_atom_site_aniso_U_33
_atom_site_aniso_U_12
_atom_site_aniso_U_13
_atom_site_aniso_U_23
Ag1 0.0724(2) 0.04486(18) 0.03794(16) 0.00214(15) 0.02442(15) 0.00481(13)
Cl1 0.0447(5) 0.0388(5) 0.0327(4) 0.0077(4) 0.0146(3) -0.0013(3)
Cl2 0.0477(5) 0.0317(4) 0.0347(4) -0.0058(4) 0.0164(4) 0.0027(3)
C3 0.0393(18) 0.052(2) 0.0398(18) -0.0002(16) 0.0238(16) 0.0039(16)
C4 0.0291(15) 0.0308(16) 0.0231(14) 0.0016(12) 0.0097(12) -0.0003(11)
N1 0.0248(12) 0.0286(13) 0.0296(13) 0.0036(10) 0.0116(10) 0.0004(10)
C2 0.0309(16) 0.0278(16) 0.0319(16) 0.0024(13) 0.0146(13) 0.0055(13)
loop_
_atom_type_symbol
_atom_type_scat_dispersion_real
_atom_type_scat_dispersion_imag
_atom_type_scat_Cromer_Mann_a1
_atom_type_scat_Cromer_Mann_a2
_atom_type_scat_Cromer_Mann_a3
_atom_type_scat_Cromer_Mann_a4
_atom_type_scat_Cromer_Mann_b1
_atom_type_scat_Cromer_Mann_b2
_atom_type_scat_Cromer_Mann_b3
_atom_type_scat_Cromer_Mann_b4
_atom_type_scat_Cromer_Mann_c
_atom_type_scat_source
_atom_type_scat_dispersion_source
Ag -0.87744 1.09825 19.28080 16.68850 4.80450 1.04630 0.64460 7.47260 24.66050
99.81560 5.17900 'International Tables Volume C Table 6.1.1.4 (pp. 500-502)'
'Henke, Gullikson and Davis, At. Data and Nucl. Data Tables, 1993, 54, 2'
C 0.00347 0.00161 2.31000 1.02000 1.58860 0.86500 20.84390 10.20750 0.56870
51.65120 0.21560 'International Tables Volume C Table 6.1.1.4 (pp. 500-502)'
'Henke, Gullikson and Davis, At. Data and Nucl. Data Tables, 1993, 54, 2'
Cl 0.14873 0.16029 11.46040 7.19640 6.25560 1.64550 0.01040 1.16620 18.51940
47.77840 -9.55740 'International Tables Volume C Table 6.1.1.4 (pp. 500-502)'
'Henke, Gullikson and Davis, At. Data and Nucl. Data Tables, 1993, 54, 2'
H 0.00000 0.00000 0.49300 0.32291 0.14019 0.04081 10.51090 26.12570 3.14236
57.79970 0.00304 'International Tables Volume C Table 6.1.1.4 (pp. 500-502)'
'Henke, Gullikson and Davis, At. Data and Nucl. Data Tables, 1993, 54, 2'
N 0.00653 0.00323 12.21260 3.13220 2.01250 1.16630 0.00570 9.89330 28.99750
0.58260 -11.52900 'International Tables Volume C Table 6.1.1.4 (pp. 500-502)'
'Henke, Gullikson and Davis, At. Data and Nucl. Data Tables, 1993, 54, 2'
loop_
_diffrn_refln_index_h
_diffrn_refln_index_k
_diffrn_refln_index_l
_diffrn_refln_intensity_net
_diffrn_refln_intensity_u
_diffrn_refln_scale_group_code
-3 0 3 -1.71 2.81 4
-3 0 3 -1.34 1.87 1
-3 0 3 -42.27 27.35 10
3 0 -3 10.77 23.77 10
3 0 -3 3 2.86 3
-4 0 4 2018.29 80.78 1
-4 0 4 2156.39 91.8 4
4 0 -4 2027.4 81.99 3
4 0 -4 2053.13 135.66 10
-4 0 4 2296.44 144.19 10
5 0 -5 1.67 5.06 3
5 0 -5 1.85 4.45 9
5 0 -5 15.09 46.61 10
-5 0 5 0.03 4.72 4
-5 0 5 -18.34 50.13 10
-5 0 5 -3.52 4.29 1
-6 0 6 251.77 18.37 4
-6 0 6 228.91 18.31 5
6 0 -6 190.72 16.1 9
6 0 -6 221.7 16.6 3
-6 0 6 221.55 15.68 1
7 0 -7 0.18 5 9
7 0 -7 3.26 5.82 3
-7 0 7 -13.44 9.61 5
-7 0 7 -0.38 6.49 1
-7 0 7 5.11 7.89 4
8 0 -8 110.5 14.68 3
8 0 -8 107.95 14.68 9
-8 0 8 82.4 13.45 5
-8 0 8 81.9 12.09 1
9 0 -9 -6.36 8.71 3
-9 0 9 13.96 12.22 1
9 0 -9 19.16 14.41 7
-9 0 9 -18.71 15.21 5
9 0 -9 3.54 8.18 9
10 0 -10 20.54 13.43 7
10 0 -10 21.94 15.79 3
-10 0 10 36.38 14.79 5
10 0 -10 36.19 16.39 9
3 1 -3 7655.44 349.83 10
-3 1 3 7313.46 276.89 1
-3 1 3 8161.6 351.68 10
3 1 -3 7523.3 280.9 3
-3 1 3 7307.63 314.05 4
3 -1 -3 7909.97 316.86 7
-3 -1 3 6875.41 312.37 4
3 -1 -3 7863.26 292.57 9
-3 -1 3 7477.68 276.99 1
3 -1 -3 7504.85 281.12 3
-3 -1 3 7818.12 317.12 7
-3 -1 3 8296.84 355.1 10
3 -1 -3 7631.54 344.81 10
-4 1 4 27.03 5.75 4
4 1 -4 0.81 26.21 10
-4 1 4 61.9 41.7 10
-4 1 4 33.13 4.79 1
4 1 -4 31.95 5.39 3
4 -1 -4 28.89 4.62 9
-4 -1 4 26.75 6.16 7
-4 -1 4 23.86 5.1 4
4 -1 -4 27.36 31.39 10
4 -1 -4 28.53 5.59 3
4 -1 -4 27.77 6.09 7
-4 -1 4 4.2 35.34 10
-4 -1 4 32.17 5.3 1
-5 1 5 -49.48 51.33 10
5 1 -5 -8.15 36.62 10
5 1 -5 11.56 5.32 3
-5 1 5 8.33 4.88 1
-5 1 5 -4.07 4.14 4
5 -1 -5 11.06 5 9
5 -1 -5 8.3 6.13 7
-5 -1 5 1.73 2.5 6
-5 -1 5 -19.28 40.72 10
5 -1 -5 -111.93 55.63 10
-5 -1 5 3 3.91 1
5 -1 -5 11.56 4.38 3
-5 -1 5 18.44 7.02 7
-6 1 6 738.47 34.23 1
6 1 -6 703.79 34.18 3
-6 1 6 723.62 38.93 4
-6 1 6 674.96 37.56 5
-6 -1 6 668.97 36.76 5
-6 -1 6 712.24 33.58 1
6 -1 -6 647.8 33.46 3
-6 -1 6 578.16 35.55 4
-6 -1 6 716.18 39.2 7
6 -1 -6 645.82 38.34 7
6 -1 -6 689.58 35.34 9
7 1 -7 71.38 10.05 9
7 1 -7 103.03 12.77 3
-7 1 7 85.27 13.29 5
-7 1 7 95.97 10.84 1
-7 1 7 75.84 12.82 4
-7 -1 7 102.39 12.35 1
7 -1 -7 78.2 11.6 9
7 -1 -7 85.89 13.87 7
7 -1 -7 88.41 10.91 3
-7 -1 7 98.86 12.35 5
-7 -1 7 62.09 13.34 4
-8 1 8 65.9 11.97 4
8 1 -8 73.29 13.16 9
-8 1 8 63.46 10.67 1
8 1 -8 87.25 12.56 3
-8 1 8 55.31 12.03 5
8 -1 -8 68.77 12.91 9
-8 -1 8 62.1 13.88 5
-8 -1 8 63.49 11.79 1
8 -1 -8 89.25 14.15 3
8 -1 -8 62.39 14.96 7
-9 1 9 10.46 9.08 1
-9 1 9 3.37 14.23 5
9 1 -9 19.87 12.54 9
9 1 -9 37.21 14.12 3
9 -1 -9 25.82 12.52 9
9 -1 -9 16.34 14.97 7
9 -1 -9 6.59 12.33 3
-9 -1 9 19.13 14.53 5
-9 -1 9 1.03 10.83 1
10 1 -10 7.23 15.23 3
-10 1 10 10.48 13.04 5
10 1 -10 2.23 13.12 9
-10 1 10 47.83 16.12 1
-10 -1 10 6.57 13.92 1
-10 -1 10 8.37 16.32 5
10 -1 -10 23.91 14.06 7
10 -1 -10 -3.66 14.18 3
10 -1 -10 2.81 9.99 9
-2 2 2 302.75 14.77 1
-2 2 2 312.92 17.36 4
-2 2 2 329.06 40.03 10
-2 2 2 293.43 12.88 2
2 2 -2 368.88 46.66 10
2 2 -2 315.89 14.14 3
-2 -2 2 284.02 14.26 4
2 -2 -2 313.44 15.23 9
-2 -2 2 348.7 44.74 10
2 -2 -2 294.76 14.22 3
-2 -2 2 292.31 16.81 7
-2 -2 2 297.01 14.75 1
2 -2 -2 332.49 43.24 10
2 -2 -2 321.64 17.11 7
-3 2 3 1451.37 67.45 4
-3 2 3 1506.99 107.61 10
3 2 -3 1463.69 59.19 3
3 2 -3 1274.7 101.65 10
-3 2 3 1479.59 58.96 1
-3 2 3 1483.13 56.92 2
3 -2 -3 1529.68 59.62 3
-3 -2 3 1558.19 59.22 1
-3 -2 3 1526.3 67.81 7
-3 -2 3 1419.19 64.04 4
-3 -2 3 1595.53 110.65 10
3 -2 -3 1549.95 67.69 7
3 -2 -3 1577.8 62.3 9
3 -2 -3 1701.12 111.07 10
4 2 -4 3692 207 10
-4 2 4 3439.93 201.52 10
-4 2 4 3567.09 148.86 4
-4 2 4 3411.11 130.17 1
4 2 -4 3425.75 131.64 3
-4 -2 4 3451.21 130.25 1
4 -2 -4 3447.41 137.19 9
4 -2 -4 2892.66 190.85 10
4 -2 -4 3581.4 149.28 7
-4 -2 4 3814.63 150.28 7
-4 -2 4 3164.6 144.72 4
-4 -2 4 3368.83 200.17 10
4 -2 -4 3570.33 132.24 3
-5 2 5 849.36 39.42 1
-5 2 5 812.51 102.29 10
-5 2 5 931.63 46.1 4
5 2 -5 1001.38 113.85 10
5 2 -5 857.55 39.87 3
5 -2 -5 848.64 39.87 3
5 -2 -5 843.84 41.05 9
5 -2 -5 910.31 46.17 7
-5 -2 5 851.84 42.35 5
-5 -2 5 900.14 39.73 1
5 -2 -5 867.64 106.01 10
-5 -2 5 928.91 46.41 7
-5 -2 5 1019.95 104.93 10
-6 2 6 353.42 24.22 5
-6 2 6 340.07 24.83 4
-6 2 6 338.79 21.4 1
6 2 -6 368.82 22.31 3
6 -2 -6 395.23 22.74 3
6 -2 -6 342.4 24.73 7
-6 -2 6 385.4 24.01 5
-6 -2 6 383.43 25.96 7
-6 -2 6 317.86 20.82 1
7 2 -7 45.45 10.51 3
-7 2 7 59.44 10.58 1
-7 2 7 41.52 9.78 5
-7 2 7 50.34 11.47 4
7 -2 -7 67.19 11.25 3
-7 -2 7 56.65 12.39 7
-7 -2 7 36.01 7.79 1
-7 -2 7 40.66 10.73 5
7 -2 -7 44.02 10.11 7
7 -2 -7 48.69 10.34 9
-8 2 8 53.75 11.3 1
-8 2 8 35.99 13.49 4
8 2 -8 32.74 9.56 3
-8 2 8 27.9 14.03 5
-8 -2 8 35.28 10.67 1
8 -2 -8 39.72 11.95 3
-8 -2 8 32.23 10 5
8 -2 -8 37.58 9.34 9
8 -2 -8 37.04 13.93 7
-9 2 9 44.93 15.21 4
-9 2 9 32.56 13.48 1
9 2 -9 44.1 13.82 3
9 2 -9 34.74 13.49 9
-9 2 9 10.5 14.72 5
9 -2 -9 42.04 14.1 3
-9 -2 9 12.73 12.12 1
9 -2 -9 11.95 11.63 9
9 -2 -9 24.46 11.66 7
-9 -2 9 34.79 15.31 5
10 2 -10 6.3 16.07 3
-10 2 10 6.61 15.61 1
-10 2 10 6.44 18.43 5
10 2 -10 -18.85 14.11 9
-10 -2 10 -4.63 15.13 5
10 -2 -10 -20.88 15.09 9
-10 -2 10 -1.19 13.67 1
10 -2 -10 14.92 16.25 3
0 3 0 -3.16 2.85 4
0 -3 0 -11.25 20.45 10
0 -3 0 -3.83 2.05 1
0 -3 0 -3.38 2.44 9
0 -3 0 -0.74 2.2 7
0 -3 0 -18.37 18.6 10
1 3 -1 876.59 73.43 10
-1 3 1 818.58 33.73 1
1 3 -1 789.18 31.86 3
-1 3 1 845.59 38.35 4
-1 3 1 834.8 33.63 5
-1 3 1 780.24 68.75 10
1 -3 -1 864.78 35.04 9
-1 -3 1 790 33.49 1
1 -3 -1 814.91 32.06 3
-1 -3 1 830.6 38.87 7
1 -3 -1 801.38 38.33 7
-1 -3 1 750.17 66.13 10
1 -3 -1 729.03 68.47 10
-2 3 2 3335.43 140.44 4
-2 3 2 3428.22 184.62 10
-2 3 2 3293.03 123.82 1
2 3 -2 3512.32 186.81 10
2 3 -2 3268.83 123.28 3
-2 -3 2 3353.18 130.34 5
-2 -3 2 3202.05 181.1 10
-2 -3 2 3272.47 123.44 1
2 -3 -2 3315.85 123.5 3
2 -3 -2 3213.86 129.3 9
-2 -3 2 3357.64 141.57 7
2 -3 -2 3422.1 183.79 10
-2 -3 2 3030.14 136.47 4
2 -3 -2 3373.25 140.98 7
-3 3 3 1609.26 64.51 1
3 3 -3 1378.79 115.28 10
3 3 -3 1619.57 63.95 3
-3 3 3 1602.1 62.19 2
-3 3 3 1618 74.02 4
-3 3 3 1569.44 116.94 10
3 -3 -3 1683.58 64.36 3
-3 -3 3 1463.07 68.67 4
-3 -3 3 1691.75 74.07 7
3 -3 -3 1648.33 73.56 7
3 -3 -3 1633.89 67.27 9
-3 -3 3 1574.71 118.83 10
-3 -3 3 1719.24 64.94 1
3 -3 -3 1747.96 125.62 10
-3 -3 3 1739.39 67.74 5
-4 3 4 25.43 7.23 4
-4 3 4 -2.61 41.36 10
4 3 -4 25.74 50.88 10
-4 3 4 48.12 6.7 5
-4 3 4 37.85 5.77 1
4 3 -4 39.05 5.81 3
-4 3 4 31.94 3.25 2
-4 -3 4 35.89 6.52 7
4 -3 -4 -15.15 41.92 10
4 -3 -4 28.67 6.02 3
-4 -3 4 35.89 6.16 1
4 -3 -4 36.43 6.42 9
-4 -3 4 41.55 5.55 5
-4 -3 4 46.35 36.99 10
-4 -3 4 26.02 4.4 4
4 -3 -4 35.41 7.36 7
-5 3 5 201.99 14.18 1
5 3 -5 192.57 14.13 3
-5 3 5 193.68 16 5
-5 3 5 207.29 17.53 4
-5 -3 5 202.11 14.91 5
5 -3 -5 206.22 16.99 7
5 -3 -5 200.57 14.53 3
-5 -3 5 204.61 14.54 1
5 -3 -5 184.05 14.72 9
-5 -3 5 201.56 16.73 7
6 3 -6 612.32 32.33 3
-6 3 6 625.61 37.57 4
-6 3 6 625.11 32.09 1
-6 3 6 599.94 35.62 5
-6 -3 6 623.37 32.22 1
6 -3 -6 658.52 37.84 7
6 -3 -6 633.12 32.57 3
-6 -3 6 622.16 34.01 5
6 -3 -6 640.64 33.8 9
-6 -3 6 631.83 38.02 7
7 3 -7 234.48 18.5 3
-7 3 7 226.98 22.13 4
-7 3 7 183.21 18.71 5
-7 3 7 218.53 18.25 1
-7 -3 7 204.9 18.17 5
7 -3 -7 180.55 19.41 7
-7 -3 7 203.59 19.87 7
7 -3 -7 234.98 17.72 3
7 -3 -7 194.61 17.83 9
-7 -3 7 221.05 18.06 1
-8 3 8 46.94 14.49 5
8 3 -8 68.95 14 3
-8 3 8 43.77 12.4 1
-8 3 8 63.01 16.05 4
-8 -3 8 46.2 15.42 7
-8 -3 8 48.37 11.23 5
8 -3 -8 39.99 11.94 3
-8 -3 8 29.88 11.42 1
8 -3 -8 53.53 14.52 7
8 -3 -8 33.16 11.41 9
-9 3 9 -11.32 16.81 5
-9 3 9 -7.82 9.32 1
-9 3 9 10.64 14.86 4
9 3 -9 -7.81 11.81 3
-9 -3 9 -4.54 8.44 1
9 -3 -9 21.47 15.69 7
9 -3 -9 -6.95 13.54 3
9 -3 -9 31.56 11.1 9
-9 -3 9 8.28 13.93 5
0 4 0 1024.89 41.79 3
0 4 0 1094.83 49.74 4
0 -4 0 1154.46 93.73 10
0 -4 0 1150.99 51.9 7
0 -4 0 1046.69 44.71 1
0 -4 0 1080.88 92.34 10
0 -4 0 1109.31 46.15 9
1 4 -1 2004.71 74.19 3
-1 4 1 2030.94 76.69 1
1 4 -1 1866.28 84.17 4
-1 4 1 2020.26 86.47 4
-1 4 1 2015.5 137.58 10
1 4 -1 1943.08 133.46 10
-1 -4 1 1984.75 76.39 1
1 -4 -1 1971.57 87.36 7
-1 -4 1 1937.74 87.55 7
1 -4 -1 1932.43 74.18 3
-1 -4 1 1907.47 132.53 10
1 -4 -1 2010.99 134.84 10
1 -4 -1 1921.77 79.47 9
-1 -4 1 1994.77 131.5 10
-2 4 2 123.21 8.48 5
2 4 -2 156.32 52.51 10
2 4 -2 134.28 8.13 3
-2 4 2 127.76 9.89 1
-2 4 2 157.17 49.27 10
-2 4 2 137.01 12.04 4
2 -4 -2 121.89 9.72 9
-2 -4 2 136.72 9.05 4
-2 -4 2 132.28 11.85 7
2 -4 -2 130.69 11.57 7
2 -4 -2 122.29 45.73 10
2 -4 -2 124.69 8.12 3
-2 -4 2 132.99 48.39 10
-2 -4 2 131.78 7.18 5
-2 -4 2 122.68 9.68 1
-3 4 3 515.29 25.7 1
3 4 -3 509.04 23.54 3
-3 4 3 483.37 25.12 5
-3 4 3 430.16 74.59 10
-3 4 3 518.8 29.51 4
3 4 -3 466.29 69.47 10
-3 4 3 529.93 22.7 2
3 -4 -3 494.6 23.45 3
-3 -4 3 537.84 78.13 10
-3 -4 3 488.44 23.72 5
3 -4 -3 519.86 28.76 7
-3 -4 3 539.86 29.79 7
3 -4 -3 531.13 25.75 9
3 -4 -3 453.99 77.13 10
-3 -4 3 555.82 25.81 1
-3 -4 3 487.09 24.3 4
-4 4 4 292.99 13.66 2
-4 4 4 272.44 17.33 1
-4 4 4 289.45 62.67 10
-4 4 4 281.37 20.8 4
-4 4 4 275.98 17.64 5
4 4 -4 274.83 15.9 3
-4 -4 4 289.3 16.41 5
-4 -4 4 261.02 17.12 1
4 -4 -4 271.17 19.82 7
4 -4 -4 286.7 17.83 9
-4 -4 4 297.45 20.55 7
-4 -4 4 261.91 15.54 4
4 -4 -4 281.69 16.61 3
5 4 -5 193.56 14.46 3
-5 4 5 208.9 16.88 5
-5 4 5 198.91 14.95 1
-5 4 5 212.47 18.3 4
5 -4 -5 227.74 18.3 7
5 -4 -5 179.03 15.21 9
5 -4 -5 215.61 15.32 3
-5 -4 5 205.02 14.91 5
-5 -4 5 227.88 18.77 7
-5 -4 5 201.32 15.58 1
-6 4 6 17.05 9.38 4
6 4 -6 11.66 5.78 3
-6 4 6 6.27 7.29 1
-6 4 6 10.14 8.99 5
6 -4 -6 -9.13 7.93 9
6 -4 -6 11.19 6.15 3
-6 -4 6 12.5 5.99 1
-6 -4 6 18.52 9.82 7
-6 -4 6 24.23 8.7 5
6 -4 -6 25.46 7.74 7
7 4 -7 66.83 10.51 3
-7 4 7 89.04 16.12 4
-7 4 7 81.84 14.21 5
-7 4 7 89.6 13.47 1
-7 -4 7 69.5 13.17 5
-7 -4 7 71.11 11.64 1
7 -4 -7 61.87 13.69 7
7 -4 -7 93.31 11.75 3
7 -4 -7 96.67 13.86 9
-7 -4 7 71.78 14.95 7
-8 4 8 -29.51 14.78 5
-8 4 8 14.86 11.93 1
-8 4 8 3.07 13.26 4
8 4 -8 9.9 8.65 3
-8 -4 8 8.93 13.74 5
8 -4 -8 -3.26 9.93 3
8 -4 -8 9.71 11.24 9
-8 -4 8 0.09 7.48 1
8 -4 -8 9.11 10.23 7
-8 -4 8 24.55 14.31 7
9 4 -9 89.75 16.76 3
-9 4 9 46.23 16.3 1
-9 4 9 57.91 18.88 4
9 -4 -9 49.18 15.84 3
9 -4 -9 102.09 18.7 9
-9 -4 9 81.22 22.45 5
-9 -4 9 80.63 17.41 7
9 -4 -9 80.04 16.69 7
-9 -4 9 65.04 15.9 1
0 5 0 -0.88 1.83 3
0 5 0 2.12 4.53 4
0 -5 0 -0.58 3.76 1
0 -5 0 5.94 4.27 9
0 -5 0 -7.55 45.35 10
0 -5 0 -62.35 50.17 10
0 -5 0 3.17 4.07 7
-1 5 1 104.48 10.8 4
-1 5 1 107.92 9.86 1
-1 5 1 63.46 53.64 10
1 5 -1 107.84 6.64 3
1 5 -1 99.26 8.83 4
1 -5 -1 94.02 10.81 7
-1 -5 1 106.34 59.48 10
1 -5 -1 105.49 9.77 1
-1 -5 1 94.09 10.98 7
1 -5 -1 104.56 9.15 9
1 -5 -1 51.58 51.25 10
-1 -5 1 69.3 38.58 10
1 -5 -1 179.87 46.51 10
-1 -5 1 100.74 9.34 1
-2 5 2 1839.59 81.38 4
2 5 -2 1772.53 68.37 3
-2 5 2 1717.34 71.28 1
-2 5 2 1619.32 71.99 5
-2 5 2 1902.1 149.69 10
2 -5 -2 1642.59 68.27 3
-2 -5 2 1845.98 71.86 1
2 -5 -2 1839.91 74.14 9
-2 -5 2 1673.6 139.17 10
-2 -5 2 1769.46 82 7
2 -5 -2 1931.26 149.39 10
2 -5 -2 1807.75 81.82 7
-3 5 3 136.21 14.08 4
3 5 -3 128.63 9.48 3
-3 5 3 137.41 12.12 1
-3 5 3 120.58 10.31 5
-3 5 3 147.33 9.94 2
3 -5 -3 124.53 9.59 3
3 -5 -3 125.61 13.14 7
-3 -5 3 141.97 14.34 7
3 -5 -3 136.64 11.38 9
-3 -5 3 127.22 9.52 4
-3 -5 3 134.01 11.58 1
-4 5 4 -0.05 6 1
4 5 -4 1.44 3.47 3
-4 5 4 -3.27 5.87 5
-4 5 4 8.9 5.82 4
4 -5 -4 4.87 5.14 7
-4 -5 4 3.36 5.34 7
4 -5 -4 -8.9 5.97 9
-4 -5 4 6.33 6.19 1
4 -5 -4 3.5 5.06 3
-5 5 5 3.75 8.9 4
5 5 -5 -6.37 6.09 3
-5 5 5 -2.4 7.27 5
-5 5 5 6.52 6.71 1
-5 -5 5 10.92 8.02 7
5 -5 -5 8.47 8.15 7
5 -5 -5 -8.36 7.4 9
5 -5 -5 2.52 4.47 3
-5 -5 5 14.18 7.37 1
-6 5 6 401.45 31.34 4
6 5 -6 455.36 25.44 3
-6 5 6 430.22 26.84 1
-6 5 6 341.31 26.17 5
-6 -5 6 442.18 26.78 1
-6 -5 6 475.46 33.11 7
6 -5 -6 439.16 25.87 3
6 -5 -6 421.99 27.23 9
6 -5 -6 444.75 29.9 7
7 5 -7 11.6 7.33 3
-7 5 7 10.44 12.79 4
-7 5 7 -1.51 11.45 5
-7 5 7 18.01 11.41 1
-7 -5 7 -13.8 12.71 7
7 -5 -7 1.07 8.7 3
7 -5 -7 27.51 11.29 9
7 -5 -7 -9.94 8.93 7
-7 -5 7 -7.75 7.48 1
-8 5 8 98.09 14.42 1
8 5 -8 77.59 12.93 3
-8 5 8 44.09 16.96 5
-8 5 8 66.9 15.62 4
-8 -5 8 97.86 14.34 1
-8 -5 8 76.06 18.14 7
8 -5 -8 82 18.36 7
8 -5 -8 79.36 13.72 9
8 -5 -8 83.52 13.72 3
-9 5 9 21.84 19.74 5
-9 5 9 30.11 17.05 4
-9 5 9 10.72 13.15 1
9 5 -9 17.89 13.84 3
9 -5 -9 4.17 16.54 7
9 -5 -9 -20.9 14.93 9
-9 -5 9 19.13 17.11 7
-9 -5 9 -0.78 14.14 1
0 6 0 0.66 5.69 4
0 -6 0 3.81 4.88 9
0 -6 0 9.39 4.67 1
0 -6 0 -0.53 6.36 7
-1 6 1 68.76 10.11 4
-1 -6 1 51.73 8.05 1
-1 -6 1 64.03 10.15 7
1 -6 -1 44.35 7.43 9
1 -6 -1 70.72 10.7 7
1 -6 -1 45.04 8.39 1
-2 6 2 5.65 5.95 1
-2 6 2 9.74 7.63 4
2 -6 -2 6.98 5.38 9
2 -6 -2 11.92 7.64 7
-2 -6 2 8.83 5.75 7
-2 -6 2 8.53 6.14 1
-3 6 3 864.12 40.63 2
-3 6 3 895.8 42.57 1
-3 6 3 901.03 48.8 4
3 -6 -3 886.77 48.69 7
3 -6 -3 922.59 43.41 9
-3 -6 3 926.19 42.51 1
-3 -6 3 998.59 50.76 7
-4 6 4 42.62 7.98 1
-4 6 4 36.83 11 4
4 -6 -4 43.66 8.51 9
4 -6 -4 45.28 11.03 7
-4 -6 4 33.47 7.49 1
-4 -6 4 48.42 11.91 7
-5 6 5 424.58 26.56 1
-5 6 5 413.01 31.6 4
5 -6 -5 425.87 26.32 9
5 -6 -5 471.67 31.54 7
-5 -6 5 441.83 27.1 1
-5 -6 5 500.84 33.6 7
-6 6 6 2.01 9.71 1
-6 6 6 24.34 13.31 4
6 -6 -6 23.38 12.27 7
-6 -6 6 5.76 11.35 7
-6 -6 6 6.02 9.48 1
6 -6 -6 17.5 7.65 9
-7 6 7 7.83 10.31 1
-7 6 7 -2.93 13.47 4
7 -6 -7 2.7 12.46 7
-7 -6 7 1.28 9.94 7
-7 -6 7 2.71 11 1
-8 6 8 -9.31 14.4 1
-8 6 8 12.53 12.6 4
-8 -6 8 2.07 13.4 1
-8 -6 8 -0.43 12.09 7
8 -6 -8 24.97 14.63 7
0 7 0 -4.48 7.4 4
0 -7 0 -0.04 7.16 1
0 -7 0 0.93 4.98 9
0 -7 0 -17.96 9.2 7
-1 7 1 19.72 9.17 4
1 -7 -1 30.45 9.84 7
1 -7 -1 19.22 7.26 9
1 -7 -1 28.66 8.82 1
-1 -7 1 48.99 9.34 1
-1 -7 1 47.94 9.6 7
-2 7 2 455.65 26.24 1
-2 7 2 464.36 29.6 4
2 -7 -2 419.66 25.25 9
2 -7 -2 411.57 28.94 7
2 -7 -2 454.38 26.64 1
-2 -7 2 429.75 29.45 7
-2 -7 2 411.34 25.71 1
-3 7 3 214.72 16.88 1
-3 7 3 216.63 19.63 4
-3 -7 3 185.46 19 7
3 -7 -3 194.66 19.7 7
3 -7 -3 202.56 16.75 9
-3 -7 3 188.07 16.6 1
-4 7 4 17.5 9.52 1
-4 7 4 -13.7 11.16 4
-4 -7 4 8.62 8.75 1
-4 -7 4 1.73 8.39 7
4 -7 -4 8.42 7.99 7
-5 7 5 34.83 11.64 1
-5 7 5 50.99 12.18 4
-5 -7 5 50.85 11.2 1
-5 -7 5 35.12 14.75 7
5 -7 -5 44.27 13.22 7
-6 7 6 207.7 24.17 4
-6 7 6 209.86 20.61 1
-6 -7 6 209.19 25.25 7
-6 -7 6 209.37 19.79 1
6 -7 -6 191.1 21.6 7
-7 7 7 36.26 16.8 4
-7 7 7 3.88 13.38 1
-7 -7 7 30.64 14.58 7
7 -7 -7 25.24 11.91 7
-7 -7 7 46.14 14.33 1
0 8 0 785.58 44.38 4
0 -8 0 768.91 40.75 1
0 -8 0 885.02 48.98 7
-1 8 1 281.39 23.38 4
-1 -8 1 270.04 21.18 1
-1 -8 1 272.12 24.34 7
1 -8 -1 274.67 21.59 1
1 -8 -1 271.22 24.87 7
-2 8 2 287.93 24.07 4
-2 -8 2 278.97 24.86 7
2 -8 -2 270.52 25.01 7
2 -8 -2 250.72 21.3 1
-2 -8 2 252.41 19.9 1
-3 8 3 10.4 10.39 1
-3 8 3 23.13 12.62 4
3 -8 -3 30.98 11.9 1
-3 -8 3 10.06 9.77 7
-3 -8 3 30.64 11.15 1
3 -8 -3 17.94 12.75 7
-4 8 4 -4.58 9.37 4
-4 8 4 -10.57 11.43 1
-4 -8 4 26.44 14.95 7
-4 -8 4 11.48 7.76 1
4 -8 -4 -2.8 9.39 7
-5 8 5 105.56 16.18 1
-5 8 5 74.53 15.27 4
-5 -8 5 59.8 14.32 1
5 -8 -5 84.45 15.35 7
-5 -8 5 105.16 17.47 7
-6 8 6 28.44 14.38 1
-6 8 6 -15.16 17.55 4
6 -8 -6 -16.04 16.06 7
-6 -8 6 13.85 12.77 7
-6 -8 6 19.11 13 1
0 -9 0 -7.12 10.91 1
0 -9 0 9.47 13.18 7
-1 9 1 52.01 14.71 4
1 -9 -1 45.63 13.59 1
1 -9 -1 62.66 16.15 7
-1 -9 1 40.26 12.41 1
-1 -9 1 47.94 13.8 7
-2 9 2 144.68 20.31 4
2 -9 -2 154.03 18.36 1
2 -9 -2 140.5 21 7
-2 -9 2 139.29 19.69 7
-2 -9 2 135.87 17.58 1
-3 9 3 53.17 16.6 4
3 -9 -3 26.1 12.17 1
3 -9 -3 21.09 11.82 7
-3 -9 3 23.6 16.07 7
-3 -9 3 34.89 10.22 1
-4 9 4 65.31 13.4 1
-4 9 4 58.19 16.06 4
-4 -9 4 83.9 20.76 7
4 -9 -4 47.67 12.14 1
4 -9 -4 57.37 17.91 7
-4 -9 4 64.03 12.39 1
-5 9 5 2.78 10.07 1
-5 9 5 0.23 17.04 4
-5 -9 5 -8.5 12.03 1
-5 -9 5 3.44 16.93 7
5 -9 -5 7.48 16.56 7
0 -10 0 41.92 13.8 1
0 -10 0 35.31 14.69 7
1 -10 -1 63.18 19.93 7
1 -10 -1 53.76 15.17 1
-1 -10 1 79.16 16.67 7
-1 -10 1 99.52 17.32 1
2 -10 -2 33.03 15.76 1
-2 -10 2 9.84 13.5 1
-2 -10 2 12.98 13 7
2 -10 -2 -13.59 16.75 7
-3 10 3 -19.14 18.57 4
-3 -10 3 11.29 13.97 1
-3 -10 3 -40.39 15.35 7
3 -10 -3 -13.54 17.34 7
3 -10 -3 18.37 15.63 1
-10 0 9 -13.36 14.56 5
-10 0 9 -10.08 11.12 1
10 0 -9 -6.62 11.86 7
10 0 -9 -8.47 13.62 9
10 0 -9 -17.7 15.2 3
-9 0 8 141.98 20.59 5
9 0 -8 159.36 17.96 3
9 0 -8 132.96 18.26 9
-9 0 8 172.94 18.79 1
8 0 -7 -5.48 6.85 9
8 0 -7 -5.1 9.28 3
-8 0 7 -1.44 10.57 5
7 0 -6 69.83 11 3
7 0 -6 66.93 10.97 9
-7 0 6 56.61 9.16 1
-7 0 6 55.32 11.65 5
-7 0 6 47.8 9.1 4
-6 0 5 -0.07 4.75 4
-6 0 5 3 3.83 1
-6 0 5 -10.39 7.51 5
6 0 -5 -3.37 6.02 3
-5 0 4 418.82 71.22 10
-5 0 4 389.38 22.95 5
-5 0 4 359.61 21.92 4
-5 0 4 409.08 20.57 1
5 0 -4 477.32 68.94 10
5 0 -4 380.84 21.2 3
-4 0 3 -1.9 1.71 6
-4 0 3 1.81 4.47 5
-4 0 3 -1.74 30.55 10
4 0 -3 7.38 23.04 10
-4 0 3 -0.79 2.94 4
-4 0 3 -5.25 2.63 1
4 0 -3 0.2 3.76 3
3 0 -2 2613.39 139.2 10
-3 0 2 2487.63 94 1
-3 0 2 2781.29 142.67 10
-3 0 2 2588.31 102.55 5
-3 0 2 2377.56 105.74 4
3 0 -2 2401.14 95.68 3
3 0 -4 3831.84 143.1 3
-3 0 4 3784.17 160.21 4
3 0 -4 3659.2 148.83 9
-3 0 4 3862.51 141.14 1
-3 0 4 3800 161.01 7
3 0 -4 3796.25 199.74 10
-3 0 4 3967.4 201.64 10
4 0 -5 -48.62 37.24 10
4 0 -5 1.04 3.64 3
-4 0 5 -2.37 3.94 4
-4 0 5 -6.43 27.28 10
4 0 -5 2.35 2.74 9
-4 0 5 -6.58 3.02 1
5 0 -6 101.38 56.79 10
-5 0 6 68.83 51.21 10
-5 0 6 63.27 9.65 4
-5 0 6 66.92 7.83 1
5 0 -6 61.17 7.97 9
5 0 -6 60.21 7.45 3
-6 0 7 -6.58 5.66 4
-6 0 7 -5.34 5.77 1
6 0 -7 0.5 5.3 9
6 0 -7 -1.27 5.7 3
-7 0 8 248.65 23.19 4
-7 0 8 349.18 21.61 1
7 0 -8 343.57 22.73 3
7 0 -8 326.2 22.25 9
-8 0 9 -1.94 11.76 5
-8 0 9 -6.24 14.99 4
-8 0 9 -17.76 10.33 1
8 0 -9 7.89 7.39 3
8 0 -9 7.17 7.71 9
-9 0 10 5.28 14.69 5
9 0 -10 -0.02 10.79 9
9 0 -10 17.85 14.93 7
9 0 -10 3.61 8.74 3
-9 0 10 6.55 8.89 1
10 0 -11 -6.69 15.09 3
-10 0 11 11.6 15.06 1
10 0 -11 -16.96 12.94 7
-10 0 11 -5.39 15.44 5
10 0 -11 2.5 13.74 9
10 1 -9 48.83 13.33 9
-10 1 9 53.2 18.72 5
-10 1 9 70.08 16.13 1
10 1 -9 45.87 16.96 3
10 -1 -9 49.3 15.73 7
10 -1 -9 62.8 14.73 9
-10 -1 9 67.26 13.88 1
10 -1 -9 93.36 16.03 3
-10 -1 9 35.22 14.89 5
-9 1 8 38.85 15.28 5
9 1 -8 23.65 13.45 3
-9 1 8 47.09 11.04 1
9 1 -8 42.62 11.21 9
-9 -1 8 16.83 10.84 1
-9 -1 8 41.91 11.92 5
9 -1 -8 42.5 14.03 3
9 -1 -8 36.37 12.58 7
9 -1 -8 59.25 14.03 9
8 1 -7 77.07 13.38 3
-8 1 7 71.89 12.15 4
8 1 -7 54.63 10.42 9
-8 1 7 59.68 14.16 5
-8 1 7 58.43 9.94 1
8 -1 -7 40.42 10.94 7
8 -1 -7 65.46 12.53 9
8 -1 -7 63.87 10.9 3
-8 -1 7 45.29 10.25 1
-8 -1 7 44.3 12.31 5
-7 1 6 91.22 13.77 5
-7 1 6 92.84 12.43 4
-7 1 6 98.08 10.85 1
7 1 -6 93.77 11.12 3
-7 -1 6 78.61 12.43 5
7 -1 -6 104.88 12.64 3
-7 -1 6 100.18 11.29 1
7 -1 -6 85.47 10.8 9
7 -1 -6 85.33 12.55 7
6 1 -5 400.15 24.09 3
-6 1 5 484.82 26.9 4
-6 1 5 449.86 24.02 1
-6 1 5 438.6 26.96 5
-6 -1 5 378.3 23.88 4
6 -1 -5 417.22 28.38 7
-6 -1 5 436.32 26.01 5
6 -1 -5 424.84 24.07 3
-6 -1 5 441.04 23.39 1
6 -1 -5 443.35 24.92 9
-5 1 4 91.15 8.44 1
5 1 -4 97.57 52.18 10
-5 1 4 89.56 9.61 4
-5 1 4 79.94 9.29 5
-5 1 4 103.68 54.74 10
5 1 -4 105.53 9.75 3
-5 -1 4 94.14 8.92 1
5 -1 -4 97.11 10.5 7
5 -1 -4 89.07 8.74 9
-5 -1 4 79.1 7.92 4
5 -1 -4 191.3 56.97 10
-5 -1 4 146.18 58.1 10
-5 -1 4 103.87 10.55 5
-5 -1 4 88.5 10.3 7
5 -1 -4 84.68 9.2 3
4 1 -3 789.25 34.9 3
-4 1 3 780.59 38.31 4
-4 1 3 815.18 37.74 5
-4 1 3 702.79 76.02 10
4 1 -3 641.12 74.58 10
-4 1 3 816.49 34.05 1
-4 -1 3 757.39 77.89 10
4 -1 -3 827.7 36.25 9
4 -1 -3 845.91 40.44 7
4 -1 -3 769.84 34.51 3
-4 -1 3 752.04 36.36 4
4 -1 -3 811.72 79.29 10
-4 -1 3 758.55 36.85 5
-4 -1 3 840.14 34.43 1
-4 -1 3 876.83 40.66 7
3 1 -2 144.51 30.07 10
-3 1 2 129.88 28.37 10
-3 1 2 142.72 10.04 4
-3 1 2 153.44 10.04 5
3 1 -2 137.93 8.81 3
-3 1 2 123.42 8.34 1
-3 1 2 139.94 7.88 2
-3 -1 2 139.49 8.78 1
3 -1 -2 134.85 8.98 9
-3 -1 2 170.87 31.8 10
3 -1 -2 150.03 32.7 10
-3 -1 2 144.73 10.94 7
-3 -1 2 137.22 9.06 6
-3 -1 2 165.32 10.26 5
3 -1 -2 149.08 9.22 3
-3 -1 2 141.74 8.44 4
3 -1 -2 161.2 11.18 7
-2 1 3 5815.31 225.43 1
-2 1 3 6169.68 281.19 10
-2 1 3 6329.66 256.82 4
2 1 -3 6297.23 228.46 3
2 1 -3 6799.97 287.08 10
-2 -1 3 6755.99 284.66 10
2 -1 -3 5712.2 251 6
-2 -1 3 6225.56 257.35 7
-2 -1 3 5712.25 254.29 4
2 -1 -3 6097.29 228.85 3
2 -1 -3 5950.32 237.99 9
2 -1 -3 6284.77 281.98 10
2 -1 -3 6513.74 257.21 7
-2 -1 3 6518.86 225.75 1
-3 1 4 238.83 13.13 1
3 1 -4 237.17 13.11 3
-3 1 4 264.37 47.68 10
-3 1 4 224.65 15.72 4
3 1 -4 260.36 44.86 10
3 -1 -4 251.12 13.6 3
-3 -1 4 232.97 13.12 1
-3 -1 4 248.92 14.43 4
-3 -1 4 283.3 48.31 10
-3 -1 4 249.76 15.38 7
3 -1 -4 257.45 15.17 7
3 -1 -4 231.29 13.69 9
3 -1 -4 189.66 40 10
-4 1 5 246.33 17.65 4
4 1 -5 230.92 14.14 3
-4 1 5 246 55.07 10
-4 1 5 220.22 13.88 1
4 1 -5 240.49 47.97 10
4 -1 -5 267.88 16.84 7
-4 -1 5 260.74 16.96 7
4 -1 -5 109.09 46.66 10
-4 -1 5 254.18 14.63 1
4 -1 -5 249.81 15.32 9
-4 -1 5 243.97 15.97 4
4 -1 -5 244.9 14.9 3
5 1 -6 90.83 9.12 3
-5 1 6 92.9 11.98 4
5 1 -6 161.59 64.76 10
-5 1 6 94.93 9.09 1
-5 1 6 55.4 54.42 10
5 -1 -6 92.93 10.07 3
-5 -1 6 135.62 51.34 10
-5 -1 6 96.96 10.88 7
5 -1 -6 108.08 11.59 7
-5 -1 6 94.07 10.75 4
5 -1 -6 32.18 61.82 10
-5 -1 6 99.82 9.1 1
5 -1 -6 98.47 10.32 9
6 1 -7 525.32 29.13 9
6 1 -7 511.45 27.8 3
-6 1 7 589.92 33.59 4
-6 1 7 535.48 28.2 1
-6 -1 7 521.58 27.46 1
6 -1 -7 463.51 31.2 7
6 -1 -7 543.1 29.43 9
-6 -1 7 458.04 30.28 4
6 -1 -7 526.41 28.2 3
-6 -1 7 502.9 31.72 7
-7 1 8 36.93 11.31 4
7 1 -8 42.59 8.45 9
7 1 -8 51.65 10.38 3
-7 1 8 48.37 9.64 1
7 -1 -8 34.81 9.77 9
7 -1 -8 37.23 9.89 3
-7 -1 8 35.49 8.51 1
7 -1 -8 49.42 11.68 7
-7 -1 8 37.31 9.73 4
-8 1 9 8.89 12.24 4
-8 1 9 -14.54 8 1
8 1 -9 -0.34 9.14 9
8 1 -9 -11.3 10.37 3
-8 1 9 5.96 10.9 5
8 -1 -9 7.71 10.08 3
-8 -1 9 -0.53 7.97 5
8 -1 -9 -10.71 7.39 9
8 -1 -9 -13.24 12.07 7
-8 -1 9 -5.19 6.78 1
9 1 -10 2.31 9.04 3
9 1 -10 -3.25 8.52 9
-9 1 10 -7.81 21.84 4
-9 1 10 3.78 15.69 5
-9 1 10 9.37 11.33 1
9 -1 -10 -3.09 8.58 9
9 -1 -10 -15.46 14.21 7
-9 -1 10 -8.95 10.16 1
-9 -1 10 -0.12 13.98 5
9 -1 -10 -0.81 11.93 3
10 1 -11 17.23 15.35 9
-10 1 11 -9.54 15.58 1
10 1 -11 11.16 15.88 3
-10 1 11 -5.25 17.36 5
10 -1 -11 2.67 12.52 7
10 -1 -11 -28.75 15.4 9
-10 -1 11 11.1 14.9 1
-10 -1 11 -11.78 18.54 5
10 -1 -11 10.36 15.76 3
-10 2 9 11.86 14.39 1
10 2 -9 6.7 14.42 3
-10 2 9 -6.37 13.09 5
10 2 -9 12.59 13.58 9
-10 -2 9 -8.15 16.07 5
10 -2 -9 -6.07 15.48 9
-10 -2 9 -13.51 13.78 1
10 -2 -9 -2.15 12.04 7
10 -2 -9 -22.32 16.32 3
-9 2 8 85.67 15.39 1
-9 2 8 44.8 20.89 4
9 2 -8 112.65 17.4 3
-9 2 8 47.84 13.58 5
9 -2 -8 88.1 15.73 9
9 -2 -8 76.97 15.66 3
-9 -2 8 101.36 17.73 5
-9 -2 8 92.2 14.3 1
9 -2 -8 62.53 17.96 7
-8 2 7 -11.8 10.77 4
8 2 -7 -2.25 9.79 3
-8 2 7 24.81 12.18 5
-8 2 7 11.96 7.32 1
-8 -2 7 11.19 10.38 5
8 -2 -7 -0.96 6.89 3
-8 -2 7 -11.18 8 1
8 -2 -7 -11.55 11.93 7
8 -2 -7 4.13 9.13 9
7 2 -6 6.77 7.93 3
-7 2 6 -3.34 7.75 5
-7 2 6 7.32 7.87 1
-7 2 6 8.66 8.47 4
-7 -2 6 12.15 7.3 1
-7 -2 6 -0.33 8.44 7
7 -2 -6 -10.9 9.71 7
-7 -2 6 -1.23 8.17 5
7 -2 -6 9.76 7.08 3
7 -2 -6 2.17 5.3 9
6 2 -5 332.75 21.11 3
-6 2 5 312.74 20.18 1
-6 2 5 335.57 22.71 5
-6 2 5 331.05 23.03 4
-6 -2 5 351.42 20.71 1
6 -2 -5 346.72 21.6 9
-6 -2 5 352.84 22.73 5
-6 -2 5 360.39 24.86 7
6 -2 -5 334.65 20.88 3
6 -2 -5 339.12 24.72 7
5 2 -4 636.01 31.43 3
-5 2 4 666.43 30.9 1
5 2 -4 557.13 78.18 10
-5 2 4 603.91 78.6 10
-5 2 4 651.06 34.18 5
-5 2 4 695.87 36.06 4
5 -2 -4 628.63 83.28 10
-5 -2 4 649.82 83.53 10
-5 -2 4 665.17 36.43 7
5 -2 -4 677.22 36.78 7
-5 -2 4 672.25 33.69 5
5 -2 -4 643.61 31.23 3
5 -2 -4 692.46 32.72 9
-5 -2 4 641.59 30.73 1
-4 2 3 1488.84 116.4 10
-4 2 3 1596.76 60.68 2
-4 2 3 1536.61 70.71 4
-4 2 3 1447.94 61.36 1
-4 2 3 1479.39 67.01 5
4 2 -3 1551.22 120.63 10
4 2 -3 1590.81 63.04 3
4 -2 -3 1484.35 112.06 10
4 -2 -3 1629.39 62.9 3
4 -2 -3 1567.51 64.91 9
-4 -2 3 1488.26 114.98 10
-4 -2 3 1525.22 61.81 1
-4 -2 3 1627.42 67.01 5
4 -2 -3 1608.32 71.79 7
-4 -2 3 1622.49 72.05 7
-3 2 2 9.48 2.23 2
-3 2 2 8.06 3.31 1
-3 2 2 -16.09 27.94 10
-3 2 2 9.65 4.28 4
-3 2 2 7.99 3.12 5
3 2 -2 17.27 3.87 3
3 2 -2 2.36 26.49 10
3 -2 -2 -7.6 27.86 10
-3 -2 2 13.78 3.12 1
-3 -2 2 -5.09 20.91 10
3 -2 -2 10.91 2.85 3
3 -2 -2 7.22 4.3 7
-3 -2 2 9.34 4.29 7
-3 -2 2 10.65 2.21 4
-3 -2 2 15.35 3.97 5
3 -2 -2 4.95 2.97 9
-2 2 1 7.66 3.39 4
-2 2 1 3.67 2.53 1
2 2 -1 7.67 22.02 10
-2 2 1 -2.91 2.66 5
2 2 -1 -1.76 2.34 3
-2 2 1 1.39 16.55 10
-2 2 1 -0.21 1.55 2
-2 -2 1 3.06 0.85 4
2 -2 -1 3.3 2.02 3
-2 -2 1 3.64 3.15 7
-2 -2 1 3.91 1.79 5
2 -2 -1 1.21 2.01 9
2 -2 -1 4.41 3.39 7
-2 -2 1 19.54 22.31 10
2 -2 -1 12.39 20.39 10
-2 -2 1 0.9 2.45 1
2 2 -3 151.57 35.28 10
2 2 -3 189.06 9.86 3
-2 2 3 176.94 36.03 10
-2 2 3 187.81 13.02 4
-2 2 3 206.74 11.12 1
2 -2 -3 164.44 36.97 10
-2 -2 3 220.2 35.03 10
-2 -2 3 204.43 12.63 7
-2 -2 3 170.49 10.38 4
2 -2 -3 180.45 11.14 9
-2 -2 3 203.02 10.92 1
2 -2 -3 183.92 10.39 3
2 -2 -3 209.81 12.19 7
-3 2 4 5714.72 293.62 10
3 2 -4 6074.02 222.73 3
-3 2 4 6015.45 251.15 4
-3 2 4 5660.93 220.22 1
3 2 -4 6323.64 298.39 10
-3 -2 4 5996.59 295.01 10
-3 -2 4 5856.94 247.35 4
-3 -2 4 6254.05 220.74 1
3 -2 -4 5972.41 232.51 9
-3 -2 4 6057.32 251.62 7
3 -2 -4 6009.54 295.4 10
3 -2 -4 6092.26 223.5 3
3 -2 -4 6103.74 251.2 7
-4 2 5 86.43 49.09 10
-4 2 5 132.74 10.48 1
4 2 -5 118.99 9.4 3
4 2 -5 203.75 55.95 10
-4 2 5 135.11 12.94 4
4 -2 -5 130.94 11.06 9
4 -2 -5 146.57 10.79 3
-4 -2 5 128.69 12.16 7
4 -2 -5 137.62 11.64 7
-4 -2 5 141.69 10.73 4
4 -2 -5 144.91 43.33 10
-4 -2 5 127.92 10.09 1
-4 -2 5 94.61 39.8 10
5 2 -6 436.67 23.8 3
-5 2 6 443.94 24.11 1
-5 2 6 433.2 85.72 10
-5 2 6 473.19 28.88 4
5 -2 -6 450.65 25.18 9
-5 -2 6 456.69 24.2 1
-5 -2 6 416.39 80.75 10
5 -2 -6 429.51 24.06 3
5 -2 -6 456.67 27.34 7
-5 -2 6 438.4 25.95 4
-5 -2 6 459.19 28.05 7
-6 2 7 8.61 6.56 1
-6 2 7 8.02 8.39 4
6 2 -7 3.73 6.8 3
-6 -2 7 10.94 6.07 4
-6 -2 7 9.45 5.83 1
6 -2 -7 -4.26 6.62 3
6 -2 -7 11.13 6.91 9
-6 -2 7 -7.96 7.99 7
6 -2 -7 -3.38 7.5 7
-7 2 8 45.24 10.58 4
7 2 -8 42.11 9.54 3
-7 2 8 38.61 9.96 1
7 -2 -8 37.84 9.62 7
7 -2 -8 33.65 8.03 9
-7 -2 8 41.89 9.57 5
-7 -2 8 31.02 9.09 1
-7 -2 8 33.31 9.71 7
7 -2 -8 62.87 10.96 3
8 2 -9 -0.83 7.2 9
-8 2 9 7.02 12.46 4
8 2 -9 3.19 10.46 3
-8 2 9 20.84 14.54 5
-8 2 9 9.55 9.09 1
-8 -2 9 18.33 9.02 1
8 -2 -9 34.6 11.81 3
-8 -2 9 19.28 11.9 5
8 -2 -9 2.16 9.79 9
8 -2 -9 12.86 12.3 7
9 2 -10 -4.35 9.56 3
-9 2 10 -6.1 11.14 4
-9 2 10 -1.02 12.5 1
-9 2 10 -9.93 13.54 5
9 2 -10 -12.79 10.41 9
-9 -2 10 -7.11 8.46 1
9 -2 -10 12.87 12.32 7
9 -2 -10 7.82 9.19 9
9 -2 -10 3.69 13.05 3
-9 -2 10 5.14 14.19 5
-10 2 11 -7.93 21.36 5
10 2 -11 -22.51 17.26 3
-10 2 11 -3.74 15.17 1
10 2 -11 -23.79 16.06 9
10 -2 -11 -3.52 16.07 3
-10 -2 11 -12.29 13.41 5
10 -2 -11 0.13 12.86 9
-10 -2 11 -5.51 10.21 1
10 3 -9 8.41 10.74 9
10 3 -9 7.29 11.8 3
-10 3 9 0.65 10.67 1
-10 3 9 -14.54 19.91 5
-10 -3 9 21.44 17.05 5
10 -3 -9 -6.44 14.26 9
-10 -3 9 -10.72 11.56 1
10 -3 -9 -7.26 15.95 7
10 -3 -9 1.59 15.55 3
-9 3 8 9.68 15.24 5
-9 3 8 18.94 12.31 1
9 3 -8 -5.69 9.68 3
-9 3 8 -5.78 12.21 4
9 -3 -8 7.35 9.11 9
-9 -3 8 -18.82 13.9 5
-9 -3 8 -0.75 11.22 1
9 -3 -8 12.75 15.87 7
9 -3 -8 22.04 13.53 3
8 3 -7 152.4 15.97 3
-8 3 7 151.49 17.83 4
-8 3 7 135.48 19.12 5
-8 3 7 159.31 15.77 1
-8 -3 7 159.94 15.96 1
8 -3 -7 148.53 17.6 9
-8 -3 7 118.24 16.88 5
-8 -3 7 177.47 19.93 7
8 -3 -7 177.96 21.51 7
8 -3 -7 159.85 17.48 3
7 3 -6 13.26 8.47 3
-7 3 6 21.87 6.97 1
-7 3 6 18.27 10.74 5
-7 3 6 7.7 9.64 4
7 -3 -6 17.75 9.27 3
7 -3 -6 34.57 9.6 9
-7 -3 6 24.62 10.78 7
-7 -3 6 24.33 6.97 1
-6 3 5 289.93 19.17 1
-6 3 5 279.82 20.79 5
6 3 -5 322 20.01 3
-6 3 5 310.65 22.35 4
6 -3 -5 274.18 21.95 7
6 -3 -5 272.09 19.69 9
-6 -3 5 286.76 18.48 1
-6 -3 5 319.36 20.88 5
-6 -3 5 297.52 23.08 7
6 -3 -5 263.5 18.26 3
-5 3 4 365.36 23.54 5
-5 3 4 406.44 80.44 10
-5 3 4 395.59 25.02 4
5 3 -4 397.99 21.98 3
-5 3 4 390.3 21.64 1
5 -3 -4 471.44 93.25 10
-5 -3 4 430.04 22.98 5
-5 -3 4 363.07 24.36 6
-5 -3 4 411.6 26.23 7
-5 -3 4 386.41 21.62 1
5 -3 -4 383.13 25.02 7
5 -3 -4 388.59 22.11 9
5 -3 -4 381.21 21.54 3
-4 3 3 29.58 3.8 2
-4 3 3 25.07 4.75 1
4 3 -3 28.03 5.46 3
-4 3 3 3.04 38.1 10
4 3 -3 4.46 35.06 10
-4 3 3 32.11 6.97 4
-4 3 3 20.2 5.99 5
-4 -3 3 18.03 3.34 4
-4 -3 3 56.72 51.32 10
4 -3 -3 28.04 4.8 3
-4 -3 3 34.64 5.2 1
4 -3 -3 17.42 4.93 9
4 -3 -3 18.7 36.75 10
-4 -3 3 35.19 5.7 5
-4 -3 3 26.95 7.01 7
4 -3 -3 26.52 5.87 7
-3 3 2 3582.3 137.39 5
-3 3 2 3254.09 128.11 2
-3 3 2 3425.44 192.98 10
3 3 -2 3404.56 128.59 3
-3 3 2 3409.67 127.78 1
3 3 -2 3738.33 199.5 10
-3 3 2 3390.47 145.42 4
-3 -3 2 3695.56 136.29 5
3 -3 -2 3314.27 145.96 7
-3 -3 2 3543.92 146.61 7
3 -3 -2 3534.93 128.2 3
3 -3 -2 3301.95 133.28 9
-3 -3 2 3407.27 127.82 1
-3 -3 2 3079.37 139.48 4
3 -3 -2 2892.55 184.96 10
-3 -3 2 3453.92 195.12 10
-2 3 1 346.71 16.29 2
2 3 -1 332.37 16.03 3
-2 3 1 371.21 17.34 5
2 3 -1 282.24 49.8 10
-2 3 1 333.87 16.99 1
-2 3 1 317.15 19.41 4
-2 3 1 357.22 47.84 10
2 -3 -1 328.37 19.49 7
2 -3 -1 384.44 51.46 10
-2 -3 1 371.93 17.54 1
-2 -3 1 340.96 15.82 5
-2 -3 1 367.43 20.09 7
-2 -3 1 314.39 15.85 4
-2 -3 1 336.61 50.74 10
2 -3 -1 347.81 15.46 3
2 -3 -1 360.26 16.94 9
-1 3 0 551.85 24.03 1
1 3 0 567.82 23.23 3
-1 3 0 471.21 51.6 10
-1 3 0 567.66 23.7 5
1 3 0 533.39 25.31 4
-1 3 0 545.77 27.67 4
1 3 0 569.41 58.64 10
1 -3 0 523.72 21.68 3
-1 -3 0 569.64 24.58 1
-1 -3 0 540.72 55.81 10
1 -3 0 590 28.33 7
-1 -3 0 565.25 22.76 5
1 -3 0 566.82 24.22 9
-1 -3 0 584.68 28.19 7
-1 -3 0 543.31 56.79 10
1 -3 0 502.64 54.22 10
-1 -3 0 581.53 25.71 9
0 3 -1 2940.98 131.37 4
0 3 1 3194.07 168.62 10
0 3 1 3136.92 116.77 1
0 3 1 3193.13 131.34 4
0 -3 1 3119 121.43 9
0 -3 1 3086.94 116.37 1
0 -3 1 3185.45 133.68 7
0 -3 -1 3099.62 165.52 10
0 -3 -1 3147.68 168.09 10
0 -3 -1 3268.31 133.35 7
0 -3 1 3322.3 169.11 10
0 -3 1 3171.08 165.01 10
0 -3 -1 3037.83 116.71 1
0 -3 -1 3118.3 122.87 9
-1 3 2 1171.31 87.3 10
-1 3 2 1088.89 49.47 4
1 3 -2 1168.73 86.5 10
1 3 -2 1044.04 41.08 3
-1 3 2 1094.1 43.84 1
-1 -3 2 1089.84 43.43 1
-1 -3 2 1014.49 49.63 7
1 -3 -2 1149.71 86.9 10
1 -3 -2 1111.62 49.42 7
1 -3 -2 1103.67 45.96 9
1 -3 -2 1063.39 42.78 3
-1 -3 2 1031.63 80.77 10
-2 3 3 954.32 46.48 4
-2 3 3 948.12 40.72 1
-2 3 3 872.35 85.79 10
2 3 -3 965.34 38.72 3
2 3 -3 1103.86 89.29 10
2 -3 -3 963.92 45.59 7
-2 -3 3 1053.94 40.84 1
-2 -3 3 945.99 85.29 10
-2 -3 3 969.87 43.65 4
2 -3 -3 1004.38 40.11 3
-2 -3 3 1046.24 47.06 7
2 -3 -3 934.87 87.45 10
2 -3 -3 938.41 42.19 9
3 3 -4 45.22 5.24 3
3 3 -4 57.28 44.32 10
-3 3 4 42.69 33.46 10
-3 3 4 42.03 3.05 2
-3 3 4 45.47 8.03 4
-3 3 4 42.33 5.84 1
3 -3 -4 49.67 6.83 7
-3 -3 4 43.37 6.17 1
-3 -3 4 45.46 5.19 4
-3 -3 4 51.28 7.42 7
-3 -3 4 62.09 33.91 10
3 -3 -4 61.46 46 10
3 -3 -4 49.93 6.09 9
3 -3 -4 39.57 5.88 3
4 3 -5 397.83 67.93 10
-4 3 5 435.75 27.11 4
-4 3 5 433.08 22.9 1
-4 3 5 507.91 75.16 10
4 3 -5 399.83 21.25 3
-4 -3 5 465.67 26.36 7
4 -3 -5 452.21 22.34 3
-4 -3 5 426.64 22.26 1
4 -3 -5 418.76 23.32 9
-4 -3 5 382.52 21.97 4
4 -3 -5 506 83.97 10
4 -3 -5 419.78 25.18 7
-4 -3 5 308.17 70.05 10
-5 3 6 113.46 11.32 1
5 3 -6 118.68 11.04 3
-5 3 6 103.33 13.66 4
-5 -3 6 119.15 13.5 7
-5 -3 6 140.09 12.21 1
5 -3 -6 110.85 11.04 9
5 -3 -6 118.52 12.85 7
5 -3 -6 105.66 11.07 3
-5 -3 6 118.5 11.48 4
-6 3 7 353.93 22.19 1
6 3 -7 351.05 21.75 3
-6 3 7 340.74 26.27 4
-6 -3 7 358.62 22.08 1
6 -3 -7 322.36 24.43 7
6 -3 -7 331.79 21.89 3
-6 -3 7 344.96 25.08 7
6 -3 -7 310.24 21.67 9
-7 3 8 60.22 14.75 5
7 3 -8 33.82 9.85 3
-7 3 8 36.06 10.54 1
-7 3 8 34.56 12.4 4
7 -3 -8 41.89 10.88 3
7 -3 -8 37.85 11.38 7
-7 -3 8 32.46 9.53 7
7 -3 -8 40.78 11.25 9
-7 -3 8 39.35 10.19 1
-7 -3 8 39.9 9.22 5
-8 3 9 -14.1 13.75 4
-8 3 9 8.19 10.25 5
-8 3 9 25.51 12.43 1
8 3 -9 2.86 7.67 3
-8 -3 9 -20.78 13.78 7
-8 -3 9 21.81 12.19 5
-8 -3 9 17.01 8.49 1
8 -3 -9 16.47 13.31 7
8 -3 -9 -22.64 11.38 3
8 -3 -9 14.93 11.21 9
9 3 -10 84.72 14.76 9
9 3 -10 99.32 17.68 3
-9 3 10 85.61 14.56 1
-9 3 10 72.7 20.72 4
-9 3 10 75.34 21.05 5
9 -3 -10 81.85 19.52 7
-9 -3 10 74.7 18.26 5
9 -3 -10 76.7 14.08 9
9 -3 -10 95.68 17.15 3
-9 -3 10 85.58 15.78 1
-9 4 8 -7.06 16.91 5
-9 4 8 0.77 9.08 1
9 4 -8 -4.89 13.58 3
-9 4 8 -3.45 14.9 4
9 -4 -8 17.15 10.71 3
9 -4 -8 26.71 14.38 9
-9 -4 8 27.09 16.29 7
-9 -4 8 33.24 11.64 1
9 -4 -8 22.43 12.48 7
-9 -4 8 6.14 13.85 5
8 4 -7 14.15 11.73 3
-8 4 7 -17.05 13.98 5
-8 4 7 -1.31 12.45 4
-8 4 7 -9.94 8.27 1
8 -4 -7 -2.08 10.69 3
-8 -4 7 15.47 13.74 7
-8 -4 7 2.01 11.71 5
8 -4 -7 26.87 11.87 9
8 -4 -7 2.52 9.17 7
-7 4 6 16.21 8.97 4
-7 4 6 36.1 10.43 1
-7 4 6 14.73 10.49 5
7 4 -6 40.85 10.85 3
-7 -4 6 8.03 9.35 5
7 -4 -6 3.2 10.7 7
-7 -4 6 20.43 9.42 1
-7 -4 6 24.85 9.63 7
7 -4 -6 38.36 10.31 9
7 -4 -6 43 10.49 3
-6 4 5 472.92 31.19 4
-6 4 5 483.69 26.78 1
6 4 -5 490.27 26.51 3
-6 4 5 404.68 27.93 5
-6 -4 5 449.06 25.73 1
6 -4 -5 488.31 26.44 3
-6 -4 5 456.01 30.96 7
6 -4 -5 456.4 26.9 9
-6 -4 5 461.43 27.15 5
-6 -4 5 369.97 28.74 6
6 -4 -5 508.35 31.6 7
-5 4 4 181.17 16.41 4
-5 4 4 180.84 14.97 5
5 4 -4 187.78 13.6 3
-5 4 4 178.53 14.16 1
5 -4 -4 175.66 13.01 3
-5 -4 4 203.06 18.25 7
-5 -4 4 184.86 17.62 6
-5 -4 4 173.58 14.04 5
-5 -4 4 178.98 14.35 1
5 -4 -4 171.22 16.52 7
5 -4 -4 198.24 14.18 9
-4 4 3 290.67 18.09 5
-4 4 3 296.82 17.82 1
-4 4 3 162.1 54.53 10
4 4 -3 302.95 16.95 3
-4 4 3 300.73 20.95 4
-4 4 3 287.56 14.75 2
-4 -4 3 299.39 16.86 5
4 -4 -3 294.37 20.41 7
4 -4 -3 270.19 17.21 9
4 -4 -3 297.54 16.53 3
4 -4 -3 175.36 73.7 10
-4 -4 3 277.75 17.21 1
-4 -4 3 258.38 73.37 10
-4 -4 3 296.92 21.13 7
3 4 -2 26.12 44.83 10
3 4 -2 12.07 4.13 3
-3 4 2 27.39 44.43 10
-3 4 2 8.57 8.13 4
-3 4 2 3.76 3.14 5
-3 4 2 11.19 3.9 1
-3 4 2 15.28 3.55 2
3 -4 -2 10.09 3.24 3
3 -4 -2 16.27 4.94 7
-3 -4 2 -19.2 46.79 10
-3 -4 2 9.71 4.14 1
3 -4 -2 13.25 3.61 9
-3 -4 2 12.3 2.53 4
-3 -4 2 9.11 3.21 5
3 -4 -2 88.48 50.16 10
-2 4 1 2777.79 117.84 4
-2 4 1 2644.08 104.37 2
-2 4 1 2787.78 108.55 5
2 4 -1 2651.54 102.37 3
-2 4 1 2645.52 168.44 10
-2 4 1 2679.94 103.21 1
2 4 -1 2895.22 175.66 10
-2 -4 1 2542.74 106.35 5
-2 -4 1 2701.37 169.65 10
2 -4 -1 2709.55 107.25 9
2 -4 -1 2730.7 167.63 10
2 -4 -1 2773.6 118.67 7
-2 -4 1 2827.57 119.02 7
2 -4 -1 2555.51 101.11 3
-2 -4 1 2734.95 103.5 1
1 4 0 1320.28 59.23 4
-1 4 0 1277.5 54.51 5
1 4 0 1348.72 52.92 3
-1 4 0 1457.3 62.5 4
-1 4 0 1380.06 54.62 1
-1 4 0 1391.16 104.26 10
1 -4 0 1354.3 55.8 9
-1 -4 0 1388.98 57.43 9
1 -4 0 1326.35 51.17 3
1 -4 0 1347.97 62.85 7
-1 -4 0 1341.99 62.7 7
-1 -4 0 1393.25 55.06 1
1 -4 0 1472.36 107.11 10
-1 -4 0 1312.53 101.36 10
-1 -4 0 1372.88 108.25 10
1 -4 0 1377.12 54.75 1
0 4 1 5178.9 213.13 4
0 4 -1 5113.94 213.67 4
0 -4 1 5138 216.72 7
0 -4 1 4862.15 258.03 10
0 -4 -1 5174.38 199.47 9
0 -4 1 5164.98 197.84 9
0 -4 -1 5093.5 259.37 10
0 -4 1 5041.5 258.01 10
0 -4 1 5163.14 189.15 1
0 -4 -1 5333.39 216.42 7
0 -4 -1 5047.39 261.66 10
0 -4 -1 5132.02 189.67 1
-1 4 2 -0.9 3.81 4
-1 4 2 -4.7 3.67 1
1 4 -2 -8.32 31.96 10
1 4 -2 1.43 1.36 3
-1 4 2 -26.22 36.46 10
1 -4 -2 4.91 2.72 3
1 -4 -2 -3.84 3.14 7
1 -4 -2 0.83 33.26 10
-1 -4 2 -9.38 32.86 10
1 -4 -2 -1.94 3.58 9
-1 -4 2 3.47 3.75 1
-1 -4 2 -1.25 4.05 7
2 4 -3 197.72 56.43 10
-2 4 3 285.79 16.59 1
-2 4 3 280.37 19.04 4
-2 4 3 225.52 58.99 10
2 4 -3 272.32 13.3 3
-2 -4 3 293.05 16.02 1
2 -4 -3 290.07 16.77 9
2 -4 -3 314.19 18.72 7
2 -4 -3 265.78 14.38 3
-2 -4 3 277.77 18.33 7
-2 -4 3 268.66 58.1 10
2 -4 -3 278.38 51.6 10
-2 -4 3 271.21 15.74 4
3 4 -4 267.64 69.74 10
-3 4 4 318.5 21.38 4
-3 4 4 258.12 57.05 10
-3 4 4 296.08 18.42 1
-3 4 4 302.45 14.6 2
3 4 -4 292.77 15.79 3
-3 -4 4 315.97 17.54 4
-3 -4 4 357.39 18.93 1
-3 -4 4 376.98 22.45 7
3 -4 -4 310.02 73.75 10
3 -4 -4 323.43 20.23 7
3 -4 -4 297.99 18.51 9
3 -4 -4 326.77 17.46 3
-3 -4 4 292.62 58.2 10
4 4 -5 2.89 4.04 3
-4 4 5 16.95 6.36 1
-4 4 5 8.44 7 4
-4 -4 5 -1.72 6.41 7
-4 -4 5 19.08 4.59 4
4 -4 -5 8.16 4.85 3
4 -4 -5 10.84 5.73 9
-4 -4 5 17.35 6.05 1
4 -4 -5 23.33 7.18 7
-5 4 6 -4.99 6.6 1
-5 4 6 1.98 7.8 4
5 4 -6 -1.19 5.32 3
-5 -4 6 0.16 7.59 7
-5 -4 6 4.91 6 1
-5 -4 6 -1.45 4.53 5
5 -4 -6 -3.54 6.63 7
5 -4 -6 -11.95 7.44 9
5 -4 -6 11.64 7.09 3
-6 4 7 309.66 21.09 1
-6 4 7 301.8 24.51 5
-6 4 7 351.7 27.09 4
6 4 -7 349.09 21.52 3
-6 -4 7 294.67 21.57 5
6 -4 -7 289.53 21.74 9
-6 -4 7 336.77 21.38 1
-6 -4 7 320.45 25.35 7
6 -4 -7 296 21.09 3
6 -4 -7 328.74 23.96 7
7 4 -8 34.16 8.83 3
-7 4 8 42.68 14.02 4
-7 4 8 34.2 11.53 1
7 -4 -8 66.82 12.77 9
-7 -4 8 57.78 12.8 5
-7 -4 8 47.39 9.59 1
7 -4 -8 46.69 9.88 3
-7 -4 8 51.33 13.94 7
8 4 -9 73.46 14.44 3
-8 4 9 64.36 14.3 1
-8 4 9 53.35 14.31 5
-8 4 9 87.38 19.16 4
8 -4 -9 70.06 13.43 9
8 -4 -9 55.44 13.33 7
8 -4 -9 68.86 12.76 3
-8 -4 9 84.65 17.58 7
-8 -4 9 69.27 14.7 1
-8 -4 9 66.25 16.09 5
-9 4 10 10.4 19.42 5
-9 4 10 7.38 14.52 1
9 4 -10 6.38 12.39 3
-9 4 10 -12.26 17.74 4
9 -4 -10 4.19 13.95 9
9 -4 -10 23.44 15.2 3
-9 -4 10 20.22 14.42 1
9 -4 -10 -2.67 11.17 7
-9 -4 10 11.49 14.67 7
-9 5 8 -10.18 18.31 5
-9 5 8 22.47 15.01 1
9 5 -8 1.75 14.22 3
-9 -5 8 -7.68 18.36 7
9 -5 -8 8.33 16.75 7
-9 -5 8 -2.69 12.35 1
-8 5 7 -7.01 10.07 4
-8 5 7 -12.43 10.51 5
8 5 -7 11.26 11.95 3
-8 5 7 16.25 12.39 1
-8 -5 7 -12.41 12.06 1
8 -5 -7 30.7 15.48 7
-8 -5 7 13.71 14.05 7
-7 5 6 81.07 13.34 1
7 5 -6 62.89 12.48 3
-7 5 6 76.81 15.93 4
-7 5 6 69.6 14.36 5
7 -5 -6 62.02 10.71 9
-7 -5 6 97.98 15.41 7
7 -5 -6 79.19 13.69 7
-7 -5 6 41.74 11.82 1
6 5 -5 38.19 9.36 3
-6 5 5 51.16 10.83 1
-6 5 5 27.95 11.07 4
-6 5 5 52.59 9.44 5
6 -5 -5 37.82 9.52 9
-6 -5 5 52.75 12.83 6
6 -5 -5 40.61 9.71 7
-6 -5 5 60.42 13.43 7
-6 -5 5 40.42 8.46 1
6 -5 -5 38.58 9.56 3
-5 5 4 294.26 20.39 1
5 5 -4 358.83 20.17 3
-5 5 4 311.69 23.86 4
5 -5 -4 330.59 24.51 7
5 -5 -4 340.23 19.79 3
5 -5 -4 314.73 20.48 9
-5 -5 4 350.28 25.84 7
-5 -5 4 308.05 20.61 1
4 5 -3 466.48 23.98 3
-4 5 3 436.63 25.06 5
-4 5 3 461.96 29.38 4
-4 5 3 500.52 26.35 1
4 -5 -3 473.48 23.32 3
4 -5 -3 476.48 29.61 7
4 -5 -3 462.51 25.32 9
-4 -5 3 521.76 31.27 7
-4 -5 3 463.77 25.35 1
-3 5 2 2060.02 89.44 5
3 5 -2 2172.61 84.9 3
-3 5 2 2175.03 161.92 10
-3 5 2 2196.46 98.84 4
-3 5 2 2122.62 85.69 2
-3 5 2 2178.9 86.38 1
3 -5 -2 2025.4 83.21 3
3 -5 -2 2217.97 89.17 9
3 -5 -2 2242.86 99.54 7
-3 -5 2 2223.82 86.67 1
-3 -5 2 2269.47 99.78 7
2 5 -1 329.96 16.45 3
-2 5 1 311.11 18.59 1
-2 5 1 188.21 58.24 10
-2 5 1 380.86 22.88 4
-2 5 1 314.15 16.32 5
-2 -5 1 335.15 21.87 7
2 -5 -1 268.5 68.82 10
2 -5 -1 321.12 22 7
-2 -5 1 349.38 19.21 1
2 -5 -1 346.07 18.44 9
-2 -5 1 307.51 60.6 10
-1 5 0 28.84 6 4
1 5 0 40.62 4.62 3
1 5 0 37.97 5.59 4
1 -5 0 28 6.53 7
1 -5 0 29.34 4.9 9
1 -5 0 12.59 33.79 10
-1 -5 0 42.38 6.82 1
1 -5 0 43.85 6.7 1
1 -5 0 55.8 36.84 10
-1 -5 0 59.13 46.68 10
-1 -5 0 28.1 6.07 9
-1 -5 0 -1.89 34.77 10
-1 -5 0 40.82 7.84 7
0 5 1 0.17 4.3 4
0 5 -1 6.09 5.01 4
0 5 1 6.24 2.79 3
0 -5 1 6.2 4.35 1
0 -5 1 9.74 6.02 7
0 -5 -1 34.01 40.12 10
0 -5 -1 -2.85 3.4 1
0 -5 1 4.85 3.64 9
0 -5 -1 8.56 4.63 9
0 -5 -1 -76.64 52.45 10
0 -5 1 28.1 44.53 10
0 -5 1 -20.98 44.18 10
0 -5 -1 6.96 5.32 7
-1 5 2 1232.7 119.51 10
-1 5 2 1233.41 52.25 1
-1 5 2 1306.47 58.77 4
1 5 -2 1160.48 46.91 3
1 -5 -2 1277.71 54.27 9
-1 -5 2 1270.98 60.11 7
-1 -5 2 1010.47 100.02 10
1 -5 -2 1239.67 59.14 7
1 -5 -2 1175.54 110.18 10
-1 -5 2 1276.17 51.98 1
-1 -5 2 1298 118.78 10
-2 5 3 16.89 40.98 10
2 5 -3 47.25 4.65 3
-2 5 3 36.89 5.22 5
-2 5 3 50.49 7.49 1
-2 5 3 50.19 8.78 4
-2 -5 3 55.35 6.41 4
-2 -5 3 34.86 52.37 10
2 -5 -3 55.53 8.6 7
2 -5 -3 52.9 5.99 3
-2 -5 3 66.62 8.89 7
2 -5 -3 53.59 7.52 9
-2 -5 3 49.1 7.34 1
3 5 -4 22.27 4.5 3
-3 5 4 29.38 8.42 4
-3 5 4 23.49 6.92 1
-3 5 4 10.96 5.21 2
-3 -5 4 29.96 5.42 4
3 -5 -4 20.01 5.48 9
-3 -5 4 28.73 6.89 7
3 -5 -4 17.88 5.25 3
3 -5 -4 13.6 6.68 7
-3 -5 4 36.17 7.1 1
-4 5 5 -3.35 6.49 1
-4 5 5 -7.59 6.26 5
-4 5 5 15.57 8.48 4
4 5 -5 4.63 4.98 3
4 -5 -5 2.3 5.58 7
-4 -5 5 -1.72 5.79 1
4 -5 -5 0.8 6.54 9
-4 -5 5 1.41 7.38 7
4 -5 -5 1.21 5.2 3
-5 5 6 479.55 32.8 4
-5 5 6 525.41 29.01 1
5 5 -6 490.05 26 3
5 -5 -6 450.18 26.16 3
5 -5 -6 484.87 28.39 9
5 -5 -6 500.67 31.41 7
-5 -5 6 538.87 33.65 7
-5 -5 6 479.91 27.98 1
-6 5 7 25.47 10.08 4
6 5 -7 16.27 8.81 3
-6 5 7 33.19 8.63 1
-6 -5 7 22.88 9.52 7
6 -5 -7 18.71 9.95 7
6 -5 -7 10.22 8.36 3
-6 -5 7 35.66 9.02 1
-7 5 8 0.33 11.87 5
7 5 -8 14.66 8.01 3
-7 5 8 -5.25 9.56 1
-7 5 8 6.72 13.31 4
-7 -5 8 -2.24 7.12 1
7 -5 -8 -2.53 9.97 7
7 -5 -8 6.62 10.22 9
-7 -5 8 8.11 12.61 7
7 -5 -8 3.81 7.1 3
-8 5 9 65.11 19.24 5
8 5 -9 92.8 16.37 3
-8 5 9 69.37 15.95 1
-8 5 9 53.3 18.39 4
-8 -5 9 90.92 16.31 1
-8 -5 9 73.93 18.66 7
8 -5 -9 65.3 16.01 9
8 -5 -9 81.6 18.35 7
8 -5 -9 86.02 14.38 3
-8 6 7 -0.36 9.11 1
-8 6 7 -8.89 15.43 4
-8 -6 7 -2.95 11.83 1
-8 -6 7 11.01 17.9 7
8 -6 -7 22.67 16.13 7
-7 6 6 3.04 12.93 4
-7 6 6 -5.05 9.42 1
7 -6 -6 -4.91 13.34 7
-7 -6 6 15.92 15.68 7
-7 -6 6 -3.83 10.43 1
-6 6 5 404.51 31.37 4
6 6 -5 387.65 25.12 3
-6 6 5 389.5 25.78 1
-6 -6 5 373.77 30.39 6
6 -6 -5 401.42 30.88 7
-6 -6 5 417.78 26.99 1
-6 -6 5 443.12 33.69 7
-5 6 4 25.17 8.62 4
5 6 -4 18.99 9.83 3
-5 6 4 33.95 8 1
5 -6 -4 15.04 9.94 7
-5 -6 4 22.41 10.39 7
-5 -6 4 18.61 8.56 1
-4 6 3 308.49 24.44 4
-4 6 3 365.44 22.47 1
4 6 -3 333.38 19.96 3
4 -6 -3 331.86 25.27 7
4 -6 -3 340.46 21.3 9
-4 -6 3 348 21.92 1
-4 -6 3 367.81 26.13 7
-3 6 2 24.41 7.56 2
-3 6 2 18.15 6.97 1
-3 6 2 19.77 8.86 4
3 6 -2 16.51 6.35 3
-3 -6 2 16.66 6.85 7
3 -6 -2 14.38 6.04 9
-3 -6 2 12.95 6.62 1
3 -6 -2 16.69 8.35 7
-2 6 1 472.75 25.35 1
-2 6 1 445.49 28.87 4
2 6 -1 464.37 22.37 3
2 -6 -1 473.13 29.69 7
-2 -6 1 513.91 30.28 7
2 -6 -1 428.85 23.95 9
2 -6 -1 490.47 25.75 1
-2 -6 1 417 24.33 1
1 6 0 43.02 7.24 4
1 6 0 45.63 6.11 3
-1 6 0 35.01 8.56 4
-1 -6 0 44.86 7.95 1
-1 -6 0 57.37 10.04 7
1 -6 0 48.48 6.24 9
1 -6 0 31.27 8.88 7
1 -6 0 63.73 9.13 1
0 6 -1 378.41 24.16 4
0 6 1 412.61 23.89 4
0 6 1 380.3 18.54 3
0 -6 1 363.12 25.12 7
0 -6 -1 357.85 21.89 9
0 -6 -1 394.64 22.43 1
0 -6 1 368.95 21.83 1
0 -6 -1 426.32 26.21 7
-1 6 2 233.29 17.21 1
-1 6 2 275.96 19.95 4
-1 -6 2 267.76 17.54 1
1 -6 -2 264.57 18.11 1
-1 -6 2 291.7 20.74 7
1 -6 -2 259.78 17.41 9
1 -6 -2 279.15 20.09 7
-2 6 3 675.37 33.77 1
-2 6 3 626.38 37.24 4
-2 -6 3 647.76 32.59 1
-2 -6 3 729.96 39.37 7
2 -6 -3 660.03 37.71 7
-2 -6 3 716.16 34.85 4
2 -6 -3 625.39 33.8 9
-3 6 4 179.3 14.72 1
-3 6 4 199.57 17.54 4
3 -6 -4 183.52 14.69 9
-3 -6 4 176.34 14.83 1
-3 -6 4 186.5 17.39 7
3 -6 -4 162.44 15.71 7
-4 6 5 568.57 31.41 1
-4 6 5 494.66 34.46 4
4 -6 -5 592.71 32.03 9
4 -6 -5 551.05 34.06 7
-4 -6 5 559.66 30.7 1
-4 -6 5 589.54 36.76 7
-5 6 6 100.26 16.61 4
-5 6 6 96.19 13.38 1
-5 -6 6 126.91 13.02 1
-5 -6 6 95.91 14.4 7
5 -6 -6 112.76 12.67 9
5 -6 -6 82.46 14.13 7
-6 6 7 39.87 14.73 4
-6 6 7 49.32 12.68 1
6 -6 -7 44.61 11.45 9
6 -6 -7 34.9 10.6 7
-6 -6 7 45.96 11.71 1
-6 -6 7 31.15 14.68 7
-7 6 8 27.95 13.19 1
-7 6 8 36.05 16.69 4
7 -6 -8 25.6 9.96 9
-7 -6 8 15.26 14.47 7
7 -6 -8 38.43 14.64 7
-7 -6 8 44.52 13.58 1
-8 6 9 31.42 18.07 4
-8 6 9 55.79 13.5 1
8 -6 -9 34.92 13.33 7
-8 -6 9 39.58 15.07 1
8 -6 -9 26.45 15.05 9
-8 -6 9 37.62 18.79 7
-7 7 6 34.16 13.64 1
-7 7 6 19.92 16.59 4
-7 -7 6 58.1 19.23 7
7 -7 -6 42.29 15.99 7
-7 -7 6 68.24 15.5 1
-6 7 5 0.95 10.96 1
-6 7 5 -15.13 13.78 4
-6 -7 5 9.24 14.82 6
-6 -7 5 -1.77 12.32 7
-6 -7 5 4.12 10.93 1
6 -7 -5 -5.3 9.8 7
-5 7 4 35.38 11.11 4
-5 7 4 38.39 10.92 1
-5 -7 4 45.01 10.61 1
5 -7 -4 35.19 13.27 7
-5 -7 4 35.81 12.99 7
-4 7 3 20.82 9.41 1
-4 7 3 12.15 8.35 4
-4 -7 3 8.02 8.29 1
-4 -7 3 -10.83 11.57 7
4 -7 -3 -3.12 7.52 7
-3 7 2 452.33 27.14 1
-3 7 2 471.02 31.92 4
-3 -7 2 437.93 26.87 1
3 -7 -2 475.22 32.12 7
-3 -7 2 452.83 32.02 7
-2 7 1 2.82 8.57 4
-2 -7 1 -0.44 8.1 7
-2 -7 1 5.66 6.98 1
2 -7 -1 17.34 8.7 7
2 -7 -1 10.03 8.25 1
-1 7 0 24.85 9.44 4
-1 -7 0 30.76 8.22 1
1 -7 0 38.2 7.75 1
1 -7 0 34.34 10.7 7
1 -7 0 49.6 8.25 9
-1 -7 0 40.68 10.28 7
0 7 -1 211.19 17.17 4
0 7 1 225.75 17.53 4
0 -7 1 185.88 15.16 1
0 -7 -1 163.98 15.16 9
0 -7 1 203.84 19.09 7
0 -7 -1 191.52 16.11 1
0 -7 -1 201.96 18.53 7
-1 7 2 935.98 47.97 4
1 -7 -2 845.72 48.34 7
-1 -7 2 882.38 42.36 1
1 -7 -2 865.17 43.19 1
-1 -7 2 941.98 50.34 7
1 -7 -2 924.96 44.35 9
-2 7 3 142.17 13.6 1
-2 7 3 122.07 15.76 4
-2 -7 3 109.51 15.3 7
-2 -7 3 144.18 13.24 1
2 -7 -3 129.84 13.42 1
2 -7 -3 139.13 13.85 9
2 -7 -3 151.9 16.56 7
-3 7 4 -11.81 10.21 4
-3 7 4 18.2 6.87 1
-3 -7 4 -1.22 6.78 1
3 -7 -4 0.33 6.19 7
3 -7 -4 -6.2 8.03 9
-3 -7 4 -5.25 9.5 7
-4 7 5 -4.76 11.16 4
-4 7 5 11.18 9.88 1
4 -7 -5 4.71 10.3 7
-4 -7 5 -0.65 8.51 1
-4 -7 5 5.65 11.23 7
4 -7 -5 -6.5 8.14 9
-5 7 6 284.25 22.99 1
-5 7 6 287.66 25.79 4
-5 -7 6 327.77 28.35 7
-5 -7 6 265.34 20.81 1
5 -7 -6 286.24 24.44 7
5 -7 -6 301.09 22.23 9
-6 7 7 -7.52 8.77 1
-6 7 7 13.51 15.21 4
6 -7 -7 -14.35 13.44 7
-6 -7 7 -2.65 13.44 7
6 -7 -7 -16.99 9.05 9
-6 -7 7 -5.17 9.37 1
-7 7 8 35.89 17.39 4
-7 7 8 17.74 10.8 1
-7 -7 8 27.52 11.88 1
7 -7 -8 45.61 14.91 7
-7 -7 8 26.17 18.87 7
-6 8 5 33.75 17.87 4
-6 8 5 65.04 15.68 1
6 -8 -5 35.79 15.34 7
-6 -8 5 57.11 17.14 6
-6 -8 5 19.29 17.19 7
-6 -8 5 44.98 14.39 1
-5 8 4 4.26 9.7 4
-5 8 4 9.31 11.36 1
5 -8 -4 -2.17 13.14 7
-5 -8 4 -2.41 11.78 1
-5 -8 4 7.22 15.72 7
-4 8 3 9.45 9.29 4
-4 8 3 -9.13 11.44 1
4 -8 -3 2.77 11.07 7
-4 -8 3 4.24 9.84 7
-4 -8 3 12.19 7.78 1
-3 8 2 172.47 20.52 4
-3 8 2 171.66 17.72 1
-3 -8 2 134.22 15.97 1
3 -8 -2 158.02 16.69 1
3 -8 -2 157.69 20.08 7
-3 -8 2 177.37 21.07 7
-2 8 1 449.26 31.34 4
-2 8 1 396.94 28.34 2
-2 -8 1 403.67 26.12 1
2 -8 -1 437.4 28.03 1
2 -8 -1 434.48 32.02 7
-2 -8 1 388.02 29.72 7
-1 8 0 369.56 27.04 4
-1 -8 0 370.43 28.97 7
1 -8 0 364.31 24.66 1
1 -8 0 387.65 29.97 7
-1 -8 0 362.65 24.7 1
0 -8 -1 322.36 25.79 7
0 -8 -1 254.62 19.97 9
0 -8 1 303 24.75 7
0 -8 -1 288.75 21.93 1
0 -8 1 253.62 20.75 1
-1 8 2 -0.12 9.68 4
1 -8 -2 -5.33 7.43 9
1 -8 -2 7.07 7.8 7
1 -8 -2 0.02 8.64 1
-1 -8 2 8.7 10.81 7
-1 -8 2 -2.69 8.56 1
-2 8 3 152.59 17.33 4
-2 -8 3 187.89 20.68 7
2 -8 -3 190.43 18.65 1
2 -8 -3 181.26 17.18 9
-2 -8 3 166.21 16.74 1
2 -8 -3 166.36 19.93 7
-3 8 4 101.84 15.32 1
-3 8 4 84.67 15.51 4
-3 -8 4 84.64 13.48 1
3 -8 -4 79.49 15.92 7
-3 -8 4 110.64 17.53 7
3 -8 -4 68.41 11.08 9
-4 8 5 81.83 15.12 4
-4 8 5 70.93 14.35 1
-4 -8 5 76.28 18.08 7
-4 -8 5 87.85 12.53 1
4 -8 -5 89.66 16.95 7
-5 8 6 11.88 12.51 1
-5 8 6 -6.95 14.56 4
-5 -8 6 -3.77 11.57 1
5 -8 -6 24.76 13.94 7
-5 -8 6 4.15 14.4 7
-6 8 7 16.43 10.75 1
-6 8 7 2.78 12.11 4
-6 -8 7 30.72 13.7 7
6 -8 -7 -9.06 15.51 7
-6 -8 7 -8.28 13.6 1
-5 9 4 58.38 16.58 4
-5 9 4 34.9 12.34 1
5 -9 -4 52.66 13.64 1
5 -9 -4 43.29 19.01 7
-5 -9 4 1.31 15.68 7
-5 -9 4 30.8 14.76 1
-4 9 3 36.81 13.47 4
-4 9 3 37.98 12.26 1
4 -9 -3 -3.47 15.5 7
-4 -9 3 11 12.09 7
-4 -9 3 42.18 12.28 1
4 -9 -3 35.58 11.64 1
-3 9 2 130.19 20.67 4
3 -9 -2 132.02 17.72 1
3 -9 -2 119.77 20.82 7
-3 -9 2 157.99 16.73 1
-3 -9 2 124.76 19.82 7
-2 9 1 2.49 13.13 4
2 -9 -1 8.56 11.39 1
2 -9 -1 4.27 13.2 7
-2 -9 1 10.74 11.7 1
-2 -9 1 8.2 13.8 7
-1 9 0 5.88 12.22 4
1 -9 0 9.34 11.4 1
-1 -9 0 21.41 12.17 1
-1 -9 0 12.66 13.98 7
1 -9 0 -22.85 14.03 7
0 -9 1 148.5 18.09 1
0 -9 1 220.06 23.8 7
0 -9 -1 191.07 19.69 1
0 -9 -1 210.67 21.47 7
-1 -9 2 236.53 21.55 1
-1 -9 2 280.78 27.15 7
1 -9 -2 234.88 21.95 1
1 -9 -2 237.58 23.24 7
-2 9 3 180.06 21.8 4
2 -9 -3 149.43 18.94 7
2 -9 -3 130.97 18.3 1
-2 -9 3 148.69 17.02 1
-2 -9 3 143.53 19 7
-3 9 4 9.18 14.03 4
-3 -9 4 14.51 13.99 7
-3 -9 4 2.14 8.02 1
3 -9 -4 -10.63 14.13 7
3 -9 -4 2.72 12.36 1
-4 9 5 41.4 17.98 4
-4 9 5 4.32 9.59 1
4 -9 -5 10.31 12.58 1
4 -9 -5 15.06 11.64 7
-4 -9 5 25.69 10.32 1
-4 -9 5 17.32 17.63 7
-5 9 6 5.43 14.63 1
-5 9 6 -15.11 18.48 4
-5 -9 6 -3.31 11.07 1
-5 -9 6 11.09 17.96 7
-3 10 2 0.84 17.94 4
-3 -10 2 24.41 15.07 1
-3 -10 2 48.07 19.55 7
3 -10 -2 10.84 15.08 1
3 -10 -2 1.66 12.32 7
-2 10 1 77.56 20.17 4
-2 -10 1 70.72 16.88 1
2 -10 -1 74.34 17.8 1
-2 -10 1 82.65 21.21 7
1 -10 0 20.86 14.69 7
-1 -10 0 5.74 16.1 7
-1 -10 0 -9.95 13.49 1
1 -10 0 40.12 14.94 1
0 -10 1 17.6 12.42 7
0 -10 -1 10.66 15.12 7
0 -10 -1 3.04 9.72 1
0 -10 1 11.4 10.34 1
-1 -10 2 59.81 18.43 7
1 -10 -2 47.08 18.44 7
1 -10 -2 46.31 16.27 1
-2 -10 3 28.69 14.83 1
-2 -10 3 46.97 18.67 7
2 -10 -3 28.8 14.47 1
2 -10 -3 49.3 17.09 7
-10 0 8 -10.7 12.08 1
-10 0 8 -32.72 15.99 5
10 0 -8 -10.15 10.33 9
10 0 -8 -1.52 14.24 3
10 0 -8 2.05 16.32 7
9 0 -7 -3.8 9.82 7
9 0 -7 19.22 12.32 3
-9 0 7 -18.86 12.81 5
-9 0 7 -1.44 10.56 1
9 0 -7 -10.59 11.84 9
8 0 -6 126.36 13.96 3
-8 0 6 125.54 12.79 1
-8 0 6 95.96 13.62 5
8 0 -6 117.92 15.4 9
-7 0 5 -6.28 8.68 4
7 0 -5 -7.03 6.09 3
-7 0 5 -10.03 8.56 5
-7 0 5 0.8 6.15 1
-6 0 4 561.35 90.49 10
6 0 -4 491.26 26.86 3
-6 0 4 511.03 28.82 5
-6 0 4 480.01 26.88 4
6 0 -4 498.38 91.58 10
-6 0 4 498.68 25.09 1
-5 0 3 -43.55 41.38 10
-5 0 3 -1.05 3.71 5
5 0 -3 -3.89 4.3 3
5 0 -3 -25.62 41.91 10
-5 0 3 0.96 3.61 4
-5 0 3 1.75 3.89 1
-5 0 3 -0.3 2.66 6
-4 0 2 110.75 9.62 5
-4 0 2 98.25 7.48 1
-4 0 2 100.37 7.78 4
4 0 -2 50.51 32.08 10
-4 0 2 152.14 40.95 10
4 0 -2 117.57 8.53 3
-4 0 2 86.59 6.96 6
-3 0 1 -2.94 3.4 5
-3 0 1 0.28 1.46 4
-3 0 1 27.23 21.83 10
3 0 -1 -9.46 19.23 10
-3 0 1 -0.29 2.12 6
3 0 -1 -1.01 1.91 3
-3 0 1 -1.63 1.57 1
-3 0 1 2.36 2.79 2
2 0 -4 2511.85 138.66 10
-2 0 4 2669.86 141.93 10
-2 0 4 2654.09 109.62 4
2 0 -4 2632.28 101.66 9
2 0 -4 2481.68 97.63 3
-2 0 4 2429.77 96.01 1
-2 0 4 2708.72 109.41 7
3 0 -5 -0.52 3.2 9
3 0 -5 4.01 29.87 10
3 0 -5 0.1 2.21 3
-3 0 5 1.73 3.69 4
-3 0 5 0.39 3.01 1
-3 0 5 13.06 22.98 10
-3 0 5 -1.97 3.69 7
4 0 -6 973.13 91.8 10
4 0 -6 876.74 41.61 9
-4 0 6 918.1 39.63 1
-4 0 6 967.87 46.38 4
-4 0 6 971.6 93.03 10
4 0 -6 910.51 40.24 3
5 0 -7 1.63 5.23 3
-5 0 7 -23.3 39.54 10
-5 0 7 1.02 6.57 4
5 0 -7 -2.81 4.85 9
-5 0 7 4.53 3.71 1
6 0 -8 1924.03 80.3 3
-6 0 8 2031.51 79.57 1
6 0 -8 1889.46 83.17 9
-6 0 8 1836.43 90.85 4
-7 0 9 -11.88 8.26 1
-7 0 9 0.12 8.91 4
7 0 -9 -6.4 8.26 3
7 0 -9 -8.24 7.65 9
-8 0 10 165 16.18 1
8 0 -10 160.13 17.93 3
8 0 -10 144.88 16.82 9
-8 0 10 128.85 19.7 4
9 0 -11 13.57 9.33 9
-9 0 11 -2.16 16.09 5
9 0 -11 -9.35 12.68 3
9 0 -11 -14.31 14.61 7
-9 0 11 -18.72 13.7 1
10 0 -12 -22.89 14.03 7
10 0 -12 11.89 12.18 9
-10 0 12 -20.56 16.01 1
10 0 -12 11.26 15.98 3
-10 0 12 17.23 20.54 5
-10 1 8 40.25 14.8 1
10 1 -8 15.96 14.74 9
10 1 -8 15.34 15.58 3
-10 1 8 5.65 16.26 5
10 -1 -8 -8.61 12.61 3
-10 -1 8 8.04 12.6 5
10 -1 -8 -8.45 16.98 7
10 -1 -8 11.6 14.02 9
-9 1 7 98.19 14.89 1
-9 1 7 88.55 17.91 5
9 1 -7 90.83 16.3 9
9 1 -7 109.48 17.12 3
-9 -1 7 89.74 16.01 5
9 -1 -7 105.51 19.88 7
-9 -1 7 94.47 13.08 1
9 -1 -7 95.22 16.06 3
9 -1 -7 120.98 17.23 9
-8 1 6 27.63 9.23 1
-8 1 6 38.42 14.74 4
-8 1 6 11.16 8.31 5
8 1 -6 43.47 11.4 3
-8 -1 6 27.52 11.38 5
8 -1 -6 26.42 11.24 3
-8 -1 6 29.86 7.79 1
8 -1 -6 32.73 13.16 7
8 -1 -6 48.58 10.16 9
-7 1 5 -2.75 8.05 5
-7 1 5 6.01 7.09 4
-7 1 5 10.1 6.94 1
7 1 -5 15.2 8.36 3
7 -1 -5 4.74 7.49 9
-7 -1 5 7.46 8.06 5
7 -1 -5 11.36 9.27 7
7 -1 -5 -2.39 5.3 3
-7 -1 5 -1.15 4.67 1
-6 1 4 14.29 4.98 4
-6 1 4 10.13 5.71 5
6 1 -4 18.57 6.8 3
-6 1 4 74.53 66.66 10
-6 1 4 19.68 6.23 1
-6 -1 4 6.47 5.83 4
-6 -1 4 20.2 6.11 1
6 -1 -4 5.89 4.69 9
6 -1 -4 5.94 4.81 3
6 -1 -4 21.06 6.73 7
-6 -1 4 -12.93 63.87 10
-6 -1 4 4.98 6.63 5
-5 1 3 1532.45 119.04 10
-5 1 3 1537.08 61.01 1
-5 1 3 1545.3 67.37 5
5 1 -3 1519.56 62.75 3
5 1 -3 1526.25 118.66 10
-5 1 3 1522.37 68.46 4
-5 -1 3 1414.92 65.58 4
-5 -1 3 1587.91 67.35 5
5 -1 -3 1523.56 64.63 9
5 -1 -3 1501.76 62.4 3
5 -1 -3 1553.62 71.88 7
-5 -1 3 1480.38 60.75 1
-5 -1 3 1575.01 71.77 7
-5 -1 3 1350.53 120.28 10
5 -1 -3 1472.6 120.03 10
4 1 -2 121.76 39.95 10
-4 1 2 64.27 7.69 5
-4 1 2 69.5 7.21 4
4 1 -2 74.11 7.3 3
-4 1 2 61.33 6.08 1
-4 1 2 71.44 6.31 2
-4 1 2 45.01 34.04 10
-4 1 2 61 5.36 6
-4 -1 2 59.18 5.17 4
-4 -1 2 62.89 6.39 6
-4 -1 2 75.61 8.36 7
4 -1 -2 53.17 7.84 7
-4 -1 2 49.66 37.22 10
-4 -1 2 70.18 7.8 5
-4 -1 2 63.66 6.36 1
4 -1 -2 64.07 6.83 3
4 -1 -2 55.04 34.51 10
3 1 -1 1755.55 104.8 10
-3 1 1 1790.26 71.04 5
-3 1 1 1659.31 63.93 1
-3 1 1 1743.19 71.3 6
-3 1 1 1707.08 65.97 2
-3 1 1 1692.98 73.01 4
3 1 -1 1645.22 65.99 3
-3 1 1 1599.06 99.4 10
-3 -1 1 1674.62 104.38 10
-3 -1 1 1469.29 71.87 6
-3 -1 1 1709.73 64.23 1
3 -1 -1 1653.72 65.36 3
3 -1 -1 1733.07 101.6 10
-3 -1 1 1803.79 70.66 5
-3 -1 1 1677.1 74.73 7
3 -1 -1 1714.6 74.94 7
-2 1 0 1509.82 60.75 5
-2 1 0 1388.35 63.08 4
-2 1 0 1398.56 54.75 1
2 1 0 1427.57 56.86 3
-2 1 0 1578.33 82.36 10
-2 1 0 1478.31 62.29 6
-2 1 0 1462.37 57.14 2
2 1 0 1515.41 84.72 10
-2 -1 0 1506.2 55.3 1
2 -1 0 1508.81 64.3 7
-2 -1 0 1521.08 60.4 5
2 -1 0 1438.73 56.11 3
-2 -1 0 1530.56 85.43 10
2 -1 0 1583.03 81.95 10
-2 -1 0 1346.03 63.75 7
-2 -1 0 1428.02 63.25 6
2 1 -4 184.01 9.84 3
-2 1 4 177.55 12.19 4
-2 1 4 176.5 10.09 1
2 1 -4 168.27 11.88 8
2 1 -4 259.53 39.55 10
-2 1 4 191.15 35.68 10
2 -1 -4 191.71 10.95 9
-2 -1 4 200.3 10.28 1
-2 -1 4 206.37 33.3 10
2 -1 -4 160.72 32.91 10
2 -1 -4 166.4 9.03 6
-2 -1 4 165.5 10.67 4
-2 -1 4 162.07 10.72 7
2 -1 -4 188.01 10.63 7
2 -1 -4 181.98 10.36 3
3 1 -5 5562.47 210.24 3
3 1 -5 5795.62 280.51 10
-3 1 5 5442.39 207.63 1
-3 1 5 5764.76 281.12 10
-3 1 5 5850.64 237.32 4
-3 -1 5 5864.5 207.95 1
-3 -1 5 5467.4 234.48 4
-3 -1 5 5812.65 236.93 7
3 -1 -5 5722.44 236.25 7
3 -1 -5 5591.47 276.58 10
-3 -1 5 5707.97 280.98 10
3 -1 -5 5757.27 219.51 9
3 -1 -5 5257.11 210.48 3
-4 1 6 248.37 59.52 10
4 1 -6 294.11 17.44 9
-4 1 6 291.86 16.93 1
4 1 -6 285.48 16.77 3
4 1 -6 283.19 60.9 10
-4 1 6 333.52 21.69 4
4 -1 -6 282.75 18.39 7
4 -1 -6 307.35 17.5 3
-4 -1 6 283.04 18.72 7
-4 -1 6 286.15 18.64 4
-4 -1 6 305.43 16.84 1
4 -1 -6 265.73 59.72 10
4 -1 -6 311.34 17.9 9
-4 -1 6 313.61 64.63 10
-5 1 7 1816.17 73.31 1
5 1 -7 1760.67 76.73 9
5 1 -7 1794.14 73.79 3
-5 1 7 1837.94 85.09 4
-5 1 7 1476.53 142.65 10
5 -1 -7 1801.5 74.01 3
-5 -1 7 1927.74 84.18 7
5 -1 -7 1715.91 76.46 9
5 -1 -7 1856.76 83.27 7
-5 -1 7 1859.88 83.17 4
-5 -1 7 1742.31 145.8 10
-5 -1 7 1730.31 72.49 1
-6 1 8 -8.24 6.28 1
-6 1 8 18.77 9.6 4
6 1 -8 -7.68 6.43 9
6 1 -8 5.18 6.69 3
6 -1 -8 1.88 6.64 7
-6 -1 8 9.79 7.78 7
6 -1 -8 3.16 5 3
-6 -1 8 -4.58 4.91 1
-6 -1 8 -1.03 7.45 4
6 -1 -8 0.45 6.27 9
7 1 -9 71.53 10.42 9
7 1 -9 94.21 11.49 3
-7 1 9 108.12 13.64 1
-7 1 9 77.01 14.66 4
-7 -1 9 90.59 11.69 1
7 -1 -9 79.94 11.07 9
7 -1 -9 78.92 12.09 3
7 -1 -9 78.12 13.89 7
-7 -1 9 75.87 14.46 4
-8 1 10 5.73 10.75 1
8 1 -10 -19.32 9.9 9
-8 1 10 -11.61 12.5 4
8 1 -10 -6.72 7.48 3
8 -1 -10 -10.95 12.13 7
-8 -1 10 4.06 9.96 1
8 -1 -10 8.11 9.11 3
8 -1 -10 16.56 10.87 9
9 1 -11 148.51 18.53 3
9 1 -11 132.9 18.63 9
-9 1 11 126.28 18.94 1
-9 1 11 93.96 23.74 4
-9 1 11 141.22 23.46 5
-9 -1 11 120.97 17.87 1
9 -1 -11 150.3 19.61 3
9 -1 -11 129.55 18.61 9
-9 -1 11 114.58 19.76 5
10 1 -12 29.03 17.24 3
-10 1 12 29.13 21.4 5
-10 1 12 13.67 16.08 1
10 1 -12 12.73 11.25 9
-10 -1 12 10.3 18.48 5
10 -1 -12 25.47 15.76 9
-10 -1 12 3.47 10.73 1
10 -1 -12 6.59 16.39 3
10 -1 -12 8.51 13.93 7
-10 2 8 11.48 11.42 1
10 2 -8 -15.5 15.6 9
10 2 -8 19.35 15.92 3
-10 2 8 33.67 14.27 5
-10 -2 8 5.2 12.02 1
10 -2 -8 0.56 16.52 7
10 -2 -8 -0.72 13.54 9
-10 -2 8 -10.72 15.59 5
10 -2 -8 -3.46 11.77 3
-9 2 7 -16.66 11.24 5
9 2 -7 -11.39 12.71 3
-9 2 7 0.89 8 1
9 -2 -7 0.33 11.44 9
-9 -2 7 3.93 10.99 5
9 -2 -7 -26.7 14.78 7
9 -2 -7 -6.58 12.1 3
-9 -2 7 -18.79 8.48 1
-8 2 6 15.83 11.92 5
8 2 -6 48.82 12.21 3
-8 2 6 41.06 10.86 1
-8 2 6 36.66 11.66 4
-8 -2 6 31.3 9.77 1
8 -2 -6 37.06 9.85 3
-8 -2 6 31.22 9.59 5
8 -2 -6 34.8 10.95 9
8 -2 -6 39.01 11.08 7
-7 2 5 51.33 11.3 5
-7 2 5 51.75 8.4 1
7 2 -5 73.05 9.98 3
-7 2 5 61.96 11.11 4
7 -2 -5 53.05 12.24 7
7 -2 -5 55.86 10.76 3
-7 -2 5 69.25 11.87 5
7 -2 -5 68.49 10.82 9
-7 -2 5 50.88 8.19 1
-7 -2 5 54.05 11.79 7
-6 2 4 646.04 35.37 5
6 2 -4 653.73 33.04 3
-6 2 4 670.76 31.77 1
-6 2 4 647.59 35.8 4
6 -2 -4 599.34 31.66 3
-6 -2 4 644.89 34.77 5
-6 -2 4 627.19 31.19 1
6 -2 -4 635.12 32.87 9
-6 -2 4 683.09 38.34 7
6 -2 -4 659.38 38.14 7
-5 2 3 18.2 47.4 10
5 2 -3 14.58 5.86 3
-5 2 3 13.58 4.04 1
-5 2 3 12.09 6.42 5
5 2 -3 -24.8 55.25 10
-5 2 3 18.78 4.37 2
-5 2 3 25.79 5.85 4
-5 -2 3 15.4 6.64 7
-5 -2 3 19.53 51.4 10
-5 -2 3 21.28 6.61 5
5 -2 -3 5.43 6.47 7
-5 -2 3 8.6 3.56 4
5 -2 -3 16.79 5.76 3
-5 -2 3 10.82 4.16 6
5 -2 -3 28.4 51.43 10
-5 -2 3 17.94 5.26 1
5 -2 -3 17.18 5.29 9
4 2 -2 18.14 4.99 3
-4 2 2 15.2 5 5
-4 2 2 -8.08 34.91 10
-4 2 2 15.45 4.26 4
-4 2 2 12.54 3.96 1
-4 2 2 18.13 3.67 2
4 2 -2 11.54 37.33 10
4 -2 -2 10.68 4.58 7
-4 -2 2 18.59 4.96 6
-4 -2 2 19.08 4.44 1
4 -2 -2 6.48 3.19 3
-4 -2 2 17.93 5.08 5
-4 -2 2 11.53 1.96 4
4 -2 -2 12.68 4.16 9
-4 -2 2 4.39 25.14 10
4 -2 -2 46.06 36.21 10
-4 -2 2 19.59 5.73 7
-3 2 1 1703.06 75.61 4
-3 2 1 1736.13 67.17 2
-3 2 1 1630.08 106.68 10
3 2 -1 1948.33 117.05 10
-3 2 1 1771.48 72.21 5
-3 2 1 1739.46 66.15 1
3 2 -1 1670.82 67.43 3
-3 -2 1 1753.05 71.42 5
-3 -2 1 1487.96 75.02 6
-3 -2 1 1713.84 66.23 1
3 -2 -1 1732.89 68.88 9
3 -2 -1 1721.32 66.63 3
3 -2 -1 1751.98 76.93 7
3 -2 -1 1751.78 110.48 10
-3 -2 1 1706.7 112.64 10
-3 -2 1 1798.83 77.12 7
-2 2 0 667.17 34.28 4
2 2 0 760.45 62.69 10
-2 2 0 759.45 29.76 1
2 2 0 706.96 30.46 3
-2 2 0 753.03 32.25 5
-2 2 0 814.5 61.12 10
-2 2 0 712.56 30.41 2
2 -2 0 757.63 59.66 10
-2 -2 0 722.92 34.51 7
-2 -2 0 707.08 59.39 10
2 -2 0 728.29 29.12 3
-2 -2 0 749.21 31.59 5
-2 -2 0 778.17 30.19 1
2 -2 0 767.99 35.19 7
2 -2 0 721.3 29.98 9
-2 -2 0 682.61 35.04 6
-1 2 -1 118.24 7.41 2
1 2 1 109.16 6.8 3
-1 2 -1 112.43 21.59 10
-1 2 -1 110.5 6.6 5
-1 2 -1 108.73 8.06 4
-1 2 -1 109.04 6.19 1
1 2 1 106.14 6.18 4
-1 -2 -1 103.8 8.47 6
-1 -2 -1 108.51 7.65 7
1 -2 1 110.12 5.34 9
-1 -2 -1 103.21 6.24 5
-1 -2 -1 106.7 21.18 10
1 -2 1 110.83 5.09 3
-1 -2 -1 117.67 6.89 1
1 -2 1 107.39 7.85 7
1 -2 1 105.07 20.57 10
-1 -2 -1 145.95 26.54 10
-1 -2 -1 107.58 7.41 9
0 2 2 1851.83 85.32 4
0 2 2 1964.55 75.64 1
0 2 2 2122.75 114.53 10
0 2 -2 2096.82 108.17 10
0 -2 2 2033.76 86.6 7
0 -2 -2 2020.07 86.26 6
0 -2 -2 2003.96 76.81 3
0 -2 -2 2179.21 114.33 10
0 -2 -2 1754.87 99.79 8
0 -2 -2 2107.21 80.64 9
0 -2 -2 2163.57 85.86 7
0 -2 2 2050.69 75.18 1
0 -2 2 2098.99 107.19 10
-1 2 3 2240.1 86.89 1
1 2 -3 2393.19 127.76 10
-1 2 3 2276.35 99.09 4
-1 2 3 2518.74 134.49 10
1 2 -3 2180.42 85.92 3
1 -2 -3 2292.5 97.68 7
-1 -2 3 2355.26 86.45 1
-1 -2 3 2176.01 97.62 4
1 -2 -3 2274.41 91.88 9
1 -2 -3 2268.63 87.88 3
-1 -2 3 2385.46 99.05 7
-1 -2 3 2472.99 128.01 10
1 -2 -3 2396.84 97.58 6
1 -2 -3 2393.92 131.52 10
2 2 -4 7231.82 274.09 3
-2 2 4 7445.43 343.09 10
-2 2 4 7352.13 309.39 4
-2 2 4 7310.66 272.01 1
2 2 -4 7939.3 345.88 10
2 2 -4 6530.48 355.63 8
2 -2 -4 7591.96 308.91 7
2 -2 -4 7494.52 303.81 6
2 -2 -4 7408.01 275.7 3
2 -2 -4 7472.95 287.18 9
2 -2 -4 7780.69 348.33 10
-2 -2 4 7289.15 306.4 4
-2 -2 4 8139.11 346.61 10
-2 -2 4 7547.95 271.55 1
-2 -2 4 7745.01 310.08 7
3 2 -5 2502.26 154.83 10
3 2 -5 2442.03 94.69 3
-3 2 5 2433.52 157.35 10
-3 2 5 2491.59 94.84 1
-3 2 5 2537.74 109.63 4
3 -2 -5 2556.22 107.08 7
-3 -2 5 2525.97 107.85 7
3 -2 -5 2526.53 96.15 3
3 -2 -5 2191.85 102.22 6
-3 -2 5 2479.2 94.45 1
-3 -2 5 2474.18 105.6 4
3 -2 -5 2471.38 100.08 9
3 -2 -5 2515.25 158.78 10
-3 -2 5 2586.41 155.6 10
-4 2 6 129.86 11.1 1
4 2 -6 154.25 10.95 3
4 2 -6 121.03 56.19 10
-4 2 6 169.95 15.23 4
-4 2 6 143.48 58.49 10
4 -2 -6 132.96 11.11 3
4 -2 -6 137.8 57 10
-4 -2 6 136.71 11.43 4
4 -2 -6 136.86 11.72 9
4 -2 -6 151.22 12.29 7
-4 -2 6 139.79 12.76 7
-4 -2 6 156.84 11.48 1
-4 -2 6 63.98 55.56 10
5 2 -7 6.74 5.36 3
-5 2 7 -5.36 7.67 4
-5 2 7 -1.79 5.75 1
5 2 -7 -2.34 5.61 8
-5 -2 7 -8.46 5.28 4
-5 -2 7 -9.53 6.04 1
5 -2 -7 -12.31 6.09 3
5 -2 -7 -0.83 3.94 9
-5 -2 7 -0.05 4.43 7
5 -2 -7 3.59 4.96 7
-6 2 8 583.09 31.59 1
6 2 -8 576.77 30.8 3
-6 2 8 626.3 38.17 4
-6 -2 8 630.29 31.6 1
6 -2 -8 594.2 31.72 3
6 -2 -8 564.25 32.86 9
-6 -2 8 522.86 33.78 4
6 -2 -8 648.34 36.3 7
-6 -2 8 593.77 35.8 7
7 2 -9 -2.74 7.83 9
7 2 -9 -2.73 6.03 3
-7 2 9 15.56 11.01 4
-7 2 9 5.72 8.87 1
-7 -2 9 8.78 8.38 1
7 -2 -9 5.22 7.17 7
7 -2 -9 14.46 9.34 9
-7 -2 9 6.55 7.86 7
7 -2 -9 -0.74 8.97 3
8 2 -10 19.94 8.92 9
8 2 -10 16.73 9.78 3
-8 2 10 6.39 8.22 1
-8 2 10 20.6 14.52 4
8 -2 -10 11.24 11.05 9
8 -2 -10 11.18 12.86 7
-8 -2 10 17.63 11.27 1
8 -2 -10 -1.96 10.42 3
9 2 -11 10.38 12.79 9
-9 2 11 45.19 15.97 1
9 2 -11 48.78 15.29 3
-9 2 11 11.02 11.72 4
-9 2 11 45.75 15.94 5
-9 -2 11 32.43 13.56 1
-9 -2 11 27.23 15.99 5
9 -2 -11 20.45 13.84 3
9 -2 -11 53.06 17.26 7
9 -2 -11 33.06 13.7 9
-10 3 8 18.15 17.26 1
10 3 -8 -6.4 12.03 3
-10 3 8 -6.79 18.91 5
10 -3 -8 17.56 11.69 9
10 -3 -8 2.49 10.89 3
-10 -3 8 26.96 15.03 1
10 -3 -8 29.7 19.15 7
-10 -3 8 3.81 15.72 5
-9 3 7 84.72 14.52 1
-9 3 7 76.21 18.41 5
-9 3 7 53.46 16.26 4
9 3 -7 68.7 13.31 3
-9 -3 7 83.45 13.48 1
9 -3 -7 37.46 14.39 3
9 -3 -7 85.86 17.67 7
-9 -3 7 53.43 13.4 5
9 -3 -7 112.97 16.56 9
8 3 -6 6.32 10.61 3
-8 3 6 17.66 9.49 5
-8 3 6 8.31 10.78 4
-8 3 6 19.33 10.15 1
-8 -3 6 15.49 10.37 1
8 -3 -6 26.78 13.67 7
-8 -3 6 10.33 10.51 5
8 -3 -6 33.07 11.81 3
8 -3 -6 26.23 11.06 9
-8 -3 6 38.25 14.28 7
-7 3 5 105.83 13.32 4
7 3 -5 118.51 13.34 3
-7 3 5 100.08 14.91 5
-7 3 5 110.33 12.64 1
7 -3 -5 120.14 13.92 3
7 -3 -5 101.64 15.45 7
-7 -3 5 121.54 13.18 1
7 -3 -5 116.91 13.62 9
-7 -3 5 114.29 13.47 5
-7 -3 5 128.27 15.94 7
-6 3 4 334.17 22.9 4
-6 3 4 294.89 19.4 1
6 3 -4 319.67 20.88 3
-6 3 4 313.31 22.24 5
-6 -3 4 361.18 25.04 7
6 -3 -4 335.67 20.5 3
6 -3 -4 311.59 24.02 7
-6 -3 4 347.33 21.77 5
6 -3 -4 303.13 20.31 9
-6 -3 4 305.27 19.55 1
-5 3 3 309.48 17.05 2
-5 3 3 336.95 21.45 5
-5 3 3 367.65 19.47 1
-5 3 3 341.14 22.49 4
5 3 -3 345.44 19.88 3
-5 3 3 315.97 69.13 10
5 -3 -3 349.2 80.32 10
-5 -3 3 358.24 23.86 7
5 -3 -3 318.08 22.84 7
-5 -3 3 278.29 21.54 6
-5 -3 3 221.76 62.39 10
-5 -3 3 363.68 19.74 1
5 -3 -3 343.98 19.62 9
5 -3 -3 328.36 18.93 3
-5 -3 3 325.94 20.06 5
4 3 -2 892.34 39.18 3
-4 3 2 933.69 91.76 10
-4 3 2 948.11 42.2 5
-4 3 2 879.29 38.36 1
4 3 -2 845.41 89.09 10
-4 3 2 863.84 44.28 4
-4 3 2 918.8 37.57 2
4 -3 -2 677.54 81.63 10
-4 -3 2 807.4 92.12 10
4 -3 -2 916.55 45.46 7
4 -3 -2 863.64 39.11 9
4 -3 -2 880.46 38.04 3
-4 -3 2 973.7 39.22 1
-4 -3 2 918.17 40.77 5
-4 -3 2 802.26 44.43 6
-4 -3 2 967.2 46.27 7
-3 3 1 4.59 3.61 1
3 3 -1 25.54 36.98 10
-3 3 1 15.68 4.74 5
-3 3 1 11.29 3.32 2
-3 3 1 7.15 4.86 4
-3 3 1 61.21 37.07 10
3 3 -1 9.13 3.8 3
3 -3 -1 28.3 35.38 10
3 -3 -1 11.51 2.95 3
-3 -3 1 10.19 3.22 1
3 -3 -1 9.14 2.78 9
-3 -3 1 -11.24 36.71 10
-3 -3 1 10.98 4.65 7
3 -3 -1 15.24 5.39 7
-3 -3 1 14.49 3.61 5
-3 -3 1 1.67 4.62 6
-2 3 0 373.71 17.45 1
2 3 0 323.7 52.24 10
-2 3 0 349.59 20.67 4
2 3 0 325.83 17.15 3
-2 3 0 355.35 17.59 2
-2 3 0 383.68 18.15 5
-2 3 0 331.67 44.07 10
2 -3 0 396.14 17.04 9
2 -3 0 388.15 21.43 7
-2 -3 0 358.28 17.83 1
2 -3 0 367.29 15.81 3
2 -3 0 366.13 48.04 10
-2 -3 0 365.18 20.53 7
-2 -3 0 338.07 51.11 10
-2 -3 0 372.43 17.02 5
-1 3 -1 2653.03 141.35 10
-1 3 -1 2627.83 101.99 5
-1 3 -1 2585.26 95.98 1
-1 3 -1 2434.61 109.63 4
-1 3 -1 2609.53 99.28 2
1 3 1 2597.67 107.05 4
1 3 1 2553.16 97.17 3
-1 -3 -1 2552.67 102.21 9
1 -3 1 2423.59 99.15 9
-1 -3 -1 2662.07 96.81 1
1 -3 1 2431.82 138.27 10
1 -3 1 2667.77 96.24 1
1 -3 1 2704.37 144.03 10
-1 -3 -1 2628.38 148.31 10
-1 -3 -1 2573.42 145.33 10
-1 -3 -1 2403.69 109.94 7
1 -3 1 2658.79 111.03 7
0 3 2 3477.8 148.28 4
0 3 2 3398.46 186.69 10
0 3 2 3526.98 131.77 1
0 -3 2 3655.08 150.94 7
0 -3 -2 3788.43 150.09 7
0 -3 2 3762.28 183.32 10
0 -3 2 3625.61 180.25 10
0 -3 -2 3420.17 184.67 10
0 -3 -2 3294.92 138.96 9
0 -3 2 3583.02 131.2 1
-1 3 3 1821.45 125.48 10
1 3 -3 2036.3 123.14 10
1 3 -3 1847.92 71.1 3
-1 3 3 1916.71 74.01 1
-1 3 3 1945.62 83.83 4
-1 -3 3 1908.55 82.65 4
1 -3 -3 2053.64 126.86 10
-1 -3 3 1848.57 119.79 10
1 -3 -3 1835.19 82.63 7
1 -3 -3 1987.8 78.2 9
-1 -3 3 1916.11 73.1 1
-1 -3 3 1951.87 84.2 7
1 -3 -3 1854.84 73.79 3
2 3 -4 144.45 8.57 3
-2 3 4 157.55 10.92 1
-2 3 4 164.78 48.9 10
-2 -3 4 154.23 10.56 4
-2 -3 4 153.16 10.37 1
2 -3 -4 152.67 39.81 10
2 -3 -4 164.66 10.48 3
-2 -3 4 188.63 40.05 10
-2 -3 4 167.93 12.44 7
2 -3 -4 163.81 11.46 9
2 -3 -4 157.81 11.11 7
3 3 -5 1096.53 45.85 3
-3 3 5 1193.78 55.79 4
3 3 -5 1160.7 106.9 10
-3 3 5 1070.63 102.86 10
-3 3 5 1145.85 47.71 1
-3 -3 5 1177.18 54.22 7
-3 -3 5 1142.44 102.89 10
-3 -3 5 1117.31 47.05 1
3 -3 -5 1160.86 52.99 7
3 -3 -5 1124.22 50.44 6
3 -3 -5 1159.08 107.68 10
3 -3 -5 1117.97 50.21 9
3 -3 -5 1140.83 47.64 3
-3 -3 5 1065.4 50.96 4
-4 3 6 221.94 18.03 4
4 3 -6 168.19 12.23 3
-4 3 6 188.11 13.56 1
4 3 -6 152.72 57.68 10
-4 3 6 140.48 50.15 10
4 -3 -6 179.54 14.65 7
-4 -3 6 149.42 62.31 10
4 -3 -6 191.49 14.17 9
-4 -3 6 191.17 13.58 4
-4 -3 6 205.42 16.04 7
-4 -3 6 185.8 13.48 1
4 -3 -6 214.33 13.9 3
-5 3 7 1147.53 57.9 4
5 3 -7 1071.61 47.78 3
-5 3 7 1100.65 49.02 1
5 -3 -7 1134.81 54.9 7
5 -3 -7 1101.02 51.51 9
-5 -3 7 943.86 51.5 4
-5 -3 7 1159.42 48.82 1
5 -3 -7 1095.18 49.19 3
-5 -3 7 1093.66 56.03 7
-6 3 8 52.14 10.19 1
-6 3 8 60.86 11.7 4
6 3 -8 58.5 9.52 3
6 -3 -8 57.41 10.34 9
-6 -3 8 65.42 12.04 7
6 -3 -8 70.91 10.95 3
6 -3 -8 69.87 11.85 7
-6 -3 8 63.03 12.6 4
-7 3 9 6.42 9.41 1
7 3 -9 -5.97 9.01 3
-7 3 9 4.23 8.52 4
7 -3 -9 -0.48 7.75 9
7 -3 -9 2.7 9.03 3
7 -3 -9 10.13 10.46 7
-7 -3 9 9.07 9.68 7
-7 -3 9 10.92 9.56 1
8 3 -10 66.38 14.31 3
-8 3 10 86.99 15.82 1
-8 3 10 68.2 15.36 5
-8 3 10 73.49 18.04 4
8 3 -10 90.8 13.47 9
8 -3 -10 78.23 14.45 9
8 -3 -10 87.44 15.18 3
-8 -3 10 66.72 12.69 1
8 -3 -10 52.67 15.71 7
-8 -3 10 87.47 18.62 7
-8 -3 10 79.96 16.48 5
-9 3 11 -7.76 10.62 1
9 3 -11 13.28 13.7 3
-9 3 11 1.24 14.57 4
9 3 -11 0.96 13.26 9
-9 3 11 -8.41 18.76 5
9 -3 -11 3.15 10.14 9
-9 -3 11 17.75 15.82 5
9 -3 -11 5.35 11.81 3
9 -3 -11 5.61 14.31 7
-9 -3 11 2.17 10.03 1
-9 -3 11 4.14 10.81 7
-9 4 7 7.92 15.74 5
-9 4 7 11.32 13.09 1
-9 4 7 1.56 13.87 4
9 4 -7 -14.16 13.37 3
-9 -4 7 -7.8 12.45 1
-9 -4 7 -4.84 16.27 7
9 -4 -7 0.54 12.55 3
9 -4 -7 -21.01 14.3 7
-9 -4 7 13.55 18.59 5
8 4 -6 2.61 10.85 3
-8 4 6 7.56 10.34 4
-8 4 6 30.01 11.41 1
-8 4 6 13.06 9.66 5
8 -4 -6 25.34 11.43 3
-8 -4 6 18.68 13.5 7
8 -4 -6 9.88 12.1 7
8 -4 -6 12.96 10.66 9
-8 -4 6 15.19 12.18 5
-7 4 5 36.93 11.62 5
-7 4 5 45.53 12.37 4
7 4 -5 30.7 10.34 3
-7 4 5 38.05 8.94 1
7 -4 -5 36.08 10.02 3
7 -4 -5 50.52 8.83 9
-7 -4 5 30.4 9.28 1
-7 -4 5 18.07 9.87 5
-7 -4 5 53.23 13.71 7
-6 4 4 162.75 16.98 4
-6 4 4 169.68 14.47 1
6 4 -4 163.04 13.93 3
-6 4 4 152.73 15.77 5
-6 -4 4 192.99 19.05 7
-6 -4 4 164.81 14.22 5
-6 -4 4 171.9 14.67 1
-6 -4 4 132.32 16.66 6
6 -4 -4 169.98 14.56 9
6 -4 -4 169.95 13.52 3
6 -4 -4 180.43 18.28 7
-5 4 3 75.93 9.32 5
-5 4 3 97.88 11.67 4
5 4 -3 98.33 10.16 3
-5 4 3 77.76 8.81 1
5 -4 -3 89.52 11.12 7
5 -4 -3 80.87 8.42 3
-5 -4 3 61.39 8.95 1
-5 -4 3 92.94 12.92 7
-5 -4 3 89.54 9.3 5
-5 -4 3 81.1 12.89 6
5 -4 -3 84.52 9.54 9
4 4 -2 146.34 11.33 3
-4 4 2 183.23 15.18 4
-4 4 2 154.54 12.01 1
-4 4 2 147.3 12.1 5
-4 4 2 144.34 10.19 2
-4 4 2 145.63 60.6 10
-4 -4 2 166.99 15 7
4 -4 -2 105.92 51.49 10
4 -4 -2 143.49 11.12 9
4 -4 -2 163.4 14.6 7
4 -4 -2 134.13 10.36 3
-4 -4 2 153.95 12.26 1
-4 -4 2 204.43 67.4 10
-4 -4 2 153.26 14.76 6
-4 -4 2 144.83 10.6 5
-3 4 1 4284.66 163.24 2
-3 4 1 4217.88 171.5 5
-3 4 1 4329.52 239.75 10
3 4 -1 4130.32 161.81 3
3 4 -1 4229.43 241.99 10
-3 4 1 4329.98 160.81 1
-3 -4 1 4224.51 169.8 5
3 -4 -1 4309.2 184.63 7
3 -4 -1 4519.28 242.01 10
3 -4 -1 4103.33 166.86 9
-3 -4 1 4286.39 160.95 1
3 -4 -1 4361.79 160.14 3
-3 -4 1 4359.42 240.9 10
-3 -4 1 4544.51 184.85 7
-2 4 0 1153.96 48.68 5
-2 4 0 1198.83 48.48 2
-2 4 0 1323.27 101.65 10
-2 4 0 1134.79 47.12 1
2 4 0 1126.66 46.85 3
2 4 0 1162.51 101.77 10
-2 4 0 1157.69 54.74 4
2 -4 0 1104.58 54.84 7
2 -4 0 1190.84 47.86 9
-2 -4 0 1121.93 97.06 10
2 -4 0 1103.61 44.23 3
2 -4 0 1183 99.65 10
-2 -4 0 1133.09 55.08 7
-2 -4 0 1143.78 47.23 5
-2 -4 0 1250.47 103.06 10
-2 -4 0 1131.9 47.59 1
-1 4 -1 3637.74 163.08 4
1 4 1 3860.52 160.29 4
1 4 1 3938.2 144.5 3
-1 4 -1 3974.4 151.55 5
1 -4 1 3873.62 207.02 10
1 -4 1 3836.49 148.93 9
-1 -4 -1 3786.24 212.22 10
1 -4 1 3965.94 143.78 1
-1 -4 -1 3959.66 164.58 7
1 -4 1 3725.42 206.77 10
-1 -4 -1 3639 143.78 1
-1 -4 -1 3878.38 212.23 10
-1 -4 -1 3915.68 152.21 9
1 -4 1 3940.98 165.24 7
0 4 2 50.38 38.6 10
0 4 2 33.07 5.3 1
0 4 2 36.66 5.66 4
0 -4 2 48.29 37.19 10
0 -4 -2 42.15 6 9
0 -4 -2 54.16 38.17 10
0 -4 2 43.34 33.4 10
0 -4 -2 34.04 5.43 1
0 -4 2 35.54 6.5 7
0 -4 2 40.65 5.45 1
0 -4 -2 -0.73 34.71 10
0 -4 -2 36.16 6.01 7
1 4 -3 480.66 20.04 3
-1 4 3 507.46 24.68 1
-1 4 3 438.08 70.14 10
-1 4 3 484.58 27.32 4
1 4 -3 577.89 71.31 10
-1 -4 3 532.7 28.45 7
1 -4 -3 530.95 27.27 7
1 -4 -3 506.7 69.79 10
1 -4 -3 493.55 23.18 3
1 -4 -3 513.09 25.71 9
-1 -4 3 555.12 24.59 1
-1 -4 3 499.56 65.88 10
-2 4 4 1110.16 107.16 10
2 4 -4 1034.56 41.64 3
-2 4 4 1102.37 52.09 4
2 4 -4 1182.77 100.58 10
-2 4 4 1060.47 45.57 1
-2 -4 4 1070.39 51.58 7
2 -4 -4 1074.12 50.36 7
2 -4 -4 1011.31 44.11 3
-2 -4 4 1055.51 44.65 1
-2 -4 4 1067.95 48.96 4
2 -4 -4 1024.95 47.25 9
-2 -4 4 1004.37 94.87 10
2 -4 -4 1065.42 104.4 10
-3 4 5 304.73 18.68 1
-3 4 5 276.05 71.12 10
-3 4 5 314.5 21.82 4
3 4 -5 300.13 15.88 3
3 4 -5 266.79 75.12 10
3 -4 -5 304.14 17.53 3
3 -4 -5 314.62 19.3 9
-3 -4 5 235.34 55.92 10
-3 -4 5 340.83 18.54 4
3 -4 -5 311.1 20.05 7
3 -4 -5 312.18 82.25 10
-3 -4 5 357.77 22.2 7
-3 -4 5 308.3 18.16 1
4 4 -6 96.82 8.77 3
-4 4 6 96.53 12.9 4
-4 4 6 88.73 9.68 1
4 -4 -6 87.19 10.56 9
-4 -4 6 85.65 8.86 4
-4 -4 6 78.36 9.68 1
-4 -4 6 81.64 11.5 7
4 -4 -6 87.04 9.86 7
4 -4 -6 87.75 10.13 3
-5 4 7 211.9 15.73 1
5 4 -7 208.8 14.63 3
-5 4 7 217.66 19.45 4
-5 -4 7 157.74 17.36 7
5 -4 -7 220.74 16.07 3
-5 -4 7 175.34 15.54 4
5 -4 -7 194.7 16.78 9
5 -4 -7 183.54 16.6 7
-5 -4 7 180.63 14.55 1
-6 4 8 169.16 19.54 4
6 4 -8 137.1 13.36 3
-6 4 8 115.22 12.85 1
-6 -4 8 148.67 16.32 7
6 -4 -8 127.14 14.51 3
6 -4 -8 127.48 14.55 9
6 -4 -8 124.5 15.37 7
-6 -4 8 111.16 12.87 1
7 4 -9 108.82 12.62 3
-7 4 9 105.01 15.29 1
-7 4 9 133.43 19.5 4
7 -4 -9 86.43 15.32 7
-7 -4 9 103.51 17.44 7
-7 -4 9 73.3 11.81 1
7 -4 -9 96.35 13.17 3
7 -4 -9 123.49 15.88 9
-7 -4 9 122.37 14.98 5
8 4 -10 7.46 11.18 3
-8 4 10 0.85 14.88 4
-8 4 10 -9.68 11.63 5
-8 4 10 8.12 9.5 1
8 -4 -10 14.22 9.44 3
-8 -4 10 22.56 14.5 7
8 -4 -10 19.63 9.94 9
8 -4 -10 9.58 12.8 7
-8 -4 10 10.74 12.93 1
-9 4 11 83.47 22.96 4
-9 4 11 3.08 14.6 1
-9 4 11 9.56 19.96 5
9 4 -11 25.24 15.25 3
9 4 -11 13.2 14.26 9
-9 -4 11 35.82 12.07 1
9 -4 -11 24.18 13.44 9
9 -4 -11 49.88 16.75 3
-9 -4 11 21.72 14.45 7
9 -4 -11 -1.12 15.53 7
-9 5 7 2.37 15.54 5
-9 5 7 14.83 11.72 1
9 5 -7 -5.39 14.4 3
-9 5 7 2.7 15.81 4
-9 -5 7 8.51 15.32 7
9 -5 -7 13.12 17.56 7
-9 -5 7 17.2 13.98 1
8 5 -6 -7.39 10.81 3
-8 5 6 23.26 14.53 5
-8 5 6 21.24 14.22 4
-8 5 6 4.79 11.4 1
8 -5 -6 6.14 14.15 7
-8 -5 6 8.25 10.16 1
-7 5 5 47.72 10.38 1
-7 5 5 44.7 10.41 5
-7 5 5 61.38 12.53 4
7 -5 -5 58.31 14.95 7
-7 -5 5 49.61 12.11 1
-7 -5 5 66.27 15.97 7
6 5 -4 107.86 12.23 3
-6 5 4 90.51 12.35 1
-6 5 4 78.68 13.72 4
-6 5 4 91.27 12.72 5
-6 -5 4 99.68 16.03 7
6 -5 -4 102.37 15.36 7
-6 -5 4 109.48 12.54 1
-6 -5 4 86.48 15.74 6
-5 5 3 328.39 24.74 4
-5 5 3 357.04 21.62 1
5 5 -3 355.03 20.75 3
-5 5 3 293.88 20.48 5
5 -5 -3 296.52 19.64 9
5 -5 -3 340.61 24.49 7
-5 -5 3 366.38 25.83 7
-5 -5 3 318.52 25.42 6
-5 -5 3 336.97 21.22 1
-4 5 2 608.16 29.55 2
-4 5 2 631.57 36.55 4
-4 5 2 645.53 31.51 1
4 5 -2 648.53 30.53 3
-4 5 2 616.08 31.62 5
4 -5 -2 596.49 30.43 9
4 -5 -2 606.29 36.67 7
-4 -5 2 689.63 38.17 7
-4 -5 2 658.32 31.7 1
-3 5 1 346.41 23.52 4
-3 5 1 238.49 73.14 10
3 5 -1 330.69 18.45 3
-3 5 1 324.32 19.36 1
-3 5 1 347.03 18.7 5
-3 5 1 342.94 18.72 2
-3 -5 1 353.11 23.52 7
3 -5 -1 143.71 73.67 10
3 -5 -1 351 18.56 9
3 -5 -1 336.94 23.48 7
-3 -5 1 355.76 19.84 1
2 5 0 194.27 12.02 3
-2 5 0 189.35 10.99 5
-2 5 0 183.18 13.21 2
-2 5 0 176.63 12.9 1
-2 5 0 197.73 59.46 10
-2 5 0 188.09 15.69 4
2 -5 0 170.66 63.84 10
-2 -5 0 196.84 15.78 7
2 -5 0 171.28 11.44 9
2 -5 0 225.91 17.06 7
-2 -5 0 101.86 56 10
-2 -5 0 173.36 13.15 1
1 5 1 76.57 6.82 3
-1 5 -1 61.29 9.08 4
1 5 1 82.43 7.8 4
1 -5 1 80.47 8.51 1
-1 -5 -1 95.57 10.45 7
1 -5 1 104.44 42.82 10
-1 -5 -1 139.98 50.87 10
1 -5 1 70.49 6.54 9
1 -5 1 51.62 48.9 10
-1 -5 -1 35.87 35.16 10
-1 -5 -1 69.45 8.41 1
1 -5 1 74.18 10.05 7
-1 -5 -1 71.41 8.66 9
0 5 2 3647.44 151.51 4
0 -5 -2 3531.27 216.88 10
0 -5 -2 3276.41 210.43 10
0 -5 2 3463.36 134.41 1
0 -5 -2 3824.24 154.81 7
0 -5 2 3602.34 211.34 10
0 -5 -2 3511.37 135.51 1
0 -5 2 3627.57 155.25 7
0 -5 2 3512.6 206.52 10
0 -5 -2 3499.64 142.49 9
1 5 -3 400.32 74.94 10
-1 5 3 330.76 76.05 10
-1 5 3 388.4 20.84 1
-1 5 3 360.29 22.59 4
-1 -5 3 369.64 19.92 1
-1 -5 3 383.75 72.1 10
1 -5 -3 388.35 81.03 10
1 -5 -3 361.13 22.51 7
-1 -5 3 285.01 68.36 10
1 -5 -3 341.73 18.15 3
-1 -5 3 361.95 23.54 7
1 -5 -3 352.78 20.82 9
-2 5 4 76.18 8.78 1
2 5 -4 65.27 5.41 3
-2 5 4 56.49 9.86 4
-2 -5 4 72.75 8.13 4
2 -5 -4 56.93 6.55 3
-2 -5 4 75.23 10.08 7
2 -5 -4 70.92 8.42 9
2 -5 -4 80.88 9.49 7
-2 -5 4 62.07 8.14 1
-2 -5 4 40.25 56.35 10
-3 5 5 7.88 7.94 4
-3 5 5 -5.89 6.24 1
3 5 -5 4.85 3.98 3
3 -5 -5 4.91 5.49 7
3 -5 -5 15.22 4.63 3
-3 -5 5 1.78 4.78 1
3 -5 -5 -5.3 4.51 9
-3 -5 5 15.16 5.44 4
-3 -5 5 6.64 5.39 7
-4 5 6 283.72 22.53 4
4 5 -6 288.91 16.71 3
-4 5 6 276.88 18.9 1
4 -5 -6 280.63 20.82 7
-4 -5 6 258.53 18.16 4
-4 -5 6 269.55 21.86 7
-4 -5 6 293.13 19.03 1
4 -5 -6 254.78 19.02 9
4 -5 -6 260.37 17.59 3
-5 5 7 7.82 6.02 1
-5 5 7 12.48 9.02 4
5 5 -7 -0.6 7.67 3
5 -5 -7 1.02 8.05 9
5 -5 -7 10.17 7.29 7
5 -5 -7 6.08 6.69 3
-5 -5 7 1.68 9.03 7
-5 -5 7 0.65 7.08 1
-6 5 8 -2.18 8.58 4
6 5 -8 -9.36 9.7 3
-6 5 8 4.63 9.69 1
6 -5 -8 -0.68 9.52 7
-6 -5 8 0.89 8.08 7
6 -5 -8 7.55 9.11 3
-6 -5 8 2.76 6.32 1
6 -5 -8 3.37 6.88 9
7 5 -9 -8.3 9.58 3
-7 5 9 10 10.03 5
-7 5 9 -5.12 14.33 4
-7 5 9 9.13 8.65 1
-7 -5 9 5.22 12.96 7
7 -5 -9 4.54 7.9 3
7 -5 -9 -11.82 12.58 7
-7 -5 9 14.82 9.04 1
7 -5 -9 9.52 8.57 9
-8 5 10 44.85 15.97 1
-8 5 10 45.2 18.88 5
8 -5 -10 41.34 14.9 3
-8 -5 10 40.97 18.03 7
8 -5 -10 82.44 17.65 9
-8 -5 10 38.58 14.59 1
8 -5 -10 64.96 14.63 7
-8 6 6 20.56 16.29 4
8 6 -6 33.44 17.28 3
-8 6 6 12.43 11.14 1
8 -6 -6 -1.55 10.32 7
-8 -6 6 -14.34 12.85 1
-8 -6 6 1.97 16.94 7
7 6 -5 57.71 11.3 3
-7 6 5 55.21 15.74 4
-7 6 5 46.53 12.86 1
-7 -6 5 49.82 13.76 7
-7 -6 5 43.62 10.38 1
7 -6 -5 20.35 13.91 7
6 6 -4 39.95 10.52 3
-6 6 4 18.34 9.54 1
-6 6 4 -0.39 7.91 4
6 -6 -4 21.56 9.39 7
-6 -6 4 8.45 14.44 6
-6 -6 4 25.8 13.49 7
-6 -6 4 19.93 10 1
-5 6 3 20.61 7.14 1
5 6 -3 25.56 7.35 3
-5 6 3 -2.78 9.76 4
-5 -6 3 35.55 12.42 7
-5 -6 3 16.9 12.12 6
-5 -6 3 26.67 8.06 1
4 6 -2 90.84 10.33 3
-4 6 2 91.67 13.88 4
-4 6 2 84.21 11.38 1
-4 -6 2 99.83 11.57 1
-4 -6 2 106.58 14.41 7
4 -6 -2 105.07 13.18 7
3 6 -1 744.52 34.64 3
-3 6 1 778.96 43.18 4
-3 6 1 782.62 36.78 1
-3 6 1 739.11 36.3 2
-3 -6 1 789.16 43.39 7
-3 -6 1 763.65 36.95 1
3 -6 -1 737.05 42.77 7
-2 6 0 486.13 26.14 1
-2 6 0 497.09 30.5 4
2 6 0 520.08 24.04 3
-2 6 0 514.47 26.88 2
2 -6 0 482.92 26.12 1
-2 -6 0 491.6 30.69 7
-2 -6 0 447.61 25.73 1
2 -6 0 463.79 30.6 7
1 6 1 388.79 22.05 4
1 6 1 368.61 19.22 3
-1 6 -1 416.71 25.84 4
-1 -6 -1 369.8 22.73 9
-1 -6 -1 364.68 21.9 1
1 -6 1 362.89 19.94 9
1 -6 1 398.55 26.43 7
-1 -6 -1 400.96 25.66 7
1 -6 1 383.25 21.76 1
0 6 2 149.55 10.51 3
0 6 2 161.82 13.81 4
0 -6 -2 167.96 15.02 7
0 -6 2 144.54 12.29 1
0 -6 -2 141.67 13.03 1
0 -6 2 136.79 14.45 7
0 -6 -2 147.05 13.23 9
-1 6 3 1440.09 62.17 1
-1 6 3 1477.44 69.3 4
1 -6 -3 1427.18 62.3 1
1 -6 -3 1469.04 70.32 7
-1 -6 3 1521.79 71.55 7
-1 -6 3 1452.88 61.23 1
1 -6 -3 1429.27 64.56 9
-2 6 4 -0.73 5.54 4
-2 6 4 -13.11 6.76 1
2 -6 -4 -8.81 6.99 9
2 -6 -4 -0.89 4.92 3
-2 -6 4 4.47 7.63 7
2 -6 -4 9.85 7.31 7
-2 -6 4 8.52 5.87 4
-2 -6 4 -14.92 6.68 1
-3 6 5 1287.32 64.22 4
-3 6 5 1279.98 56.17 1
3 -6 -5 1245.97 53.48 3
-3 -6 5 1211.9 54.71 1
-3 -6 5 1260.81 58.94 4
3 -6 -5 1177.06 57.63 9
-3 -6 5 1290.7 64.55 7
3 -6 -5 1262.94 62.45 7
-4 6 6 14 8.39 1
-4 6 6 20.87 10.35 4
-4 -6 6 30.07 10.76 7
-4 -6 6 8.24 7.79 1
4 -6 -6 45.75 8.97 3
4 -6 -6 25.99 9.64 7
4 -6 -6 16.12 8.92 9
-5 6 7 -2.88 9.29 1
-5 6 7 14.36 11.98 4
5 -6 -7 12.9 7.8 7
-5 -6 7 7.52 8.2 1
5 -6 -7 19.88 8.67 3
-5 -6 7 -8.07 8.29 7
5 -6 -7 17.34 9.72 9
-6 6 8 -0.61 12.59 4
-6 6 8 -1.03 10.86 1
6 -6 -8 -2.93 11.64 7
-6 -6 8 7.46 10.47 1
6 -6 -8 -6.18 11.19 9
-6 -6 8 29.79 14.96 7
-7 6 9 44 15.26 1
-7 6 9 30.91 13.24 4
-7 -6 9 6.54 15.13 7
7 -6 -9 54.46 14.51 9
-7 -6 9 44.54 13.15 1
-8 6 10 36.28 20.9 4
-8 6 10 -2.21 14.57 1
8 -6 -10 -6.36 15.92 7
-8 -6 10 13.16 18.86 7
-8 -6 10 9.51 11.96 1
8 -6 -10 -11.73 16.39 9
-7 7 5 0.03 10.42 1
-7 7 5 7.84 15.29 4
-7 -7 5 -4.02 16.52 7
-7 -7 5 16.6 9.88 1
7 -7 -5 7.76 10.91 7
-6 7 4 -5.18 13.47 4
-6 7 4 1.45 10.46 1
-6 -7 4 8.47 14.84 7
-6 -7 4 0.25 11.43 6
-6 -7 4 -14.25 11.57 1
6 -7 -4 3.79 11.31 7
-5 7 3 46.94 13.86 4
-5 7 3 62.41 12.21 1
5 -7 -3 39.97 12.48 7
-5 -7 3 51.32 10.01 1
-5 -7 3 57.05 14 6
-5 -7 3 60.83 15.96 7
-4 7 2 153.91 18.53 4
-4 7 2 95.92 13.35 1
-4 -7 2 120.21 14.39 1
-4 -7 2 138.58 16.68 7
4 -7 -2 112.01 15.21 7
-3 7 1 42.83 10.1 4
-3 7 1 23.4 9.89 2
-3 7 1 52.97 10.43 1
-3 -7 1 68.23 12.97 7
3 -7 -1 59.66 10.95 1
-3 -7 1 46.79 9.63 1
3 -7 -1 55.95 13.03 7
-2 7 0 140.89 15.11 4
-2 7 0 129.2 13.85 2
-2 -7 0 128.88 15.76 7
2 -7 0 126.93 14.94 7
2 -7 0 111.84 12.18 1
-2 -7 0 119.56 13.12 1
-1 7 -1 71.2 11.03 4
-1 -7 -1 55.75 10.12 7
1 -7 1 70.07 10.75 1
1 -7 1 54.6 12.03 7
-1 -7 -1 48.83 9.65 1
-1 -7 -1 48.98 8.69 9
0 7 2 1195.95 57.75 4
0 -7 -2 1198.81 60.38 7
0 -7 -2 1145.61 53.14 1
0 -7 -2 1149.98 54.91 9
0 -7 2 1135.74 52.18 1
0 -7 2 1198.53 61.46 7
1 -7 -3 52.92 11.2 7
-1 -7 3 54.82 9.81 1
1 -7 -3 45.27 10.15 1
-1 -7 3 44.17 11.45 7
-2 7 4 76.13 10.4 1
-2 7 4 70.05 11.2 4
2 -7 -4 91.97 12.47 9
-2 -7 4 48.24 12.28 7
-2 -7 4 77.67 11.25 1
-2 -7 4 79.94 10.53 4
2 -7 -4 85.52 11.93 7
-3 7 5 95.36 13.19 1
-3 7 5 74.43 14.42 4
3 -7 -5 100.03 14.74 7
3 -7 -5 88.4 12.47 9
-3 -7 5 99.03 12.65 1
-3 -7 5 108.09 16.26 7
-4 7 6 280.37 21.85 1
-4 7 6 279.48 26.11 4
4 -7 -6 265.66 21.82 9
-4 -7 6 288.4 21.5 1
4 -7 -6 276.25 24.07 7
-4 -7 6 316.68 27.63 7
-5 7 7 11.94 8.67 1
-5 7 7 25.89 11.39 4
5 -7 -7 -1.74 7.45 9
5 -7 -7 3.82 11.73 7
-5 -7 7 9.04 9.91 7
-5 -7 7 15.43 8.31 1
-6 7 8 32.29 12.75 4
-6 7 8 4.02 12.4 1
6 -7 -8 8.25 12.73 7
6 -7 -8 1.99 10.63 9
-6 -7 8 35.42 16.53 7
-6 -7 8 10.77 11.88 1
-7 7 9 17.54 15.19 1
-7 7 9 1.92 15.99 4
7 -7 -9 26.46 12.94 9
-7 -7 9 23.73 12.76 1
-7 -7 9 17.49 18.87 7
7 -7 -9 51.9 17.69 7
-6 8 4 40.05 17.01 4
-6 8 4 61.46 15.17 1
-6 -8 4 32.67 10.95 1
-6 -8 4 58.83 17.64 6
6 -8 -4 26.18 15.32 7
-6 -8 4 45 15.34 7
-5 8 3 28.81 12.02 4
-5 8 3 38.92 13.36 1
-5 -8 3 57.2 13.41 1
5 -8 -3 38.89 15.02 7
-5 -8 3 35.41 14.36 6
-5 -8 3 65.44 16.18 7
-4 8 2 0.54 10.52 1
-4 8 2 -2.74 8.92 4
-4 -8 2 10.65 9.57 1
4 -8 -2 2 8.93 7
4 -8 -2 -9.07 11.02 1
-4 -8 2 0.13 13.59 7
-3 8 1 172.26 20.88 4
-3 -8 1 205.33 21.24 7
3 -8 -1 161.63 17.21 1
3 -8 -1 171.72 21.51 7
-3 -8 1 198.87 18.2 1
-2 8 0 28.98 12.54 4
-2 8 0 31.78 9.76 2
2 -8 0 24.96 8.82 1
-2 -8 0 23.61 7.93 1
-2 -8 0 43.46 13.64 7
2 -8 0 47.5 13.41 7
1 -8 1 190.02 21.13 7
-1 -8 -1 200.93 18.18 1
1 -8 1 175.88 17.45 1
-1 -8 -1 183.7 19.46 7
0 -8 -2 18.94 7.57 1
0 -8 -2 15.08 9.49 9
0 -8 2 0.54 7.21 7
0 -8 -2 6.14 10.17 7
0 -8 2 2.72 8.94 1
-1 8 3 52.69 10.92 4
-1 -8 3 55.79 11.42 1
1 -8 -3 39.76 9.03 9
1 -8 -3 48.84 11.87 1
1 -8 -3 27.81 12.34 7
-1 -8 3 51.26 13.96 7
-2 8 4 -21.71 11.51 4
-2 8 4 21.17 10.91 1
-2 -8 4 10.02 10.2 7
2 -8 -4 1.68 9.06 9
2 -8 -4 -7.5 11.4 7
-2 -8 4 3.95 9.1 1
2 -8 -4 18.11 10.32 1
-3 8 5 129.53 18.59 4
-3 8 5 132.71 15.21 1
3 -8 -5 129.88 18.7 7
-3 -8 5 160.96 21.12 7
-3 -8 5 135.17 14.47 1
3 -8 -5 161.72 17.5 9
-4 8 6 105.02 17.64 4
-4 8 6 76.1 15.49 1
4 -8 -6 61.62 14.32 9
-4 -8 6 77.23 14.48 1
-4 -8 6 116.71 19.9 7
-5 8 7 48.23 11.84 1
-5 8 7 41.59 17.59 4
-5 -8 7 48.6 13.99 1
5 -8 -7 33.42 14.26 9
5 -8 -7 34.64 15.61 7
-5 -8 7 21.71 16.6 7
-6 8 8 75.37 21.76 4
-6 8 8 119.02 19.57 1
-6 -8 8 72.76 19.74 7
-6 -8 8 85.18 17.38 1
6 -8 -8 80.21 16.37 7
-5 9 3 31.86 11.41 1
-5 9 3 52.44 19.2 4
-5 -9 3 8.61 15.02 1
-5 -9 3 36.91 22.42 6
5 -9 -3 2.38 19.14 7
5 -9 -3 13.33 13.11 1
-5 -9 3 28.45 19.45 7
-4 9 2 173.25 22.53 4
4 -9 -2 158.82 23.34 7
-4 -9 2 145.06 18.79 1
-4 -9 2 153.4 23.17 6
-4 -9 2 136.1 23.6 7
4 -9 -2 134.41 18.05 1
-3 -9 1 45.83 11.12 1
3 -9 -1 60.14 17.56 7
-3 -9 1 42.92 16.52 7
3 -9 -1 53.85 14.38 1
-2 9 0 22.36 14.38 4
-2 -9 0 9.47 9.99 1
2 -9 0 6.5 8.2 1
-2 -9 0 18.38 12.73 7
2 -9 0 -14.44 14.73 7
-1 9 -1 56.39 12.93 2
1 -9 1 30.48 15.07 7
-1 -9 -1 32.67 12.58 1
1 -9 1 37.43 10.21 1
-1 -9 -1 28.28 13 7
0 -9 2 14.71 8.8 1
0 -9 2 37.95 15.56 7
0 -9 -2 49.51 13.04 9
0 -9 -2 34.04 13.12 1
0 -9 -2 35.12 14.44 7
1 -9 -3 11.66 11.09 9
-1 -9 3 14.94 8.84 1
1 -9 -3 15.43 11.88 1
1 -9 -3 8.42 13.34 7
-1 -9 3 14.66 14.11 7
-2 9 4 13.99 12.78 4
2 -9 -4 5.49 13.32 7
-2 -9 4 -8.09 12.31 7
-2 -9 4 5.51 8.04 1
2 -9 -4 14.5 9.45 1
-3 9 5 91.77 16.98 1
-3 9 5 64.12 16.36 4
3 -9 -5 104.45 18.79 7
-3 -9 5 124.88 16.44 1
3 -9 -5 111.75 17.9 1
-3 -9 5 91.34 17.1 7
-4 9 6 49.82 18.71 4
-4 9 6 70.9 16.81 1
-4 -9 6 41.44 19.88 7
4 -9 -6 96.29 20.02 7
-4 -9 6 65.73 15.77 1
2 -10 0 2.82 17.3 7
-2 -10 0 13.62 13.42 7
-2 -10 0 21.68 12.74 1
2 -10 0 12.47 10.97 1
1 -10 1 29.92 13.61 7
-1 -10 -1 -5.16 11.3 7
-1 -10 -1 16.19 10.62 1
0 -10 -2 10 11.7 1
0 -10 2 42.5 16.64 7
0 -10 2 49.99 13.95 1
0 -10 -2 41.96 13.67 7
1 -10 -3 13.06 15 1
-1 -10 3 -5.89 16.85 7
1 -10 -3 -4.63 16.26 7
-1 -10 3 -17.74 10.19 1
2 -10 -4 172.78 23.96 7
-2 -10 4 162.81 20.36 1
-2 -10 4 113.33 23.36 7
2 -10 -4 140.87 18.9 1
10 0 -7 0.22 10.61 3
10 0 -7 4.26 13.88 7
-10 0 7 -23.58 17.88 1
-10 0 7 -4.93 12.36 5
10 0 -7 -2.28 9.99 9
9 0 -6 69.06 17.44 7
9 0 -6 101.32 14.63 9
-9 0 6 80.63 14.29 5
9 0 -6 74.57 14.15 3
-9 0 6 104.24 14.03 1
8 0 -5 1.59 7.3 9
-8 0 5 -9.27 10.01 5
8 0 -5 30.61 10.38 3
-8 0 5 21.53 8.85 1
8 0 -5 -9.57 11.58 7
-7 0 4 814.34 37.49 1
-7 0 4 787.63 42.53 5
7 0 -4 783.29 39.76 3
-6 0 3 50.89 44.72 10
6 0 -3 16.61 58.68 10
-5 0 2 518.23 24.16 1
-5 0 2 470.61 25.41 6
-5 0 2 545.62 70.8 10
-5 0 2 527.83 26.06 4
-5 0 2 520.81 28.03 5
5 0 -2 527.52 26.02 3
5 0 -2 578.51 72.26 10
-4 0 1 -0.28 1.84 1
-4 0 1 -3.47 3.29 6
-4 0 1 -6.53 26.1 10
-4 0 1 3.98 4.73 5
-4 0 1 10.86 4.38 2
4 0 -1 -9.02 26.47 10
4 0 -1 5.03 3 3
-4 0 1 4.91 2.31 4
-3 0 0 8203.42 374.09 6
-3 0 0 9669.43 361.09 5
-3 0 0 9051.29 331.8 1
3 0 0 9075.23 338.39 3
-3 0 0 8902.28 375.67 4
-3 0 0 9741.4 394.69 10
3 0 0 9999.99 393.9 10
-3 0 0 9126.07 342.82 2
-2 0 -1 1.66 2.92 6
-2 0 -1 -1.41 2.61 2
2 0 1 6.57 9.03 10
-2 0 -1 -0.13 2.15 5
2 0 1 -0.71 2.42 3
-2 0 -1 -0.91 9.13 10
-2 0 -1 -0.28 1.03 1
1 0 -4 1213.34 71.63 10
-1 0 4 1062.43 45.74 7
1 0 -4 1067.81 55.61 8
-1 0 4 1096.89 69.93 10
1 0 -4 1078.05 42.15 2
1 0 -4 1104.11 42.85 3
-1 0 4 1004.98 40.9 1
1 0 -4 1020.47 46.18 6
1 0 -4 1097.82 43.9 9
-1 0 4 976.8 47.43 4
-2 0 5 7.25 24.4 10
-2 0 5 -0.85 2.26 7
2 0 -5 -0.99 1.2 2
2 0 -5 -0.76 3.81 8
-2 0 5 1.57 2.55 1
2 0 -5 -13.14 22.09 10
-2 0 5 6.41 3.64 4
2 0 -5 -1.48 2.62 9
2 0 -5 -1.97 2.77 3
2 0 -5 -0.7 1.97 6
3 0 -6 226.31 13.75 9
-3 0 6 281.87 52.67 10
-3 0 6 235.91 16.18 4
-3 0 6 236.49 13.25 1
3 0 -6 223.18 13.57 3
3 0 -6 224.17 11.05 2
-3 0 6 218.89 14.34 7
-4 0 7 2.35 3.64 1
4 0 -7 -1.4 3.26 3
4 0 -7 15.15 33.25 10
-4 0 7 41.86 36.1 10
4 0 -7 6.22 3.41 9
-4 0 7 2.68 4.37 4
5 0 -8 2504.52 101.42 3
-5 0 8 2684.18 115.29 4
5 0 -8 2432.49 105.02 9
-5 0 8 2549.97 100.02 1
6 0 -9 -10.2 5.62 3
-6 0 9 -1.44 4.55 1
-6 0 9 4.39 6.44 4
6 0 -9 8.23 5.16 9
-7 0 10 51.1 11.18 1
7 0 -10 40.78 10.21 9
-7 0 10 22.38 12.17 4
8 0 -11 20.5 11.35 9
8 0 -11 -6.31 11.38 3
-8 0 11 -27.31 11.52 1
-8 0 11 15.7 14.1 4
9 0 -12 15.38 13.41 3
-9 0 12 15.65 11.77 1
9 0 -12 35.15 13.97 9
9 0 -12 25.29 15.08 7
10 1 -7 8.89 15.38 9
-10 1 7 1.45 13.44 5
10 1 -7 5.26 14.41 3
-10 1 7 21.98 15.29 1
10 1 -7 -10.33 13.8 7
10 -1 -7 34.83 16.03 3
-10 -1 7 -1.36 13.71 5
10 -1 -7 0.87 12.8 9
-10 -1 7 22.76 14.18 1
10 -1 -7 20.85 16.9 7
9 1 -6 30.65 13.74 3
-9 1 6 43.24 12 5
-9 1 6 66.36 13.69 1
9 -1 -6 42.77 16.6 7
-9 -1 6 29.61 14.1 5
-9 -1 6 31.46 10.58 1
9 -1 -6 45.25 13.58 3
9 -1 -6 45.29 13.08 9
8 1 -5 10.91 9.81 3
-8 1 5 17.48 9.32 1
-8 1 5 8.82 10.69 5
-8 -1 5 14.9 8.12 5
8 -1 -5 17.78 10.09 9
-8 -1 5 13.36 7.34 1
8 -1 -5 5.96 8.42 7
8 -1 -5 30.85 11.28 3
-7 1 4 64.19 9.5 1
-7 1 4 70.67 10.26 4
-7 1 4 61.16 11.09 5
7 1 -4 76.5 11.12 3
-7 -1 4 74.01 11.91 5
-7 -1 4 62.71 8.24 1
7 -1 -4 96.51 12.15 3
7 -1 -4 60.23 9.54 9
7 -1 -4 48.08 11.86 7
-6 1 3 1849.75 81.42 4
-6 1 3 1767.66 80.48 5
-6 1 3 1871.89 72.94 1
-6 1 3 1677.77 137.46 10
6 1 -3 1696.32 150.07 10
6 1 -3 1785.73 75.25 3
-6 -1 3 1811.18 80.37 5
6 -1 -3 1860.55 75.27 3
6 -1 -3 1877.42 86.43 7
-6 -1 3 1699.83 145.79 10
6 -1 -3 1590.06 139.35 10
6 -1 -3 1837 77.45 9
-6 -1 3 1905.16 73.04 1
-5 1 2 58.91 40.84 10
5 1 -2 50.29 7.58 3
-5 1 2 74.93 8.71 5
-5 1 2 70.2 6.71 6
5 1 -2 17.51 31.67 10
-5 1 2 62.49 6.37 1
-5 1 2 62.81 7.45 4
-5 1 2 62.69 7.35 2
-5 -1 2 58.69 5.7 4
-5 -1 2 80.46 49.06 10
5 -1 -2 58.64 45.47 10
5 -1 -2 66.51 8.07 3
-5 -1 2 64.98 7.2 6
-5 -1 2 52.56 8.59 5
-5 -1 2 63.01 6.9 1
5 -1 -2 61.63 8.53 7
-4 1 1 1422.35 62.83 6
4 1 -1 1408.47 58.67 3
4 1 -1 1463.42 102.66 10
-4 1 1 1391.71 99.47 10
-4 1 1 1377.67 63.92 4
-4 1 1 1510.69 63.22 5
-4 1 1 1427.38 56.03 1
-4 1 1 1443.72 58.75 2
4 -1 -1 1577.66 102.29 10
-4 -1 1 1260.65 63.21 6
-4 -1 1 1502.68 62.81 5
-4 -1 1 1592.33 108.45 10
4 -1 -1 1433.15 58.1 3
-4 -1 1 1411.67 56.19 1
-4 -1 1 1508.73 67.04 7
4 -1 -1 1529.2 67.16 7
-4 -1 1 1377.22 60.94 4
-3 1 0 778.27 37.07 4
3 1 0 939.23 67.17 10
-3 1 0 770.16 36.27 5
-3 1 0 728.14 58.05 10
3 1 0 798.35 34.11 3
-3 1 0 703.68 36.34 6
-3 1 0 806.29 34.36 2
-3 1 0 763.84 31.5 1
3 -1 0 847.48 39.03 7
-3 -1 0 798.92 32.07 1
-3 -1 0 884.27 65.05 10
-3 -1 0 830.59 37.7 6
-3 -1 0 829.62 38.73 7
-3 -1 0 792.74 36.12 5
3 -1 0 799.22 33.31 3
3 -1 0 872.54 60.9 10
2 1 1 2692.05 124.17 10
-2 1 -1 2431.71 94.15 2
2 1 1 2470.13 93.13 3
-2 1 -1 2367.54 103.3 4
-2 1 -1 2439.07 98.92 5
2 1 1 2382.25 100.76 4
-2 1 -1 2392.07 102.94 6
-2 1 -1 2581.72 115.57 10
-2 1 -1 2496.98 89.52 1
2 -1 1 2684.42 115.91 10
2 -1 1 2436.41 104.32 7
-2 -1 -1 2463.77 98.65 5
-2 -1 -1 2495.7 90.07 1
-2 -1 -1 2429.56 103.56 6
-2 -1 -1 2509.8 121.79 10
-2 -1 -1 2444.1 95.07 2
-2 -1 -1 2120.99 119.3 8
-2 -1 -1 2418.07 103.88 7
2 -1 1 2446.57 92.03 3
1 1 -4 -8.61 12.51 10
1 1 -4 -2.42 2.6 8
1 1 -4 3.14 2.21 2
-1 1 4 -4.17 19.07 10
-1 1 4 -0.32 2.61 4
-1 1 4 -1.11 1.66 1
1 1 -4 0.82 1.98 9
1 1 -4 -0.24 1.72 3
1 -1 -4 -0.8 1.72 2
1 -1 -4 7.3 3.28 3
1 -1 -4 -1.46 2.32 6
-1 -1 4 -1.7 2.05 7
1 -1 -4 -3.61 4.35 8
1 -1 -4 1.37 1.41 7
-1 -1 4 -5.45 1.97 1
-1 -1 4 -4.58 15.74 10
-1 -1 4 1.11 2.17 4
1 -1 -4 13.68 19.33 10
1 -1 -4 -2.08 2.38 9
-2 1 5 1946.89 82.94 4
2 1 -5 1813.28 74.96 9
2 1 -5 1860.16 72.36 3
2 1 -5 1966.22 117.72 10
-2 1 5 1873.6 71.63 1
-2 1 5 1992.71 120.25 10
2 1 -5 1806.98 93.02 8
-2 -1 5 1883.2 80.79 7
-2 -1 5 1941.34 117.92 10
2 -1 -5 1941.32 80.09 7
2 -1 -5 1662.7 113.36 10
2 -1 -5 1887.98 76.12 9
-2 -1 5 1873.15 71.46 1
2 -1 -5 1867.78 70.61 2
-2 -1 5 1838.22 81.07 4
2 -1 -5 1849.13 78.41 6
2 -1 -5 1928.42 73.54 3
3 1 -6 385.93 53.82 10
-3 1 6 379.54 18.62 1
3 1 -6 333.49 22.57 8
3 1 -6 365.23 18.46 3
-3 1 6 386.82 22.7 4
3 1 -6 359.52 19.06 9
-3 -1 6 352.74 20.44 4
3 -1 -6 356.02 19.53 9
-3 -1 6 308.56 55.94 10
3 -1 -6 393.93 20.14 7
-3 -1 6 323.51 19.82 7
-3 -1 6 347.87 18.2 1
3 -1 -6 258.57 51.62 10
3 -1 -6 373.01 14.71 2
3 -1 -6 356.61 19.05 3
4 1 -7 631.98 29.65 3
-4 1 7 665.92 30.16 1
4 1 -7 615.68 37.22 8
4 1 -7 633.84 31.05 9
4 1 -7 618.84 76.73 10
-4 1 7 692.7 36.57 4
-4 1 7 620.77 79.57 10
4 -1 -7 661.44 31.87 9
-4 -1 7 698.57 89.22 10
4 -1 -7 615 32.68 7
-4 -1 7 627.02 33.56 4
-4 -1 7 626.95 29.63 1
4 -1 -7 596.47 29.94 3
4 -1 -7 509.26 78.3 10
-4 -1 7 598.98 32.95 7
5 1 -8 210.39 15.3 9
-5 1 8 231.27 19.14 4
5 1 -8 211.77 15.18 3
-5 1 8 218.06 15.15 1
5 1 -8 167.93 17.34 8
5 -1 -8 228.61 15.51 3
5 -1 -8 226.34 17.14 7
-5 -1 8 204.56 16.72 7
-5 -1 8 221.58 15.26 1
-5 -1 8 200.92 17.24 4
5 -1 -8 195.27 15.65 9
-6 1 9 711.62 35.46 1
6 1 -9 672.85 35.74 9
6 1 -9 672.46 34.74 3
-6 1 9 678.17 41.16 4
6 -1 -9 694.69 35.39 3
6 -1 -9 591.52 37.28 7
-6 -1 9 732.41 35 1
-6 -1 9 687.59 39.23 7
-6 -1 9 622.04 38.31 4
6 -1 -9 680.31 36.46 9
-7 1 10 16.15 11.57 4
-7 1 10 -0.79 6.14 1
7 1 -10 6.12 6.29 3
7 1 -10 2.28 5.8 9
-7 -1 10 9.86 10.68 4
7 -1 -10 10.95 7.52 7
7 -1 -10 3.49 7.89 9
-7 -1 10 9.46 8.34 1
7 -1 -10 8.37 8.66 3
-8 1 11 217.68 19.5 1
-8 1 11 149.52 22.66 4
8 1 -11 224.45 20.61 3
8 1 -11 172.46 17.81 9
-8 -1 11 216.9 19.68 1
8 -1 -11 185.49 18.34 3
8 -1 -11 193.36 20.1 9
9 1 -12 -17.08 14.2 3
-9 1 12 -9.14 10.2 1
-9 1 12 -14.4 17.21 4
9 1 -12 10.6 12.29 9
9 -1 -12 2.22 12.82 3
-9 -1 12 -20.55 10.78 1
9 -1 -12 2.19 9.42 9
9 -1 -12 1.43 13.26 7
10 2 -7 -1.5 14.68 3
-10 2 7 7.91 12.02 5
10 -2 -7 5.79 14.14 3
-10 -2 7 8.2 12.3 5
10 -2 -7 24.96 11.36 9
10 -2 -7 -20.44 17.99 7
-9 2 6 41.91 13.73 1
9 2 -6 -0.23 12 3
-9 2 6 -14.44 14.74 5
-9 -2 6 17.7 12.45 5
-9 -2 6 15.57 8.44 1
9 -2 -6 31.26 12.92 3
9 -2 -6 19.04 11.58 7
9 -2 -6 16.51 12.07 9
-8 2 5 -10.57 7.19 1
-8 2 5 12.72 10.66 5
8 2 -5 -4.83 8.81 3
-8 2 5 7.44 10.07 4
-8 -2 5 6.27 10.37 5
8 -2 -5 -9.48 9.74 3
8 -2 -5 -9.93 9.28 9
8 -2 -5 -17.4 11.87 7
-8 -2 5 0.94 7.75 1
-7 2 4 233.34 18.9 4
7 2 -4 254 19.2 3
-7 2 4 242.9 20.25 5
-7 2 4 237.39 16.92 1
7 -2 -4 222.8 18.26 9
-7 -2 4 236.4 20.43 7
-7 -2 4 241.5 19.94 5
7 -2 -4 249.64 17.9 3
7 -2 -4 218.92 21.38 7
-7 -2 4 262.02 17.7 1
-6 2 3 -51.79 45.62 10
-6 2 3 -8.4 6.68 2
-6 2 3 -10.14 7.41 5
6 2 -3 -11.93 6.95 3
-6 2 3 -4.49 5.98 4
-6 2 3 -6.63 4.86 1
-6 -2 3 4.85 5.7 7
-6 -2 3 4.01 5.36 1
-6 -2 3 -2.25 5.99 5
-6 -2 3 1.1 5.04 6
6 -2 -3 -7.59 5.95 9
6 -2 -3 -15.28 6.44 3
6 -2 -3 -53.97 76.39 10
6 -2 -3 -2.35 7.57 7
-5 2 2 80.65 10.04 5
-5 2 2 73.34 7.59 1
5 2 -2 99.49 50.72 10
-5 2 2 129.2 42.73 10
-5 2 2 90.92 8.48 2
5 2 -2 67.14 8.41 3
-5 2 2 63.15 8.69 4
-5 -2 2 86.63 10.75 7
5 -2 -2 85.07 8.21 3
-5 -2 2 77.05 7.43 1
-5 -2 2 97.46 52.09 10
5 -2 -2 90.72 8.51 9
5 -2 -2 77.05 10.85 7
5 -2 -2 -9.54 50.49 10
-5 -2 2 80.61 9.43 6
-5 -2 2 68.89 9.03 5
-4 2 1 249.37 14.46 2
4 2 -1 248.76 14.94 3
-4 2 1 259.4 16.07 5
-4 2 1 300.04 50.1 10
-4 2 1 254.52 16.49 4
-4 2 1 221.65 13.24 1
-4 -2 1 252.99 16.85 6
4 -2 -1 257.05 17.43 7
-4 -2 1 251.42 17.52 7
4 -2 -1 252.01 14.38 3
4 -2 -1 261.77 14.32 9
-4 -2 1 255.84 45.28 10
4 -2 -1 215.65 45.86 10
-4 -2 1 269.79 15.91 5
-4 -2 1 248.46 13.98 1
-3 2 0 3392.25 133.66 5
-3 2 0 3250.37 122.11 1
-3 2 0 3246.73 126.31 2
-3 2 0 3034.97 139.73 4
3 2 0 3395.24 176.64 10
3 2 0 3218.93 125.61 3
-3 2 0 3146.47 167.79 10
-3 -2 0 3465.53 141.72 7
-3 -2 0 3326.92 140.56 6
-3 -2 0 3305.35 132.82 5
-3 -2 0 3312.9 122.74 1
-3 -2 0 3368.08 177.97 10
3 -2 0 3410.55 128.34 9
3 -2 0 3306.72 141.76 7
3 -2 0 3552.42 171.73 10
3 -2 0 3241.54 123.88 3
-2 2 -1 11.72 2.4 1
-2 2 -1 -20.96 17.34 10
-2 2 -1 11.32 2.76 2
-2 2 -1 9.43 3.1 4
2 2 1 11.36 3.35 3
2 2 1 24.96 20.23 10
-2 2 -1 10.56 3.41 5
-2 -2 -1 13.38 2.61 1
-2 -2 -1 12.04 4.58 6
-2 -2 -1 10.51 3.56 8
2 -2 1 7.55 2.19 3
-2 -2 -1 13.56 3.18 7
2 -2 1 13.77 16.88 10
-2 -2 -1 8.7 20.65 10
2 -2 1 16.09 3.69 7
2 -2 1 10.39 1.75 9
-2 -2 -1 11.53 2.88 5
-1 2 -2 1.19 2.17 5
-1 2 -2 7.34 3.13 2
1 2 2 1.56 2 4
1 2 2 0.07 1.72 3
-1 -2 -2 -0.76 2.34 9
1 -2 2 -0.7 1.54 1
1 -2 2 3.45 1.34 3
-1 -2 -2 -0.25 2.4 6
-1 -2 -2 1.15 1.96 1
-1 -2 -2 0.07 1.5 5
1 -2 2 15.25 13.49 10
1 -2 2 -10.23 13.63 10
1 -2 2 -2.24 3 7
-1 -2 -2 2.89 2.26 7
-1 -2 -2 -19.06 14.2 10
-1 -2 -2 -11.06 14.86 10
-1 -2 -2 3.65 3.1 8
0 2 3 7743.25 283.01 1
0 2 3 8021.59 345.59 10
0 2 -3 8493.42 337.78 10
0 2 3 7385.24 320.55 4
0 2 -3 7982.33 291.41 2
0 2 -3 7711 285.81 3
0 -2 3 6987.68 320.96 4
0 -2 -3 8092.99 345.6 10
0 -2 3 8044.45 336.28 10
0 -2 3 8085.38 282.22 1
0 -2 -3 7666.6 372.96 8
0 -2 -3 7726.43 299.58 9
0 -2 -3 7652.3 319.68 6
0 -2 -3 7972.23 288.02 3
0 -2 3 7882.71 323.05 7
-1 2 4 4652.31 193.44 4
-1 2 4 4649.21 227.43 10
-1 2 4 4509.48 169.71 1
1 2 -4 4815.05 221.29 8
1 2 -4 4736.92 221.64 10
1 2 -4 4610.01 170.41 3
1 -2 -4 4396.33 172.36 3
1 -2 -4 4375.54 179.43 9
-1 -2 4 4966.76 222.93 10
1 -2 -4 4400.8 227.05 10
-1 -2 4 4507.97 192.14 4
1 -2 -4 4913.7 191.25 6
1 -2 -4 4550.59 225.32 8
-1 -2 4 4763.63 193.29 7
1 -2 -4 4478.38 191.28 7
-1 -2 4 4677.59 168.91 1
-2 2 5 2564.87 156.51 10
-2 2 5 2789.38 117.28 4
2 2 -5 2761.48 101.7 3
2 2 -5 2964.59 160.69 10
2 2 -5 2425.73 130.01 8
-2 2 5 2526.18 101.41 1
-2 -2 5 2732.91 115.35 7
2 -2 -5 2646.47 103.27 3
-2 -2 5 2591.86 114.12 4
2 -2 -5 2759.9 113.91 7
-2 -2 5 2804.07 155.72 10
2 -2 -5 2752.35 112.51 6
-2 -2 5 2679.41 101.11 1
2 -2 -5 2651.86 107.83 9
2 -2 -5 2875.12 163.8 10
-3 2 6 183.26 15.64 4
-3 2 6 226.02 55.03 10
3 2 -6 150.38 11.88 8
3 2 -6 171.75 10.88 3
-3 2 6 162.16 11.5 1
3 2 -6 153.29 41.71 10
-3 -2 6 174.9 11.4 1
3 -2 -6 191.28 12.04 7
3 -2 -6 121.13 50.12 10
3 -2 -6 165.93 10.08 6
-3 -2 6 157.93 41.75 10
3 -2 -6 159.62 12.3 9
-3 -2 6 180.15 12.62 4
-3 -2 6 163.1 12.66 7
3 -2 -6 158.89 11.65 3
-4 2 7 21.59 8.35 4
4 2 -7 3.37 3.91 8
-4 2 7 4.32 4.61 1
4 2 -7 9.32 4.79 3
-4 2 7 -41.2 53.21 10
4 2 -7 -4.7 39.84 10
-4 -2 7 -12.15 5.16 1
4 -2 -7 -29.65 60.28 10
4 -2 -7 3.75 4.6 7
-4 -2 7 46.3 51.89 10
-4 -2 7 8.23 4.84 4
-4 -2 7 1.72 5.39 7
4 -2 -7 5.4 3.94 3
4 -2 -7 -3.51 2.65 6
4 -2 -7 -1.93 3.65 9
5 2 -8 288.43 19.18 9
5 2 -8 286.16 17.83 3
-5 2 8 321.92 24.5 4
-5 2 8 291.21 18.7 1
-5 -2 8 301.64 21.56 7
5 -2 -8 282.56 19.81 9
-5 -2 8 292.41 20.2 4
5 -2 -8 279.73 20.22 7
5 -2 -8 294.18 19.3 3
-5 -2 8 291.44 18.32 1
-6 2 9 124.65 15.59 4
6 2 -9 116.43 12.32 3
-6 2 9 65.88 11.1 1
6 2 -9 83.43 10.66 9
-6 -2 9 99.63 13.88 7
6 -2 -9 110.2 12.16 9
6 -2 -9 99.13 12.79 7
-6 -2 9 95.59 11.91 1
-6 -2 9 89.15 12.65 4
6 -2 -9 118.11 12.59 3
-7 2 10 -0.35 7.03 1
-7 2 10 5.76 11.76 4
7 2 -10 15.37 7.18 3
7 2 -10 12.43 9.09 9
-7 -2 10 1.33 11.09 4
-7 -2 10 8.25 8.65 1
-7 -2 10 -1.62 7.38 7
7 -2 -10 -10.1 9.46 3
7 -2 -10 -3.74 10.42 7
7 -2 -10 2.5 6.3 9
-8 2 11 15.25 11.92 1
8 2 -11 11.08 10.44 9
-8 2 11 -22.79 14.87 4
8 2 -11 -18.11 11.69 3
-8 -2 11 -8.73 11.41 1
8 -2 -11 22.72 11.41 3
8 -2 -11 6.14 8.1 9
8 -2 -11 10.21 9.93 7
9 2 -12 92.78 17.55 9
9 2 -12 75.74 16.94 3
-9 2 12 51.73 19.74 4
-9 2 12 62.35 13.51 1
9 -2 -12 49.8 15.99 9
9 -2 -12 55.21 16.52 3
-9 -2 12 51.47 15.34 1
9 -2 -12 69.18 18.73 7
-10 3 7 -5.73 17.54 5
10 3 -7 36.1 16.37 3
10 -3 -7 28.34 19.43 7
-10 -3 7 49.18 15.02 5
-9 3 6 -4.62 15.99 1
-9 3 6 32.78 17.22 4
-9 3 6 26.7 11.85 5
9 3 -6 53.36 12.43 3
9 -3 -6 34.64 13.24 3
-9 -3 6 34.33 9.64 1
9 -3 -6 26.83 16.3 7
-9 -3 6 39 14.35 5
-8 3 5 5.02 10.27 4
-8 3 5 15.44 12.34 5
-8 3 5 9.33 10.01 1
8 3 -5 -1.34 9.99 3
8 -3 -5 10.1 9.71 9
-8 -3 5 20.32 8.66 5
-8 -3 5 15.35 12.42 7
8 -3 -5 24.55 10.79 7
-8 -3 5 -12.66 9.05 1
8 -3 -5 20.07 10.68 3
7 3 -4 4.79 8.26 3
-7 3 4 6.82 7.77 4
-7 3 4 24.25 8.41 1
-7 3 4 16.72 9.82 5
-7 -3 4 4.75 7.17 7
7 -3 -4 19.73 8.39 9
7 -3 -4 50.4 12.8 7
7 -3 -4 11.52 6.52 3
-7 -3 4 24.69 7.96 5
-6 3 3 54.92 10.51 5
-6 3 3 43.23 8.1 1
-6 3 3 38.17 9.19 4
6 3 -3 51.71 9.27 3
-6 -3 3 45.37 10.63 7
-6 -3 3 57.11 9.51 5
6 -3 -3 44.49 8.21 9
-6 -3 3 38.82 8.99 6
-6 -3 3 46.1 8.08 1
6 -3 -3 46.18 8.83 3
6 -3 -3 33.62 8.52 7
-5 3 2 382.14 24.57 4
-5 3 2 371.65 23.25 5
5 3 -2 483 92.76 10
5 3 -2 366.02 21.8 3
-5 3 2 395.26 20.63 2
-5 3 2 482.42 76.2 10
-5 3 2 383.18 20.62 1
5 -3 -2 396.56 21.1 3
-5 -3 2 431.85 81.24 10
-5 -3 2 388.06 26.08 7
5 -3 -2 391.44 25.77 7
5 -3 -2 391.84 77.55 10
-5 -3 2 405.97 21.4 1
5 -3 -2 379.9 20.83 9
-5 -3 2 402.42 22.63 5
4 3 -1 34.34 49.42 10
-4 3 1 66.13 6.88 2
4 3 -1 62.14 7.03 3
-4 3 1 55.91 7.1 5
-4 3 1 116.43 47.22 10
-4 3 1 72.79 9.27 4
-4 3 1 70.97 7.23 1
4 -3 -1 56.23 5.8 9
-4 -3 1 66.06 8.59 7
-4 -3 1 43.37 8.6 6
4 -3 -1 51.37 8.74 7
4 -3 -1 115.6 46.09 10
-4 -3 1 66.61 6.87 5
-4 -3 1 64.65 46.83 10
4 -3 -1 59.59 6.41 3
-4 -3 1 57.55 6.88 1
-3 3 0 217.96 13.52 5
3 3 0 239.37 51.57 10
-3 3 0 221.35 15.3 4
3 3 0 205.59 13.06 3
-3 3 0 206.62 12.58 2
-3 3 0 207.16 12.23 1
-3 3 0 190.59 43.75 10
-3 -3 0 206.46 16.23 6
-3 -3 0 213.91 15.09 7
-3 -3 0 227.05 12.79 5
3 -3 0 207.96 11.38 9
3 -3 0 207.44 44.34 10
3 -3 0 213.73 15.62 7
-3 -3 0 140.82 44.84 10
-3 -3 0 223.59 12.86 1
3 -3 0 227.96 11.71 3
-2 3 -1 2309.92 88.63 1
2 3 1 2336.48 90.98 3
-2 3 -1 2123.95 102.22 4
-2 3 -1 2512.02 137.54 10
-2 3 -1 2450.53 96.06 5
-2 3 -1 2343.27 92.37 2
2 3 1 2544.13 144.46 10
-2 -3 -1 2317.93 95.06 5
2 -3 1 2399.41 88.25 3
-2 -3 -1 2393.24 140.33 10
2 -3 1 2351.78 134.58 10
-2 -3 -1 2505.16 104.13 6
-2 -3 -1 2353.19 102.64 7
2 -3 1 2286.08 91.46 9
-2 -3 -1 2343.13 89.68 1
-2 -3 -1 2391.13 142.87 10
2 -3 1 2399.71 103.71 7
-1 3 -2 3022.69 120.39 5
1 3 2 2854.25 125.9 4
1 3 2 3055.78 114.73 3
-1 3 -2 3065.69 116.8 2
-1 -3 -2 3198.63 167.69 10
-1 -3 -2 3071.1 166.8 10
1 -3 2 3081.31 159.94 10
1 -3 2 2771.85 115.3 9
1 -3 2 3110.8 158.54 10
-1 -3 -2 3306.59 120.71 5
-1 -3 -2 2986.43 113 1
1 -3 2 3074.91 129.74 7
-1 -3 -2 3156.99 129.94 6
1 -3 2 3076.38 112.13 1
-1 -3 -2 2659.87 147.28 8
-1 -3 -2 3046.62 120.2 9
0 3 3 1391.6 56.76 1
0 3 -3 1579.6 98 10
0 3 3 1468.78 64.22 4
0 3 -3 1464.98 59.41 2
0 3 3 1344.17 101.42 10
0 -3 -3 1379.55 63.67 7
0 -3 -3 1459.89 76.07 8
0 -3 3 1469.33 94.2 10
0 -3 3 1394 94.73 10
0 -3 3 1482.4 56.03 1
0 -3 3 1445.25 65.28 7
0 -3 -3 1525.58 61.12 9
0 -3 -3 1510.62 65.73 6
0 -3 -3 1355.95 99.49 10
-1 3 4 100.03 9.32 4
1 3 -4 106.32 29.28 10
1 3 -4 99.61 5.63 3
-1 3 4 54.98 35.55 10
-1 3 4 91.15 7.92 1
-1 -3 4 98.06 7.53 1
1 -3 -4 89.53 7.71 3
1 -3 -4 107.9 9.34 6
-1 -3 4 110.96 29.92 10
-1 -3 4 97.75 8.73 4
1 -3 -4 102.69 7.91 7
1 -3 -4 132.78 40.82 10
-1 -3 4 83.39 8.58 7
1 -3 -4 89.49 8.18 9
-2 3 5 457.09 22.73 1
2 3 -5 476.23 20.57 3
-2 3 5 449.93 65.67 10
2 3 -5 465.17 65.61 10
2 3 -5 404.2 25.45 8
-2 3 5 522.2 28.1 4
2 -3 -5 484.23 24.6 6
2 -3 -5 456.14 23.91 7
2 -3 -5 476 24.46 9
2 -3 -5 444.23 22.43 3
-2 -3 5 480.75 22.16 1
-2 -3 5 499.32 26.09 7
2 -3 -5 349.76 58.23 10
-2 -3 5 386.37 56.59 10
-2 -3 5 481.11 24.86 4
3 3 -6 2432.4 96.82 3
3 3 -6 2385.86 167.71 10
-3 3 6 2790.9 114.65 4
-3 3 6 2461.49 98.06 1
-3 3 6 2593.51 168.42 10
3 -3 -6 2646.06 104.22 9
3 -3 -6 2545.2 109.77 7
-3 -3 6 2646.86 111.72 7
3 -3 -6 2591.49 99.35 3
3 -3 -6 2429.72 169.52 10
-3 -3 6 2487.01 109.02 4
3 -3 -6 2367.88 106.73 6
-3 -3 6 2328.57 164.89 10
-3 -3 6 2558.3 97.77 1
-4 3 7 174.12 13.54 1
4 3 -7 187.09 12.77 3
-4 3 7 188.43 18.29 4
-4 -3 7 192.53 14.04 1
4 -3 -7 187.33 14.17 7
-4 -3 7 200.49 14.84 4
4 -3 -7 181.14 13.88 3
-4 -3 7 156.68 56.09 10
4 -3 -7 201.72 15.52 9
-4 -3 7 198.5 16.02 7
5 3 -8 237.86 16.31 3
-5 3 8 267.83 18.36 1
-5 3 8 233.27 21.87 4
5 -3 -8 234.07 18.24 7
-5 -3 8 233.57 18.08 4
5 -3 -8 257.18 17.39 3
-5 -3 8 266.29 18.08 1
5 -3 -8 257.19 19.14 9
-5 -3 8 275.24 20.93 7
-6 3 9 20.77 9.04 4
-6 3 9 38.5 8.3 1
6 3 -9 34.24 8.87 3
6 -3 -9 66.2 10.51 3
-6 -3 9 41.71 11.65 4
-6 -3 9 27 8.84 7
6 -3 -9 43.94 10.62 9
6 -3 -9 59.28 10.55 7
-6 -3 9 40.97 8.41 1
-7 3 10 56.99 15.17 4
7 3 -10 46.96 11.88 9
7 3 -10 37.56 10.86 3
-7 3 10 42.73 11.86 1
7 -3 -10 14.69 11.01 7
7 -3 -10 27.95 11.2 3
-7 -3 10 38.69 10.89 7
-7 -3 10 66.02 12.71 1
7 -3 -10 44.93 10.7 9
-8 3 11 30.87 13.15 1
8 3 -11 34.43 10.8 9
-8 3 11 -0.79 15.09 4
8 3 -11 33.62 11.52 3
8 -3 -11 20.19 12.44 7
8 -3 -11 31.63 10.49 9
-8 -3 11 26.02 12.6 1
8 -3 -11 33.87 13.19 3
-8 -3 11 12.63 14.51 7
9 3 -12 -18.5 14.83 9
-9 3 12 -1.3 13.75 5
9 3 -12 2.61 13.03 3
-9 3 12 5.4 12.16 1
-9 3 12 -16.54 17.76 4
9 -3 -12 2.66 14.25 9
-9 -3 12 17.52 17.2 5
9 -3 -12 0.94 10.37 3
9 -3 -12 3.95 16.01 7
-9 -3 12 -1.28 9.84 1
-9 4 6 10.87 13.85 5
-9 4 6 37.5 15 4
9 4 -6 9.27 13.52 3
-9 -4 6 21.66 17.98 5
-9 -4 6 -3 15.1 7
9 -4 -6 24.23 16.37 7
-9 -4 6 2.69 11.93 1
9 -4 -6 8.48 13.66 3
-8 4 5 83.88 16.08 4
-8 4 5 50.95 14.44 5
-8 4 5 51.34 12.81 1
8 4 -5 41.14 10.62 3
-8 -4 5 61.31 14.66 5
8 -4 -5 31.68 14.65 7
-8 -4 5 66.55 14.67 7
-8 -4 5 58.26 12.59 1
8 -4 -5 49.03 12.39 3
7 4 -4 -6.16 8.78 3
-7 4 4 8.59 9.84 5
-7 4 4 26.87 9.15 1
-7 -4 4 31.19 9.25 1
-7 -4 4 1.08 10.49 7
7 -4 -4 3.18 8.27 3
7 -4 -4 5.59 7.87 7
-6 4 3 7.76 8.12 5
-6 4 3 14.03 8.44 4
-6 4 3 13.08 7.27 1
6 4 -3 2.73 7.03 3
-6 -4 3 3.63 7.42 5
6 -4 -3 8.46 6.97 3
-6 -4 3 9.43 9.39 7
-6 -4 3 -7.14 6.9 1
6 -4 -3 5.2 6.24 7
-6 -4 3 -7.64 6.91 6
-5 4 2 -5.07 6.54 2
5 4 -2 9.25 6.07 3
-5 4 2 6.49 6.91 4
-5 4 2 -6.14 5.67 1
-5 4 2 32.64 64.09 10
-5 4 2 -9.59 6.7 5
-5 -4 2 4.73 5.68 1
5 -4 -2 -1.6 3.72 3
-5 -4 2 10.29 8.08 7
5 -4 -2 2.22 3.56 9
5 -4 -2 -9.88 7.92 7
-5 -4 2 1.2 8.65 6
-4 4 1 982.23 45.98 5
4 4 -1 1010.51 43.99 3
4 4 -1 761.41 109.32 10
-4 4 1 1013.12 43.18 2
-4 4 1 1037.83 105.62 10
-4 4 1 990.27 43.07 1
-4 4 1 969.9 50.31 4
-4 -4 1 1072.14 52.64 6
4 -4 -1 1001.61 43.27 9
-4 -4 1 999.58 44.38 5
-4 -4 1 982.78 43.42 1
-4 -4 1 1058.02 51.5 7
4 -4 -1 966.85 50.44 7
4 -4 -1 994.98 41.73 3
4 -4 -1 1093.36 105.06 10
-4 -4 1 866.42 102.18 10
-3 4 0 408.17 25.24 4
-3 4 0 499.17 70.01 10
-3 4 0 421.5 20.9 1
3 4 0 383.92 73.04 10
-3 4 0 415.28 21.42 2
3 4 0 376.45 20.97 3
-3 4 0 429.08 21.88 5
3 -4 0 390.69 25.23 7
-3 -4 0 404.83 62.98 10
-3 -4 0 401.01 20.38 5
-3 -4 0 412.9 21.46 1
3 -4 0 489.75 67.6 10
3 -4 0 427.15 19.01 3
-3 -4 0 444.84 27.43 6
3 -4 0 396.03 19.68 9
-3 -4 0 452.95 25.75 7
-2 4 -1 154.34 12.87 4
-2 4 -1 159.24 10.34 1
-2 4 -1 167.44 11.57 2
-2 4 -1 167.81 10.33 5
2 4 1 140.3 8.62 4
2 4 1 160.59 10.67 3
-2 4 -1 203.8 44.19 10
-2 -4 -1 148.65 9.31 5
2 -4 1 165.77 13.58 7
-2 -4 -1 172.44 11.19 1
-2 -4 -1 89.65 44.33 10
2 -4 1 111.66 42.09 10
-2 -4 -1 168.56 12.99 7
2 -4 1 146.22 7.61 3
-2 -4 -1 173.23 44.37 10
2 -4 1 158.92 8.91 9
-2 -4 -1 162.53 14.81 6
1 4 2 4.31 2.57 3
-1 4 -2 -1.33 3.24 4
-1 4 -2 3.47 4.11 2
-1 4 -2 0.55 2.06 5
1 4 2 0.86 2.95 4
-1 -4 -2 -11.89 26.28 10
1 -4 2 13 31.57 10
-1 -4 -2 10.28 33.78 10
1 -4 2 11.88 30.65 10
-1 -4 -2 19.94 6.71 6
-1 -4 -2 5.29 2.98 9
-1 -4 -2 4.05 4.3 7
-1 -4 -2 6.75 3 1
-1 -4 -2 3.22 4.44 8
1 -4 2 6.85 4.87 7
1 -4 2 0.44 2.32 1
1 -4 2 1.02 1.7 9
0 4 3 2107.68 94.92 4
0 4 3 2161.47 147.83 10
0 4 3 2182.32 85.2 1
0 -4 3 2241.44 97.7 7
0 -4 3 2276.63 139.07 10
0 -4 -3 2235.63 146.84 10
0 -4 -3 2242.46 90.51 9
0 -4 -3 2351.33 97.65 6
0 -4 -3 2237.69 96.26 7
0 -4 3 1801.14 134.78 10
0 -4 3 2210.96 84.1 1
0 -4 -3 2184.5 112.37 8
1 4 -4 419.6 16.09 3
-1 4 4 334.6 64.63 10
-1 4 4 366.96 20.19 1
-1 4 4 390.2 23.49 4
1 4 -4 323.36 54.56 10
1 -4 -4 394.25 21.82 9
-1 -4 4 382.95 22.16 4
1 -4 -4 381.5 19.93 3
1 -4 -4 384.54 21.55 7
1 -4 -4 375.92 22.71 6
-1 -4 4 403.04 23.47 7
1 -4 -4 454.15 69.45 10
-1 -4 4 400.22 19.82 1
-1 -4 4 359.46 54.94 10
-2 4 5 1197.5 55.77 4
-2 4 5 996 107.73 10
-2 4 5 1120.73 48.19 1
2 4 -5 1031.58 98.68 10
2 4 -5 1122.05 44.21 3
2 -4 -5 1130.25 52.77 6
2 -4 -5 930.07 100.85 10
2 -4 -5 1135.94 50.82 9
-2 -4 5 1165.11 54.48 7
2 -4 -5 1110.75 52.42 7
2 -4 -5 1093.73 47.5 3
-2 -4 5 1150.31 47.19 1
-2 -4 5 1034.43 102.46 10
-2 -4 5 1171.52 52.82 4
-3 4 6 19.88 5.26 1
3 4 -6 14.54 4.21 3
-3 4 6 13.5 41.02 10
-3 4 6 12 6.11 4
-3 -4 6 -0.97 39.62 10
-3 -4 6 12.37 6.41 7
3 -4 -6 6.89 4.86 7
3 -4 -6 2.73 5.36 9
3 -4 -6 8.28 4.17 3
3 -4 -6 5.35 5.09 6
-3 -4 6 15.31 5.08 4
-3 -4 6 17.32 5.96 1
4 4 -7 963.46 41.7 3
-4 4 7 982.44 44.73 1
-4 4 7 1056.29 53.38 4
-4 -4 7 941.28 46.6 4
4 -4 -7 914.72 43.44 3
-4 -4 7 947.32 50.31 7
4 -4 -7 973.38 48.23 7
-4 -4 7 965.7 43.73 1
4 -4 -7 946.7 46.52 9
5 4 -8 100.82 10.52 3
-5 4 8 100.55 15.25 4
-5 4 8 111.34 11.73 1
-5 -4 8 88.42 11.63 4
-5 -4 8 86.65 11.65 1
5 -4 -8 112.19 12.79 7
-5 -4 8 112.5 14.82 7
5 -4 -8 114.48 11.68 3
5 -4 -8 90.29 12.85 9
-6 4 9 565.32 32.25 1
6 4 -9 581.87 30.84 3
-6 4 9 557.7 39.58 4
6 -4 -9 574.03 34.48 9
-6 -4 9 492.23 35.75 7
6 -4 -9 582.66 32.61 3
-6 -4 9 603.47 32.7 1
6 -4 -9 577.1 35.25 7
-7 4 10 -6.63 10.57 1
-7 4 10 12.98 13.91 4
7 4 -10 9.81 7.15 3
-7 -4 10 4.8 12.23 7
7 -4 -10 3.85 7.77 7
7 -4 -10 8.74 9.07 3
-7 -4 10 4.28 7.31 1
7 -4 -10 2.75 10.48 9
-8 4 11 21.63 15.25 4
8 4 -11 0.1 8.07 3
-8 4 11 1.57 11.11 1
8 4 -11 3.08 11.99 9
8 -4 -11 -22.26 10.1 3
-8 -4 11 34.76 13.77 1
8 -4 -11 6.5 13.7 7
-8 -4 11 -1.85 13.75 7
8 -4 -11 10.92 9.57 9
-9 4 12 -4.54 15 1
9 4 -12 19.49 11.25 3
-9 4 12 21.48 18.25 4
9 4 -12 18.7 11.2 9
-9 4 12 -24.22 17.02 5
9 -4 -12 4.51 10.68 3
-9 -4 12 3.06 12.45 1
9 -4 -12 27.99 20.01 7
-9 -4 12 -18.03 14.73 7
9 -4 -12 25.85 12.88 9
-9 5 6 45.31 15.49 4
9 5 -6 34.87 16.6 3
9 -5 -6 66.84 20.27 7
-9 -5 6 57.57 15.45 1
-9 -5 6 48.85 21.25 7
8 5 -5 4.28 8.6 3
-8 5 5 -31.57 13.77 5
-8 5 5 9.37 15.69 1
8 -5 -5 7.13 10.23 7
-8 -5 5 -15.82 11.24 1
-8 -5 5 -4.3 10.58 7
-7 5 4 12.12 11.57 4
7 5 -4 -8.92 10.13 3
-7 5 4 1.15 9.07 5
-7 5 4 -4.23 9.89 1
-7 -5 4 10.04 12.65 7
7 -5 -4 -21.36 12.66 7
-7 -5 4 -15.38 8.81 1
-6 5 3 17.23 8.85 5
-6 5 3 33.96 8.98 1
6 5 -3 56.06 10.51 3
-6 5 3 46.19 10.87 4
-6 -5 3 33.99 12.68 7
6 -5 -3 42.99 12.29 7
-6 -5 3 27.22 9.94 6
-6 -5 3 22.36 8.84 1
-5 5 2 180.08 18.2 4
-5 5 2 203.34 15.07 1
5 5 -2 194.57 15.52 3
-5 5 2 193.68 15.92 5
-5 -5 2 221.12 16.32 1
-5 -5 2 232.94 21.75 6
-5 -5 2 187.47 18.57 7
5 -5 -2 209.85 19.43 7
-4 5 1 109.21 10.79 5
-4 5 1 114.75 10.5 2
-4 5 1 113.98 10.23 1
-4 5 1 90.3 11.78 4
4 5 -1 116.15 10.87 3
-4 -5 1 101.06 10.19 1
-4 -5 1 121.94 14.6 6
4 -5 -1 118.26 13.64 7
-4 -5 1 132.6 14.65 7
-3 5 0 441.69 72.95 10
-3 5 0 388.67 21.25 2
-3 5 0 392.31 20.95 1
-3 5 0 367.32 24.95 4
3 5 0 392.12 20.86 3
-3 5 0 375.49 20.73 5
-3 -5 0 399.23 21.7 1
-3 -5 0 403.68 27.64 6
3 -5 0 363.57 25.05 7
-3 -5 0 421.48 26.06 7
3 -5 0 393.84 72.62 10
-2 5 -1 24.64 5.43 1
-2 5 -1 8.27 6.63 4
-2 5 -1 24.37 45.07 10
-2 5 -1 20.59 5.81 2
2 5 1 22.19 5.03 3
-2 5 -1 20.43 4.69 5
-2 -5 -1 -20.04 50.42 10
2 -5 1 27.72 5.9 1
2 -5 1 20.13 6.14 7
-2 -5 -1 20.15 5.78 1
-2 -5 -1 26.27 6.38 7
-2 -5 -1 25.69 8.84 6
2 -5 1 2.98 51.09 10
2 -5 1 -19.65 45.24 10
-1 5 -2 1766.3 81.58 4
-1 5 -2 1859.04 74.29 2
1 5 2 1792.2 77.63 4
1 5 2 1757.57 70.7 3
-1 -5 -2 1745.1 71.41 1
1 -5 2 1836.25 134.73 10
-1 -5 -2 1865.14 81.94 7
-1 -5 -2 1820.16 140.43 10
1 -5 2 1793.14 70.64 1
-1 -5 -2 1509.19 133.1 10
1 -5 2 1630.8 125.87 10
1 -5 2 1826.15 82.78 7
-1 -5 -2 1743.23 75.57 9
0 5 3 23.14 47.81 10
0 5 3 3.65 4.84 1
0 5 3 10.41 11.3 4
0 -5 -3 65.04 52.07 10
0 -5 3 3.11 4.45 1
0 -5 3 85.21 52.94 10
0 -5 -3 9.04 5.22 1
0 -5 3 0.35 4.02 7
0 -5 -3 45.01 61.22 10
0 -5 -3 12.38 7.94 8
0 -5 3 -53.14 45.86 10
0 -5 -3 1.18 5 7
0 -5 -3 5.15 5.33 9
-1 5 4 1.7 6.08 4
-1 5 4 45.37 59.7 10
-1 5 4 0.26 4.96 1
1 5 -4 58.95 56.26 10
-1 -5 4 7.09 3.66 1
1 -5 -4 3.65 4.46 3
1 -5 -4 5.68 5.92 9
-1 -5 4 57.08 56.68 10
-1 -5 4 17.81 6.94 7
-1 -5 4 -21.21 49.27 10
1 -5 -4 9.27 5.54 7
-1 -5 4 11.74 5.54 4
-2 5 5 60.24 8.8 1
-2 5 5 64.43 10.63 4
-2 -5 5 67.59 8.44 1
2 -5 -5 78.6 10.46 6
-2 -5 5 117.45 64.2 10
-2 -5 5 84.48 9.47 4
2 -5 -5 49.2 6.76 3
2 -5 -5 83.22 9.16 7
2 -5 -5 71.9 8.96 9
-2 -5 5 71.31 9.49 7
-3 5 6 2233.16 99.21 4
-3 5 6 2142.91 86.44 1
3 -5 -6 2058.32 90.28 9
3 -5 -6 2089.5 94.22 6
-3 -5 6 2069.5 84.76 1
3 -5 -6 2086.53 85.19 3
-3 -5 6 2124.66 97.78 7
3 -5 -6 2139.47 95.84 7
-3 -5 6 2092.14 93.94 4
-4 5 7 36.33 8.99 1
-4 5 7 19.45 10.13 4
4 -5 -7 33.46 9.16 9
-4 -5 7 29.69 7.76 4
-4 -5 7 19.38 6.19 1
4 -5 -7 13.43 7.42 3
-4 -5 7 22.76 9.36 7
4 -5 -7 17.86 7.54 7
-5 5 8 141.61 18.88 4
-5 5 8 134.36 14.75 1
-5 -5 8 175.48 15.91 1
-5 -5 8 172.5 18.75 7
5 -5 -8 178.44 17.04 7
5 -5 -8 189.7 17.29 9
5 -5 -8 161.42 14.44 3
-6 5 9 -5.92 12.8 4
-6 5 9 -9.02 10.59 1
-6 -5 9 -2.43 9.86 7
-6 -5 9 3.19 9.01 1
6 -5 -9 -12.88 10.33 9
6 -5 -9 3.49 9.51 3
6 -5 -9 1.84 6.93 7
-7 5 10 5.39 10.87 1
-7 5 10 5.37 10.46 4
-7 -5 10 15.97 14.65 7
7 -5 -10 -0.89 10.58 3
-7 -5 10 17.47 8.82 1
7 -5 -10 19.8 9.82 7
7 -5 -10 45.4 13.48 9
-8 5 11 0.2 17.61 5
8 5 -11 4.81 9.24 9
-8 5 11 5.96 12.36 4
-8 5 11 -25.49 15.03 1
-8 -5 11 -9.88 16.12 7
-8 -5 11 13.1 13.96 1
8 -5 -11 7.58 16.09 7
8 -5 -11 34.47 15.32 9
8 -5 -11 -2.96 14.48 3
-8 6 5 -12.4 14.04 4
8 6 -5 -0.9 12.94 3
-8 -6 5 12.13 17.68 7
-8 -6 5 -1.25 11.01 1
8 -6 -5 2 13.12 7
-7 6 4 -0.07 8.55 1
-7 6 4 10.58 11.19 4
7 6 -4 6.83 11.33 3
7 -6 -4 1.89 9.33 7
-7 -6 4 2.9 14.83 7
6 6 -3 14.54 9.68 3
-6 6 3 -2.38 9.41 1
-6 6 3 -12.69 10.91 4
-6 -6 3 -19.64 14.58 6
-6 -6 3 -9.98 7.01 1
-6 -6 3 17.19 14.08 7
6 -6 -3 9.43 11.13 7
-5 6 2 4.93 7.3 4
5 6 -2 3.99 7.24 3
-5 6 2 14.57 8.2 1
-5 -6 2 -2.44 6.25 1
5 -6 -2 -7.08 7.75 7
-5 -6 2 13.7 12.75 6
-5 -6 2 9.5 11.15 7
-4 6 1 256.89 17.91 1
4 6 -1 245.84 16.98 3
-4 6 1 247.13 18.34 2
-4 6 1 224.92 20.99 4
-4 -6 1 244.72 22.55 6
-4 -6 1 232.85 21.8 7
4 -6 -1 254.56 22.04 7
-4 -6 1 262.05 17.81 1
-3 6 0 48.51 8.76 2
-3 6 0 44.3 7.59 1
3 6 0 46.34 6.8 3
-3 6 0 52.12 9.55 4
3 -6 0 45.58 7.55 1
3 -6 0 48.09 10.23 7
-3 -6 0 68.27 12.78 6
-3 -6 0 38.74 8.47 1
-3 -6 0 45.03 10.81 7
-2 6 -1 -4.95 7.54 4
-2 6 -1 3.96 6.03 2
2 6 1 3.99 5.08 3
2 -6 1 -6.79 7.85 7
-2 -6 -1 14.96 5.7 1
-2 -6 -1 11.9 7.86 7
2 -6 1 5.56 4.6 1
1 6 2 2.64 4.44 3
-1 6 -2 -1.2 6.72 2
-1 -6 -2 -0.19 4.73 1
-1 -6 -2 -1.61 6.27 9
1 -6 2 7.83 6.2 1
-1 -6 -2 0.86 6.72 7
1 -6 2 -2.84 7.23 7
0 6 3 2376.83 99.82 4
0 6 3 2259.2 88.2 3
0 -6 -3 2172.65 94.51 9
0 -6 -3 2273.41 90.27 1
0 -6 -3 1924.18 115.25 8
0 -6 -3 2312.37 101.91 7
0 -6 3 2309.69 103.88 7
0 -6 3 2239.27 88.68 1
-1 6 4 -3.6 7.27 4
-1 6 4 23.82 7.74 1
-1 -6 4 7.92 6.35 1
-1 -6 4 -1.33 4.49 4
-1 -6 4 -0.3 5.13 7
1 -6 -4 9.86 7.98 7
1 -6 -4 -25.86 10.63 9
-2 6 5 1551.97 68.62 1
-2 6 5 1617.28 78.15 4
-2 -6 5 1621.75 78.76 7
2 -6 -5 1709.9 73.16 9
-2 -6 5 1617.15 75.04 4
2 -6 -5 1615.06 67.11 3
2 -6 -5 1596.16 76.5 7
-2 -6 5 1682.36 68.18 1
-3 6 6 -5.88 7.07 1
-3 6 6 -7.59 9.74 4
3 -6 -6 5.34 6.19 6
-3 -6 6 8.8 6.25 4
3 -6 -6 13.02 8.58 9
-3 -6 6 -3.55 6.37 7
3 -6 -6 -5.54 5.87 3
3 -6 -6 -3.72 7.36 7
-3 -6 6 -1.1 7.01 1
-4 6 7 21.44 9.04 1
-4 6 7 2.44 10.24 4
4 -6 -7 24.63 8.01 3
4 -6 -7 17.08 7.19 7
-4 -6 7 19.8 9.03 1
-4 -6 7 5.71 9.76 7
4 -6 -7 6.29 6.69 9
-5 6 8 27.58 10.97 1
-5 6 8 0.5 11.96 4
5 -6 -8 16.04 10.13 7
5 -6 -8 11.41 9.15 3
5 -6 -8 17.67 10.22 9
-5 -6 8 0.48 7.93 7
-5 -6 8 -3.28 9.25 1
-6 6 9 38.82 10.57 1
-6 6 9 15.51 11.26 4
6 -6 -9 39.58 11.61 7
6 -6 -9 35.3 11.6 3
-6 -6 9 46.59 12.62 1
6 -6 -9 21.09 10.93 9
-6 -6 9 35.22 15.6 7
-7 6 10 5.16 11.15 1
-7 6 10 -23.62 17.11 4
7 -6 -10 19.95 13.92 3
7 -6 -10 2.25 14.49 7
-7 -6 10 26.42 13.61 1
7 -6 -10 21.5 10.84 9
-7 -6 10 17.07 13 7
-7 7 4 12.49 14.88 4
-7 7 4 -23.8 17.66 1
-7 -7 4 -0.47 17.66 7
7 -7 -4 -1.13 10.63 7
-6 7 3 140.36 20.22 4
-6 7 3 111.36 14.99 1
6 -7 -3 109.38 19.42 7
-6 -7 3 122.9 22.05 7
-6 -7 3 117.38 19.11 6
-6 -7 3 90.32 13.24 1
-5 7 2 15.16 8.76 1
-5 7 2 15.64 12.53 4
-5 -7 2 -16.27 10.71 1
-5 -7 2 7.73 14.2 6
5 -7 -2 -4.64 8.86 7
-5 -7 2 1.13 12.46 7
-4 7 1 122.36 17.48 4
-4 7 1 140.4 15 1
4 -7 -1 112.24 17.13 7
-4 -7 1 176.97 22.18 6
-4 -7 1 158.78 18.82 7
-4 -7 1 120.63 14.33 1
-3 7 0 187.47 17.21 2
-3 7 0 205.1 20.73 4
-3 -7 0 196.78 22.08 6
3 -7 0 198.08 16.9 1
-3 -7 0 189 17.02 1
-3 -7 0 225.13 20.08 7
3 -7 0 192.92 19.26 7
-2 7 -1 15.73 10.12 4
-2 7 -1 19.7 8.65 2
-2 -7 -1 8.92 8.18 7
2 -7 1 3.03 5.38 1
2 -7 1 -3.39 6.97 7
-2 -7 -1 -3.86 7.38 1
-1 7 -2 1047.27 49.78 2
-1 -7 -2 983.61 49.11 9
1 -7 2 970.14 45.89 1
-1 -7 -2 1055.5 53.61 7
1 -7 2 945.53 54.01 7
-1 -7 -2 961.83 46.77 1
0 7 3 -9.68 7.27 4
0 -7 -3 11.86 8.07 9
0 -7 -3 -3.74 7.97 7
0 -7 3 7.33 8.9 7
0 -7 -3 8.32 7.37 1
0 -7 3 -24.75 8.46 1
-1 7 4 3.53 7.62 1
-1 7 4 12.49 8.58 4
-1 -7 4 -4.82 5.72 4
1 -7 -4 -3.25 7.65 1
1 -7 -4 -6.56 8.54 7
1 -7 -4 -0.2 7.87 9
-1 -7 4 -14.73 8.16 1
-1 -7 4 -7.23 9.19 7
-2 7 5 28.41 10.9 4
-2 7 5 33.51 9.8 1
2 -7 -5 28.29 10.42 7
-2 -7 5 34.23 9.09 4
2 -7 -5 25.92 7.84 9
-2 -7 5 16.94 8.37 1
-2 -7 5 31.98 10.66 7
-3 7 6 343.35 23.71 1
-3 7 6 351.96 27.42 4
-3 -7 6 312.7 26.58 7
3 -7 -6 373.77 26.03 7
3 -7 -6 283.8 22.16 9
3 -7 -6 278.89 24.61 6
-3 -7 6 295.88 20.89 1
-4 7 7 27.28 13.76 4
-4 7 7 50.29 11.86 1
-4 -7 7 42.18 14.3 7
4 -7 -7 23.5 11 9
-4 -7 7 16.5 9.73 1
4 -7 -7 13.5 11.17 7
-5 7 8 41.14 13.45 1
-5 7 8 27.8 14.92 4
5 -7 -8 39.82 12.25 7
-5 -7 8 25.42 13.53 7
-5 -7 8 15.06 10.97 1
5 -7 -8 33.37 10.78 9
-6 7 9 37.58 14.06 1
-6 7 9 80.78 19.65 4
-6 -7 9 45.29 17.2 7
-6 -7 9 86.63 15.8 1
6 -7 -9 38.43 14.87 9
6 -7 -9 34.63 15.92 7
-7 7 10 17.95 19.44 4
-7 7 10 22.33 15.91 1
-7 -7 10 -1.9 18 7
-7 -7 10 27.87 14.94 1
7 -7 -10 11.29 20.85 7
7 -7 -10 -17.15 15.8 9
-6 8 3 8.84 15.44 4
-6 8 3 0.38 13.75 1
-6 -8 3 27.76 14.43 1
-6 -8 3 3.96 16.16 6
6 -8 -3 10.5 16.39 7
-6 -8 3 3.52 18.46 7
-5 8 2 53.49 14.43 1
-5 8 2 39.49 12.78 4
-5 -8 2 44.43 17.66 7
-5 -8 2 32.57 17.49 6
-5 -8 2 38.54 10.8 1
5 -8 -2 40.95 13.05 7
-4 8 1 60.52 15.37 4
-4 -8 1 70.05 18.47 6
-4 -8 1 62.65 16.88 7
-4 -8 1 47.94 12.44 1
4 -8 -1 29.29 10.62 1
4 -8 -1 56.05 13.49 7
-3 8 0 294.34 26.69 4
3 -8 0 283.64 22.06 1
-3 -8 0 265.75 21.49 1
3 -8 0 289.17 27.26 7
-3 -8 0 297.92 25.31 7
-3 -8 0 296.13 28.82 6
-2 8 -1 110.44 15.96 4
-2 8 -1 116.01 14.13 2
-2 -8 -1 98.72 13.99 1
-2 -8 -1 120.03 18.08 7
2 -8 1 105.54 13.87 1
2 -8 1 89.74 16.87 7
-1 8 -2 106.6 13.94 2
-1 -8 -2 112 16.75 7
1 -8 2 88.88 16.27 7
-1 -8 -2 103.44 14.21 1
1 -8 2 90.95 11.67 1
0 -8 -3 140.27 15.26 1
0 -8 -3 140.57 16.22 9
0 -8 -3 145.48 16.41 7
0 -8 3 159.16 15.86 1
0 -8 3 136.01 17.22 7
-1 8 4 -7.63 8.56 4
1 -8 -4 13.3 10.81 7
-1 -8 4 20.91 10.94 4
-1 -8 4 5.05 8.22 1
-1 -8 4 11.66 11.14 7
1 -8 -4 6.75 7.05 9
1 -8 -4 10.4 7.18 1
-2 8 5 30.91 8.97 1
-2 8 5 20.73 11.69 4
-2 -8 5 28.94 13.38 7
-2 -8 5 39.3 10.83 1
2 -8 -5 24.69 9.39 7
2 -8 -5 31.97 9.57 1
2 -8 -5 42.15 10.59 9
-3 8 6 93.9 15.16 1
-3 8 6 86.37 17.42 4
-3 -8 6 117.65 15.35 1
3 -8 -6 79.27 17.57 6
3 -8 -6 117.49 15.73 7
-3 -8 6 103.79 17.77 7
3 -8 -6 105.75 13.99 9
-4 8 7 15.32 12.56 1
-4 8 7 38.89 16.16 4
-4 -8 7 14.83 11.63 1
-4 -8 7 9.2 15.05 7
4 -8 -7 37.12 13.64 9
4 -8 -7 80.94 16.37 7
-5 8 8 122.92 18.42 1
-5 8 8 126.03 19.56 4
-5 -8 8 139.85 22.82 7
5 -8 -8 107.45 21.49 7
-5 -8 8 137.43 17.91 1
5 -8 -8 97.46 17.78 9
-6 8 9 48.5 16.23 1
-6 8 9 37.11 15.91 4
-6 -8 9 40.14 15.5 7
6 -8 -9 58.31 17.56 9
-5 9 2 89.76 21.51 4
-5 -9 2 58.27 23.44 6
-5 -9 2 85.78 14.57 1
5 -9 -2 108.7 22.19 7
-5 -9 2 73.62 21.92 7
5 -9 -2 63.69 16.41 1
-4 9 1 -5.29 15.43 4
4 -9 -1 -11.55 13.13 1
4 -9 -1 15.17 16.29 7
-4 -9 1 23.25 15.58 6
-4 -9 1 10.39 16.41 7
-4 -9 1 -12.45 12.66 1
-3 9 0 25.02 16.19 4
-3 -9 0 21.33 13.68 6
3 -9 0 19.81 12.04 7
-3 -9 0 22.55 13.72 7
3 -9 0 34.06 10.32 1
-2 9 -1 52.2 21.25 2
-2 -9 -1 47.58 12.57 1
-2 -9 -1 66.03 18.93 6
-2 -9 -1 57.13 14.16 7
2 -9 1 56.78 14.21 1
2 -9 1 85.13 18.78 7
-1 9 -2 43.46 14.95 2
-1 -9 -2 35.57 10.48 1
1 -9 2 13.79 14.24 7
-1 -9 -2 39.86 13.94 6
-1 -9 -2 23.68 14.26 7
0 -9 3 32.94 14.25 7
0 -9 -3 10.45 11.8 9
0 -9 3 15.5 11.39 1
0 -9 -3 6.93 10.45 1
0 -9 -3 19.85 13.56 7
1 -9 -4 34.56 13.25 6
1 -9 -4 17.11 9.46 1
-1 -9 4 -6.99 10.69 1
1 -9 -4 -19.65 12.36 9
1 -9 -4 36.49 14.37 7
-1 -9 4 -14.16 14.8 7
-2 -9 5 47.02 13.27 1
2 -9 -5 72.21 17.26 7
2 -9 -5 72.58 18.27 6
2 -9 -5 31.31 13.56 1
2 -9 -5 44.86 14.43 9
-2 -9 5 42.41 13.39 7
-3 9 6 19.56 14.24 4
-3 9 6 19.92 10.31 1
3 -9 -6 25.98 16.34 7
3 -9 -6 47.01 12.28 1
-3 -9 6 13.21 12.92 1
-3 -9 6 43.34 16.63 7
3 -9 -6 20.04 12.57 9
-4 9 7 10.8 15.54 4
-4 -9 7 2.91 13.33 1
4 -9 -7 41.46 21.75 7
-4 -9 7 9.24 17.78 7
-2 -10 -1 65.24 16.24 1
-2 -10 -1 40.51 16.15 6
2 -10 1 71.87 17.35 1
2 -10 1 40.29 19.54 7
-2 -10 -1 45.38 19.78 7
1 -10 2 -1.94 14.09 7
-1 -10 -2 45.86 20.67 6
1 -10 2 -6.16 12.29 1
-1 -10 -2 2.14 13.63 1
-1 -10 -2 19.24 16.91 7
0 -10 3 3.78 14.46 1
0 -10 3 5.44 12.28 7
0 -10 -3 -25.51 14.79 1
0 -10 -3 16.92 19.83 6
0 -10 -3 32.82 16.17 7
-1 -10 4 116.57 22.39 7
-1 -10 4 142.98 19.65 1
1 -10 -4 114.15 18.52 7
1 -10 -4 102.84 16.46 1
1 -10 -4 126.1 24.65 6
-10 0 6 13.26 11.26 5
10 0 -6 30.51 16.06 3
10 0 -6 13.56 16.94 7
10 0 -6 -3.89 10.5 9
9 0 -5 9.97 13.73 7
-9 0 5 20.3 13.34 5
9 0 -5 6.46 9.14 3
9 0 -5 -5.03 8.53 9
-8 0 4 16.98 9.51 5
-8 0 4 8.5 8.71 1
8 0 -4 -4.95 9.38 7
8 0 -4 2.87 9.57 3
-7 0 3 -7.08 6.32 1
-7 0 3 -0.47 7.49 5
7 0 -3 -13.38 9.25 7
7 0 -3 -11.82 6.81 3
6 0 -2 393.68 22.59 3
-6 0 2 370.56 21.3 4
-6 0 2 381.25 24.02 5
-6 0 2 367.64 19.88 1
-6 0 2 351.16 74.65 10
6 0 -2 334.02 77.25 10
-5 0 1 -4.38 4.33 5
-5 0 1 -52.55 30.53 10
-5 0 1 3.69 3.55 4
-5 0 1 3.88 4.31 6
-5 0 1 0.01 3.19 1
5 0 -1 -17.94 33.15 10
5 0 -1 -7.05 5.15 3
-4 0 0 3711.73 137.22 1
4 0 0 4025.19 190.39 10
-4 0 0 3642.83 187.81 10
-4 0 0 3584.98 155.85 6
-4 0 0 3757.94 151.44 5
-4 0 0 3653.87 144.07 2
4 0 0 3776.46 141.95 3
-4 0 0 3713.24 155.4 4
-3 0 -1 -1.16 1.47 1
3 0 1 6.75 12.62 10
-3 0 -1 0.98 3.79 6
-3 0 -1 5.24 4.05 5
-3 0 -1 9.97 4.3 2
-3 0 -1 -6.26 11.62 10
3 0 1 -4.3 2.6 3
2 0 2 167.04 9.65 3
-2 0 -2 160.85 10.46 2
2 0 2 156.94 15.29 10
2 0 2 154.63 9.9 7
-2 0 -2 151 6.62 1
2 0 2 140.84 9.43 4
-2 0 -2 166.66 16.32 10
-2 0 -2 147.29 10.17 5
-2 0 -2 150.47 10.71 6
1 0 3 2.99 1.66 7
1 0 3 2.91 2.48 3
-1 0 -3 -0.69 1.91 5
1 0 3 1.91 2.73 4
-1 0 -3 4.41 2.42 2
-1 0 -3 2.04 1.82 9
-1 0 -3 -4.94 4.05 8
0 0 -4 7632.01 295.22 9
0 0 4 8315.64 323.29 10
0 0 -4 7641.02 316.05 6
0 0 -4 7518.12 284.88 3
0 0 -4 7889.21 288.28 2
0 0 4 7605.62 317.8 4
0 0 4 7408.4 278.54 1
0 0 -4 8031.14 322.46 10
1 0 -5 -0.06 1.86 6
1 0 -5 1.95 3.52 8
-1 0 5 1.29 1.38 7
-1 0 5 -5.86 2.27 1
1 0 -5 -5.39 16.88 10
1 0 -5 2.03 2.75 3
-1 0 5 -6.08 13.39 10
1 0 -5 3.08 2.43 2
1 0 -5 0.36 1.75 9
-1 0 5 3.89 3.02 4
2 0 -6 13.11 3.39 6
2 0 -6 14.5 2.62 2
2 0 -6 16.58 3.84 9
2 0 -6 14.92 4.12 3
-2 0 6 11.9 3.18 7
2 0 -6 15.68 5.81 8
-2 0 6 22.56 5.31 4
2 0 -6 22.89 29.58 10
-2 0 6 16.51 26.14 10
-2 0 6 14.31 3.56 1
3 0 -7 4.7 2.51 2
3 0 -7 -0.18 3.56 8
3 0 -7 -0.12 3.54 9
-3 0 7 3.88 2.94 1
-3 0 7 22.15 32.88 10
-3 0 7 2.65 3.7 7
3 0 -7 -24.6 39.13 10
3 0 -7 -0.19 3.96 3
-3 0 7 -6.84 4.25 4
-4 0 8 1949.4 77.62 1
4 0 -8 1758.54 144.96 10
4 0 -8 1928.95 79.05 3
4 0 -8 2045.94 82.4 9
4 0 -8 1955.44 102.6 8
4 0 -8 1959.92 75.41 2
-4 0 8 1860.86 149.12 10
-4 0 8 2017.83 89.57 4
5 0 -9 3.1 6.06 3
5 0 -9 9.51 8 8
-5 0 9 1.87 4.16 1
-5 0 9 6.27 8.32 4
5 0 -9 -2.42 5.64 9
6 0 -10 163.75 15.03 9
6 0 -10 132.95 16.55 8
-6 0 10 134.42 13.02 1
-6 0 10 135.83 17.05 4
6 0 -10 120.89 13.1 3
-7 0 11 -4.15 6.5 1
7 0 -11 3.86 8.63 3
7 0 -11 -10.02 9.35 9
7 0 -11 20.98 12.67 8
-7 0 11 -4.12 8.45 4
-8 0 12 80.81 14.76 1
-8 0 12 67.92 18.14 4
8 0 -12 81.04 12.75 3
8 0 -12 64.82 14.25 9
9 0 -13 10.64 9.35 9
9 0 -13 3.44 15.28 7
-9 0 13 19.61 25.42 4
9 0 -13 -7.48 13.68 3
-9 0 13 16.09 14.05 1
-10 1 6 30.9 12.99 5
10 1 -6 26.87 12.08 3
10 1 -6 9.79 17.16 7
10 1 -6 12.11 14.76 9
10 -1 -6 27.55 16.08 3
10 -1 -6 17.08 10.91 9
10 -1 -6 -13.1 16.56 7
9 1 -5 23.9 12.91 3
-9 1 5 9.17 11.97 5
9 -1 -5 4.89 13.88 7
9 -1 -5 -0.4 10.59 9
9 -1 -5 -4.76 11.65 3
-9 -1 5 -15.38 12.77 1
-9 -1 5 11.32 11 5
8 1 -4 8.99 9.8 3
-8 1 4 22.64 11 1
-8 1 4 12.02 7.81 5
-8 -1 4 13.31 10.35 5
-8 -1 4 29.82 9.03 1
8 -1 -4 14.69 9.81 9
8 -1 -4 22.47 12.64 7
8 -1 -4 30.4 11.38 3
7 1 -3 140 14.42 3
-7 1 3 123.21 13.91 5
-7 1 3 130.21 12.44 1
-7 1 3 130.47 14.05 4
7 -1 -3 161.36 17.38 7
7 -1 -3 124.77 13.6 3
7 -1 -3 132.65 13.71 9
-7 -1 3 121.56 11.62 1
-7 -1 3 128.65 14.64 5
-6 1 2 -4.46 5.52 4
-6 1 2 9.85 7.58 5
-6 1 2 14.42 41.12 10
6 1 -2 -21.34 7.49 3
-6 1 2 0.13 4.89 1
6 1 -2 -61.6 64.4 10
6 -1 -2 1.29 5.2 7
6 -1 -2 54.48 62.16 10
-6 -1 2 3.95 4.9 1
6 -1 -2 -6.43 6.45 3
-6 -1 2 66.59 57.26 10
-6 -1 2 -4.43 5.19 6
-6 -1 2 -3.05 6.8 5
-5 1 1 23.21 5.63 6
-5 1 1 25.84 5.27 4
-5 1 1 31.83 7.25 5
5 1 -1 15.97 39.4 10
-5 1 1 39.83 6.97 2
5 1 -1 40.01 6.92 3
-5 1 1 36.11 38.74 10
-5 1 1 25.82 4.91 1
-5 -1 1 36.03 7.19 5
5 -1 -1 24.53 6.09 3
-5 -1 1 28.38 5.45 6
5 -1 -1 72.2 41.41 10
5 -1 -1 23.57 7.66 7
-5 -1 1 18.65 4.5 4
-5 -1 1 22.72 4.77 1
-5 -1 1 1.36 41.78 10
-4 1 0 225.42 14.84 4
-4 1 0 269.41 15.61 6
4 1 0 292.07 45.4 10
-4 1 0 237.24 15.55 5
-4 1 0 253.21 14.88 2
-4 1 0 244.73 12.41 1
4 1 0 230.53 14.66 3
-4 1 0 226.4 38.98 10
-4 -1 0 239.64 12.55 1
-4 -1 0 229.28 15.6 6
-4 -1 0 250.02 45.28 10
4 -1 0 230.46 35.6 10
4 -1 0 241.79 17.03 7
4 -1 0 243.09 14.35 3
-4 -1 0 235.49 15.35 5
3 1 1 3971.42 184.72 10
3 1 1 3370.25 155.93 4
-3 1 -1 4024.04 177.97 10
-3 1 -1 3799.07 145.54 2
-3 1 -1 3754.34 152.9 5
3 1 1 3729.37 143.48 3
-3 1 -1 3633.81 138.2 1
-3 1 -1 3557.26 158.93 4
-3 -1 -1 3906.84 146.67 2
3 -1 1 3979.46 176.63 10
-3 -1 -1 3852.47 159.41 6
-3 -1 -1 3998.29 161.1 7
-3 -1 -1 3956.72 183.84 10
3 -1 1 3820 142.63 3
-3 -1 -1 3679.62 152.31 5
-3 -1 -1 3805.73 138.94 1
3 -1 1 3890.15 161.29 7
-2 1 -2 471.41 25.45 6
-2 1 -2 517.11 19.38 1
2 1 2 500.04 22.96 3
-2 1 -2 523.88 23.75 2
2 1 2 462.25 22.96 4
2 1 2 549.18 40.87 10
-2 1 -2 502.95 31.69 10
-2 1 -2 515.21 24.43 5
2 -1 2 525.57 22.2 3
2 -1 2 530.97 25.35 7
2 -1 2 565.61 32.73 10
-2 -1 -2 510.93 26.3 6
-2 -1 -2 495.38 24.2 2
-2 -1 -2 486.01 20.25 1
-2 -1 -2 544.91 40.25 10
-2 -1 -2 466.91 24.33 7
-2 -1 -2 511.81 24.39 5
-1 1 -3 2588.02 98.68 2
1 1 3 2473.15 106.53 4
-1 1 -3 2350.95 107.73 6
-1 1 -3 2535.12 103.14 5
-1 -1 -3 2538.64 93.28 1
1 -1 3 2690.58 96.03 3
-1 -1 -3 2279.06 125.18 8
-1 -1 -3 2684 121.26 10
-1 -1 -3 2675.81 100.64 9
1 -1 3 2580.46 107.47 7
1 -1 3 2528.42 108.26 4
-1 -1 -3 2524.24 98.73 2
-1 -1 -3 2670.34 123 10
-1 -1 -3 2711.78 108.74 6
-1 -1 -3 2528.02 103.06 5
0 1 4 271.46 14.95 4
0 1 -4 251.69 25.09 10
0 1 -4 266.99 15.16 6
0 1 -4 259.8 13.88 2
0 1 4 230.15 30.07 10
0 1 -4 257.27 12.64 3
0 1 4 256.52 11.95 1
0 1 -4 262.11 11.93 9
0 -1 4 273.9 15.48 4
0 -1 -4 272.99 13.94 3
0 -1 4 247.45 11.13 1
0 -1 4 273.99 13.45 7
0 -1 -4 281.73 13.64 2
0 -1 4 279.99 27.4 10
0 -1 -4 251.72 13.82 9
0 -1 -4 247.71 31.21 10
0 -1 -4 257.65 15.1 6
0 -1 -4 246.6 17.76 8
-1 1 5 2222.09 85.52 1
-1 1 5 2340.58 128.84 10
1 1 -5 2361.81 89.75 9
1 1 -5 2292.5 88.5 2
-1 1 5 2297.12 98.69 4
1 1 -5 2334.44 87.35 3
1 1 -5 2120.45 112.67 8
1 1 -5 2305.14 96.75 6
1 1 -5 2392.91 125.71 10
-1 -1 5 2202.84 96.31 7
1 -1 -5 2408.25 115.72 8
1 -1 -5 2414.43 96.89 6
1 -1 -5 2352.01 87.57 2
1 -1 -5 2351.8 128.49 10
1 -1 -5 2328.8 88.49 3
-1 -1 5 2291.42 98.11 4
-1 -1 5 2421.47 126.47 10
-1 -1 5 2297.73 85.09 1
1 -1 -5 1923.09 94.49 7
1 -1 -5 2232.49 91.26 9
2 1 -6 221.22 12.71 3
2 1 -6 229.12 44.25 10
2 1 -6 208.66 12.48 9
2 1 -6 203.33 11.95 2
-2 1 6 253.35 46.45 10
2 1 -6 217.16 16.02 8
-2 1 6 222.06 15.4 4
-2 1 6 227.1 12.47 1
-2 -1 6 204.06 14.09 4
2 -1 -6 218.91 13.2 3
2 -1 -6 207.68 10.71 2
2 -1 -6 225.56 12.83 6
-2 -1 6 161.18 41.46 10
-2 -1 6 222.59 13.14 7
-2 -1 6 230.02 12.39 1
2 -1 -6 250.24 14.19 9
2 -1 -6 300.49 47.61 10
2 -1 -6 243.87 19.29 8
2 -1 -6 208.08 12.02 7
-3 1 7 1149.43 104.35 10
3 1 -7 1165.35 62.66 8
3 1 -7 1178.1 50.55 9
3 1 -7 1152.65 47.79 2
-3 1 7 1138.19 48.34 1
3 1 -7 1180.74 48.9 3
-3 1 7 1240.62 57.17 4
3 1 -7 1139.44 98.19 10
3 -1 -7 1171.59 49.64 3
-3 -1 7 1182.75 48.17 1
3 -1 -7 1166.58 51.38 9
3 -1 -7 1133.63 50.53 6
3 -1 -7 1189.32 53.09 7
-3 -1 7 1226.56 54.41 7
3 -1 -7 1116.62 97.9 10
3 -1 -7 1252.83 66.82 8
3 -1 -7 1118.48 45.3 2
-3 -1 7 1173.47 54.97 4
-3 -1 7 1053.89 99.56 10
4 1 -8 3.5 3.96 8
4 1 -8 1.16 4.43 9
4 1 -8 -0.03 3.12 2
-4 1 8 34.12 59.45 10
4 1 -8 0.31 3.96 3
-4 1 8 -6.25 7.27 4
-4 1 8 -2.06 3.41 1
4 1 -8 -54.31 42.39 10
-4 -1 8 1.65 5.65 4
4 -1 -8 -0.97 2.91 6
4 -1 -8 -3.39 3.86 9
4 -1 -8 -13.77 62.65 10
-4 -1 8 40.21 51.73 10
4 -1 -8 7.85 4.92 7
-4 -1 8 -1.9 5.04 7
4 -1 -8 -5.87 5.39 3
-4 -1 8 0.97 3.26 1
5 1 -9 160.54 13.06 3
5 1 -9 129.12 12.64 9
-5 1 9 133.23 12.93 1
-5 1 9 164.63 16.34 4
5 1 -9 131.67 15.12 8
-5 -1 9 129.95 12.66 1
5 -1 -9 170.63 13.6 3
5 -1 -9 160.55 13.71 9
-5 -1 9 178.46 15.37 4
5 -1 -9 156.45 13.78 7
-5 -1 9 177.62 15.77 7
-6 1 10 50.74 8.67 1
6 1 -10 31.99 8.89 3
6 1 -10 37.76 9.03 9
6 1 -10 22.85 11.34 8
6 -1 -10 21.33 8.71 3
-6 -1 10 27.75 7.05 1
6 -1 -10 23.7 8.52 9
-6 -1 10 31.83 9.76 7
-6 -1 10 18.32 9.71 4
6 -1 -10 25.54 9.11 7
7 1 -11 82.13 11.71 9
-7 1 11 96.34 17.59 4
-7 1 11 76.17 12.99 1
7 1 -11 46.22 11.46 3
-7 -1 11 49.18 14.68 4
7 -1 -11 84.33 13.41 3
-7 -1 11 88.8 13.21 1
7 -1 -11 51.41 13.24 7
7 -1 -11 73.78 13.05 9
-8 1 12 1.65 11.52 1
8 1 -12 1.66 8.1 3
-8 1 12 10.51 14.73 4
8 1 -12 16.38 8.94 9
8 -1 -12 -2.03 12.58 7
-8 -1 12 -7.56 9.57 1
8 -1 -12 -6.1 10.28 9
8 -1 -12 16.14 12.33 3
-9 1 13 28.98 14.9 1
9 1 -13 37.87 12.2 9
-9 1 13 35.42 14.99 4
9 1 -13 31.29 15.32 3
9 -1 -13 33.13 19.85 7
9 -1 -13 22.23 13.37 3
-9 -1 13 36.28 15.1 1
9 -1 -13 39.88 15.61 9
10 2 -6 15.16 13.34 3
-10 2 6 16.2 13.61 5
-10 -2 6 14.85 11.42 5
10 -2 -6 -6.38 14.83 3
10 -2 -6 24.96 16.67 7
9 2 -5 1.91 12.19 3
-9 2 5 1.34 13.25 5
9 -2 -5 9.71 12.66 3
-9 -2 5 12.96 9.2 1
9 -2 -5 4.86 14.51 7
9 -2 -5 8.33 10.98 9
-8 2 4 15.87 13.14 4
8 2 -4 8.23 9.18 3
-8 2 4 -1.05 10.21 5
-8 2 4 -0.58 8.18 1
8 -2 -4 9.34 11 7
8 -2 -4 -3.23 8.52 9
8 -2 -4 -5.96 9.88 3
-8 -2 4 4.68 7.72 1
-8 -2 4 17.83 10.45 5
-7 2 3 80.42 9.34 1
-7 2 3 91.46 11.72 4
-7 2 3 70.38 12.01 5
7 2 -3 82 12.18 3
7 -2 -3 91.84 12.32 3
7 -2 -3 71.59 12.31 7
-7 -2 3 92.99 12.78 5
7 -2 -3 73.66 10.76 9
-7 -2 3 61.65 9.71 1
-6 2 2 482.57 27.98 4
-6 2 2 464.45 24.76 2
-6 2 2 461.63 89.47 10
-6 2 2 439.97 27.08 5
6 2 -2 476.82 25.92 3
-6 2 2 459.68 23.8 1
6 -2 -2 479.47 25.75 3
6 -2 -2 449.8 30.19 7
6 -2 -2 428.24 73.58 10
-6 -2 2 483.1 30.07 7
-6 -2 2 458.37 24 1
-6 -2 2 437.45 85.41 10
-6 -2 2 438.01 26.99 5
6 -2 -2 484.71 25.78 9
5 2 -1 28.2 51.09 10
-5 2 1 28.68 6.65 4
-5 2 1 -9.09 38.95 10
-5 2 1 14.11 3.82 1
5 2 -1 23.36 6.81 3
-5 2 1 18.5 5.52 2
-5 2 1 12.98 5.43 5
-5 -2 1 13.3 4.87 1
5 -2 -1 13.07 6.81 7
-5 -2 1 15.64 6.21 5
-5 -2 1 18.24 5.94 7
5 -2 -1 31.1 37.06 10
-5 -2 1 59.83 48.63 10
5 -2 -1 14.25 4.96 3
-5 -2 1 14.7 5.03 6
5 -2 -1 12.66 4.86 9
4 2 0 1417.47 60.41 3
-4 2 0 1467.37 98.33 10
-4 2 0 1454.53 64.31 5
-4 2 0 1505.2 67.23 4
4 2 0 1494.61 108.84 10
-4 2 0 1466.06 60.76 2
-4 2 0 1403.11 57.01 1
4 -2 0 1455.89 68.39 7
-4 -2 0 1473.08 63.8 5
-4 -2 0 1452.99 57.67 1
-4 -2 0 1510.84 108.61 10
4 -2 0 1498.31 60.26 9
4 -2 0 1564.47 101.41 10
4 -2 0 1433.4 58.89 3
-4 -2 0 1443.72 67.35 6
-4 -2 0 1512.45 68.43 7
-3 2 -1 0.18 2.56 2
-3 2 -1 1.3 2.16 1
-3 2 -1 4.23 20.79 10
3 2 1 17.19 21.97 10
-3 2 -1 2.05 3.64 5
3 2 1 -7.16 4.11 3
-3 2 -1 -1.28 2.95 4
3 -2 1 0.78 4.1 7
-3 -2 -1 1.99 3.89 7
-3 -2 -1 -0.28 3.51 5
-3 -2 -1 7.92 5.08 6
-3 -2 -1 2.45 2.83 1
3 -2 1 -3.17 2.96 3
-3 -2 -1 -19.35 26.33 10
-3 -2 -1 -0.25 3.65 8
3 -2 1 8.36 20.17 10
3 -2 1 -0.34 2.03 9
2 2 2 940.74 43.03 4
2 2 2 1021.25 42.05 3
-2 2 -2 1077.58 43.1 2
-2 2 -2 988.14 62.44 10
2 2 2 1047.24 71.91 10
-2 2 -2 959.98 38.3 1
-2 2 -2 1052.54 44.28 5
-2 -2 -2 975.73 45.84 7
2 -2 2 1047.73 64.87 10
-2 -2 -2 1050 71.68 10
2 -2 2 1071.51 47.12 7
-2 -2 -2 1140.72 75.25 10
-2 -2 -2 991.97 47.75 6
2 -2 2 990.47 39.34 9
-2 -2 -2 977.78 43.49 5
-2 -2 -2 1058.22 39.91 1
2 -2 2 1029.16 39.9 3
-2 -2 -2 876.87 52.85 8
1 2 3 288.59 15.69 4
-1 2 -3 327.48 16.6 2
-1 2 -3 310.74 16.11 5
-1 -2 -3 307.08 14.19 1
-1 -2 -3 271.97 19.59 8
-1 -2 -3 306.69 38.75 10
1 -2 3 313.96 16.82 7
-1 -2 -3 275.74 34 10
1 -2 3 296.81 12.98 1
-1 -2 -3 318.35 16.19 5
-1 -2 -3 313.4 16.38 9
1 -2 3 292.04 28.54 10
1 -2 3 295.7 30.02 10
1 -2 3 294.06 13.29 3
-1 -2 -3 318.14 18.58 6
0 2 4 9270.36 343.31 1
0 2 -4 9560.63 400.55 10
0 2 -4 9136.28 359.24 9
0 2 4 9580.04 389.67 4
0 2 4 9662.03 414.57 10
0 -2 -4 9234.12 349.72 3
0 -2 4 9763.61 402.23 10
0 -2 4 9844.07 342.26 1
0 -2 -4 9442.91 412.12 10
0 -2 4 9384.73 390.13 4
0 -2 -4 9581.17 388.18 6
0 -2 -4 9413.83 453.13 8
0 -2 -4 9446.15 363.7 9
0 -2 4 9694.44 391.78 7
1 2 -5 469.75 22.86 2
-1 2 5 515.14 26.72 4
1 2 -5 513.97 21.24 3
-1 2 5 403.82 50 10
-1 2 5 476.1 21.9 1
1 2 -5 460.01 20.98 9
1 2 -5 512.47 52.92 10
1 2 -5 470.34 28.1 8
1 -2 -5 498.1 23.36 3
-1 -2 5 434.51 24.9 4
1 -2 -5 543.2 32.57 8
1 -2 -5 469.98 57.66 10
-1 -2 5 477.47 51.08 10
1 -2 -5 481.15 23.81 9
1 -2 -5 512.68 25.23 6
1 -2 -5 471.78 22.07 7
-1 -2 5 478.26 20.88 1
-1 -2 5 459.29 24.12 7
1 -2 -5 451.01 21.25 2
2 2 -6 739.76 33.68 9
-2 2 6 805.92 40.02 4
2 2 -6 760.89 32.75 3
-2 2 6 777.51 33.64 1
2 2 -6 779.33 42.24 8
2 2 -6 701.59 69.98 10
-2 2 6 765.9 76.42 10
2 2 -6 736.75 34.09 2
2 -2 -6 741.38 79.64 10
-2 -2 6 816.18 33.17 1
-2 -2 6 749.45 37.7 4
2 -2 -6 750.76 35.33 7
2 -2 -6 751.57 34.49 3
2 -2 -6 779.6 36.46 6
2 -2 -6 919.9 49.02 8
-2 -2 6 770.21 37.43 7
2 -2 -6 782.02 36.15 9
-2 -2 6 853.98 76.39 10
-3 2 7 324.05 17.46 1
3 2 -7 316.02 63.01 10
3 2 -7 280.76 19.48 8
-3 2 7 371.54 67.51 10
-3 2 7 302.54 21.3 4
3 2 -7 306.39 17.27 9
3 2 -7 301.87 16.5 3
3 -2 -7 406.25 70.17 10
3 -2 -7 288.18 17.1 7
-3 -2 7 316.73 17.12 1
-3 -2 7 298.45 19.1 4
3 -2 -7 287.5 18.43 9
-3 -2 7 301.29 18.79 7
-3 -2 7 488.7 73.61 10
3 -2 -7 315.84 18.02 3
3 -2 -7 296.33 16.36 6
-4 2 8 441.88 29.8 4
-4 2 8 432.58 76.96 10
4 2 -8 444.14 24.3 9
-4 2 8 483.63 24.8 1
4 2 -8 433.46 23.21 3
-4 -2 8 465.81 27.23 7
4 -2 -8 459.8 24.8 3
-4 -2 8 461.55 26.95 4
-4 -2 8 398.26 72.24 10
4 -2 -8 427.95 25.35 9
-4 -2 8 468.39 23.92 1
4 -2 -8 466.51 25.62 7
5 2 -9 49.73 8.37 3
-5 2 9 75.1 13.73 4
5 2 -9 39.31 8.07 9
-5 2 9 48.41 9.11 1
5 -2 -9 70.97 9.61 3
-5 -2 9 54.69 10.6 7
5 -2 -9 49.46 7.86 7
-5 -2 9 33.51 8.93 4
-5 -2 9 47.93 8.62 1
5 -2 -9 44.43 9.09 9
-6 2 10 47.77 13.44 4
6 2 -10 25.89 8.87 9
-6 2 10 45.08 9.95 1
6 2 -10 38.22 9.19 3
6 -2 -10 32.04 9.25 9
-6 -2 10 32.71 9.23 1
-6 -2 10 28.88 9.71 4
6 -2 -10 28.43 9.68 3
6 -2 -10 35.83 9.95 7
-6 -2 10 23.35 10.01 7
-7 2 11 57.93 13 1
7 2 -11 40.85 11.65 9
7 2 -11 21.95 10.12 3
-7 2 11 48.64 12.56 4
7 -2 -11 31.75 9.65 7
7 -2 -11 42.5 12.18 9
-7 -2 11 42.58 11.77 1
-7 -2 11 30.21 12.75 7
-7 -2 11 52.63 14.12 4
7 -2 -11 47.65 10 3
-8 2 12 197.32 20.48 1
8 2 -12 168.19 19 9
-8 2 12 114.96 19.37 4
8 2 -12 162.88 18.59 3
8 -2 -12 112.77 15.58 3
-8 -2 12 150.5 18.09 1
8 -2 -12 169.1 20.11 9
8 -2 -12 98.83 18.37 7
9 2 -13 10.54 10.31 9
-9 2 13 -9.17 13.22 4
-9 2 13 -11.02 14.36 1
9 2 -13 -6.69 10.1 3
9 -2 -13 20.44 12 9
9 -2 -13 -7.65 14.49 3
-9 -2 13 -12.82 10.91 1
9 -2 -13 4.85 21.28 7
9 3 -5 -9.42 9.48 3
-9 3 5 39.95 13.93 5
-9 -3 5 19.49 9.42 1
9 -3 -5 -0.6 8.73 3
-9 -3 5 16.12 13.16 5
9 -3 -5 21.76 15.76 7
-8 3 4 20.93 9.17 5
8 3 -4 15.57 11.25 3
-8 3 4 24.7 11.13 4
8 -3 -4 15.99 13.56 7
-8 -3 4 30.09 10.52 7
8 -3 -4 33.55 11.31 3
-8 -3 4 28.96 11.68 5
-8 -3 4 21.84 9 1
7 3 -3 17.72 9.28 3
-7 3 3 19.66 7.17 1
-7 3 3 16.14 9.44 4
-7 3 3 6.98 6.58 5
7 -3 -3 21.81 9.06 3
-7 -3 3 30.76 9.54 7
-7 -3 3 4.97 6.34 5
-7 -3 3 11.45 5.83 1
7 -3 -3 21.49 9.06 7
6 3 -2 496.69 27.4 3
-6 3 2 457.34 28.11 5
-6 3 2 483.06 26 2
-6 3 2 492.94 25.03 1
-6 3 2 502.67 29.7 4
-6 -3 2 456.31 27.26 5
-6 -3 2 467.94 25.05 1
-6 -3 2 486.26 31.45 7
6 -3 -2 477.17 25.6 9
6 -3 -2 474.75 25.39 3
-6 -3 2 424.25 28.7 6
6 -3 -2 492.13 31.76 7
-5 3 1 217.09 14.63 2
-5 3 1 214.8 16.55 4
-5 3 1 250.44 63.31 10
5 3 -1 174.07 69.46 10
5 3 -1 185.41 14.93 3
-5 3 1 197.46 15.37 5
-5 3 1 226.13 14.08 1
-5 -3 1 221.23 15.72 5
-5 -3 1 201.84 17.38 6
5 -3 -1 199.89 13.5 3
-5 -3 1 244.79 18.24 7
-5 -3 1 230.99 14.21 1
5 -3 -1 246.91 64.53 10
5 -3 -1 198.72 13.21 9
5 -3 -1 196.32 16.96 7
-5 -3 1 253 61.45 10
-4 3 0 83.98 9.32 5
-4 3 0 96.14 34.64 10
-4 3 0 78.81 7.46 1
4 3 0 33.83 46.8 10
-4 3 0 71.08 8.04 2
-4 3 0 92.56 10.43 4
4 3 0 68.22 7.96 3
4 -3 0 76.72 10.07 7
-4 -3 0 72.86 7.1 1
-4 -3 0 81.46 10.12 7
-4 -3 0 86.01 8.47 5
4 -3 0 75.34 7.01 3
4 -3 0 66.16 6.33 9
-4 -3 0 33.55 43.34 10
4 -3 0 149.65 38.88 10
-4 -3 0 73.79 10.8 6
-3 3 -1 2934.5 124.91 4
-3 3 -1 2857.39 117.23 5
-3 3 -1 2851.98 158.71 10
-3 3 -1 2996.7 107.38 1
3 3 1 2550.79 163.53 10
3 3 1 2887.08 111.14 3
-3 3 -1 2869.89 112.02 2
-3 -3 -1 2949.07 170.06 10
-3 -3 -1 3092.28 125.39 7
3 -3 1 2754.17 110.93 9
3 -3 1 2944.96 108.14 3
3 -3 1 2965.36 160.22 10
-3 -3 -1 2739.27 116.03 5
-3 -3 -1 2992.89 125.99 6
-3 -3 -1 2922.2 108.39 1
-3 -3 -1 2544.18 140 8
3 -3 1 2881.81 125.32 7
2 3 2 99.76 8.22 3
-2 3 -2 125.51 29.63 10
-2 3 -2 83.77 8.88 4
-2 3 -2 92.45 8.01 5
2 3 2 71.23 5.49 4
-2 3 -2 85.66 8.13 2
-2 3 -2 91.91 6.34 1
-2 -3 -2 60.46 32.09 10
-2 -3 -2 111.58 35.07 10
-2 -3 -2 94.59 8.87 9
2 -3 2 64.69 25.66 10
2 -3 2 93.3 5.59 3
-2 -3 -2 67.75 8.6 8
-2 -3 -2 88.44 7.15 5
-2 -3 -2 102.01 7.6 1
2 -3 2 104.77 29.69 10
-2 -3 -2 80.58 8.06 7
2 -3 2 92.35 6.48 1
-2 -3 -2 113.44 11.06 6
2 -3 2 100.15 9.45 7
1 3 3 1665.66 65.26 3
-1 3 -3 1716.89 66.71 2
1 3 3 1604.79 70.56 4
-1 3 -3 1626.85 67.64 5
1 -3 3 1581.82 97.95 10
-1 -3 -3 1712.46 63.67 1
-1 -3 -3 1362.53 70.89 7
-1 -3 -3 1660.61 68.43 9
-1 -3 -3 1539.23 109.07 10
1 -3 3 1735.67 62.26 1
1 -3 3 1622.35 73.01 7
1 -3 3 1589.28 100.5 10
-1 -3 -3 1555.19 108.19 10
-1 -3 -3 1766.97 74.75 6
1 -3 3 1649.71 60.79 3
0 3 -4 572.7 27.75 2
0 3 -4 585.27 57.63 10
0 3 4 622.27 26.41 1
0 3 4 639.17 67.89 10
0 3 4 614 30.32 4
0 -3 4 604.09 30.26 7
0 -3 -4 591.85 65.85 10
0 -3 -4 613.71 31.2 6
0 -3 -4 585.15 28.79 9
0 -3 4 559.27 30.34 4
0 -3 -4 537.58 35.9 8
0 -3 4 503.61 52.19 10
0 -3 -4 559.15 28.13 7
0 -3 4 651.5 25.5 1
1 3 -5 448.68 57.47 10
1 3 -5 563.27 27.43 2
-1 3 5 488.05 66.47 10
1 3 -5 561.12 23.63 3
-1 3 5 573.03 26.38 1
-1 3 5 599.84 31.26 4
1 -3 -5 588.75 36.86 8
-1 -3 5 569.67 25.05 1
1 -3 -5 565.97 26.79 3
1 -3 -5 609.27 30.04 6
-1 -3 5 544.37 29.04 7
-1 -3 5 547.15 63.27 10
1 -3 -5 571.5 27.34 7
-1 -3 5 571.4 29.67 4
1 -3 -5 568.9 66.21 10
1 -3 -5 563.62 28.43 9
-2 3 6 2151.77 153.72 10
-2 3 6 2264.87 89.08 1
2 3 -6 2332.8 151.9 10
-2 3 6 2328.92 103.11 4
2 3 -6 2340.11 87.67 3
2 -3 -6 2184.38 157.08 10
-2 -3 6 2514.03 101.78 7
2 -3 -6 2264.57 98.3 7
2 -3 -6 2332.96 98.88 6
-2 -3 6 2212.13 147.35 10
2 -3 -6 2194.6 94.32 9
2 -3 -6 2233.69 90.27 3
-2 -3 6 2287.88 87.89 1
-2 -3 6 2278.04 100.12 4
3 3 -7 636.88 28.33 3
3 3 -7 544.36 34.24 8
-3 3 7 679.36 88.49 10
-3 3 7 646.63 30.3 1
3 3 -7 760.65 93.54 10
-3 3 7 668.89 37.15 4
3 -3 -7 617.43 31.42 7
-3 -3 7 639.31 29.21 1
3 -3 -7 565.16 96.22 10
3 -3 -7 641.77 32.31 9
3 -3 -7 642.52 30.53 3
-3 -3 7 631.03 33.41 7
3 -3 -7 577.4 30.58 6
-3 -3 7 418.89 76.36 10
-3 -3 7 637.81 32.93 4
4 3 -8 2.83 4.6 3
-4 3 8 -3.89 5.46 1
-4 3 8 -5.15 8.86 4
4 -3 -8 7.04 4.19 7
4 -3 -8 5.69 6.25 3
4 -3 -8 0.75 3.99 9
-4 -3 8 5.87 4.61 4
-4 -3 8 1.68 5.19 1
-4 -3 8 5.84 6.76 7
5 3 -9 235.69 16.75 9
-5 3 9 228.29 16.89 1
5 3 -9 212.94 15.19 3
-5 3 9 210.08 21.52 4
5 -3 -9 240.03 18.3 9
-5 -3 9 238.57 18.44 4
-5 -3 9 208.19 16.02 1
-5 -3 9 218.33 19.62 7
5 -3 -9 233.21 17.65 7
5 -3 -9 222.91 17.5 3
6 3 -10 405.27 23.4 3
-6 3 10 368.54 24.75 1
-6 3 10 396.87 30.73 4
6 3 -10 382.07 25.11 9
6 -3 -10 387.11 26.31 7
6 -3 -10 370.61 24.89 3
-6 -3 10 300.03 25.03 4
6 -3 -10 344.96 24.89 9
-6 -3 10 366.22 27.88 7
-6 -3 10 409.7 25.22 1
-7 3 11 25.48 14.84 4
7 3 -11 26.32 10.19 3
-7 3 11 34.77 10.06 1
-7 -3 11 37.62 13.76 7
-7 -3 11 35.5 11.67 1
7 -3 -11 14.61 7.98 3
7 -3 -11 33.6 12.11 7
7 -3 -11 9.83 11.01 9
8 3 -12 53.38 13.86 3
-8 3 12 31.95 16.94 4
-8 3 12 54.22 12.68 1
8 3 -12 71.16 12.86 9
8 -3 -12 3.72 18.17 7
-8 -3 12 38.02 13.36 1
8 -3 -12 49.35 13.99 3
8 -3 -12 47.74 14.7 9
-8 -3 12 34.02 12.71 7
-9 3 13 15.65 17.23 4
9 3 -13 5.74 14.55 9
-9 3 13 12.14 16.3 1
9 -3 -13 -1.74 10.55 3
9 -3 -13 38.65 17.15 9
-9 -3 13 20.78 14.52 1
9 4 -5 81.74 17.23 3
-9 4 5 52.05 13.59 5
-9 4 5 80.34 17.84 4
-9 -4 5 56.22 15.06 1
-9 -4 5 56.95 15.02 7
-9 -4 5 89.48 19.04 5
9 -4 -5 54.84 15.43 7
8 4 -4 0.32 8 3
-8 4 4 -1.83 8.24 5
-8 4 4 16.57 9.38 4
-8 -4 4 12.31 10.26 1
8 -4 -4 9.79 10.13 7
-8 -4 4 -4.97 12.2 5
-8 -4 4 11.77 15.06 7
7 4 -3 112.7 13.64 3
-7 4 3 99.35 14.93 1
-7 4 3 136.59 15.18 4
-7 4 3 115.97 14.44 5
-7 -4 3 119.44 14.4 5
-7 -4 3 128.81 18 7
7 -4 -3 157.93 14.66 3
7 -4 -3 132.92 18.27 7
-7 -4 3 126.25 12.44 1
-6 4 2 95.36 13.12 4
6 4 -2 71.64 9.81 3
-6 4 2 83.52 11.21 5
-6 4 2 53.52 9.28 1
-6 -4 2 82.78 13.57 6
-6 -4 2 63.28 9.25 5
6 -4 -2 71.97 13.11 7
-6 -4 2 89.07 14.26 7
6 -4 -2 94.58 9.74 3
-6 -4 2 75.09 10.2 1
-5 4 1 76.88 10.55 5
-5 4 1 58.96 8.34 1
-5 4 1 64.13 8.79 2
-5 4 1 123.67 83.81 10
5 4 -1 64.27 9.33 3
-5 4 1 52.08 10.21 4
-5 -4 1 58.05 7.5 5
-5 -4 1 74.2 11.9 7
-5 -4 1 42.14 6.79 1
5 -4 -1 63.25 7.26 3
5 -4 -1 34.52 9.78 7
5 -4 -1 132.56 65.86 10
-5 -4 1 44.79 11.33 6
-4 4 0 157.07 11.42 1
-4 4 0 186.73 58.45 10
4 4 0 129.08 59.5 10
-4 4 0 139.33 11.81 2
4 4 0 160.38 12.06 3
-4 4 0 141.48 12.82 5
-4 4 0 147.56 14.29 4
4 -4 0 134.92 14.21 7
-4 -4 0 128.6 15.14 6
-4 -4 0 154.25 11.56 5
-4 -4 0 163.37 11.73 1
4 -4 0 128.26 61.24 10
4 -4 0 162.59 10.51 3
-4 -4 0 103.17 60.41 10
-4 -4 0 163.11 14.98 7
3 4 1 270.73 16.68 3
-3 4 -1 304.15 17.49 5
-3 4 -1 298.72 15.95 1
-3 4 -1 349 58.75 10
-3 4 -1 310.44 17.79 2
-3 4 -1 261.78 19.92 4
3 4 1 287.46 57.41 10
-3 -4 -1 311.15 19.94 7
3 -4 1 261.15 19.49 7
-3 -4 -1 277.56 54.52 10
-3 -4 -1 426.35 62.15 10
-3 -4 -1 293.15 16.28 5
3 -4 1 276.4 14.08 3
-3 -4 -1 319.56 22.8 6
-3 -4 -1 311.03 17.1 1
3 -4 1 181.21 51.28 10
2 4 2 174.76 10.53 4
-2 4 -2 198.51 13.58 2
2 4 2 175.38 12.08 3
-2 4 -2 191.31 15.67 4
-2 4 -2 203.26 12.49 5
-2 -4 -2 220.97 46.51 10
2 -4 2 154.5 42.59 10
-2 -4 -2 174.9 14.73 8
2 -4 2 213.59 11.96 1
-2 -4 -2 208.78 17.12 6
-2 -4 -2 205.26 14.58 9
-2 -4 -2 193.48 54.3 10
-2 -4 -2 197.09 12.69 1
2 -4 2 194.66 42.39 10
-2 -4 -2 211.5 12.11 5
-2 -4 -2 179.66 14.26 7
2 -4 2 205.31 15.63 7
-1 4 -3 366.21 20.34 2
-1 4 -3 379.59 18.68 5
1 4 3 360.86 19.06 3
1 4 3 355 19.4 4
-1 -4 -3 347.68 18.56 1
-1 -4 -3 364.17 20.84 9
1 -4 3 360.06 52.63 10
1 -4 3 350.76 54.78 10
-1 -4 -3 299.17 23.85 8
-1 -4 -3 450.12 66.59 10
-1 -4 -3 379.01 23.58 6
-1 -4 -3 346.15 20.57 7
1 -4 3 369.4 17.74 1
1 -4 3 352.68 21.78 7
-1 -4 -3 351.8 61.02 10
0 4 4 902.12 43.51 4
0 4 4 901.36 95.13 10
0 4 -4 896.71 40.87 2
0 4 4 903.83 39.08 1
0 -4 4 848.88 82.94 10
0 -4 -4 912.12 52.89 8
0 -4 -4 933.38 42.34 9
0 -4 -4 917 45.48 6
0 -4 -4 868.53 42.84 7
0 -4 4 910.46 44.94 7
0 -4 4 965.2 38.31 1
0 -4 -4 786.54 83.36 10
-1 4 5 20.44 46.56 10
1 4 -5 30.54 3.1 3
-1 4 5 20.53 6.46 4
1 4 -5 39.36 35.01 10
-1 4 5 28.15 5.9 1
1 -4 -5 38.49 6.95 9
-1 -4 5 25.57 5.91 7
-1 -4 5 16.96 5.54 4
1 -4 -5 -18.12 46.47 10
1 -4 -5 27.56 8.52 8
-1 -4 5 -5.28 40.16 10
-1 -4 5 30.62 5.6 1
1 -4 -5 28.76 5.42 7
1 -4 -5 22.83 5.72 3
1 -4 -5 19.06 6.63 6
-2 4 6 19.09 8.02 4
-2 4 6 27.09 6.43 1
-2 4 6 7.86 53.89 10
2 4 -6 32.82 38.54 10
2 4 -6 27.93 3.89 3
-2 -4 6 14.33 5.25 1
2 -4 -6 31.01 5.86 7
2 -4 -6 22 5.18 3
2 -4 -6 90.44 66.65 10
2 -4 -6 33.66 6.11 6
-2 -4 6 22.6 6.79 7
-2 -4 6 16.77 45.28 10
-2 -4 6 42.48 6.53 4
2 -4 -6 29.2 6.07 9
3 4 -7 2024.32 82.18 3
-3 4 7 2272.88 99.71 4
-3 4 7 2110.1 85.24 1
-3 -4 7 2171.39 94.51 4
-3 -4 7 2253.07 84.72 1
3 -4 -7 2156.25 94.01 7
3 -4 -7 1865.31 92.1 6
-3 -4 7 2236.63 97.11 7
3 -4 -7 2145.64 90.47 9
-3 -4 7 1906.47 159.21 10
3 -4 -7 2036.3 85.54 3
-4 4 8 687.02 34.55 1
-4 4 8 684.22 41.25 4
4 4 -8 647.3 31.2 3
-4 -4 8 659.48 32.82 1
-4 -4 8 692.44 38.8 7
4 -4 -8 658.94 33.73 3
4 -4 -8 689.62 36.54 9
4 -4 -8 633.89 35.45 7
-4 -4 8 698.11 36.2 4
-5 4 9 914.13 43.81 1
-5 4 9 978.26 53.01 4
5 4 -9 881.54 41.15 3
5 -4 -9 888.31 43.46 3
-5 -4 9 924.39 42.95 1
5 -4 -9 874.04 46.44 7
5 -4 -9 961.58 47.01 9
-5 -4 9 824.99 45.98 4
-5 -4 9 856.34 49.27 7
-6 4 10 -5.04 8.62 4
6 4 -10 3.77 8.24 9
6 4 -10 5.6 8.02 3
-6 4 10 14.79 7.81 1
-6 -4 10 -2.19 10.74 7
6 -4 -10 11.91 10.33 9
6 -4 -10 -5.45 8.55 3
-6 -4 10 -15.46 9.82 1
6 -4 -10 1.56 9.38 7
-7 4 11 9.15 11.23 4
7 4 -11 7.12 7.41 3
7 4 -11 17.77 11.36 9
-7 4 11 6.37 11.21 1
7 -4 -11 12.09 8.99 3
-7 -4 11 -4.58 12.89 7
7 -4 -11 28.86 13.46 9
-7 -4 11 9.28 10.8 1
7 -4 -11 22.88 14.66 7
8 4 -12 28.29 13.78 9
-8 4 12 -12.15 17.63 4
-8 4 12 32.47 16.35 1
8 4 -12 41.29 15.55 3
8 -4 -12 32.12 14.12 3
-8 -4 12 46.92 15.26 1
8 -4 -12 45.85 14.5 9
-8 -4 12 27.51 16.84 7
9 5 -5 16.24 15.23 3
-9 5 5 6.53 12.81 4
-9 5 5 55.18 16.77 5
9 -5 -5 -7.84 12.83 7
-9 -5 5 8.03 14.24 7
8 5 -4 34.07 10.74 3
-8 5 4 28.65 11.08 4
-8 5 4 46.02 14.14 5
-8 -5 4 45.99 17.58 7
-8 -5 4 30.2 11.81 1
8 -5 -4 45.79 16.65 7
-7 5 3 81.36 14.65 5
-7 5 3 77.06 13.26 4
7 5 -3 98.13 13.03 3
-7 -5 3 83.23 14.97 7
-7 -5 3 89.73 12.92 1
7 -5 -3 106.04 15.97 7
-6 5 2 320.55 25.22 4
-6 5 2 274.99 21.55 5
-6 5 2 291.52 20.82 1
6 5 -2 303.89 20.68 3
-6 -5 2 277.92 19.5 1
-6 -5 2 291.44 26.04 7
6 -5 -2 299.34 25.24 7
-6 -5 2 309.47 27.18 6
5 5 -1 75.6 10.69 3
-5 5 1 82.14 10.17 5
-5 5 1 86.82 9.36 1
-5 5 1 75.02 12.67 4
5 -5 -1 66.61 11.21 7
-5 -5 1 82.85 9.98 1
-5 -5 1 104.7 14.63 7
-5 -5 1 63.6 14.3 6
-4 5 0 46.47 82.71 10
-4 5 0 5.83 5.52 4
4 5 0 5.41 5.68 3
-4 5 0 9.79 5.98 1
-4 5 0 4.19 5.96 2
4 -5 0 -16.28 8.41 7
-4 -5 0 16.85 8.46 7
-4 -5 0 14.76 6.2 1
-4 -5 0 15.28 10.11 6
-3 5 -1 7.91 5.28 2
3 5 1 5.26 5.1 3
-3 5 -1 2.13 4.86 1
-3 5 -1 -5.32 3.69 5
-3 5 -1 -9.68 5.6 4
-3 5 -1 -38.36 56.26 10
-3 -5 -1 12.39 5.36 1
3 -5 1 3.1 6.81 7
-3 -5 -1 10.98 7.04 7
3 -5 1 71.6 66.19 10
-3 -5 -1 4.74 8.04 6
-2 5 -2 794.83 34.77 5
-2 5 -2 721.59 40.73 4
2 5 2 737.46 34.3 3
-2 5 -2 766.82 36.53 2
2 -5 2 725.12 40.71 7
2 -5 2 669.83 88.19 10
-2 -5 -2 746.54 37.74 9
-2 -5 -2 767.81 40.07 7
2 -5 2 662.18 84.8 10
-2 -5 -2 782.28 35.14 1
-2 -5 -2 763.24 42.56 6
-2 -5 -2 769.47 97.71 10
2 -5 2 758.06 33.91 1
-1 5 -3 159.71 12.66 2
1 5 3 132.54 10.97 4
1 5 3 142.03 10.78 3
1 -5 3 136.6 10.68 1
-1 -5 -3 144.09 11.32 1
-1 -5 -3 127.82 11.77 9
-1 -5 -3 127.8 47.43 10
1 -5 3 124.78 57.77 10
-1 -5 -3 157.64 13.27 7
1 -5 3 137.05 13.76 7
-1 -5 -3 170.06 15.25 6
-1 -5 -3 113.61 13.51 8
1 -5 3 102.16 39.39 10
0 5 4 522.85 86.24 10
0 5 4 533.35 27.21 1
0 5 -4 558.29 29.03 2
0 5 4 518.97 29.23 4
0 -5 -4 529.09 29 9
0 -5 4 563.93 26.28 1
0 -5 -4 514.14 26.98 1
0 -5 4 552.48 31.68 7
0 -5 -4 550.53 83.61 10
0 -5 -4 607.56 32.8 6
0 -5 -4 494.63 35.25 8
0 -5 -4 533.61 29.59 7
0 -5 4 419.1 72.24 10
0 -5 4 547.95 74.88 10
-1 5 5 789.01 35.83 1
-1 5 5 781.47 40.52 4
1 5 -5 668.37 96.88 10
1 -5 -5 766.48 38.45 9
1 -5 -5 721.07 38.22 7
1 -5 -5 719.63 48.01 8
-1 -5 5 794.23 40.84 7
-1 -5 5 738.65 39.08 4
-1 -5 5 767.75 34.5 1
1 -5 -5 772.17 35.2 3
1 -5 -5 776.4 40.93 6
-1 -5 5 573.42 87.17 10
-2 5 6 1869.06 87.15 4
-2 5 6 1846.15 76.08 1
2 -5 -6 1818.11 83.75 7
2 -5 -6 1819.94 75.58 3
2 -5 -6 1816.51 84.4 6
-2 -5 6 1830 74.65 1
-2 -5 6 1899.09 86.52 7
2 -5 -6 1896.55 80.81 9
-2 -5 6 1876.11 84.43 4
-3 5 7 182.96 14.73 1
-3 5 7 198.63 19.48 4
-3 -5 7 175.98 15.13 4
3 -5 -7 169.42 14.84 7
-3 -5 7 185.66 17.06 7
3 -5 -7 168.98 13.77 3
3 -5 -7 170.16 15.51 6
-3 -5 7 176.41 14.03 1
3 -5 -7 177.75 16.14 9
-4 5 8 35.41 11.96 4
-4 5 8 27.61 9.21 1
-4 -5 8 37.48 10.61 7
4 -5 -8 49.45 9.23 9
4 -5 -8 27.68 7.29 3
-4 -5 8 31.41 8.9 1
4 -5 -8 37.36 8.5 7
-4 -5 8 26.94 7.51 4
-5 5 9 79.79 12.63 1
-5 5 9 80.04 14.39 4
-5 -5 9 64.77 11.56 1
-5 -5 9 92.08 15.2 7
5 -5 -9 107.39 13.92 7
5 -5 -9 84.71 12.13 9
-5 -5 9 73.31 12.87 4
5 -5 -9 87.65 11.79 3
-6 5 10 264.5 27.7 4
-6 5 10 329.55 24.58 1
-6 -5 10 262.44 25.79 7
6 -5 -10 270.23 21.91 3
-6 -5 10 224.99 20.64 1
6 -5 -10 251.79 22.85 9
6 -5 -10 251.74 23.26 7
-7 5 11 118.53 16.13 1
7 5 -11 129.19 17.71 9
-7 5 11 118.91 22.05 4
7 -5 -11 132.85 18.89 9
7 -5 -11 111.16 17.25 3
-7 -5 11 84.1 15.55 1
8 5 -12 25.15 11.75 9
-8 5 12 39.81 17.18 1
-8 5 12 -0.57 18.15 4
-8 -5 12 35.77 16.17 1
8 -5 -12 43.37 12.75 3
-8 -5 12 59.08 19.74 7
8 -5 -12 51.77 13.78 9
8 6 -4 -24.2 14.11 3
-8 6 4 -14.59 12.04 4
-8 -6 4 -14.74 13.15 1
8 -6 -4 32.67 17.57 7
-8 -6 4 -4.41 12.75 7
-7 6 3 10.12 11.12 4
7 6 -3 -7.22 11.36 3
-7 -6 3 -0.43 15.21 7
-7 -6 3 14.67 9.97 1
7 -6 -3 -30.01 15.3 7
-6 6 2 28.37 12.61 1
-6 6 2 7.75 11.62 4
6 6 -2 5.26 9.26 3
-6 -6 2 13.47 10.63 6
-6 -6 2 4.03 9.36 1
6 -6 -2 20.94 12.77 7
-6 -6 2 -6.43 13.05 7
-5 6 1 182.25 19.46 4
-5 6 1 176.16 15.62 1
5 6 -1 154.87 15.18 3
-5 -6 1 174.61 20.67 7
5 -6 -1 216.93 21.14 7
-5 -6 1 158.68 15.47 1
-5 -6 1 180.85 21.68 6
4 6 0 -9.21 6.05 3
-4 6 0 3.94 6.94 1
-4 6 0 14.88 8.41 2
-4 6 0 3.72 6.47 4
-4 -6 0 3.29 10.78 6
-4 -6 0 -3.19 6.78 1
-4 -6 0 -0.6 6.66 7
4 -6 0 -6.86 8.98 7
-3 6 -1 53.48 11.09 4
-3 6 -1 51.46 9.35 2
3 6 1 61.57 8.8 3
3 -6 1 41.49 8.29 1
-3 -6 -1 32.91 8.5 1
-3 -6 -1 50.37 12.91 6
3 -6 1 60.55 11.92 7
-3 -6 -1 57.81 10.02 7
2 6 2 -4.22 5.21 3
-2 6 -2 1.9 6.88 2
-2 -6 -2 1.15 8.9 6
-2 -6 -2 -5.84 7.76 7
-2 -6 -2 1.56 4.32 1
2 -6 2 2.16 5.81 1
2 -6 2 -3.71 7.95 7
-1 6 -3 1271.49 56.17 2
1 6 3 1168.05 51.84 3
1 -6 3 1223.57 51.88 1
-1 -6 -3 1211.46 56.8 9
-1 -6 -3 1280.92 63.17 6
-1 -6 -3 1225.35 60.16 7
1 -6 3 1160.63 61.62 7
-1 -6 -3 1200.93 53.29 1
0 6 4 21.57 7.44 4
0 6 -4 34.7 8.96 2
0 -6 -4 40.72 9.24 6
0 -6 -4 32.46 7.09 7
0 -6 4 47.12 8.13 1
0 -6 -4 41.74 7.38 1
0 -6 4 28.33 8.67 7
0 -6 -4 36.24 10.84 8
0 -6 -4 30.54 7.15 9
-1 6 5 517.4 28.42 1
-1 6 5 538.94 31.86 4
1 -6 -5 472.05 37.15 8
1 -6 -5 520.21 32.6 6
-1 -6 5 475.64 26.47 1
-1 -6 5 515.92 32.32 7
1 -6 -5 527.37 30.29 9
1 -6 -5 526.46 30.23 7
-1 -6 5 532.04 30.91 4
-2 6 6 242.15 20.09 4
-2 6 6 249.65 18.16 1
2 -6 -6 224.5 18.09 9
-2 -6 6 255.56 18.41 4
2 -6 -6 260.14 19.25 7
2 -6 -6 245.57 20.22 6
-2 -6 6 213.15 18.96 7
-2 -6 6 221.18 16.42 1
2 -6 -6 227.97 16.15 3
-3 6 7 214.53 17.89 1
-3 6 7 210.2 20.7 4
3 -6 -7 230.01 18.74 7
3 -6 -7 176.41 17.18 6
-3 -6 7 257.24 21.54 7
-3 -6 7 202.61 16.55 1
3 -6 -7 206.89 16.25 3
3 -6 -7 219.05 18.22 9
-3 -6 7 240.75 17.75 4
-4 6 8 161.68 18.69 4
-4 6 8 149.02 14.98 1
-4 -6 8 148.48 18.57 7
-4 -6 8 151.39 14.28 1
-4 -6 8 154.46 17.68 4
4 -6 -8 154.22 15.3 7
4 -6 -8 156.84 17.22 9
4 -6 -8 136.25 14.17 3
-5 6 9 139.05 18.39 4
-5 6 9 125.97 16.48 1
5 -6 -9 92.17 17.43 7
5 -6 -9 143.96 15.31 3
-5 -6 9 112.16 18.09 7
-5 -6 9 113.22 13.44 1
-6 6 10 57.31 18.34 4
-6 6 10 80.07 13.12 1
6 -6 -10 72.92 15.3 9
-6 -6 10 59.43 11.42 1
-6 -6 10 46.66 14.76 7
6 -6 -10 60.08 13.85 3
-7 6 11 -1.47 11.61 1
-7 6 11 55.14 16.08 4
-7 -6 11 32.53 14.76 1
7 -6 -11 53.36 13.79 3
7 -6 -11 14.9 14.95 9
-7 -6 11 14.83 14.59 7
-7 7 3 30.19 16.07 4
7 -7 -3 24.69 16.51 7
-7 -7 3 26.27 10.53 1
-6 7 2 35.09 11.87 4
6 7 -2 50.7 12.72 3
-6 -7 2 63.93 13.77 1
-6 -7 2 33.27 17.37 6
-6 -7 2 28.44 17.01 7
6 -7 -2 0.52 12.2 7
-5 7 1 -12.62 12.79 1
-5 7 1 4.96 12.01 4
-5 -7 1 -6.94 14.73 6
-5 -7 1 14.25 10.03 1
-5 -7 1 -4.39 12.59 7
5 -7 -1 20.41 13.67 7
-4 7 0 214.53 17.81 1
4 7 0 166.56 15.61 3
-4 7 0 224.16 21.1 4
-4 -7 0 190.3 20.69 7
-4 -7 0 182.6 21.11 6
4 -7 0 191.25 21.42 7
-4 -7 0 201.38 16.66 1
4 -7 0 206.32 17.37 1
-3 7 -1 0.22 9.6 4
-3 7 -1 -0.62 8.73 2
3 7 1 12.16 9.08 3
3 -7 1 -2.62 10.7 7
-3 -7 -1 0.06 10.43 7
-3 -7 -1 3.06 8.51 6
3 -7 1 -13.93 8.51 1
-3 -7 -1 -8.11 7.45 1
2 7 2 687.4 35.27 3
-2 7 -2 709.21 38.45 2
2 -7 2 733.62 35.88 1
2 -7 2 667.84 42.95 7
-2 -7 -2 721.29 37.04 1
-2 -7 -2 748.15 45.31 6
-2 -7 -2 771.28 43.7 7
-1 7 -3 38.05 8.93 2
1 7 3 3.76 7.8 3
-1 -7 -3 30.5 9.27 1
-1 -7 -3 25.42 9.6 7
-1 -7 -3 7.82 10.05 6
-1 -7 -3 23.32 9.31 9
1 -7 3 25.37 7.78 1
1 -7 3 19.5 8.15 7
0 7 -4 1.64 8.89 2
0 7 4 -6.33 6.11 3
0 -7 -4 -0.6 7.19 1
0 -7 4 15.86 7.51 7
0 -7 -4 11.59 6.67 7
0 -7 -4 13.51 10.39 6
0 -7 4 4.45 7.34 1
0 -7 -4 -2.84 6.42 9
-1 7 5 1.39 5.93 1
-1 7 5 2.38 8.46 4
1 -7 -5 10.86 8.72 9
1 -7 -5 4.46 8.1 8
1 -7 -5 -11.08 7.86 1
-1 -7 5 5.2 7.02 4
1 -7 -5 7.28 7.67 6
-1 -7 5 15.52 7.86 7
-1 -7 5 6.82 7.35 1
1 -7 -5 5.71 8.11 7
-2 7 6 576.53 36.59 4
-2 7 6 580.27 32.25 1
2 -7 -6 549.28 35.99 6
-2 -7 6 592.01 36.63 7
2 -7 -6 534.28 34.4 7
-2 -7 6 543.56 33.65 4
2 -7 -6 621.18 34.78 9
-2 -7 6 554.18 30.72 1
-3 7 7 16.49 11.76 4
-3 7 7 -3.89 8.82 1
3 -7 -7 12.63 10.81 7
-3 -7 7 0.54 7.55 7
3 -7 -7 -28.93 13.57 6
-3 -7 7 -6.19 12.22 4
-3 -7 7 3.65 8.67 1
3 -7 -7 -7.93 7.72 9
-4 7 8 -8.04 9.67 4
-4 7 8 11.01 7.89 1
-4 -7 8 16.71 12.43 7
4 -7 -8 12.97 10.5 9
4 -7 -8 -20.75 14.7 7
-4 -7 8 0.32 7.87 1
-5 7 9 -21.64 15.38 4
-5 7 9 7.21 11.28 1
-5 -7 9 -7.14 14.76 7
5 -7 -9 13.7 12.74 9
-5 -7 9 -4.24 7.94 1
-6 7 10 113.7 20.02 4
-6 7 10 91.16 15.33 1
-6 -7 10 111.68 17.5 1
6 -7 -10 121.95 17.97 9
-6 -7 10 75.8 19.03 7
-6 8 2 32.8 16.34 4
-6 -8 2 5.53 18.6 6
-6 -8 2 -13.4 19.46 7
6 -8 -2 12.88 16.72 7
-5 8 1 146.42 19.63 4
-5 -8 1 138.2 24.21 6
5 -8 -1 142.99 21.95 7
-5 -8 1 123.83 17.18 1
-5 -8 1 106.64 21.37 7
-4 8 0 136.67 20.76 4
-4 -8 0 100.27 19.1 7
-4 -8 0 104.44 13.59 1
4 -8 0 104.79 18.91 7
4 -8 0 96.66 13.7 1
-4 -8 0 104.19 18.09 6
-3 8 -1 2.38 12.1 2
-3 8 -1 1.27 9.01 4
-3 -8 -1 17.71 10.95 1
-3 -8 -1 7.36 9.7 7
3 -8 1 24.09 11.92 7
-3 -8 -1 19.16 11.36 6
3 -8 1 30.43 10.98 1
-2 8 -2 -6.43 10.52 2
-2 -8 -2 -6.55 12.3 7
-2 -8 -2 20.84 10.38 1
2 -8 2 3.5 12.1 7
2 -8 2 1.52 9.05 1
-2 -8 -2 14.73 14.03 6
-1 8 -3 183.08 17.93 2
-1 -8 -3 172.97 18.82 7
-1 -8 -3 136.36 14.82 1
-1 -8 -3 135.4 18.88 6
-1 -8 -3 126.27 16.92 9
1 -8 3 156.31 14.73 1
1 -8 3 173.34 19.16 7
0 8 -4 35.99 10.88 2
0 -8 4 55.9 11.72 1
0 -8 -4 29.12 10.76 1
0 -8 -4 60.47 15.38 6
0 -8 4 36.81 14.01 7
0 -8 -4 69.06 12.97 7
0 -8 -4 60.45 12.45 9
1 -8 -5 112.91 16.16 9
-1 -8 5 162.17 17.76 4
-1 -8 5 133.34 15.2 1
1 -8 -5 151.2 17.16 1
1 -8 -5 139.92 18.06 7
-1 -8 5 142.7 17.59 7
1 -8 -5 143.37 18.18 6
-2 8 6 -5.15 9.61 4
-2 8 6 -3.49 10.61 1
2 -8 -6 -12.08 12.04 7
2 -8 -6 -4.85 10.42 1
-2 -8 6 5.2 11.91 7
2 -8 -6 0.04 12.48 6
-2 -8 6 -6.4 15.08 4
2 -8 -6 -6.67 10.64 9
-2 -8 6 -3.66 6.89 1
-3 8 7 164.61 17.24 1
-3 8 7 149.7 21.04 4
3 -8 -7 156.21 19.88 7
-3 -8 7 165.39 17.24 1
3 -8 -7 156.95 19.08 9
-3 -8 7 160.19 19.65 7
-4 8 8 25.37 10.28 1
-4 8 8 41.92 14.52 4
4 -8 -8 7.77 13.39 9
-4 -8 8 18.77 16.04 7
-4 -8 8 32.72 12.54 1
-5 8 9 87.16 21.33 4
-5 8 9 131.52 19.52 1
5 -8 -9 101.5 18.7 9
-5 -8 9 105.5 18.77 7
-5 -8 9 100.98 15.43 1
-4 9 0 4.18 17.26 4
-4 -9 0 -9.44 12.57 1
4 -9 0 5 11.33 7
-4 -9 0 17.26 16.2 7
-4 -9 0 -15.36 16.57 6
-3 -9 -1 119.03 18.69 7
3 -9 1 145.33 18.96 1
3 -9 1 120.46 20.39 7
-3 -9 -1 168.02 24.68 6
-3 -9 -1 162.96 17.39 1
-2 9 -2 21.11 13.18 2
-2 -9 -2 33.26 12.88 1
2 -9 2 30.75 14.45 7
2 -9 2 38.25 12.83 1
-2 -9 -2 33.49 13.79 7
-2 -9 -2 33.18 18.09 6
-1 9 -3 107.52 18.95 2
1 -9 3 78.03 12.95 1
-1 -9 -3 85.82 17.42 7
-1 -9 -3 53.67 14.29 1
-1 -9 -3 50.41 17.82 6
1 -9 3 64.3 17.21 7
0 9 -4 10.06 14.19 2
0 -9 -4 17.35 14.58 6
0 -9 -4 21.08 14.37 7
0 -9 -4 27.28 13.53 1
0 -9 4 9.1 8.71 1
0 -9 -4 2.39 11.37 9
0 -9 4 9.5 13.95 7
1 9 -5 28.79 12.23 2
-1 -9 5 28.72 14.5 4
-1 -9 5 27.63 10.2 1
1 -9 -5 4.51 12.54 1
1 -9 -5 34.23 19.04 7
-1 -9 5 8.17 10.66 7
1 -9 -5 -10.25 16.6 6
1 -9 -5 31.06 12.88 9
2 -9 -6 109.54 19.46 6
2 -9 -6 135.72 17.2 9
-2 -9 6 155.8 21.13 7
2 -9 -6 169.61 18.11 1
-2 -9 6 151.43 16.9 1
-3 9 7 18.67 16.81 4
-3 9 7 29.03 14.84 1
-3 -9 7 7.44 8.99 1
-3 -9 7 1.71 16.26 7
3 -9 -7 36.98 15.25 9
3 -9 -7 10.8 13.54 1
-4 9 8 43.33 19.6 4
-4 9 8 22.23 14.91 1
4 -9 -8 -23.21 16.06 9
-4 -9 8 -9.87 19.07 7
-4 -9 8 10.03 9.95 1
-1 -10 -3 36.02 14.87 1
1 -10 3 36.51 19.3 7
-1 -10 -3 28.73 19.63 6
-1 -10 -3 -34.74 24.25 7
1 -10 3 21.09 15.18 1
0 -10 4 170.43 18.94 1
0 -10 4 230.48 25.58 7
0 -10 -4 171.29 23.31 9
0 -10 -4 210.04 21.36 1
0 -10 -4 160.99 26.79 6
10 0 -5 -4.8 13.39 9
-10 0 5 -16.76 12.37 5
10 0 -5 11.29 15.72 3
10 0 -5 -7.37 15 7
9 0 -4 53.1 13.9 7
9 0 -4 73.16 12.55 9
9 0 -4 65.48 15.49 3
-9 0 4 43.57 13.19 5
8 0 -3 -12.67 9.81 7
8 0 -3 -4.68 9.45 3
-8 0 3 -14.59 9.84 5
7 0 -2 7.59 9.45 7
-7 0 2 13.76 8 5
7 0 -2 16.02 6.74 3
-6 0 1 6.85 5.39 5
-6 0 1 -3.49 5.18 6
-6 0 1 2.24 4.78 1
6 0 -1 1.38 6.74 7
6 0 -1 -7.55 5.44 3
-5 0 0 61.17 9.22 5
-5 0 0 68.67 7.32 4
-5 0 0 64.83 8.57 6
5 0 0 52.66 38.22 10
-5 0 0 80.55 41.09 10
5 0 0 56.13 7.89 3
-5 0 0 68.25 9.33 2
-5 0 0 60.28 6.07 1
5 0 0 70.78 10.03 7
4 0 1 -7.13 3.98 7
-4 0 -1 1.6 3.55 2
4 0 1 -6.39 21.28 10
-4 0 -1 -12.63 22.63 10
-4 0 -1 0.63 3.86 5
-4 0 -1 -1.54 2.25 1
4 0 1 1.65 4.31 3
-4 0 -1 4.09 3.39 6
3 0 2 2103.21 82.64 3
3 0 2 2143.49 92.21 7
-3 0 -2 2097.25 84.9 2
-3 0 -2 2154.04 92.27 6
3 0 2 2120.76 103.46 10
-3 0 -2 2117.74 88.44 5
-3 0 -2 2220.07 105.3 10
-3 0 -2 1979.97 77.31 1
-2 0 -3 1.5 3.29 5
2 0 3 -0.49 3.09 4
-2 0 -3 -10.14 5.73 8
2 0 3 1.23 3.01 3
-2 0 -3 3.49 3.77 2
2 0 3 -0.67 2.48 7
-2 0 -3 8.08 4.27 6
1 0 4 4662.39 183.65 4
1 0 4 3914.62 181.52 7
-1 0 -4 4268.63 214.06 8
-1 0 -4 4620.48 169.83 9
-1 0 -4 4574.87 167.53 2
0 0 5 -8.43 11.41 10
0 0 -5 10 13.2 10
0 0 5 -1.57 3.3 4
0 0 -5 0.47 2.46 9
0 0 5 -0.22 1.49 1
0 0 -5 -0.08 4.13 8
0 0 -5 2.75 2.33 3
0 0 -5 0.12 2.57 6
0 0 -5 -7.94 3.4 2
1 0 -6 976.83 45.64 6
-1 0 6 994.44 39.49 1
1 0 -6 1053.95 73.28 10
1 0 -6 979.17 42.51 9
1 0 -6 988.15 41.59 2
-1 0 6 997.17 74.5 10
1 0 -6 1024.76 54.85 8
-1 0 6 990.02 47.1 4
1 0 -6 1034.39 42.43 3
-2 0 7 -5.49 22.65 10
-2 0 7 2.51 3.3 1
-2 0 7 0.67 3.33 4
2 0 -7 -0.4 3.35 9
2 0 -7 7.72 5.76 8
2 0 -7 -0.01 3.24 3
-2 0 7 -3.31 2.78 7
2 0 -7 1.15 3.3 6
2 0 -7 -19.03 31.44 10
2 0 -7 -1.22 2.94 2
3 0 -8 6217.22 232.36 2
3 0 -8 6162.72 233.37 3
-3 0 8 6216.33 229.14 1
3 0 -8 6352.16 254.72 6
-3 0 8 6431.92 261.62 4
-3 0 8 5896.04 313.9 10
3 0 -8 5951.87 312.96 10
3 0 -8 6290.86 302.47 8
3 0 -8 6296.67 242.14 9
4 0 -9 9.66 5.58 9
-4 0 9 -5.32 5.19 1
4 0 -9 2.42 2.91 2
4 0 -9 1.73 7 8
-4 0 9 38.17 60.13 10
4 0 -9 -7.73 5.45 3
-4 0 9 -0.05 6.48 4
5 0 -10 187.74 19.37 8
5 0 -10 198.01 15.93 3
-5 0 10 224.75 20.15 4
-5 0 10 225.23 16.52 1
5 0 -10 210.32 16.82 9
6 0 -11 1.67 9.3 8
6 0 -11 -10.16 8.04 9
6 0 -11 -5.86 7.78 3
-6 0 11 4.97 7.31 4
-6 0 11 3.09 5.7 1
-7 0 12 9.68 7.77 1
7 0 -12 20.08 10.7 9
7 0 -12 6.86 9.92 3
-7 0 12 13.45 12.05 4
7 0 -12 -0.35 13.92 8
8 0 -13 -22.05 19.04 7
8 0 -13 8.23 9.01 9
-8 0 13 -0.67 8.64 1
-8 0 13 14.93 16.5 4
8 0 -13 -4.07 11.77 3
9 0 -14 28.97 15.27 3
-9 0 14 22.99 15.14 1
-9 0 14 5.78 14.35 4
9 0 -14 43.63 16.3 9
10 1 -5 21.66 16.37 3
10 1 -5 8.73 16.63 7
-10 1 5 2.27 10.56 5
10 -1 -5 25.72 13.78 7
10 -1 -5 15.17 14.83 3
-10 -1 5 -10.71 14.79 5
-9 1 4 -21.64 13.34 5
9 1 -4 -10.67 9.43 3
9 1 -4 -3.25 11.36 7
-9 -1 4 -9.58 11.6 5
9 -1 -4 -11.57 13.16 7
9 -1 -4 0.86 8.37 3
9 -1 -4 -4.82 11.86 9
-8 1 3 66.64 13.67 5
8 1 -3 65.37 12.91 3
-8 -1 3 65.46 13.26 5
8 -1 -3 78.54 16.3 7
8 -1 -3 63 12.45 9
8 -1 -3 64.06 12.75 3
7 1 -2 2.18 7.89 3
-7 1 2 19.79 7.25 5
-7 -1 2 11.75 8.64 5
7 -1 -2 8.88 6.16 3
-7 -1 2 21.95 8.16 1
7 -1 -2 17.4 10.25 7
-6 1 1 6.98 5.2 5
-6 1 1 7.94 5.17 4
-6 1 1 -5.04 6.07 2
6 1 -1 6.15 5.71 3
-6 1 1 10 6.14 1
-6 1 1 8.64 5.74 6
-6 -1 1 -46.99 57.21 10
-6 -1 1 15.25 5.11 1
-6 -1 1 7.62 7.38 5
6 -1 -1 11.03 8.46 7
-6 -1 1 18.55 6.85 6
6 -1 -1 0.85 5.05 3
-5 1 0 218.11 12.41 1
5 1 0 223.24 15.63 3
-5 1 0 242.7 15.59 4
-5 1 0 223.43 15.47 2
-5 1 0 244.36 52.31 10
-5 1 0 230.65 16.2 6
5 1 0 192.62 53.48 10
-5 1 0 184.38 15.67 5
-5 -1 0 232.3 16.74 5
-5 -1 0 212.79 16.03 6
5 -1 0 261.57 18.76 7
5 -1 0 184.18 44.71 10
-5 -1 0 250.91 48.31 10
5 -1 0 222.11 14.84 3
-5 -1 0 207.19 12.51 1
-4 1 -1 1002.4 40.19 1
-4 1 -1 1117.32 75.17 10
-4 1 -1 1002.82 48.19 4
-4 1 -1 1065.24 47.97 5
-4 1 -1 1034.07 45.61 2
-4 1 -1 1113.07 49.5 6
4 1 1 918.66 44.97 4
4 1 1 978.71 75.31 10
4 1 1 1053.17 44.89 3
4 -1 1 1077.71 44.32 3
-4 -1 -1 1053.27 47.52 5
-4 -1 -1 1057.57 49.56 6
-4 -1 -1 1008.85 40.76 1
-4 -1 -1 1016.28 46.72 2
-4 -1 -1 987.48 78.25 10
4 -1 1 1036.69 71.36 10
4 -1 1 1034.05 50.14 7
-3 1 -2 926.56 57.49 10
3 1 2 1052.44 43.38 3
3 1 2 1071.5 68.54 10
-3 1 -2 1055.74 44.53 2
-3 1 -2 948.25 37.94 1
-3 1 -2 975.5 45.7 5
-3 1 -2 1063.34 47.93 6
3 1 2 968.57 44.23 4
3 -1 2 1053.09 58.2 10
-3 -1 -2 984.43 38.88 1
3 -1 2 1014.19 42.07 3
-3 -1 -2 1093.22 68.77 10
3 -1 2 1024.85 47.53 7
-3 -1 -2 1001.91 45.46 5
-3 -1 -2 981.03 44.75 2
-3 -1 -2 1026.64 48.29 6
-2 1 -3 62.72 6.94 2
-2 1 -3 47.77 6.12 5
2 1 3 67.53 6.74 3
-2 1 -3 50.11 6.82 6
2 1 3 61.16 5.46 4
-2 -1 -3 64.74 7.29 6
-2 -1 -3 33.17 14.77 10
-2 -1 -3 58.91 6.73 5
2 -1 3 59.54 6.51 4
2 -1 3 57.55 6.11 7
-2 -1 -3 58.97 7.28 2
-2 -1 -3 49.75 8.15 8
2 -1 3 55.77 5.59 3
-2 -1 -3 50.33 15.44 10
-2 -1 -3 59.84 3.89 1
-1 1 -4 75.87 7.31 5
-1 1 -4 74.08 7.89 6
1 1 4 72.79 6.52 4
-1 1 -4 83.05 7.25 2
-1 1 -4 78.88 4.68 9
-1 1 -4 68.99 9.37 8
1 1 4 55.8 15.77 10
1 1 4 67.28 4.43 1
-1 -1 -4 79.69 9.46 8
-1 -1 -4 77.49 7.22 5
-1 -1 -4 64.92 15.74 10
-1 -1 -4 75.65 8.09 6
-1 -1 -4 75.56 6.35 9
1 -1 4 88.47 8.11 4
-1 -1 -4 83.49 18.77 10
1 -1 4 59.18 5.33 7
-1 -1 -4 67.26 7.18 2
-1 -1 -4 77.97 4.6 1
1 -1 4 76.94 5.95 3
0 1 -5 5968.16 217.13 3
0 1 -5 5705.85 223.68 9
0 1 5 6180.13 243.21 4
0 1 -5 5755.43 251.64 10
0 1 5 6026.69 263.54 10
0 1 -5 5621.82 241.67 6
0 1 -5 5558.98 281.95 8
0 1 5 5947.43 212.63 1
0 1 -5 5957.53 220.7 2
0 -1 -5 6304.3 283.34 8
0 -1 -5 5880.48 218.56 3
0 -1 5 5921.56 243.45 4
0 -1 5 5498.56 241.65 7
0 -1 -5 5955.11 220.15 2
0 -1 -5 6072.89 242.1 6
0 -1 -5 5784.63 226.1 9
0 -1 -5 5989.44 263.04 10
0 -1 5 5667.74 211.46 1
0 -1 5 5567.01 252.21 10
1 1 -6 54.96 5.29 9
-1 1 6 60.55 5.57 1
1 1 -6 72.1 8.87 8
-1 1 6 68.76 24.44 10
-1 1 6 67.76 8.07 4
1 1 -6 69.22 6.57 3
1 1 -6 57 6.84 6
1 1 -6 89.15 26.57 10
1 1 -6 72.69 6.86 2
1 -1 -6 56.86 6.37 6
-1 -1 6 61.41 5.14 1
1 -1 -6 62.91 6.76 9
1 -1 -6 66.8 6.15 2
1 -1 -6 56.85 29.27 10
1 -1 -6 76.68 10.35 8
-1 -1 6 49.95 4.9 7
-1 -1 6 64.84 7.21 4
-1 -1 6 72.49 27.33 10
1 -1 -6 43.69 6.36 3
2 1 -7 3503.97 135.4 2
2 1 -7 3721.22 174.34 8
-2 1 7 3697.42 152.45 4
2 1 -7 3689.56 135.09 3
2 1 -7 3431.4 191.31 10
2 1 -7 3577.52 139.26 9
-2 1 7 3569.24 132.4 1
-2 1 7 3679.71 199.03 10
2 -1 -7 3490.12 193.33 10
-2 -1 7 3181.06 188.54 10
2 -1 -7 3921.74 178.44 8
2 -1 -7 3560.49 140.83 9
2 -1 -7 3133.58 147.13 7
-2 -1 7 3585.4 151.28 4
-2 -1 7 3364.63 148.96 7
2 -1 -7 3506.82 133.81 2
2 -1 -7 3744.57 148.05 6
-2 -1 7 3502.76 131.7 1
2 -1 -7 3363.1 135.4 3
3 1 -8 280.35 20.74 8
3 1 -8 269.82 16.23 9
3 1 -8 237.93 49.09 10
-3 1 8 291.22 16.37 1
-3 1 8 280.2 63.49 10
3 1 -8 276.51 15.19 2
-3 1 8 285.39 20.33 4
3 1 -8 264.61 16.11 3
3 -1 -8 252.43 15.65 7
3 -1 -8 273.03 17.61 9
-3 -1 8 275.39 15.79 1
3 -1 -8 282.18 23.52 8
3 -1 -8 258.01 16.48 3
3 -1 -8 252.48 58.29 10
3 -1 -8 280.38 15.58 6
-3 -1 8 372.74 65.83 10
3 -1 -8 265.95 13.36 2
-3 -1 8 265.2 16.86 7
-3 -1 8 320.75 19.88 4
4 1 -9 254.73 20.73 8
-4 1 9 225.13 73.66 10
-4 1 9 254.29 19.93 4
-4 1 9 237.65 15.74 1
4 1 -9 240.48 16.16 9
4 1 -9 243.11 14.03 2
4 1 -9 228.5 15.79 3
4 -1 -9 228.15 15.95 7
4 -1 -9 271.79 23.2 8
-4 -1 9 242.84 18.88 4
4 -1 -9 216.47 16.32 3
-4 -1 9 189.56 15.74 7
4 -1 -9 235.25 16.83 9
-4 -1 9 243.76 15.9 1
-4 -1 9 182.88 72.64 10
5 1 -10 117.39 11.46 3
5 1 -10 106.23 14.43 8
-5 1 10 123.49 12.99 1
5 1 -10 136.5 13.1 9
-5 1 10 132.83 16.25 4
5 -1 -10 113.33 12.61 7
5 -1 -10 143.99 13.12 9
-5 -1 10 109.97 10.96 1
-5 -1 10 139.14 14.38 4
-5 -1 10 105.57 12.62 7
5 -1 -10 124.39 11.92 3
5 -1 -10 138.94 17.5 8
-6 1 11 81.62 13.66 4
6 1 -11 100.24 12.97 9
6 1 -11 89.65 12.06 3
-6 1 11 85.36 11.22 1
6 -1 -11 91.12 13.03 9
6 -1 -11 110.72 12.07 3
-6 -1 11 100.42 13.05 1
-6 -1 11 81.82 14.39 4
6 -1 -11 93.91 14.96 8
6 -1 -11 66.71 12.32 7
7 1 -12 -5.3 9.79 3
-7 1 12 -2.52 10.43 1
7 1 -12 14.04 7.65 9
-7 1 12 -2.62 13.21 4
7 -1 -12 -14.06 10.35 3
7 -1 -12 0.1 11 7
-7 -1 12 8.76 12.43 4
7 -1 -12 20.66 10.41 8
7 -1 -12 10.59 10.09 9
-7 -1 12 0.69 9.48 1
-8 1 13 12.11 10.89 1
8 1 -13 6.19 10.74 9
8 1 -13 7.69 12.44 3
-8 1 13 1.13 15.26 4
8 -1 -13 10.05 12.79 3
8 -1 -13 -4.83 11.12 9
8 -1 -13 -8.87 19.89 8
-8 -1 13 4.53 15.1 4
-8 -1 13 14 9.3 1
-9 1 14 33 12.39 1
9 1 -14 12.8 14.48 9
-9 1 14 24.98 19.54 4
9 1 -14 29.14 12.19 3
9 -1 -14 57.63 13.63 9
9 -1 -14 28.6 11.95 3
-9 -1 14 36.44 16.65 1
10 2 -5 27.54 16.54 3
-10 2 5 -13.64 15.7 5
10 -2 -5 -3.54 11.16 3
10 -2 -5 -11.2 16.51 7
-9 2 4 -9.62 9.76 5
9 2 -4 8.75 9.44 3
9 -2 -4 -2.36 14.36 7
9 -2 -4 1.65 8.74 3
-9 -2 4 -1.84 8.68 5
-8 2 3 8.77 8.32 5
8 2 -3 38.16 11.96 3
8 -2 -3 16.94 9.85 7
8 -2 -3 17.02 8.51 3
-8 -2 3 22.04 8.74 5
7 2 -2 48.61 10.78 3
-7 2 2 52.42 10.59 4
-7 2 2 36.5 10.53 5
7 -2 -2 67.97 11.32 3
-7 -2 2 43.77 7.44 1
7 -2 -2 46.59 10.61 7
-7 -2 2 24.02 9.83 5
-6 2 1 221.65 16.75 2
6 2 -1 242.66 17.06 3
-6 2 1 232.3 15.04 1
-6 2 1 234.3 17.55 4
-6 2 1 243.44 18.42 5
-6 -2 1 192.13 16.79 6
6 -2 -1 201.33 15.21 3
6 -2 -1 215.99 19.69 7
-6 -2 1 219.11 14.53 1
6 -2 -1 229.13 15.31 9
-6 -2 1 152.29 96.68 10
-6 -2 1 234.74 18.13 5
-5 2 0 284.94 17.58 2
5 2 0 238.3 16.42 3
-5 2 0 258.34 18.44 5
5 2 0 104.52 54.46 10
-5 2 0 250.34 14.29 1
-5 2 0 264.96 65.32 10
-5 2 0 259.25 17.81 4
5 -2 0 241.24 15.4 3
-5 -2 0 255 17.81 5
-5 -2 0 251.07 18.78 6
5 -2 0 262.99 15.46 9
-5 -2 0 288.03 59.8 10
5 -2 0 253 19.48 7
-5 -2 0 271.36 19.64 7
-5 -2 0 234.95 14.18 1
4 2 1 185.39 46.1 10
-4 2 -1 228.86 16.84 4
4 2 1 255.65 16.27 3
-4 2 -1 245.49 15.69 2
-4 2 -1 260.49 40.86 10
-4 2 -1 273.15 17.23 5
-4 2 -1 245.93 12.59 1
4 -2 1 251.07 13.53 9
-4 -2 -1 246.38 16.12 5
4 -2 1 255.55 17.91 7
-4 -2 -1 243.13 41.37 10
-4 -2 -1 246.96 17.51 7
-4 -2 -1 215.27 12.91 1
4 -2 1 211.93 39.95 10
-4 -2 -1 253.25 18.32 6
4 -2 1 272.16 14.89 3
3 2 2 1033.01 79.18 10
-3 2 -2 1080.63 41.21 1
-3 2 -2 1135.42 50.83 6
-3 2 -2 1074.54 48.48 5
3 2 2 1062.98 45.98 3
-3 2 -2 1066.52 46.72 2
-3 2 -2 1024.48 68.27 10
3 2 2 946.41 45.54 4
3 -2 2 1191.17 70.6 10
-3 -2 -2 1018.45 49.95 7
3 -2 2 1046.22 50.86 7
-3 -2 -2 1055.23 48.03 5
-3 -2 -2 1143.14 52.47 6
-3 -2 -2 1123.28 42.66 1
-3 -2 -2 1082.35 58.59 8
3 -2 2 1078.05 43.86 3
3 -2 2 1074.64 43.31 9
-3 -2 -2 1225.04 83.63 10
-2 2 -3 618.61 28.78 2
2 2 3 632.98 28.38 3
-2 2 -3 565.56 28.82 5
2 2 3 585.63 27.74 4
-2 -2 -3 631.15 32.37 6
-2 -2 -3 655.48 25.47 1
2 -2 3 569.96 41.87 10
2 -2 3 615.03 30.5 7
-2 -2 -3 651.55 56.5 10
2 -2 3 583.9 41.27 10
-2 -2 -3 621.02 29.09 5
-2 -2 -3 585.56 54.34 10
2 -2 3 594.49 25.64 3
-2 -2 -3 602.4 35.86 8
2 -2 3 634 23.56 1
-2 -2 -3 505.65 28.57 7
-2 -2 -3 609.15 28.84 9
-1 2 -4 4798.53 186.21 2
1 2 4 4895.84 203.04 4
-1 2 -4 4915.11 195.01 5
1 2 4 4780.51 178.63 1
1 2 4 4997.08 229.45 10
-1 -2 -4 4970.01 228.73 10
-1 -2 -4 5001.5 195.32 5
-1 -2 -4 4882.86 191.06 9
-1 -2 -4 4941.34 231.97 10
1 -2 4 4880.18 204.71 7
-1 -2 -4 4847.57 186.36 2
-1 -2 -4 4840 178.8 1
1 -2 4 5064.68 181.14 3
1 -2 4 4812.48 177.03 1
-1 -2 -4 4880.58 237.54 8
-1 -2 -4 5025.99 205.02 6
1 -2 4 4786.29 213.89 10
1 -2 4 4802.57 205.32 4
1 -2 4 4987.55 214.15 10
0 2 -5 78.04 7.65 2
0 2 5 57.3 6.76 4
0 2 5 63.93 5.48 1
0 2 -5 69.26 9.25 8
0 2 -5 49.16 20.3 10
0 2 -5 63.8 4.1 9
0 2 5 68.98 27.03 10
0 -2 -5 76.29 31.89 10
0 -2 -5 59.75 6.89 9
0 -2 -5 73.04 10.04 8
0 -2 5 81.64 22.95 10
0 -2 5 63.66 4.79 1
0 -2 -5 74.52 7.84 6
0 -2 5 67.65 7.42 4
0 -2 -5 66.91 6.42 2
0 -2 5 68.24 6.32 7
-1 2 6 10.86 3.94 1
1 2 -6 7.53 21.55 10
-1 2 6 -10.08 25.11 10
1 2 -6 6.66 3.26 3
1 2 -6 10.17 2.77 9
1 2 -6 7.55 4.06 2
-1 2 6 9.21 4.25 4
1 2 -6 14.77 5.5 8
1 -2 -6 18 4.94 6
-1 -2 6 5.04 17.76 10
1 -2 -6 11.78 3.66 9
-1 -2 6 10.26 3.74 7
1 -2 -6 11.07 29.1 10
1 -2 -6 7.18 2.79 2
1 -2 -6 9.74 2.03 7
1 -2 -6 9.17 6.25 8
-1 -2 6 4.84 4.72 4
1 -2 -6 4.81 3.15 3
-1 -2 6 13.28 3.19 1
-2 2 7 122.41 10.04 1
2 2 -7 129.52 9.15 9
2 2 -7 118.13 9.88 2
2 2 -7 148.97 9.81 3
-2 2 7 137.99 12.81 4
2 2 -7 147.13 12.58 8
2 2 -7 47.96 39.04 10
-2 2 7 131.18 46.8 10
-2 -2 7 105.88 8.75 1
2 -2 -7 119.29 8.13 7
2 -2 -7 137.4 10.5 6
-2 -2 7 128.71 10.26 7
2 -2 -7 158.61 16.64 8
2 -2 -7 125.93 10.9 9
2 -2 -7 122.83 8.04 2
-2 -2 7 135.6 44.41 10
2 -2 -7 113.71 10.24 3
2 -2 -7 90 37.45 10
-2 -2 7 128.51 11.59 4
3 2 -8 948.17 52.46 8
-3 2 8 1008.21 50.32 4
3 2 -8 902.47 41.15 3
3 2 -8 951.35 42.13 2
3 2 -8 875.12 99.22 10
3 2 -8 976.8 43.04 9
-3 2 8 988.28 42.34 1
-3 2 8 939.19 103.67 10
3 -2 -8 909.68 96.12 10
-3 -2 8 984.79 102.16 10
3 -2 -8 1065.26 59.18 8
3 -2 -8 955.5 44.37 7
3 -2 -8 946.58 44.06 6
-3 -2 8 912.65 46.15 7
-3 -2 8 953.87 47.74 4
3 -2 -8 994.93 45.77 9
3 -2 -8 957.2 43.31 3
-3 -2 8 970.18 41.28 1
-4 2 9 7.06 6.41 4
4 2 -9 13.66 5.79 9
4 2 -9 9.68 5.53 3
-4 2 9 18.41 5.54 1
4 2 -9 13.44 6.65 8
4 2 -9 16.59 5.46 2
-4 -2 9 10.19 5.35 4
-4 -2 9 22.11 7.44 7
-4 -2 9 10.83 4.78 1
4 -2 -9 19.13 5.78 7
4 -2 -9 27.38 11.01 8
4 -2 -9 17.49 6.75 9
4 -2 -9 11 6.33 3
5 2 -10 8.82 4.1 2
5 2 -10 12.57 6.27 3
-5 2 10 -0.99 4.95 1
-5 2 10 2.58 7.08 4
5 2 -10 -7.67 6.84 9
5 -2 -10 -10.41 7.55 3
-5 -2 10 1.17 4.59 1
5 -2 -10 11.63 5.43 7
-5 -2 10 -0.27 5.3 7
-5 -2 10 -3.66 5.39 4
5 -2 -10 14.48 7.91 9
-6 2 11 282.2 20.91 1
6 2 -11 291.58 20.28 3
6 2 -11 280.33 20.41 9
-6 2 11 295.62 26.18 4
6 -2 -11 309.64 22.94 9
-6 -2 11 248.28 22.66 4
6 -2 -11 247.89 21.66 7
-6 -2 11 307.95 20.91 1
6 -2 -11 267.55 21.09 3
-6 -2 11 224.98 21.63 7
7 2 -12 168.67 17.42 3
-7 2 12 180.1 17.63 1
7 2 -12 179.45 17.73 9
-7 -2 12 118.18 16.26 7
-7 -2 12 177.03 18.08 1
7 -2 -12 172.5 17.9 3
7 -2 -12 180.78 18.07 9
-8 2 13 84.21 20.65 4
8 2 -13 75.52 15.19 9
8 2 -13 83.04 15.29 3
-8 2 13 79.79 16.72 1
8 -2 -13 62.95 17.56 8
8 -2 -13 90.1 13.92 3
8 -2 -13 73.42 13.77 9
-8 -2 13 108.28 16.99 1
-9 2 14 -5.05 19.06 4
-9 2 14 -2.24 11.64 1
9 2 -14 10.34 12.35 9
9 2 -14 19.7 15.86 3
9 -2 -14 -15.3 24.84 8
9 -2 -14 -3.52 14.65 9
-9 -2 14 -1.48 10.4 1
9 -2 -14 -16.63 14.83 3
-9 3 4 52.1 16.35 5
9 3 -4 78.19 16.36 3
9 -3 -4 72.75 16.08 3
9 -3 -4 40.91 17.06 7
-9 -3 4 54.36 12.77 5
-8 3 3 2.26 11.63 5
8 3 -3 -7.65 10.86 3
-8 3 3 15.07 11.35 4
8 -3 -3 -9.45 10.49 3
8 -3 -3 -10.57 13.05 7
-8 -3 3 -25.67 11.8 5
-8 -3 3 -22.52 12.43 1
7 3 -2 129.86 14.57 3
-7 3 2 104.45 14.73 4
-7 3 2 125.19 14.17 5
7 -3 -2 119.59 16.12 7
-7 -3 2 108.64 13.06 5
-7 -3 2 97.39 10.72 1
7 -3 -2 131.87 13.99 3
-7 -3 2 124.35 15.44 7
-6 3 1 6.93 7.1 5
-6 3 1 -0.17 6.82 4
-6 3 1 0.59 7.29 2
6 3 -1 5.39 6.59 3
-6 -3 1 7.76 6.12 5
6 -3 -1 -0.23 7.97 7
6 -3 -1 -0.58 6.39 3
-6 -3 1 -0.1 5.71 7
-6 -3 1 -9.08 6.34 6
-6 -3 1 -2.46 5.6 1
-5 3 0 22.5 6.78 2
-5 3 0 29.73 8.01 4
5 3 0 20.55 6.97 3
-5 3 0 32.16 6.68 1
5 3 0 -7.35 43.99 10
-5 3 0 20.29 8.29 5
-5 -3 0 29.26 5.95 1
5 -3 0 34.5 5.66 3
-5 -3 0 32.48 8.64 7
-5 -3 0 -6.63 53.47 10
5 -3 0 14.2 7.63 7
-5 -3 0 23.77 7.71 6
-5 -3 0 27.34 6.91 5
4 3 1 1198.1 52.41 3
-4 3 -1 1189.76 54.9 5
4 3 1 1235.12 110.82 10
-4 3 -1 1307.8 98.23 10
-4 3 -1 1181.46 48.29 1
-4 3 -1 1150.99 58.26 4
-4 3 -1 1191.45 52.48 2
-4 -3 -1 1288.42 59.4 7
-4 -3 -1 1213.47 49.53 1
4 -3 1 1180.49 93.5 10
-4 -3 -1 1164.39 53.94 5
-4 -3 -1 1208.21 102.97 10
-4 -3 -1 1306.16 60.72 6
4 -3 1 1201.39 49.51 3
4 -3 1 1197.14 59.06 7
-3 3 -2 428.83 22.58 5
-3 3 -2 415.6 18.3 1
-3 3 -2 414.09 22.12 2
3 3 2 401.96 21.77 3
-3 3 -2 436.11 47.54 10
-3 -3 -2 423.89 26.04 6
-3 -3 -2 448.45 60.51 10
-3 -3 -2 358.34 23 7
-3 -3 -2 434.5 60.17 10
-3 -3 -2 423.24 19.97 1
3 -3 2 425.28 24.66 7
-3 -3 -2 412.48 21.51 5
3 -3 2 385.73 18.56 3
3 -3 2 333.95 46.2 10
-3 -3 -2 376.63 25.93 8
-2 3 -3 1243.48 54.03 5
2 3 3 1037.85 53.21 4
-2 3 -3 1267.03 53.07 2
2 3 3 1265.09 52.13 3
2 -3 3 1137.48 80.24 10
-2 -3 -3 1293.5 59.76 6
2 -3 3 1237.29 47.97 3
-2 -3 -3 1297.94 53.86 5
-2 -3 -3 1208.05 65.71 8
2 -3 3 1244.06 47.67 1
-2 -3 -3 1384.42 97.91 10
-2 -3 -3 1276.41 49.52 1
-2 -3 -3 1378.86 99.47 10
-2 -3 -3 1101.88 55.64 7
2 -3 3 1261.08 58.11 7
-2 -3 -3 1261.97 54.39 9
2 -3 3 1276.81 82.28 10
1 3 4 426.22 22.5 4
-1 3 -4 426 22.5 2
-1 3 -4 425.38 22.08 5
1 -3 4 416.45 44.9 10
1 -3 4 428.66 18.67 1
-1 -3 -4 451.34 57.41 10
1 -3 4 405.55 23.14 7
-1 -3 -4 427.37 22.75 9
-1 -3 -4 419.89 19.93 1
-1 -3 -4 416.25 56.43 10
1 -3 4 420.68 45.83 10
-1 -3 -4 361.43 21.12 7
-1 -3 -4 431.9 27.9 8
1 -3 4 428.75 17.83 3
-1 -3 -4 469.81 25.98 6
0 3 5 505.8 63.1 10
0 3 -5 487.23 25.25 2
0 3 -5 516.73 54.91 10
0 3 5 529.72 23.53 1
0 3 5 515.31 27.3 4
0 -3 -5 495.83 27.8 6
0 -3 -5 441.95 23.98 7
0 -3 -5 440.83 61.22 10
0 -3 -5 540.73 26.71 9
0 -3 5 478.98 51.77 10
0 -3 5 516.72 22.07 1
0 -3 5 535.95 28 4
0 -3 5 483.71 26.36 7
1 3 -6 843.57 44.4 8
-1 3 6 838.69 86.31 10
1 3 -6 783.62 35.82 2
1 3 -6 774.22 32.35 9
1 3 -6 639.32 66.56 10
1 3 -6 783.91 32.05 3
-1 3 6 808.44 40.38 4
-1 3 6 737.17 33.84 1
1 -3 -6 761.31 35.27 7
-1 -3 6 795.29 39.22 4
1 -3 -6 768.1 38.73 6
1 -3 -6 861.05 49.19 8
-1 -3 6 715.23 37.48 7
-1 -3 6 752.24 32.34 1
1 -3 -6 719.55 36.49 9
1 -3 -6 776.93 35.33 3
1 -3 -6 699.23 83.94 10
-1 -3 6 664.02 73.38 10
2 3 -7 376.23 18.75 9
2 3 -7 363.23 18.35 3
-2 3 7 392.83 20.48 1
2 3 -7 380.05 24.3 8
-2 3 7 370.3 24.97 4
2 3 -7 381.17 20.65 2
-2 3 7 396.64 72.26 10
2 3 -7 443.8 68.21 10
2 -3 -7 338.57 19.22 7
-2 -3 7 354.55 18.69 1
-2 -3 7 362.14 21.95 7
-2 -3 7 292.97 59.3 10
2 -3 -7 399.43 29.96 8
2 -3 -7 375.87 21.84 6
-2 -3 7 368.02 22.66 4
2 -3 -7 362.44 21.96 9
2 -3 -7 359.59 20.69 3
2 -3 -7 350.09 72.55 10
3 3 -8 367.31 81.86 10
3 3 -8 362.92 19.3 3
3 3 -8 375.25 20.09 9
-3 3 8 387.97 21.43 1
-3 3 8 277.49 74.43 10
3 3 -8 326.78 20.59 2
-3 3 8 390.46 27.1 4
3 -3 -8 361.65 20.48 7
3 -3 -8 348.66 21.12 6
3 -3 -8 375.31 22.82 9
3 -3 -8 365.63 21.79 3
3 -3 -8 384.85 30.94 8
-3 -3 8 385.2 23.28 7
-3 -3 8 388.9 23.64 4
-3 -3 8 354.99 65.45 10
-3 -3 8 365.44 20.08 1
4 3 -9 73 8.98 9
-4 3 9 45.7 9.64 1
-4 3 9 67.28 13.03 4
4 3 -9 58.09 7.3 3
-4 -3 9 68.14 9.56 4
4 -3 -9 72.05 8.68 7
-4 -3 9 65.47 8.87 1
-4 -3 9 61.91 9.64 7
4 -3 -9 76.21 10.71 9
4 -3 -9 68.51 10.1 3
-5 3 10 716.44 35.74 1
5 3 -10 648.19 32.82 3
5 3 -10 701.01 35.07 9
-5 3 10 692.36 42.9 4
-5 -3 10 710.8 34.57 1
-5 -3 10 615.42 37.43 4
5 -3 -10 638.18 37 9
-5 -3 10 588.3 37.84 7
5 -3 -10 650.34 34.95 3
5 -3 -10 649.45 35.98 7
-6 3 11 90.16 13.77 1
6 3 -11 89.78 11.31 3
-6 3 11 79.3 17.25 4
6 3 -11 92.64 12.63 9
-6 -3 11 55.57 12.93 4
6 -3 -11 71.13 13.26 9
6 -3 -11 84.57 13.7 3
-6 -3 11 104.94 13.87 1
-6 -3 11 66.02 13.8 7
6 -3 -11 64.15 15.02 7
-7 3 12 -0.45 11.31 1
7 3 -12 -9.42 9.53 9
7 3 -12 6.41 7.4 3
-7 3 12 -10.42 15.12 4
-7 -3 12 -7.05 9.05 1
-7 -3 12 4.26 16.79 4
-7 -3 12 -0.35 11.3 7
7 -3 -12 3.06 7.69 3
7 -3 -12 -23.22 11.27 9
-8 3 13 -11.17 12.42 4
8 3 -13 19.82 12.67 3
8 3 -13 11.8 9.83 9
-8 3 13 33.02 14.97 1
-8 -3 13 4.01 15.8 7
8 -3 -13 45.11 15.19 3
8 -3 -13 4.16 13.06 9
-8 -3 13 1.12 10.98 1
9 4 -4 16.95 10.8 3
-9 4 4 4.58 18.78 4
9 -4 -4 15.93 17.05 7
-8 4 3 -10.7 12.17 4
8 4 -3 -7.78 11.2 3
-8 -4 3 22.77 11.64 5
-8 -4 3 16.71 13.68 1
-8 -4 3 -26.08 15.51 7
8 -4 -3 -17.13 12.84 7
7 4 -2 4.07 8.74 3
-7 4 2 -2.01 6.68 4
-7 4 2 14.37 8.11 5
-7 -4 2 -7.93 12.29 7
7 -4 -2 -23.09 12.28 7
-7 -4 2 1.67 5.64 1
-6 4 1 364.2 24.25 5
-6 4 1 407.26 27.08 4
6 4 -1 334.48 23.11 3
-6 -4 1 453.17 29.06 7
-6 -4 1 289.92 25.21 6
-6 -4 1 345.93 22.89 5
-6 -4 1 352.72 21.2 1
6 -4 -1 421.22 28.82 7
-5 4 0 152.69 15.1 5
-5 4 0 183.19 14.01 1
-5 4 0 217.68 18.09 4
5 4 0 172.81 14.37 3
-5 4 0 198.55 15.11 2
-5 -4 0 174.47 17.32 6
-5 -4 0 177.97 14.38 5
5 -4 0 188.33 17.8 7
-5 -4 0 217.2 18.66 7
-5 -4 0 184.18 13.77 1
4 4 1 263.33 17.28 3
-4 4 -1 263.18 17.25 2
-4 4 -1 254.04 14.65 1
-4 4 -1 211.67 76.26 10
-4 4 -1 248.97 17.25 5
-4 4 -1 226.89 19.15 4
4 4 1 265.43 75.41 10
4 -4 1 240 19.32 7
-4 -4 -1 222.29 20.39 6
-4 -4 -1 149.27 58.23 10
-4 -4 -1 237.73 15.61 5
-4 -4 -1 250.43 15.63 1
-4 -4 -1 250.82 19.04 7
-3 4 -2 15.78 5.56 5
-3 4 -2 87.22 40.83 10
-3 -4 -2 -6.71 7.51 6
3 -4 2 15.57 34.69 10
-3 -4 -2 -11.16 39.19 10
3 -4 2 29.27 41.9 10
-3 -4 -2 11.9 5.93 8
-3 -4 -2 5.34 49.07 10
3 -4 2 -2.37 5.92 7
2 4 3 214.21 14.55 3
-2 4 -3 190.93 14.93 2
-2 4 -3 233.04 14.19 5
-2 -4 -3 248.3 14.58 5
-2 -4 -3 192.79 17.32 8
2 -4 3 308.29 53.77 10
-2 -4 -3 242.08 16.3 9
-2 -4 -3 217.81 55.06 10
2 -4 3 231.06 12.57 1
-2 -4 -3 217.43 13.4 1
-2 -4 -3 187.61 14.9 7
-2 -4 -3 213.52 48.67 10
-2 -4 -3 233.87 18.75 6
2 -4 3 237.59 41.99 10
2 -4 3 220.64 16.88 7
-1 4 -4 617.46 29.51 5
1 4 4 577.89 30.19 4
-1 4 -4 586.04 29.95 2
1 4 4 606.4 29.27 3
1 -4 4 623.25 68.41 10
-1 -4 -4 625.13 28.37 1
-1 -4 -4 597.25 37.57 8
1 -4 4 633.08 33.03 7
-1 -4 -4 641.73 34.77 6
-1 -4 -4 596.34 30.91 9
-1 -4 -4 628.64 72.41 10
-1 -4 -4 507.77 30.19 7
1 -4 4 668.96 26.92 1
-1 -4 -4 586.13 76.33 10
1 -4 4 533.66 59.54 10
0 4 -5 45.66 38.89 10
0 4 5 23.92 5.58 1
0 4 -5 23.12 5.32 2
0 4 5 12.67 5.98 4
0 4 5 20.74 46.35 10
0 -4 5 46.25 37.88 10
0 -4 -5 17.02 5.97 9
0 -4 5 25.88 4.89 1
0 -4 -5 18.35 6.86 6
0 -4 5 25.01 5.77 4
0 -4 -5 28.17 8.9 8
0 -4 -5 19.94 4.88 7
0 -4 5 19.4 6.26 7
0 -4 -5 26.76 47.38 10
0 -4 5 30.45 38.77 10
1 4 -6 -44.77 41.94 10
-1 4 6 5.86 4.77 1
1 4 -6 6.67 5.44 2
-1 4 6 -3.31 6.81 4
-1 4 6 -110.41 58.53 10
1 -4 -6 -7.32 6.4 8
-1 -4 6 0.56 3.43 1
-1 -4 6 2.32 3.76 7
-1 -4 6 2.83 42.7 10
1 -4 -6 -0.8 5.46 6
1 -4 -6 1.98 4.99 9
1 -4 -6 -13.91 48.88 10
1 -4 -6 0.45 3.55 3
1 -4 -6 0.36 3.16 7
-1 -4 6 -7.23 5.78 4
2 4 -7 1531.72 67.09 2
-2 4 7 1565.8 65.29 1
-2 4 7 1539.14 133.58 10
2 4 -7 1578.25 62.09 3
-2 4 7 1652.33 76.36 4
2 4 -7 1333.33 127 10
2 -4 -7 1586.58 69.89 9
-2 -4 7 1567.31 63.46 1
2 -4 -7 1581.75 72.22 6
-2 -4 7 1586.33 73.58 7
2 -4 -7 1705.91 89.48 8
-2 -4 7 1643.57 73.46 4
2 -4 -7 1635.63 66.43 3
2 -4 -7 1545.23 70.2 7
-2 -4 7 1197.19 116 10
-3 4 8 169.25 13.91 1
-3 4 8 196.22 19.42 4
3 4 -8 188.16 12.73 3
-3 -4 8 202.41 16.1 4
3 -4 -8 172.86 14.53 6
-3 -4 8 203.38 14.07 1
3 -4 -8 184.14 15.85 9
-3 -4 8 175.52 16.51 7
3 -4 -8 167.6 14.45 3
4 4 -9 391.74 21.67 3
-4 4 9 407.23 24.76 1
-4 4 9 424.93 30.85 4
4 4 -9 407.8 23.41 9
4 -4 -9 378.74 25.6 9
-4 -4 9 403.19 27.07 7
4 -4 -9 372.19 24.27 7
-4 -4 9 402.22 26.17 4
4 -4 -9 417.96 24.5 3
-4 -4 9 409.22 23.2 1
-5 4 10 48.5 10.7 1
5 4 -10 15.34 9.34 3
-5 4 10 14.42 12.22 4
5 4 -10 44.71 9.85 9
-5 -4 10 22.17 7.67 4
5 -4 -10 14.93 9.62 9
-5 -4 10 10.5 8.76 1
-5 -4 10 33.7 11.9 7
5 -4 -10 40.05 11.02 7
5 -4 -10 35.68 8.51 3
-6 4 11 92.13 18.32 4
6 4 -11 65.43 10.85 3
-6 4 11 109.66 15.38 1
6 4 -11 79.17 12.28 9
6 -4 -11 75.85 14.45 9
6 -4 -11 100.72 14.44 3
-6 -4 11 93.96 13.12 1
-6 -4 11 80.87 13.64 7
7 4 -12 0 9.84 3
7 4 -12 6.59 9.99 9
-7 4 12 23.53 11.74 1
-7 4 12 3.54 14.31 4
7 -4 -12 8.9 8.93 3
-7 -4 12 14.55 11.43 1
7 -4 -12 16.33 13.11 9
-7 -4 12 -0.41 12.36 7
8 4 -13 9.73 14.02 9
-8 4 13 -24.59 18.4 4
-8 4 13 24.34 15.35 1
-8 -4 13 6.56 15.01 7
8 -4 -13 -3.45 14.05 3
-8 -4 13 29.21 15.08 1
8 -4 -13 29.77 16.61 9
-8 5 3 86.98 17.24 4
8 5 -3 76.48 14.69 3
-8 5 3 97.84 17.77 5
-8 -5 3 63.29 19.19 7
-8 -5 3 65.74 13.79 1
8 -5 -3 80.9 15.67 7
-7 5 2 91.36 15.69 5
7 5 -2 110.5 14.54 3
-7 5 2 124.03 17.43 4
7 -5 -2 132.35 18.66 7
-7 -5 2 113.48 14.13 1
-7 -5 2 165.99 21.15 7
6 5 -1 168.72 15.91 3
-6 5 1 146.32 16.62 5
-6 5 1 184.03 19.12 4
6 -5 -1 159.68 17.77 7
-6 -5 1 185.01 21.15 6
-6 -5 1 192.84 15.92 1
-5 5 0 121.86 13.95 2
-5 5 0 114.72 15.43 4
-5 5 0 143.37 14.25 5
5 5 0 143.93 13.91 3
5 -5 0 126.9 15.16 7
-5 -5 0 119.31 16.14 6
-5 -5 0 124.55 12.59 1
-5 -5 0 114.55 16.08 7
-4 5 -1 18.26 7.45 5
-4 5 -1 31.5 7.47 1
4 5 1 30.84 6.72 3
-4 5 -1 34.87 8.34 4
-4 5 -1 25.2 7.73 2
4 -5 1 28.53 9.79 7
-4 -5 -1 32.72 7.43 1
-4 -5 -1 39.04 11.48 6
-4 -5 -1 31.26 9.78 7
-3 5 -2 544.51 28.75 2
3 5 2 497.15 27.49 3
-3 5 -2 520.55 27.51 5
-3 5 -2 550.97 32.94 4
3 -5 2 512.69 25.4 1
-3 -5 -2 512.35 26.98 1
3 -5 2 513.44 32.2 7
-3 -5 -2 528.42 31.79 7
-3 -5 -2 563.41 34.91 6
2 5 3 1.59 4.99 3
-2 5 -3 7.43 4.61 5
-2 5 -3 -1.49 5.65 2
-2 -5 -3 -3.17 6.25 8
2 -5 3 50.33 41.29 10
2 -5 3 8.39 6.92 7
2 -5 3 107.38 45.09 10
2 -5 3 1.71 4.05 1
-2 -5 -3 12.59 5.35 9
-2 -5 -3 3.09 3.67 1
-2 -5 -3 -2.13 7.82 6
-2 -5 -3 11.83 6.84 7
1 5 4 28.8 5.54 3
-1 5 -4 25.44 7.62 2
1 5 4 34.67 6.87 4
-1 -5 -4 26.1 6.07 1
1 -5 4 16.08 46.18 10
-1 -5 -4 39.23 9.64 8
-1 -5 -4 16.35 8.51 6
-1 -5 -4 20.26 6.55 7
-1 -5 -4 28.74 55.2 10
1 -5 4 37.27 6.25 1
1 -5 4 57.22 50.54 10
1 -5 4 28.33 7.11 7
-1 -5 -4 36.56 7.58 9
0 5 5 91.97 9.92 1
0 5 -5 98.51 11.25 2
0 5 5 93.31 10.79 4
0 -5 -5 86.49 10.57 9
0 -5 5 106 56.78 10
0 -5 -5 101.62 12.97 6
0 -5 5 73.69 10.87 7
0 -5 -5 106.67 14.57 8
0 -5 -5 89.05 9.69 1
0 -5 5 97.79 11.16 4
0 -5 -5 78.47 9.6 7
0 -5 5 65.73 63.8 10
0 -5 5 73.59 8.05 1
-1 5 6 936.61 47.96 4
-1 5 6 905.6 41.7 1
1 5 -6 886.48 103.15 10
1 5 -6 947.21 44.08 2
-1 -5 6 885.58 47.3 7
1 -5 -6 897.12 44.74 7
-1 -5 6 722.97 95.81 10
1 -5 -6 966.17 48.36 6
-1 -5 6 900.63 46.81 4
-1 -5 6 959.78 40.66 1
1 -5 -6 900.6 45.18 9
1 -5 -6 935.46 57.38 8
-2 5 7 131.12 12.81 1
-2 5 7 136.95 15.72 4
2 -5 -7 129.91 13.73 6
2 -5 -7 129.18 11.97 3
-2 -5 7 155.53 14.24 7
2 -5 -7 145.5 18.05 8
-2 -5 7 138.24 13.58 4
2 -5 -7 134.74 12.05 7
2 -5 -7 142.51 14.23 9
-2 -5 7 138.99 12.15 1
-3 5 8 124.29 16.07 4
-3 5 8 105.9 12.1 1
3 -5 -8 97 12.31 7
-3 -5 8 102.76 11.57 1
3 -5 -8 87.65 12.36 6
3 -5 -8 99.68 12.16 3
-3 -5 8 102.08 13.33 7
3 -5 -8 109.15 13.31 9
-3 -5 8 113.2 12.81 4
-4 5 9 6.77 8.72 1
-4 5 9 -6.34 8.04 4
-4 -5 9 1.47 7.79 1
-4 -5 9 -6.48 7.88 4
-4 -5 9 2.62 8.88 7
4 -5 -9 17.57 9.37 9
4 -5 -9 -13.23 8.56 3
-5 5 10 588.22 32.52 1
-5 5 10 507.77 38.38 4
5 -5 -10 556.15 33.9 9
-5 -5 10 526.47 30.57 1
-5 -5 10 513.73 33.27 4
5 -5 -10 525.45 31.71 3
-5 -5 10 513.1 35.42 7
-6 5 11 -2.6 15.07 4
-6 5 11 10.99 10.82 1
6 5 -11 35.42 12.27 9
6 -5 -11 22.59 12.89 9
6 -5 -11 10.4 10.19 3
-6 -5 11 1.57 11.62 7
-6 -5 11 24.59 8.98 1
-7 5 12 -6.97 10.07 1
-7 5 12 16.6 18.05 4
7 5 -12 19.12 13.98 9
-7 -5 12 16.87 13.71 7
7 -5 -12 -42.17 15.34 9
-7 -5 12 -5.56 12.3 1
7 -5 -12 3.36 12.84 3
-8 6 3 10.85 14.58 4
8 6 -3 19.15 13.78 3
8 -6 -3 1.16 11.83 7
-8 -6 3 -20.07 14.04 7
-8 -6 3 3.43 14.9 1
-7 6 2 -11.64 13.49 4
7 6 -2 16.46 11.77 3
7 -6 -2 -0.92 10.34 7
-7 -6 2 23.92 16.47 7
-7 -6 2 15.08 8.73 1
-6 6 1 368.7 28.08 4
6 6 -1 327.19 23.93 3
-6 -6 1 283.62 29.47 6
-6 -6 1 307.19 22.37 1
6 -6 -1 348.04 29.2 7
-6 -6 1 346.98 30.57 7
5 6 0 98.81 12.79 3
-5 6 0 87.68 13.58 4
-5 -6 0 101.02 17.42 7
-5 -6 0 77.85 11.37 1
-5 -6 0 76.11 16.82 6
5 -6 0 76.3 13.24 7
-4 6 -1 130.72 12.34 1
-4 6 -1 128.87 16.71 4
4 6 1 129.21 13.18 3
-4 6 -1 137.16 13.09 2
4 -6 1 127.25 16.8 7
-4 -6 -1 93.36 11.85 1
-4 -6 -1 122.84 16.73 7
-4 -6 -1 120.31 18.16 6
-3 6 -2 250.42 18.21 2
3 6 2 227.57 17.02 3
-3 -6 -2 242.56 20.74 7
3 -6 2 235.63 15.74 1
3 -6 2 230.86 21.17 7
-3 -6 -2 255.06 23.38 6
-3 -6 -2 209.72 16.81 1
-2 6 -3 480.84 27.78 2
2 6 3 444.91 24.91 3
2 -6 3 494.89 24.89 1
-2 -6 -3 460.69 31.78 6
-2 -6 -3 432.07 27.88 9
2 -6 3 454.87 29.97 7
-2 -6 -3 421 25.07 1
-2 -6 -3 445.33 28.88 7
-1 6 -4 24.65 9.09 2
1 6 4 57.92 8.69 3
-1 -6 -4 36.15 10.24 8
-1 -6 -4 45.82 9.76 9
1 -6 4 42.72 9.15 7
-1 -6 -4 66.7 12.65 6
-1 -6 -4 39.08 9.14 7
-1 -6 -4 64.53 9.16 1
1 -6 4 29.21 7.3 1
0 6 5 500.7 30.47 4
0 6 -5 544.11 30.62 2
0 -6 -5 506.82 30.89 9
0 -6 5 521.12 26.74 1
0 -6 5 534.26 33.08 7
0 -6 -5 471.85 37.06 8
0 -6 -5 508.98 28.49 1
0 -6 -5 556.06 34.12 6
0 -6 5 565.57 33.41 4
0 -6 -5 557.68 31.31 7
1 6 -6 34.49 8.12 2
-1 6 6 32.14 8.17 4
-1 6 6 39.51 9.06 1
1 -6 -6 28.49 9.15 9
-1 -6 6 26.02 7.51 1
1 -6 -6 43.43 9.56 7
1 -6 -6 21.95 11.96 8
-1 -6 6 38.97 8.57 7
1 -6 -6 49.03 10.37 6
-1 -6 6 44.08 9.58 4
-2 6 7 154.92 13.86 1
-2 6 7 144.4 16.17 4
-2 -6 7 154.21 16.47 7
-2 -6 7 150.8 15.33 4
2 -6 -7 138.53 18.68 8
2 -6 -7 127.76 13.15 3
2 -6 -7 134.88 14.96 7
2 -6 -7 131.74 14.85 9
2 -6 -7 123.08 14.17 6
-2 -6 7 136.33 12.65 1
-3 6 8 4.04 6.41 1
-3 6 8 -26.71 12.29 4
-3 -6 8 -5.46 8.3 7
3 -6 -8 13.22 9.25 9
3 -6 -8 -8.33 7.9 3
-3 -6 8 5.83 7.9 1
-3 -6 8 8.35 8.46 4
3 -6 -8 -17.32 12.38 6
-4 6 9 53.89 10.28 1
-4 6 9 35.02 14.3 4
-4 -6 9 60.31 11.23 4
-4 -6 9 34.23 9.99 7
4 -6 -9 22.34 10.7 9
-4 -6 9 32.88 10.03 1
4 -6 -9 16.96 10.35 3
-5 6 10 -7.6 14.16 4
-5 6 10 -5.45 10.65 1
5 -6 -10 -1.81 7.79 9
-5 -6 10 -18.25 12.52 7
-5 -6 10 -7.62 9.85 1
5 -6 -10 -1.56 10.38 3
-6 6 11 183.51 18.85 1
-6 6 11 166.48 22.17 4
-6 -6 11 148.81 18.5 1
-6 -6 11 108.51 21.15 7
6 -6 -11 126.51 18.09 3
6 -6 -11 171.71 21.09 9
-7 6 12 15.88 17.16 4
-7 6 12 1.96 15.23 1
-7 -6 12 -2.43 10.08 1
-7 -6 12 -9.28 17.69 7
7 -6 -12 -6.28 15.15 9
7 -6 -12 -0.29 14.53 3
-7 7 2 9.71 16.07 4
7 7 -2 27.84 15.91 3
-7 -7 2 -5.32 15.94 7
-7 -7 2 4.93 12.73 1
7 -7 -2 -2.79 11.73 7
-7 -7 2 1.82 14.47 6
6 7 -1 13.29 10.02 3
-6 7 1 2.08 9.72 4
-6 -7 1 -11.21 17.41 6
-6 -7 1 2.81 16.27 7
6 -7 -1 -1.63 13.96 7
-5 7 0 129.09 17.28 4
5 7 0 106.22 14.99 3
5 -7 0 127.2 17.28 7
-5 -7 0 87.85 19.73 6
-5 -7 0 93.84 14.68 1
-5 -7 0 110.8 19.79 7
-4 7 -1 -33.25 14.8 2
4 7 1 12.07 7.09 3
-4 7 -1 3.18 11.99 4
4 -7 1 -19.12 13.12 7
-4 -7 -1 6.2 9.15 1
-4 -7 -1 16.8 11.68 7
-4 -7 -1 2.65 13.91 6
-3 7 -2 696.42 37.29 2
3 7 2 633.14 34.3 3
-3 -7 -2 763.1 45.77 6
-3 -7 -2 662.26 41.8 7
3 -7 2 679.96 42.09 7
-3 -7 -2 632.93 35.49 1
2 7 3 106.27 12.55 3
-2 7 -3 131.6 15.87 2
2 -7 3 135.79 13.24 1
-2 -7 -3 124.24 16.43 6
-2 -7 -3 131.16 14.06 1
-2 -7 -3 147.1 17 7
2 -7 3 119.19 15.66 7
-1 7 -4 4.64 7.11 2
1 7 4 8.24 7.19 3
1 -7 4 0.78 7.09 1
-1 -7 -4 -1.99 5.91 9
-1 -7 -4 0.55 10.15 6
-1 -7 -4 5.19 8.9 7
1 -7 4 4.33 10.13 7
-1 -7 -4 0.57 7.6 1
0 7 -5 499.48 31.39 2
0 7 5 481.68 27.02 3
0 -7 5 498.32 33.49 7
0 -7 -5 454.03 32.91 6
0 -7 -5 480.86 28.82 1
0 -7 5 498.63 32.5 4
0 -7 5 437.65 25.77 1
0 -7 -5 455.63 30.31 9
0 -7 -5 521.73 31.76 7
1 7 -6 227.63 19.64 2
-1 7 6 222.47 19.83 4
-1 7 6 256.09 20 1
1 -7 -6 220.06 18.3 1
1 -7 -6 183.32 23.74 8
-1 -7 6 221.31 19.14 4
-1 -7 6 247.3 17.88 1
1 -7 -6 221.82 21.04 7
-1 -7 6 218 21.24 7
1 -7 -6 267.71 20.62 9
1 -7 -6 225.76 21.03 6
-2 7 7 66.56 14.52 4
-2 7 7 89.66 13.64 1
2 -7 -7 84.92 13.37 6
2 -7 -7 47.82 16.08 8
-2 -7 7 90.42 15.22 7
2 -7 -7 76.96 13.4 9
-2 -7 7 83.37 11.81 1
-2 -7 7 83.12 12.07 4
-3 7 8 -3.35 11.98 4
-3 7 8 23.84 8.6 1
3 -7 -8 7.95 11.54 8
-3 -7 8 15.43 11.84 7
-3 -7 8 30.52 12.06 4
3 -7 -8 -11.2 7.91 9
-3 -7 8 3.28 8.94 1
3 -7 -8 9.88 9.16 3
-4 7 9 2.1 13.33 4
-4 7 9 15.73 8.77 1
-4 -7 9 14.85 13.06 7
4 -7 -9 1.79 11.26 9
-4 -7 9 -6.09 10.04 1
-5 7 10 168.57 25.25 4
-5 7 10 169.84 20.46 1
-5 -7 10 172.19 23.01 7
-5 -7 10 232.68 21.06 1
5 -7 -10 250.89 23.45 9
-6 7 11 6.76 12.09 1
-6 7 11 -5.86 19.09 4
-6 -7 11 16.99 17.08 7
-6 -7 11 8.01 11.51 1
6 -7 -11 17.74 15.62 9
-6 8 1 1.01 15.25 4
6 -8 -1 -1.2 12.6 7
-6 -8 1 24.42 14.38 1
-6 -8 1 35.79 21.38 6
-6 -8 1 -9.05 19.14 7
-5 8 0 16.49 13.96 4
-5 -8 0 20.41 17.4 7
-5 -8 0 12.19 10.22 1
-5 -8 0 26.11 18.48 6
5 -8 0 4.46 14.14 7
-4 -8 -1 20.86 11.91 1
-4 -8 -1 38.29 16.37 7
-4 -8 -1 -6.36 14.34 6
4 -8 1 27.69 11.81 7
-3 8 -2 139.59 18.75 2
-3 -8 -2 129.2 19.3 7
-3 -8 -2 109.46 15.34 1
3 -8 2 114.63 19.68 7
-3 -8 -2 109.99 20.3 6
-2 8 -3 215.95 22.05 2
-2 -8 -3 187.37 18.57 1
2 -8 3 218.33 23.77 7
-2 -8 -3 251.87 26.2 6
-2 -8 -3 216.95 22.68 7
2 -8 3 256.53 19.35 1
-1 8 -4 74.12 13.13 2
-1 -8 -4 86.2 14.13 1
-1 -8 -4 54.48 16.35 6
-1 -8 -4 74.56 14.21 9
1 -8 4 63.35 16.26 7
1 -8 4 79.22 10.86 1
-1 -8 -4 56.5 15.51 7
0 8 -5 53.63 12.03 2
0 -8 5 55.24 11.25 1
0 -8 -5 61.44 16.3 6
0 -8 -5 69.63 14.01 9
0 -8 5 56.81 14.45 7
0 -8 5 39.51 13.47 4
0 -8 -5 65.72 12.77 1
1 8 -6 97.48 16.87 2
-1 -8 6 107.55 15.07 4
-1 -8 6 92.12 13.76 1
1 -8 -6 81.74 13.45 9
-1 -8 6 128.31 18.89 7
1 -8 -6 93.95 16.69 6
1 -8 -6 94.15 13.13 1
-2 8 7 135.26 17.2 1
-2 8 7 130.26 17.8 4
2 8 -7 123.89 16.62 2
2 -8 -7 109.11 19.15 6
-2 -8 7 134.07 16.27 4
-2 -8 7 95.17 13.97 1
-2 -8 7 137.6 17.81 7
2 -8 -7 155.05 18.32 9
2 -8 -7 175.68 18.87 1
-3 8 8 271.72 22.51 1
-3 8 8 219.27 23.06 4
3 -8 -8 188.07 28.13 8
-3 -8 8 196.59 24.25 7
-3 -8 8 253.17 19.8 1
3 -8 -8 247.15 23.67 9
-4 8 9 154.06 23.97 4
-4 8 9 144.33 18.2 1
4 -8 -9 132.49 20.07 9
-4 -8 9 165.45 21.3 7
-4 -8 9 176.97 18.44 1
-5 8 10 20.8 15.04 1
-5 -8 10 4.23 17.53 7
5 -8 -10 65.06 18.01 9
-5 -8 10 21.65 14.17 1
-4 -9 -1 25.52 12.47 1
4 -9 1 1.89 16.88 7
-4 -9 -1 35.88 18.62 6
-4 -9 -1 24.57 22.12 7
-3 -9 -2 -18.68 22.63 7
-3 -9 -2 7.09 17.53 6
3 -9 2 11.56 16.6 7
-3 -9 -2 36.48 14.29 1
-2 9 -3 -0.54 14.97 2
2 -9 3 23.95 16.31 7
-2 -9 -3 34.82 13.3 1
-2 -9 -3 18.53 15.91 6
-1 9 -4 72.65 18.28 2
-1 -9 -4 70.57 19.45 6
1 -9 4 79.02 15.79 7
-1 -9 -4 86.04 13.74 1
1 -9 4 70.44 12.49 1
0 9 -5 176.09 23.08 2
0 -9 5 146.18 19.88 7
0 -9 -5 166.59 20.24 9
0 -9 5 156.78 16.29 1
0 -9 -5 137.62 17.04 1
0 -9 5 192.93 22.81 4
0 -9 -5 192.71 24.66 6
1 9 -6 216.54 23.94 2
-1 -9 6 277.25 26.77 4
-1 -9 6 208.34 26.23 7
-1 -9 6 194.09 18.73 1
1 -9 -6 306.84 25.02 1
1 -9 -6 265.38 24.82 9
1 -9 -6 246.83 25.43 6
-2 -9 7 143.32 17.15 1
2 -9 -7 119.53 19.63 9
2 -9 -7 85.52 22.14 6
2 -9 -7 137.56 19.59 1
-2 -9 7 146.2 23.14 7
-3 9 8 45.47 16.15 1
3 -9 -8 41.78 16.55 9
3 -9 -8 35.51 15.16 1
-3 -9 8 35.15 14.73 1
-3 -9 8 48.32 18.08 7
10 0 -4 22.42 13.76 7
-10 0 4 23.66 16.65 5
10 0 -4 61.73 18.18 3
9 0 -3 5.47 10.9 7
9 0 -3 13.43 12.77 3
-9 0 3 -5.81 11.62 5
8 0 -2 8.34 8 3
-8 0 2 5.26 11.18 5
8 0 -2 9.91 11.9 7
7 0 -1 -2.89 6.49 3
-7 0 1 -8.84 6.66 5
7 0 -1 -2.95 9.56 7
6 0 0 120.86 14.58 7
-6 0 0 132.47 13.84 5
6 0 0 117.75 12.47 3
-6 0 0 118.6 12.58 6
5 0 1 -2.09 6.3 7
5 0 1 -0.34 4.04 3
-5 0 -1 2.12 4.23 6
-5 0 -1 -7.53 5.8 2
-5 0 -1 3.94 4.4 5
-4 0 -2 314.25 19.55 6
4 0 2 304.94 19.14 7
-4 0 -2 295.34 18.65 2
4 0 2 279.3 17.18 3
-4 0 -2 271.93 38.25 10
4 0 2 304.42 35.27 10
-4 0 -2 290.23 19 5
-4 0 -2 263.36 12.92 1
3 0 3 1.01 3.14 4
3 0 3 -5.84 4.57 3
-3 0 -3 0.13 4.73 2
-3 0 -3 3.05 5.08 6
3 0 3 -4.09 3.85 7
-3 0 -3 -4.28 4.98 5
2 0 4 1310.66 58.04 7
-2 0 -4 1300.24 58.05 5
-2 0 -4 1324.09 56.24 2
2 0 4 1299.55 59.24 4
-2 0 -4 1312.22 71.75 8
2 0 4 1316.39 54.14 3
-2 0 -4 1420.22 61.75 6
1 0 5 -2.44 2.84 4
1 0 5 0.16 1.43 7
-1 0 -5 -3.09 4.18 8
-1 0 -5 -4.72 4.47 6
-1 0 -5 -2.48 2.98 5
-1 0 -5 1.24 2.09 9
0 0 6 3413.55 143.14 4
0 0 6 3372.48 160.14 10
0 0 6 3268.16 122.71 1
0 0 -6 3209.42 159.12 10
0 0 -6 3514.14 128.72 3
0 0 -6 3254.02 142.12 6
0 0 -6 3304.2 131.57 9
0 0 -6 3541.31 167.34 8
0 0 -6 3362.34 129.63 2
-1 0 7 -23.36 27.71 10
1 0 -7 1.99 26.55 10
-1 0 7 3.52 3.56 4
1 0 -7 -2.23 3.3 9
1 0 -7 -1.82 3.94 3
1 0 -7 -1.44 3.95 8
-1 0 7 -1.49 2.57 1
1 0 -7 6.18 3.96 6
1 0 -7 0.7 3.53 2
2 0 -8 6658.86 265.23 9
2 0 -8 6988.15 256.86 3
2 0 -8 7097.21 332.73 8
2 0 -8 6521.46 327.42 10
-2 0 8 7052.66 286.96 4
2 0 -8 6920.98 282.22 6
-2 0 8 6704.74 250.63 1
2 0 -8 6836.67 256.99 2
-2 0 8 6844.54 329.96 10
3 0 -9 -5.34 7.31 8
3 0 -9 -7.36 5.47 3
3 0 -9 -1.45 3.49 9
-3 0 9 6.3 4.94 1
-3 0 9 -1.69 7.04 4
3 0 -9 4.38 4.3 6
3 0 -9 0.63 3.46 2
-3 0 9 -36.78 44.88 10
3 0 -9 -5.06 53.21 10
-4 0 10 223.73 15.99 1
-4 0 10 236.42 20.4 4
4 0 -10 256.09 17.25 9
4 0 -10 237.59 22.4 8
4 0 -10 240.99 17.06 3
5 0 -11 -5.48 6.91 8
5 0 -11 -4.06 6.29 3
5 0 -11 6.89 5.25 9
-5 0 11 1.95 9.17 4
-5 0 11 -11.79 7.76 1
6 0 -12 288.98 21.77 3
-6 0 12 301.64 26.67 4
6 0 -12 347.52 24 9
-6 0 12 325.74 22.4 1
7 0 -13 -1.36 13.11 8
7 0 -13 9.63 10.6 9
7 0 -13 20.4 11.25 3
-7 0 13 1.59 7.48 1
-7 0 13 -7.46 12.44 4
8 0 -14 -4.9 10.62 9
8 0 -14 0.16 11.57 3
-8 0 14 11.83 10.05 1
-8 0 14 -1.52 16.74 4
-10 1 4 2.57 13.41 5
10 1 -4 -14.46 18.42 7
10 1 -4 12.99 11.7 3
-10 -1 4 -30.68 16.5 5
10 -1 -4 -16.58 17.66 7
10 -1 -4 29.8 16.95 3
9 1 -3 60.29 16.19 7
9 1 -3 88.97 17.18 3
-9 1 3 90.69 14.16 5
-9 -1 3 61.19 15.37 5
9 -1 -3 49.9 14.99 3
9 -1 -3 93.31 16.62 7
8 1 -2 11.29 10.9 3
8 1 -2 -5.05 8.73 7
-8 1 2 -12.53 11.39 5
8 -1 -2 18.06 8.74 3
8 -1 -2 6.67 11.96 7
-8 -1 2 -5.54 9.17 5
7 1 -1 57.88 11.4 3
-7 1 1 71.53 11.19 5
7 -1 -1 102.15 11.79 3
7 -1 -1 68.45 14.01 7
-7 -1 1 93.79 13.44 5
-6 1 0 281.8 20.02 6
-6 1 0 253.03 19.64 2
-6 1 0 314.45 21.17 5
-6 1 0 294.24 19.83 4
6 1 0 281.8 19.41 3
-6 -1 0 286.47 20.9 5
6 -1 0 274.65 18.28 3
6 -1 0 282.24 22.34 7
-6 -1 0 260.44 19.38 6
5 1 1 309.41 19.02 3
-5 1 -1 267.27 18.48 2
-5 1 -1 282.49 19.62 5
-5 1 -1 310.4 19.89 6
5 -1 1 277.48 20.47 7
-5 -1 -1 265.61 19.3 5
-5 -1 -1 278.73 19.95 6
5 -1 1 302.03 18.22 3
-5 -1 -1 270.29 14.69 1
-4 1 -2 576.13 53.41 10
-4 1 -2 728.94 36.78 6
4 1 2 630.64 31.97 4
4 1 2 703.93 59.3 10
-4 1 -2 696.38 34.29 2
-4 1 -2 714.3 35.67 5
4 1 2 733.97 33.7 3
4 -1 2 716.12 36.58 7
-4 -1 -2 658.72 28.22 1
-4 -1 -2 738.83 37.19 6
-4 -1 -2 693.44 62.07 10
-4 -1 -2 684.64 34.87 2
4 -1 2 736.93 32.75 3
-4 -1 -2 698.79 35.28 5
-3 1 -3 6.02 5.08 5
3 1 3 3.31 4 3
-3 1 -3 0.15 4.65 2
3 1 3 5.2 2.86 4
-3 1 -3 1.48 4.08 6
-3 -1 -3 -3.5 5.03 6
3 -1 3 4.44 4.01 3
3 -1 3 1.65 4.17 7
-3 -1 -3 8.54 16.3 10
-3 -1 -3 -11 17 10
-3 -1 -3 3.93 1.73 1
-3 -1 -3 6.46 6.49 8
-3 -1 -3 2.49 3.95 2
-3 -1 -3 4.07 4.7 5
2 1 4 345.67 18.27 3
-2 1 -4 306.01 20.01 6
2 1 4 315.7 17.82 4
-2 1 -4 312.9 18.46 2
-2 1 -4 325.69 19.15 5
-2 -1 -4 332.62 19.23 5
-2 -1 -4 327.77 31.93 10
-2 -1 -4 362.16 19.86 2
-2 -1 -4 316.79 13.76 1
2 -1 4 321.07 19.48 4
2 -1 4 339.66 18.29 7
-2 -1 -4 360.09 18.07 9
-2 -1 -4 374.62 31.46 10
-2 -1 -4 330.55 24.07 8
2 -1 4 327.95 17.01 3
-2 -1 -4 359.41 21.38 6
1 1 5 6028.14 261.88 10
1 1 5 6161.64 250.95 4
-1 1 -5 6193.78 229.59 2
-1 1 -5 5885.66 230.87 9
-1 1 -5 5931.43 240.86 5
-1 1 -5 5560.17 292.58 8
1 1 5 5806.18 218.6 1
-1 -1 -5 6122.59 293.05 8
1 -1 5 6240.44 252.33 4
-1 -1 -5 6101.48 234.06 9
-1 -1 -5 6088.81 229.12 2
-1 -1 -5 6487.54 252.03 6
-1 -1 -5 6215.67 264.49 10
-1 -1 -5 6088.5 241.12 5
1 -1 5 6071.12 224.68 3
1 -1 5 5913.98 250.24 7
0 1 6 26.9 3.51 1
0 1 -6 17.24 4.11 2
0 1 -6 24.19 3.46 9
0 1 6 39.93 19.84 10
0 1 -6 33.89 16.59 10
0 1 6 19.19 5.48 4
0 1 -6 27.82 6.09 6
0 1 -6 11.06 5.92 8
0 -1 6 36 16.92 10
0 -1 -6 28.34 23.2 10
0 -1 6 15.11 3.01 7
0 -1 -6 16.68 4.45 6
0 -1 -6 17.68 4.67 2
0 -1 6 11.6 5.03 4
0 -1 -6 21.14 3.93 9
0 -1 -6 27.1 7.3 8
0 -1 6 23.24 2.64 1
-1 1 7 1315.89 94.35 10
1 1 -7 1337.51 54.73 2
1 1 -7 1309.08 54.02 3
1 1 -7 1321.7 59.59 6
1 1 -7 1168.81 88.1 10
-1 1 7 1302.1 51.6 1
1 1 -7 1313.31 54.31 9
1 1 -7 1284.48 70.24 8
-1 1 7 1340.53 61.38 4
1 -1 -7 1371.01 59.95 6
-1 -1 7 1291.01 60.91 4
1 -1 -7 1270.51 53.69 2
1 -1 -7 1415.3 73.09 8
1 -1 -7 1321.94 94.11 10
-1 -1 7 1195.1 86.89 10
1 -1 -7 1350.65 55.25 3
1 -1 -7 1332.62 56.25 9
-1 -1 7 1254.03 50.7 1
2 1 -8 53.33 6.49 9
2 1 -8 68.1 7.79 3
-2 1 8 63.43 6.9 1
2 1 -8 53.82 9.18 8
2 1 -8 74.07 39.05 10
2 1 -8 54.55 6.89 2
-2 1 8 69.13 9.75 4
-2 1 8 22 31.46 10
2 -1 -8 58.51 6.15 2
2 -1 -8 64.53 8.29 3
2 -1 -8 58.96 7.22 6
2 -1 -8 80.28 12.51 8
2 -1 -8 61.48 7.17 9
-2 -1 8 64.32 6.14 1
-2 -1 8 60.39 8.98 4
-2 -1 8 43.95 5.93 7
-2 -1 8 -12.24 32.88 10
2 -1 -8 20.6 29.58 10
3 1 -9 2021.53 102.39 8
-3 1 9 2107.35 91.44 4
3 1 -9 2052.86 78.58 2
3 1 -9 1971.01 81.25 9
-3 1 9 1792.99 143.78 10
3 1 -9 1997.45 79.4 3
-3 1 9 2029.39 77.86 1
3 1 -9 1628.54 137.91 10
-3 -1 9 1571.69 137.38 10
3 -1 -9 1873.91 148.24 10
-3 -1 9 1929.34 76.91 1
3 -1 -9 1943.37 76.22 2
3 -1 -9 2009.83 83.11 9
-3 -1 9 2010.9 89.66 4
3 -1 -9 2120.5 106.4 8
3 -1 -9 2037.56 84.72 6
3 -1 -9 1629.17 83.79 7
3 -1 -9 1982.4 80.33 3
4 1 -10 107.81 9.43 2
-4 1 10 136.94 14.74 4
4 1 -10 103.59 11.12 3
4 1 -10 104.42 13.17 8
-4 1 10 120.71 10.86 1
4 1 -10 123.76 11.69 9
-4 -1 10 123.83 11.21 1
4 -1 -10 82.82 9.87 7
4 -1 -10 134.88 17.26 8
-4 -1 10 121.42 13.17 4
-4 -1 10 90.82 10.39 7
4 -1 -10 130.31 12.87 9
4 -1 -10 107.21 11.41 3
5 1 -11 1206.66 55.28 9
-5 1 11 1190.61 53.3 1
5 1 -11 1166.19 52.73 3
-5 1 11 1147.35 62.23 4
5 -1 -11 1149.77 55.77 9
-5 -1 11 1142.44 61.03 4
5 -1 -11 1162.95 70.66 8
-5 -1 11 1220.2 52.81 1
5 -1 -11 1154.32 54.04 3
6 1 -12 -6.27 15.71 8
6 1 -12 4.97 8.01 3
-6 1 12 21.71 10.03 4
-6 1 12 15.78 8.55 1
6 1 -12 5.64 6.33 9
-6 -1 12 14 11.32 4
6 -1 -12 5.91 9.19 3
6 -1 -12 20.27 10.7 8
-6 -1 12 2.41 8.48 1
6 -1 -12 6.58 9.31 9
7 1 -13 11.66 10.96 9
-7 1 13 16.19 11.28 1
7 1 -13 23.4 9.83 3
-7 1 13 -3.13 14.2 4
7 -1 -13 6.04 7.93 9
-7 -1 13 2.59 10.09 1
7 -1 -13 0.37 12.06 8
-7 -1 13 -17.51 14.01 4
7 -1 -13 9.64 7.91 3
-8 1 14 16.23 10.08 1
-8 1 14 -21.6 17.93 4
8 1 -14 3.9 10.52 3
8 1 -14 23.52 13.71 9
-8 -1 14 5.07 16.02 4
8 -1 -14 12.18 9.79 9
8 -1 -14 -3.2 17.76 8
-8 -1 14 18.76 10.46 1
8 -1 -14 11.35 13.24 3
-9 2 3 0.4 13.2 5
9 2 -3 16.6 13.46 3
-9 -2 3 26.66 14.03 5
9 -2 -3 18.51 13.31 3
9 -2 -3 9.29 13.78 7
8 2 -2 28.59 12.63 3
8 -2 -2 46.52 12.45 7
8 -2 -2 48.21 10.97 3
7 2 -1 247.41 20.27 3
-7 2 1 258.81 21 5
-7 2 1 289.79 22.3 4
-7 2 1 280.66 22.35 2
7 -2 -1 288.12 24.54 7
7 -2 -1 267.83 20.14 3
-7 -2 1 291.28 22.4 5
-6 2 0 205.22 16.99 2
6 2 0 208.11 16.4 3
-6 2 0 211.7 18 5
-6 2 0 228.6 17.92 4
6 -2 0 215.63 18.77 7
-6 -2 0 192.86 16.61 6
-6 -2 0 203.05 13.93 1
6 -2 0 202.36 15.96 3
-6 -2 0 237.27 18.21 5
-5 2 -1 -0.64 4.4 5
-5 2 -1 0.72 4.49 2
-5 2 -1 6.18 4.81 4
5 2 1 0.32 4.09 3
-5 2 -1 -0.13 4.26 6
-5 -2 -1 -0.83 3.85 1
5 -2 1 -7.75 5.76 3
5 -2 1 2.74 6.68 7
-5 -2 -1 0.81 5.7 5
-5 -2 -1 15.07 7.71 6
-4 2 -2 113.39 10.58 2
4 2 2 114.53 10.84 3
4 2 2 17.85 38.55 10
-4 2 -2 106.95 11.59 6
-4 2 -2 101.72 11.09 5
4 -2 2 117.4 11.96 7
-4 -2 -2 109.97 7.9 1
-4 -2 -2 107.22 10.86 5
-4 -2 -2 114.26 11.12 7
4 -2 2 118.49 9.78 3
-4 -2 -2 116.86 33.05 10
-4 -2 -2 116.63 12.06 6
3 2 3 1012.64 45.38 3
3 2 3 989.52 45.7 4
-3 2 -3 1150.83 51.07 6
-3 2 -3 1050.01 46.51 2
-3 2 -3 1044.47 48.25 5
3 -2 3 1035.33 60.82 10
3 -2 3 1079.49 50.25 7
-3 -2 -3 1091.32 58.76 8
-3 -2 -3 1078.73 47.71 5
-3 -2 -3 1073.44 52.04 6
3 -2 3 1102.5 43.55 3
-3 -2 -3 1078.04 79.18 10
-3 -2 -3 981.62 40.92 1
-3 -2 -3 928.16 48.37 7
-3 -2 -3 917.34 74.3 10
-2 2 -4 865.23 40.02 2
-2 2 -4 870.17 43.26 6
-2 2 -4 863.92 40.75 5
2 2 4 838.83 40 4
2 2 4 876.49 39.1 3
-2 -2 -4 933.19 68.12 10
-2 -2 -4 931.54 41 2
2 -2 4 843.22 43.22 4
-2 -2 -4 868.63 50.3 8
-2 -2 -4 890.35 68.66 10
-2 -2 -4 869.59 34.91 1
2 -2 4 868.8 36.46 3
-2 -2 -4 923.43 44.8 6
-2 -2 -4 876.69 40.68 5
2 -2 4 841.39 41.59 7
-2 -2 -4 888.89 40.08 9
1 2 5 1392.3 92.43 10
1 2 5 1536.93 67.22 4
-1 2 -5 1426.5 65.06 5
1 2 5 1460.1 57.63 1
-1 2 -5 1585.36 63.38 2
1 -2 5 1528.67 59.13 3
1 -2 5 1418.73 55.65 1
1 -2 5 1470.94 66.52 7
-1 -2 -5 1478.18 57.78 1
-1 -2 -5 1518 94.91 10
-1 -2 -5 1734.66 101.14 10
1 -2 5 1397.18 77.71 10
1 -2 5 1397.89 78.65 10
-1 -2 -5 1612.84 81.01 8
-1 -2 -5 1565.3 63.27 2
1 -2 5 1482.08 68.73 4
-1 -2 -5 1519.71 63.96 9
-1 -2 -5 1646.12 70.33 6
0 2 6 661.04 33.08 4
0 2 -6 635.6 38.55 8
0 2 -6 631.66 30.38 2
0 2 6 620.23 64.08 10
0 2 -6 612.82 26.26 9
0 2 -6 515.31 49.27 10
0 2 6 647.03 27.32 1
0 -2 6 601.55 30.35 7
0 -2 6 606.28 25.46 1
0 -2 -6 635.75 39.78 8
0 -2 -6 666.66 66.32 10
0 -2 6 581.14 52.32 10
0 -2 -6 697.41 34.02 6
0 -2 -6 667.11 30.02 2
0 -2 -6 624.98 30.66 9
0 -2 6 660.22 33.64 4
1 2 -7 61.96 6.67 3
-1 2 7 53.09 38.32 10
1 2 -7 67.16 9.73 8
1 2 -7 65.88 8 2
1 2 -7 63.52 5.66 9
-1 2 7 67.34 6.92 1
1 2 -7 36.68 30.59 10
-1 2 7 67.16 9.32 4
1 -2 -7 63.12 6.89 2
1 -2 -7 57.58 7.72 3
-1 -2 7 61.64 5.83 1
1 -2 -7 153.38 46.8 10
1 -2 -7 68.31 7.87 6
1 -2 -7 59.57 7.27 9
-1 -2 7 66.34 6.71 7
-1 -2 7 80.59 8.79 4
-1 -2 7 40.71 27.47 10
1 -2 -7 71.3 12.32 8
2 2 -8 2072.92 86.9 2
-2 2 8 2145.67 84.77 1
2 2 -8 1910.92 138.37 10
2 2 -8 2145.81 87.48 9
-2 2 8 2376.94 99.76 4
2 2 -8 2277.46 86.11 3
-2 2 8 2105.79 144.46 10
2 2 -8 2199.08 110.74 8
2 -2 -8 2222.43 94.76 6
2 -2 -8 2064.79 91.41 7
2 -2 -8 2232.81 150.44 10
-2 -2 8 1798.46 137.91 10
2 -2 -8 2168.28 87.9 3
2 -2 -8 2219.7 84.84 2
-2 -2 8 2005.17 94.17 7
-2 -2 8 2221.11 83.61 1
-2 -2 8 2262.71 97.71 4
2 -2 -8 2187.65 90.88 9
2 -2 -8 2405.77 117.21 8
3 2 -9 65.62 10.16 8
3 2 -9 58.25 8.13 2
3 2 -9 57.27 7.75 3
3 2 -9 106.02 59.58 10
-3 2 9 82.61 13.03 4
-3 2 9 65.33 8.65 1
-3 2 9 -3.58 57.29 10
3 2 -9 59.67 7.52 9
-3 -2 9 -36.47 41.69 10
3 -2 -9 76.28 9.79 3
-3 -2 9 56.94 9.53 4
-3 -2 9 55.01 8.28 7
3 -2 -9 74.87 12.67 8
3 -2 -9 58.15 8.19 9
3 -2 -9 52.5 7.04 7
3 -2 -9 66.24 7.89 6
3 -2 -9 114.92 77.63 10
-3 -2 9 63.68 7.84 1
4 2 -10 68.32 8.49 2
4 2 -10 50.97 10.04 8
4 2 -10 66.93 9.18 9
-4 2 10 82.7 10.27 1
-4 2 10 63.52 12.45 4
4 2 -10 70.41 8.47 3
4 -2 -10 84.98 15.32 8
4 -2 -10 60.12 8.82 3
4 -2 -10 77.07 11.02 9
-4 -2 10 73.81 11 4
-4 -2 10 47.5 8.85 7
-4 -2 10 70.06 8.3 1
-5 2 11 223.78 17.13 1
-5 2 11 208.2 22.13 4
5 2 -11 235.87 16.85 3
5 2 -11 216.34 17.18 9
5 -2 -11 214.73 17.86 9
5 -2 -11 221.75 24.06 8
5 -2 -11 220.61 17.32 3
-5 -2 11 215.68 16.86 1
-5 -2 11 163.24 16.58 7
-5 -2 11 205.69 19.88 4
6 2 -12 541.77 31.48 3
-6 2 12 506.42 39.06 4
6 2 -12 536.88 32.66 9
-6 2 12 641.33 34.33 1
6 -2 -12 564.33 43.2 8
-6 -2 12 489.16 35.28 4
6 -2 -12 608.18 35.01 9
6 -2 -12 545.01 32.31 3
-6 -2 12 611 32.74 1
-7 2 13 34.84 17.67 4
-7 2 13 53.81 13.85 1
7 2 -13 36.12 12.08 3
7 2 -13 44.2 11.06 9
7 -2 -13 25.04 15.68 8
7 -2 -13 73.21 14.77 9
7 -2 -13 38.81 12.94 3
-7 -2 13 59.18 16.64 4
-7 -2 13 31.16 10.62 1
-8 2 14 74.19 21.51 4
8 2 -14 24.84 14.23 3
-8 2 14 17.09 10.87 1
8 -2 -14 30.19 11.4 3
8 -2 -14 12.63 13.54 9
-8 -2 14 26.09 13.75 1
8 -2 -14 24.02 17.53 8
-8 -2 14 -18.68 23.23 4
9 3 -3 15.09 13 3
9 -3 -3 -9.7 12.95 3
9 -3 -3 12.3 16.29 7
-8 3 2 9.64 9.11 5
8 3 -2 17.9 8.98 3
8 -3 -2 9.81 13.95 7
-8 -3 2 15.25 10.11 5
8 -3 -2 -0.82 9.82 3
7 3 -1 11.3 8.95 3
-7 3 1 8.56 9.45 4
-7 3 1 5.22 10.62 5
7 -3 -1 20.58 9.33 3
7 -3 -1 17.18 9.75 7
-6 3 0 170.64 14.85 2
-6 3 0 135.61 14.7 5
-6 3 0 168.82 16.51 4
6 3 0 161.27 15.69 3
-6 -3 0 173.48 15.45 5
-6 -3 0 163.61 13.68 1
-6 -3 0 151.14 16.43 6
6 -3 0 169.01 13.6 3
6 -3 0 154.44 16.53 7
-6 -3 0 164.35 17.67 7
5 3 1 502.22 27.71 3
-5 3 -1 534.13 30.85 4
-5 3 -1 481.57 27.44 2
-5 3 -1 492.01 28.87 5
-5 -3 -1 458.44 27.49 5
-5 -3 -1 476.46 30.31 7
-5 -3 -1 482.08 31.44 6
5 -3 1 482.43 24.95 3
-5 -3 -1 470.79 23.8 1
5 -3 1 516.93 31.23 7
-4 3 -2 580.13 29.33 2
4 3 2 556.75 28.59 3
4 3 2 380.22 70.92 10
-4 3 -2 558.57 30.3 5
-4 -3 -2 557.23 25.44 1
4 -3 2 544.28 31.56 7
-4 -3 -2 511.36 34.13 8
-4 -3 -2 501.77 70.37 10
-4 -3 -2 448.86 70.26 10
4 -3 2 552.25 25.74 3
-4 -3 -2 562.79 33.27 6
-4 -3 -2 563.18 29.32 5
-4 -3 -2 577.23 31.32 7
-3 3 -3 170.33 13.75 2
-3 3 -3 152.97 12.99 5
3 3 3 174.28 12.81 3
3 -3 3 185.37 14.75 7
-3 -3 -3 168.01 15.72 6
-3 -3 -3 125.82 43.59 10
-3 -3 -3 155.88 13.06 7
-3 -3 -3 245.47 48.48 10
3 -3 3 190.18 10.87 3
-3 -3 -3 147.25 11.85 5
-3 -3 -3 161.84 15.24 8
-3 -3 -3 177.96 10.87 1
-2 3 -4 144.97 12.36 2
2 3 4 172.32 12.76 3
2 3 4 139.04 10.47 4
-2 3 -4 175.81 12.81 5
-2 -3 -4 154.77 43.15 10
2 -3 4 139.93 8.24 1
-2 -3 -4 161.32 44.26 10
-2 -3 -4 158.76 9.96 1
2 -3 4 163.04 12.65 7
2 -3 4 141.45 29.7 10
2 -3 4 165.44 9.48 3
-2 -3 -4 165.41 14.56 6
-2 -3 -4 159.72 12.37 5
-2 -3 -4 156.91 12.76 9
2 -3 4 171.05 30.33 10
-2 -3 -4 151.37 15.28 8
-1 3 -5 401.96 22.77 2
1 3 5 411.98 23.34 4
-1 3 -5 392.32 22.84 5
1 -3 5 425.21 18.64 3
-1 -3 -5 417.22 20.27 1
-1 -3 -5 429.6 26.08 6
1 -3 5 434.97 45.09 10
1 -3 5 417.85 23.62 7
-1 -3 -5 438.4 29.83 8
1 -3 5 427.03 25.38 4
-1 -3 -5 452.59 24.07 9
-1 -3 -5 419.88 54.92 10
1 -3 5 378.13 44.24 10
1 -3 5 433.35 18.42 1
-1 -3 -5 452.78 61.02 10
0 3 6 2229.85 97.43 4
0 3 -6 1866.46 122.98 10
0 3 -6 2128.78 88.84 2
0 3 6 2195.64 84.59 1
0 3 6 2099.04 143.42 10
0 -3 6 2161.49 128.45 10
0 -3 -6 2240.48 145.99 10
0 -3 -6 2387.36 116.26 8
0 -3 6 2176.03 82.61 1
0 -3 6 2223.63 96.59 7
0 -3 6 2306.93 98.53 4
0 -3 -6 2155.85 91.49 9
0 -3 -6 2250.79 98.13 6
1 3 -7 96.21 6.78 9
-1 3 7 100.22 9.22 1
-1 3 7 104.01 11.97 4
1 3 -7 101.04 7.71 3
1 3 -7 101.06 12 8
1 3 -7 114.09 40.58 10
1 3 -7 103.78 10.21 2
-1 3 7 144.81 53.16 10
-1 -3 7 67.58 38.53 10
1 -3 -7 96.23 9.53 3
1 -3 -7 91.01 14.65 8
1 -3 -7 95.08 42.03 10
-1 -3 7 87.06 9.27 7
-1 -3 7 78.02 9.54 4
1 -3 -7 99.27 10.43 9
1 -3 -7 111.06 10.57 6
1 -3 -7 89.55 7.3 7
-1 -3 7 83.86 7.44 1
2 3 -8 83.09 10.97 8
2 3 -8 94.57 8.5 3
2 3 -8 72.89 9.27 2
-2 3 8 89.54 9.38 1
-2 3 8 108.64 48.52 10
2 3 -8 80.82 7.36 9
-2 3 8 101.46 13.38 4
2 3 -8 48.59 37.34 10
2 -3 -8 98.74 9.81 6
-2 -3 8 88.46 9.61 7
2 -3 -8 102.23 15.54 8
-2 -3 8 83.27 10.73 4
2 -3 -8 70.5 9.62 3
2 -3 -8 76.48 7.25 7
-2 -3 8 90.05 49.48 10
2 -3 -8 89.13 10.49 9
-2 -3 8 88.79 7.89 1
2 -3 -8 195.39 72.67 10
-3 3 9 1435.54 69.14 4
3 3 -9 1403.6 57.02 3
3 3 -9 1275.23 58.14 2
-3 3 9 1309.11 57.46 1
3 3 -9 1274.94 72.11 8
3 3 -9 1348.7 58.14 9
-3 -3 9 1408.69 56.81 1
3 -3 -9 1425.55 80.3 8
3 -3 -9 1314.91 62.02 6
-3 -3 9 1365.51 65.39 4
3 -3 -9 1379.86 59.74 3
-3 -3 9 1311.56 64 7
3 -3 -9 1379.23 62.1 9
-4 3 10 161.11 18.8 4
-4 3 10 129.92 13.05 1
4 3 -10 104.57 10.92 2
4 3 -10 141.33 12.38 3
4 3 -10 111.48 11.46 9
-4 -3 10 126.69 13.35 7
4 -3 -10 127.05 13.55 3
-4 -3 10 139.01 14.31 4
4 -3 -10 142.18 18.97 8
-4 -3 10 125.6 11.79 1
4 -3 -10 168.22 15.73 9
5 3 -11 318.26 20.96 9
-5 3 11 315.79 21.81 1
5 3 -11 307.09 20.32 2
5 3 -11 316.58 19.95 3
-5 3 11 298.27 26.38 4
5 -3 -11 315.14 21.92 3
5 -3 -11 316.87 23.18 9
-5 -3 11 283.13 23.07 4
-5 -3 11 324.96 21.49 1
5 -3 -11 305.92 30.05 8
6 3 -12 17.61 10.26 9
6 3 -12 41.39 10.47 3
-6 3 12 1.02 10.42 1
-6 3 12 5.49 14.3 4
-6 -3 12 24.07 9.51 4
6 -3 -12 21.57 9.25 9
6 -3 -12 38.93 15.01 8
-6 -3 12 28.49 12.13 7
-6 -3 12 32 10.86 1
6 -3 -12 16.67 10.19 3
7 3 -13 15.34 8.5 3
-7 3 13 2.23 14.35 4
7 3 -13 9.81 10.98 9
-7 3 13 5.97 9.01 1
-7 -3 13 30.43 16.16 4
7 -3 -13 -6.2 8.67 3
7 -3 -13 14.07 11.85 9
-7 -3 13 8.02 10.58 1
7 -3 -13 16.47 16.18 8
-7 -3 13 12.99 14.21 7
-8 3 14 66.55 15.17 1
8 3 -14 50.38 12.28 3
8 3 -14 36.8 13.99 9
-8 3 14 11.95 14.01 4
8 -3 -14 27.07 19.4 8
-8 -3 14 62.4 13.17 1
8 -3 -14 16.79 11.45 9
8 -3 -14 66.1 16.81 3
-9 4 3 -31.79 17.28 5
9 4 -3 -29.06 15.89 3
9 -4 -3 20.19 18.1 7
-8 4 2 0.3 11.89 4
8 4 -2 15.58 12.73 3
-8 4 2 -26.29 11.45 5
8 -4 -2 11.66 14.69 7
-8 -4 2 11.25 12.82 7
-8 -4 2 -6.34 13.87 5
7 4 -1 78.87 14.16 3
-7 4 1 88.18 14.25 4
-7 -4 1 75.05 14.38 6
-7 -4 1 72.24 13.02 5
7 -4 -1 86.37 16.28 7
-7 -4 1 76.93 16.84 7
-6 4 0 -9.18 8.59 2
6 4 0 -13.65 6.99 3
-6 4 0 0.86 6.87 5
-6 4 0 8.85 9.59 4
-6 -4 0 11.63 6.45 1
-6 -4 0 20.95 11.27 7
-6 -4 0 10.18 9.32 6
6 -4 0 1.14 10.01 7
-6 -4 0 3.22 7.46 5
-5 4 -1 -5.09 7.48 2
-5 4 -1 9.13 7.2 5
5 4 1 -2.64 6.98 3
-5 4 -1 2.91 5.95 4
-5 -4 -1 -5.67 7.03 5
-5 -4 -1 -4.19 6.01 7
5 -4 1 2.77 8.34 7
-5 -4 -1 0.26 5.91 1
-5 -4 -1 2.27 9.4 6
4 4 2 102.03 10.71 3
-4 4 -2 114.84 12.13 5
-4 4 -2 105.12 11.8 2
-4 -4 -2 98.66 9.27 1
-4 -4 -2 105.07 11.93 7
-4 -4 -2 108.19 14.3 6
-4 -4 -2 302.5 84.07 10
4 -4 2 119.33 12.95 7
-4 -4 -2 43.07 59.6 10
-4 -4 -2 112.09 10.97 5
-3 4 -3 1989.66 80.53 5
-3 4 -3 1879.17 78.05 2
3 4 3 1875.98 76.68 3
-3 -4 -3 1795.74 96.34 8
-3 -4 -3 1953.27 88.24 6
-3 -4 -3 1659.62 136.37 10
-3 -4 -3 1844.84 73.56 1
-3 -4 -3 1757.44 138.54 10
3 -4 3 1902.9 86.61 7
-3 -4 -3 1919.88 79.26 5
-3 -4 -3 1668.67 84.14 7
-2 4 -4 158.62 11.78 5
-2 4 -4 146.55 13.14 2
2 4 4 144.73 12.36 3
-2 -4 -4 117.12 47.73 10
2 -4 4 132.97 12.72 7
-2 -4 -4 233.02 61.76 10
-2 -4 -4 122.62 11.68 7
-2 -4 -4 170.89 11.53 1
-2 -4 -4 147.91 14.7 6
-2 -4 -4 142.25 15.58 8
-2 -4 -4 132.98 12.91 9
-1 4 -5 766.2 37.85 2
1 4 5 754.72 38.68 4
1 4 5 811.95 37 3
-1 -4 -5 822.6 42.71 6
1 -4 5 685.59 72.99 10
-1 -4 -5 810.65 35.12 1
1 -4 5 780.9 32.74 1
1 -4 5 802.35 42.25 4
-1 -4 -5 708.7 85.28 10
-1 -4 -5 728.72 47.12 8
1 -4 5 802.61 40.76 7
1 -4 5 667.89 72.19 10
-1 -4 -5 826.2 39.34 9
-1 -4 -5 881.01 87.61 10
0 4 6 49.66 7.4 1
0 4 -6 39.28 37.93 10
0 4 6 -13.08 51.2 10
0 4 -6 72.69 9.79 2
0 4 6 45.99 8.89 4
0 -4 -6 40.04 6.56 7
0 -4 6 47.18 8.15 7
0 -4 -6 55.72 9.3 6
0 -4 6 76.04 42.14 10
0 -4 -6 -4.36 50.03 10
0 -4 6 52.1 8.95 4
0 -4 -6 55.13 12.33 8
0 -4 -6 65.86 9.3 9
0 -4 6 55.87 34.59 10
0 -4 6 61.2 6.44 1
-1 4 7 791.64 42.75 4
-1 4 7 775.38 102.42 10
-1 4 7 804.63 36.46 1
1 4 -7 649.78 80.03 10
1 4 -7 796.78 38.57 2
-1 -4 7 760.24 41.61 4
-1 -4 7 633.02 78.82 10
1 -4 -7 895.5 52.55 8
-1 -4 7 788.35 40.61 7
1 -4 -7 775.66 39.45 9
1 -4 -7 802.19 41.8 6
1 -4 -7 782.22 37.6 3
1 -4 -7 787.62 103.42 10
-1 -4 7 810.86 34.66 1
2 4 -8 558.32 30.48 2
-2 4 8 603.05 36.18 4
-2 4 8 607.01 30.11 1
2 4 -8 477.71 91.12 10
-2 -4 8 384.05 75.05 10
2 -4 -8 594.5 30.71 3
-2 -4 8 558.73 27.71 1
-2 -4 8 572.58 32.73 7
2 -4 -8 599.65 32.79 9
2 -4 -8 644.88 43.33 8
2 -4 -8 559.59 32.14 6
-2 -4 8 590.29 33.42 4
3 4 -9 616.72 33.76 2
-3 4 9 684.27 34.08 1
-3 4 9 708.72 41.19 4
3 4 -9 642.52 32.04 9
3 -4 -9 718.47 47.84 8
-3 -4 9 623.78 36.96 7
-3 -4 9 638.24 32.06 1
-3 -4 9 693.88 38.06 4
3 -4 -9 642.53 34.6 3
3 -4 -9 669.79 36.2 9
-4 4 10 6.08 8.38 4
4 4 -10 -0.83 6.79 2
4 4 -10 -3.84 7.56 9
-4 4 10 -19.57 8 1
4 -4 -10 6.03 6.3 3
-4 -4 10 -0.57 5.93 7
4 -4 -10 8.75 8.23 9
-4 -4 10 -6.15 7.55 4
4 -4 -10 0.88 11.11 8
-4 -4 10 0.12 4.78 1
5 4 -11 10.95 6.25 2
5 4 -11 2.91 7.17 9
-5 4 11 4.87 9.02 4
-5 4 11 3.39 9.65 1
5 -4 -11 16.01 7.98 9
5 -4 -11 19.88 8.02 3
-5 -4 11 -1.47 7.57 7
-5 -4 11 -0.17 7.29 4
5 -4 -11 27.12 14.79 8
-5 -4 11 4.78 8.57 1
-6 4 12 46.54 17.47 4
-6 4 12 16.21 11.12 1
6 -4 -12 25.39 12.04 3
6 -4 -12 21.38 17.27 8
-6 -4 12 12.31 9.41 4
-6 -4 12 31.3 13.39 7
-6 -4 12 17.28 10.94 1
7 4 -13 20.44 13.5 9
-7 4 13 4.29 13.01 1
-7 4 13 38.41 18.59 4
7 -4 -13 30.5 12.46 3
7 -4 -13 28.08 19.55 8
7 -4 -13 28.53 11.01 9
-7 -4 13 4.17 10.08 1
-7 -4 13 11.5 13.72 7
8 4 -14 -9.99 14.97 9
-8 4 14 -7.31 18.12 4
-8 4 14 -1.37 14.31 1
8 -4 -14 -8.2 15.17 9
8 -4 -14 2.15 16.22 3
8 -4 -14 11.25 15.77 8
-8 -4 14 -8.57 10.51 1
-8 5 2 0.54 12.17 4
8 5 -2 5.05 12.77 3
-8 -5 2 -43.13 18.08 7
8 -5 -2 -1.64 14.6 7
-7 5 1 -7.28 11.32 4
-7 5 1 12.79 8.7 5
7 5 -1 -3.13 10.97 3
-7 -5 1 -6.64 13.06 6
7 -5 -1 -5.64 13.18 7
-7 -5 1 18 14.37 7
-6 5 0 120.88 14.66 5
6 5 0 79.83 12.67 3
-6 5 0 110.14 14.78 4
-6 -5 0 82.62 14.82 6
-6 -5 0 103.02 15.21 7
-6 -5 0 100.12 12.8 1
6 -5 0 87.86 14.01 7
-5 5 -1 8.97 8.25 4
5 5 1 0.3 7.62 3
-5 5 -1 -2.52 8.31 5
-5 5 -1 15.36 7.12 2
-5 -5 -1 -6.16 11.04 6
-5 -5 -1 8.32 7.36 1
-5 -5 -1 14.5 10.4 7
5 -5 1 -0.6 9.17 7
4 5 2 597.17 32.03 3
-4 5 -2 605.25 32.6 2
-4 5 -2 622.75 33.21 5
-4 -5 -2 610.54 38.69 6
4 -5 2 633.22 37.8 7
-4 -5 -2 584.2 30.18 1
-4 -5 -2 591.17 36.31 7
-3 5 -3 78.23 10.05 2
-3 5 -3 87.52 10.16 5
3 5 3 96.71 10.18 3
3 -5 3 93.48 13.19 7
-3 -5 -3 95.31 14.44 6
-3 -5 -3 69.07 11.47 7
-3 -5 -3 100.36 9.73 1
-2 5 -4 173.29 15.29 2
-2 5 -4 182.94 13.11 5
2 5 4 159.91 13.66 3
-2 -5 -4 163.35 17.41 6
-2 -5 -4 152.15 15.86 8
-2 -5 -4 152.46 12.58 1
-2 -5 -4 164.4 15.04 9
-2 -5 -4 162.82 14.37 7
2 -5 4 158 15.88 7
-1 5 -5 376.24 23.19 2
1 5 5 344.89 21.36 3
-1 -5 -5 323.57 19.94 1
-1 -5 -5 382.31 23.8 9
1 -5 5 376.7 24.74 7
-1 -5 -5 391.05 26.86 6
-1 -5 -5 336.47 22.1 7
1 -5 5 370.62 19.25 1
-1 -5 -5 333.29 27.87 8
0 5 -6 1089.81 51.9 2
0 5 6 1165.96 49.47 1
0 5 6 1126.89 55.03 4
0 -5 6 1153.4 57.02 4
0 -5 6 1048.65 109.96 10
0 -5 6 840.79 94.65 10
0 -5 -6 1114.05 49.18 1
0 -5 -6 1204.75 68.37 8
0 -5 -6 1148.56 53.82 9
0 -5 6 1222.79 57.07 7
0 -5 -6 980.94 52.66 7
0 -5 6 1129.71 47.18 1
0 -5 -6 1188.68 58.09 6
1 5 -7 197.34 15.82 2
-1 5 7 181.29 17.56 4
-1 5 7 190.47 15.05 1
1 -5 -7 180.35 16.56 9
-1 -5 7 212.19 17.89 4
-1 -5 7 195.95 13.91 1
1 -5 -7 191.68 21.53 8
1 -5 -7 222.33 18.49 6
-1 -5 7 198.4 17.14 7
-1 -5 7 135.23 79.31 10
-2 5 8 10.58 6.89 1
-2 5 8 16.36 7.8 4
2 5 -8 9.52 7.91 2
2 -5 -8 2.96 5.74 6
2 -5 -8 15.02 6.22 9
2 -5 -8 8.65 5.72 3
-2 -5 8 22.04 8.47 4
2 -5 -8 11.26 11.11 8
-2 -5 8 6.55 6.09 1
-2 -5 8 -6.99 7.66 7
-3 5 9 10.08 6.26 1
3 5 -9 13.12 8.25 2
-3 5 9 -6.52 8.22 4
-3 -5 9 14.05 7.49 1
3 -5 -9 15.47 7.52 9
3 -5 -9 4.59 7.82 3
-3 -5 9 -8.37 9.03 7
3 -5 -9 -1.39 9.61 8
-3 -5 9 12.66 8.62 4
3 -5 -9 -8.88 10.99 6
-4 5 10 108.35 18.26 4
-4 5 10 95.81 14.11 1
4 5 -10 129.1 14.73 2
4 -5 -10 118.24 18.93 8
4 -5 -10 154.19 15.89 3
-4 -5 10 116.77 13.33 1
-4 -5 10 115.95 14.87 7
4 -5 -10 110.48 15.46 9
-4 -5 10 122.72 14.15 4
5 5 -11 7.04 9.69 2
-5 5 11 -2.73 12.84 4
-5 5 11 11.92 10.45 1
5 -5 -11 9.46 10.48 9
5 -5 -11 2.25 10 3
-5 -5 11 1.5 8.86 1
5 -5 -11 -2.03 15.28 8
-5 -5 11 9.65 11.25 4
-5 -5 11 7.53 10.42 7
-6 5 12 26.11 14.87 4
-6 5 12 23.59 11.23 1
6 5 -12 39.02 13.24 2
6 -5 -12 1.24 17.82 8
6 -5 -12 7.3 13.1 9
-6 -5 12 8.62 11.72 1
6 -5 -12 20.45 11.48 3
-6 -5 12 15.85 14.62 7
-7 5 13 18.66 15.19 1
-7 5 13 16.26 18.43 4
7 -5 -13 22.64 15.91 9
7 -5 -13 -2.73 19.93 8
-7 -5 13 56.97 19.43 7
-7 -5 13 14.76 10.88 1
7 -5 -13 23.67 11.61 3
8 6 -2 11.35 13.58 3
-8 6 2 -2.61 15.93 4
-8 -6 2 5.87 14.85 7
8 -6 -2 7.69 17.05 7
-7 6 1 98.16 17.82 4
7 6 -1 103.53 16.25 3
-7 -6 1 92 20.84 7
-7 -6 1 126.22 17.65 1
7 -6 -1 88.75 19.59 7
-6 6 0 29.17 13.57 4
6 6 0 0.27 10.17 3
-6 -6 0 -6.75 14.92 6
6 -6 0 8.93 9.41 7
-6 -6 0 5.64 7.58 1
-6 -6 0 0.84 9.77 7
5 6 1 8.64 7.16 3
-5 6 -1 3.42 11.2 4
-5 -6 -1 2.35 11.14 6
5 -6 1 8.37 8.65 7
-5 -6 -1 3.96 6.2 1
-5 -6 -1 0.18 11.53 7
-4 6 -2 22.08 8.78 2
4 6 2 8.38 8.22 3
-4 -6 -2 19.41 13.25 6
-4 -6 -2 14.49 8.52 7
4 -6 2 26.05 11.88 7
-4 -6 -2 7.84 8.18 1
3 6 3 794.11 37.92 3
-3 6 -3 754.88 39.32 2
-3 -6 -3 626.45 41.46 7
-3 -6 -3 793.33 46.06 6
3 -6 3 770.52 44.39 7
-3 -6 -3 714.96 36.2 1
-2 6 -4 37.81 10.03 2
2 6 4 29.44 8.17 3
-2 -6 -4 21.17 12.08 7
-2 -6 -4 30.19 11.45 6
2 -6 4 46.53 11.53 7
-2 -6 -4 22.38 7.38 9
-2 -6 -4 40.37 7.85 1
1 6 5 418.14 24.26 3
-1 6 -5 447.62 27.4 2
-1 -6 -5 410.51 26.33 9
-1 -6 -5 405.56 24.11 1
1 -6 5 391.99 22.09 1
1 -6 5 385.99 28.06 7
-1 -6 -5 419.57 29.39 6
0 6 -6 18.11 9.32 2
0 6 6 -2.17 5.07 1
0 -6 -6 6.57 8.68 6
0 -6 6 7.65 5.09 1
0 -6 -6 -8.28 6.72 1
0 -6 -6 -5.35 8.07 9
0 -6 6 6.16 8.17 7
0 -6 -6 13 8.53 8
0 -6 6 17.16 9.06 4
-1 6 7 124.55 14.17 4
-1 6 7 121.62 13.34 1
1 6 -7 132.26 14.98 2
-1 -6 7 126.15 15.47 7
-1 -6 7 150.73 15.98 4
1 -6 -7 124.46 18.12 8
1 -6 -7 142.52 15.65 9
-1 -6 7 117.37 11.17 1
1 -6 -7 142.24 15.18 6
2 6 -8 -1.65 6.31 2
-2 6 8 13.29 6.77 1
-2 6 8 16.12 8.75 4
-2 -6 8 4.69 7.06 1
2 -6 -8 35.78 10.78 9
2 -6 -8 10.46 9.49 6
2 -6 -8 10.02 8.7 3
-2 -6 8 -4.97 8.4 7
-2 -6 8 12.41 8.98 4
2 -6 -8 22.89 14.26 8
-3 6 9 9.68 8.87 1
3 6 -9 9.6 7.29 2
-3 6 9 10.34 12.28 4
3 -6 -9 1.07 9.16 9
3 -6 -9 22.22 10.32 3
3 -6 -9 40.37 13.01 8
-3 -6 9 18.35 8.79 1
-3 -6 9 17.37 10.53 7
4 6 -10 33.23 12.07 2
-4 6 10 -7.08 12.24 4
-4 6 10 4.93 7.41 1
4 -6 -10 4.51 11.05 8
4 -6 -10 7.34 10.03 3
-4 -6 10 11.68 9.39 1
-4 -6 10 9.92 10.19 4
-4 -6 10 23.91 12.17 7
4 -6 -10 -8.66 11.86 9
-5 6 11 201.43 21.03 1
-5 6 11 185.89 25.46 4
5 6 -11 211.36 19.22 2
5 -6 -11 179.16 21.5 9
5 -6 -11 209.95 20.79 3
-5 -6 11 223.56 19.69 1
5 -6 -11 156.12 27.74 8
-6 6 12 -1.42 13.5 1
-6 6 12 -1.65 12.05 4
6 6 -12 9.23 10.91 2
6 -6 -12 12.57 13.72 3
-6 -6 12 4.87 9.19 1
6 -6 -12 24.36 20.1 8
6 -6 -12 -3.82 14.4 9
-6 -6 12 9.09 14.11 7
-7 7 1 27.36 17.36 4
7 7 -1 -12.53 14.79 3
7 -7 -1 34.63 18.52 7
-7 -7 1 36.13 21.63 7
-7 -7 1 15.71 19.77 1
-7 -7 1 -4.08 13.87 6
-6 7 0 104.28 19.86 4
6 7 0 88.83 16.28 3
6 -7 0 85.65 16.44 7
-6 -7 0 100 22.04 7
-6 -7 0 138.65 15.43 1
-6 -7 0 94.24 22.43 6
5 7 1 7.82 7.9 3
5 -7 1 -0.37 12.55 7
-5 -7 -1 9.57 11.46 6
-5 -7 -1 -2.01 9.37 1
-5 -7 -1 28.11 16.39 7
-4 7 -2 263.68 20.56 2
4 7 2 225.29 19.57 3
-4 -7 -2 255.9 26.31 6
4 -7 2 205.1 21.74 7
-4 -7 -2 180.47 24.62 7
-4 -7 -2 234.68 19.11 1
-3 7 -3 57.86 13.18 2
3 7 3 56.26 11.51 3
-3 -7 -3 43.39 17.06 7
-3 -7 -3 89.62 15.19 6
-3 -7 -3 56.57 9.82 1
3 -7 3 52.8 14.17 7
2 7 4 9.13 8.19 3
-2 7 -4 3.23 10.23 2
-2 -7 -4 5.9 11.48 6
2 -7 4 -8.02 9.36 7
-2 -7 -4 0.6 5.63 1
-1 7 -5 96.28 13.65 2
1 7 5 109.81 12.07 3
-1 -7 -5 113.19 17.5 6
-1 -7 -5 114.72 12.61 1
1 -7 5 137.82 17.66 7
-1 -7 -5 132.62 16.34 9
0 7 6 155.3 15.24 3
0 7 -6 176.57 17.3 2
0 -7 -6 176.37 20 6
0 -7 6 198.01 19.79 4
0 -7 6 157.87 18.77 7
0 -7 -6 122.55 18.26 8
0 -7 -6 141.9 14.47 1
0 -7 6 174.59 14.77 1
0 -7 -6 179.7 17.25 9
-1 7 7 59.71 12.35 1
1 7 -7 47.25 12.27 2
1 -7 -7 65.3 12.38 1
1 -7 -7 69.49 13.08 9
-1 -7 7 62.14 11.28 4
-1 -7 7 69.53 13.92 7
1 -7 -7 61.68 11.96 6
-1 -7 7 45.01 9.3 1
1 -7 -7 52.57 13.52 8
-2 7 8 46.93 11.37 4
2 7 -8 46.53 10.62 2
-2 7 8 23.79 10.72 1
2 -7 -8 39.44 13.31 8
-2 -7 8 46.71 12.37 4
2 -7 -8 39.69 10.52 9
-2 -7 8 43.23 12.34 7
2 -7 -8 52.71 12.14 6
-2 -7 8 35.2 10.18 1
-3 7 9 61.16 11.01 1
-3 7 9 43.35 15.53 4
3 -7 -9 38.71 17.46 8
-3 -7 9 78.15 12.83 1
3 -7 -9 40.89 9.82 3
3 -7 -9 45.33 13.91 9
-3 -7 9 40.29 11.55 7
-3 -7 9 49.16 12.9 4
4 7 -10 192.32 21.41 2
-4 7 10 190.57 18.5 1
-4 7 10 159.76 21.06 4
4 -7 -10 186.77 20.62 9
4 -7 -10 180.38 19.61 3
-4 -7 10 163.08 21.26 7
-4 -7 10 203.67 19.48 1
-5 7 11 44.67 15.55 1
5 7 -11 43.73 13.06 2
-5 7 11 46.15 19.15 4
5 -7 -11 17.16 14.61 9
-5 -7 11 -7.38 15.65 7
-5 -7 11 30.67 11.19 1
5 -7 -11 27.87 16.03 8
5 -7 -11 33.08 14.81 3
-5 -8 -1 21.63 19.27 6
-5 -8 -1 3.37 8.78 1
5 -8 1 53.6 18.79 7
-4 -8 -2 -5.96 15.55 6
-4 -8 -2 -25.97 11.96 1
4 -8 2 -8.5 14.98 7
-3 8 -3 71.01 13.4 2
3 -8 3 73.87 14.87 7
-3 -8 -3 79.3 18.87 6
-3 -8 -3 56.83 13.61 1
-2 8 -4 5.76 13.18 2
-2 -8 -4 -6.71 10.55 6
2 -8 4 5.58 12.17 7
-2 -8 -4 9.45 9.07 1
-1 8 -5 12.72 9.82 2
-1 -8 -5 30.06 9.99 9
1 -8 5 10.89 9.74 7
-1 -8 -5 27.79 12.06 1
-1 -8 -5 29.7 11.95 6
0 8 -6 137.26 17.14 2
0 -8 6 148.42 19.14 4
0 -8 -6 106.38 16.66 6
0 -8 6 101.72 17.7 7
0 -8 -6 129.89 14.94 1
0 -8 -6 113.28 15.44 9
1 8 -7 160.56 20.59 2
-1 -8 7 176.19 16.64 1
1 -8 -7 157.29 17.85 9
1 -8 -7 182.6 17.84 1
-1 -8 7 170.56 19.81 7
-1 -8 7 215.19 20.39 4
1 -8 -7 122.17 20.17 6
-2 8 8 195.69 19.03 1
2 8 -8 201.07 21.08 2
-2 -8 8 202.55 18.34 1
-2 -8 8 220.5 21.95 4
2 -8 -8 229.19 21.5 1
-2 -8 8 204.56 23.66 7
2 -8 -8 155.51 22.33 6
2 -8 -8 231.54 22.8 9
-3 8 9 93.34 19.72 4
3 8 -9 113.72 18.28 2
-3 8 9 76.35 15.42 1
3 -8 -9 74.36 18.34 8
-3 -8 9 66.06 14.7 7
-3 -8 9 76.26 14.6 1
3 -8 -9 101.77 16.72 9
-4 8 10 29.1 12.58 1
-4 8 10 11.27 16.68 4
4 -8 -10 -5.34 13.59 9
4 -8 -10 13.84 14.54 8
-4 -8 10 31.63 17.86 7
-4 -8 10 -2.46 13.12 1
-3 -9 -3 14.04 17.27 6
-3 -9 -3 12.3 13.53 1
3 -9 3 6.36 14.12 7
-2 9 -4 53.07 18.11 2
-2 -9 -4 76.38 13.51 1
-2 -9 -4 45.98 15.25 6
2 -9 4 96.55 20.2 7
-1 9 -5 68.95 16.38 2
-1 -9 -5 54.42 16.99 6
1 -9 5 48.95 17.21 4
-1 -9 -5 73.48 17.1 9
-1 -9 -5 56.71 15.13 1
0 -9 6 135.91 20.56 4
0 -9 -6 140.28 20.71 6
0 -9 -6 175.1 21.21 9
0 -9 6 151.45 23.24 7
0 -9 -6 145.54 19.57 1
-1 -9 7 -19.12 15.29 7
1 -9 -7 -10.35 10.09 1
-1 -9 7 33.89 14.89 4
1 -9 -7 7.61 10.36 9
1 -9 -7 29.28 17.11 6
2 -9 -8 -15.93 23.53 6
2 -9 -8 11.06 14.53 1
-2 -9 8 5.17 11.79 7
2 -9 -8 -3.85 14.91 9
-2 -9 8 4.09 12.58 1
9 0 -2 7.35 14.7 7
9 0 -2 22.63 14 3
8 0 -1 4.29 12.78 7
8 0 -1 -9.26 11.19 3
-7 0 0 212.8 19.04 5
7 0 0 181.46 17.16 3
7 0 0 169.56 18.88 7
6 0 1 2.92 5.47 3
6 0 1 4.97 7.03 7
-6 0 -1 6.4 8.1 2
-6 0 -1 8.25 5.96 6
-6 0 -1 -6.31 6 5
5 0 2 73.78 9.15 3
-5 0 -2 99.19 12.09 2
5 0 2 94.17 12.09 7
-5 0 -2 81.49 10.61 5
-5 0 -2 89.39 11.52 6
-4 0 -3 -2.56 4.38 5
-4 0 -3 -5.14 5.58 6
4 0 3 0.25 3.57 7
4 0 3 2.73 3.37 4
4 0 3 0.72 5.13 3
-4 0 -3 -1.21 6.21 2
-3 0 -4 1212.87 53.66 2
3 0 4 1066.72 54.47 7
-3 0 -4 1331.08 58.92 6
-3 0 -4 1154.41 54.87 5
3 0 4 1247.39 55.64 4
3 0 4 1241.77 51.5 3
2 0 5 -2.62 3.03 3
-2 0 -5 2.47 5.04 6
2 0 5 1.33 2.84 7
-2 0 -5 -3.3 5.67 8
-2 0 -5 -2.47 4.93 2
2 0 5 -1.42 4.02 4
-2 0 -5 -0.61 4.52 5
-1 0 -6 12 5.75 6
-1 0 -6 2.38 2.97 9
-1 0 -6 -1.43 4.11 8
-1 0 -6 3.91 4.01 2
0 0 -7 -1.33 4.25 2
0 0 7 2.25 2.18 1
0 0 -7 -3.47 3.5 9
0 0 7 -3.28 4.78 4
0 0 -7 0.46 4.23 6
0 0 -7 -1.49 16.36 10
0 0 -7 -3.64 5.94 8
0 0 7 -8.93 19.61 10
1 0 -8 1845.51 74.27 2
1 0 -8 1841.32 96.99 8
-1 0 8 1780.78 115.43 10
1 0 -8 1907.61 74.93 3
-1 0 8 1916.13 84.05 4
1 0 -8 1623.05 113.47 10
1 0 -8 1802.64 75.42 9
-1 0 8 1810.38 69.95 1
1 0 -8 1832.41 81.42 6
-2 0 9 -3.54 5.85 4
-2 0 9 4.57 4.17 1
2 0 -9 -8.54 5.11 6
2 0 -9 0.57 39.82 10
2 0 -9 4.43 7.19 8
2 0 -9 2.38 3.35 9
-2 0 9 21.99 36.54 10
2 0 -9 0.64 4.19 2
2 0 -9 -1.72 5.41 3
-3 0 10 55.92 9.48 4
3 0 -10 34.33 6.94 6
3 0 -10 40.73 10.52 8
3 0 -10 38.93 5.86 2
-3 0 10 -10.45 44.22 10
3 0 -10 31.15 6.41 3
-3 0 10 34.19 5.95 1
3 0 -10 -30.36 60.2 10
3 0 -10 30.66 7.04 9
4 0 -11 -6.28 6.95 3
4 0 -11 -3.39 6.34 9
-4 0 11 -0.05 6.21 1
-4 0 11 4.17 6.7 4
4 0 -11 -13.16 9.02 8
5 0 -12 293.85 20.77 3
5 0 -12 262.19 26.62 8
-5 0 12 298.12 24.83 4
-5 0 12 264.49 19.05 1
5 0 -12 274.63 21.04 9
6 0 -13 10.89 9.97 3
-6 0 13 -30.56 14.79 4
6 0 -13 5.65 11.58 8
-6 0 13 0.77 9.86 1
6 0 -13 -2.26 9.48 9
7 0 -14 19.22 9.77 3
7 0 -14 -19.73 12.19 9
-7 0 14 6.64 8.42 1
-7 0 14 -13.78 12.84 4
8 0 -15 -0.17 9.5 3
8 0 -15 16.29 14.46 9
-8 0 15 -4.93 10.4 1
-8 0 15 10.68 18.3 4
9 1 -2 14.12 10.31 3
9 1 -2 -11.43 15.71 7
9 -1 -2 -4.8 9.57 3
9 -1 -2 -30.59 14.99 7
8 1 -1 0.34 11.55 7
8 1 -1 0.45 9.61 3
8 -1 -1 -18.05 11.2 7
8 -1 -1 -13.8 11.73 3
7 1 0 4.61 6.98 3
7 1 0 12.79 10.69 7
-7 1 0 8.03 9.28 2
-7 -1 0 -0.55 9.14 5
7 -1 0 -9.93 9.54 3
7 -1 0 5.16 8.64 7
6 1 1 324.49 24.59 7
-6 1 -1 399.76 25.06 2
-6 1 -1 344.05 23.96 5
6 1 1 374.17 24 3
-6 1 -1 366.91 24.95 6
6 -1 1 369.84 26.41 7
-6 -1 -1 371.42 24.85 5
-6 -1 -1 375.39 24.5 6
6 -1 1 363.35 22.33 3
-5 1 -2 131.94 13.32 6
-5 1 -2 155.45 14.61 2
-5 1 -2 133.31 13.34 5
5 1 2 141.83 13.3 3
5 -1 2 132.81 12.55 3
-5 -1 -2 161.41 14.69 5
5 -1 2 129.63 13.91 7
-5 -1 -2 140.4 14.73 6
-5 -1 -2 170.42 14.92 2
-4 1 -3 158.87 13.57 2
-4 1 -3 185.1 15.68 6
4 1 3 148.62 12.61 7
-4 1 -3 181.16 15.12 5
4 1 3 182.75 13.37 3
4 -1 3 180.87 13.06 3
-4 -1 -3 145.1 14.65 6
-4 -1 -3 164.88 15.16 2
4 -1 3 154.86 13.64 7
-4 -1 -3 161.01 14.12 5
3 1 4 13.86 4.47 4
-3 1 -4 18.06 6.18 2
-3 1 -4 16.8 5.49 6
3 1 4 12.38 4.45 7
-3 1 -4 13.95 5.84 5
3 1 4 17.43 5.17 3
-3 -1 -4 5.75 5.38 5
-3 -1 -4 5.44 7.2 8
-3 -1 -4 15.64 5.3 2
3 -1 4 2.51 4.64 3
-3 -1 -4 -19 24.03 10
3 -1 4 15.93 4.95 4
-3 -1 -4 15.89 6.68 6
3 -1 4 8.36 4.82 7
-3 -1 -4 25.56 21.25 10
-2 1 -5 871.82 45.36 6
-2 1 -5 944.7 54.18 8
-2 1 -5 854.23 42.55 5
2 1 5 870.93 40.36 3
2 1 5 937.51 43.11 4
-2 1 -5 904.18 41.88 2
2 1 5 803.22 40.32 7
2 -1 5 948.17 42.26 7
-2 -1 -5 990.81 55.97 10
-2 -1 -5 884.9 43.05 5
-2 -1 -5 819.05 34.16 1
-2 -1 -5 940.02 53.62 8
-2 -1 -5 899.06 42.07 2
2 -1 5 929.04 44.5 4
2 -1 5 945.79 39.42 3
-2 -1 -5 930.9 56.86 10
-2 -1 -5 1015.09 47.03 6
-2 -1 -5 939.34 40.74 9
1 1 6 -0.59 3.28 4
-1 1 -6 5.02 4.91 8
-1 1 -6 4.85 2.22 9
-1 1 -6 12.78 5.96 6
-1 1 -6 8.21 5.09 2
1 1 6 3.06 1.97 1
1 1 6 -7.58 16.39 10
1 -1 6 6.36 2.75 7
1 -1 6 2.74 3.65 4
-1 -1 -6 -1.19 4.8 2
-1 -1 -6 -2.76 5.8 8
-1 -1 -6 -0.39 3.51 9
-1 -1 -6 -1.17 3.79 6
-1 -1 -6 -10.91 17.69 10
0 1 7 369.2 45.75 10
0 1 -7 375.2 19.01 9
0 1 -7 400.13 24.07 6
0 1 -7 363.2 37.49 10
0 1 -7 414.12 22.02 2
0 1 7 426.09 24.31 4
0 1 7 391.3 17.96 1
0 1 -7 446.51 29.25 8
0 -1 7 358.46 18.99 7
0 -1 7 380.48 16.86 1
0 -1 -7 393.39 46.73 10
0 -1 -7 393.54 21.32 2
0 -1 -7 431.02 24.21 6
0 -1 7 364.67 39.45 10
0 -1 -7 417.97 28.97 8
0 -1 -7 411.67 21.33 9
0 -1 7 388.87 23.57 4
1 1 -8 176.01 16.76 8
-1 1 8 116.78 40.45 10
1 1 -8 179.51 13.91 6
1 1 -8 161.89 12.53 2
-1 1 8 167.38 10.95 1
1 1 -8 159.54 34.62 10
1 1 -8 180.96 12.43 3
-1 1 8 190.67 15.51 4
1 1 -8 176.86 11.48 9
1 -1 -8 175.47 13.5 6
-1 -1 8 164.19 9.91 1
-1 -1 8 151.63 39.55 10
1 -1 -8 199.53 13.49 9
-1 -1 8 179.21 14.5 4
1 -1 -8 185.99 13.43 3
1 -1 -8 150.07 11.44 2
1 -1 -8 164.5 17.8 8
1 -1 -8 191.63 44.28 10
2 1 -9 1308.03 56.93 3
-2 1 9 1389.82 65.61 4
2 1 -9 1394.12 57.61 9
2 1 -9 1406.08 74.41 8
2 1 -9 1276.04 56.34 2
-2 1 9 1359.6 54.71 1
-2 1 9 1162.92 110.53 10
2 -1 -9 1406.32 55.83 2
2 -1 -9 1331.83 58.91 9
2 -1 -9 1357.82 58.44 3
-2 -1 9 1150.32 105.08 10
2 -1 -9 1425.83 77.43 8
-2 -1 9 1274.82 53.56 1
2 -1 -9 1351.23 61.66 6
-2 -1 9 1389.72 65.06 4
2 -1 -9 1125.88 107.25 10
3 1 -10 188.17 14.78 3
3 1 -10 139.96 64.97 10
-3 1 10 198.69 18.22 4
-3 1 10 173.49 13.7 1
3 1 -10 179.73 18.8 8
3 1 -10 192.96 14.32 9
-3 1 10 184.86 69.61 10
3 1 -10 213.59 13.56 2
-3 -1 10 186.3 13.33 1
-3 -1 10 198.89 17.58 4
3 -1 -10 169.14 14.99 9
3 -1 -10 224.74 81.81 10
3 -1 -10 211.72 14.61 6
-3 -1 10 206.25 71.73 10
3 -1 -10 200.77 20.96 8
3 -1 -10 205.44 15.5 3
4 1 -11 178.47 14.91 3
4 1 -11 152.37 14.27 9
4 1 -11 153.48 18.13 8
-4 1 11 185.81 15.13 1
-4 1 11 175.21 18.81 4
4 -1 -11 192.93 16.29 9
4 -1 -11 173.71 15.57 3
4 -1 -11 179.17 21.06 8
-4 -1 11 149.63 16.75 4
-4 -1 11 182.39 14.02 1
-5 1 12 55.13 9.3 1
5 1 -12 55.43 9.04 3
5 1 -12 30.28 9.01 9
5 1 -12 22.53 11.42 8
-5 1 12 34.27 12.88 4
5 -1 -12 46.57 11.76 8
-5 -1 12 32.08 9.73 4
-5 -1 12 34.46 7.63 1
5 -1 -12 42.87 8.83 3
5 -1 -12 35.44 8.63 9
6 1 -13 244.21 20.4 9
6 1 -13 211.38 18.21 3
-6 1 13 196.43 22.28 4
-6 1 13 236.95 19.12 1
6 -1 -13 222.77 19.43 3
-6 -1 13 243.84 18.75 1
6 -1 -13 217.25 20.19 9
-6 -1 13 207.87 21.32 4
6 -1 -13 184.6 24.66 8
-7 1 14 16.15 16.28 4
7 1 -14 -12.76 11.98 9
7 1 -14 13.06 11.69 3
-7 1 14 12.94 12.42 1
7 -1 -14 -7.25 14.57 8
7 -1 -14 4 10.55 3
-7 -1 14 20.76 9.29 1
7 -1 -14 -3.39 11.06 9
-7 -1 14 -5.75 10.68 4
-8 1 15 49.86 14.24 1
-8 1 15 16.21 19.78 4
8 1 -15 30.64 13.63 3
8 1 -15 39.6 15.27 9
-8 -1 15 35.11 15.26 1
-8 -1 15 27.81 18.26 4
8 -1 -15 56.41 16.07 9
8 -1 -15 39.58 12.38 3
-9 2 2 103.03 18.51 5
9 2 -2 83.79 14.45 3
9 -2 -2 53.79 16.85 7
9 -2 -2 70.98 13.64 3
-9 -2 2 75.93 17.19 5
-8 2 1 11.01 9.03 5
8 2 -1 -13.76 9.65 3
8 -2 -1 7.15 11.14 7
-8 -2 1 -8.72 11.51 5
8 -2 -1 9.47 11.05 3
7 2 0 351.36 24.3 3
-7 2 0 379.65 26.65 5
-7 2 0 384.37 26.27 2
7 -2 0 386.13 29.16 7
7 -2 0 353.56 24.05 3
-7 -2 0 349.34 25.48 5
-6 2 -1 -1.27 6.83 5
-6 2 -1 -5.53 8.86 2
6 2 1 -4.52 7.56 3
6 -2 1 -3.56 8.64 7
-6 -2 -1 -1.08 8.23 5
6 -2 1 -8.41 7.62 3
-6 -2 -1 2.5 8.09 6
5 2 2 -4.03 6.42 3
-5 2 -2 2.56 7.51 6
-5 2 -2 -3.18 5.72 5
-5 2 -2 -1.97 6.11 2
5 -2 2 3.41 5.07 3
-5 -2 -2 -3.24 5.01 5
-5 -2 -2 -10.57 7.79 6
5 -2 2 2.01 5.17 7
-4 2 -3 232.38 17.57 5
-4 2 -3 225.65 17.58 2
-4 2 -3 279.69 19.65 6
4 2 3 211.06 16.12 3
4 -2 3 258.39 18.46 7
4 -2 3 277.39 16.07 3
-4 -2 -3 254.86 19.89 6
-4 -2 -3 265.3 17.63 5
3 2 4 835.65 38.24 3
-3 2 -4 829.89 39.31 2
-3 2 -4 853.97 42.74 6
-3 2 -4 803.37 40.09 5
3 -2 4 840.9 36.07 3
-3 -2 -4 761.12 32.64 1
-3 -2 -4 799.15 39.54 5
-3 -2 -4 841.87 43.78 6
3 -2 4 799.76 41.85 4
-3 -2 -4 785.86 70.7 10
3 -2 4 830.28 40.85 7
-3 -2 -4 821.73 74.47 10
-3 -2 -4 772.07 39.56 2
-3 -2 -4 822.76 48.88 8
-2 2 -5 5.44 5.02 5
-2 2 -5 -9.31 5.77 2
-2 2 -5 -1.7 4.14 6
2 2 5 -2.97 4.58 3
2 2 5 0.94 3.96 4
-2 -2 -5 4.41 2.78 1
-2 -2 -5 -1.63 5.19 2
2 -2 5 -4.85 3.48 3
2 -2 5 -6.26 5.75 4
-2 -2 -5 8.73 4.51 9
2 -2 5 3.28 4.07 7
-2 -2 -5 28.28 27.7 10
-2 -2 -5 7.17 7.19 8
-2 -2 -5 -0.32 24.21 10
-2 -2 -5 -2.09 5.77 6
-2 -2 -5 5.92 5.38 5
-1 2 -6 22.84 6.05 2
-1 2 -6 8.7 5.15 6
1 2 6 -34.98 27.91 10
-1 2 -6 17.4 7.43 8
1 2 6 12.35 3.3 1
1 2 6 7.67 5.38 4
-1 -2 -6 -0.01 5.17 2
-1 -2 -6 42.21 28.22 10
-1 -2 -6 9.44 2.94 1
1 -2 6 10.55 3.02 3
-1 -2 -6 7.01 4.72 9
-1 -2 -6 10.52 5.02 6
1 -2 6 0.48 5.03 4
-1 -2 -6 34.31 31.5 10
-1 -2 -6 1.05 6.57 8
0 2 7 549.95 62.59 10
0 2 -7 530.97 51.2 10
0 2 -7 596.01 30.72 2
0 2 7 639.46 33.71 4
0 2 7 608.14 27.01 1
0 2 -7 661.9 39.79 8
0 2 -7 599.28 26.47 9
0 -2 -7 623.45 33.65 6
0 -2 -7 691.72 41.99 8
0 -2 7 587.9 30.01 7
0 -2 7 610.22 54.9 10
0 -2 7 603.22 33.7 4
0 -2 7 573.28 25.16 1
0 -2 -7 657.96 31.63 9
0 -2 -7 691.95 71.13 10
0 -2 -7 667.18 30.66 2
1 2 -8 438.42 57.47 10
-1 2 8 636.1 34.69 4
1 2 -8 591.03 27.06 9
1 2 -8 555.03 29.5 2
-1 2 8 612.54 27.5 1
1 2 -8 590.1 28.22 3
-1 2 8 528.77 71.7 10
1 2 -8 613.14 38.17 8
1 -2 -8 674.62 42.28 8
-1 -2 8 535.07 29.23 7
1 -2 -8 634.86 29.07 2
1 -2 -8 605.85 77.3 10
-1 -2 8 446.78 57.37 10
1 -2 -8 599.87 32.53 6
-1 -2 8 656.6 34.19 4
1 -2 -8 581.84 30.16 3
1 -2 -8 615.96 31.13 9
-1 -2 8 595.91 25.89 1
2 2 -9 155.54 15.21 8
2 2 -9 80.35 38.89 10
2 2 -9 144.53 12.64 2
-2 2 9 199.46 51.28 10
-2 2 9 154.37 15.6 4
2 2 -9 142.19 10.79 9
-2 2 9 152.86 11.56 1
2 2 -9 155.21 11.89 3
2 -2 -9 162.85 11.31 2
2 -2 -9 190.33 20.28 8
2 -2 -9 159.19 12.92 6
-2 -2 9 153.59 14.75 4
-2 -2 9 154.87 10.92 1
-2 -2 9 121.57 10.75 7
2 -2 -9 171.1 50.77 10
2 -2 -9 148.08 13.43 3
2 -2 -9 175.46 13.61 9
3 2 -10 141.63 69.37 10
-3 2 10 166.5 17.46 4
3 2 -10 171.39 13 9
-3 2 10 195.35 14.35 1
3 2 -10 159.05 13.03 2
3 2 -10 188.75 17.34 8
3 2 -10 162.78 12.92 3
-3 -2 10 131.68 12.8 7
3 -2 -10 201.04 21.76 8
3 -2 -10 159.02 13.44 6
-3 -2 10 165.81 12.5 1
-3 -2 10 96.83 67.21 10
-3 -2 10 167.25 16.61 4
3 -2 -10 173.84 14.88 3
3 -2 -10 163.3 14.85 9
-4 2 11 62.81 10.06 1
4 2 -11 44.25 7.64 2
4 2 -11 52.61 8.22 9
4 2 -11 56.9 8.98 3
-4 2 11 35.5 10.75 4
4 2 -11 50.1 11.77 8
4 -2 -11 63.98 11.03 9
4 -2 -11 51.92 8.8 3
-4 -2 11 51.32 7.84 1
4 -2 -11 62.94 14.88 8
-4 -2 11 57.14 10.26 4
-5 2 12 770.24 38.11 1
5 2 -12 733.03 37.16 3
5 2 -12 727.2 38.02 9
-5 2 12 660.79 44.35 4
-5 -2 12 660.28 42.47 4
5 -2 -12 701.48 50.74 8
5 -2 -12 704.89 38.49 3
-5 -2 12 708.55 36.34 1
5 -2 -12 747.99 40.96 9
6 2 -13 91.75 12.83 9
-6 2 13 50.44 12.97 1
-6 2 13 32.7 14.6 4
6 2 -13 62.59 12.11 3
-6 -2 13 61.42 12.13 1
6 -2 -13 53 13.81 9
6 -2 -13 26.12 14.14 8
6 -2 -13 52.47 11.64 3
-7 2 14 32.82 15.93 4
7 2 -14 37.28 11.65 3
-7 2 14 35.38 14.09 1
7 2 -14 68.83 14.72 9
7 -2 -14 -0.34 14.88 8
7 -2 -14 29.58 13.26 9
-7 -2 14 48.91 12.57 1
7 -2 -14 22.31 13.21 3
-7 -2 14 10.36 11.48 4
-8 2 15 7.28 13.43 1
8 2 -15 2.75 10.33 9
8 2 -15 -3.22 13.13 3
-8 2 15 -0.19 15.22 4
8 -2 -15 2.43 10.13 9
-8 -2 15 16.32 14.92 1
-8 -2 15 3.08 13.25 4
8 -2 -15 25.56 11.67 3
8 -2 -15 17.92 14.2 8
9 3 -2 -10.64 14.73 3
-9 -3 2 -29.9 14.61 5
9 -3 -2 1.51 14.36 7
-8 3 1 -31.05 13.88 5
8 3 -1 34.65 13.47 3
8 -3 -1 14.45 13.46 7
-8 -3 1 6.56 11.54 5
7 3 0 -14.57 10.98 3
-7 3 0 6.53 7.59 4
-7 -3 0 -17.46 10.49 5
-7 -3 0 -9.82 8.87 6
7 -3 0 -5.95 7.98 7
6 3 1 411.7 25.98 3
-6 3 -1 400.97 27.2 5
-6 3 -1 422 26.55 2
6 -3 1 384.25 28.35 7
-6 -3 -1 386.63 28 6
6 -3 1 430.74 23.77 3
-6 -3 -1 406.42 25.81 5
5 3 2 -1.38 4.95 3
-5 3 -2 -15.06 8.49 2
-5 3 -2 -2.9 7.86 5
-5 -3 -2 -3.3 6.91 5
-5 -3 -2 -7.4 7.68 7
5 -3 2 3.43 5.71 7
-5 -3 -2 -10.67 9.43 6
5 -3 2 3.36 5.43 3
-4 3 -3 416.2 24.25 2
-4 3 -3 419.14 25.39 5
4 3 3 457.7 25.01 3
-4 -3 -3 341.7 24.07 7
-4 -3 -3 397.67 28.18 6
-4 -3 -3 413.77 24.33 5
4 -3 3 435.97 26.58 7
-4 -3 -3 379.38 28.89 8
-4 -3 -3 366.67 19.89 1
4 -3 3 424.29 21.01 3
3 3 4 767.42 36.6 3
-3 3 -4 821.72 38.58 2
-3 3 -4 719.94 37.77 5
3 -3 4 775.09 33.09 3
-3 -3 -4 725.33 37.29 5
-3 -3 -4 768.45 42.56 6
-3 -3 -4 733.15 46.14 8
-3 -3 -4 754.93 32.34 1
-3 -3 -4 804.97 91.52 10
3 -3 4 772.78 39.98 7
-3 -3 -4 699.77 86.36 10
-2 3 -5 248.25 16.57 5
-2 3 -5 246.97 16.88 2
2 3 5 223.8 15.96 3
-2 -3 -5 236.2 21.07 8
2 -3 5 240.72 13.34 3
-2 -3 -5 182.19 46.88 10
-2 -3 -5 234.53 13.45 1
-2 -3 -5 265.56 17.5 5
2 -3 5 248.96 19.1 4
-2 -3 -5 300.61 53.44 10
2 -3 5 246.88 16.82 7
-2 -3 -5 218.52 16.04 9
-2 -3 -5 248.4 19.76 6
1 3 6 1941.84 88.29 4
-1 3 -6 2051.2 82.87 2
1 -3 6 1963.87 88.24 7
-1 -3 -6 1978.43 84.35 9
-1 -3 -6 1886.23 126.12 10
1 -3 6 1888.43 90.02 4
1 -3 6 1927.07 76.36 3
-1 -3 -6 2068.67 134.25 10
-1 -3 -6 1994.79 76.91 1
-1 -3 -6 2127.37 106.33 8
-1 -3 -6 2028.35 91.54 6
0 3 7 -84.71 49.59 10
0 3 7 -1.14 4.03 1
0 3 -7 8.81 6.11 2
0 3 -7 44.4 38.05 10
0 3 7 0.1 4.58 4
0 -3 -7 6.25 6.52 6
0 -3 -7 1.42 5.74 8
0 -3 7 5.93 3.21 1
0 -3 7 2.39 6 4
0 -3 7 -0.36 3.97 7
0 -3 -7 39.13 44.96 10
0 -3 -7 -0.06 4.9 9
1 3 -8 45.62 42.88 10
-1 3 8 45.83 39.84 10
1 3 -8 66.47 11.2 8
-1 3 8 62.61 10.81 4
1 3 -8 53.2 6.36 3
-1 3 8 55.94 6.84 1
1 3 -8 49.67 7.64 2
1 -3 -8 73.37 14.33 8
1 -3 -8 46 8.46 9
1 -3 -8 67.53 8.88 6
1 -3 -8 22.95 56.42 10
-1 -3 8 45.52 9.49 4
-1 -3 8 49.81 42.91 10
1 -3 -8 65.44 9.26 3
-1 -3 8 57.11 7.79 7
-1 -3 8 60.17 6.39 1
2 3 -9 672.99 91.13 10
-2 3 9 957.12 41.84 1
-2 3 9 803.1 105.81 10
2 3 -9 945.61 43.43 2
2 3 -9 987.09 41.58 3
-2 3 9 972.54 50.38 4
2 3 -9 870.77 40.34 9
2 3 -9 925.25 53.68 8
-2 -3 9 807.11 44.72 7
2 -3 -9 894.64 43.57 3
-2 -3 9 959.47 40.02 1
2 -3 -9 964.1 59.62 8
2 -3 -9 929.71 46.24 6
2 -3 -9 926.45 45.55 9
-2 -3 9 986.99 48.88 4
3 3 -10 194.8 14.23 3
-3 3 10 181.09 18.4 4
3 3 -10 182.94 14.43 2
3 3 -10 194.68 14.44 9
3 3 -10 172.91 18.1 8
-3 3 10 193.62 15.07 1
3 -3 -10 203.9 23.1 8
3 -3 -10 181.4 16.07 3
3 -3 -10 173.6 14.46 6
-3 -3 10 194.41 17.62 4
3 -3 -10 185.06 16.57 9
-3 -3 10 154.62 14.82 7
-3 -3 10 171.34 13.54 1
-4 3 11 393.67 31.11 4
4 3 -11 430.05 24.42 9
4 3 -11 388.18 23.93 2
4 3 -11 372.34 23.25 3
-4 3 11 433.92 25.21 1
4 -3 -11 402.87 26.34 3
-4 -3 11 388.29 23.58 1
4 -3 -11 427.58 26.98 9
-4 -3 11 418.68 29.33 4
4 -3 -11 439.93 35.47 8
-5 3 12 -13.89 10.13 1
5 3 -12 -4.6 8.38 3
5 3 -12 4.43 5.86 9
-5 3 12 16.02 10.23 4
-5 -3 12 -3.65 6.07 1
5 -3 -12 1.68 8.88 8
5 -3 -12 19.06 10.55 9
5 -3 -12 -0.93 6.78 3
6 3 -13 32.84 10.67 9
-6 3 13 23.87 9.39 1
-6 3 13 40.25 17 4
6 3 -13 24.84 10.17 3
6 -3 -13 22.03 16.01 8
6 -3 -13 46.34 13.54 9
-6 -3 13 28.37 10.15 1
-6 -3 13 14.34 13.62 4
6 -3 -13 45.2 12.71 3
-7 3 14 -33.27 19.86 4
7 3 -14 21.67 12.84 9
7 3 -14 -11.41 13.12 3
-7 3 14 7.57 13.08 1
7 -3 -14 19.67 14.12 9
-7 -3 14 8.78 12.13 1
7 -3 -14 25.06 17.54 8
-7 -3 14 -11.06 12.64 4
7 -3 -14 9.56 9.35 3
-8 4 1 25.49 14.89 5
8 4 -1 4.5 10.49 3
-8 4 1 49.74 16.15 4
-8 -4 1 -3.78 11.17 5
8 -4 -1 18.2 14.51 7
7 4 0 19.18 9.17 3
-7 4 0 -2.75 11.25 4
-7 -4 0 11.1 9.02 6
-7 -4 0 0.75 9.96 5
7 -4 0 15.24 12.77 7
-7 -4 0 28.39 13.43 7
-6 4 -1 194.43 18.47 5
-6 4 -1 163.78 16.58 2
6 4 1 151.28 16.4 3
-6 -4 -1 169.54 19.48 7
-6 -4 -1 148.05 14.73 5
-6 -4 -1 166.51 19.75 6
6 -4 1 123.92 17.39 7
-5 4 -2 80.64 11.93 5
-5 4 -2 64.02 10.05 2
5 4 2 49.48 9.54 3
-5 -4 -2 75.69 14.23 6
-5 -4 -2 68.53 10.85 5
-5 -4 -2 61.82 10.63 7
5 -4 2 63.64 12.47 7
-4 4 -3 685.45 35.72 5
4 4 3 706.98 35.02 3
-4 4 -3 630.92 34.43 2
-4 -4 -3 653 34 5
4 -4 3 716.19 39.05 7
-4 -4 -3 624.64 30.38 1
-4 -4 -3 582.16 40.6 8
-4 -4 -3 677.35 40.62 6
-3 4 -4 515.15 28.17 5
3 4 4 504.03 27.6 3
-3 4 -4 477.25 27.97 2
-3 -4 -4 366.07 98.45 10
-3 -4 -4 516.37 32.56 6
-3 -4 -4 316.75 101.69 10
-3 -4 -4 488 33.41 8
3 -4 4 483.95 29.65 7
-3 -4 -4 490.11 24.49 1
-3 -4 -4 484.36 27.38 5
-2 4 -5 25.45 7.8 2
-2 4 -5 22.91 7.16 5
2 4 5 21.94 7 3
-2 -4 -5 45.77 10.45 6
2 -4 5 26.99 7.79 7
-2 -4 -5 18.08 6.86 9
2 -4 5 33.43 7.68 4
-2 -4 -5 35.27 45.05 10
-2 -4 -5 76.45 42.14 10
-2 -4 -5 35.35 10.41 8
-2 -4 -5 31.49 6.16 1
1 4 6 62.16 8.98 4
-1 4 -6 62.97 9.96 2
1 -4 6 63.67 10 4
-1 -4 -6 52.23 9.3 9
-1 -4 -6 72.53 11.37 6
-1 -4 -6 58.36 12.83 8
-1 -4 -6 101.5 55.16 10
-1 -4 -6 22.87 47.54 10
-1 -4 -6 59.37 7.6 1
1 -4 6 67.65 8.72 7
0 4 7 1828.82 83.78 4
0 4 7 1697.42 143.99 10
0 4 7 1715.12 71.95 1
0 4 -7 1760.64 76.5 2
0 -4 -7 1814.6 142.86 10
0 -4 -7 1815.16 79.06 9
0 -4 -7 1841.59 84.61 6
0 -4 7 1716.72 83.84 4
0 -4 7 1822.87 82.38 7
0 -4 -7 1956.47 100.85 8
-1 4 8 557.57 96.58 10
1 4 -8 449.86 27 2
-1 4 8 554.26 32.76 4
-1 4 8 486.38 25.8 1
1 4 -8 292.7 89.37 10
1 -4 -8 461.41 27.34 3
1 -4 -8 480.34 29.82 6
-1 -4 8 514.11 29.18 7
-1 -4 8 531.85 31.32 4
1 -4 -8 538.71 39.57 8
-1 -4 8 466.29 23.48 1
1 -4 -8 501.16 29.27 9
2 4 -9 1048.87 59.9 8
-2 4 9 1060.78 56.3 4
-2 4 9 987.25 46.8 1
2 4 -9 1068.71 49.47 2
2 -4 -9 1065.51 53.06 6
2 -4 -9 1035.2 48.9 3
-2 -4 9 951.46 51.52 7
-2 -4 9 1039.24 53.84 4
2 -4 -9 1097.16 51.76 9
-2 -4 9 990.43 44.59 1
2 -4 -9 1166.25 67.38 8
-3 4 10 45.86 9.53 1
3 4 -10 40.55 9.2 2
-3 4 10 39.54 12.04 4
3 -4 -10 28.83 8.58 9
3 -4 -10 20.83 10.6 6
3 -4 -10 61.55 15.03 8
-3 -4 10 48.66 8.56 1
-3 -4 10 30.28 9.63 4
3 -4 -10 27.99 7.76 3
-3 -4 10 29.62 9.1 7
-4 4 11 15.94 10.32 4
-4 4 11 5.37 8.58 1
4 4 -11 -1.41 7.86 2
-4 -4 11 1.5 7.16 7
4 -4 -11 -0.58 8.52 8
4 -4 -11 13.14 7.49 9
-4 -4 11 -3.66 9.34 4
-4 -4 11 5.96 6.04 1
4 -4 -11 23.66 10.84 3
-5 4 12 86.87 14.25 1
5 4 -12 41.39 9.59 2
-5 4 12 55.73 14.15 4
-5 -4 12 54.68 13.4 4
5 -4 -12 65.31 12.79 9
5 -4 -12 71.46 19.09 8
5 -4 -12 80.88 13.88 3
-5 -4 12 68.08 12.16 1
-5 -4 12 42.98 11.54 7
-6 4 13 -15.01 16.8 4
-6 4 13 -13.99 12.12 1
-6 -4 13 -6.57 9.53 4
6 -4 -13 16.9 12.51 3
-6 -4 13 17.73 11.63 1
6 -4 -13 2.03 8.37 9
6 -4 -13 11.87 11.76 8
-7 4 14 -7.4 10.27 1
-7 4 14 5.52 16.17 4
7 -4 -14 21.34 12.53 9
7 -4 -14 -0.96 12.84 8
7 -4 -14 -30.94 16.05 3
-7 -4 14 -20.45 13.45 1
8 5 -1 3.25 11.07 3
-8 5 1 -8.67 14.36 4
8 -5 -1 2.03 15.62 7
-8 -5 1 8.88 13.95 7
-7 5 0 2.34 12.02 4
7 5 0 25.21 10.11 3
-7 -5 0 1.89 10.67 7
-7 -5 0 6.15 14.87 6
7 -5 0 10.71 13.53 7
6 5 1 19.27 10.67 3
-6 -5 -1 -17.61 10.58 6
-6 -5 -1 3.49 13.54 7
6 -5 1 10.99 9.08 7
-5 5 -2 -3.13 8.7 5
-5 5 -2 0.01 8.98 2
5 5 2 8.16 6.76 3
5 -5 2 6.74 7.7 7
-5 -5 -2 4.31 11.67 7
-5 -5 -2 -15.71 12.38 6
-5 -5 -2 22.11 11.19 1
-4 5 -3 66.19 10.13 2
-4 5 -3 46.24 9.85 5
4 5 3 36.97 9.08 3
-4 -5 -3 37.48 13.88 7
-4 -5 -3 37.76 12.59 6
-4 -5 -3 32.38 8.58 1
4 -5 3 32.5 11.48 7
-3 5 -4 398.05 25.57 2
3 5 4 381.3 23.77 3
-3 5 -4 414.87 24.64 5
-3 -5 -4 397.22 29.22 6
3 -5 4 426.55 28.38 7
-3 -5 -4 384.59 22.02 1
-2 5 -5 671.59 34.45 5
2 5 5 661.93 34.18 3
-2 5 -5 703.76 36.06 2
-2 -5 -5 660.03 36.24 9
-2 -5 -5 627.47 39.22 6
-2 -5 -5 639.8 31.69 1
-2 -5 -5 613.95 42.37 8
2 -5 5 652.03 37.8 7
-1 5 -6 1488.27 65.87 2
1 5 6 1511.04 64.01 3
-1 -5 -6 1496.75 72.48 6
-1 -5 -6 1425.33 60.94 1
-1 -5 -6 1346.15 81.78 8
1 -5 6 1549.02 72.52 4
1 -5 6 1365.79 70.19 7
-1 -5 -6 1487.74 67.44 9
0 5 7 602.73 29.5 1
0 5 -7 542.86 31.59 2
0 5 7 596.05 33.76 4
0 -5 7 557.95 34.53 4
0 -5 -7 557.7 41.86 8
0 -5 -7 557.21 32.71 9
0 -5 7 561.16 33.4 7
0 -5 -7 650.09 35.88 6
0 -5 -7 504.46 28.31 1
1 5 -8 7.24 8.1 2
-1 5 8 4.86 9.43 4
-1 5 8 15.34 7.36 1
1 -5 -8 -2.16 11.66 8
1 -5 -8 -1.54 7.1 9
-1 -5 8 7.46 5.6 1
1 -5 -8 14.81 7.22 6
-1 -5 8 3.58 5.93 4
-1 -5 8 11.13 7.81 7
-2 5 9 14.72 6.35 1
-2 5 9 13.84 10.98 4
2 5 -9 24.49 7.49 2
-2 -5 9 7.11 8.81 7
2 -5 -9 6.05 8 9
2 -5 -9 12.82 8.61 6
-2 -5 9 10.73 5.82 1
2 -5 -9 3.64 12.12 8
-2 -5 9 23.04 8.29 4
2 -5 -9 18.03 6.8 3
-3 5 10 405.29 31.97 4
3 5 -10 376.96 25.01 2
-3 5 10 443.92 26.56 1
-3 -5 10 355.46 27.55 7
3 -5 -10 400.11 28.01 9
3 -5 -10 382.48 35.94 8
-3 -5 10 404.67 23.32 1
3 -5 -10 398.67 25.55 3
-3 -5 10 430.97 28.82 4
4 5 -11 2.8 8.99 2
-4 5 11 0.3 13.12 4
-4 5 11 7.24 8.86 1
-4 -5 11 0.54 8.61 1
-4 -5 11 4.75 10.44 7
4 -5 -11 -9.12 10.53 3
4 -5 -11 19.34 11.26 9
-4 -5 11 -7.39 10.25 4
4 -5 -11 -2.94 13.77 8
-5 5 12 -6.38 11.61 1
5 5 -12 3.48 7.71 2
-5 5 12 8.68 13.06 4
5 -5 -12 7.1 11.23 9
5 -5 -12 -5.65 9.88 3
-5 -5 12 4.77 12.75 7
-5 -5 12 -4.65 12.59 4
5 -5 -12 -4.75 11 8
-6 5 13 0.99 15.88 4
-6 5 13 33.79 13.72 1
6 -5 -13 5.36 12.73 3
-6 -5 13 15.97 12.58 1
6 -5 -13 14.47 14.09 9
6 -5 -13 -2.64 16.87 8
7 6 0 30.45 14.47 3
7 -6 0 -0.87 15.06 7
-7 -6 0 9.2 17.79 7
-7 -6 0 3.84 12.24 6
6 6 1 12.94 10.24 3
6 -6 1 3.83 9.64 7
-6 -6 -1 23.62 22.38 7
-6 -6 -1 12.68 16.39 6
5 6 2 43.48 12.19 3
-5 6 -2 61.8 12.92 2
-5 -6 -2 49.52 13.5 6
-5 -6 -2 21.88 11.43 1
5 -6 2 59.83 12.83 7
-4 6 -3 273.48 21.63 2
4 6 3 257.35 19.66 3
-4 -6 -3 257.28 24.11 6
-4 -6 -3 236.28 18.75 1
4 -6 3 252.17 23.99 7
3 6 4 24.95 7.5 3
-3 6 -4 23.94 8.27 2
-3 -6 -4 39.4 9.43 1
3 -6 4 35.25 12.15 7
-3 -6 -4 34.61 12.35 6
-2 6 -5 20.48 9.13 2
2 6 5 17.64 8.17 3
2 -6 5 10.82 9.11 7
-2 -6 -5 1.23 6.62 6
-2 -6 -5 15.79 6.08 1
1 6 6 1.16 7.45 3
-1 6 -6 -16.63 9.65 2
-1 -6 -6 6.22 6.92 6
-1 -6 -6 -0.62 5.84 9
-1 -6 -6 1.75 10.59 8
1 -6 6 0.08 6.09 7
-1 -6 -6 6.38 7.17 1
1 -6 6 -10.01 9.88 4
0 6 -7 643.53 36.79 2
0 6 7 684.1 33.81 1
0 -6 -7 650.42 37.71 9
0 -6 -7 594.46 45.1 8
0 -6 7 661.69 39.04 7
0 -6 -7 633.02 33.49 1
0 -6 -7 652.88 39.96 6
0 -6 7 652.14 39.25 4
-1 6 8 151.9 15.17 1
1 6 -8 170.24 17.43 2
-1 6 8 157.83 17.53 4
-1 -6 8 158.27 17.55 7
1 -6 -8 142.56 15.87 9
-1 -6 8 173.78 17.24 4
1 -6 -8 175 17.14 6
1 -6 -8 137.99 21.57 8
2 6 -9 164.12 17.65 2
-2 6 9 167.32 15.44 1
-2 6 9 164.6 20.08 4
2 -6 -9 181.68 22.89 8
2 -6 -9 200.26 19.03 9
-2 -6 9 147.97 16.78 7
-2 -6 9 181.13 14.53 1
2 -6 -9 170.17 18.72 6
-2 -6 9 194.96 19.23 4
3 6 -10 60.9 13.22 2
-3 6 10 74.79 16.85 4
-3 6 10 90.41 14.03 1
3 -6 -10 47.47 17.7 8
-3 -6 10 80.95 14.29 4
3 -6 -10 95.41 15.92 9
3 -6 -10 81.53 14.09 3
-3 -6 10 93.22 11.16 1
-4 6 11 211.61 21.1 1
-4 6 11 236.03 26.62 4
4 6 -11 236.36 20.64 2
-4 -6 11 224.91 19.41 1
4 -6 -11 192.15 28.03 8
-4 -6 11 203.09 21.34 4
4 -6 -11 233.1 22.38 9
-4 -6 11 176.69 21.63 7
4 -6 -11 214.66 19.26 3
-5 6 12 32.35 13.69 1
-5 6 12 31.11 17.75 4
5 6 -12 0.94 12.74 2
-5 -6 12 20.87 13.26 7
5 -6 -12 23.66 10.58 3
-5 -6 12 9.85 11.62 1
5 -6 -12 -7.62 13.39 9
5 -6 -12 -4.25 15.29 8
-6 6 13 77.53 18.6 1
-6 6 13 45.02 17.5 4
-6 -6 13 20.67 14.44 1
6 -6 -13 67.58 17.85 3
6 -6 -13 42.27 21.98 8
6 -6 -13 42.09 15.24 9
6 7 1 -4.09 9.2 3
-6 -7 -1 -19.12 18.47 6
6 -7 1 16.44 15.75 7
5 7 2 113.16 16.49 3
-5 -7 -2 98.22 16.34 1
5 -7 2 107.61 19.73 7
-5 -7 -2 88.9 17.28 6
-4 7 -3 -10.47 11.24 2
-4 -7 -3 4.38 10.03 6
4 -7 3 -1.53 9.26 7
-4 -7 -3 -4.21 7.07 1
-3 7 -4 47.66 11.03 2
3 7 4 37.59 11.41 3
-3 -7 -4 29.84 14.49 6
-3 -7 -4 42.79 9.29 1
3 -7 4 57.69 14.98 7
-2 7 -5 -6.07 11.47 2
2 7 5 21.03 9.74 3
2 -7 5 15.1 12.29 7
-2 -7 -5 7.89 9.32 6
-2 -7 -5 30.98 11.91 9
-2 -7 -5 19.7 9.72 1
-1 7 -6 240.5 20.5 2
1 7 6 194.06 18.08 3
-1 -7 -6 192.89 20.88 6
-1 -7 -6 195.74 19.84 9
1 -7 6 202.44 21.79 7
1 -7 6 227.97 22.9 4
-1 -7 -6 207.53 18.33 1
0 7 7 20.23 10.1 3
0 7 -7 19.37 9.23 2
0 -7 -7 19.78 11.02 8
0 -7 -7 22.55 12.4 6
0 -7 -7 23.74 9.24 9
0 -7 -7 24.57 8.19 1
0 -7 7 21.25 9.98 7
0 -7 7 5.64 11.14 4
1 7 -8 77.69 15.15 2
-1 7 8 54.26 12.4 1
-1 -7 8 85.82 13.52 7
1 -7 -8 76.96 13.81 6
-1 -7 8 83.42 15.15 4
1 -7 -8 73.44 12.46 9
1 -7 -8 59.77 17.74 8
1 -7 -8 92.68 14.12 1
-2 7 9 6.47 12.4 4
-2 7 9 19.86 11.22 1
2 7 -9 -13.11 10.32 2
2 -7 -9 -1.81 14.86 8
2 -7 -9 19.83 9.77 6
2 -7 -9 7.5 8.57 9
-2 -7 9 23.61 10.03 7
-3 7 10 345.33 25.48 1
-3 7 10 246.82 25.98 4
3 7 -10 317.85 26.4 2
-3 -7 10 296.99 26.93 7
-3 -7 10 340.2 26.9 4
-3 -7 10 321.52 23.55 1
3 -7 -10 365.85 28.81 9
3 -7 -10 354.65 26.05 3
4 7 -11 -10.61 14.02 2
-4 7 11 0.84 12.39 1
-4 7 11 -23.95 13.38 4
4 -7 -11 12.32 13.66 3
-4 -7 11 21.02 19.05 4
-4 -7 11 -0.88 11.04 1
4 -7 -11 1.09 13.46 9
4 -7 -11 16.9 19.09 8
-4 -7 11 19.14 14.81 7
-5 7 12 -28.36 17.71 4
-5 7 12 19.01 15.05 1
-5 -7 12 2.27 12.83 7
5 -7 -12 13.22 15.32 8
5 -7 -12 37.61 15.89 3
-5 -7 12 13.98 11.57 1
5 -7 -12 26.21 13.04 9
-5 -8 -2 -9.05 15.88 1
-5 -8 -2 -0.02 18.2 6
5 -8 2 -13.68 15.67 7
-4 -8 -3 109.57 16.11 1
4 -8 3 151.11 22.97 7
-4 -8 -3 120.18 23.09 6
-3 8 -4 28.3 14.6 2
-3 -8 -4 9.18 14.45 6
3 -8 4 10.52 14.67 7
-3 -8 -4 -11.62 11.98 1
-2 8 -5 10.77 10.7 2
-2 -8 -5 11.85 15.46 6
2 -8 5 10.61 14.05 7
-2 -8 -5 22.49 11.67 1
-1 8 -6 18.36 14.33 2
1 -8 6 36.63 15.76 4
-1 -8 -6 9.68 12.06 9
1 -8 6 15.54 12.76 7
-1 -8 -6 6.97 14.45 6
-1 -8 -6 -10.88 11.3 1
0 8 -7 195.01 20.72 2
0 -8 -7 207.28 22.17 9
0 -8 -7 215.75 24.87 6
0 -8 7 193.97 22.31 4
0 -8 -7 209.89 18.81 1
0 -8 7 182.18 21.9 7
1 8 -8 37.51 15.56 2
1 -8 -8 35.55 15.37 6
-1 -8 8 25.33 14.72 7
-1 -8 8 46.29 15.21 4
1 -8 -8 30.65 10.34 1
2 -8 -9 47.82 20.38 8
2 -8 -9 76.93 16 1
2 -8 -9 80.93 17.4 9
2 -8 -9 52.81 21.15 6
-2 -8 9 48.45 16.38 7
-3 8 10 21.18 10.66 1
-3 -8 10 43.5 20.54 4
3 -8 -10 0.75 11.15 9
-3 -8 10 11.47 15.97 7
3 -8 -10 18.79 19.77 8
2 -9 5 14.88 17.83 7
-2 -9 -5 7.25 16.85 6
2 -9 5 8.99 13.16 4
1 -9 6 172.14 24.09 4
-1 -9 -6 122.3 21.37 9
-1 -9 -6 155.72 23.35 6
-1 -9 -6 143.16 19.52 1
1 -9 6 121.6 23.02 7
0 -9 7 -30.82 17.41 7
0 -9 -7 -2.97 13.45 1
0 -9 -7 -38.98 16.58 9
0 -9 7 -4.64 12.07 4
0 -9 -7 -7.33 17.29 6
1 -9 -8 5.56 10.06 1
-1 -9 8 0.39 14.51 4
1 -9 -8 -0.34 10.29 9
-1 -9 8 -5.9 16.42 7
1 -9 -8 16.23 12.99 6
9 0 -1 2.37 9.97 3
-9 0 1 9.27 13.01 5
9 0 -1 11.91 16.02 7
8 0 0 33.79 11.64 7
-8 0 0 19.26 12.96 5
8 0 0 15.17 10.51 3
7 0 1 -3.59 8.62 7
-7 0 -1 -17.45 10.85 5
7 0 1 -6.39 7.21 3
-6 0 -2 723.01 38.83 2
6 0 2 687.21 36.17 3
6 0 2 576.39 37.78 7
-6 0 -2 710.2 39.25 6
-6 0 -2 694.09 38.37 5
-5 0 -3 -2.87 5.8 5
-5 0 -3 15.07 8.65 6
-5 0 -3 -6.23 8.31 2
5 0 3 4.25 4.94 7
5 0 3 -13.1 7.29 3
4 0 4 1754.4 70.75 3
-4 0 -4 1797.94 79.86 6
-4 0 -4 1670.56 73.36 2
4 0 4 1544.38 75.86 7
-4 0 -4 1634.42 75.24 5
4 0 4 1696.85 75.67 4
-3 0 -5 -1.55 5.56 8
3 0 5 -1.57 3.76 3
-3 0 -5 -1.97 6.28 6
-3 0 -5 6.25 6.08 5
-3 0 -5 -3.72 6.45 2
3 0 5 -4.61 5.28 4
2 0 6 257.95 17.79 4
2 0 6 289.01 17.58 3
-2 0 -6 276.4 23.87 8
-2 0 -6 252.76 18.2 2
-2 0 -6 291.51 15.86 9
-2 0 -6 306.62 19.93 5
-2 0 -6 296.96 20.74 6
-1 0 -7 14.31 4.27 9
1 0 7 2.28 5.72 4
-1 0 -7 -1.19 5.88 6
-1 0 -7 -1.21 5.48 2
-1 0 -7 4.01 7.49 8
0 0 -8 1679.97 86.38 8
0 0 -8 1506.82 65.16 9
0 0 -8 1631.19 72.87 6
0 0 -8 1347.86 92.87 10
0 0 8 1588.05 72.96 4
0 0 -8 1561.46 66.07 2
1 0 -9 8.53 4.91 9
1 0 -9 7.7 6.04 6
1 0 -9 -2.2 6.85 8
-1 0 9 4.08 3.64 1
1 0 -9 0.55 4.12 3
1 0 -9 1.16 5.28 2
-1 0 9 -1.81 4.95 4
1 0 -9 29.77 35.3 10
2 0 -10 49.79 41.14 10
-2 0 10 23.15 7.12 4
2 0 -10 30.58 6.98 9
2 0 -10 37.76 8.02 6
-2 0 10 24.54 50.39 10
2 0 -10 33.17 6.42 2
2 0 -10 30.43 10.22 8
2 0 -10 27.62 7.59 3
-2 0 10 18.97 5.44 1
3 0 -11 -6.22 6.27 6
3 0 -11 11.02 5.82 9
3 0 -11 0.59 6.81 3
-3 0 11 9.02 4.68 1
-3 0 11 -0.42 6.05 4
3 0 -11 -10.3 7.22 8
4 0 -12 356.95 23.2 9
4 0 -12 365.63 23.31 3
4 0 -12 343.47 30.73 8
-4 0 12 383.25 22.8 1
-4 0 12 351.11 27.75 4
5 0 -13 -7.35 9.13 9
5 0 -13 -8.95 9.25 3
-5 0 13 15.81 12.43 4
5 0 -13 -2.37 8.38 8
-5 0 13 8.29 9.5 1
6 0 -14 88.9 18.79 8
6 0 -14 144.95 17.18 9
-6 0 14 95.12 17.03 4
6 0 -14 142.08 15.23 3
-6 0 14 120.69 15.74 1
-7 0 15 -0.83 12.6 1
-7 0 15 -26.18 17.71 4
7 0 -15 -10.51 12.13 3
7 0 -15 -14.21 12.61 9
9 1 -1 19.12 17.05 7
9 1 -1 14.36 14.22 3
-9 1 1 2.52 14.42 5
9 -1 -1 35.23 16.98 7
-9 -1 1 8.91 13.86 5
9 -1 -1 3.43 14.14 3
8 1 0 13.05 10.98 3
8 1 0 2.6 10.93 7
-8 1 0 12.34 11.71 5
8 -1 0 6.89 12.66 7
-8 -1 0 -3.21 9.36 5
8 -1 0 10.58 9.4 3
-7 1 -1 90.88 15.18 5
7 1 1 108.87 15.15 3
7 1 1 79.15 14.85 7
-7 1 -1 93.47 15.52 2
7 -1 1 91.68 15.45 7
7 -1 1 87.15 12.91 3
-7 -1 -1 88.61 13.12 5
-6 1 -2 14.14 9.33 6
-6 1 -2 38.24 10.71 2
6 1 2 13.11 6.85 7
-6 1 -2 24.7 10.55 5
6 1 2 18.63 7.37 3
6 -1 2 0.25 7.81 7
-6 -1 -2 5.53 7.39 6
-6 -1 -2 20.66 9.76 5
6 -1 2 28.73 9.47 3
-5 1 -3 25.82 7.6 2
5 1 3 10.69 6.77 7
-5 1 -3 14.71 8.57 6
5 1 3 8.94 6.61 3
-5 1 -3 11.13 8.13 5
-5 -1 -3 6.51 7.78 5
5 -1 3 4.98 7.18 3
-5 -1 -3 6.76 6.18 6
-5 -1 -3 5.66 8.24 2
5 -1 3 8.69 7.13 7
5 -1 3 13.02 7.62 4
-4 1 -4 24.47 8.98 6
-4 1 -4 5.57 7.04 5
4 1 4 8.32 6.74 3
-4 1 -4 10.77 5.69 2
-4 -1 -4 13.96 7.61 6
4 -1 4 24.55 7.53 4
-4 -1 -4 24.04 7.89 5
-4 -1 -4 18.78 6.83 2
4 -1 4 7.47 4.85 3
4 -1 4 10.09 5.96 7
3 1 5 1879.91 77.47 3
-3 1 -5 1782.16 82.25 5
-3 1 -5 2035.49 87.86 6
3 1 5 1878.46 82.91 4
-3 1 -5 1890.55 80.23 2
-3 -1 -5 1833.51 80.05 2
3 -1 5 1916.57 76.46 3
3 -1 5 1862.89 84.97 4
-3 -1 -5 2079.1 103.11 8
-3 -1 -5 1885.09 87.24 6
-3 -1 -5 1763.46 81.92 5
3 -1 5 1801.22 83.31 7
-2 1 -6 58.3 9.74 6
-2 1 -6 49.43 8.97 5
2 1 6 60.22 7.62 4
-2 1 -6 46.7 8.56 2
-2 1 -6 64.28 11.81 8
2 1 6 63.56 8.82 3
-2 -1 -6 53.95 11.28 8
-2 -1 -6 63.47 9.46 5
-2 -1 -6 41.12 8.71 2
2 -1 6 53.49 6.63 3
-2 -1 -6 70 9.42 6
2 -1 6 53.32 8.83 4
-2 -1 -6 61.97 7.42 9
1 1 7 408.29 24.04 4
-1 1 -7 339.14 18.46 9
-1 1 -7 374.9 22.52 2
-1 1 -7 415.14 25.69 6
-1 1 -7 410.16 29.53 8
-1 -1 -7 400.14 21.75 9
1 -1 7 385.59 24.09 4
-1 -1 -7 437.63 30.7 8
-1 -1 -7 418.48 23.31 2
-1 -1 -7 385.2 25.09 6
0 1 -8 655.1 31.94 9
0 1 -8 779.4 39.2 6
0 1 -8 711.76 35.43 2
0 1 8 750.14 39.06 4
0 1 -8 737.81 45.71 8
0 -1 -8 797.38 47.82 8
0 -1 -8 665.84 69.58 10
0 -1 -8 716.64 34.66 9
0 -1 8 711.88 38.69 4
0 -1 -8 704.33 38.46 6
0 -1 -8 713.47 34.57 2
1 1 -9 564.23 28.43 3
-1 1 9 610.01 33.58 4
-1 1 9 532 25.11 1
-1 1 9 498.99 61.4 10
1 1 -9 551.69 27.01 9
1 1 -9 545.55 37.16 8
1 1 -9 491.99 69.17 10
1 1 -9 541.23 28.69 2
1 1 -9 525.82 30.47 6
1 -1 -9 577.68 28.38 2
1 -1 -9 559.47 73.44 10
1 -1 -9 603.34 39.77 8
1 -1 -9 602.81 30.24 3
1 -1 -9 532.8 28.8 9
-1 -1 9 527 24.36 1
-1 -1 9 549.48 32.13 4
1 -1 -9 540.91 30.98 6
2 1 -10 879.42 52.19 8
-2 1 10 852.53 45.61 4
2 1 -10 843.23 39.98 3
-2 1 10 824.1 36.56 1
-2 1 10 674.54 84.15 10
2 1 -10 793.34 38.29 2
2 1 -10 691.74 84.66 10
2 1 -10 796.8 38.46 9
2 -1 -10 825.49 40.26 9
2 -1 -10 826.64 37.86 2
-2 -1 10 817.06 35.92 1
2 -1 -10 899.6 54.69 8
2 -1 -10 705.9 97.05 10
2 -1 -10 862.37 42.22 6
-2 -1 10 650.44 82.74 10
-2 -1 10 913.62 46.43 4
2 -1 -10 819.3 40.29 3
3 1 -11 10.85 5.94 2
3 1 -11 6.99 8.71 8
-3 1 11 -0.36 9.36 4
-3 1 11 10.98 5.75 1
3 1 -11 3.8 4.82 3
3 1 -11 6.49 6.34 9
-3 -1 11 2.19 7.96 4
3 -1 -11 25.14 11.39 8
-3 -1 11 -2.18 4.26 1
3 -1 -11 1.03 6.48 6
3 -1 -11 9.6 7.92 3
3 -1 -11 13.07 7.26 9
-4 1 12 12.19 7.72 4
4 1 -12 16.02 7.85 9
4 1 -12 21.7 11.19 8
4 1 -12 -1.07 7.54 3
-4 1 12 -3.52 7.49 1
-4 -1 12 28.44 9.21 4
-4 -1 12 14.83 6.02 1
4 -1 -12 11.23 8.85 9
4 -1 -12 17.66 12.41 8
4 -1 -12 27.42 7.77 3
-5 1 13 597.66 41.78 4
5 1 -13 648.28 35.4 9
5 1 -13 612.32 34.54 3
-5 1 13 646.72 34.22 1
-5 -1 13 597.97 33.04 1
-5 -1 13 614.09 40.22 4
5 -1 -13 651.89 36.43 9
5 -1 -13 512.53 44.56 8
5 -1 -13 642.3 35.54 3
-6 1 14 5.44 7.89 1
-6 1 14 3.5 14.59 4
6 1 -14 -15.7 10.81 3
6 1 -14 -4.09 10.54 9
-6 -1 14 -4.79 10.63 1
6 -1 -14 -1.44 7.93 3
6 -1 -14 -9.38 10.64 8
-6 -1 14 25.83 15.3 4
6 -1 -14 8.69 8.44 9
-7 1 15 76.32 16.41 1
7 1 -15 83.83 15.55 3
7 1 -15 53.99 15.43 9
-7 -1 15 40.55 14.28 1
7 -1 -15 68.07 15.69 3
7 -1 -15 78.69 16.45 9
9 2 -1 20.02 12.82 7
9 2 -1 30.58 14.71 3
-9 2 1 10.88 12.8 5
-9 -2 1 -5.72 10.76 5
9 -2 -1 12.95 15.53 3
9 -2 -1 31.01 17.41 7
8 2 0 28.53 11.32 3
-8 2 0 -18.76 12.88 5
8 -2 0 6.96 8.61 3
8 -2 0 7.73 13.51 7
-8 -2 0 8.69 13.04 5
7 2 1 5.33 10.73 3
-7 2 -1 5.17 10.69 2
-7 -2 -1 -5.43 10.67 5
-7 -2 -1 23.7 10.82 6
7 -2 1 12.99 9.19 3
7 -2 1 5.42 7.92 7
6 2 2 141.88 14.14 3
-6 2 -2 132.65 14.47 5
-6 2 -2 81.58 13.23 2
-6 2 -2 126.75 13.84 6
-6 -2 -2 123.56 15.6 6
-6 -2 -2 97.15 14.46 5
6 -2 2 122.59 12.04 3
6 -2 2 104.43 13.56 7
-5 2 -3 2.86 6.5 2
5 2 3 5.88 7.75 3
-5 2 -3 8.25 6.24 5
-5 2 -3 5.31 6.04 6
5 -2 3 2.48 6.6 3
-5 -2 -3 4.69 6.3 6
-5 -2 -3 9.19 7.91 5
5 -2 3 6.18 6.47 7
-4 2 -4 407.68 25.6 2
-4 2 -4 404.33 26.94 6
-4 2 -4 415.87 25.79 5
4 2 4 368.88 23.46 3
-4 -2 -4 391.5 24.92 5
4 -2 4 420.49 22.32 3
4 -2 4 402.78 26.45 4
4 -2 4 408.83 25.43 7
-4 -2 -4 410.21 27.5 6
-4 -2 -4 424.22 31.36 8
-3 2 -5 156.27 14.62 5
3 2 5 189.31 14.71 3
-3 2 -5 192.48 16.69 6
-3 2 -5 158.53 14.81 2
3 -2 5 185.76 12.84 3
-3 -2 -5 175.56 15.15 2
3 -2 5 155.72 14.91 4
-3 -2 -5 170.97 14.68 5
3 -2 5 164.92 13.47 7
-3 -2 -5 175.89 18.26 8
-3 -2 -5 187.02 17.23 6
-2 2 -6 205.16 16.26 2
-2 2 -6 204.24 16.37 5
2 2 6 215.16 16.04 3
2 2 6 214.39 15.19 4
-2 2 -6 195.46 17 6
2 -2 6 205.51 14.29 7
-2 -2 -6 201.51 14.53 9
-2 -2 -6 201.24 16.37 2
-2 -2 -6 226.72 20.97 8
-2 -2 -6 205.09 17.78 6
2 -2 6 212.72 13.32 3
2 -2 6 216.01 17.14 4
-2 -2 -6 218.21 16.73 5
1 2 7 852.83 41.38 4
-1 2 -7 842.21 50.55 8
-1 2 -7 793.22 42.21 6
-1 2 -7 798.9 39.06 2
-1 -2 -7 820.17 43.08 6
1 -2 7 787.93 35.22 3
-1 -2 -7 759.87 32.91 1
1 -2 7 759.24 41.77 4
-1 -2 -7 796.47 38.51 9
-1 -2 -7 860.38 51.19 8
1 -2 7 731.12 37.64 7
-1 -2 -7 755.07 81.25 10
-1 -2 -7 832.07 38.84 2
0 2 8 1053.83 54.32 4
0 2 8 1032.16 44.43 1
0 2 -8 1179.69 64.46 8
0 2 -8 1078.73 50 2
0 -2 -8 1052.57 48.82 2
0 -2 -8 1113.12 50.8 9
0 -2 -8 1169.39 55.4 6
0 -2 -8 1054.25 96.37 10
0 -2 8 1112.59 55.23 4
0 -2 -8 1166.47 66.09 8
-1 2 9 46.02 51.75 10
1 2 -9 36.41 7.98 2
-1 2 9 25.87 9.32 4
1 2 -9 21.25 6.22 3
-1 2 9 24 5.65 1
1 2 -9 22.59 7.23 8
1 -2 -9 29.95 7.86 6
1 -2 -9 10.54 5.88 2
1 -2 -9 33.86 8.2 3
1 -2 -9 10.59 38.61 10
-1 -2 9 18.77 7.03 4
1 -2 -9 34.14 8.02 9
1 -2 -9 32.51 11.61 8
-2 2 10 240.46 20.25 4
-2 2 10 218.43 61.2 10
2 2 -10 200.66 19.2 8
-2 2 10 216.3 14.54 1
2 2 -10 177.1 13.72 9
2 2 -10 203.25 15.13 2
2 2 -10 220.4 16.06 3
2 2 -10 14.05 81.45 10
-2 -2 10 204.59 18.22 4
2 -2 -10 185.86 62.59 10
-2 -2 10 209.49 13.43 1
2 -2 -10 206.81 22.62 8
2 -2 -10 203.18 15.97 6
2 -2 -10 199.04 16.47 3
2 -2 -10 201.95 16.42 9
-3 2 11 789.54 44.37 4
3 2 -11 663.09 44.85 8
-3 2 11 704.15 34.86 1
3 2 -11 694.66 34.59 9
3 2 -11 701.47 35.62 3
3 2 -11 635.98 34.44 2
3 -2 -11 721.7 38.05 9
3 -2 -11 668.8 37.05 6
3 -2 -11 756.86 51.28 8
-3 -2 11 734.92 41.77 4
-3 -2 11 701.31 33.08 1
3 -2 -11 714.17 37.53 3
4 2 -12 674.74 34.43 3
4 2 -12 667.88 34.19 9
4 2 -12 537.64 42.51 8
-4 2 12 641.31 42.1 4
-4 2 12 663.46 34.27 1
4 -2 -12 679.34 37.09 9
4 -2 -12 643.05 35.89 3
-4 -2 12 696.16 41.31 4
4 -2 -12 708.31 49.98 8
-4 -2 12 647.3 32.41 1
5 2 -13 146.71 14.05 9
-5 2 13 108.29 13.05 1
5 2 -13 110.5 14.04 3
-5 2 13 156.02 20.94 4
5 -2 -13 110.17 15.27 3
-5 -2 13 109.71 18.39 4
-5 -2 13 104.3 12.87 1
5 -2 -13 119.8 15.91 9
5 -2 -13 108.39 20.05 8
6 2 -14 4.98 7.28 3
-6 2 14 6.72 14.92 4
-6 2 14 4.07 11.47 1
6 2 -14 3.78 10.5 9
6 -2 -14 -16.71 15.29 8
6 -2 -14 4.63 11.08 3
6 -2 -14 10.9 12.76 9
-6 -2 14 7.69 14.45 4
-6 -2 14 10.72 10.18 1
7 2 -15 4.76 12.74 9
-7 2 15 8.22 17.87 4
7 2 -15 13.82 12.11 3
-7 2 15 -4.01 13.74 1
7 -2 -15 -2.71 13.51 3
7 -2 -15 -2.54 12.8 9
-7 -2 15 -21.8 13.59 1
7 -2 -15 17.78 14.12 8
-7 -2 15 -8.14 16 4
9 3 -1 3.71 14.41 3
9 -3 -1 -15.79 17.58 7
-9 -3 1 -16.23 11.96 5
8 3 0 -2.55 11.98 3
-8 3 0 11.06 10.19 5
8 -3 0 19.26 14.9 7
-8 -3 0 14.02 11.55 5
-7 3 -1 89.7 13.78 5
-7 3 -1 90.18 14.99 2
7 3 1 94.53 13.33 3
7 -3 1 62.16 14.73 7
-7 -3 -1 72.47 12.15 5
-7 -3 -1 83.49 15.62 6
-6 3 -2 -1.11 9.61 5
6 3 2 1.27 9.56 3
-6 3 -2 -4.28 9.9 2
6 -3 2 10.29 10.13 7
-6 -3 -2 -14.62 9.8 6
-6 -3 -2 4.42 9 5
5 3 3 13.96 8.02 3
-5 3 -3 28.9 8.21 2
-5 3 -3 -3.17 8.78 5
5 -3 3 2.47 8.22 7
-5 -3 -3 22.25 8.25 5
-5 -3 -3 14.27 10.35 6
-4 3 -4 324.58 22.8 5
-4 3 -4 349.07 23.18 2
4 3 4 352 22.73 3
-4 -3 -4 322.91 25.26 6
4 -3 4 314.72 22.94 7
-4 -3 -4 318.38 21.82 5
-4 -3 -4 338.08 26.99 8
-3 3 -5 83.75 11.32 2
3 3 5 82.9 10.79 3
-3 3 -5 82.56 10.07 5
-3 -3 -5 62.19 9.1 5
3 -3 5 86.67 12.13 4
3 -3 5 70.01 10.34 7
-3 -3 -5 94.54 13 6
-3 -3 -5 81.4 12.93 8
-2 3 -6 426.4 26.15 5
2 3 6 444.71 25.72 3
-2 3 -6 445.2 26.5 2
-2 -3 -6 433.08 32.18 8
-2 -3 -6 442.04 28.75 6
2 -3 6 460.34 25.62 7
2 -3 6 426.7 27.41 4
-2 -3 -6 439.55 25.74 9
1 3 7 8.74 5.1 4
-1 3 -7 2.54 4.67 2
1 -3 7 5.78 5.06 7
-1 -3 -7 101.89 63.3 10
1 -3 7 10.66 7.33 4
-1 -3 -7 5.18 64.04 10
-1 -3 -7 7.85 6.34 9
-1 -3 -7 0.09 6.5 6
-1 -3 -7 2.88 9.36 8
0 3 -8 366.05 27.4 8
0 3 8 320.71 22.38 4
0 3 -8 344.67 21.6 2
0 3 8 314.88 17.48 1
0 -3 8 302.35 22.68 4
0 -3 -8 371.2 29.37 8
0 -3 -8 359.29 72.27 10
0 -3 8 303.23 19.47 7
0 -3 -8 317.1 23.16 6
0 -3 -8 288.58 20.67 9
-1 3 9 1068.3 46.37 1
1 3 -9 1042.2 49.8 2
-1 3 9 1118.62 56.8 4
1 3 -9 1048.91 46.23 3
1 3 -9 1140.2 63.54 8
-1 3 9 836.13 108.76 10
1 -3 -9 1046.78 50.13 3
1 -3 -9 1030.38 53.82 6
1 -3 -9 1061.64 51.33 9
1 -3 -9 1225.83 68.92 8
1 -3 -9 1150.27 121.17 10
-1 -3 9 1066.77 55.17 4
2 3 -10 965.88 47.91 2
2 3 -10 1027.61 46.44 3
-2 3 10 1057.93 56.35 4
2 3 -10 1039.94 60.75 8
-2 3 10 979.83 45.85 1
2 -3 -10 1016.18 50.79 9
-2 -3 10 1019.6 54.26 4
-2 -3 10 1016.36 44.16 1
2 -3 -10 1045.48 52.27 6
2 -3 -10 1192.67 69.35 8
2 -3 -10 1083.74 49.82 3
3 3 -11 185.84 21.35 8
-3 3 11 190.37 16.09 1
-3 3 11 190.49 19.62 4
3 3 -11 221.19 17.28 3
3 3 -11 212.32 16.35 2
3 -3 -11 209.94 18.03 9
-3 -3 11 197.4 19.4 4
3 -3 -11 200.78 18.52 6
-3 -3 11 187.39 14.38 1
3 -3 -11 182.07 24.39 8
3 -3 -11 207.49 17.32 3
4 3 -12 -11.97 10.33 3
4 3 -12 0.2 7 2
-4 3 12 -16.67 9.33 1
-4 3 12 -4.7 12.89 4
-4 -3 12 -2.55 7.45 4
4 -3 -12 18.91 10.73 3
4 -3 -12 10.15 9.68 9
-4 -3 12 -10.35 7.69 1
-5 3 13 73.09 18.63 4
-5 3 13 89.02 14.5 1
5 3 -13 64.69 14.42 3
-5 -3 13 68.24 10.45 1
5 -3 -13 80.5 12.95 3
5 -3 -13 45.59 17.56 8
-5 -3 13 107.07 17.51 4
5 -3 -13 77.23 12.78 9
6 3 -14 104.91 15.09 3
-6 3 14 87.46 18.32 4
-6 3 14 98.67 15.92 1
-6 -3 14 105.78 15.51 1
6 -3 -14 135.9 18.49 3
6 -3 -14 89.19 18.83 8
-6 -3 14 57.84 17.24 4
6 -3 -14 95.22 16.56 9
-7 3 15 4.48 19.34 4
7 3 -15 15.8 15.41 9
-7 3 15 21.36 15.71 1
7 -3 -15 26.88 14.19 3
-7 -3 15 15.5 10.23 1
7 -3 -15 -1.1 12.58 8
-7 -3 15 6.58 11.51 4
7 -3 -15 7.84 10.46 9
8 4 0 -4.36 9.24 3
-8 4 0 15.84 14.74 5
-8 -4 0 -26.87 18.55 5
8 -4 0 8.67 15.05 7
7 4 1 -5.49 11.49 3
-7 4 -1 16.95 12.23 5
-7 -4 -1 9.06 12 5
7 -4 1 -3.79 12.46 7
-7 -4 -1 -3.84 13.11 6
-6 4 -2 12.46 8.01 2
-6 4 -2 40.1 12.6 5
6 4 2 25.18 11.18 3
-6 -4 -2 30.33 11.13 5
-6 -4 -2 10.76 9.89 6
6 -4 2 24.72 9.5 7
5 4 3 102.68 13.99 3
-5 4 -3 133.64 15.59 5
-5 4 -3 106.06 14.48 2
-5 -4 -3 110.54 12.8 5
5 -4 3 102.92 14.02 7
-5 -4 -3 139 17.36 6
-4 4 -4 45.01 9.11 2
4 4 4 37.57 9.5 3
-4 4 -4 62.74 10.94 5
4 -4 4 35.92 8.64 7
-4 -4 -4 35.81 9.22 5
-4 -4 -4 37.46 9.91 6
-4 -4 -4 48.98 12.23 8
-3 4 -5 25.54 7.63 2
-3 4 -5 24.01 6.77 5
3 4 5 30.88 8.39 3
-3 -4 -5 42.81 11.6 8
-3 -4 -5 30.27 10.38 6
3 -4 5 35.85 8.73 4
-3 -4 -5 27 8.65 5
3 -4 5 32.14 9.14 7
2 4 6 10.33 7.12 3
-2 4 -6 13.13 6.22 2
-2 4 -6 8.11 7.26 5
2 -4 6 18.71 8.8 4
-2 -4 -6 17.09 10.52 8
-2 -4 -6 8.39 8.36 6
-2 -4 -6 13.22 8.72 9
2 -4 6 5.45 6.49 7
-2 -4 -6 2.06 6.86 1
-1 4 -7 1050.75 50.87 2
1 4 7 1100.86 50 3
-1 -4 -7 995.26 144.38 10
-1 -4 -7 1074.44 65.2 8
-1 -4 -7 1084.81 46.16 1
-1 -4 -7 1104.03 56.86 6
1 -4 7 1091.53 55.94 4
1 -4 7 1026.91 52.83 7
-1 -4 -7 1094.88 52.13 9
0 4 -8 397.52 24.98 2
0 4 8 344.7 20.56 1
0 4 8 371.38 25.78 4
0 -4 8 376.44 26.4 4
0 -4 8 363.79 23.72 7
0 -4 -8 421.28 33.82 8
0 -4 -8 387.44 26.79 6
0 -4 -8 404.27 25.4 9
1 4 -9 150.56 14.97 2
-1 4 9 145.33 17.1 4
-1 4 9 129.67 11.42 1
1 -4 -9 134.86 15.09 6
-1 -4 9 120.84 12.8 7
-1 -4 9 149.98 15.73 4
1 -4 -9 116.88 14 9
1 -4 -9 174.08 22.08 8
-2 4 10 5.55 8.3 4
-2 4 10 20.73 8.19 1
2 4 -10 8.13 6.12 2
2 4 -10 -3.33 9.26 8
-2 -4 10 -12.92 8.67 4
2 -4 -10 21.52 9.55 3
2 -4 -10 10.05 6.18 9
2 -4 -10 10.45 12.72 8
2 -4 -10 7.38 6.73 6
-3 4 11 322.63 21.92 1
3 4 -11 289.45 20.61 2
-3 4 11 296.03 26.16 4
3 -4 -11 292.82 30.48 8
-3 -4 11 283.1 18.98 1
3 -4 -11 278.29 22.17 3
-3 -4 11 294 24.28 4
3 -4 -11 299.42 23.84 9
-4 4 12 112.86 17.66 4
4 4 -12 127.69 14.75 2
-4 4 12 110.25 14.89 1
4 -4 -12 94.12 15.4 3
4 -4 -12 136.62 15.82 9
4 -4 -12 112.73 22.13 8
-4 -4 12 126.47 13.83 1
-4 -4 12 103.52 14.96 4
-5 4 13 51.86 11.23 1
-5 4 13 42.29 18.56 4
5 -4 -13 55.8 19.15 8
-5 -4 13 60.9 15.87 4
-5 -4 13 68.44 12.64 1
5 -4 -13 82.71 15.96 9
5 -4 -13 68.4 15.14 3
-6 4 14 -29.83 19.67 4
-6 4 14 3.52 9.45 1
6 -4 -14 -15.09 17.91 8
6 -4 -14 4.07 12.82 9
6 -4 -14 -0.87 13.22 3
-6 -4 14 11.56 11.44 4
-6 -4 14 3.7 8.29 1
8 5 0 2.67 10.38 3
-8 5 0 -21.63 15.11 5
8 -5 0 -9.88 16.97 7
-7 5 -1 8.16 9.43 5
7 5 1 1.17 10.81 3
-7 -5 -1 24.79 16.68 6
7 -5 1 8.5 14.29 7
-6 5 -2 17.47 12.23 2
-6 5 -2 16.11 11.47 5
6 5 2 49.25 13.62 3
6 -5 2 30 12.06 7
-6 -5 -2 20.37 11.76 6
-5 5 -3 9.36 10.39 2
5 5 3 9.5 7.64 3
-5 5 -3 4.1 8.05 5
5 -5 3 8.93 10.24 7
-5 -5 -3 29.17 13.88 6
-4 5 -4 151.23 15.89 2
4 5 4 192.12 17.55 3
-4 5 -4 196.34 17.15 5
-4 -5 -4 148.89 18.89 6
4 -5 4 191.92 18.96 7
3 5 5 140.46 14.9 3
-3 5 -5 121.43 13.92 2
-3 5 -5 175.11 15.58 5
-3 -5 -5 164.64 19.02 6
3 -5 5 121.62 15.35 7
2 5 6 365.74 23.35 3
-2 5 -6 343.24 24.18 2
-2 -5 -6 337.8 20.78 1
2 -5 6 367.94 27.49 4
2 -5 6 337.21 24.69 7
-2 -5 -6 334.12 26.36 6
-2 -5 -6 333.88 29.74 8
-2 -5 -6 365.23 25.07 9
1 5 7 154.08 13.87 3
-1 5 -7 138.96 15.43 2
-1 -5 -7 113.69 15.22 6
1 -5 7 141.24 16.03 4
-1 -5 -7 97.7 15.97 8
-1 -5 -7 130.75 11.75 1
-1 -5 -7 125.25 14.64 9
1 -5 7 99.09 12.31 7
0 5 8 276.71 18.67 1
0 5 -8 283.69 22.23 2
0 -5 -8 319.31 19.99 1
0 -5 8 272.44 23.4 4
0 -5 -8 328.24 23.28 9
0 -5 -8 312.9 24.38 6
0 -5 -8 314.22 30.57 8
0 -5 8 294.85 21.64 7
-1 5 9 2.79 7.44 4
1 5 -9 5.16 6.49 2
-1 5 9 -1.73 5.04 1
-1 -5 9 10.56 9 4
1 -5 -9 -4.09 12.87 8
1 -5 -9 -3.11 8.45 9
1 -5 -9 -16.11 9.39 6
-1 -5 9 -9.64 6.13 7
2 5 -10 789 41.83 2
-2 5 10 743.06 47.05 4
-2 5 10 778.17 39.37 1
2 -5 -10 886.82 58.53 8
-2 -5 10 679.81 42.32 7
-2 -5 10 805.63 45.65 4
2 -5 -10 786.3 41.51 3
2 -5 -10 842.98 44.46 9
2 -5 -10 815.61 45.2 6
-3 5 11 -0.71 8.95 1
3 5 -11 30.29 11.5 2
-3 5 11 37.14 15.03 4
3 -5 -11 2.35 10.23 9
3 -5 -11 16.65 11.17 3
-3 -5 11 -1.59 8.85 4
3 -5 -11 11.42 11.11 8
4 5 -12 14.01 8.26 2
-4 5 12 -1.1 10.55 1
-4 5 12 10.34 15.72 4
4 -5 -12 10.02 12.3 9
-4 -5 12 3.3 11.73 4
-4 -5 12 -8.71 9.63 1
4 -5 -12 4.51 9.51 3
4 -5 -12 2.39 10.62 8
-5 5 13 24.44 13.57 1
5 5 -13 20.67 12.35 2
-5 5 13 31.13 18.28 4
5 -5 -13 22.32 16.26 8
-5 -5 13 9.48 10.71 4
-5 -5 13 24.32 9.3 1
5 -5 -13 34.24 14.37 3
5 -5 -13 19.85 10.22 9
-6 5 14 163.77 20.59 1
-6 5 14 110.11 24.9 4
-6 -5 14 118.29 15.92 1
6 -5 -14 86.15 15.84 3
6 -5 -14 106.8 20.59 9
7 6 1 24.51 14.19 3
7 -6 1 51.33 18.01 7
-7 -6 -1 52.87 19.82 6
6 6 2 2.79 8.88 3
6 -6 2 18.09 10.96 7
-6 -6 -2 8.53 16.12 6
-5 6 -3 25.08 13.21 2
5 6 3 25.81 12.35 3
-5 -6 -3 -8.03 13.05 6
5 -6 3 8.85 9.42 7
-4 6 -4 -0.88 10.54 2
4 6 4 23.31 8.52 3
4 -6 4 -25.79 12.41 7
-4 -6 -4 -7.37 13.21 6
-3 6 -5 19.22 11.01 2
3 6 5 16.5 9.43 3
3 -6 5 4.45 10.78 7
-3 -6 -5 0.48 11.6 6
-3 -6 -5 12.83 11.35 1
-2 6 -6 31.97 9.9 2
2 6 6 6.48 9.09 3
-2 -6 -6 8.75 6.4 1
-2 -6 -6 16.61 11.91 6
2 -6 6 17.97 8.3 7
-2 -6 -6 18.55 10.08 9
2 -6 6 5.34 10.77 4
1 6 7 552.02 31.81 3
-1 6 -7 568.88 34.26 2
1 -6 7 564.91 34.92 7
-1 -6 -7 444.27 39.56 8
1 -6 7 550.18 36.07 4
-1 -6 -7 569.02 34.16 9
-1 -6 -7 538.08 36.71 6
-1 -6 -7 516.88 29.41 1
0 6 -8 -17.1 11.13 2
0 -6 8 5.46 10.45 4
0 -6 -8 11.25 8.62 1
0 -6 -8 10.95 8.32 6
0 -6 8 -4.11 9.07 7
0 -6 -8 13.01 10.26 8
0 -6 -8 -14.31 10.11 9
-1 6 9 46.95 10.85 1
1 6 -9 40.98 9.9 2
-1 -6 9 38.7 11.36 4
1 -6 -9 32.83 11.72 9
-1 -6 9 66.11 12.39 7
1 -6 -9 55.74 11.93 6
1 -6 -9 59.65 18.48 8
2 6 -10 13.49 11.57 2
-2 6 10 1.78 9.04 1
-2 6 10 -14.42 13.03 4
2 -6 -10 -2.56 14.91 8
2 -6 -10 7.93 11.75 9
-2 -6 10 -4.2 10.4 4
-2 -6 10 9.45 9.7 7
2 -6 -10 -1.38 10.71 6
3 6 -11 276.85 22.96 2
-3 6 11 238.69 26.55 4
-3 6 11 306.21 23.02 1
-3 -6 11 311.61 25.83 4
3 -6 -11 298.5 23.88 3
3 -6 -11 241.48 30.77 8
-3 -6 11 231.5 24.2 7
3 -6 -11 310.23 24.91 9
-4 6 12 4.56 16.17 4
-4 6 12 6.07 11.74 1
4 6 -12 12.54 12.89 2
4 -6 -12 -10.6 17.97 8
4 -6 -12 -2.76 8.92 9
-4 -6 12 20.36 13.28 4
4 -6 -12 16.11 12.71 3
-5 6 13 181.86 21.75 1
5 6 -13 151.58 18.25 2
-5 6 13 153.36 26.9 4
5 -6 -13 207.72 24.03 9
-5 -6 13 125.91 21.37 4
-5 -6 13 141.51 16.69 1
5 -6 -13 177.08 21.83 3
6 7 2 52.95 15.52 3
6 -7 2 60.49 19.38 7
-6 -7 -2 61.41 20.84 6
5 7 3 11.72 12.73 3
-5 -7 -3 -0.57 11.64 6
5 -7 3 -7.71 14.57 7
4 7 4 2.84 7.86 3
-4 7 -4 4.32 12.68 2
-4 -7 -4 -7.34 14.13 6
4 -7 4 3.83 9.68 7
-3 7 -5 63.41 15.07 2
3 7 5 53.27 13.24 3
-3 -7 -5 45.54 15.82 6
3 -7 5 39.79 14.92 7
-3 -7 -5 53.96 11.93 1
-2 7 -6 47.51 11.85 2
2 7 6 60.77 12.6 3
2 -7 6 63.35 15.23 4
-2 -7 -6 51.19 11.36 1
-2 -7 -6 84.61 15.38 9
-2 -7 -6 64.93 16.4 6
2 -7 6 46.59 13.86 7
-1 7 -7 134.55 17.35 2
1 7 7 112.18 14.43 3
-1 -7 -7 87.67 14.91 9
-1 -7 -7 118.07 14.09 1
1 -7 7 131.86 17.88 7
1 -7 7 123.88 18.51 4
0 7 8 120.16 15.54 3
0 7 -8 134.92 16.27 2
0 -7 8 94.23 15.41 7
0 -7 -8 98.93 16.86 6
0 -7 8 119.35 18.55 4
0 -7 -8 111.29 15.49 9
0 -7 -8 89.61 17.54 8
0 -7 -8 102.55 14.53 1
1 7 -9 40.44 14.05 2
-1 7 9 31.03 11.75 1
1 -7 -9 41.01 10.34 1
1 -7 -9 24.68 10.43 9
-1 -7 9 25.06 10.1 7
1 -7 -9 32.87 14.31 6
-1 -7 9 7.21 11.96 4
1 -7 -9 24.59 17.33 8
-2 7 10 513.62 30.36 1
2 7 -10 468.7 33.02 2
2 -7 -10 447.25 33.45 9
-2 -7 10 457.9 34.09 4
-2 -7 10 435.61 32.81 7
-3 7 11 38.15 13.35 1
3 7 -11 47.54 15.24 2
-3 7 11 46.93 15.4 4
-3 -7 11 47.34 12.33 4
3 -7 -11 41.34 14.87 9
-3 -7 11 46.78 16.4 7
-4 7 12 14.98 14.33 4
-4 7 12 -2.69 13.22 1
-4 -7 12 27.93 20.49 4
4 -7 -12 21.08 15.14 9
4 -7 -12 14.41 18.67 8
4 -7 -12 29.54 15.61 3
4 8 4 130.99 22.72 3
-4 -8 -4 47.35 20.03 6
4 -8 4 79.88 19.33 7
3 8 5 22.74 12.85 3
-3 8 -5 71.23 15.11 2
3 -8 5 44.97 17.65 7
-3 -8 -5 -7.96 16.78 1
-3 -8 -5 45.19 14.49 6
2 8 6 16.96 16.73 3
-2 8 -6 29.55 15.72 2
-2 -8 -6 36.97 12.8 1
2 -8 6 9.01 15.34 7
2 -8 6 -20.08 16.11 4
-2 -8 -6 25.1 16.18 6
-1 8 -7 80.87 19.49 2
1 8 7 78.65 14.79 3
-1 -8 -7 79.06 17.82 9
-1 -8 -7 40.33 16.44 6
1 -8 7 84.65 18.11 7
1 -8 7 94.81 19.48 4
-1 -8 -7 93.93 16.19 1
0 8 8 7.11 16.4 3
0 -8 -8 55.99 16.26 9
0 -8 8 42.7 15.57 4
0 -8 8 0.35 9.75 7
0 -8 -8 20.22 11.47 6
0 -8 -8 21.25 9.67 1
1 -8 -9 78.46 18.2 6
-1 -8 9 74.23 16.6 4
-1 -8 9 77.6 18.07 7
1 -8 -9 93.3 15.91 9
1 -8 -9 115.6 15 1
-2 8 10 24.64 14.64 1
2 -8 -10 -2.96 13.02 1
-2 -8 10 -11.98 14.72 4
2 -8 -10 3.27 14.45 9
-2 -8 10 0.2 11.13 7
2 -8 -10 -6.73 19.56 8
9 0 0 9.26 11.42 3
-9 0 0 -16.31 11.72 5
9 0 0 -10.48 12.56 7
8 0 1 -8.96 13.83 7
8 0 1 -19.62 10.07 3
-8 0 -1 -15.58 12.92 5
-7 0 -2 335.33 26.22 5
7 0 2 393.63 26.56 3
-6 0 -3 -14.35 10.01 6
-6 0 -3 6.06 10.08 2
-6 0 -3 10.39 10.27 5
6 0 3 4.91 9.17 3
-5 0 -4 393.89 27.79 6
-5 0 -4 376.31 26.29 5
-5 0 -4 371.18 26.61 2
5 0 4 421.53 25.05 3
-4 0 -5 22.24 8.71 2
-4 0 -5 -11.05 8.87 6
4 0 5 -4.17 5.33 3
-4 0 -5 3.54 7.38 5
4 0 5 -2.43 6.42 4
-3 0 -6 448.05 28.57 6
3 0 6 412.17 25.02 4
-3 0 -6 422.23 32.86 8
-3 0 -6 409.83 26 2
3 0 6 423.25 24.18 3
-3 0 -6 412.19 26.21 5
2 0 7 7.51 6.44 3
-2 0 -7 -15.24 9.31 8
-2 0 -7 1.05 6.96 5
-2 0 -7 -7.01 6.09 9
-2 0 -7 1.37 6.83 6
2 0 7 1.14 4.4 4
-2 0 -7 12.19 7.28 2
-1 0 -8 3075.28 136.85 6
-1 0 -8 3150.05 125.46 2
-1 0 -8 3093.14 124.15 9
-1 0 -8 3206.38 160.78 8
1 0 8 3045.12 136.05 4
0 0 -9 -14.08 7.02 2
0 0 -9 0.53 5.03 9
0 0 9 2.44 6.31 4
0 0 -9 4.32 6.05 6
0 0 -9 -1.23 7.88 8
1 0 -10 9.74 6.34 9
1 0 -10 -7.39 9.71 8
1 0 -10 3.39 6.44 3
1 0 -10 -7.92 7.04 6
1 0 -10 -2.83 4.43 2
-1 0 10 8.11 8.09 4
2 0 -11 -6.95 5.43 6
2 0 -11 4.38 5.49 2
2 0 -11 -0.96 6.21 9
2 0 -11 -9.87 7.63 8
2 0 -11 9.18 7.47 3
-2 0 11 -5.79 9.34 4
3 0 -12 526.75 40.57 8
3 0 -12 485.85 30.17 6
-3 0 12 569.63 28.18 1
3 0 -12 598.91 32.51 3
3 0 -12 537.49 30.53 9
-3 0 12 553.65 36.19 4
-4 0 13 -2.3 6.32 1
4 0 -13 -18.44 9.89 3
4 0 -13 -0.44 12.47 8
-4 0 13 -7.39 10.41 4
4 0 -13 4.44 8.78 9
-5 0 14 20.78 7.84 1
5 0 -14 36.32 11.12 9
5 0 -14 14.49 11.32 8
-5 0 14 28.32 14.96 4
5 0 -14 11.58 10.7 3
-6 0 15 5.77 11.4 4
6 0 -15 -3.49 8.39 9
6 0 -15 21.09 17.84 8
-6 0 15 3.3 9.36 1
6 0 -15 3.61 11.51 3
7 0 -16 112.23 18.35 3
7 0 -16 107.22 18.72 9
-7 0 16 59.2 16.71 1
9 1 0 -0.27 15.53 3
-9 1 0 -8.86 11.1 5
9 -1 0 -7.03 15.63 3
-9 -1 0 -0.77 16.09 5
9 -1 0 -1.39 16.07 7
8 1 1 43.1 14.12 3
-8 1 -1 41.84 15.31 5
8 -1 1 54.97 14.48 3
8 -1 1 33.47 14.18 7
-8 -1 -1 33.95 14.56 5
7 1 2 48.61 13.16 3
-7 1 -2 50.85 14.22 2
-7 1 -2 49.7 14.12 5
7 -1 2 59.93 13.84 7
-7 -1 -2 51.36 14.35 5
7 -1 2 55.65 12.38 3
-7 -1 -2 32.27 12.04 6
-6 1 -3 19.69 10.45 2
6 1 3 43.43 9.35 3
-6 1 -3 35.44 11.8 6
-6 1 -3 33.27 11.98 5
-6 -1 -3 58.14 10.81 5
6 -1 3 36.85 10.23 7
-6 -1 -3 45.22 11.8 6
6 -1 3 40.3 9.3 3
5 1 4 18.13 7.03 3
-5 1 -4 18.58 7.91 2
-5 1 -4 24.31 10.06 5
-5 -1 -4 15.73 9.21 5
5 -1 4 24.49 8.76 3
-5 -1 -4 7.49 10.2 2
-5 -1 -4 17.91 9.71 6
-4 1 -5 1283.68 62.14 5
-4 1 -5 1303.68 60.79 2
-4 1 -5 1399.76 66.34 6
4 1 5 1342.62 58.79 3
4 -1 5 1287.92 56.84 3
-4 -1 -5 1247.29 61.59 5
-4 -1 -5 1342.3 66.22 6
4 -1 5 1255.03 62.44 4
-4 -1 -5 1327.45 61.37 2
-3 1 -6 21.7 7.82 5
3 1 6 4.06 6 4
3 1 6 11.44 6.72 3
-3 1 -6 40.26 9.77 2
-3 1 -6 12.75 6.39 6
-3 -1 -6 21.95 8.72 8
3 -1 6 20.23 5.47 3
3 -1 6 19.31 6.12 4
-3 -1 -6 10.56 7.96 6
-3 -1 -6 17.43 8.29 5
-3 -1 -6 11.79 8.55 2
-2 1 -7 685.6 34.52 2
-2 1 -7 642.04 37.16 6
-2 1 -7 534.3 33.81 5
2 1 7 661.71 33.17 3
-2 1 -7 643.33 43.59 8
2 1 7 655.47 34.47 4
2 -1 7 633.55 31.08 3
-2 -1 -7 626.32 31.44 9
-2 -1 -7 627.39 33.94 2
-2 -1 -7 603.48 36.54 6
-2 -1 -7 656.44 43.12 8
2 -1 7 623.48 34.85 4
-1 1 -8 375.73 23.04 2
-1 1 -8 372.88 25.59 6
1 1 8 417.59 25.49 4
-1 1 -8 386.65 29.66 8
1 -1 8 350.52 20.86 3
-1 -1 -8 355.34 25.17 6
-1 -1 -8 422.07 31.66 8
1 -1 8 373.03 24.21 4
-1 -1 -8 370.07 22.73 2
-1 -1 -8 343.69 21.23 9
0 1 -9 1075.21 55.9 6
0 1 -9 1145.58 66.52 8
0 1 -9 1113.45 51.25 2
0 1 9 1173.2 56.9 4
0 -1 -9 1077.49 50.65 2
0 -1 -9 1191.65 68.46 8
0 -1 9 1104.34 56.25 4
0 -1 -9 1099.79 55.96 6
0 -1 -9 1100.77 50.83 9
1 1 -10 332.28 27.83 8
1 1 -10 314.97 21 2
-1 1 10 325.37 24.34 4
1 1 -10 327.01 19.37 9
1 1 -10 327.53 20.9 3
1 1 -10 321.05 22.43 6
1 -1 -10 305.58 20.2 9
1 -1 -10 330.05 20.42 2
1 -1 -10 336.21 22.55 6
-1 -1 10 323.55 23.74 4
1 -1 -10 308.7 21.03 3
1 -1 -10 381.84 30.53 8
2 1 -11 568.24 31.01 9
2 1 -11 626.44 31.9 2
-2 1 11 641.85 38.11 4
2 1 -11 624.58 42.62 8
2 1 -11 629.34 32.93 3
2 -1 -11 605.34 33.48 3
2 -1 -11 615.88 31.04 2
2 -1 -11 583.02 34.12 6
2 -1 -11 634.72 45.48 8
2 -1 -11 578.74 32.37 9
-2 -1 11 636.08 38.37 4
-3 1 12 23.79 8.04 1
3 1 -12 25.36 9.65 8
3 1 -12 40.91 9.25 9
-3 1 12 26.25 12.67 4
3 1 -12 48.8 10.74 3
3 1 -12 26.19 7.68 2
3 -1 -12 32.63 13.59 8
-3 -1 12 29.28 10.87 4
3 -1 -12 47.82 11.12 3
3 -1 -12 9.69 8.34 9
3 -1 -12 19.19 11.25 6
-4 1 13 88.37 11.69 1
4 1 -13 94.46 17.24 8
4 1 -13 79.88 11.2 9
-4 1 13 114.13 17.7 4
4 1 -13 109.18 13.48 3
4 -1 -13 87.29 12.46 3
-4 -1 13 107.73 15.45 4
4 -1 -13 92.97 13.58 9
-4 -1 13 87.99 10.5 1
4 -1 -13 72.9 16.09 8
5 1 -14 32.69 9.12 3
5 1 -14 18.58 10.51 9
-5 1 14 17.19 11.74 4
-5 1 14 15.19 10.32 1
5 1 -14 6.43 11.57 8
5 -1 -14 20.97 12.11 3
-5 -1 14 12.85 10.48 4
5 -1 -14 13.89 13.76 8
5 -1 -14 38.46 10.21 9
-5 -1 14 41.34 10.99 1
6 1 -15 31.9 11.62 3
-6 1 15 17.06 17.02 4
-6 1 15 18.56 12.5 1
6 1 -15 23.72 9.85 9
6 -1 -15 12.13 15.25 8
-6 -1 15 19.25 16.52 4
-6 -1 15 26.9 9.76 1
6 -1 -15 38.09 13.07 3
6 -1 -15 16.88 10.21 9
-7 1 16 -7.14 14.83 1
7 1 -16 -7.74 13.99 9
-7 1 16 10.73 19.38 4
7 1 -16 4.72 9.46 3
7 -1 -16 10.58 14.52 3
-7 -1 16 2.03 14.05 1
-7 -1 16 -3.49 18.82 4
7 -1 -16 -4.39 14.68 9
7 -1 -16 10.41 14.46 8
8 2 1 11.49 13.15 3
-8 2 -1 6.96 13.24 5
8 -2 1 24.28 11.36 7
-8 -2 -1 39.29 12.14 5
8 -2 1 37.52 14.19 3
-7 2 -2 23.31 10.68 5
7 2 2 21.55 12.41 3
-7 2 -2 20.02 12.17 2
-7 -2 -2 35.51 10.4 6
7 -2 2 6.88 11.43 7
-7 -2 -2 23.73 12.83 5
7 -2 2 16.94 10.16 3
-6 2 -3 25.54 11.77 5
6 2 3 12.06 7.63 3
-6 2 -3 45.35 10.53 2
-6 2 -3 16.22 10.26 6
6 -2 3 35.7 10.39 3
-6 -2 -3 8.54 7.85 5
6 -2 3 13.64 7.66 7
-6 -2 -3 19.55 11.5 6
-5 2 -4 61.83 10.74 6
-5 2 -4 50.74 11.69 5
5 2 4 72.98 11.93 3
-5 2 -4 60.24 10.59 2
-5 -2 -4 70.57 13.71 6
5 -2 4 60.75 9.99 3
5 -2 4 54.09 9.45 7
-5 -2 -4 46.55 11.04 5
5 -2 4 44.89 11.72 4
-4 2 -5 7.38 8.88 6
4 2 5 1.57 7.45 3
-4 2 -5 13.21 8.65 5
-4 2 -5 26.7 8.68 2
-4 -2 -5 13.44 7.33 6
4 -2 5 14.41 6.75 3
-4 -2 -5 15.65 10.78 8
4 -2 5 24.94 9.5 4
-3 2 -6 756.13 40.12 5
3 2 6 781.63 37.89 3
-3 2 -6 746.02 39.38 2
-3 2 -6 777.64 42.64 6
-3 -2 -6 711.79 39.36 2
-3 -2 -6 754.71 43.3 6
-3 -2 -6 718.02 39.82 5
3 -2 6 754.26 40.97 4
-3 -2 -6 756.93 48.9 8
3 -2 6 768.45 35.41 3
2 2 7 154.87 14.26 4
-2 2 -7 149.19 14.21 2
-2 2 -7 162.96 15.8 6
-2 2 -7 139.93 14.98 5
2 2 7 153.38 14.56 3
2 -2 7 147.41 11.27 3
-2 -2 -7 190.98 20.64 8
-2 -2 -7 165.34 13.28 9
2 -2 7 158.49 15.5 4
-2 -2 -7 168.61 14.79 2
-2 -2 -7 146.88 16.01 6
-1 2 -8 1746.74 84.57 6
-1 2 -8 1936.56 100.86 8
-1 2 -8 1741.08 78 2
1 2 8 1950.21 84.65 4
1 -2 8 1809.35 85 4
-1 -2 -8 1789.86 78.27 9
1 -2 8 1719.11 73 3
-1 -2 -8 1724.17 77.14 2
-1 -2 -8 1911.25 101.1 8
-1 -2 -8 1854.86 86.12 6
0 2 9 4.16 7.47 4
0 2 -9 2.48 8.47 8
0 2 -9 14.25 7.91 2
0 -2 -9 -5.8 10.2 8
0 -2 -9 14.17 8.31 6
0 -2 -9 -0.15 6.26 2
0 -2 -9 2.1 6.14 9
0 -2 9 3.2 5.32 4
1 2 -10 7.95 7.45 2
1 2 -10 6.73 8.59 8
-1 2 10 -0.49 6.58 4
1 2 -10 2.66 6.24 3
1 -2 -10 0.29 6.52 2
1 -2 -10 -2.92 6.8 6
1 -2 -10 -5.16 7.86 3
1 -2 -10 4.12 6.57 9
1 -2 -10 -11.06 11.44 8
-1 -2 10 -4.33 7.28 4
2 2 -11 309.43 21.19 2
-2 2 11 335.52 25.47 4
-2 2 11 310.09 19.29 1
2 2 -11 320.66 20.61 3
2 2 -11 355.13 28.21 8
2 -2 -11 318.5 31.04 8
-2 -2 11 307.47 24.6 4
2 -2 -11 317.56 22.12 6
2 -2 -11 332.6 22.74 3
2 -2 -11 304.91 21.46 9
3 2 -12 565.67 42.87 8
-3 2 12 643.77 32.79 1
3 2 -12 634.62 33.64 2
3 2 -12 626.06 34.61 3
-3 2 12 658.76 41.35 4
3 -2 -12 653.75 48.74 8
3 -2 -12 677.4 36.47 9
3 -2 -12 672.45 36.54 3
-3 -2 12 639.33 40.89 4
4 2 -13 111.75 19.1 8
-4 2 13 142.88 18.75 4
-4 2 13 155.54 14.45 1
4 2 -13 174.97 16.9 3
4 -2 -13 136.82 16.13 9
-4 -2 13 162.4 20.1 4
4 -2 -13 102.69 18.92 8
4 -2 -13 147.33 15.85 3
-4 -2 13 149.26 13.76 1
5 2 -14 20.76 9.3 3
-5 2 14 23.5 14.34 4
-5 2 14 13.41 8.31 1
5 -2 -14 37.66 12.47 9
5 -2 -14 14.47 11.88 8
-5 -2 14 7.23 14.55 4
-5 -2 14 7.49 7.01 1
-6 2 15 -2.54 16.03 4
6 2 -15 28.35 12.89 3
6 2 -15 28.68 15.86 9
-6 2 15 3.79 12.31 1
6 -2 -15 18.41 10.22 9
6 -2 -15 22.39 13.44 3
6 -2 -15 2.98 15.86 8
-6 -2 15 -1.64 7.98 1
-6 -2 15 9.76 16.24 4
-7 2 16 4.28 19.13 4
7 2 -16 4.54 12.53 3
-7 2 16 6.21 14.64 1
7 2 -16 8.03 15.47 9
7 -2 -16 0.42 17.66 8
7 -2 -16 51 16.32 3
7 -2 -16 6.7 15.06 9
-7 -2 16 19.09 12.35 1
-7 -2 16 -4.56 18.56 4
-8 3 -1 22.92 13.84 5
8 3 1 33.47 13.19 3
8 -3 1 7.99 10.55 7
-8 -3 -1 16.74 13.37 5
-7 3 -2 81.13 16.68 5
7 3 2 95.42 14.03 3
-7 3 -2 96.21 16.91 2
-7 -3 -2 79.65 15.52 5
7 -3 2 80.78 14.5 7
-7 -3 -2 64.92 13.45 6
-6 3 -3 6.32 11.23 2
6 3 3 25.54 11.9 3
-6 3 -3 -5.45 7.75 5
-6 -3 -3 9.14 10.55 5
6 -3 3 6.57 10.06 7
-6 -3 -3 15.5 12.52 6
-5 3 -4 29.67 8.76 5
-5 3 -4 29.13 11.32 2
5 -3 4 5.09 8.83 7
-5 -3 -4 24.42 9.88 5
-5 -3 -4 10.58 11.28 6
-4 3 -5 232.98 19.77 2
-4 3 -5 244.97 19.64 5
4 3 5 230.98 17.96 3
4 -3 5 217.54 20.58 4
-4 -3 -5 221.21 18.58 5
-4 -3 -5 209.11 21.04 6
4 -3 5 199.66 18.05 7
-4 -3 -5 226.3 23.79 8
-3 3 -6 190.79 17.62 2
-3 3 -6 168.31 16.57 5
3 3 6 180.89 16.13 3
3 -3 6 203.73 17.83 4
-3 -3 -6 253.97 21.54 6
-3 -3 -6 209.2 17.15 5
-3 -3 -6 182.82 20.71 8
2 3 7 1.22 7.22 3
-2 3 -7 12.06 6.46 2
-2 -3 -7 13.56 9.26 8
-2 -3 -7 13.77 8.91 6
2 -3 7 12.31 8.58 4
-2 -3 -7 10.91 7.11 9
1 3 8 84.98 11.9 4
-1 3 -8 97.49 12.76 2
-1 -3 -8 91.33 13.16 6
-1 -3 -8 91.46 10.75 9
-1 -3 -8 102.53 15.69 8
1 -3 8 83.87 12.49 4
0 3 -9 956.38 56.76 8
0 3 9 840.02 47.75 4
0 3 -9 831.12 43.81 2
0 -3 -9 889.9 48.34 6
0 -3 -9 914.3 45.16 9
0 -3 -9 987.65 60.46 8
0 -3 9 879.65 48.7 4
1 3 -10 181.24 19.97 8
1 3 -10 164.71 15.18 2
-1 3 10 147.8 18.18 4
1 -3 -10 156.31 15.37 6
1 -3 -10 176.55 21.5 8
-1 -3 10 161.77 17.09 4
1 -3 -10 135.34 14.82 9
-2 3 11 630.48 38.68 4
-2 3 11 567.3 30.08 1
2 3 -11 601.39 40.57 8
2 3 -11 576.44 32.33 2
2 -3 -11 581.6 45.64 8
2 -3 -11 559.67 33.26 9
-2 -3 11 549.36 35.65 4
2 -3 -11 568.65 33.35 3
2 -3 -11 571.12 34.05 6
-3 3 12 223.21 23.72 4
-3 3 12 187.41 16.61 1
3 3 -12 216.87 18.08 2
3 3 -12 159.92 21.07 8
-3 -3 12 216.69 21.57 4
3 -3 -12 214.47 19.62 9
3 -3 -12 221.22 26.12 8
3 -3 -12 227.93 19.92 3
-4 3 13 4.48 9.44 1
-4 3 13 -7.91 10.78 4
4 3 -13 6.09 7.19 2
4 -3 -13 -5.57 11.06 3
-4 -3 13 3.6 12.56 4
4 -3 -13 -0.18 14.57 8
4 -3 -13 -6.13 7.98 9
-5 3 14 414.56 28.58 1
-5 -3 14 389.36 25.41 1
5 -3 -14 470.77 31.75 3
-5 -3 14 415.32 34.21 4
5 -3 -14 459.39 32.38 9
-6 3 15 14.4 12.62 1
-6 3 15 2.16 17.96 4
-6 -3 15 -9.5 11.95 1
-6 -3 15 -3.15 14.25 4
6 -3 -15 -9.8 14.63 9
6 -3 -15 -24.65 14.35 3
6 -3 -15 11.01 17.71 8
8 4 1 -14.92 11.08 3
-8 4 -1 9.71 11.25 5
8 -4 1 -3.84 11.28 7
-8 -4 -1 -16.57 20.2 5
-7 4 -2 -0.08 11.35 5
7 4 2 11.54 12.5 3
-7 -4 -2 -13.86 14.74 6
7 -4 2 -2.66 9.11 7
-6 4 -3 206.86 21.07 2
-6 4 -3 192.72 20.36 5
6 4 3 194.61 20.04 3
-6 -4 -3 219.32 18.99 5
6 -4 3 197.01 21.48 7
-6 -4 -3 224.7 22.88 6
-5 4 -4 79.75 12.38 2
-5 4 -4 92.92 12.71 5
5 4 4 66.52 12.15 3
5 -4 4 66.61 13.4 7
-5 -4 -4 56.17 13.43 6
-5 -4 -4 91.33 13.62 5
-4 4 -5 181.32 17.07 2
4 4 5 160.13 15.76 3
-4 4 -5 177.58 17.31 5
-4 -4 -5 166.21 20.33 8
-4 -4 -5 168.69 18.69 6
-4 -4 -5 150.98 16.63 5
4 -4 5 183.56 20.05 4
4 -4 5 172.94 17.57 7
-3 4 -6 55.51 11.02 5
-3 4 -6 55.08 11.42 2
3 4 6 37.23 8.3 3
3 -4 6 32.43 9.56 7
3 -4 6 54.91 12.62 4
-3 -4 -6 45.85 13.36 8
-3 -4 -6 30.41 11.73 6
-2 4 -7 48.98 11.2 2
2 4 7 45.36 9.02 3
2 -4 7 63.73 10.75 4
-2 -4 -7 44.15 12.01 6
-2 -4 -7 47.9 9.01 9
-2 -4 -7 69.24 15.29 8
-1 4 -8 142.98 15.67 2
1 4 8 135.33 13.66 3
-1 -4 -8 129.58 14.5 9
1 -4 8 138.81 16.62 4
-1 -4 -8 145.55 21.2 8
-1 -4 -8 148.65 15.96 6
0 4 -9 5.88 8.85 2
0 4 9 -5.61 8.48 4
0 -4 -9 8.78 13.15 8
0 -4 -9 7.18 8.26 9
0 -4 -9 2.08 8.33 6
0 -4 9 2.11 8.88 4
-1 4 10 -1.13 10.44 4
-1 4 10 -2.77 6.78 1
1 4 -10 3.44 8.84 2
-1 -4 10 7.33 8.07 4
1 -4 -10 -0.39 6.06 6
1 -4 -10 2.87 7.51 9
1 -4 -10 19.14 14.77 8
-2 4 11 525.73 37.14 4
-2 4 11 527.48 29.12 1
2 4 -11 524.1 32.04 2
2 -4 -11 568.71 33.05 3
-2 -4 11 528.86 34.72 4
2 -4 -11 542.94 33.84 6
2 -4 -11 532.78 32.7 9
2 -4 -11 574.45 45.92 8
-3 4 12 67.07 17.21 4
-3 4 12 52.03 11.34 1
3 4 -12 47.78 11.97 2
-3 -4 12 50.92 13.37 4
3 -4 -12 77.88 18.37 8
3 -4 -12 76.79 14.48 9
3 -4 -12 64.09 11.46 3
4 4 -13 27.67 9.38 2
-4 4 13 48.79 12.4 1
-4 4 13 45.43 18.36 4
4 -4 -13 20.43 9.57 3
4 -4 -13 39.28 14.24 9
-4 -4 13 50.37 15.79 4
4 -4 -13 48.19 19.42 8
-5 4 14 -20.59 18.53 4
-5 4 14 5.76 11.31 1
-5 -4 14 -1.43 10.26 4
5 -4 -14 14.78 13.18 8
5 -4 -14 -18.63 14.37 9
5 -4 -14 -7.96 12.65 3
-6 4 15 67.26 19.26 4
-6 4 15 64.17 14.22 1
6 -4 -15 100.44 20.14 9
-6 -4 15 40.54 19.47 4
6 -4 -15 45.61 21.64 8
-6 -4 15 67.96 14.1 1
6 -4 -15 94.36 15.99 3
-7 5 -2 37.17 15.55 5
7 5 2 35.31 14.17 3
7 -5 2 26.3 14.12 7
-7 -5 -2 30.82 18.23 6
-6 5 -3 5.19 14.95 2
-6 5 -3 -0.09 8.22 5
6 5 3 8.73 12.34 3
-6 -5 -3 -3.47 12.17 6
6 -5 3 -30.3 14.37 7
5 5 4 13.12 8.89 3
-5 5 -4 25.34 11.44 5
-5 5 -4 30.99 11.16 2
-5 -5 -4 6.01 13.37 6
5 -5 4 15.09 12.18 7
-4 5 -5 53.17 10.99 2
-4 5 -5 40.61 10.21 5
4 5 5 41.88 11.69 3
-4 -5 -5 39.38 11.78 6
3 5 6 102.36 13.79 3
-3 5 -6 87.75 13.56 5
-3 5 -6 83.08 14.54 2
3 -5 6 58.7 12.61 7
3 -5 6 75.46 15.48 4
-3 -5 -6 80.81 16.25 6
2 5 7 63.09 10.6 3
-2 5 -7 85.95 13.4 2
-2 -5 -7 65.17 14.45 6
2 -5 7 76.47 12.61 4
2 -5 7 81.49 12.41 7
-2 -5 -7 92.61 17.32 8
-2 -5 -7 69.32 12.84 9
1 5 8 119.98 14.39 3
-1 5 -8 125.17 15.92 2
-1 -5 -8 97.37 19.21 8
-1 -5 -8 124.51 16.89 6
-1 -5 -8 132.88 15.64 9
1 -5 8 109.57 15.98 4
0 5 -9 11.93 10.26 2
0 -5 -9 4.95 9.59 1
0 -5 9 7.84 10.23 4
0 -5 -9 23.73 11.63 6
0 -5 -9 14.06 14.84 8
0 -5 -9 18.09 9.97 9
1 5 -10 344.89 25.52 2
-1 5 10 352.28 22.7 1
-1 5 10 332.09 26.99 4
1 -5 -10 333.09 34.22 8
1 -5 -10 380.86 26.32 9
1 -5 -10 404.82 28.47 6
-1 -5 10 359.13 28.2 4
-2 5 11 20.68 14.41 4
-2 5 11 35.16 8.5 1
2 5 -11 53.73 10.52 2
2 -5 -11 46.13 10.88 9
-2 -5 11 63.91 14.44 4
2 -5 -11 40.05 10.52 6
2 -5 -11 20.38 16.64 8
3 5 -12 158.38 16.44 2
-3 5 12 183.57 18.12 1
-3 5 12 129.02 20.46 4
3 -5 -12 144.04 24.98 8
3 -5 -12 192.04 20.76 9
-3 -5 12 162.19 18.47 4
3 -5 -12 167.23 19.21 3
4 5 -13 77.34 15.46 2
-4 5 13 58.09 20.57 4
-4 5 13 79.44 15.05 1
4 -5 -13 95.46 17.85 9
4 -5 -13 72.25 16.25 3
-4 -5 13 108.99 19.01 4
4 -5 -13 46 16.48 8
-5 5 14 199.35 30.31 4
-5 5 14 281.38 23.84 1
5 -5 -14 266.36 23.8 3
5 -5 -14 267.57 25.07 9
-5 -5 14 295.35 29.36 4
6 6 3 23 10.91 3
6 -6 3 10.5 14.76 7
-6 -6 -3 25.64 19.07 6
5 6 4 -36.93 13.24 3
-5 6 -4 16.81 13.4 2
5 -6 4 -1.22 12.91 7
-5 -6 -4 7.94 14.74 6
4 6 5 -19.16 11.71 3
-4 6 -5 -19.93 12.67 2
-4 -6 -5 3.6 12.97 6
4 -6 5 -0.84 11.85 7
-3 6 -6 79.93 13.07 2
3 6 6 85.03 14.37 3
3 -6 6 92.82 17.99 4
-3 -6 -6 84.47 15.04 6
3 -6 6 89.69 14.98 7
-2 6 -7 209.69 20.93 2
2 6 7 190.84 17.69 3
-2 -6 -7 180.26 21.29 6
2 -6 7 196.94 21.74 4
2 -6 7 175.05 19.53 7
-2 -6 -7 208.26 20.71 9
-1 6 -8 0.79 10.6 2
1 6 8 15.9 10.58 3
1 -6 8 32.46 12.1 4
-1 -6 -8 27.52 9.39 9
1 -6 8 23.57 11.08 7
0 6 -9 10.28 11.68 2
0 -6 -9 20.43 11.99 9
0 -6 -9 8.44 10.68 8
0 -6 -9 24.54 11.39 1
0 -6 -9 -8.65 10.88 6
0 -6 9 20.59 12.36 4
-1 6 10 -14.7 8.2 1
1 6 -10 -5.57 9.94 2
1 -6 -10 9.26 15.51 8
1 -6 -10 -2.01 11.61 6
1 -6 -10 -7.97 10.89 9
-1 -6 10 16.67 12.61 4
-2 6 11 314.43 30.79 4
-2 6 11 427.68 27.02 1
2 6 -11 442.57 28.86 2
-2 -6 11 412.13 31.51 4
2 -6 -11 418.35 29.81 9
2 -6 -11 365.15 38.88 8
-3 6 12 -5.76 11.32 1
3 6 -12 12.39 11.94 2
-3 6 12 -1.62 15.63 4
-3 -6 12 13.61 11.4 4
3 -6 -12 4.52 13.05 8
3 -6 -12 1.02 12.68 3
3 -6 -12 12.99 13.37 9
4 6 -13 101.67 17.97 2
-4 6 13 60.92 17.32 4
-4 6 13 128.13 19.13 1
4 -6 -13 118.83 19.35 3
4 -6 -13 130.54 19.53 9
-4 -6 13 92.92 18.49 4
4 -6 -13 74.08 21.18 8
5 7 4 -2.16 13.32 3
-5 -7 -4 -5.67 13.31 6
5 -7 4 3.36 16.15 7
-4 7 -5 67.07 17.54 2
4 7 5 84 16.45 3
-4 -7 -5 51.8 19.37 6
4 -7 5 94.34 16.47 7
-3 7 -6 12.41 10.53 2
3 7 6 -13.36 10.88 3
-3 -7 -6 8.57 12.64 6
3 -7 6 20.6 14.12 4
3 -7 6 -2.78 11.88 7
-2 7 -7 -9 13.75 2
2 7 7 10.33 11.41 3
-2 -7 -7 41.8 14.57 9
-2 -7 -7 41.69 16.62 6
2 -7 7 8.03 11.13 7
2 -7 7 -7.06 13.43 4
1 7 8 194.62 18.36 3
-1 7 -8 184.12 21.62 2
1 -7 8 158.01 20.5 7
-1 -7 -8 144.56 19.04 1
1 -7 8 188.74 22.92 4
-1 -7 -8 168.35 21.67 6
-1 -7 -8 206.4 21.87 9
0 7 9 1.61 10.69 3
0 7 -9 7.13 10.05 2
0 -7 9 -25.39 13.18 7
0 -7 9 1.54 9.58 4
0 -7 -9 9.07 12.48 1
0 -7 -9 -4.22 16 8
0 -7 -9 -4.46 13.33 6
0 -7 -9 -5.29 12.23 9
-1 7 10 279.79 22.61 1
1 7 -10 280.09 25.59 2
1 -7 -10 233.01 24.75 6
1 -7 -10 268.73 26.09 9
1 -7 -10 299.04 23.96 1
-1 -7 10 330.87 26.96 4
-2 7 11 -15.02 12.47 1
2 -7 -11 4.87 19.56 8
-2 -7 11 -12.45 10.4 4
2 -7 -11 -12.61 10.41 9
-3 7 12 0.86 9.6 1
-3 7 12 2.06 13.3 4
-3 -7 12 5.78 12.88 4
3 -7 -12 1.8 14.09 8
3 -7 -12 13.97 11.56 9
3 8 6 11.03 14.89 3
3 -8 6 42.56 18.99 7
3 -8 6 23.89 18.75 4
-3 -8 -6 30.08 14.32 6
2 8 7 89 14.52 3
2 -8 7 86.23 21.01 4
-2 -8 -7 90.6 17.59 6
2 -8 7 68.91 19.24 7
1 8 8 47.02 14.75 3
-1 -8 -8 54.07 19.91 1
-1 -8 -8 35.19 13.78 6
1 -8 8 12.3 14.73 7
-1 -8 -8 23.86 15.01 9
1 -8 8 67.82 18.86 4
0 8 9 23.73 14.83 3
0 -8 9 -0.06 10.68 4
0 -8 -9 -12.53 15.13 1
0 -8 -9 22.52 16.84 6
0 -8 9 14 13.62 7
0 -8 -9 18.86 11.94 9
-1 -8 10 50.11 17.52 4
1 -8 -10 -23.07 16.05 9
1 -8 -10 -4.41 13.63 1
1 -8 -10 32.2 16.92 6
8 0 2 -3.92 9.39 3
-8 0 -2 -2.05 10.22 5
-7 0 -3 -2.89 10.2 2
7 0 3 21.23 11.68 3
-7 0 -3 -1.2 12.45 5
-7 0 -3 -0.79 10.38 6
-6 0 -4 17.47 8.74 5
6 0 4 25.77 11.06 3
-6 0 -4 48.85 14.28 2
-6 0 -4 25.75 9.45 6
5 0 5 -0.89 8.58 3
-5 0 -5 5.1 7.12 5
-5 0 -5 3.25 9.67 2
-5 0 -5 20.89 9.96 6
-4 0 -6 90.07 14.39 6
-4 0 -6 108.64 14.16 5
4 0 6 80.71 11.98 3
-4 0 -6 91.06 12.54 2
-3 0 -7 8.31 6.49 5
-3 0 -7 8.98 11.07 8
3 0 7 -3.74 7.33 4
-3 0 -7 7.51 8.66 2
-3 0 -7 6.26 8.25 6
2 0 8 60.79 9.83 3
2 0 8 57.57 10.19 4
-2 0 -8 61.51 13.13 8
-2 0 -8 65.89 10.98 2
-2 0 -8 44.71 9.5 6
-1 0 -9 6.77 6.36 2
-1 0 -9 -0.58 9.25 8
-1 0 -9 1.17 7.63 6
1 0 9 4.36 8.01 4
0 0 -10 862.77 54.02 8
0 0 10 795.7 44.11 4
0 0 -10 730.42 42.72 6
0 0 -10 764.57 39.91 2
-1 0 11 -8.08 9.76 4
1 0 -11 10.81 8.64 6
1 0 -11 0.18 8.78 8
1 0 -11 3.35 7.3 2
1 0 -11 -20.05 9.58 9
2 0 -12 1050.29 65.72 8
-2 0 12 990.71 55.17 4
2 0 -12 973.74 51.65 6
2 0 -12 1022.47 49.6 3
2 0 -12 962.68 47.39 9
2 0 -12 993.38 46.89 2
3 0 -13 -11.74 9.86 3
3 0 -13 12.76 13.32 8
3 0 -13 -11.67 12.85 6
-3 0 13 15.93 12.73 4
3 0 -13 -12.27 8.72 9
4 0 -14 11.46 13.54 8
4 0 -14 24.69 10.74 9
-4 0 14 17.73 10.96 4
4 0 -14 31.34 12.58 3
5 0 -15 8.04 13.26 8
-5 0 15 2.12 15.48 4
5 0 -15 -4.57 11.29 3
5 0 -15 8.72 8.67 9
6 0 -16 132.1 19.21 3
-6 0 16 74.9 20.08 4
8 1 2 -3.71 13.52 3
-8 1 -2 -5.39 10.54 5
8 -1 2 -11.99 14.25 3
-8 -1 -2 5.09 15.04 5
-7 1 -3 -22.08 10.72 5
-7 1 -3 -1 13.51 2
7 1 3 -3.43 12.01 3
7 -1 3 5.33 11.17 3
-7 -1 -3 18.25 12.79 5
-7 -1 -3 3.76 11.99 6
-6 1 -4 -9.01 11.39 5
-6 1 -4 8.81 12.13 2
-6 1 -4 -4.27 9.63 6
6 1 4 12.42 8.11 3
-6 -1 -4 11.27 11.61 5
6 -1 4 8.6 7.39 3
-6 -1 -4 -8.32 11.16 6
-5 1 -5 103.15 14.96 2
-5 1 -5 94.28 13.76 6
5 1 5 96.06 13.63 3
-5 1 -5 106.31 14.01 5
-5 -1 -5 97.5 16.17 2
-5 -1 -5 66.11 13.37 5
-5 -1 -5 89.14 14.76 6
5 -1 5 70.06 11.62 3
4 1 6 9.62 8.43 3
-4 1 -6 4.43 8.73 5
-4 1 -6 -4.23 9.68 2
-4 1 -6 -5.23 9.73 6
4 -1 6 -2.24 6.62 4
-4 -1 -6 -6.27 10.11 2
4 -1 6 -5.63 5.63 3
-4 -1 -6 -5.67 8.49 5
-4 -1 -6 -2.13 6.78 6
-3 1 -7 56.68 11.3 5
-3 1 -7 35.64 11.32 6
-3 1 -7 46.91 11.22 2
3 1 7 38.97 7.91 3
3 -1 7 31.97 9.38 4
-3 -1 -7 26.95 10.85 2
3 -1 7 36.64 8.42 3
-3 -1 -7 57.84 11.65 6
-3 -1 -7 44.07 11.64 8
-3 -1 -7 58.59 11.52 5
-2 1 -8 39.41 8.96 6
-2 1 -8 42.16 10.43 2
2 1 8 35.69 9.3 4
2 1 8 25.98 8.98 3
-2 1 -8 29.4 12.05 8
-2 -1 -8 49.63 9.71 6
-2 -1 -8 29.42 12.09 8
2 -1 8 24.84 7.87 3
2 -1 8 41.37 8.41 4
-2 -1 -8 38.62 10.23 2
-2 -1 -8 34.55 6.95 9
-1 1 -9 1180.51 60.79 6
-1 1 -9 1175.29 55.57 2
-1 1 -9 1194.24 71.11 8
1 1 9 1171.45 59.82 4
-1 -1 -9 1178.57 55.31 2
-1 -1 -9 1264.94 72.75 8
1 -1 9 1149.06 59.43 4
-1 -1 -9 1205.92 60.78 6
1 -1 9 1143.95 52.35 3
-1 -1 -9 1187.25 53.6 9
0 1 10 157.67 16.08 4
0 1 -10 183.92 16.48 2
0 1 -10 174.82 16.48 6
0 1 -10 188.07 21.25 8
0 -1 10 201.52 18.37 4
0 -1 -10 168.74 16.81 6
0 -1 -10 191.27 21.19 8
0 -1 -10 155.32 14.25 9
0 -1 -10 148.46 14.09 2
1 1 -11 115.87 14.23 6
-1 1 11 135.78 15.99 4
1 1 -11 145.1 14.1 2
1 1 -11 146.9 19.56 8
1 -1 -11 121.35 19.82 8
-1 -1 11 126.24 16.17 4
1 -1 -11 126.64 15.06 6
1 -1 -11 146.05 13.72 2
1 -1 -11 127.11 13.55 9
2 1 -12 16.03 11.87 8
-2 1 12 17.79 11.72 4
2 1 -12 -6.55 8.7 3
2 1 -12 6.97 6.04 2
2 -1 -12 13.54 9.91 8
2 -1 -12 13.12 9.06 6
2 -1 -12 11.85 7.28 3
2 -1 -12 16.32 9.17 9
-3 1 13 527.5 38.57 4
3 1 -13 532.62 42.09 8
3 1 -13 564.82 32.67 3
3 -1 -13 522.1 32.49 3
3 -1 -13 611.75 33.68 9
3 -1 -13 500.06 43.34 8
-3 -1 13 519.25 37.36 4
4 1 -14 15.45 11.26 8
4 1 -14 22.88 10.94 3
-4 1 14 11.67 14.43 4
4 -1 -14 33.66 10.25 3
-4 -1 14 24.48 15.57 4
4 -1 -14 23.2 12.05 8
4 -1 -14 15.38 11.28 9
-5 1 15 173.15 16.96 1
5 1 -15 209.62 20.38 3
5 1 -15 225.46 22.89 9
-5 1 15 145.95 21.42 4
-5 -1 15 152.31 21.23 4
5 -1 -15 164.36 17.75 9
5 -1 -15 175.22 20.48 3
-6 1 16 3.81 12.93 4
6 1 -16 -8.2 19.27 9
6 1 -16 27.01 12.03 3
-6 1 16 11.28 13.77 1
6 -1 -16 6.72 13.07 3
-6 -1 16 -9.09 17.84 4
6 -1 -16 18.78 11.63 9
6 -1 -16 5 17.43 8
-8 2 -2 29.96 17.72 2
8 2 2 37.12 14.54 3
-8 2 -2 10.88 11.49 5
-8 -2 -2 22.55 15.7 5
-7 2 -3 -1.22 11.95 5
7 2 3 13.34 12.84 3
-7 2 -3 13.95 10.47 2
-7 -2 -3 14.81 13.49 5
-7 -2 -3 3.53 13.37 6
-6 2 -4 13.44 9.85 5
-6 2 -4 51.43 12.17 2
6 2 4 20.62 11.63 3
-6 2 -4 30.08 11.86 6
-6 -2 -4 30.15 12.72 5
-6 -2 -4 29.67 10.71 6
-5 2 -5 -1.57 6.86 5
5 2 5 -25.72 10.48 3
-5 2 -5 -7.41 10.76 2
-5 2 -5 -1.69 7.56 6
-5 -2 -5 -14.34 10.76 5
-5 -2 -5 -2.89 8.2 6
5 -2 5 0.71 8.19 3
5 -2 5 13.64 10.05 4
-4 2 -6 280.95 23.18 2
4 2 6 303.2 22.12 3
-4 2 -6 285.82 24.09 6
-4 2 -6 281.97 22.75 5
-4 -2 -6 289.33 22.81 5
-4 -2 -6 289.78 25.07 6
4 -2 6 264.71 19.15 3
4 -2 6 287.79 22.61 4
-4 -2 -6 320.23 28.19 8
-4 -2 -6 275.5 22.41 2
-3 2 -7 118.47 15.09 2
3 2 7 122.41 13.97 3
-3 2 -7 147.96 16.1 5
-3 2 -7 136.68 16.59 6
-3 -2 -7 154.37 16.77 2
-3 -2 -7 163.9 20.21 8
-3 -2 -7 128.26 15.56 5
-3 -2 -7 135.77 17.08 6
3 -2 7 146.23 15.97 4
3 -2 7 152.06 13.22 3
2 2 8 292.91 22.11 3
-2 2 -8 310.81 22.46 2
-2 2 -8 352.74 25.02 6
2 -2 8 343.32 20.03 3
-2 -2 -8 349.05 22.13 9
-2 -2 -8 367.76 26.81 6
-2 -2 -8 359.44 31.26 8
-2 -2 -8 314.27 22.8 2
2 -2 8 321.28 23.62 4
-1 2 -9 133.22 14.06 2
1 2 9 131.15 15.47 4
-1 2 -9 119.58 13.92 6
-1 2 -9 162.78 20.07 8
-1 -2 -9 129.4 14.88 6
1 -2 9 119.42 11.64 3
1 -2 9 130.2 15.28 4
-1 -2 -9 138.56 14.69 2
-1 -2 -9 160.2 19.51 8
-1 -2 -9 148.15 13.29 9
0 2 10 292.98 23.81 4
0 2 -10 289.77 21.68 2
0 2 -10 362.97 29.29 8
0 -2 -10 291.35 28.75 8
0 -2 -10 273.08 19.9 2
0 -2 10 316.72 23.99 4
0 -2 -10 290.52 20.78 9
0 -2 -10 276.37 22.24 6
1 2 -11 51.58 11.14 2
1 2 -11 60.55 12.83 8
-1 2 11 56.38 12.97 4
1 -2 -11 62.05 16.54 8
1 -2 -11 46.42 8.74 9
-1 -2 11 45.15 11.87 4
1 -2 -11 46.29 11.25 6
1 -2 -11 42.46 9.82 2
2 2 -12 728.6 38.09 3
2 2 -12 712.15 38.35 2
-2 2 12 684.1 44.08 4
2 2 -12 733.17 49.97 8
2 -2 -12 745.29 40.26 3
-2 -2 12 764.13 45.19 4
2 -2 -12 745.79 40.31 9
2 -2 -12 756.69 54.32 8
2 -2 -12 750.5 41.72 6
3 2 -13 6.65 9.52 3
3 2 -13 -1.23 8.59 2
-3 2 13 3.72 12.3 4
3 2 -13 0.58 8.62 8
3 -2 -13 -1.82 13.68 8
3 -2 -13 7.16 7.91 3
3 -2 -13 6.5 9.61 9
-3 -2 13 4.13 12.12 4
4 2 -14 11.88 11.22 3
-4 2 14 1.06 15.22 4
4 2 -14 -3.26 19.56 8
4 -2 -14 -15.36 9.12 3
4 -2 -14 6.64 11.33 9
-4 -2 14 -9.09 12.5 4
4 -2 -14 -2.9 12.36 8
-5 2 15 20.01 17.55 4
5 2 -15 51.75 14.44 3
-5 2 15 34.47 13.34 1
5 -2 -15 16.66 16.84 8
5 -2 -15 15.87 13.37 3
-5 -2 15 15.76 12.3 4
5 -2 -15 22.58 10.35 9
-6 2 16 29.02 14.13 1
-6 2 16 13.35 20.28 4
6 2 -16 11.19 12.95 3
6 -2 -16 17.75 13.76 9
6 -2 -16 37.32 14.12 3
-6 -2 16 -4.06 17.05 4
6 -2 -16 10.99 18.73 8
-8 3 -2 -8.09 15.64 5
8 3 2 -13.82 14.98 3
-8 -3 -2 2.31 15.14 5
-7 3 -3 -4.75 14.33 2
7 3 3 8.04 9.77 3
-7 3 -3 -17.59 13.99 5
-7 -3 -3 0.87 12.11 5
-7 -3 -3 -12.32 15.02 6
-6 3 -4 77.39 15.25 2
-6 3 -4 28.34 12.94 5
6 3 4 53.16 13.79 3
-6 -3 -4 68.43 14.86 5
6 -3 4 44.68 11.61 4
-6 -3 -4 56.31 14.21 6
-5 3 -5 -3.33 10.2 5
5 3 5 7.34 9.62 3
-5 3 -5 5.51 8.42 2
5 -3 5 -8.56 11.43 4
-5 -3 -5 0.64 8 5
-5 -3 -5 13.52 11.42 6
-4 3 -6 213.2 18.95 5
-4 3 -6 220.65 19.98 2
4 3 6 203.66 18.68 3
-4 -3 -6 187.66 21.11 6
4 -3 6 208.16 20.2 4
-4 -3 -6 200.37 19.52 5
-4 -3 -6 200.45 24.24 8
3 3 7 46.91 10.8 3
-3 3 -7 44.06 11.79 2
-3 3 -7 25.62 10.69 5
3 -3 7 40.36 11.61 4
-3 -3 -7 39.7 14.07 8
2 3 8 18.38 9.58 3
-2 3 -8 36.1 10.12 2
-2 -3 -8 27.48 13.6 8
-2 -3 -8 22.08 7.1 9
2 -3 8 15.84 9.34 4
-2 -3 -8 19.23 10.51 6
-1 3 -9 954.75 50.2 2
1 -3 9 1000.6 54.18 4
-1 -3 -9 990.48 49.77 9
-1 -3 -9 1112.69 67.27 8
-1 -3 -9 1016.82 54.75 6
0 3 10 9.62 9.49 4
0 3 -10 10.77 9.26 2
0 3 -10 -1.87 9.95 8
0 -3 -10 -4.92 8.67 6
0 -3 -10 -10.3 8.86 9
0 -3 10 1.41 9.01 4
0 -3 -10 -6.88 13.68 8
0 -3 -10 8.48 6.89 2
1 3 -11 313.47 22.09 2
-1 3 11 280.25 26 4
1 3 -11 344.03 29.41 8
1 -3 -11 291.14 22.93 9
1 -3 -11 311.42 32.77 8
-1 -3 11 300.76 24.79 4
1 -3 -11 317.51 24.64 6
2 3 -12 173.18 17.37 2
2 3 -12 191.28 22.44 8
-2 3 12 205.22 23.17 4
-2 -3 12 192.24 20.14 4
2 -3 -12 182.29 18.07 6
2 -3 -12 200.56 27.51 8
2 -3 -12 195.9 18.87 9
2 -3 -12 180.77 18.47 3
3 3 -13 85.68 11.79 2
-3 3 13 75.11 18.01 4
3 -3 -13 63.51 16.82 8
-3 -3 13 109.56 17.08 4
3 -3 -13 74.66 13.93 3
3 -3 -13 69.85 14.58 9
-4 3 14 53.63 18.93 4
-4 3 14 68.51 11.67 1
4 -3 -14 109.89 14.92 3
-4 -3 14 92.75 17.07 4
4 -3 -14 78.66 21.65 8
4 -3 -14 97.28 16.57 9
-5 3 15 6.4 13.35 1
-5 3 15 1.65 18.12 4
5 -3 -15 19.13 14.71 3
5 -3 -15 1.23 12.1 8
5 -3 -15 -6.4 9.35 9
-5 -3 15 6.43 13.66 4
-6 3 16 29.33 17.02 4
-6 3 16 13.03 11.83 1
-6 -3 16 18.82 14.75 4
6 -3 -16 -8.58 15.76 3
6 -3 -16 44.74 15.87 9
6 -3 -16 -1.23 19.85 8
-7 4 -3 156.12 26.13 2
-7 4 -3 170.16 21.54 5
7 4 3 171.84 19.06 3
-7 -4 -3 134.13 20.29 6
-7 -4 -3 210.86 23.58 5
-6 4 -4 12.97 13.6 2
6 4 4 28.65 12.59 3
-6 4 -4 9.34 10.09 5
-6 -4 -4 6.36 11.81 5
-6 -4 -4 27.29 15.48 6
6 -4 4 2.52 10.22 4
-5 4 -5 66.76 14.66 2
5 4 5 70.31 14.01 3
-5 4 -5 74.98 14.95 5
5 -4 5 54.42 15.3 4
-5 -4 -5 77.2 17.66 6
-5 -4 -5 54.11 13.57 5
4 4 6 -3.44 10.72 3
-4 4 -6 1.77 7.17 5
-4 4 -6 13.36 8.46 2
-4 -4 -6 30.11 11.93 5
-4 -4 -6 -0.82 11.81 8
4 -4 6 14.29 8.85 4
-4 -4 -6 -6.04 8.89 6
-3 4 -7 91.86 14.36 5
-3 4 -7 76.44 14.33 2
3 4 7 97.71 12.49 3
-3 -4 -7 116.54 19.25 8
3 -4 7 91.05 13.69 4
-3 -4 -7 106.72 17.02 6
-2 4 -8 82.48 12.59 2
2 4 8 108.59 13.86 3
-2 -4 -8 59.91 17.08 8
-2 -4 -8 98.92 15.13 6
-2 -4 -8 104.6 14.17 9
2 -4 8 93.63 15.04 4
-1 4 -9 5.59 7.22 2
1 4 9 4.36 9.64 3
-1 -4 -9 15.27 9.34 9
-1 -4 -9 24.28 11.85 8
1 -4 9 17.03 10.68 4
-1 -4 -9 29.74 11.3 6
0 4 -10 44.81 12.01 2
0 -4 -10 32.23 10.84 9
0 -4 -10 29.87 9.47 6
0 -4 -10 61.27 15.18 8
0 -4 10 31.67 11.74 4
1 4 -11 105.14 14.31 2
-1 4 11 80.26 16.32 4
1 -4 -11 103.45 15.44 6
-1 -4 11 129.55 17.51 4
1 -4 -11 121.21 14.37 9
1 -4 -11 120.59 22.84 8
-2 4 12 110.72 19.58 4
2 4 -12 121.69 15.89 2
2 -4 -12 108.51 15.03 6
2 -4 -12 144.87 16.16 3
-2 -4 12 114.42 17.68 4
2 -4 -12 140.29 15.89 9
2 -4 -12 102.78 23.39 8
3 4 -13 -2.39 8.09 2
-3 4 13 19.25 16.16 4
-3 -4 13 0.07 12.61 4
3 -4 -13 8.28 11.83 9
3 -4 -13 13.98 13.22 8
3 -4 -13 3.62 11.41 3
-4 4 14 -2.07 10.55 1
-4 4 14 6.51 12.85 4
4 -4 -14 5.34 13.08 9
4 -4 -14 16.63 17.71 8
4 -4 -14 15.18 13.21 3
-4 -4 14 24.44 16.43 4
-5 4 15 206.5 21.89 1
5 -4 -15 182.6 21.21 9
-5 -4 15 223.26 27.88 4
5 -4 -15 194.2 21.64 3
-6 5 -4 44.95 13.06 2
-6 5 -4 86.81 16.94 5
6 5 4 75.91 15.02 3
-6 -5 -4 65.78 19.81 6
5 5 5 30.6 13.1 3
-5 5 -5 49.62 14.24 5
-5 5 -5 76.76 13.63 2
-5 -5 -5 35.82 16.01 6
5 -5 5 55.74 17.16 4
4 5 6 186.8 18.77 3
-4 5 -6 230.24 22.43 2
-4 5 -6 219.06 21.37 5
4 -5 6 224.19 22.42 4
-4 -5 -6 219.01 23.08 6
3 5 7 67.68 13.63 3
-3 5 -7 58.74 14.55 2
3 -5 7 85.73 14.03 4
-3 -5 -7 65.68 15.78 6
-3 -5 -7 49.81 16.98 8
-2 5 -8 -0.86 10.2 2
-2 -5 -8 6.2 13.55 8
-2 -5 -8 5.14 10.64 9
-2 -5 -8 32.19 13.42 6
2 -5 8 12.86 10.31 4
1 5 9 37.76 12.04 3
-1 5 -9 34.87 12.29 2
-1 -5 -9 -17.12 12.2 8
-1 -5 -9 1.25 8.28 9
-1 -5 -9 -0.5 7.69 6
1 -5 9 8.38 11.44 4
0 5 -10 58.4 13.56 2
0 -5 -10 62.92 17.83 8
0 -5 10 51.65 13.02 4
0 -5 -10 64.48 14.47 6
0 -5 -10 44.6 13.13 9
1 5 -11 31.09 12.97 2
1 -5 -11 36.64 11.08 6
1 -5 -11 25.82 18.22 8
1 -5 -11 32.33 12.68 9
-1 -5 11 34.65 10.68 4
-2 5 12 39.04 16.76 4
2 5 -12 68.27 14.49 2
2 -5 -12 67.8 21.35 8
2 -5 -12 80.07 13.77 9
-2 -5 12 56.23 12.54 4
3 5 -13 83.4 16.57 2
-3 5 13 100.99 15.52 1
-3 5 13 93.38 22.16 4
-3 -5 13 124.35 17.2 4
3 -5 -13 92.01 24.59 8
3 -5 -13 128.81 16.4 3
3 -5 -13 124.28 19.29 9
-4 5 14 118.08 23.31 4
4 5 -14 132.86 17.25 2
-4 5 14 178.41 20.03 1
4 -5 -14 84.16 23.61 8
-4 -5 14 152.12 21.63 4
4 -5 -14 150.8 21.79 9
4 -5 -14 140.09 18.37 3
5 6 5 -7.35 9.72 3
-5 6 -5 12.55 15.27 2
5 -6 5 -18 16.27 4
-5 -6 -5 26.18 17.05 6
-4 6 -6 18.02 12.89 2
4 6 6 -19.66 12.89 3
4 -6 6 -13.21 14.38 4
-4 -6 -6 21.89 16.88 6
3 6 7 359.55 27.17 3
-3 6 -7 377.58 29.29 2
-3 -6 -7 319.11 30.03 6
3 -6 7 350.43 31.1 4
2 6 8 2.57 8.09 3
-2 6 -8 16.45 11.24 2
2 -6 8 -1.61 13.04 4
-2 -6 -8 -2.27 11.64 9
-2 -6 -8 6.48 10.19 6
-1 6 -9 51.86 14.37 2
1 6 9 43.54 13.21 3
-1 -6 -9 54.45 15.89 6
-1 -6 -9 48.74 19.6 8
-1 -6 -9 82.91 15.27 9
0 6 -10 -16.64 12.65 2
0 -6 -10 6.53 17.47 8
0 -6 10 1.82 12.86 4
0 -6 -10 3.93 9.06 6
0 -6 -10 -2.88 8.88 9
1 6 -11 171.57 20.2 2
-1 -6 11 142.2 18.15 4
1 -6 -11 143.99 26.46 8
1 -6 -11 120.96 16.98 6
1 -6 -11 139.16 19.57 9
2 6 -12 17.15 12.77 2
2 -6 -12 -0.32 18.24 8
-2 -6 12 18.77 11.02 4
2 -6 -12 -10.06 12.88 9
-3 6 13 17.04 18.42 4
-3 6 13 17.91 10.14 1
-3 -6 13 35.68 12.78 4
3 -6 -13 70.2 17.86 9
3 -6 -13 20.55 16.11 8
4 7 6 37.48 15.4 3
-4 -7 -6 38.37 19.37 6
4 -7 6 43.23 19.17 4
3 7 7 -11.92 13.11 3
3 -7 7 -11.42 15.78 4
-3 -7 -7 7.27 10.98 6
2 7 8 53.89 15.05 3
-2 -7 -8 81.74 18.2 9
-2 -7 -8 92.71 16.89 6
2 -7 8 94.81 19.47 4
1 7 9 17.42 11.37 3
1 -7 9 24.24 16.17 4
-1 -7 -9 12.92 14.11 9
-1 -7 -9 -0.51 11.15 6
0 7 10 259.56 22.92 3
0 -7 -10 204.67 25.58 6
0 -7 10 319.08 27.88 4
0 -7 -10 228.32 24.8 9
1 -7 -11 -10.38 16.08 6
1 -7 -11 3.87 10.28 9
1 -7 -11 4.16 18.11 8
-1 -7 11 -32.59 16.46 4
-2 -7 12 9.75 15.83 4
2 -7 -12 -23.68 16.45 9
2 -7 -12 16.57 21.27 8
8 0 3 1.06 12.83 3
-8 0 -3 13.29 15.89 5
7 0 4 114.35 15.27 3
-7 0 -4 95.2 17.48 6
-7 0 -4 144.64 20.25 5
-7 0 -4 89.98 20.03 2
-6 0 -5 -17.49 12.83 6
-6 0 -5 12.63 12.46 5
-6 0 -5 10.63 13.97 2
6 0 5 25.56 12.24 3
5 0 6 -4.89 6.91 3
-5 0 -6 10.4 11.21 5
-5 0 -6 -27.29 12.94 2
-5 0 -6 0.07 7.56 6
-4 0 -7 -1.84 8.29 5
-4 0 -7 -20.91 11.63 6
-4 0 -7 8.02 9.83 2
4 0 7 1.04 6.17 3
-3 0 -8 10.76 8.51 5
-3 0 -8 15.15 10.4 6
-3 0 -8 13.16 12.4 8
-3 0 -8 18.07 11.32 2
3 0 8 18.38 7.14 3
3 0 8 3.15 8.21 4
-2 0 -9 -13.43 7.95 6
-2 0 -9 -12.92 10.93 8
-2 0 -9 -7.06 9.71 2
2 0 9 -7.13 8.58 4
2 0 9 9.79 8.32 3
-1 0 -10 771.88 52.39 8
-1 0 -10 737.21 43.54 6
1 0 10 738.66 42.83 4
-1 0 -10 733.33 39.52 2
1 0 10 730.79 38.32 3
0 0 -11 -16.2 9.9 2
0 0 -11 8.76 7.38 6
0 0 -11 7.39 12.48 8
0 0 11 -1.67 7.32 4
1 0 -12 918.03 50.32 6
1 0 -12 943.76 61.04 8
1 0 -12 876.4 45.1 2
-1 0 12 881.48 51.72 4
2 0 -13 -14.98 10.86 3
2 0 -13 -10.03 10.6 6
-2 0 13 3.94 12.22 4
2 0 -13 1.17 9.34 8
-3 0 14 125.31 18.42 4
3 0 -14 105.82 16.58 3
3 0 -14 138.93 24.37 8
4 0 -15 6.05 11.53 8
4 0 -15 20.25 13.09 3
-4 0 15 -35.86 18.2 4
-5 0 16 219.32 29.96 4
5 0 -16 303.85 25.47 3
5 0 -16 355.5 29.42 9
-8 1 -3 0.5 11.74 5
8 1 3 -10.56 11.2 3
-8 -1 -3 34.64 16.75 5
8 -1 3 -7.95 14.39 3
-7 1 -4 16.07 15.37 6
-7 1 -4 -11.14 15.44 2
-7 1 -4 14.11 13.76 5
7 1 4 15.94 12.61 3
7 -1 4 26.79 13.48 3
-7 -1 -4 -4.79 10.57 5
-7 -1 -4 28.58 15.3 6
-6 1 -5 70.53 16.44 2
6 1 5 90.96 15.27 3
-6 1 -5 85.85 17.32 6
-6 1 -5 88.95 14.47 5
6 -1 5 113.65 15.43 3
-6 -1 -5 94.61 17.34 6
-6 -1 -5 58.86 15.34 5
-5 1 -6 11.89 8.75 5
5 1 6 3.28 9.39 3
-5 1 -6 -21.04 12.73 6
-5 1 -6 -0.42 11.85 2
-5 -1 -6 6.19 11.81 6
-5 -1 -6 11.42 12.23 2
-5 -1 -6 -7.04 9.58 5
5 -1 6 -9.9 9.21 3
4 1 7 6.36 7.06 3
-4 1 -7 3.99 10.2 5
-4 1 -7 9.3 9.96 2
-4 1 -7 -12.59 11.83 6
-4 -1 -7 -15.68 11.1 5
-4 -1 -7 -12.98 11.88 2
-4 -1 -7 -8.77 10.92 6
4 -1 7 -7.72 9.37 4
4 -1 7 5.72 8.41 3
-3 1 -8 179.18 17.37 2
-3 1 -8 146.83 17.79 5
3 1 8 189.22 16.07 3
-3 1 -8 155 19 6
-3 -1 -8 165.74 23.32 8
3 -1 8 172.9 17.18 4
-3 -1 -8 174.15 18.88 6
-3 -1 -8 164.42 18.61 2
3 -1 8 174.97 15.58 3
2 1 9 449.61 27.01 3
-2 1 -9 456.67 36.89 8
-2 1 -9 423.51 28.46 2
-2 1 -9 398.49 30.15 6
2 1 9 432.34 28.64 4
-2 -1 -9 373.01 27.15 2
-2 -1 -9 410.31 30.43 6
2 -1 9 419.33 27.98 4
2 -1 9 386.15 24.58 3
-2 -1 -9 507.21 37.44 8
-1 1 -10 192.83 18.47 2
-1 1 -10 183.62 22.73 8
-1 1 -10 195.26 20.19 6
1 1 10 208.68 17.2 3
1 1 10 203.76 19.54 4
-1 -1 -10 199.68 18.02 2
-1 -1 -10 182.87 18.93 6
1 -1 10 182.52 16.02 3
1 -1 10 198.25 19.41 4
-1 -1 -10 211.12 23.7 8
0 1 11 -13.24 11.19 4
0 1 -11 2.19 9.14 6
0 1 -11 14.32 7.46 2
0 1 -11 18.77 11.81 8
0 -1 -11 25.7 10.52 9
0 -1 -11 8.92 12.65 8
0 -1 -11 11.24 8.58 2
0 -1 11 17.72 10.67 4
0 -1 -11 14.92 9.89 6
1 1 -12 86.4 17.47 8
1 1 -12 51.33 11.45 2
1 1 -12 80.84 13.68 6
-1 1 12 104.77 17.38 4
1 -1 -12 75.19 10.61 2
1 -1 -12 80.62 18.3 8
-1 -1 12 59.12 14.75 4
1 -1 -12 85.37 13.94 6
1 -1 -12 98.76 14.27 9
2 1 -13 1225.41 58.51 2
2 1 -13 1302.39 60.5 3
-2 1 13 1296.77 69.78 4
2 1 -13 1181.66 77.81 8
2 -1 -13 1259.14 60.89 9
2 -1 -13 1286.33 61.37 3
2 -1 -13 1231.03 64.46 6
-2 -1 13 1329.45 69.59 4
2 -1 -13 1404.71 83.72 8
3 1 -14 -1.05 9.65 8
3 1 -14 4.93 11.23 3
-3 1 14 -7.13 13.99 4
3 -1 -14 -1.09 8.2 3
3 -1 -14 9.8 12.59 8
-3 -1 14 -6.48 13.79 4
-4 1 15 181.09 23.52 4
4 1 -15 242.53 22.37 3
4 -1 -15 215.09 20.38 3
-4 -1 15 231.09 24.91 4
4 -1 -15 225.46 22.07 9
5 1 -16 58.41 16.11 3
-5 1 16 34.14 15.04 4
5 -1 -16 20.22 14.42 8
5 -1 -16 24.66 12.48 9
-5 -1 16 32.39 20.42 4
5 -1 -16 40.55 15.42 3
-7 2 -4 -9.72 14.72 5
7 2 4 3.64 9.43 3
-7 2 -4 -18.86 12.1 2
-7 -2 -4 32.27 15.88 6
-7 -2 -4 -24.62 13.87 5
-6 2 -5 110.24 16.47 5
-6 2 -5 129.34 19.63 2
6 2 5 63.07 14.74 3
-6 2 -5 99.39 15.33 6
-6 -2 -5 109.82 19.27 6
-6 -2 -5 91.16 17.2 5
5 2 6 104.03 13.84 3
-5 2 -6 83.24 15.7 2
-5 2 -6 115.42 17.64 6
-5 2 -6 128.08 17.42 5
-5 -2 -6 99.3 17.47 6
-5 -2 -6 97.55 16.07 5
4 2 7 404.02 28.28 3
-4 2 -7 451.94 31.37 5
-4 2 -7 439.47 30.89 2
-4 2 -7 465 31.93 6
4 -2 7 437.42 30.27 4
-4 -2 -7 481.28 32.49 2
-4 -2 -7 470.92 38.18 8
-4 -2 -7 429.99 30.92 5
-4 -2 -7 455.35 32.59 6
-3 2 -8 200.54 20.78 5
-3 2 -8 219.72 20.72 6
-3 2 -8 232.91 21.51 2
3 2 8 227.91 19.84 3
3 -2 8 237.16 20.77 4
-3 -2 -8 258.81 27.69 8
-3 -2 -8 241.59 22.05 6
-3 -2 -8 214.25 21.18 2
2 2 9 20.77 9.73 3
-2 2 -9 14.68 10.7 6
-2 2 -9 25.49 10.81 2
-2 -2 -9 28.63 11.44 6
-2 -2 -9 13.33 8.26 2
-2 -2 -9 28.47 13.46 8
-2 -2 -9 37.66 10.7 9
2 -2 9 8.53 7.43 4
-1 2 -10 138.14 20.33 8
1 2 10 117.23 15.64 4
1 2 10 110.59 13.46 3
-1 2 -10 118.17 15.34 2
-1 -2 -10 142.42 20.21 8
-1 -2 -10 136.91 14.38 9
-1 -2 -10 135.41 16.95 6
-1 -2 -10 103.37 13.21 2
1 -2 10 141.12 17.02 4
0 2 11 97.09 15.65 4
0 2 -11 67.64 14.98 8
0 2 -11 97.77 13.59 2
0 -2 -11 89.06 13.29 2
0 -2 -11 79.52 18.75 8
0 -2 11 99.38 13.76 4
0 -2 -11 82.99 13.68 6
0 -2 -11 55.02 11.76 9
1 2 -12 382.4 33.55 8
1 2 -12 413.88 27.43 2
-1 2 12 404.8 31.7 4
1 -2 -12 386.15 28.75 6
-1 -2 12 422.07 30.73 4
1 -2 -12 395.51 37.06 8
1 -2 -12 358.39 26.11 9
2 2 -13 -4.75 10.63 3
2 2 -13 0.69 9.75 2
-2 2 13 28.71 12.25 4
2 2 -13 25.17 13.03 8
2 -2 -13 39.07 12.76 6
2 -2 -13 22.8 8.83 9
2 -2 -13 15.52 11.61 3
2 -2 -13 19.91 13.09 8
-2 -2 13 29.77 13.85 4
-3 2 14 17.08 11.71 4
3 2 -14 19.89 13.7 8
3 2 -14 8.68 11.48 3
3 -2 -14 15.61 18.11 8
-3 -2 14 15.56 10.91 4
3 -2 -14 17.98 12.43 9
3 -2 -14 6.26 12.49 3
-4 2 15 41.06 19.75 4
4 -2 -15 10.35 12.5 3
4 -2 -15 66.86 14.96 9
-4 -2 15 55.82 18.5 4
4 -2 -15 23.18 15.33 8
-5 2 16 94.4 24.47 4
5 -2 -16 132.52 19.74 3
-5 -2 16 133.43 24.48 4
5 -2 -16 152.35 21.46 9
7 3 4 67.84 17.5 3
-7 -3 -4 86.64 15.45 5
-6 3 -5 63.43 15.99 5
-6 3 -5 76.97 15.69 2
6 3 5 61.53 14.33 3
-6 -3 -5 57.46 15.7 5
-6 -3 -5 33.14 16.36 6
5 3 6 64.45 13.98 3
-5 3 -6 42.11 13.65 5
-5 3 -6 47.67 14.89 2
-5 -3 -6 36.79 13.7 6
5 -3 6 38.64 11.29 4
-5 -3 -6 45.79 11.54 5
-4 3 -7 19.3 11.69 5
4 3 7 14.44 10.06 3
-4 3 -7 11.85 8.76 2
-4 -3 -7 5.3 14.1 8
-4 -3 -7 17.62 13.44 6
-4 -3 -7 24.61 12.44 5
4 -3 7 3.77 10.77 4
-3 3 -8 120.36 16.76 2
3 3 8 99.78 15.06 3
-3 -3 -8 138.38 18.25 6
-3 -3 -8 170.94 21.46 8
3 -3 8 131.05 17.5 4
2 3 9 383.56 26.45 3
-2 3 -9 421.44 28.91 2
-2 -3 -9 381.14 30.48 6
2 -3 9 395.84 28.66 4
-2 -3 -9 380.57 26.71 9
-2 -3 -9 440.1 37.92 8
-1 3 -10 176.03 18.75 2
1 3 10 178.47 18.75 3
-1 -3 -10 212.79 20.82 6
1 -3 10 242.24 22.14 4
-1 -3 -10 216.2 27.43 8
-1 -3 -10 208.61 18.44 9
0 3 -11 127.12 16.5 2
0 3 -11 123.03 19.67 8
0 3 11 124.93 17.49 4
0 -3 -11 89.85 14.01 9
0 -3 -11 129.1 17.22 6
0 -3 11 126.58 15.79 4
0 -3 -11 152.64 24.85 8
0 -3 -11 116.87 13.74 2
1 3 -12 6.77 12.75 8
-1 3 12 7.84 13.54 4
1 3 -12 27.34 8.99 2
1 -3 -12 20.28 11 6
1 -3 -12 31.88 17.04 8
-1 -3 12 36.3 13.44 4
1 -3 -12 19.85 10.97 9
2 3 -13 84.04 18.53 8
2 3 -13 82.8 12.36 2
-2 3 13 63.35 18.13 4
2 -3 -13 60.52 13.64 6
2 -3 -13 49.16 11.59 3
2 -3 -13 60.64 20.5 8
-2 -3 13 83.05 17.17 4
2 -3 -13 100.22 15.44 9
3 3 -14 98.54 15.92 2
-3 3 14 62.4 16.82 4
-3 -3 14 127.13 18.44 4
3 -3 -14 105.32 17.6 3
3 -3 -14 81.66 13.91 9
3 -3 -14 77.57 19.29 8
-4 3 15 28.29 20.16 4
4 -3 -15 34.5 19.47 8
-4 -3 15 42.01 14.19 4
4 -3 -15 43.05 15.36 3
4 -3 -15 10.67 10.13 9
-5 3 16 7.56 21.38 4
5 -3 -16 0.23 14.95 9
-5 -3 16 9.34 18.88 4
5 -3 -16 -9.13 15.16 8
5 -3 -16 6.43 14.36 3
-6 4 -5 9.53 14.06 5
6 4 5 9.83 9.9 3
-6 4 -5 31.4 15.53 2
-6 -4 -5 6.08 14.48 5
-6 -4 -5 14.75 16.18 6
6 -4 5 -1.02 14.33 4
-5 4 -6 10.51 13.73 2
-5 4 -6 28.35 13.75 5
5 4 6 -10.67 11.78 3
-5 -4 -6 8.21 14.58 6
-4 4 -7 124.93 16.38 5
-4 4 -7 144.4 17.14 2
4 4 7 134.38 17.83 3
-4 -4 -7 143.38 18.91 6
4 -4 7 175.72 20.91 4
-4 -4 -7 127.73 22.65 8
-3 4 -8 83.7 15.94 2
3 4 8 70.44 12.72 3
-3 -4 -8 88.51 16.91 6
-3 -4 -8 83.84 16.59 8
3 -4 8 78.53 15.23 4
-2 4 -9 -15.63 12.14 2
2 4 9 21.93 11.62 3
2 -4 9 -19.33 12.45 4
-2 -4 -9 -7.31 16.49 8
-2 -4 -9 -1.54 8.36 6
-2 -4 -9 10.46 10.78 9
1 4 10 7.46 7.94 3
-1 4 -10 13.61 11.68 2
-1 -4 -10 38.7 17.91 8
1 -4 10 3.01 11.39 4
-1 -4 -10 -0.24 9.79 9
-1 -4 -10 20.06 12.28 6
0 4 -11 450.91 30.47 2
0 -4 11 416.18 32.23 4
0 -4 -11 528.31 45.11 8
0 -4 -11 439.95 31.06 9
0 -4 -11 482 33.95 6
1 4 -12 131.82 16.12 2
1 -4 -12 88.5 16.75 6
1 -4 -12 131.49 25.92 8
-1 -4 12 113.19 17.06 4
1 -4 -12 124.86 15.48 9
-2 4 13 -2.84 16.24 4
2 4 -13 37.88 11.98 2
2 -4 -13 51.89 14.15 9
2 -4 -13 25.56 19.93 8
-2 -4 13 30.61 14.77 4
2 -4 -13 22.54 17.73 6
-3 4 14 13.1 18.67 4
3 4 -14 5.21 11.88 2
3 -4 -14 8.32 11.13 9
3 -4 -14 -12.04 14.25 8
3 -4 -14 -8.7 11.77 3
-3 -4 14 33.21 15.81 4
-4 4 15 36.65 23.2 4
-4 -4 15 88.81 21.1 4
4 -4 -15 69.71 22.32 8
4 -4 -15 97.66 16.07 3
4 -4 -15 85.87 15.98 9
-6 5 -5 14.59 15.66 5
6 5 5 40.14 15.78 3
-6 -5 -5 13.65 18.26 6
6 -5 5 6.91 18.45 4
5 5 6 30.42 11.1 3
-5 5 -6 19.24 13.62 2
-5 5 -6 19.5 14.36 5
-5 -5 -6 1.43 15.65 6
5 -5 6 41.92 13.48 4
-4 5 -7 6.28 13.24 5
4 5 7 48.33 14.16 3
-4 5 -7 39.97 15.31 2
4 -5 7 42.47 16.21 4
-4 -5 -7 15.13 11.27 6
3 5 8 89.46 15.77 3
-3 5 -8 94.88 14.97 2
-3 -5 -8 60.06 16.44 6
3 -5 8 97.8 16.8 4
-3 -5 -8 68.81 17.29 8
-2 5 -9 -4.41 9.65 2
2 5 9 8.62 8.94 3
-2 -5 -9 5.87 10.87 6
-2 -5 -9 -14.44 16.64 8
2 -5 9 -2.31 11.45 4
-2 -5 -9 -3.64 8.31 9
-1 5 -10 338.78 26.09 2
1 5 10 326.13 25.23 3
-1 -5 -10 314.43 28.81 6
-1 -5 -10 330.26 26.8 9
1 -5 10 356.21 30.03 4
-1 -5 -10 324.9 36.62 8
0 5 -11 14.19 13.21 2
0 -5 11 29.86 11.32 4
0 -5 -11 20.53 10.12 6
0 -5 -11 4.05 12.34 9
0 -5 -11 -21.77 18.72 8
1 5 -12 3.76 13.1 2
1 -5 -12 3.55 11.99 6
1 -5 -12 -16.01 19.55 8
-1 -5 12 11.06 13.66 4
1 -5 -12 1.55 12.02 9
2 5 -13 2.06 13.66 2
-2 5 13 8.69 16.68 4
2 -5 -13 19.21 11.26 9
2 -5 -13 30.14 21.02 8
-2 -5 13 0.97 13.43 4
3 5 -14 39.52 15.82 2
3 -5 -14 51.87 24.19 8
3 -5 -14 83.26 18.46 9
-3 -5 14 58.66 16.7 4
4 6 7 209.9 23.6 3
-4 -6 -7 210.28 27.28 6
4 -6 7 208.15 24.78 4
3 6 8 18.4 13.7 3
-3 -6 -8 25.4 15.32 6
3 -6 8 32.39 16.91 4
2 6 9 63.62 12.7 3
-2 -6 -9 38.54 16.3 6
2 -6 9 63.21 18.36 4
-2 -6 -9 63.94 16.57 9
1 6 10 13.9 9.66 3
-1 6 -10 0.86 10.2 2
-1 -6 -10 10.34 13.58 9
-1 -6 -10 4.86 14.33 8
-1 -6 -10 8.07 14 6
1 -6 10 31.72 15.14 4
0 6 11 115.81 15.68 3
0 -6 -11 111.84 19.86 6
0 -6 -11 129.09 19.7 9
0 -6 -11 81.13 24.45 8
0 -6 11 151.36 19.56 4
1 -6 -12 45.4 16.52 6
1 -6 -12 11.88 15.19 8
1 -6 -12 46.99 13.34 9
-1 -6 12 -0.48 13.91 4
2 -6 -13 18.56 22.65 8
2 -6 -13 28.16 16.26 9
-2 -6 13 19.5 16.18 4
2 7 9 -0.99 14.1 3
2 -7 9 -10.01 13.22 4
-2 -7 -9 5.18 12.16 6
-2 -7 -9 33.91 16.61 9
1 7 10 141.95 20.93 3
-1 -7 -10 169.4 22.58 9
-1 -7 -10 121.8 22.09 6
1 -7 10 153.98 23.57 4
0 7 11 128.98 20.16 3
0 -7 -11 99.35 17.14 9
0 -7 11 128.34 22.64 4
0 -7 -11 86.78 17 6
-7 0 -5 14.82 15.94 5
7 0 5 -14.28 14.95 3
-7 0 -5 -34.26 18.02 6
-6 0 -6 21.54 16.67 2
-6 0 -6 4.45 14.69 6
-6 0 -6 -0.53 13.88 5
6 0 6 11.12 9.42 3
-5 0 -7 -26.03 14.36 2
5 0 7 11.92 11.27 3
-5 0 -7 6.12 12.83 5
-5 0 -7 6.2 9.36 6
-4 0 -8 73.87 16.21 2
-4 0 -8 88.75 15.42 5
4 0 8 77.1 12.98 3
-4 0 -8 81.73 16.62 6
-3 0 -9 -13.1 14.28 8
-3 0 -9 -8.69 11.25 2
3 0 9 -16.58 7.49 3
-3 0 -9 -20.43 12.87 6
2 0 10 135.74 15.37 4
-2 0 -10 139.44 16.98 6
-2 0 -10 150 23.28 8
-2 0 -10 118.38 16.98 2
2 0 10 120.14 13.7 3
1 0 11 -0.45 7.65 4
-1 0 -11 7.13 10.53 8
-1 0 -11 -9.9 10.7 6
1 0 11 1.06 8.37 3
-1 0 -11 -4.48 7.52 2
0 0 -12 255.49 23.09 6
0 0 12 253.68 23.34 4
0 0 -12 244.34 21.43 2
0 0 -12 289.93 30.93 8
1 0 -13 6.66 7.74 2
1 0 -13 -9.77 16.04 8
-1 0 13 -2.08 11.55 4
1 0 -13 -24.22 12.89 6
2 0 -14 83.73 13.58 3
2 0 -14 65.63 20.17 8
-2 0 14 78.32 18.64 4
2 0 -14 61.94 14.46 6
3 0 -15 15.5 13.74 8
3 0 -15 -15.56 14 3
-3 0 15 -10.04 15.93 4
4 0 -16 250.38 24.82 3
-4 0 16 227.09 30.74 4
-7 1 -5 95.14 20 5
-7 1 -5 90.11 19.08 6
7 1 5 90.99 18.37 3
7 -1 5 77.05 13.95 3
-7 -1 -5 61.04 19.25 6
-7 -1 -5 66.09 17.4 5
6 1 6 -18.51 9.9 3
-6 1 -6 -12.76 11.21 2
-6 1 -6 -10.69 12.49 5
-6 1 -6 0.35 11.08 6
6 -1 6 1.77 11.28 3
-6 -1 -6 13.05 12 5
-6 -1 -6 -1.55 13.88 6
5 1 7 22.93 12.29 3
-5 1 -7 40.61 14.04 5
-5 1 -7 49.73 15.87 6
-5 -1 -7 30.74 11.2 5
-5 -1 -7 40.42 15.9 2
5 -1 7 13.25 8.27 3
-4 1 -8 3.15 12.52 5
-4 1 -8 41.32 11.87 6
4 1 8 46.05 11.39 3
-4 1 -8 34.19 13.41 2
-4 -1 -8 32.92 13.62 5
-4 -1 -8 19.23 14.04 2
4 -1 8 19.27 10.29 3
-4 -1 -8 33.22 14.29 6
3 1 9 91.71 13.07 3
-3 1 -9 73.93 13.88 2
-3 1 -9 108.96 15.94 6
-3 -1 -9 83.64 15.9 6
-3 -1 -9 70.95 19.52 8
3 -1 9 82.27 14.32 4
3 -1 9 93.65 12.98 3
-3 -1 -9 65.34 12.92 2
-2 1 -10 154.28 21.36 8
2 1 10 142.92 16.8 3
-2 1 -10 166.43 18.4 2
-2 1 -10 146.18 19.52 6
-2 -1 -10 164.29 19.32 6
2 -1 10 148.99 18.02 4
-2 -1 -10 159.39 18.96 2
-2 -1 -10 181.98 24.98 8
2 -1 10 156.97 15.24 3
-1 1 -11 3.01 11.08 6
-1 1 -11 14.93 11.54 2
1 1 11 -16.59 10.54 3
-1 1 -11 -7.87 13.51 8
1 1 11 -8.79 11.43 4
-1 -1 -11 -7 11.45 6
-1 -1 -11 -6.48 11.08 8
1 -1 11 7.05 6.43 3
1 -1 11 -3.58 9.38 4
-1 -1 -11 4.58 10.82 2
0 1 -12 -5.9 11.64 6
0 1 12 -6 11.95 4
0 1 -12 26.64 11.75 2
0 1 -12 6.89 10.09 8
0 -1 -12 3.6 10.55 2
0 -1 -12 12.1 11.61 6
0 -1 12 2.52 7.95 4
0 -1 -12 -21.31 16.04 8
1 1 -13 268.18 23.32 6
1 1 -13 322.07 24.27 2
1 1 -13 291.81 30.9 8
-1 1 13 293.46 28.11 4
-1 -1 13 263.5 27 4
1 -1 -13 280.77 23.99 6
1 -1 -13 287.89 32.5 8
2 1 -14 7.73 11.36 8
-2 1 14 -4.8 14.59 4
2 -1 -14 -13.47 18.25 8
-2 -1 14 -28.61 15.38 4
2 -1 -14 12.64 10.78 6
-3 1 15 -0.41 15.11 4
3 1 -15 -11.54 17.11 8
3 1 -15 21.76 13.69 3
3 -1 -15 -8.55 16.36 8
3 -1 -15 10.97 11.83 3
-3 -1 15 9.99 11.91 4
4 1 -16 5.85 18.25 8
-4 1 16 18.94 18.64 4
4 1 -16 8.42 14.14 3
-4 -1 16 18.5 18.02 4
4 -1 -16 -9.23 11.54 3
4 -1 -16 14.44 19.63 8
-7 2 -5 15.06 16.17 5
7 2 5 14.92 15.55 3
-7 -2 -5 1.97 17.25 6
-7 -2 -5 31.08 12.96 5
-6 2 -6 54.71 16.7 5
-6 2 -6 104.74 20.04 2
6 2 6 62.21 15.21 3
-6 -2 -6 57.01 17.65 6
-6 -2 -6 77.29 17.73 5
-5 2 -7 57.49 16.28 6
5 2 7 21.1 11.64 3
-5 2 -7 41.62 15.19 2
-5 2 -7 50.66 15.46 5
-5 -2 -7 21.65 14.36 5
-5 -2 -7 20.37 10.94 6
4 2 8 224.05 21.86 3
-4 2 -8 240.19 23.89 5
-4 2 -8 255.56 25.54 6
-4 2 -8 324.18 26.45 2
4 -2 8 224.67 21.99 4
-4 -2 -8 262.47 25.27 2
-4 -2 -8 268.62 30.46 8
-4 -2 -8 288.34 27.23 6
-3 2 -9 -0.22 12.36 6
-3 2 -9 -10.39 11.4 2
3 2 9 -13.35 10.73 3
-3 -2 -9 5.57 10.98 8
3 -2 9 0.31 7.53 4
-3 -2 -9 19.23 13.05 2
-3 -2 -9 21.56 13.33 6
2 2 10 -2.74 9.82 3
-2 2 -10 2.24 11.9 2
-2 2 -10 0.75 8.13 6
-2 -2 -10 0.22 9.87 6
-2 -2 -10 0.31 11.26 2
-2 -2 -10 8.74 11.41 8
2 -2 10 -0.15 7.48 4
-1 2 -11 194.05 23.45 8
-1 2 -11 188.8 19.74 2
1 2 11 187.51 19.53 3
-1 -2 -11 166.05 19.39 2
1 -2 11 175.18 20.04 4
-1 -2 -11 214.28 26.95 8
-1 -2 -11 172.42 20.63 6
0 2 -12 58.91 17.73 8
0 2 -12 83.05 14.77 2
0 -2 -12 45.63 13.93 6
0 -2 -12 64.77 13.06 2
0 -2 -12 34.87 14.92 9
0 -2 -12 71.29 20.9 8
0 -2 12 23.92 12.78 4
1 2 -13 5.94 14.12 8
1 2 -13 33.25 12.75 2
-1 2 13 17.09 14.49 4
1 -2 -13 14.1 12.78 9
1 -2 -13 -2.37 17.28 8
-1 -2 13 14.25 9.96 4
1 -2 -13 14.33 9.47 6
-2 2 14 97.87 20.85 4
2 2 -14 147.79 18.07 2
2 2 -14 155.84 22.81 8
-2 -2 14 168.43 23.14 4
2 -2 -14 117.16 19.61 6
2 -2 -14 119.98 25.85 8
2 -2 -14 120.05 17.47 9
-3 2 15 37.67 15.09 4
3 2 -15 18.88 18.24 8
-3 -2 15 46.68 14.3 4
3 -2 -15 49.56 15.76 3
3 -2 -15 14.18 11.02 9
3 -2 -15 55 19.39 8
-4 2 16 82.9 23.28 4
4 -2 -16 124.47 17.47 9
4 -2 -16 118 20.58 3
-4 -2 16 150.4 25.52 4
6 3 6 15.5 13.5 3
-6 3 -6 -6.63 14.86 5
-6 -3 -6 -2.27 13.83 5
-6 -3 -6 5.26 14.08 6
-5 3 -7 -27.71 14.52 2
-5 3 -7 9.19 13.11 5
5 3 7 4.85 12.69 3
5 -3 7 -3.96 13.94 4
-5 -3 -7 14.95 14.82 6
-4 3 -8 82.3 15.01 2
-4 3 -8 90.28 16.9 5
4 3 8 125.55 15.95 3
4 -3 8 103.53 15.62 4
-4 -3 -8 100.95 16.61 6
-4 -3 -8 95.49 18.83 8
-3 3 -9 117.81 15.74 2
3 3 9 87.94 15.55 3
-3 -3 -9 100.2 21.67 8
-3 -3 -9 95.67 16.02 6
3 -3 9 68.57 13.16 4
2 3 10 135.24 17.86 3
-2 3 -10 131.86 16.56 2
-2 -3 -10 150.91 25.38 8
-2 -3 -10 157.58 19.66 6
-2 -3 -10 154.55 16.14 9
2 -3 10 120.78 16.58 4
1 3 11 52.86 11.5 3
-1 3 -11 25.37 12.68 2
-1 -3 -11 30.69 18.83 8
-1 -3 -11 45.02 10.39 9
1 -3 11 26.21 10.65 4
-1 -3 -11 35.48 14.34 6
0 3 -12 128.58 21.59 8
0 3 -12 121.06 15.85 2
0 -3 -12 123.2 24.65 8
0 -3 12 156.31 20.08 4
0 -3 -12 134.49 19.34 6
0 -3 -12 152.02 18.09 9
-1 3 13 56.43 18.69 4
1 3 -13 46.96 13.32 2
1 3 -13 75.97 18.79 8
1 -3 -13 57.19 18.66 8
1 -3 -13 40.44 11.8 9
-1 -3 13 70.62 13.87 4
1 -3 -13 62.83 13 6
-2 3 14 278.46 31.82 4
2 3 -14 336.09 34.12 8
2 3 -14 351.54 26.38 2
2 -3 -14 386.56 27.71 9
-2 -3 14 392.16 32.95 4
2 -3 -14 417.19 42.03 8
-3 3 15 -9.14 17.81 4
3 -3 -15 29.94 14.19 9
3 -3 -15 15.57 13.59 3
-3 -3 15 10.54 12.17 4
3 -3 -15 -7.46 19.1 8
-4 3 16 -16.13 23.05 4
4 -3 -16 -33.39 22.79 8
4 -3 -16 30.03 16.91 3
-4 -3 16 8.74 20.06 4
4 -3 -16 1.24 15.12 9
-6 4 -6 9.92 15.95 5
6 4 6 -32.72 17.29 3
-6 -4 -6 2.1 12.4 6
5 4 7 16.89 13.73 3
-5 4 -7 10.32 15.16 5
-5 -4 -7 -5.04 16.3 6
5 -4 7 -23.34 14.61 4
-4 4 -8 -3.9 9.83 5
4 4 8 -6.55 12.28 3
-4 4 -8 9.8 10.61 2
-4 -4 -8 4.95 14.58 8
4 -4 8 -0.59 13.51 4
-4 -4 -8 -3.77 13.54 6
-3 4 -9 176.89 19.13 2
3 4 9 135.73 16.41 3
-3 -4 -9 114.81 20.17 6
-3 -4 -9 134.6 24.54 8
3 -4 9 131.3 20.14 4
2 4 10 20.51 13.49 3
-2 4 -10 24.54 10.51 2
-2 -4 -10 50.56 21.14 8
-2 -4 -10 12.53 9.29 9
2 -4 10 7.67 12.88 4
-2 -4 -10 12.46 12.06 6
-1 4 -11 602.75 38.85 2
1 4 11 620.06 38.2 3
1 -4 11 626.21 41.55 4
-1 -4 -11 568.98 37.05 9
-1 -4 -11 607.15 41.98 6
-1 -4 -11 613.28 51.29 8
0 4 -12 50.11 12.6 2
0 -4 -12 71.53 19.67 8
0 -4 -12 63.97 13.49 9
0 -4 -12 46.71 15.31 6
0 -4 12 57.08 15.13 4
1 4 -13 141.18 19.05 2
1 -4 -13 127.27 24.54 8
-1 -4 13 154.27 21.3 4
1 -4 -13 114.86 16.21 9
1 -4 -13 146.92 20.4 6
-2 4 14 23.69 19.53 4
2 4 -14 20.32 11.03 2
2 -4 -14 49.47 22.22 8
2 -4 -14 31.84 15.32 9
-2 -4 14 8.96 11.88 4
-3 4 15 26.95 22.92 4
-3 -4 15 59.11 19.87 4
3 -4 -15 29.56 22.05 8
3 -4 -15 55.81 15.99 9
4 5 8 133.74 19.75 3
-4 -5 -8 94.63 17.97 6
4 -5 8 149.91 22.98 4
3 5 9 -4.65 12.97 3
-3 -5 -9 2.44 14.02 6
3 -5 9 15.36 15.84 4
-3 -5 -9 -4.78 16.44 8
2 5 10 73.99 16.54 3
-2 -5 -10 91.51 16.61 6
-2 -5 -10 78.56 23.72 8
-2 -5 -10 124.19 18.72 9
2 -5 10 97.77 18.19 4
-1 5 -11 6.1 13.26 2
1 5 11 -5.86 13.25 3
-1 -5 -11 16.15 12.97 9
1 -5 11 9.23 14.8 4
-1 -5 -11 3.11 19 8
-1 -5 -11 49.02 16.62 6
0 -5 -12 37.6 14.38 6
0 -5 -12 103.19 17.33 9
0 -5 12 65.58 16.97 4
0 -5 -12 61.77 25.3 8
1 -5 -13 108.93 20.33 6
1 -5 -13 95.91 25.91 8
-1 -5 13 105.77 17.13 4
1 -5 -13 79.6 17.59 9
-2 -5 14 279.24 29.57 4
2 -5 -14 281.29 25.63 9
3 6 9 21.17 15.75 3
3 -6 9 2.83 16.34 4
-3 -6 -9 -0.02 15.88 6
2 6 10 11.96 15.72 3
-2 -6 -10 41.77 18.16 6
-2 -6 -10 31.63 14.33 9
2 -6 10 43.01 18.91 4
1 6 11 130.28 20.99 3
1 -6 11 78.02 20.15 4
-1 -6 -11 131.69 21.71 6
-1 -6 -11 67.96 27.14 8
-1 -6 -11 143.25 20.18 9
0 6 12 10.44 14.87 3
0 -6 -12 22.78 16.52 6
0 -6 -12 11.82 20.67 8
0 -6 12 -2.73 15.85 4
0 -6 -12 -2.26 15.08 9
-6 0 -7 -5.03 15.8 5
-6 0 -7 -17.57 17.2 6
6 0 7 -12.82 14.24 3
-5 0 -8 12.43 15.29 5
-5 0 -8 13.46 11.41 6
5 0 8 8.07 12.76 3
-4 0 -9 24.95 15.97 6
4 0 9 12.43 10.93 3
-4 0 -9 -11.4 11.21 2
-3 0 -10 331.41 29.02 6
-3 0 -10 298.51 31.17 8
-3 0 -10 285.05 26.88 2
3 0 10 271.56 22.7 3
-2 0 -11 2.92 12.29 6
2 0 11 5.86 12.3 4
-2 0 -11 6.26 9.64 2
2 0 11 17.23 11.37 3
-2 0 -11 11.12 16.35 8
-1 0 -12 638.38 41.97 6
-1 0 -12 696.21 52.13 8
1 0 12 624.05 42.12 4
-1 0 -12 617.16 37.95 2
1 0 12 623.76 36.35 3
0 0 13 8.5 11.72 4
0 0 -13 0.21 8.83 6
0 0 -13 4.9 9.04 2
0 0 -13 -6.27 17.3 8
-1 0 14 2.13 10.73 4
1 0 -14 -6.55 17.64 8
1 0 -14 -5.55 12.69 6
2 0 -15 2.68 17.43 6
2 0 -15 -2.28 15.3 8
-2 0 15 10.09 12.45 4
3 0 -16 4.25 19.98 8
3 0 -16 49.95 17.34 3
-3 0 16 38.3 18.66 4
6 1 7 22.67 14.81 3
-6 1 -7 23.39 17.5 6
-6 1 -7 32.31 16.96 5
-6 -1 -7 13.25 16.74 6
-5 1 -8 15.16 14.92 5
-5 1 -8 -10.52 10.97 6
5 1 8 -18.13 13.04 3
-5 -1 -8 12.42 11.29 5
-5 -1 -8 13.47 11.47 6
-4 1 -9 233.95 25.1 2
4 1 9 235.08 20.99 3
-4 1 -9 233.5 25.81 6
-4 -1 -9 224.78 25.15 6
-4 -1 -9 257.64 23.72 2
-3 1 -10 -0.13 9.07 6
-3 1 -10 19.4 14.24 2
3 -1 10 -17.29 12.5 4
-3 -1 -10 10.6 14.75 2
-3 -1 -10 -7.48 12.53 6
-3 -1 -10 -2.76 13.14 8
-2 1 -11 4.73 15.48 8
-2 1 -11 27.56 14.64 6
-2 1 -11 30 12.77 2
2 1 11 53.54 11.35 3
-2 -1 -11 42.58 14.73 2
-2 -1 -11 60.6 20.06 8
2 -1 11 62.25 14.83 4
-2 -1 -11 34.35 14.18 6
-1 1 -12 -6.04 11.43 2
-1 1 -12 -4.06 9.38 6
-1 1 -12 0.18 11.07 8
1 1 12 -5.79 13.22 4
1 1 12 21.03 12.24 3
1 -1 12 -16.12 9.71 3
1 -1 12 -8.63 12.6 4
-1 -1 -12 -33.77 14.26 2
-1 -1 -12 10.72 14.76 8
-1 -1 -12 15.11 10.66 6
0 1 -13 205.16 27.19 8
0 1 -13 186.66 21.27 6
0 1 13 175.19 23.35 4
0 1 -13 258.56 23.55 2
0 -1 13 174.17 22.81 4
0 -1 -13 164.86 20.3 2
0 -1 -13 237.16 22.4 6
0 -1 -13 211.92 30.42 8
1 1 -14 13.6 9.82 2
1 1 -14 14.28 14.56 8
-1 1 14 -10.07 11.49 4
1 -1 -14 15.35 18.97 8
1 -1 -14 -0.19 13.46 6
-1 -1 14 10.21 15.15 4
2 1 -15 16.02 17.13 8
-2 1 15 11.47 16.11 4
-2 -1 15 18.64 17.42 4
2 -1 -15 -1.23 20.74 6
2 -1 -15 28.17 17.82 8
3 1 -16 26.91 19.91 8
3 1 -16 23.99 21.76 3
-3 1 16 42.73 22.13 4
-3 -1 16 37.54 18.92 4
3 -1 -16 27.87 23 8
3 -1 -16 68.03 18.12 3
6 2 7 3.45 10.89 3
-6 2 -7 25.7 17.35 5
-6 -2 -7 -23.09 17.28 5
-6 -2 -7 -12.05 12.84 6
-5 2 -8 91.62 20.4 5
5 2 8 71.33 16.67 3
-5 -2 -8 110.45 20.52 5
-5 -2 -8 60.7 18.84 6
-4 2 -9 16.16 11.5 2
-4 2 -9 -0.96 10.01 6
4 2 9 -20.23 12.88 3
-4 -2 -9 -23.09 18.28 8
-4 -2 -9 17.17 12.78 2
-4 -2 -9 -4.9 10.59 6
3 2 10 45.86 11.46 3
-3 2 -10 46.13 15.58 2
-3 2 -10 57.91 13.48 6
-3 -2 -10 50.1 20.37 8
-3 -2 -10 33.36 16.1 2
-3 -2 -10 43.07 12.71 6
3 -2 10 55.56 12.58 4
-2 2 -11 -17.25 14.82 2
2 2 11 5.34 12.11 3
-2 -2 -11 20.63 15.09 6
2 -2 11 -7.3 10.6 4
-2 -2 -11 7.76 14.12 2
-2 -2 -11 -15.52 17.06 8
-1 2 -12 132.99 23.49 8
1 2 12 111.88 17.34 3
-1 2 -12 137.21 18.13 2
-1 -2 -12 107.67 24.13 8
-1 -2 -12 88.55 16.02 2
1 -2 12 128.81 18.24 4
-1 -2 -12 95.28 16.09 6
0 2 -13 34.03 17.9 8
0 2 13 23.35 13.44 4
0 2 -13 41.91 11.58 2
0 -2 13 38.8 12.22 4
0 -2 -13 32.11 11.66 6
0 -2 -13 48.96 16.87 8
1 2 -14 21.39 10.82 2
-1 2 14 12.48 17.56 4
1 2 -14 33.39 18.22 8
1 -2 -14 24.38 16.34 8
-1 -2 14 22.89 15.34 4
1 -2 -14 50.57 15.92 6
-2 2 15 98.53 21.53 4
2 2 -15 110.73 22.09 8
2 -2 -15 117.09 28.16 8
-2 -2 15 123.41 23.41 4
3 2 -16 29.94 31.41 8
-3 2 16 56.31 24.72 4
-3 -2 16 69.53 20.88 4
3 -2 -16 38.99 22.51 8
5 3 8 -44.69 16.55 3
-5 3 -8 -16.83 16.7 5
-5 -3 -8 3.74 11.77 6
4 3 9 150.99 20.03 3
4 -3 9 129.49 20.61 4
-4 -3 -9 145.71 22.77 6
-4 -3 -9 169.66 28.43 8
-3 3 -10 -1.41 10.49 2
3 3 10 1.35 8.99 3
3 -3 10 13.35 10.44 4
-3 -3 -10 -0.13 14.14 6
-3 -3 -10 5.56 18.63 8
-2 3 -11 35.15 16.01 2
-2 -3 -11 38.97 13.03 6
-2 -3 -11 21.66 20.18 8
1 3 12 230.35 23.38 3
-1 3 -12 239.28 23.35 2
-1 -3 -12 185.53 24.43 6
-1 -3 -12 260.26 32.94 8
1 -3 12 219.61 23.62 4
0 3 -13 54.27 16.68 2
0 -3 -13 69.03 20.59 9
0 -3 13 44.41 13.11 4
0 -3 -13 15.49 14.8 6
0 -3 -13 38.08 22.5 8
1 3 -14 133.69 20.4 2
1 3 -14 138.67 25.14 8
-1 -3 14 142.12 22.68 4
1 -3 -14 166.69 22.84 9
1 -3 -14 161.26 21.29 6
1 -3 -14 116.65 28.99 8
-2 3 15 10.82 15.56 4
2 3 -15 -8.96 22.33 8
2 -3 -15 3.78 16.37 8
-2 -3 15 -0.57 16.8 4
2 -3 -15 16.5 18.2 9
4 4 9 40.79 16.18 3
4 -4 9 55.36 17.86 4
-4 -4 -9 34.19 18.76 6
3 4 10 51.45 15.15 3
3 -4 10 43.85 17.1 4
-3 -4 -10 27.98 21.61 8
-3 -4 -10 60.87 19.35 6
2 4 11 186.32 20.89 3
-2 -4 -11 138.31 22.77 6
-2 -4 -11 155.91 22.77 9
-2 -4 -11 143.46 29.59 8
2 -4 11 163.68 22.81 4
1 4 12 112.6 18.13 3
-1 -4 -12 49.19 17.34 6
-1 -4 -12 66.69 16.86 9
-1 -4 -12 81.35 24.42 8
1 -4 12 90.72 18.92 4
0 -4 13 2.9 15.1 4
0 -4 -13 -15.47 22.87 8
0 -4 -13 8.83 13.18 6
0 -4 -13 19.9 11.67 9
1 -4 -14 16.93 14.01 9
1 -4 -14 -20.68 26.23 8
1 -4 -14 -6.7 16.39 6
-1 -4 14 19.72 16.9 4
2 5 11 -22.64 14.54 3
-2 -5 -11 10.95 11.37 9
2 -5 11 1.62 11.51 4
-2 -5 -11 23.54 24.85 8
-2 -5 -11 6.54 14.68 6
1 5 12 149.68 19.35 3
-1 -5 -12 113.05 25.23 8
-1 -5 -12 129.89 22.93 6
-1 -5 -12 187.89 20.5 9
1 -5 12 147.34 20.51 4
0 5 13 115.63 20.66 3
0 -5 -13 104.31 20.4 6
0 -5 -13 80.11 28.81 8
0 -5 13 101.72 21.48 4
0 -5 -13 116.84 17.62 9
-5 0 -9 -3.81 12.34 6
5 0 9 1.94 14.34 3
4 0 10 340.46 26.3 3
-4 0 -10 362.2 33.58 6
-3 0 -11 13.39 13.53 6
2 0 12 223.16 22.05 3
-2 0 -12 216.58 22.84 2
-2 0 -12 263.49 27.82 6
-2 0 -12 224.03 29.03 8
1 0 13 -4.15 10.35 3
-1 0 -13 2.39 11.45 6
-1 0 -13 29.7 20.83 8
1 0 13 14.53 16.08 4
-1 0 -13 21.01 11.78 2
0 0 14 16.63 17.09 4
0 0 -14 17.45 11.67 6
0 0 -14 -2.88 19.46 8
0 0 -14 2.27 11.49 2
1 0 -15 7.51 19.39 8
-1 0 15 -11.67 13.24 4
1 0 -15 -23.16 16.06 6
-2 0 16 76.58 19.26 4
2 0 -16 57.32 23.89 8
-5 1 -9 61.59 16.52 5
-5 1 -9 53.67 18.19 6
5 1 9 68.2 17.68 3
-5 -1 -9 53.34 19.44 6
4 1 10 18.4 11.45 3
-4 1 -10 12.64 15.81 6
-4 -1 -10 -1.29 11.58 6
-3 1 -11 31.97 16.4 6
3 1 11 2.89 11.72 3
-3 -1 -11 21.7 20.39 8
-2 1 -12 -3.56 13.09 6
2 1 12 -7.83 13.66 3
-2 1 -12 25.4 16.37 8
-2 1 -12 8.94 14.63 2
-2 -1 -12 24.55 12.28 2
2 -1 12 -3.67 10.1 4
-2 -1 -12 -6.2 16.8 8
-2 -1 -12 9.59 15.38 6
1 1 13 384.36 29.7 3
-1 1 -13 349.33 28.32 2
-1 1 -13 341.49 29.52 6
-1 1 -13 368.73 39.41 8
-1 -1 -13 304.67 30.64 6
-1 -1 -13 350.42 38.56 8
-1 -1 -13 390.95 29.29 2
1 -1 13 384.5 32.25 4
0 1 -14 10.32 11.17 6
0 1 -14 -9.1 12 2
0 1 14 -11.04 17.29 4
0 1 -14 -8.28 19.4 8
0 -1 -14 -3.63 20.26 8
0 -1 14 -18.63 17.21 4
0 -1 -14 9.82 16.02 6
-1 1 15 53.88 19.23 4
1 1 -15 45.76 17.31 8
1 -1 -15 82.77 21.97 8
1 -1 -15 88.19 19.92 6
-1 -1 15 77.19 21.52 4
2 1 -16 68.73 25.09 8
-2 1 16 61.27 23.78 4
-2 -1 16 55.98 22.28 4
2 -1 -16 93.24 29.3 8
4 2 10 29.65 15.71 3
-4 -2 -10 18.02 17.65 6
3 2 11 12.68 13.65 3
-3 -2 -11 -8.73 21.25 8
-3 -2 -11 5.28 15.28 6
3 -2 11 2.73 10.21 4
2 2 12 7.67 13.42 3
-2 -2 -12 9.88 11.67 6
-2 -2 -12 39.5 16.1 2
2 -2 12 30.5 16.33 4
-2 -2 -12 0.34 20.1 8
1 2 13 30.1 14.58 3
-1 2 -13 26.94 14.89 8
-1 -2 -13 20.41 16.41 6
-1 -2 -13 25.99 23.43 8
-1 -2 -13 14.13 17.88 2
1 -2 13 54.08 17.04 4
0 2 -14 113.26 21.73 8
0 2 -14 95.97 19.85 2
0 -2 14 116.35 22.22 4
0 -2 -14 138.74 22.28 6
0 -2 -14 144.39 29.56 8
-1 2 15 60.83 17.7 4
1 2 -15 93.5 24.74 8
-1 -2 15 82.96 22.81 4
1 -2 -15 94.36 28.61 8
1 -2 -15 82.55 16.5 6
3 3 11 -4.18 14.88 3
-3 -3 -11 1.41 17.4 8
3 -3 11 -1.13 11.5 4
-3 -3 -11 4.75 15.97 6
2 3 12 47.6 17.6 3
2 -3 12 57.37 17.93 4
-2 -3 -12 58.84 25.3 8
-2 -3 -12 26.08 17.01 6
1 3 13 70.77 18.26 3
-1 -3 -13 70.32 22.32 8
-1 -3 -13 60.46 17.94 6
1 -3 13 83.47 19.79 4
0 -3 14 -3.69 16.69 4
0 -3 -14 -5.93 14.21 6
0 -3 -14 -9.71 18.34 8
loop_
_geom_angle_atom_site_label_1
_geom_angle_atom_site_label_2
_geom_angle_atom_site_label_3
_geom_angle
_geom_angle_site_symmetry_1
_geom_angle_site_symmetry_3
_geom_angle_publ_flag
Cl2 Ag1 Cl1 111.25(3) . . ?
Cl2 Ag1 Cl1 107.38(3) 2_654 . ?
Cl2 Ag1 Cl1 108.87(3) 2_654 3_654 ?
Cl2 Ag1 Cl1 122.44(3) . 3_654 ?
H3a C3 C4 109.5 . . ?
H3b C3 C4 109.5 . . ?
H3b C3 H3a 109.5 . . ?
H3c C3 C4 109.5 . . ?
H3c C3 H3a 109.5 . . ?
H3c C3 H3b 109.5 . . ?
N1 C4 C3 109.5(3) . . ?
C2 C4 C3 111.9(3) 3_544 . ?
C2 C4 N1 108.9(2) 3_544 . ?
H4 C4 C3 108.84(18) . . ?
H4 C4 N1 108.84(16) . . ?
H4 C4 C2 108.84(17) . 3_544 ?
C2 N1 C4 113.1(2) . . ?
H1a N1 C4 108.95(15) . . ?
H1a N1 C2 108.95(15) . . ?
H1b N1 C4 108.95(16) . . ?
H1b N1 C2 108.95(16) . . ?
H1b N1 H1a 107.8 . . ?
N1 C2 C4 111.2(2) . 3_544 ?
H2a C2 C4 109.40(16) . 3_544 ?
H2a C2 N1 109.40(15) . . ?
H2b C2 C4 109.40(17) . 3_544 ?
H2b C2 N1 109.40(16) . . ?
H2b C2 H2a 108.0 . . ?
loop_
_geom_bond_atom_site_label_1
_geom_bond_atom_site_label_2
_geom_bond_distance
_geom_bond_site_symmetry_2
_geom_bond_publ_flag
Ag1 Ag1 3.1825(6) 3_654 ?
Ag1 Cl1 2.5523(9) 3_654 ?
Ag1 Cl1 2.6353(10) . ?
Ag1 Cl2 2.5941(9) 2_654 ?
Ag1 Cl2 2.5355(9) . ?
C3 C4 1.519(5) . ?
C3 H3a 0.9600 . ?
C3 H3b 0.9600 . ?
C3 H3c 0.9600 . ?
C4 N1 1.501(4) . ?
C4 C2 1.515(4) 3_544 ?
C4 H4 0.9800 . ?
N1 C2 1.496(4) . ?
N1 H1a 0.9000 . ?
N1 H1b 0.9000 . ?
C2 H2a 0.9700 . ?
C2 H2b 0.9700 . ?
loop_
_geom_torsion_atom_site_label_1
_geom_torsion_atom_site_label_2
_geom_torsion_atom_site_label_3
_geom_torsion_atom_site_label_4
_geom_torsion
_geom_torsion_site_symmetry_1
_geom_torsion_site_symmetry_2
_geom_torsion_site_symmetry_3
_geom_torsion_site_symmetry_4
_geom_torsion_publ_flag
C3 C4 N1 C2 178.5(3) . . . . ?
C3 C4 C2 N1 -175.9(3) . . 3_544 3_544 ?
C4 N1 C2 C4 -57.1(2) . . . 3_544 ?
C4 C2 N1 C4 -57.1(3) 3_544 . . . ?
