#------------------------------------------------------------------------------
#$Date: 2022-06-17 01:52:41 +0300 (Fri, 17 Jun 2022) $
#$Revision: 276071 $
#$URL: file:///home/coder/svn-repositories/cod/cif/7/71/05/7710503.cif $
#------------------------------------------------------------------------------
#
# This file is available in the Crystallography Open Database (COD),
# http://www.crystallography.net/
#
# All data on this site have been placed in the public domain by the
# contributors.
#
data_7710503
loop_
_publ_author_name
'Malankar, Gauri S.'
'Shelar, Divyesh S.'
'Butcher, R. J.'
'Manjare, Sudesh T.'
_publ_section_title
;
 Synthesis and Single Crystal X-ray Study of Phenylselenyl Embedded
 Coumarin-Based Sensors for Selective Detection of Superoxide
;
_journal_name_full               'Dalton Transactions'
_journal_paper_doi               10.1039/D2DT01079H
_journal_year                    2022
_chemical_formula_moiety         'C18 H14 O4.08 Se'
_chemical_formula_sum            'C18 H14 O4.08 Se'
_chemical_formula_weight         374.54
_space_group_crystal_system      triclinic
_space_group_IT_number           2
_space_group_name_Hall           '-P 1'
_space_group_name_H-M_alt        'P -1'
_atom_sites_solution_hydrogens   geom
_atom_sites_solution_primary     direct
_atom_sites_solution_secondary   difmap
_audit_creation_method           SHELXL-2018/3
_audit_update_record
;
2022-03-05 deposited with the CCDC.	2022-06-16 downloaded from the CCDC.
;
_cell_angle_alpha                106.478(3)
_cell_angle_beta                 104.683(2)
_cell_angle_gamma                103.015(2)
_cell_formula_units_Z            2
_cell_length_a                   7.6073(5)
_cell_length_b                   9.4274(9)
_cell_length_c                   12.1570(11)
_cell_measurement_reflns_used    9961
_cell_measurement_temperature    100(2)
_cell_measurement_theta_max      32.49
_cell_measurement_theta_min      2.44
_cell_volume                     766.15(11)
_computing_cell_refinement       'Bruker SAINT'
_computing_data_collection       'Bruker APEX2'
_computing_data_reduction        'Bruker SAINT'
_computing_molecular_graphics    'Bruker SHELXTL (Sheldrick, 2008)'
_computing_publication_material  'Bruker SHELXTL (Sheldrick, 2008)'
_computing_structure_refinement  'SHELXL-2018/3 (Sheldrick, 2015b)'
_computing_structure_solution    'SHELXT (Sheldrick, 2015a)'
_diffrn_ambient_temperature      100(2)
_diffrn_measured_fraction_theta_full 0.999
_diffrn_measured_fraction_theta_max 0.997
_diffrn_measurement_device_type  'Bruker APEX-II CCD'
_diffrn_measurement_method       '\f and \w scans'
_diffrn_radiation_type           MoK\a
_diffrn_radiation_wavelength     0.71073
_diffrn_reflns_av_R_equivalents  0.0345
_diffrn_reflns_av_unetI/netI     0.0421
_diffrn_reflns_Laue_measured_fraction_full 0.999
_diffrn_reflns_Laue_measured_fraction_max 0.997
_diffrn_reflns_number            5560
_diffrn_reflns_point_group_measured_fraction_full 0.999
_diffrn_reflns_point_group_measured_fraction_max 0.997
_diffrn_reflns_theta_full        25.242
_diffrn_reflns_theta_max         32.563
_diffrn_reflns_theta_min         2.378
_exptl_absorpt_coefficient_mu    2.469
_exptl_absorpt_correction_T_max  0.7464
_exptl_absorpt_correction_T_min  0.6314
_exptl_absorpt_correction_type   multi-scan
_exptl_absorpt_process_details   'Sadabs (Sheldrick, 1996)'
_exptl_crystal_colour            colorless
_exptl_crystal_density_diffrn    1.624
_exptl_crystal_description       prism
_exptl_crystal_F_000             377
_exptl_crystal_size_max          0.21
_exptl_crystal_size_mid          0.16
_exptl_crystal_size_min          0.08
_refine_diff_density_max         0.540
_refine_diff_density_min         -0.415
_refine_diff_density_rms         0.074
_refine_ls_extinction_method     none
_refine_ls_goodness_of_fit_ref   1.027
_refine_ls_hydrogen_treatment    constr
_refine_ls_matrix_type           full
_refine_ls_number_parameters     220
_refine_ls_number_reflns         5560
_refine_ls_number_restraints     7
_refine_ls_restrained_S_all      1.027
_refine_ls_R_factor_all          0.0382
_refine_ls_R_factor_gt           0.0295
_refine_ls_shift/su_max          0.001
_refine_ls_shift/su_mean         0.000
_refine_ls_structure_factor_coef Fsqd
_refine_ls_weighting_details
'w=1/[\s^2^(Fo^2^)+(0.0224P)^2^+0.3178P] where P=(Fo^2^+2Fc^2^)/3'
_refine_ls_weighting_scheme      calc
_refine_ls_wR_factor_gt          0.0639
_refine_ls_wR_factor_ref         0.0669
_reflns_Friedel_coverage         0.000
_reflns_number_gt                4814
_reflns_number_total             5560
_reflns_threshold_expression     'I > 2\s(I)'
_cod_data_source_file            d2dt01079h2.cif
_cod_data_source_block           Probe_5
_cod_database_code               7710503
_shelx_shelxl_version_number     2018/3
_shelx_space_group_comment
;
The symmetry employed for this shelxl refinement is uniquely defined
by the following loop, which should always be used as a source of
symmetry information in preference to the above space-group names.
They are only intended as comments.
;
_shelx_res_file
;
TITL shelxt_a.res in P-1
    shelx.res
    created by SHELXL-2018/3 at 17:16:48 on 01-Jul-2021
CELL  0.71073   7.6073   9.4274  12.1570  106.478  104.683  103.015
ZERR     2.00   0.0005   0.0009   0.0011    0.003    0.002    0.002
LATT   1
SFAC C H O Se

UNIT 36 28 8.16162 2
TEMP  -173.15
L.S.  10
acta
conf
bond $h
htab
EQIV $1 -x+2, -y+1, -z+1
HTAB C5 O1_$1
HTAB C5 O2_$1
EQIV $2 x-1, y, z
HTAB C8 O3_$2
EQIV $3 -x+3, -y+1, -z+2
HTAB C11 O3_$3
HTAB C12 O3_$2
EQIV $4 -x+2, -y+1, -z+2
HTAB O1A O3_$4
HTAB O1A O4_$4
HTAB O1A O1A_$4
simu .01 c7 o1a
delu .01 c7 o1a
WGHT    0.022400    0.317800
FVAR       1.00352   0.08081
SE    4    0.277394    0.068360    0.629350    11.00000    0.01864    0.01813 =
         0.02556    0.00944    0.01071    0.00588
O1    3    0.588634    0.280511    0.295903    11.00000    0.02278    0.03747 =
         0.01969    0.00934    0.00774    0.00273
O2    3    0.763865    0.399253    0.491289    11.00000    0.01497    0.02355 =
         0.01826    0.00670    0.00615    0.00248
O3    3    1.291875    0.488032    0.876629    11.00000    0.01972    0.02099 =
         0.02729    0.00620    0.00508    0.00772
C1    1    0.438912    0.310289    0.556690    11.00000    0.01367    0.01598 =
         0.02137    0.00923    0.00542    0.00486
C2    1    0.425216    0.269577    0.437786    11.00000    0.01424    0.02135 =
         0.01987    0.00812    0.00395    0.00285
AFIX  43
H2A   2    0.303427    0.210496    0.376902    11.00000   -1.20000
AFIX   0
C3    1    0.589495    0.312785    0.399902    11.00000    0.01730    0.02187 =
         0.02044    0.00825    0.00550    0.00413
O4    3    1.166962    0.685325    0.901847    11.00000    0.01349    0.01792 =
         0.02300    0.00146    0.00200    0.00427
C4    1    0.781497    0.444822    0.612959    11.00000    0.01564    0.01601 =
         0.01776    0.00661    0.00609    0.00551
C5    1    0.963940    0.535091    0.694652    11.00000    0.01326    0.01710 =
         0.02283    0.00626    0.00617    0.00400
AFIX  43
H5A   2    1.068499    0.562280    0.667101    11.00000   -1.20000
AFIX   0
C6    1    0.987976    0.583955    0.817442    11.00000    0.01271    0.01435 =
         0.02230    0.00365    0.00344    0.00397
C7    1    0.837289    0.547471    0.860360    11.00000    0.01719    0.01782 =
         0.01937    0.00474    0.00596    0.00550
AFIX  43
PART   1
H7A   2    0.858086    0.583169    0.945385   -21.00000   -1.20000
AFIX   0
PART   0
C8    1    0.656230    0.458133    0.776969    11.00000    0.01526    0.01804 =
         0.02072    0.00767    0.00678    0.00545
AFIX  43
H8A   2    0.552153    0.433115    0.805379    11.00000   -1.20000
AFIX   0
C9    1    0.623981    0.403795    0.650723    11.00000    0.01343    0.01482 =
         0.01950    0.00749    0.00547    0.00416
C10   1    1.314963    0.625012    0.919913    11.00000    0.01515    0.02200 =
         0.01638    0.00681    0.00531    0.00553
C11   1    1.500087    0.751704    0.998544    11.00000    0.01574    0.02524 =
         0.02283    0.00388    0.00126    0.00234
AFIX 137
H11A  2    1.593594    0.706109    1.033606    11.00000   -1.50000
H11B  2    1.478656    0.826354    1.064359    11.00000   -1.50000
H11C  2    1.549341    0.805683    0.949202    11.00000   -1.50000
AFIX   0
C12   1    0.264530    0.255964    0.589379    11.00000    0.01423    0.01930 =
         0.02146    0.00921    0.00561    0.00343
AFIX  23
H12A  2    0.146422    0.230171    0.519908    11.00000   -1.20000
H12B  2    0.263323    0.338844    0.660369    11.00000   -1.20000
AFIX   0
C13   1    0.097806    0.058955    0.714650    11.00000    0.01443    0.01566 =
         0.01710    0.00443    0.00382    0.00143
C14   1    0.101739   -0.037977    0.783370    11.00000    0.01927    0.01682 =
         0.01905    0.00647    0.00474    0.00585
AFIX  43
H14A  2    0.189322   -0.095641    0.785523    11.00000   -1.20000
AFIX   0
C15   1   -0.024039   -0.048732    0.848338    11.00000    0.02648    0.01833 =
         0.01948    0.00703    0.00820    0.00604
AFIX  43
H15A  2   -0.022342   -0.114596    0.894737    11.00000   -1.20000
AFIX   0
C16   1   -0.152137    0.035613    0.846253    11.00000    0.02617    0.01958 =
         0.02570    0.00592    0.01352    0.00655
AFIX  43
H16A  2   -0.236223    0.028629    0.891862    11.00000   -1.20000
AFIX   0
C17   1   -0.156431    0.130034    0.777170    11.00000    0.02121    0.01932 =
         0.03176    0.00944    0.01051    0.00839
AFIX  43
H17A  2   -0.244412    0.187342    0.775210    11.00000   -1.20000
AFIX   0
C18   1   -0.032737    0.141588    0.710562    11.00000    0.01868    0.01887 =
         0.02587    0.01054    0.00708    0.00552
AFIX  43
H18A  2   -0.037433    0.205501    0.662613    11.00000   -1.20000
AFIX   0
PART   2
O1A   3    0.897066    0.611026    0.988182    21.00000    0.00887    0.00946 =
         0.00474   -0.00039   -0.00058    0.00220
AFIX 147
H1A   2    0.894292    0.538877    1.016038    21.00000   -1.50000
PART   0
AFIX   0
HKLF    4




REM  shelxt_a.res in P-1
REM wR2 = 0.0669, GooF = S = 1.027, Restrained GooF = 1.027 for all data
REM R1 = 0.0295 for 4814 Fo > 4sig(Fo) and 0.0382 for all 5560 data
REM 220 parameters refined using 7 restraints

END

WGHT      0.0224      0.3178

REM Instructions for potential hydrogen bonds
HTAB C5 O1_$1
HTAB C5 O2_$1
HTAB C8 O3_$2
HTAB C11 O3_$3
HTAB C12 O3_$2
HTAB O1A O3_$4
HTAB O1A O4_$4
HTAB O1A O1A_$4

REM Highest difference peak  0.540,  deepest hole -0.415,  1-sigma level  0.074
Q1    1   0.0900 -0.0039  0.7421  11.00000  0.05    0.54
Q2    1   0.8743  0.4855  0.6539  11.00000  0.05    0.52
Q3    1   0.9857  0.5632  0.7584  11.00000  0.05    0.51
Q4    1   0.2709  0.0173  0.5490  11.00000  0.05    0.48
Q5    1   0.7571  0.4949  0.8127  11.00000  0.05    0.43
Q6    1   1.4056  0.6776  0.9629  11.00000  0.05    0.42
Q7    1   0.6390  0.4370  0.7145  11.00000  0.05    0.42
Q8    1   0.3187  0.0433  0.7392  11.00000  0.05    0.41
Q9    1   0.4232  0.2639  0.4878  11.00000  0.05    0.40
Q10   1   0.5114  0.2996  0.4335  11.00000  0.05    0.40
Q11   1   0.8993  0.5670  0.8293  11.00000  0.05    0.37
Q12   1   0.6773  0.4254  0.6142  11.00000  0.05    0.36
Q13   1   0.4479  0.3314  0.5013  11.00000  0.05    0.36
Q14   1   0.4175  0.0865  0.6345  11.00000  0.05    0.34
Q15   1   0.0733 -0.0143  0.8447  11.00000  0.05    0.34
Q16   1  -0.1020  0.1159  0.7375  11.00000  0.05    0.34
Q17   1   0.7654  0.4341  0.5627  11.00000  0.05    0.33
Q18   1  -0.1644  0.0616  0.7970  11.00000  0.05    0.32
Q19   1   1.1746  0.6795  0.8485  11.00000  0.05    0.32
Q20   1   0.0265  0.0963  0.7188  11.00000  0.05    0.32
;
_shelx_res_checksum              67185
_shelx_hkl_file
;
   1   0   0 18.4025  1.5203   1
   2   0   0 2566.02 72.3784   1
   3   0   0  516.92 15.0922   1
   4   0   0 1164.52 25.1099   1
   5   0   0 213.812 9.73359   1
   6   0   0  193.14 7.75657   1
   7   0   0 1291.03 32.3736   1
   8   0   0  30.101 5.07331   1
   9   0   0  286.51 12.2331   1
  10   0   0-5.23307 5.23307   1
 -10   1   0-0.38562 5.94257   1
  -9   1   0 210.399 11.1382   1
  -8   1   0 164.552 8.02547   1
  -7   1   0 294.382  9.6396   1
  -6   1   0 1472.63 35.1187   1
  -5   1   0 187.332 7.98567   1
  -4   1   0 1613.73 41.2697   1
  -3   1   0 422.512 12.1909   1
  -2   1   0 748.838 19.1281   1
  -1   1   0 661.005 14.4996   1
   0   1   0  18.485 0.64371   1
   1   1   0 1246.75  30.726   1
   2   1   0 34.7376 1.84139   1
   3   1   0 508.491 11.6029   1
   4   1   0 9.92035 2.50555   1
   5   1   0 2883.31 59.3974   1
   6   1   0 14.6066 2.53277   1
   7   1   0 586.269 15.4348   1
   8   1   0 0.20825 3.88728   1
   9   1   0  203.30 9.06535   1
  10   1   0 39.2071 10.8206   1
 -10   2   0 77.8358 9.06883   1
  -9   2   0 91.9523 8.24209   1
  -8   2   0 200.855 8.36605   1
  -7   2   0 41.9669 4.18453   1
  -6   2   0 190.737 8.96007   1
  -5   2   0 175.133 9.63745   1
  -4   2   0 1734.96   44.03   1
  -3   2   0 33.2857 4.27024   1
  -2   2   010504.90 361.295   1
   0   2   0 3593.69  202.85   1
   1   2   0 82.0913 2.87868   1
   2   2   0 168.302 5.63168   1
   3   2   0 4652.24  84.999   1
   4   2   0 5.26271 1.24428   1
   5   2   0 1311.77 28.6045   1
   6   2   0 127.032 4.88077   1
   7   2   0 420.077  16.463   1
   8   2   0 8.91947 6.56134   1
   9   2   0 7.09661  7.7193   1
 -11   3   0 130.698 13.5453   1
 -10   3   0 113.183 11.3776   1
  -9   3   0 11.7765 5.55533   1
  -8   3   0 850.718 21.3468   1
  -7   3   0 83.2832 6.23662   1
  -6   3   0 1687.91 44.6055   1
  -5   3   0 466.571 14.5854   1
  -4   3   0 465.163 11.3277   1
  -3   3   0 1040.54 21.6646   1
  -2   3   0 47.6842 2.32364   1
  -1   3   0 32.3748 1.47069   1
   0   3   0 1090.49 20.6673   1
   1   3   0 1101.78 24.0593   1
   2   3   0 12.2824 2.18577   1
   3   3   0 132.402  6.0478   1
   4   3   0 859.523 22.5511   1
   5   3   0 320.128 18.5817   1
   6   3   0 49.7459 6.13278   1
   7   3   0 132.698 15.5351   1
   8   3   0 553.553 44.9976   1
   9   3   0 4.65167  8.9032   1
 -11   4   0 4.89532 7.88246   1
 -10   4   0  77.056 9.73839   1
  -9   4   0 2.45743 4.77558   1
  -8   4   0 17.4662 4.23605   1
  -7   4   0 166.642 10.3191   1
  -6   4   0 595.949  16.803   1
  -5   4   0 1024.61 24.8998   1
  -4   4   0 975.647 20.9128   1
  -3   4   0 2805.09 55.7628   1
  -2   4   0 526.311 10.6533   1
  -1   4   0 860.604 16.7243   1
   0   4   0 159.873 4.40797   1
   1   4   0 2974.88 59.5467   1
   2   4   0 1364.41  38.348   1
   3   4   0 865.006 22.3991   1
   4   4   0 786.685  29.972   1
   5   4   0 798.128 22.4859   1
   6   4   0 158.644 12.1536   1
   7   4   0 146.037 14.3525   1
   8   4   0 10.1234 8.04733   1
   9   4   0 19.7073 10.7906   1
 -11   5   0-5.53726 7.31638   1
 -10   5   0 119.179 11.6256   1
  -9   5   0 353.666 15.8052   1
  -8   5   0 1762.95  39.583   1
  -7   5   0 557.534 23.7452   1
  -6   5   0 136.735 8.87313   1
  -5   5   0 1193.72 28.1992   1
  -4   5   0  462.07 13.8753   1
  -3   5   0 898.581 19.3239   1
  -2   5   0 206.432 5.25147   1
  -1   5   0 3945.77 72.2164   1
   0   5   0 1298.73  25.692   1
   1   5   0 785.044 17.6954   1
   2   5   0  222.84 7.33345   1
   3   5   0 286.989 10.2721   1
   4   5   0  632.41 36.2439   1
   5   5   0 121.248 12.1508   1
   6   5   0 491.209 22.7383   1
   7   5   0 333.768 21.2905   1
   8   5   0 221.034 18.7192   1
 -11   6   0 63.3671 9.32016   1
 -10   6   0 99.0903 11.2594   1
  -9   6   0  129.90 9.87289   1
  -8   6   0 17.1744 4.81403   1
  -7   6   0 264.269 10.1151   1
  -6   6   0 160.406  6.6202   1
  -5   6   0 498.376 12.2594   1
  -4   6   0  492.83 11.7623   1
  -3   6   0 809.377 16.4238   1
  -2   6   0 423.375 10.1495   1
  -1   6   0 618.188 13.2026   1
   0   6   0 1694.54  52.235   1
   1   6   0 84.2389 4.43256   1
   2   6   0 688.481 19.6157   1
   3   6   0 9.61067   3.812   1
   4   6   0 712.967 23.1263   1
   5   6   0 24.0507 9.28602   1
   6   6   0 101.749 16.5288   1
   7   6   0 5.71011  8.6698   1
 -10   7   0 64.9325 10.1053   1
  -9   7   0 301.158  14.283   1
  -8   7   0  5.7236 4.48499   1
  -7   7   0 215.168 8.61072   1
  -6   7   0 147.845 7.43295   1
  -5   7   0 2503.70 51.2091   1
  -4   7   0 301.042 7.64254   1
  -3   7   0 712.976 15.0625   1
  -2   7   0 983.007 19.9899   1
  -1   7   0 50.1499 3.37615   1
   0   7   0 265.178 8.75873   1
   1   7   0-1.72278 1.72278   1
   2   7   0 1098.71 22.4286   1
   3   7   0 145.382 8.69337   1
   4   7   0 495.114 56.6401   1
   5   7   0  414.05 28.1212   1
   6   7   0 41.3182  10.513   1
   7   7   0 108.344 17.5657   1
 -10   8   0 22.0155 8.27206   1
  -9   8   0 33.0008 5.95848   1
  -8   8   0 139.819 9.40506   1
  -7   8   0 179.701 10.4637   1
  -6   8   0 287.989 10.3701   1
  -5   8   0 6.72168 2.17378   1
  -4   8   0 280.419 7.57484   1
  -3   8   0 5.25099 1.94407   1
  -2   8   0  300.71 8.14004   1
  -1   8   0 424.523 12.4158   1
   0   8   0 1031.84 27.7983   1
   1   8   0 166.076 6.17949   1
   2   8   0 296.644 14.9088   1
   3   8   0 73.8174 8.82964   1
   4   8   0 13.5814 6.89396   1
   5   8   0 39.5844 11.6524   1
   6   8   0 23.0601 12.6184   1
 -10   9   0 2.64268 7.90787   1
  -9   9   0 43.8056 5.37946   1
  -8   9   0 108.871 10.4024   1
  -7   9   0 246.399 10.4702   1
  -6   9   0 994.002 31.4532   1
  -5   9   0 138.199 6.32668   1
  -4   9   0 739.994 16.2183   1
  -3   9   0 77.0582 4.35143   1
  -2   9   0 270.493 8.92963   1
  -1   9   0 70.2966 5.93031   1
   0   9   0 658.357 16.6449   1
   1   9   0 218.955 8.17034   1
   2   9   0 126.382 12.1453   1
   3   9   0 292.726 17.0374   1
   4   9   0   2.453 6.76313   1
   5   9   0 175.967 26.9454   1
  -9  10   0 4.90039 9.87137   1
  -8  10   0 463.121 20.2684   1
  -7  10   0 14.2728  5.1765   1
  -6  10   0 176.595 11.3104   1
  -5  10   0-0.43762 2.19802   1
  -4  10   0 290.564 18.8515   1
  -3  10   0 135.682 7.28749   1
  -2  10   0 8.08121 4.36286   1
  -1  10   0 1168.58  26.859   1
   0  10   0 226.655 8.89483   1
   1  10   0 255.804 9.33189   1
   2  10   0 40.2265 12.3029   1
   3  10   0 106.719 11.6277   1
   4  10   0-7.64351 12.5217   1
  -9  11   0-15.0401 16.6713   1
  -8  11   0 264.015  11.028   1
  -7  11   0 14.9414 4.94701   1
  -6  11   0 198.483 14.7357   1
  -5  11   0  89.333  10.796   1
  -4  11   0 89.1202 6.93863   1
  -3  11   0 238.161 10.8692   1
  -2  11   0 5.97567  3.5023   1
  -1  11   0 815.499 27.3451   1
   0  11   0 83.3202 6.93923   1
   1  11   0 182.875 9.38534   1
   2  11   0 27.9417 10.8521   1
   3  11   0 41.0341 10.1503   1
  -8  12   0 40.3827 19.8182   1
  -7  12   0  85.489 14.9445   1
  -6  12   0 70.1895 8.46887   1
  -5  12   0 243.344 15.0431   1
  -4  12   0-0.62107 3.19549   1
  -3  12   0 272.906 11.3299   1
  -2  12   0 17.6228 4.94359   1
  -1  12   0 328.983 12.8187   1
   0  12   0 4.84207 4.68949   1
   1  12   0 37.0436  9.3339   1
  -6  13   0-7.01663 13.3002   1
  -5  13   0 62.9144 11.3956   1
  -4  13   0 10.7814 8.24889   1
  -3  13   0 68.2312 6.91315   1
  -2  13   0 88.4144 11.0766   1
  -1  13   0 78.7209 11.8267   1
   0 -13   1 2.29112 7.05536   1
   1 -13   1 239.102 16.0014   1
   2 -13   1 45.4882 6.92682   1
   3 -13   1 228.152 17.8611   1
   4 -13   1 9.84412 7.47291   1
   5 -13   1 52.0418 36.1868   1
   6 -13   1 97.4598 22.3033   1
  -2 -12   1-15.9145 15.9145   1
  -1 -12   1 243.586 12.6092   1
   0 -12   1 36.4846 5.37191   1
   1 -12   1 181.516  11.161   1
   2 -12   1 6.61408 4.29965   1
   3 -12   1 126.851 7.74418   1
   4 -12   1 84.4881 6.22133   1
   5 -12   1 2.65117 4.20773   1
   6 -12   1 201.143 25.2009   1
   7 -12   1 66.2141 13.8813   1
   8 -12   1 191.621 30.5712   1
  -3 -11   1 210.846 16.7826   1
  -2 -11   1 7.83761 7.87775   1
  -1 -11   1 187.362 8.21259   1
   0 -11   1 148.044 7.44369   1
   1 -11   1 28.0673 4.45873   1
   2 -11   1 385.274 25.6572   1
   3 -11   1 32.5186 6.86063   1
   4 -11   1 303.004 10.6971   1
   5 -11   1 1.61276 3.29521   1
   6 -11   1 381.537 19.9358   1
   7 -11   1 5.28986 5.26979   1
   8 -11   1 246.691 21.8975   1
   9 -11   1 6.19639 16.5169   1
  -4 -10   1 77.6657 10.9977   1
  -3 -10   1 186.561 18.3364   1
  -2 -10   1 186.761   17.49   1
  -1 -10   1 73.8202 5.06009   1
   0 -10   1 214.615 8.67282   1
   1 -10   1  188.54 7.91035   1
   2 -10   1 985.601 26.6282   1
   3 -10   1 99.6907 5.83376   1
   4 -10   1 483.663 16.0124   1
   5 -10   1 154.684 9.35608   1
   6 -10   1 101.423 5.52998   1
   7 -10   1 420.058  29.247   1
   8 -10   1 172.628 6.93196   1
   9 -10   1 54.8102 12.1913   1
  -5  -9   1 59.1897 10.4577   1
  -4  -9   1 158.589 13.8819   1
  -3  -9   1 8.44735 6.58657   1
  -2  -9   1 331.476 22.3033   1
  -1  -9   1 36.7288 3.66394   1
   0  -9   1 379.396 10.2717   1
   1  -9   1  520.95 11.8346   1
   2  -9   1 389.156 10.9411   1
   3  -9   1 113.603 5.08117   1
   4  -9   1 55.3812 3.55366   1
   5  -9   1 346.731 11.4489   1
   6  -9   1 251.202 7.95392   1
   7  -9   1 304.762 11.1049   1
   8  -9   1 43.2976 5.03043   1
   9  -9   1 127.467 10.1193   1
  10  -9   1-8.08245 9.29482   1
  -6  -8   1 442.892 25.6426   1
  -5  -8   1 158.741 13.5925   1
  -4  -8   1 229.664 16.3553   1
  -3  -8   1  165.24 11.2069   1
  -2  -8   1 217.131 12.2518   1
  -1  -8   1 27.4024 3.15603   1
   0  -8   1  878.80 24.9985   1
   1  -8   1 1008.40 27.0301   1
   2  -8   1 509.488 13.2025   1
   3  -8   1 420.135 10.0828   1
   4  -8   1 468.073 11.8355   1
   5  -8   1  818.30 18.8253   1
   6  -8   1  7.3662 2.79235   1
   7  -8   1  404.90 14.4029   1
   8  -8   1 105.657 7.79205   1
   9  -8   1 27.6205 9.36306   1
  10  -8   1 383.786  45.083   1
  -7  -7   1 27.7427 10.0467   1
  -6  -7   1 95.7234  10.716   1
  -5  -7   1 6.26263 6.05584   1
  -4  -7   1 361.171 24.6797   1
  -3  -7   1 193.429 10.2269   1
  -2  -7   1 49.4906 2.51732   1
  -1  -7   1 2243.98 42.8681   1
   0  -7   1 128.128 5.18868   1
   1  -7   1 689.257 14.8131   1
   2  -7   1 221.701   6.941   1
   3  -7   1 485.744 10.9105   1
   4  -7   1 111.227 4.62401   1
   5  -7   1 417.529 10.8732   1
   6  -7   1 189.001 7.13723   1
   7  -7   1  194.77 9.01805   1
   8  -7   1 23.2398 5.16329   1
   9  -7   1 539.461  19.424   1
  10  -7   1 92.1457 13.2292   1
  -8  -6   1  121.99 16.5161   1
  -7  -6   1 57.3514 14.2983   1
  -6  -6   1  430.75 32.7621   1
  -5  -6   1 29.6263 5.54003   1
  -4  -6   1 887.276 36.0178   1
  -3  -6   1 277.975 12.0191   1
  -2  -6   1 1012.84  20.509   1
  -1  -6   1 1185.82 22.1833   1
   0  -6   1 387.536 10.8957   1
   1  -6   1 974.271 20.1639   1
   2  -6   1 851.783 19.8797   1
   3  -6   1 2217.11 41.4745   1
   4  -6   1 290.473 7.87069   1
   5  -6   1 769.599 16.3408   1
   6  -6   1 456.303 13.3384   1
   7  -6   1 134.727 6.86142   1
   8  -6   1 216.802 11.2111   1
   9  -6   1 17.5214  6.7857   1
  10  -6   1 103.148 14.4913   1
  -8  -5   1 156.026 15.3804   1
  -7  -5   1 36.3566 10.2499   1
  -6  -5   1 263.616  13.001   1
  -5  -5   1 985.406 26.8162   1
  -4  -5   1 90.8994 6.26124   1
  -3  -5   1 363.857 11.7511   1
  -2  -5   1  518.97 17.6333   1
  -1  -5   1 3004.67 52.1767   1
   0  -5   1 28.2634 3.63984   1
   1  -5   1 1896.67 35.4985   1
   2  -5   1 7583.40 148.087   1
   3  -5   1 679.315 15.1765   1
   4  -5   1 570.352 13.2754   1
   5  -5   1 112.525 4.66923   1
   6  -5   1 720.197 19.1587   1
   7  -5   1 608.151 18.8612   1
   8  -5   1 939.534 53.4808   1
   9  -5   1 42.3449 11.3967   1
  10  -5   1 227.937 17.9235   1
  -9  -4   1 25.3415 11.3541   1
  -8  -4   1 65.8636 17.8526   1
  -7  -4   1 361.505 20.6614   1
  -6  -4   1 70.7223 10.6464   1
  -5  -4   1 748.276 23.3988   1
  -4  -4   1 99.6903 6.42736   1
  -3  -4   1 2085.28 57.2468   1
  -2  -4   1 373.945 10.7827   1
  -1  -4   1 1481.83 26.3576   1
   0  -4   1 50.6953 2.42062   1
   1  -4   1 4955.45 106.103   1
   2  -4   1 207.772  6.9426   1
   3  -4   1 792.972 18.4563   1
   4  -4   1 512.893 11.3177   1
   5  -4   1 46.7827 4.62064   1
   6  -4   1 883.677 22.6607   1
   7  -4   1 574.308 16.9513   1
   8  -4   1 74.0761 6.57296   1
   9  -4   1 50.9233 7.40251   1
  10  -4   1 74.6593   9.013   1
  -9  -3   1 51.0072 10.6302   1
  -8  -3   1  12.979 11.5413   1
  -7  -3   1 423.589 26.3244   1
  -6  -3   1 64.2359 7.55123   1
  -5  -3   1 332.291 19.7306   1
  -4  -3   1 165.365 7.60097   1
  -3  -3   1 1423.16 33.7525   1
  -2  -3   1  631.35 15.8184   1
  -1  -3   1 1171.15 20.7914   1
   0  -3   1 5161.71  248.23   1
   1  -3   110482.10 361.225   1
   2  -3   1 5346.70 188.018   1
   3  -3   1 239.237 6.20912   1
   4  -3   1 1237.64 32.0596   1
   5  -3   1 427.373 12.5119   1
   6  -3   1 2517.97 57.4633   1
   7  -3   1 303.978  11.154   1
   8  -3   1 71.2516 6.45101   1
   9  -3   1 349.537 17.6604   1
  10  -3   1 62.2352 9.26254   1
 -10  -2   1 20.0261 10.7872   1
  -9  -2   1 691.073 52.7091   1
  -8  -2   1 0.35608 1.66173   1
  -7  -2   1 386.416  14.243   1
  -6  -2   1 242.339 7.87442   1
  -5  -2   1 607.473 14.6479   1
  -4  -2   1 2697.86 59.1526   1
  -3  -2   1 12.3508 1.13014   1
  -2  -2   1 1008.60 26.1243   1
  -1  -2   1 251.893 5.46428   1
   0  -2   1 4379.79 154.372   1
   1  -2   1 5361.98 263.306   1
   2  -2   1 1810.75 39.5181   1
   3  -2   1 5.95886 1.66083   1
   4  -2   1 212.118 7.83822   1
   5  -2   1 513.663 14.2229   1
   6  -2   1 232.005 8.03978   1
   7  -2   1 180.896 8.35761   1
   8  -2   1 177.741 9.95227   1
   9  -2   1 158.519 12.1679   1
  10  -2   1 14.3732 6.78073   1
 -10  -1   1 6.00412 4.92875   1
  -9  -1   1 187.972 8.58178   1
  -8  -1   1 12.7834 3.09387   1
  -7  -1   1 55.9916 4.81398   1
  -6  -1   1 20.6118 3.82455   1
  -5  -1   1 1272.26 30.0528   1
  -4  -1   1 2249.58 64.2707   1
  -3  -1   1 814.948  19.582   1
  -2  -1   1 4739.65 85.8655   1
  -1  -1   1 287.554 5.38829   1
   0  -1   1 1328.42 36.8159   1
   1  -1   1 116.752 2.91557   1
   2  -1   1 3977.71 85.5601   1
   3  -1   1 949.388 30.9726   1
   4  -1   1 107.631 6.08042   1
   5  -1   1 3039.50 80.6219   1
   6  -1   1 134.522 6.97838   1
   7  -1   1 1284.63   29.10   1
   8  -1   1 62.2753 9.76417   1
   9  -1   1 448.419 19.4183   1
  10  -1   1 5.30054 7.57362   1
 -10   0   1 232.493 11.8264   1
  -9   0   1 351.393 19.1333   1
  -8   0   1 187.182 9.21914   1
  -7   0   1 69.2147 8.79496   1
  -6   0   1 6380.43 127.163   1
  -5   0   1 499.166 17.7668   1
  -4   0   1 2128.68 61.6851   1
  -3   0   1  59.775 3.72964   1
  -2   0   1 5200.50 176.689   1
  -1   0   1 94.6969 2.48918   1
   1   0   1 6058.37 207.171   1
   2   0   1 88.5762 3.29762   1
   3   0   1 2877.67  63.238   1
   4   0   1 90.7636 4.82092   1
   5   0   1 469.397 12.2731   1
   6   0   1 14.4553 2.95815   1
   7   0   1 1073.46 27.5014   1
   8   0   1 23.6291  5.2145   1
   9   0   1 106.238 7.68143   1
  10   0   1 80.7201 8.39105   1
 -10   1   1 23.3279   6.128   1
  -9   1   1 79.5999 7.47147   1
  -8   1   1 42.8213 4.59624   1
  -7   1   1 140.732 10.0095   1
  -6   1   1 671.747 18.2279   1
  -5   1   1  20.426  6.0635   1
  -4   1   1 676.819  18.842   1
  -3   1   1 116.865  6.2129   1
  -2   1   1 455.866  11.992   1
  -1   1   1 3969.04 189.988   1
   0   1   1 152.682 3.60194   1
   1   1   1 6603.26 316.667   1
   2   1   1 0.24946 0.75836   1
   3   1   1 1292.78 27.3092   1
   4   1   1 623.895 17.9318   1
   5   1   1 739.662  17.578   1
   6   1   1 735.467 19.5745   1
   7   1   1  530.94 17.7307   1
   8   1   1 231.409 9.55927   1
   9   1   1 49.4025 7.92612   1
  10   1   1 268.417 22.5071   1
 -11   2   1 50.2044 14.6784   1
 -10   2   1 249.885 18.6745   1
  -9   2   1 6.03084    4.62   1
  -8   2   1 316.539 9.98485   1
  -7   2   1 3376.78 69.6212   1
  -6   2   1 958.022 27.1862   1
  -5   2   1 701.946 20.3024   1
  -4   2   1 1949.02 55.9219   1
  -3   2   1 4864.59 104.498   1
  -2   2   1 47.5158 3.13586   1
  -1   2   1 730.103 12.9115   1
   0   2   1 4341.00 209.556   1
   1   2   1 4041.56 79.2827   1
   2   2   1 8.72948 1.30141   1
   3   2   1 1534.10 43.5967   1
   4   2   1 734.498 15.6758   1
   5   2   1 670.822 15.1684   1
   6   2   1 778.992 17.5341   1
   7   2   1 2.33704 1.68068   1
   8   2   1  2.8366 12.6071   1
   9   2   1 38.3251 10.7867   1
 -11   3   1 4.26357  9.3639   1
 -10   3   1 101.852 11.4124   1
  -9   3   1  76.524  6.2103   1
  -8   3   1 312.437 10.2308   1
  -7   3   1 53.5381 5.29398   1
  -6   3   1 454.389  13.848   1
  -5   3   1 375.231 11.1874   1
  -4   3   1 1364.12  31.096   1
  -3   3   1 29.4446 3.02073   1
  -2   3   1 821.234 14.8245   1
  -1   3   1 2083.29 35.8415   1
   0   3   1 1073.68 20.5789   1
   1   3   1 1220.17  23.426   1
   2   3   1 1270.08 24.6426   1
   3   3   1 33.4441 3.67987   1
   4   3   1  313.25 10.0052   1
   5   3   1 3.91976 3.41334   1
   6   3   1 320.665 16.3674   1
   7   3   1 5.27397 6.32086   1
   8   3   1 163.415  15.965   1
   9   3   1 99.2211  15.515   1
 -11   4   1 81.6421  9.1764   1
 -10   4   1 171.648 27.4538   1
  -9   4   1 390.625 13.4152   1
  -8   4   1 48.2998 6.79514   1
  -7   4   1 721.362 19.9782   1
  -6   4   1 170.835 7.50921   1
  -5   4   1 2424.71 54.2302   1
  -4   4   1 1298.86 29.7778   1
  -3   4   1 766.054  15.207   1
  -2   4   1 1487.80 27.9414   1
  -1   4   1 2854.83   52.62   1
   0   4   1 722.779 14.7033   1
   1   4   1 3648.59 67.2463   1
   2   4   1  718.37 17.8884   1
   3   4   1 116.584 7.93297   1
   4   4   1 859.079 26.3333   1
   5   4   1 121.178 8.25734   1
   6   4   1 233.161 14.8124   1
   7   4   1 12.6392 7.01301   1
   8   4   1 245.198 19.2566   1
 -11   5   1 176.082 12.6143   1
 -10   5   1   15.78 6.19114   1
  -9   5   1 179.895 10.2271   1
  -8   5   1-3.06066 3.78318   1
  -7   5   1 764.421 22.8508   1
  -6   5   1 195.393 7.57814   1
  -5   5   1 1780.42  40.683   1
  -4   5   1 30.2757  3.0437   1
  -3   5   1 610.666 12.6936   1
  -2   5   1 1999.61 37.5192   1
  -1   5   1 390.439 10.6621   1
   0   5   1 949.197 20.7368   1
   1   5   1 1140.55 30.2249   1
   2   5   1 810.777 19.2972   1
   3   5   1 96.0496 6.52558   1
   4   5   1 474.539 15.6131   1
   5   5   1  249.33 15.8485   1
   6   5   1 329.517 19.9913   1
   7   5   1 74.6484 10.4496   1
   8   5   1-9.10295 9.10295   1
 -11   6   1 68.4202 9.14468   1
 -10   6   1-6.78605 6.78605   1
  -9   6   1 323.616  14.561   1
  -8   6   1 56.7083 5.85705   1
  -7   6   1 478.168 17.0832   1
  -6   6   1 781.186 20.0697   1
  -5   6   1 4.63961 1.98696   1
  -4   6   1 476.571 10.5943   1
  -3   6   1 15.7989 1.72864   1
  -2   6   1 2217.42 41.7248   1
  -1   6   1 58.1745 3.67862   1
   0   6   1 1888.97  39.447   1
   1   6   1 62.1967 4.03324   1
   2   6   1 1544.63 33.4638   1
   3   6   1 97.0918 8.15965   1
   4   6   1 77.9629 14.3886   1
   5   6   1 271.856 19.8236   1
   6   6   1  124.81  12.484   1
   7   6   1 259.246 25.0567   1
 -10   7   1  24.924 6.66365   1
  -9   7   1 81.1243 8.88448   1
  -8   7   1 368.433 15.8299   1
  -7   7   1 145.385  6.9675   1
  -6   7   1 431.348 16.2892   1
  -5   7   1 105.752 9.10181   1
  -4   7   1 1559.30  30.237   1
  -3   7   1  116.18  4.3022   1
  -2   7   1 1047.17 23.1341   1
  -1   7   1  485.40 13.7872   1
   0   7   1 84.6564 4.95549   1
   1   7   1 709.501 17.3766   1
   2   7   1 217.921   6.641   1
   3   7   1 483.306 34.4232   1
   4   7   1 17.4119 15.1554   1
   5   7   1 341.844 33.2971   1
   6   7   1 54.3924  10.578   1
 -10   8   1 90.2236  16.556   1
  -9   8   1  61.461 6.09333   1
  -8   8   1 153.052 9.12031   1
  -7   8   1 31.6276 4.28561   1
  -6   8   1 250.311 9.29748   1
  -5   8   1 8.36559 2.22414   1
  -4   8   1 443.887 10.5246   1
  -3   8   1 76.4858 4.40127   1
  -2   8   1 197.332 7.17935   1
  -1   8   1 239.696 9.00162   1
   0   8   1 154.363 6.99557   1
   1   8   1 668.989 17.1173   1
   2   8   1 19.9551 6.76729   1
   3   8   1 66.5626 9.23606   1
   4   8   1-5.64842 5.89443   1
   5   8   1 242.064 17.4081   1
   6   8   1 22.9027 10.9352   1
 -10   9   1 301.219 18.2221   1
  -9   9   1 78.7611  6.5143   1
  -8   9   1 228.324 9.97525   1
  -7   9   1 4.47363 2.22187   1
  -6   9   1  346.57 62.7708   1
  -5   9   1 323.443 14.8792   1
  -4   9   1 221.958 7.63032   1
  -3   9   1 625.117 15.6965   1
  -2   9   1 68.8767 4.74324   1
  -1   9   1 754.904 34.7664   1
   0   9   1 51.8037 5.24582   1
   1   9   1 513.046 16.8655   1
   2   9   1   9.417 5.99264   1
   3   9   1 87.9766 15.0276   1
   4   9   1 72.4652 12.5272   1
   5   9   1-12.4599 16.0514   1
  -9  10   1-3.21598 7.93409   1
  -8  10   1 1.01041  5.9924   1
  -7  10   1  382.31 33.5277   1
  -6  10   1 85.9574 17.1596   1
  -5  10   1 485.864 20.7366   1
  -4  10   1 148.031 9.14213   1
  -3  10   1 338.998 11.6797   1
  -2  10   1 56.0779 5.24648   1
  -1  10   1  282.36 17.3758   1
   0  10   1 89.3513 5.99356   1
   1  10   1 56.0723 4.66201   1
   2  10   1 121.931 11.7111   1
   3  10   1  73.818 10.4876   1
   4  10   1 162.698 17.3548   1
  -9  11   1 20.7666 12.4949   1
  -8  11   1-11.5033  13.245   1
  -7  11   1 332.662 32.3326   1
  -6  11   1 16.2037 7.82731   1
  -5  11   1 326.228 16.7233   1
  -4  11   1 20.2244 7.22444   1
  -3  11   1 265.848 11.6491   1
  -2  11   1 28.9717 5.62019   1
  -1  11   1 105.837 7.26499   1
   0  11   1 193.514 9.27883   1
   1  11   1 254.424 13.9349   1
   2  11   1 120.306 18.8094   1
  -8  12   1 9.62741  13.978   1
  -7  12   1 323.159 33.1563   1
  -6  12   1 19.7477 8.76771   1
  -5  12   1 209.781  14.622   1
  -4  12   1 5.44643 12.3399   1
  -3  12   1 106.092 6.01392   1
  -2  12   1 181.061 9.51151   1
  -1  12   1-1.77541 4.54506   1
   0  12   1 278.895 13.6288   1
   1  12   1 16.5951 18.6267   1
  -6  13   1  82.322 13.0032   1
  -5  13   1 51.2935 27.1979   1
  -4  13   1 44.6002 10.5255   1
  -3  13   1 14.6454 9.10615   1
  -2  13   1 6.63719 6.95577   1
  -1  13   1 16.6825 7.14342   1
   3 -14   2 21.2256  8.1762   1
   4 -14   2 84.1686 20.6506   1
  -1 -13   2 70.9628 12.6442   1
   0 -13   2 82.5923 8.84955   1
   1 -13   2 90.9741 11.4995   1
   2 -13   2 240.424 11.8171   1
   3 -13   2-1.59193 5.52074   1
   4 -13   2 156.629 11.5931   1
   5 -13   2-9.85911 9.85911   1
   6 -13   2 136.165 20.4086   1
  -2 -12   2 8.33176 8.33176   1
  -1 -12   2 18.6402 4.10165   1
   0 -12   2 77.6676 6.59508   1
   1 -12   2-1.20665 4.12853   1
   2 -12   2 195.947  9.6325   1
   3 -12   2 3.33055 3.57984   1
   4 -12   2 269.575 12.0971   1
   5 -12   2-9.38692 9.38692   1
   6 -12   2 85.5396 13.6589   1
   7 -12   2 169.887 18.3562   1
   8 -12   2 26.1097 18.9616   1
  -4 -11   2 178.431 17.9158   1
  -3 -11   2 142.886 13.6519   1
  -2 -11   2 301.047 17.5221   1
  -1 -11   2 29.4256 4.22628   1
   0 -11   2 476.845 16.6638   1
   1 -11   2 41.2095 4.54037   1
   2 -11   2 576.337 18.0882   1
   3 -11   2 14.1081 3.37325   1
   4 -11   2 456.777 23.2175   1
   5 -11   2 182.017 11.8449   1
   6 -11   2 62.4197 6.49684   1
   7 -11   2 180.333 12.4267   1
   8 -11   2 17.3305 16.0238   1
   9 -11   2 119.037 25.7017   1
  -5 -10   2 169.998 16.6196   1
  -4 -10   2 308.743 26.3355   1
  -3 -10   2 0.74186 7.88347   1
  -2 -10   2  169.45 22.1142   1
  -1 -10   2  41.772  4.2572   1
   0 -10   2 26.1486 3.81334   1
   1 -10   2 860.374 32.5053   1
   2 -10   2 754.433 19.8051   1
   3 -10   2 240.848 12.0329   1
   4 -10   2 11.4436 2.80616   1
   5 -10   2 226.475 10.8652   1
   6 -10   2 29.8121 4.83574   1
   7 -10   2 115.207 9.80038   1
   8 -10   2 36.0412 8.64427   1
   9 -10   2 313.471 35.0244   1
  -6  -9   2 22.6138  23.138   1
  -5  -9   2  42.654 9.94326   1
  -4  -9   2 281.499  26.194   1
  -3  -9   2 97.9722 10.1344   1
  -2  -9   2  114.63 4.40771   1
  -1  -9   2 396.568  13.482   1
   0  -9   2 486.452 12.9085   1
   1  -9   2 829.861 20.6369   1
   2  -9   2 724.953 15.0152   1
   3  -9   2 694.751 15.8608   1
   4  -9   2  1.3375 2.22584   1
   5  -9   2 393.062 13.6953   1
   6  -9   2 106.119 9.59269   1
   7  -9   2 417.604 18.0469   1
   8  -9   2 114.116 6.92186   1
   9  -9   2 186.857 11.7262   1
  10  -9   2  12.378 18.2024   1
  -7  -8   2 33.6432 22.6572   1
  -6  -8   2  316.17 20.3329   1
  -5  -8   2 272.734 20.6099   1
  -4  -8   2 143.147 18.4903   1
  -3  -8   2 201.079 12.1743   1
  -2  -8   2 618.523 13.9905   1
  -1  -8   2 667.563 15.3869   1
   0  -8   2 16.6025  2.4979   1
   1  -8   2 1466.65 28.9858   1
   2  -8   2 30.9345 2.64209   1
   3  -8   2 150.983 4.87203   1
   4  -8   2 565.978 12.8081   1
   5  -8   2 208.051 7.51654   1
   6  -8   2 401.622 10.6159   1
   7  -8   2 214.581 17.4595   1
   8  -8   2 1038.85 34.4866   1
   9  -8   2 6.30698  19.869   1
  10  -8   2-5.51273 11.1861   1
  -7  -7   2 57.1628 10.3987   1
  -6  -7   2 20.8546 7.82785   1
  -5  -7   2  245.96 21.9195   1
  -4  -7   2 141.368 10.2301   1
  -3  -7   2 130.469 7.77333   1
  -2  -7   2   7.137  2.6915   1
  -1  -7   2 671.157 14.5354   1
   0  -7   2 1.12466 1.68698   1
   1  -7   2 1158.38 22.5672   1
   2  -7   2 268.648  6.6902   1
   3  -7   2 2471.73 46.4595   1
   4  -7   2 479.865 13.3574   1
   5  -7   2 267.219 6.87183   1
   6  -7   2 556.758 12.3385   1
   7  -7   2 98.5462 6.77937   1
   8  -7   2 11.6698 4.78174   1
   9  -7   2 27.5142  7.7474   1
  10  -7   2 72.4854 12.9948   1
  -8  -6   2 207.987  18.017   1
  -7  -6   2 175.383  15.381   1
  -6  -6   2 43.0802  7.1488   1
  -5  -6   2  437.31 16.5908   1
  -4  -6   2 379.681 14.1876   1
  -3  -6   2 3374.44 76.1728   1
  -2  -6   2 170.798 4.89467   1
  -1  -6   2 1196.64 22.3125   1
   0  -6   2 679.463 15.2592   1
   1  -6   2 299.785 10.0254   1
   2  -6   2 98.6135 3.68854   1
   3  -6   2 4.31861 1.45953   1
   4  -6   2 1089.11 20.2797   1
   5  -6   2  3.1164 1.82963   1
   6  -6   2 1144.26 24.1566   1
   7  -6   2 180.863 9.18216   1
   8  -6   2 423.719 15.9952   1
   9  -6   2 13.0691 7.07162   1
  10  -6   2 55.8881 9.81576   1
  -9  -5   2 0.52854 9.63808   1
  -8  -5   2 48.6149 10.5095   1
  -7  -5   2 449.897  23.599   1
  -6  -5   2 13.6039 5.36998   1
  -5  -5   2 424.935 14.2004   1
  -4  -5   2 505.546  15.278   1
  -3  -5   2 318.862 10.6839   1
  -2  -5   2 82.3894 3.00735   1
  -1  -5   2  347.31  7.5865   1
   0  -5   2 2047.09  38.351   1
   1  -5   2 1156.39 22.1513   1
   2  -5   2 8248.22 175.704   1
   3  -5   2 36.4052 2.37773   1
   4  -5   2 1408.96 27.1836   1
   5  -5   2 210.237 6.42823   1
   6  -5   2 843.395  19.993   1
   7  -5   2 36.4286 6.04294   1
   8  -5   2 150.377 10.0271   1
   9  -5   2 317.786 17.8447   1
  10  -5   2 15.0297 7.74829   1
  -9  -4   2  204.77 17.3664   1
  -8  -4   2 0.87583 6.49494   1
  -7  -4   2 528.336 33.0433   1
  -6  -4   2-2.13926 8.23564   1
  -5  -4   2 2102.18 54.9579   1
  -4  -4   2 1473.66 35.6993   1
  -3  -4   2 393.195 11.7782   1
  -2  -4   2 717.811 14.8355   1
  -1  -4   2 2.61328 1.06907   1
   0  -4   2 2071.19 38.3456   1
   1  -4   2 2.62575 0.96376   1
   2  -4   2 934.132  21.528   1
   3  -4   2 114.078 3.56994   1
   4  -4   2 1203.81 28.0663   1
   5  -4   2 293.345 9.44513   1
   6  -4   2 134.602 8.02478   1
   7  -4   2 554.406 16.7166   1
   8  -4   2 41.0211 5.84873   1
   9  -4   2 584.598 46.5789   1
  10  -4   2 24.5354  7.7287   1
  -9  -3   2  161.60 14.8014   1
  -8  -3   2 140.778 13.3529   1
  -7  -3   2 174.433 13.4133   1
  -6  -3   2 227.357  21.816   1
  -5  -3   2 902.251 25.8915   1
  -4  -3   2 1309.78 34.1757   1
  -3  -3   2 450.121 12.4231   1
  -2  -3   2 3068.67  52.806   1
  -1  -3   2 913.882 16.4358   1
   0  -3   211340.80  391.47   1
   1  -3   2 2615.18 56.5513   1
   2  -3   2 21.2132 1.50956   1
   3  -3   2 2337.89 51.4141   1
   4  -3   2 304.954   9.123   1
   5  -3   2 2230.44 56.8791   1
   6  -3   2 7.64692 2.94736   1
   7  -3   2 1027.20 27.0296   1
   8  -3   2  132.79 9.85964   1
   9  -3   2 90.8601 11.2535   1
  10  -3   2 16.4279 13.4022   1
 -10  -2   2 91.9676 12.9593   1
  -9  -2   2 129.949 31.4953   1
  -8  -2   2 130.744 5.86086   1
  -7  -2   2 165.476 6.43104   1
  -6  -2   2 2076.32 47.4705   1
  -5  -2   2 217.759 8.65714   1
  -4  -2   2 1610.45  36.675   1
  -3  -2   2 851.536 18.0181   1
  -2  -2   2 1399.74 26.1544   1
  -1  -2   2 12.6439  0.9614   1
   0  -2   2 1176.99 23.4637   1
   1  -2   2 281.355 6.88435   1
   2  -2   2 722.441 15.2604   1
   3  -2   2 1288.97 26.8021   1
   4  -2   2 429.727 13.1987   1
   5  -2   2 144.462 8.06404   1
   6  -2   2 41.1708 4.64553   1
   7  -2   2 279.441 9.73212   1
   8  -2   2 53.1985 6.58002   1
   9  -2   2 96.8504 11.1423   1
  10  -2   2 183.015 15.9718   1
 -10  -1   2  252.41  17.328   1
  -9  -1   2 77.2316 8.11459   1
  -8  -1   2  369.13 11.5129   1
  -7  -1   2-0.75914  2.3179   1
  -6  -1   2 129.375 9.56519   1
  -5  -1   2 146.119 6.86885   1
  -4  -1   2 4317.97 105.222   1
  -3  -1   2 1942.59 42.9705   1
  -2  -1   2 440.527 8.84278   1
  -1  -1   2 6156.49 212.759   1
   0  -1   2 381.819 7.36785   1
   1  -1   2 4911.94 170.508   1
   2  -1   2  283.40 6.91243   1
   3  -1   2 8718.16 241.648   1
   4  -1   2 354.825 10.5342   1
   5  -1   2 532.024 15.2955   1
   6  -1   2 878.421 22.7065   1
   7  -1   2 109.254 6.65682   1
   8  -1   2 130.676 9.59029   1
   9  -1   2  100.83 8.34078   1
  10  -1   2 50.1738 8.39562   1
 -10   0   2 186.574 9.87474   1
  -9   0   2 21.9507 4.37234   1
  -8   0   2 585.083 15.6399   1
  -7   0   2 309.395 10.0555   1
  -6   0   2 1367.89 37.0954   1
  -5   0   2 697.927 20.2547   1
  -4   0   2 1106.46  29.178   1
  -3   0   2 2905.20   70.45   1
  -2   0   2 1058.69 23.4431   1
  -1   0   2 31.2176 0.95276   1
   0   0   2  852.64 14.8143   1
   1   0   210175.50 492.607   1
   2   0   2 72.3812 2.64785   1
   3   0   2 17.4435  2.2625   1
   4   0   2 16.2138 2.61414   1
   5   0   2 671.651  18.264   1
   6   0   2 406.065 11.9344   1
   7   0   2 96.4562 6.75234   1
   8   0   2 493.728 16.8865   1
   9   0   2 9.55608 4.88663   1
  10   0   2 89.8372 9.80538   1
 -11   1   2 5.32644 6.60799   1
 -10   1   2 162.743 9.93728   1
  -9   1   2  46.409 5.90534   1
  -8   1   2  598.55 16.2439   1
  -7   1   2 335.711 10.4465   1
  -6   1   2 436.244 12.6497   1
  -5   1   2 2227.52 56.4734   1
  -4   1   2 2.76268 1.70636   1
  -3   1   2 206.053 6.08021   1
  -2   1   2 456.773 9.18356   1
  -1   1   2 2784.65  67.054   1
   0   1   2 6537.12 228.071   1
   1   1   214176.50 686.997   1
   2   1   2 4814.75 87.7567   1
   3   1   2 786.477 17.7631   1
   4   1   2 1315.91 31.4125   1
   5   1   2 5.03831 2.34103   1
   6   1   2 674.369 17.1085   1
   7   1   2 21.2524 3.64669   1
   8   1   2 452.731 20.3138   1
   9   1   2  20.526 3.63915   1
 -11   2   2 108.082 10.8281   1
 -10   2   2 106.109 8.94928   1
  -9   2   2 437.349 13.8298   1
  -8   2   2 237.592 10.4663   1
  -7   2   2 134.456  6.6816   1
  -6   2   2 102.372 6.48379   1
  -5   2   2 1332.33 31.2928   1
  -4   2   2 493.561 10.6579   1
  -3   2   2 3730.46 68.0806   1
  -2   2   2 1605.45 27.8234   1
  -1   2   2 2161.88 39.6938   1
   0   2   2 4649.55 91.1184   1
   1   2   2 1248.24   23.85   1
   2   2   2  966.40 19.1399   1
   3   2   2 16.4963 2.03157   1
   4   2   2 841.931 19.6694   1
   5   2   2 457.634 12.1234   1
   6   2   2  436.17 15.5685   1
   7   2   2 322.051 10.5235   1
   8   2   2 302.662 26.5514   1
   9   2   2-4.67199 17.1206   1
 -11   3   2 46.2388 8.16154   1
 -10   3   2 370.627 17.3478   1
  -9   3   2 226.544 10.2318   1
  -8   3   2 6.68871 3.63648   1
  -7   3   2 484.431 13.6282   1
  -6   3   2 232.269 7.86488   1
  -5   3   2 746.793 18.5961   1
  -4   3   2 13.0767 1.78135   1
  -3   3   2 1115.26 22.7226   1
  -2   3   2 372.315 8.95959   1
  -1   3   2 219.318 5.03862   1
   0   3   2 2354.13 43.7179   1
   1   3   2 9.37557  1.5209   1
   2   3   2 920.385 18.6379   1
   3   3   2 241.258 6.50233   1
   4   3   2 691.245 15.7679   1
   5   3   2 155.014 10.3229   1
   6   3   2 302.187 16.6865   1
   7   3   2 105.245 13.2048   1
   8   3   2 91.1336 13.0587   1
 -11   4   2 267.859 15.1397   1
 -10   4   2 19.7217 6.65632   1
  -9   4   2  223.98 11.0216   1
  -8   4   2-1.86126 3.34021   1
  -7   4   2 480.454 13.5958   1
  -6   4   2 823.897 22.9202   1
  -5   4   2 1705.09 38.8895   1
  -4   4   2 2262.27 45.7941   1
  -3   4   2 377.601 9.64394   1
  -2   4   2 2374.45 44.2118   1
  -1   4   2 34.3348 2.21258   1
   0   4   2 1633.26 31.2399   1
   1   4   2 9.68944  1.6838   1
   2   4   2 1668.75  32.493   1
   3   4   2 743.589 17.4464   1
   4   4   2 97.1502 6.92126   1
   5   4   2 533.898 21.5177   1
   6   4   2  56.898 12.3764   1
   7   4   2 115.701 12.3044   1
   8   4   2-4.11535 12.9109   1
 -11   5   2 494.196 20.2443   1
 -10   5   2 7.23753 6.78209   1
  -9   5   2 122.412 8.04723   1
  -8   5   2 428.486 16.8555   1
  -7   5   2 186.109 8.31215   1
  -6   5   2 427.886 12.4067   1
  -5   5   2 13.8405 2.13632   1
  -4   5   2 1483.62 36.8199   1
  -3   5   2 20.6595 2.50571   1
  -2   5   2 954.856 19.1515   1
  -1   5   2 221.223 6.72807   1
   0   5   2 676.376 14.5128   1
   1   5   2 176.962 5.64837   1
   2   5   2 149.234 6.47872   1
   3   5   2 210.414 9.49494   1
   4   5   2 47.1046 5.25386   1
   5   5   2 345.644 18.2293   1
   6   5   2 21.1707 7.83336   1
   7   5   2 198.997 16.2587   1
 -11   6   2 18.6861 10.2858   1
 -10   6   2 31.7343 7.27677   1
  -9   6   2 35.6889 5.66126   1
  -8   6   2 771.387 25.4283   1
  -7   6   2 50.9385 4.26668   1
  -6   6   2 1502.48 32.6369   1
  -5   6   2 1.33294 1.13098   1
  -4   6   2 2047.90 46.7117   1
  -3   6   2 44.1211 3.87911   1
  -2   6   2 438.505 10.9873   1
  -1   6   2 1264.40 27.3215   1
   0   6   2 617.156 15.0504   1
   1   6   2 2273.58 47.4823   1
   2   6   2-0.11084 2.78111   1
   3   6   2 1303.62 33.9028   1
   4   6   2 18.4516 6.36502   1
   5   6   2 542.477 57.4928   1
   6   6   2 31.7961 8.76792   1
   7   6   2 -20.733 21.6295   1
 -11   7   2 45.0799 14.5717   1
 -10   7   2 284.129 14.2203   1
  -9   7   2-0.80531 3.99672   1
  -8   7   2 371.137 13.0859   1
  -7   7   2 26.5682 2.91639   1
  -6   7   2  29.033 2.16064   1
  -5   7   2 623.698 17.3479   1
  -4   7   2 179.087 7.95181   1
  -3   7   2 794.709 18.2787   1
  -2   7   2 1.08726  1.8423   1
  -1   7   2 894.612 20.5635   1
   0   7   2   21.88  3.2206   1
   1   7   2 215.658 7.90741   1
   2   7   2 9.57401 2.33367   1
   3   7   2 64.4225 8.22836   1
   4   7   2 63.0864 9.24822   1
   5   7   2 52.1294 9.60825   1
   6   7   2 73.2574 11.8851   1
 -10   8   2  92.311 10.3245   1
  -9   8   2-0.11938 6.24745   1
  -8   8   2 152.962 12.2987   1
  -7   8   2  61.226 8.66386   1
  -6   8   2 242.413 12.2021   1
  -5   8   2 762.654 20.9712   1
  -4   8   2 279.937 11.2039   1
  -3   8   2 293.157 9.54205   1
  -2   8   2 30.4212 3.33671   1
  -1   8   2 820.952 19.6859   1
   0   8   2  99.596 5.73825   1
   1   8   2 273.913 11.6183   1
   2   8   2 518.826 13.4409   1
   3   8   2 347.319 17.9654   1
   4   8   2 202.745 21.2329   1
   5   8   2-6.34157 8.15054   1
 -10   9   2 57.9676 16.3793   1
  -9   9   2 136.974 18.9543   1
  -8   9   2 27.5397 8.37344   1
  -7   9   2 358.691 20.6522   1
  -6   9   2 13.1832 6.60157   1
  -5   9   2 560.794 22.1835   1
  -4   9   2 4.85136 4.40308   1
  -3   9   2 411.376 12.5356   1
  -2   9   2 30.6076 3.92788   1
  -1   9   2 50.5235 4.98985   1
   0   9   2 357.681 17.0221   1
   1   9   2 56.3203 5.24895   1
   2   9   2 62.0662  8.7359   1
   3   9   2 65.5877 9.38101   1
   4   9   2 61.9219 10.5414   1
  -9  10   2 111.826 13.3376   1
  -8  10   2 73.5559 10.9539   1
  -7  10   2  244.47 35.2317   1
  -6  10   2 7.59304 7.34457   1
  -5  10   2  191.96 18.7573   1
  -4  10   2 6.34391 7.36488   1
  -3  10   2 282.758 14.0063   1
  -2  10   2  182.75 8.30009   1
  -1  10   2 58.8004 5.01017   1
   0  10   2 340.121 12.2679   1
   1  10   2  102.32 5.77118   1
   2  10   2 352.971 32.7268   1
   3  10   2 2.68704 9.48733   1
  -8  11   2 41.3872 9.86472   1
  -7  11   2 197.901 19.2191   1
  -6  11   2 133.872 14.2685   1
  -5  11   2 386.052 19.3096   1
  -4  11   2 236.749 20.6797   1
  -3  11   2 97.0613 4.42089   1
  -2  11   2 139.607 7.57097   1
  -1  11   2  67.269 6.86296   1
   0  11   2 447.898 13.4799   1
   1  11   2 9.26526 4.36252   1
   2  11   2 122.758 18.1381   1
  -7  12   2 15.5988 9.63972   1
  -6  12   2 51.4763 11.6602   1
  -5  12   2 14.7183 22.1585   1
  -4  12   2 107.472 12.6735   1
  -3  12   2 3.80206 21.2956   1
  -2  12   2  50.643 10.9581   1
  -1  12   2 43.0813 6.63106   1
   0  12   2 295.567 16.0106   1
  -5  13   2 0.15961 11.5769   1
  -4  13   2 151.994 30.0352   1
  -3  13   2 25.2987 19.2257   1
   2 -14   3 269.589 21.9185   1
   3 -14   3-2.10169 8.73915   1
   4 -14   3 197.069 14.2456   1
  -1 -13   3 6.71772  13.789   1
   0 -13   3 122.961  10.414   1
   1 -13   3 18.8003 6.46838   1
   2 -13   3 62.4625 8.88247   1
   3 -13   3 112.855 9.57499   1
   4 -13   3 110.746 10.3563   1
   5 -13   3-0.34907 6.70424   1
   6 -13   3 23.3775 7.97572   1
  -3 -12   3-10.0944 10.1375   1
  -2 -12   3  150.67 15.7195   1
  -1 -12   3 10.3491 4.93245   1
   0 -12   3 159.093 11.4209   1
   1 -12   3 245.881 10.0089   1
   2 -12   3 121.782 9.80744   1
   3 -12   3  123.15 6.81065   1
   4 -12   3 24.9605 7.47015   1
   5 -12   3 216.997 11.6212   1
   6 -12   3-5.56044 5.56044   1
   7 -12   3 107.299 17.6807   1
   8 -12   3 8.49523 16.3896   1
  -4 -11   3 133.246 15.4149   1
  -3 -11   3 13.1047 8.92493   1
  -2 -11   3 502.418  33.472   1
  -1 -11   3 284.112 12.5015   1
   0 -11   3 345.832 17.9956   1
   1 -11   3 194.055  7.9491   1
   2 -11   3 65.7559 4.78819   1
   3 -11   3 258.723 14.5848   1
   4 -11   3 401.395   14.77   1
   5 -11   3 250.796 11.5952   1
   6 -11   3  102.10 10.4651   1
   7 -11   3  238.79  12.372   1
   8 -11   3 109.553 23.6315   1
  -5 -10   3 141.171 15.1934   1
  -4 -10   3 148.595 14.7855   1
  -3 -10   3 195.943 14.1716   1
  -2 -10   3 288.088 12.0863   1
  -1 -10   3 209.743 8.15035   1
   0 -10   3 21.8873 3.57019   1
   1 -10   3 199.098 8.07636   1
   2 -10   3 30.2064 3.40046   1
   3 -10   3 488.706 12.8335   1
   4 -10   3 830.658 28.7985   1
   5 -10   3 197.435 11.3483   1
   6 -10   3 67.1443 6.63461   1
   7 -10   3 144.529 9.45931   1
   8 -10   3 92.2681 29.5945   1
   9 -10   3 418.078 38.3092   1
  -6  -9   3 57.9523  11.172   1
  -5  -9   3 334.052 28.1609   1
  -4  -9   3 363.672 29.5399   1
  -3  -9   3 933.488 51.1495   1
  -2  -9   3-0.45653 1.87572   1
  -1  -9   3  508.45 14.0993   1
   0  -9   3  13.347 3.74354   1
   1  -9   3 491.363 21.9879   1
   2  -9   3 223.226  7.5164   1
   3  -9   3 2279.82 58.7882   1
   4  -9   3 165.432 9.01161   1
   5  -9   3 188.002 12.9061   1
   6  -9   3 501.308  17.051   1
   7  -9   3 9.80532  5.0125   1
   8  -9   3 252.812 20.1922   1
   9  -9   3 87.3292 20.3514   1
  -7  -8   3 15.0278 10.2669   1
  -6  -8   3 42.5637 9.42879   1
  -5  -8   3 424.591 22.4381   1
  -4  -8   3 15.1289 5.20117   1
  -3  -8   3 68.9959 6.93346   1
  -2  -8   3 0.54087 1.77285   1
  -1  -8   3 348.098 8.67084   1
   0  -8   3  203.02 9.75789   1
   1  -8   3 57.4799 4.54553   1
   2  -8   3 2838.25 49.6709   1
   3  -8   3 59.3848 4.16893   1
   4  -8   3  114.23 5.98052   1
   5  -8   3 5.48234 2.75117   1
   6  -8   3  274.51 11.4721   1
   7  -8   3  38.547 3.36711   1
   8  -8   3 413.432 14.0415   1
   9  -8   3 9.69044 8.76136   1
  10  -8   3 12.4729 17.0973   1
  -8  -7   3 23.8456 10.6213   1
  -7  -7   3 265.137 37.6005   1
  -6  -7   3 10.8067 6.46632   1
  -5  -7   3 888.165 30.4203   1
  -4  -7   3 206.021 9.94845   1
  -3  -7   3 1005.14  34.409   1
  -2  -7   3 60.1582 3.17684   1
  -1  -7   3 441.395 11.9492   1
   0  -7   3 709.171 15.1952   1
   1  -7   3 506.263 12.1403   1
   2  -7   3 1416.29  29.533   1
   3  -7   3 643.573 16.5885   1
   4  -7   3 771.874 19.6982   1
   5  -7   3 37.2347 3.79966   1
   6  -7   3 619.505 14.8556   1
   7  -7   3 157.553 10.5262   1
   8  -7   3  53.716 6.22563   1
   9  -7   3 92.0587 10.0118   1
  10  -7   3 -1.6629 7.76354   1
  -8  -6   3 27.5779 10.6154   1
  -7  -6   3 161.263 14.2951   1
  -6  -6   3 59.5903 7.33267   1
  -5  -6   3 450.778 16.2609   1
  -4  -6   3  126.24 8.28483   1
  -3  -6   3 310.424 10.6159   1
  -2  -6   3 809.639 20.4244   1
  -1  -6   3  47.925 3.02357   1
   0  -6   3 2101.97 39.6493   1
   1  -6   3 1212.99 23.4652   1
   2  -6   3 1610.98 40.7301   1
   3  -6   3 189.762 6.70512   1
   4  -6   3 567.548 15.1175   1
   5  -6   3 713.688 16.3953   1
   6  -6   3 15.6229 2.73276   1
   7  -6   3 383.842 13.9911   1
   8  -6   3 28.7181 6.46606   1
   9  -6   3 206.931 14.4682   1
  10  -6   3 11.5191 7.86572   1
  -9  -5   3 125.531 14.9444   1
  -8  -5   3 25.2296 11.3513   1
  -7  -5   3  219.71 15.4703   1
  -6  -5   3 419.022 21.5057   1
  -5  -5   3  36.745 4.69537   1
  -4  -5   3 2858.28 115.827   1
  -3  -5   3 122.244 5.72591   1
  -2  -5   3 1931.08 37.0034   1
  -1  -5   3 79.6381 3.45255   1
   0  -5   3 4621.55 84.1307   1
   1  -5   3 448.731 10.2819   1
   2  -5   3 1420.38 32.1996   1
   3  -5   3 636.714 15.9853   1
   4  -5   3 441.444 10.8125   1
   5  -5   3 494.611 12.4048   1
   6  -5   3 135.317 7.24014   1
   7  -5   3 803.306 30.3216   1
   8  -5   3 132.356 13.7206   1
   9  -5   3 184.793 12.9569   1
  10  -5   3 11.5154 8.17833   1
  -9  -4   3 39.2858 8.77884   1
  -8  -4   3  79.585 10.0281   1
  -7  -4   3 92.8518 10.5674   1
  -6  -4   3 653.942 24.7894   1
  -5  -4   3 431.548 14.9887   1
  -4  -4   3 897.962 31.0412   1
  -3  -4   3 144.177 4.85454   1
  -2  -4   3 945.017 18.5757   1
  -1  -4   3 456.848 9.56977   1
   0  -4   3 848.735   17.81   1
   1  -4   3 2306.02 42.1722   1
   2  -4   3 1621.45 36.1706   1
   3  -4   3 4452.61 88.0598   1
   4  -4   3 318.121 9.73973   1
   5  -4   3 995.921 24.5397   1
   6  -4   3 78.3586 6.57949   1
   7  -4   3  793.29 24.2129   1
   8  -4   3 133.093 9.94333   1
   9  -4   3 167.561 15.1769   1
  10  -4   3 179.012 16.5552   1
 -10  -3   3 54.2954 15.7697   1
  -9  -3   3 66.9956 9.67923   1
  -8  -3   3 225.637 17.7518   1
  -7  -3   3  37.241 6.91132   1
  -6  -3   3 1125.76 26.7214   1
  -5  -3   3  540.28 23.6935   1
  -4  -3   3 483.976 12.6071   1
  -3  -3   3 1182.53 22.9282   1
  -2  -3   3  240.81 5.57687   1
  -1  -3   3 5473.57 151.664   1
   0  -3   3 251.162 5.52271   1
   1  -3   3 1443.59 26.8772   1
   2  -3   3  252.88 5.77257   1
   3  -3   3 1035.09 21.9689   1
   4  -3   3 626.955 16.1342   1
   5  -3   3 365.314 13.2588   1
   6  -3   3 438.137 15.0012   1
   7  -3   3  277.76 13.3444   1
   8  -3   3 122.631 9.03328   1
   9  -3   3 17.4973 7.69959   1
  10  -3   3 68.3783 11.1837   1
 -10  -2   3  90.389 11.9722   1
  -9  -2   3  63.661 3.80962   1
  -8  -2   3 569.896 16.6684   1
  -7  -2   3 8.21358 2.43178   1
  -6  -2   3  347.85 12.1243   1
  -5  -2   3 63.5735 5.31486   1
  -4  -2   3 578.173 14.5368   1
  -3  -2   3 724.038 14.5065   1
  -2  -2   3 5012.66 90.8142   1
  -1  -2   3 771.412 15.7564   1
   0  -2   3 1515.83 26.0574   1
   1  -2   3 4097.17 113.459   1
   2  -2   3 1381.00 26.1304   1
   3  -2   3 308.108 8.13588   1
   4  -2   3  795.32 18.2372   1
   5  -2   3 359.259 10.3784   1
   6  -2   3 1278.79 31.4147   1
   7  -2   3 111.612 6.72544   1
   8  -2   3 346.716 24.9791   1
   9  -2   3-3.53811  5.9199   1
  10  -2   3 195.281 21.2852   1
 -10  -1   3 303.139 16.1886   1
  -9  -1   3 114.233   6.474   1
  -8  -1   3 393.091 13.6187   1
  -7  -1   3 697.768 18.9282   1
  -6  -1   3 603.978 21.5118   1
  -5  -1   3 971.518 27.0099   1
  -4  -1   3 20.9063 2.13641   1
  -3  -1   3 5941.25 127.253   1
  -2  -1   3 2539.29 54.8301   1
  -1  -1   3  943.29 17.7359   1
   0  -1   3 2199.73 43.4367   1
   1  -1   3 804.341 16.7555   1
   2  -1   3 546.186 11.3452   1
   3  -1   3 2767.32 51.6199   1
   4  -1   3  510.47 14.0458   1
   5  -1   3 4.21694 2.79436   1
   6  -1   3 200.157 10.0721   1
   7  -1   3 9.81172 4.25508   1
   8  -1   3 57.0484 8.37898   1
   9  -1   3-2.28268 9.17025   1
  10  -1   3 107.829  15.238   1
 -11   0   3 17.7861 6.81062   1
 -10   0   3 298.974  15.162   1
  -9   0   3 562.761 16.3724   1
  -8   0   3 382.363 17.4587   1
  -7   0   3 8.81141  2.9914   1
  -6   0   3 6.58611 2.36608   1
  -5   0   3 1497.14 31.5775   1
  -4   0   3  73.907 3.39499   1
  -3   0   3 5640.53 110.617   1
  -2   0   3 409.492  7.7522   1
  -1   0   310236.00 354.161   1
   0   0   3  544.87 10.6973   1
   1   0   3 640.443 12.2064   1
   2   0   3 880.822  18.975   1
   3   0   3 187.836 7.63768   1
   4   0   3 1429.43 37.4312   1
   5   0   3 75.7391 5.49851   1
   6   0   3 960.856 25.4731   1
   7   0   3 113.812 8.81308   1
   8   0   3 510.595 19.1895   1
   9   0   3  81.912 8.51433   1
 -11   1   3 209.415 16.3135   1
 -10   1   3 22.3282 5.27167   1
  -9   1   3 180.777 9.25102   1
  -8   1   3 35.8026 4.38214   1
  -7   1   3 823.764 23.5606   1
  -6   1   3 1031.64 28.3986   1
  -5   1   3 2231.94 50.2887   1
  -4   1   3 5333.97  115.36   1
  -3   1   3 819.412 17.3573   1
  -2   1   3 1837.04 31.7848   1
  -1   1   3 325.872 6.34281   1
   0   1   3 1222.02 21.5236   1
   1   1   3 1073.97 19.3989   1
   2   1   3 4245.03 77.8524   1
   3   1   3 624.153 13.5575   1
   4   1   3 894.301 22.7585   1
   5   1   3  292.37 10.3882   1
   6   1   3 214.877 11.1259   1
   7   1   3 192.688 12.6317   1
   8   1   3 211.069 9.65542   1
   9   1   3 38.5888 5.30396   1
 -11   2   3 138.012 14.0195   1
 -10   2   3 56.3284 6.10636   1
  -9   2   3 361.455 11.9599   1
  -8   2   3 6.82751 3.16667   1
  -7   2   3 184.741  7.8702   1
  -6   2   3 854.192 20.3209   1
  -5   2   3 1617.73 33.9965   1
  -4   2   3 12.7938 1.66391   1
  -3   2   3 752.119 15.0872   1
  -2   2   3 1454.35 25.4716   1
  -1   2   3 230.057 4.94099   1
   0   2   3 163.761 4.37145   1
   1   2   3 1251.14 24.2157   1
   2   2   3 4043.83 80.3168   1
   3   2   3 85.7416 5.55403   1
   4   2   3 430.375 11.7489   1
   5   2   3 206.464 9.98694   1
   6   2   3 28.0053 3.47075   1
   7   2   3 341.478 11.2817   1
   8   2   3 25.6132 9.74942   1
   9   2   3 13.8178 11.6801   1
 -11   3   3 115.608 10.4126   1
 -10   3   3 13.0967 6.54835   1
  -9   3   3 308.656 10.8946   1
  -8   3   3 158.699 8.46771   1
  -7   3   3 53.8896 4.70594   1
  -6   3   3 1478.68 39.1012   1
  -5   3   3 0.10186 1.42597   1
  -4   3   3 1973.40 34.9445   1
  -3   3   3 18.7696 2.06205   1
  -2   3   3 2244.53 45.3756   1
  -1   3   3 137.987 4.00899   1
   0   3   3 514.045 11.0653   1
   1   3   3 2362.11 52.3961   1
   2   3   3 886.338 18.3244   1
   3   3   3 365.787 9.22682   1
   4   3   3  20.613 2.94761   1
   5   3   3 549.798 13.2599   1
   6   3   3 11.6178 6.47193   1
   7   3   3 385.357 45.7916   1
   8   3   3-2.22985 8.57942   1
 -11   4   3 69.4965 8.73166   1
 -10   4   3 268.059  15.917   1
  -9   4   3 89.9304 9.32788   1
  -8   4   3 672.557 17.7322   1
  -7   4   3 21.3786 3.41612   1
  -6   4   3 1261.69 29.8274   1
  -5   4   3 155.133 6.40288   1
  -4   4   3 1410.55 33.2887   1
  -3   4   3 138.544 8.79693   1
  -2   4   3 15.3938  1.5755   1
  -1   4   3 929.897 17.3827   1
   0   4   3 220.728 5.73947   1
   1   4   3 2664.39 46.9493   1
   2   4   3 369.594 8.70457   1
   3   4   3 288.676   7.601   1
   4   4   3 66.6536 5.65832   1
   5   4   3 174.175 13.3942   1
   6   4   3  71.805 9.58056   1
   7   4   3 49.5832 9.97994   1
   8   4   3 20.5564  11.938   1
 -11   5   3 23.7622 7.85453   1
 -10   5   3 255.881 19.4229   1
  -9   5   3 48.2741 5.32618   1
  -8   5   3 401.638 14.9654   1
  -7   5   3  3.1113  2.4345   1
  -6   5   3 694.338 16.0845   1
  -5   5   3 116.046 3.72085   1
  -4   5   3 771.545  20.221   1
  -3   5   3 417.117 10.9736   1
  -2   5   3  546.21 11.4109   1
  -1   5   3 1856.11 33.2313   1
   0   5   3 226.961 6.14967   1
   1   5   3 1505.92 27.9105   1
   2   5   3 66.7977 3.65308   1
   3   5   3 296.176 8.75629   1
   4   5   3  182.47 13.0499   1
   5   5   3 165.486 32.6994   1
   6   5   3 195.513 15.7324   1
   7   5   3 36.4252 10.1299   1
 -11   6   3-0.93688 7.98344   1
 -10   6   3 469.479 19.5249   1
  -9   6   3 29.6462 4.99075   1
  -8   6   3 220.629 11.0349   1
  -7   6   3  398.42 12.1017   1
  -6   6   3 304.902  7.9135   1
  -5   6   3 1591.93 42.1543   1
  -4   6   3  49.967 4.49652   1
  -3   6   3 1826.89 38.6851   1
  -2   6   3 73.3094 3.55391   1
  -1   6   3 2096.62 37.6915   1
   0   6   3  109.08 5.67938   1
   1   6   3 177.089 6.00217   1
   2   6   3 173.367 6.71195   1
   3   6   3 355.095 15.0641   1
   4   6   3 301.643 20.1161   1
   5   6   3-0.31452 6.55586   1
   6   6   3 363.548  51.109   1
 -11   7   3 45.2242  10.985   1
 -10   7   3 74.0217    7.14   1
  -9   7   3  111.28 7.67757   1
  -8   7   3 35.3767 3.22059   1
  -7   7   3 434.099 28.7871   1
  -6   7   3 182.501 15.1967   1
  -5   7   3 305.151 10.9773   1
  -4   7   3 60.1007  5.1653   1
  -3   7   3 347.117 11.5004   1
  -2   7   3 27.6403 2.40657   1
  -1   7   3 461.527 11.2801   1
   0   7   3 290.318 9.67894   1
   1   7   3 334.815 9.65322   1
   2   7   3 633.678 17.8372   1
   3   7   3  27.175  11.894   1
   4   7   3  199.74 21.0873   1
   5   7   3-5.13493 7.62762   1
   6   7   3 49.9351 24.0549   1
 -10   8   3 111.086 11.6308   1
  -9   8   3 81.5651 13.3689   1
  -8   8   3 22.2394 8.23533   1
  -7   8   3  528.74 37.3998   1
  -6   8   3 39.2773 5.89359   1
  -5   8   3 350.647 12.2644   1
  -4   8   3 868.199 23.2643   1
  -3   8   3 466.266 14.5245   1
  -2   8   3 739.124 16.3214   1
  -1   8   3 105.308 5.34872   1
   0   8   3 236.996  8.8763   1
   1   8   3 16.3906 3.87521   1
   2   8   3 387.783 13.0513   1
   3   8   3 6.99278 7.77959   1
   4   8   3 24.2064 8.81051   1
   5   8   3 43.9756 21.7946   1
 -10   9   3-3.18899 12.7661   1
  -9   9   3 215.923 19.7927   1
  -8   9   3 0.66654 7.13293   1
  -7   9   3 199.187 16.7588   1
  -6   9   3 20.1815 7.71471   1
  -5   9   3 158.206 12.1215   1
  -4   9   3 32.2019 6.19382   1
  -3   9   3 250.545  12.347   1
  -2   9   3 181.363  7.0796   1
  -1   9   3 88.4351 5.54697   1
   0   9   3 289.794 10.8105   1
   1   9   3 50.5365 5.70368   1
   2   9   3 120.732  11.712   1
   3   9   3 13.5179 8.17897   1
   4   9   3 31.3966 16.6119   1
  -9  10   3 356.716 23.1711   1
  -8  10   3 39.2922 19.0004   1
  -7  10   3 132.718 14.0228   1
  -6  10   3 181.672  15.731   1
  -5  10   3-0.34696  6.8996   1
  -4  10   3 669.832 27.2399   1
  -3  10   3  12.225 6.71041   1
  -2  10   3 255.184 8.90016   1
  -1  10   3  66.549 5.55971   1
   0  10   3 234.361 10.7708   1
   1  10   3 50.7185 5.01513   1
   2  10   3 120.756  12.641   1
   3  10   3 24.4865 19.8179   1
  -8  11   3 14.0653 11.2828   1
  -7  11   3 35.1555 12.0277   1
  -6  11   3 250.968 16.6831   1
  -5  11   3 9.20367 7.30909   1
  -4  11   3 474.951 26.6862   1
  -3  11   3 41.4085  10.136   1
  -2  11   3 457.398 18.9956   1
  -1  11   3 3.49185  4.5224   1
   0  11   3 12.2002 4.80706   1
   1  11   3 109.255 13.0057   1
  -7  12   3 23.7427 11.6996   1
  -6  12   3 257.496 21.8276   1
  -5  12   3 75.3353 14.1324   1
  -4  12   3 162.638 17.7477   1
  -3  12   3 37.3047 17.3679   1
  -2  12   3-5.39334 15.8907   1
  -1  12   3 87.7329 8.99257   1
   1 -14   4 172.653  17.659   1
   2 -14   4 107.854 16.7686   1
   3 -14   4 90.5787 20.2269   1
   4 -14   4 31.8316 9.18323   1
  -1 -13   4-1.23794 13.5433   1
   0 -13   4 70.5847 8.72883   1
   1 -13   4  181.65 10.9351   1
   2 -13   4 100.667 21.1213   1
   3 -13   4 87.6598 10.9676   1
   4 -13   4 16.5652 6.28337   1
   5 -13   4  6.7681 7.10701   1
   6 -13   4 16.3612 13.4336   1
  -3 -12   4 113.939 19.5946   1
  -2 -12   4 29.0048 23.8827   1
  -1 -12   4 53.4402 7.42616   1
   0 -12   4 19.5957 4.93883   1
   1 -12   4 250.093 10.7226   1
   2 -12   4 15.0682 4.08327   1
   3 -12   4  398.69 21.6406   1
   4 -12   4 144.951 19.3762   1
   5 -12   4 539.307 30.7799   1
   6 -12   4 8.79888 7.37122   1
   7 -12   4  97.287 10.8131   1
  -4 -11   4 71.3347 12.6555   1
  -3 -11   4 230.346 28.5146   1
  -2 -11   4 412.116 16.6382   1
  -1 -11   4 460.318 17.0518   1
   0 -11   4 61.8582 6.28278   1
   1 -11   4 334.393 12.0565   1
   2 -11   4 141.883  7.5396   1
   3 -11   4 12.5184 4.99743   1
   4 -11   4 41.9149 9.39627   1
   5 -11   4 217.152 23.4815   1
   6 -11   4 51.0683 6.57137   1
   7 -11   4 -3.3856 8.27254   1
   8 -11   4 77.8159 21.4963   1
  -5 -10   4  107.60 13.7813   1
  -4 -10   4-6.87568 6.87568   1
  -3 -10   4 96.7314 12.4184   1
  -2 -10   4  130.33 6.15259   1
  -1 -10   4 365.092 14.0618   1
   0 -10   4 34.0961 3.73221   1
   1 -10   4 462.507 11.7784   1
   2 -10   4 705.369 17.2167   1
   3 -10   4 1070.05 30.9174   1
   4 -10   4 513.763 20.7712   1
   5 -10   4 136.606 9.28983   1
   6 -10   4 382.105 18.8986   1
   7 -10   4 41.8716 13.6035   1
   8 -10   4 260.949 31.6817   1
  -6  -9   4 41.5165 9.99697   1
  -5  -9   4 255.329 18.9889   1
  -4  -9   4 55.5894 9.32404   1
  -3  -9   4 1761.98 47.5389   1
  -2  -9   4 336.494 12.4734   1
  -1  -9   4 157.365 6.69194   1
   0  -9   4  545.44  17.675   1
   1  -9   4  6.9694 2.38637   1
   2  -9   4 520.049 16.4767   1
   3  -9   4   8.301 2.98317   1
   4  -9   4 643.646 16.4638   1
   5  -9   4 115.198 9.45182   1
   6  -9   4 38.0275 5.43107   1
   7  -9   4 123.086 12.6852   1
   8  -9   4  46.038 16.2599   1
   9  -9   4 126.047 24.8914   1
  -7  -8   4 121.084 13.4424   1
  -6  -8   4 4.52484 10.6735   1
  -5  -8   4 4.26569 8.87619   1
  -4  -8   4 260.405 21.5972   1
  -3  -8   4 83.8036 6.81565   1
  -2  -8   4 236.097 7.06788   1
  -1  -8   4 136.503 5.32964   1
   0  -8   4  785.04 20.4711   1
   1  -8   4 15.7511 2.48175   1
   2  -8   4 2481.75 55.7452   1
   3  -8   4 67.8767 4.92686   1
   4  -8   4 284.406 10.9571   1
   5  -8   4 278.033 10.0905   1
   6  -8   4 271.863 13.2967   1
   7  -8   4 359.257 35.4972   1
   8  -8   4 29.6148 3.81289   1
   9  -8   4 535.369 22.6948   1
  -8  -7   4 2.87441 8.77834   1
  -7  -7   4 344.448 20.7605   1
  -6  -7   4 79.5487 8.26109   1
  -5  -7   4 81.8162 7.71271   1
  -4  -7   4 1847.26 48.9904   1
  -3  -7   4 294.435 8.66193   1
  -2  -7   4 1007.24 22.5628   1
  -1  -7   4 55.7303 3.68248   1
   0  -7   4 1863.92 38.5296   1
   1  -7   4 129.594  4.8779   1
   2  -7   4 277.512 9.79876   1
   3  -7   4 662.322 17.4056   1
   4  -7   4 6.15717 2.86333   1
   5  -7   4 162.873 9.43931   1
   6  -7   4 3.27528 1.84297   1
   7  -7   4 393.259 12.2556   1
   8  -7   4-3.07104 8.02659   1
   9  -7   4 175.237 12.5333   1
  10  -7   4 1.89188 9.54996   1
  -8  -6   4 58.3264 9.41006   1
  -7  -6   4  89.149 10.3243   1
  -6  -6   4  138.92 12.3878   1
  -5  -6   4  214.43 10.2472   1
  -4  -6   4 578.904   18.26   1
  -3  -6   4 96.9176 4.47858   1
  -2  -6   4 1308.05 27.9695   1
  -1  -6   4 95.1825 4.70793   1
   0  -6   4 19.3646 3.57347   1
   1  -6   4  428.17 10.2464   1
   2  -6   4 340.088 10.8349   1
   3  -6   4 883.926 21.6311   1
   4  -6   4 145.277  7.4082   1
   5  -6   4 1791.81 37.1115   1
   6  -6   4-1.63588 2.48894   1
   7  -6   4 466.333 22.1358   1
   8  -6   4 29.9958 7.84276   1
   9  -6   4 66.6429 9.67814   1
  10  -6   4-0.07019 8.27225   1
  -9  -5   4  125.63 13.9207   1
  -8  -5   4 358.575  20.258   1
  -7  -5   4 11.6234 8.37435   1
  -6  -5   4 887.818  29.415   1
  -5  -5   4 5.68486 3.20658   1
  -4  -5   4 1658.66 50.9246   1
  -3  -5   4 220.366 6.65807   1
  -2  -5   4 2506.33 55.5609   1
  -1  -5   4 1895.00 35.7067   1
   0  -5   4 671.718 14.7927   1
   1  -5   4 3107.33 56.8911   1
   2  -5   4 165.451 6.53567   1
   3  -5   4 1165.45 30.8362   1
   4  -5   4 122.998 6.43657   1
   5  -5   4 279.611 9.43944   1
   6  -5   4 137.078 7.66237   1
   7  -5   4 346.674 14.2628   1
   8  -5   4  196.56 13.4446   1
   9  -5   4 76.5537 10.1264   1
  10  -5   4 192.204 18.2203   1
  -9  -4   4 2.54729 7.69142   1
  -8  -4   4 214.503 14.9369   1
  -7  -4   4 75.8037 9.01761   1
  -6  -4   4 216.358 12.0317   1
  -5  -4   4 969.438  27.323   1
  -4  -4   4 929.656 18.8585   1
  -3  -4   4 2280.31  42.933   1
  -2  -4   4 58.2484 2.62308   1
  -1  -4   4 45.9966 2.28597   1
   0  -4   4  117.99 3.24796   1
   1  -4   4 2619.87   44.96   1
   2  -4   4 812.217 17.2586   1
   3  -4   4 1640.92 37.0265   1
   4  -4   4 2005.83 45.3814   1
   5  -4   4  403.93 12.9929   1
   6  -4   4 827.913 24.7589   1
   7  -4   4 67.7621 7.52467   1
   8  -4   4 140.146 20.5921   1
   9  -4   4 25.4139 10.5263   1
  10  -4   4 138.323 14.8651   1
 -10  -3   4 129.924 13.5102   1
  -9  -3   4 111.034 9.47026   1
  -8  -3   4 30.8475 6.91545   1
  -7  -3   4 424.962 12.4664   1
  -6  -3   4 623.291 20.2968   1
  -5  -3   4 218.021 8.24459   1
  -4  -3   4 45.9712 2.64179   1
  -3  -3   4 2599.31 48.4509   1
  -2  -3   4 112.007 3.26245   1
  -1  -3   4 1318.86 26.6674   1
   0  -3   4 2024.83 37.3699   1
   1  -3   4 3182.19 54.3859   1
   2  -3   4 152.283  4.2204   1
   3  -3   4 830.403  21.018   1
   4  -3   4 369.611 11.0618   1
   5  -3   4 345.297 16.2087   1
   6  -3   4 536.159 16.0541   1
   7  -3   4 10.3646 5.33752   1
   8  -3   4 366.445 20.2472   1
   9  -3   4 55.9747 9.75151   1
  10  -3   4 101.884 13.4003   1
 -10  -2   4 147.468 13.9482   1
  -9  -2   4 90.0509 5.00173   1
  -8  -2   4 620.543 16.2585   1
  -7  -2   4 521.506 16.8805   1
  -6  -2   4 36.7127  3.7193   1
  -5  -2   4 1426.46 33.2382   1
  -4  -2   4 499.026 15.1899   1
  -3  -2   4  413.52 8.84325   1
  -2  -2   4 80.7021 2.48451   1
  -1  -2   4 2166.97 39.7919   1
   0  -2   4 5514.32 198.844   1
   1  -2   4 695.172 14.7857   1
   2  -2   4 1386.01 28.6306   1
   3  -2   4  113.49 6.09133   1
   4  -2   4 1259.59 27.4822   1
   5  -2   4 137.493 7.24341   1
   6  -2   4 139.904 7.22112   1
   7  -2   4 144.758  11.186   1
   8  -2   4 163.518  14.125   1
   9  -2   4 184.776 17.0759   1
 -10  -1   4 2.01118 3.92377   1
  -9  -1   4 165.784 9.25411   1
  -8  -1   4 50.2507 4.89689   1
  -7  -1   4 338.991 11.5188   1
  -6  -1   4 65.8971 4.25109   1
  -5  -1   4 1026.63 22.4433   1
  -4  -1   4 751.009 16.2298   1
  -3  -1   4 5050.05 91.6449   1
  -2  -1   4 36.4103 2.36212   1
  -1  -1   4 652.691 12.7757   1
   0  -1   4 122.784 3.32324   1
   1  -1   4 528.072 10.8708   1
   2  -1   4 719.239 14.7576   1
   3  -1   4 48.2666 3.01035   1
   4  -1   4 2331.84 52.9959   1
   5  -1   4 15.3409 3.53865   1
   6  -1   4  402.79 13.4851   1
   7  -1   4 107.926 10.6023   1
   8  -1   4 125.545 9.73027   1
   9  -1   4  21.335 7.80962   1
 -11   0   4 109.482 16.0979   1
 -10   0   4 12.6298 4.15415   1
  -9   0   4 995.503 28.8553   1
  -8   0   4 18.1126    3.53   1
  -7   0   4 1764.83  41.516   1
  -6   0   4 277.912 8.99037   1
  -5   0   4 1132.43 24.3561   1
  -4   0   4 583.851 13.1573   1
  -3   0   4 1109.75 23.1248   1
  -2   0   4 5323.59 114.609   1
  -1   0   4 474.706  8.9447   1
   0   0   4 4299.24 78.0188   1
   1   0   4 653.287  12.419   1
   2   0   4 3386.31 62.6541   1
   3   0   4 551.556 22.3991   1
   4   0   4 761.926 20.0365   1
   5   0   4 20.7482 3.76871   1
   6   0   4-0.17063 4.87799   1
   7   0   4 434.228 24.1265   1
   8   0   4 19.5533  7.0108   1
   9   0   4 166.192 14.2285   1
 -11   1   4 83.8547 9.83603   1
 -10   1   4 268.643 10.5688   1
  -9   1   4 60.7177 6.52215   1
  -8   1   4 375.858 10.7673   1
  -7   1   4 181.282 7.17667   1
  -6   1   4 664.452 18.1861   1
  -5   1   4  7.3565  2.3328   1
  -4   1   4 2507.87 55.5607   1
  -3   1   4 89.7344 2.80546   1
  -2   1   4 2118.71 36.6888   1
  -1   1   4 23.4925 1.38075   1
   0   1   4 985.466 17.8602   1
   1   1   4 1581.57 28.1479   1
   2   1   4 1161.83 23.1466   1
   3   1   4 913.741 20.5701   1
   4   1   4 133.784 6.75987   1
   5   1   4 832.664 22.4897   1
   6   1   4 6.88798 6.05942   1
   7   1   4 367.156 14.3648   1
   8   1   4 53.9796 6.39817   1
   9   1   4 111.315 16.0619   1
 -11   2   4 105.982 13.0509   1
 -10   2   4 120.163 8.58939   1
  -9   2   4 263.612 9.80102   1
  -8   2   4 958.503 21.4489   1
  -7   2   4 361.598 12.6624   1
  -6   2   4 600.174 16.3476   1
  -5   2   4 43.2377 3.55546   1
  -4   2   4 2920.06 58.5322   1
  -3   2   4 580.384 11.1781   1
  -2   2   4 1246.81 22.2293   1
  -1   2   4 964.587 17.5582   1
   0   2   4 562.768 11.8769   1
   1   2   4 2591.77 48.5127   1
   2   2   4 175.521 5.44638   1
   3   2   4 608.693 13.7338   1
   4   2   4 4.48079 2.47356   1
   5   2   4 209.164 13.5528   1
   6   2   4  188.51   10.41   1
   7   2   4 114.995 6.27874   1
   8   2   4 13.6724 9.26097   1
 -11   3   4 11.7928 6.56915   1
 -10   3   4  357.21 14.6402   1
  -9   3   4 9.62681 4.72371   1
  -8   3   4 676.995 17.8425   1
  -7   3   4 59.2131 5.25638   1
  -6   3   4 96.8788 4.89905   1
  -5   3   4 610.344 14.8188   1
  -4   3   4 449.852 9.27123   1
  -3   3   4 1318.03 27.9832   1
  -2   3   4 20.9065 1.56573   1
  -1   3   4 1930.34 36.4784   1
   0   3   4 8.89557 2.06289   1
   1   3   4 2207.00  42.296   1
   2   3   4 12.4608 2.19538   1
   3   3   4 535.696 12.6386   1
   4   3   4 361.997 12.0007   1
   5   3   4 142.225 8.52317   1
   6   3   4  318.27 19.7213   1
   7   3   4-5.95748 6.91422   1
   8   3   4 449.476 30.1117   1
 -11   4   4 78.2148 12.1084   1
 -10   4   4 361.431 13.3768   1
  -9   4   4 3.47588  3.9141   1
  -8   4   4 220.499 9.88824   1
  -7   4   4 48.2801 3.97351   1
  -6   4   4 58.1835 3.28669   1
  -5   4   4 2196.05 41.8477   1
  -4   4   4 472.918 12.1303   1
  -3   4   4 1186.16 25.9922   1
  -2   4   4 1292.43 23.6458   1
  -1   4   4 1028.36  19.294   1
   0   4   4 8.38962 2.01391   1
   1   4   4 159.625 5.96767   1
   2   4   4 129.162 5.25536   1
   3   4   4 68.4247 5.40779   1
   4   4   4 88.0966 5.63147   1
   5   4   4 37.6291 10.3648   1
   6   4   4 70.2215 10.1833   1
   7   4   4 217.217 32.5831   1
 -11   5   4 61.2631 11.3814   1
 -10   5   4 287.437 16.3614   1
  -9   5   4 72.2045 6.04688   1
  -8   5   4 401.336 13.2572   1
  -7   5   4 410.568 10.8539   1
  -6   5   4 136.764 4.52096   1
  -5   5   4 1692.50 38.3509   1
  -4   5   4 75.7773 5.09035   1
  -3   5   4  628.12   15.38   1
  -2   5   4 115.914  3.9255   1
  -1   5   4 586.186 13.0889   1
   0   5   4 794.174 16.0197   1
   1   5   4 531.371  11.846   1
   2   5   4 1062.47 26.6691   1
   3   5   4 224.597 11.4696   1
   4   5   4 515.145 43.8876   1
   5   5   4-6.00087 6.00087   1
   6   5   4 296.242 28.8637   1
   7   5   4 186.821 26.1578   1
 -11   6   4 138.174 14.0107   1
 -10   6   4 54.2005 7.14624   1
  -9   6   4 163.553 10.0284   1
  -8   6   4 17.9639 2.76752   1
  -7   6   4 671.591 29.1717   1
  -6   6   4 106.381 7.78813   1
  -5   6   4 490.892 13.5545   1
  -4   6   4 134.467 6.50237   1
  -3   6   4 2165.38 45.5693   1
  -2   6   4 314.047 7.54109   1
  -1   6   4 50.2732 3.31449   1
   0   6   4 775.162 21.1581   1
   1   6   4 124.407 5.57675   1
   2   6   4 208.676 7.17164   1
   3   6   4 27.9789 5.70251   1
   4   6   4  119.56 13.8955   1
   5   6   4-4.04964 10.7266   1
   6   6   4 103.068 21.9714   1
 -10   7   4 46.7814 5.35014   1
  -9   7   4 272.701 10.9513   1
  -8   7   4 6.41074 5.02706   1
  -7   7   4 485.774 24.3917   1
  -6   7   4 182.099 10.8828   1
  -5   7   4 563.585 16.6248   1
  -4   7   4 378.059 11.5801   1
  -3   7   4 208.838 8.23075   1
  -2   7   4 446.877 10.1961   1
  -1   7   4-0.61223 2.53927   1
   0   7   4 450.234 11.8388   1
   1   7   4 36.1774 4.19419   1
   2   7   4 632.919 18.1747   1
   3   7   4 214.946 26.1969   1
   4   7   4 212.497 31.7906   1
   5   7   4 347.105 21.6312   1
 -10   8   4 109.295 24.9937   1
  -9   8   4 88.9657 17.4217   1
  -8   8   4 182.006 15.7506   1
  -7   8   4 192.974 18.5254   1
  -6   8   4 73.6813 6.89859   1
  -5   8   4  44.724  5.9998   1
  -4   8   4 922.551 33.2515   1
  -3   8   4 1.23803 4.13341   1
  -2   8   4 90.2106 4.28625   1
  -1   8   4 249.683 8.77491   1
   0   8   4 1041.62 27.4928   1
   1   8   4 21.9927  5.4145   1
   2   8   4 52.2356 9.06609   1
   3   8   4 131.421 12.7682   1
   4   8   4 16.5153  9.6407   1
 -10   9   4 5.52528 15.4222   1
  -9   9   4 193.057   17.04   1
  -8   9   4 50.3223 13.8707   1
  -7   9   4 85.6269 16.8454   1
  -6   9   4 311.684 24.6887   1
  -5   9   4-3.33362 5.69493   1
  -4   9   4 364.848  21.478   1
  -3   9   4 7.92276 5.40728   1
  -2   9   4 223.113  8.3015   1
  -1   9   4 5.40132 3.41032   1
   0   9   4 35.6839 4.93752   1
   1   9   4 117.759 8.88336   1
   2   9   4-6.51862 6.51862   1
   3   9   4 107.987 12.0316   1
  -9  10   4 1.18751 9.68281   1
  -8  10   4 263.541 20.4336   1
  -7  10   4 1.42526 11.4619   1
  -6  10   4 290.143 28.1722   1
  -5  10   4 56.9059 15.9998   1
  -4  10   4 213.742 15.5859   1
  -3  10   4 21.9032  8.8482   1
  -2  10   4 288.616 9.73894   1
  -1  10   4 609.676  19.913   1
   0  10   4 24.7444 4.96676   1
   1  10   4 139.947 12.5325   1
   2  10   4-9.78704 10.8222   1
  -8  11   4 408.807 26.4981   1
  -7  11   4 1.53083 9.69186   1
  -6  11   4  82.246 13.0773   1
  -5  11   4 84.7921 13.3877   1
  -4  11   4 37.0786 10.9008   1
  -3  11   4 111.369 19.5411   1
  -2  11   4 3.61323 2.77014   1
  -1  11   4 13.1973  6.8066   1
   0  11   4 16.9311 11.4119   1
  -6  12   4 9.02745 11.6783   1
  -5  12   4 160.227 34.7508   1
  -4  12   4 14.5289  11.646   1
  -3  12   4 584.214 36.2381   1
  -2  12   4 2.41781 17.5291   1
   1 -14   5 70.1878 11.3569   1
   2 -14   5-0.50208 7.83037   1
   3 -14   5 115.031 20.7997   1
   4 -14   5 18.8879 16.5616   1
  -2 -13   5 57.9516 17.3484   1
  -1 -13   5-0.13649 12.6723   1
   0 -13   5-7.21299 7.31589   1
   1 -13   5 209.243 21.7611   1
   2 -13   5 37.3376 7.52848   1
   3 -13   5 102.708 11.0843   1
   4 -13   5 473.608 44.8507   1
   5 -13   5 27.6884 11.1844   1
   6 -13   5 44.3347 12.3563   1
  -3 -12   5 201.745  18.725   1
  -2 -12   5 295.364  20.511   1
  -1 -12   5 350.354 12.6484   1
   0 -12   5  1.0373 4.23898   1
   1 -12   5 247.639 10.5175   1
   2 -12   5 171.826 17.4317   1
   3 -12   5 169.547  15.141   1
   4 -12   5 32.8211 7.36597   1
   5 -12   5  7.9175 5.65104   1
   6 -12   5 126.948 14.9297   1
   7 -12   5-0.22581 10.8491   1
  -4 -11   5-2.04361 8.26685   1
  -3 -11   5 69.8739   10.88   1
  -2 -11   5 5.40404 5.24539   1
  -1 -11   5 313.242 11.2508   1
   0 -11   5  97.993 6.75267   1
   1 -11   5 63.9941 5.43281   1
   2 -11   5 212.732 9.98685   1
   3 -11   5 12.5175 6.28358   1
   4 -11   5 256.817 27.9342   1
   5 -11   5 6.29418 5.36504   1
   6 -11   5  180.37  22.254   1
   7 -11   5 70.5596 11.9081   1
  -5 -10   5 148.231 24.9742   1
  -4 -10   5  284.10 19.8092   1
  -3 -10   5 164.403 14.4745   1
  -2 -10   5 856.069 22.1218   1
  -1 -10   5  407.16 12.0421   1
   0 -10   5 1009.92 35.8933   1
   1 -10   5 9.33622 2.79391   1
   2 -10   5 714.122 29.8542   1
   3 -10   5  0.9057 3.55315   1
   4 -10   5 482.453 28.1575   1
   5 -10   5 185.641 15.1078   1
   6 -10   5 302.009 24.5679   1
   7 -10   5 81.4716 12.0183   1
   8 -10   5 15.2307 15.0794   1
   9 -10   5 179.189 28.6457   1
  -6  -9   5 69.2531 11.1898   1
  -5  -9   5 9.55768 7.13363   1
  -4  -9   5 157.643 10.9968   1
  -3  -9   5 24.8229 5.14874   1
  -2  -9   5 773.353 17.2206   1
  -1  -9   5 4.32027 2.60414   1
   0  -9   5 231.556 12.4431   1
   1  -9   5 12.4893 2.66559   1
   2  -9   5 134.875 9.18988   1
   3  -9   5 356.774 11.6218   1
   4  -9   5 279.606 10.9448   1
   5  -9   5 484.595 16.9163   1
   6  -9   5 5.17175 5.28157   1
   7  -9   5 207.477 17.9668   1
   8  -9   5 8.49732 12.1047   1
   9  -9   5 190.701 27.8823   1
  -7  -8   5 88.9119 12.8277   1
  -6  -8   5 105.051 11.5636   1
  -5  -8   5 8.96231 5.39316   1
  -4  -8   5 1452.97 40.0317   1
  -3  -8   5 34.4739 2.77709   1
  -2  -8   5 1161.37 25.9063   1
  -1  -8   5 302.453 9.16311   1
   0  -8   5  392.66  12.478   1
   1  -8   5 601.295  14.317   1
   2  -8   5 29.3035 3.69792   1
   3  -8   5 2467.73 55.9489   1
   4  -8   5 208.006 10.9151   1
   5  -8   5 560.694 21.0034   1
   6  -8   5 85.2365 8.72349   1
   7  -8   5 315.312 20.0184   1
   8  -8   5 102.365 19.2427   1
   9  -8   5 27.0496 10.0232   1
  -8  -7   5 118.334 15.1615   1
  -7  -7   5 12.0215  7.9649   1
  -6  -7   5 463.081 19.2335   1
  -5  -7   5 18.2495 4.81555   1
  -4  -7   5 163.366 16.4037   1
  -3  -7   5 231.966 7.59817   1
  -2  -7   5 145.665 6.77748   1
  -1  -7   5 23.0354 2.69584   1
   0  -7   5  339.14 11.2459   1
   1  -7   5  647.93 13.4979   1
   2  -7   5 16.5279 2.89788   1
   3  -7   5 1468.03 34.4517   1
   4  -7   5 10.3218 3.12357   1
   5  -7   5 35.0452 4.72744   1
   6  -7   5 118.492 10.3872   1
   7  -7   5 48.6302 5.82165   1
   8  -7   5 210.816 25.3055   1
   9  -7   5  45.463 9.93972   1
  -8  -6   5 225.157 15.9136   1
  -7  -6   5 6.64463 7.00886   1
  -6  -6   5 259.692 12.4565   1
  -5  -6   5 194.763  15.508   1
  -4  -6   5 1210.88 29.0833   1
  -3  -6   5 663.764 21.7053   1
  -2  -6   5 209.415 8.86743   1
  -1  -6   5 1532.21 32.0492   1
   0  -6   5  2.7274 1.72835   1
   1  -6   5 1054.86 20.4901   1
   2  -6   5 373.945 10.7192   1
   3  -6   5 1865.08 42.5903   1
   4  -6   5 49.3337 4.81305   1
   5  -6   5 394.716 11.1598   1
   6  -6   5 410.422 12.5989   1
   7  -6   5  12.787 5.27462   1
   8  -6   5 99.4876 9.30674   1
   9  -6   5  4.0838  7.3608   1
  -9  -5   5 75.9755 16.4076   1
  -8  -5   5 554.742 26.4337   1
  -7  -5   5 592.921 26.7465   1
  -6  -5   5  265.44 14.8101   1
  -5  -5   5 417.142  17.375   1
  -4  -5   5 116.723 4.24244   1
  -3  -5   5 1130.11 22.4709   1
  -2  -5   5 575.264  12.311   1
  -1  -5   5 1380.10 26.5441   1
   0  -5   5 438.168  8.9844   1
   1  -5   5 1686.77 29.6906   1
   2  -5   5 1036.19  24.656   1
   3  -5   5 1283.02 33.6838   1
   4  -5   5 359.552 10.5485   1
   5  -5   5 70.9722 7.19074   1
   6  -5   5 534.679 15.7799   1
   7  -5   5 1.71862 5.88529   1
   8  -5   5 444.615 20.5184   1
   9  -5   5  14.791  9.3935   1
  -9  -4   5 218.553 18.4781   1
  -8  -4   5 167.818 12.5908   1
  -7  -4   5 44.9035 10.8944   1
  -6  -4   5 92.9011  6.4575   1
  -5  -4   5 974.734 21.3758   1
  -4  -4   5 361.251 8.61992   1
  -3  -4   5 1134.79 22.3152   1
  -2  -4   5 1967.93 37.1146   1
  -1  -4   5 1613.84 28.5393   1
   0  -4   5 1817.44 34.0657   1
   1  -4   5 1163.57 22.4389   1
   2  -4   5  808.85 16.2225   1
   3  -4   5 343.659 9.60876   1
   4  -4   5 507.529 12.6779   1
   5  -4   5 204.826 8.25432   1
   6  -4   5 216.576 9.26562   1
   7  -4   5 144.643 11.0073   1
   8  -4   5 457.473 20.3471   1
   9  -4   5 28.6816 9.18327   1
 -10  -3   5 5.01178 7.03653   1
  -9  -3   5 422.297 17.4133   1
  -8  -3   5 3.17895 2.18862   1
  -7  -3   5 382.523 13.9185   1
  -6  -3   5 168.755 8.60973   1
  -5  -3   5 1625.26 47.3894   1
  -4  -3   5 178.877 5.46905   1
  -3  -3   5 2408.43 45.0733   1
  -2  -3   5 649.444  13.075   1
  -1  -3   5 996.374 19.1982   1
   0  -3   5 1534.04 28.8094   1
   1  -3   5 11.8862 1.44615   1
   2  -3   5 2143.93 40.2355   1
   3  -3   5 129.863 5.20899   1
   4  -3   5 1781.16 38.2059   1
   5  -3   5 285.698 8.62326   1
   6  -3   5 768.813 19.3628   1
   7  -3   5 373.061 29.2795   1
   8  -3   5  109.55 12.2338   1
   9  -3   5 144.156 22.2673   1
 -10  -2   5 9.72753 9.66816   1
  -9  -2   5  170.34 8.37029   1
  -8  -2   5 12.5566 3.97625   1
  -7  -2   5 489.611 13.9409   1
  -6  -2   5 506.209 14.0369   1
  -5  -2   5 294.132 8.88699   1
  -4  -2   5 363.869 9.25653   1
  -3  -2   5 42.8867  2.2975   1
  -2  -2   5 2026.78 40.7738   1
  -1  -2   5 312.909 6.93758   1
   0  -2   5 766.458 15.0979   1
   1  -2   5 271.755 7.01438   1
   2  -2   5 700.928 15.7738   1
   3  -2   5 463.593 11.7825   1
   4  -2   5 84.0497 8.21972   1
   5  -2   5 111.271 6.84386   1
   6  -2   5 16.2534 3.74692   1
   7  -2   5 357.396 23.7462   1
   8  -2   5 4.15176 5.73338   1
   9  -2   5 0.57708 7.40256   1
 -10  -1   5 40.2747 4.50013   1
  -9  -1   5  499.94 16.3505   1
  -8  -1   5 67.0573  4.9802   1
  -7  -1   5 380.609 11.4945   1
  -6  -1   5  605.07 14.5011   1
  -5  -1   5 655.551 14.9704   1
  -4  -1   5 685.846  16.724   1
  -3  -1   5  6.0286 1.74115   1
  -2  -1   5 4734.90 80.4167   1
  -1  -1   5 143.383 4.07697   1
   0  -1   5 3099.37 56.8861   1
   1  -1   5 296.406 7.04946   1
   2  -1   5 2108.84 39.9104   1
   3  -1   5 620.125 13.7848   1
   4  -1   5 224.454 7.63731   1
   5  -1   5 561.987 16.8085   1
   6  -1   5 37.3189 6.92465   1
   7  -1   5 381.788  21.621   1
   8  -1   5 9.18018 6.20896   1
   9  -1   5 194.096 15.4235   1
 -11   0   5 103.813 9.28234   1
 -10   0   5 77.1185 7.69315   1
  -9   0   5 127.594 7.14802   1
  -8   0   5  737.31 22.5238   1
  -7   0   5 18.1963 4.22815   1
  -6   0   5 1240.43 25.3928   1
  -5   0   5 2.32669 1.29147   1
  -4   0   5 2093.65 39.3059   1
  -3   0   5 1387.70 24.7388   1
  -2   0   5 1871.11 32.6329   1
  -1   0   5 20.2548 1.41428   1
   0   0   5 237.702  5.4066   1
   1   0   5 1425.99 27.4816   1
   2   0   5 46.3824 3.03899   1
   3   0   5 1114.13 23.0098   1
   4   0   5 13.3857 3.06481   1
   5   0   5  620.74 20.9986   1
   6   0   5 91.3273 7.60396   1
   7   0   5  111.32  9.4141   1
   8   0   5 5.82981 5.58278   1
   9   0   5 17.5076 10.6691   1
 -11   1   5  24.803 7.71562   1
 -10   1   5 420.331 14.7474   1
  -9   1   5 54.3255 5.27847   1
  -8   1   5 747.154 19.7482   1
  -7   1   5 38.8624 3.47641   1
  -6   1   5 378.861  11.357   1
  -5   1   5 297.872 9.00192   1
  -4   1   5 428.762 9.41561   1
  -3   1   5 2096.91 36.7392   1
  -2   1   5 2309.51 40.1056   1
  -1   1   5 4849.84 82.5792   1
   0   1   5 451.565  9.2415   1
   1   1   5 1922.05 34.1399   1
   2   1   5 15.7538 2.47358   1
   3   1   5 844.847  19.588   1
   4   1   5 4.35664 2.45187   1
   5   1   5 621.661 18.2428   1
   6   1   5 163.206 15.8652   1
   7   1   5 96.8972 8.43012   1
   8   1   5 250.039 18.7579   1
 -11   2   5 0.38572 7.58591   1
 -10   2   5 252.208 11.8067   1
  -9   2   5 62.5959 5.02718   1
  -8   2   5 413.193 11.2739   1
  -7   2   5 280.444 10.2668   1
  -6   2   5 313.082 10.1011   1
  -5   2   5 2393.37 48.9119   1
  -4   2   5 261.123 6.63698   1
  -3   2   5 1998.65 35.1456   1
  -2   2   5 1571.14 27.9185   1
  -1   2   5 688.407 13.2386   1
   0   2   5  19.858 1.97271   1
   1   2   5 135.066 5.25403   1
   2   2   5 1044.40  21.567   1
   3   2   5 797.644  18.654   1
   4   2   5 1085.78 27.7146   1
   5   2   5 38.7289 5.32472   1
   6   2   5 208.808 11.8059   1
   7   2   5 9.24476 3.78464   1
   8   2   5 83.5522 15.6255   1
 -11   3   5 0.43495 6.63302   1
 -10   3   5 115.368  7.9207   1
  -9   3   5 151.431 7.77566   1
  -8   3   5 113.447 6.33506   1
  -7   3   5 252.091 8.43486   1
  -6   3   5 23.6237 2.52163   1
  -5   3   5 1462.76 28.4371   1
  -4   3   5 105.362 3.72548   1
  -3   3   5 1566.90 33.9443   1
  -2   3   5 1733.22 33.4242   1
  -1   3   5 387.725 9.14693   1
   0   3   5 488.456 11.3291   1
   1   3   5 71.4577 4.30615   1
   2   3   5 1952.42 38.1431   1
   3   3   5 763.025  19.297   1
   4   3   5 241.121 8.06708   1
   5   3   5 1.70136 5.52942   1
   6   3   5 77.7603 5.60275   1
   7   3   5-7.76193  8.3391   1
 -11   4   5 123.835 11.5384   1
 -10   4   5  81.977 6.50407   1
  -9   4   5 402.094 14.3822   1
  -8   4   5  145.99 7.33367   1
  -7   4   5 783.313 19.9315   1
  -6   4   5 26.0062 2.71661   1
  -5   4   5 548.974 16.0228   1
  -4   4   5 5.18789 2.33964   1
  -3   4   5 1058.95 26.4384   1
  -2   4   5  14.715 1.59108   1
  -1   4   5 527.033 12.1241   1
   0   4   5  484.40  11.479   1
   1   4   5 578.437 13.4966   1
   2   4   5 1452.34 29.9234   1
   3   4   5 40.7332  3.6693   1
   4   4   5 45.9825 5.34381   1
   5   4   5 12.6503 10.1733   1
   6   4   5 31.3798 8.93324   1
   7   4   5  315.71 29.8403   1
 -11   5   5 110.883 11.1924   1
 -10   5   5  9.4907 4.74041   1
  -9   5   5 205.993 9.31367   1
  -8   5   5 2.29244 2.46262   1
  -7   5   5 753.604 17.2713   1
  -6   5   5 341.065 12.6414   1
  -5   5   5 817.475 19.6908   1
  -4   5   5 1136.07 25.6523   1
  -3   5   5  64.803 4.62589   1
  -2   5   5 777.131 15.3506   1
  -1   5   5 11.6466 2.09821   1
   0   5   5 522.401 11.6645   1
   1   5   5 766.856 16.2042   1
   2   5   5 992.929 20.2179   1
   3   5   5-2.64882 2.64882   1
   4   5   5 17.0812 3.36313   1
   5   5   5 32.7863 8.50889   1
   6   5   5  277.78  20.592   1
 -11   6   5 98.7596 11.5584   1
 -10   6   5 76.5215 9.18812   1
  -9   6   5 749.474 26.7429   1
  -8   6   5 97.3281 11.1865   1
  -7   6   5  335.19 29.6148   1
  -6   6   5 127.908 6.90961   1
  -5   6   5 224.002 9.45121   1
  -4   6   5 343.005  10.633   1
  -3   6   5  215.07 8.01536   1
  -2   6   5 699.621 17.3438   1
  -1   6   5 7.98736 2.19854   1
   0   6   5 1505.60  30.292   1
   1   6   5 4.61534 2.51746   1
   2   6   5 394.177 11.7508   1
   3   6   5 10.9434 6.56798   1
   4   6   5 170.141 14.0605   1
   5   6   5  137.43 13.8871   1
 -10   7   5 19.1286 14.5524   1
  -9   7   5 232.721 26.6372   1
  -8   7   5 230.855 13.1415   1
  -7   7   5-2.66258 4.42767   1
  -6   7   5 421.028 30.6088   1
  -5   7   5 53.9731 5.12454   1
  -4   7   5 892.761 21.8033   1
  -3   7   5 224.187 10.0466   1
  -2   7   5 774.662 15.9254   1
  -1   7   5 866.482 17.8558   1
   0   7   5 15.0935 3.25137   1
   1   7   5 529.916 15.9066   1
   2   7   5 18.8438 4.88288   1
   3   7   5 102.416 12.1288   1
   4   7   5-4.84537 7.70264   1
   5   7   5 194.667 17.2531   1
 -10   8   5 296.389  32.514   1
  -9   8   5 2.79031  7.9638   1
  -8   8   5 48.6358 9.51893   1
  -7   8   5 55.7255 18.8399   1
  -6   8   5  743.69 48.1086   1
  -5   8   5 11.6549  5.4741   1
  -4   8   5 256.909 12.2546   1
  -3   8   5 126.113 8.45397   1
  -2   8   5 290.462 10.3705   1
  -1   8   5 5.35011 3.00635   1
   0   8   5 135.632 7.80977   1
   1   8   5 147.287 9.10419   1
   2   8   5 0.66993 4.06882   1
   3   8   5 405.065 28.0043   1
   4   8   5 71.0386 11.5647   1
  -9   9   5 4.31696 12.2397   1
  -8   9   5 156.977 15.4659   1
  -7   9   5 22.3922 8.81605   1
  -6   9   5 201.607 29.7844   1
  -5   9   5 70.7687 9.81854   1
  -4   9   5 15.9396 7.03044   1
  -3   9   5 473.554   39.75   1
  -2   9   5  32.273 3.01543   1
  -1   9   5 422.096 14.3349   1
   0   9   5 25.9433 4.86375   1
   1   9   5 152.268 8.98433   1
   2   9   5 31.9521 14.6084   1
   3   9   5 41.1323 10.8792   1
  -9  10   5-9.79057 10.5775   1
  -8  10   5 110.018 14.7886   1
  -7  10   5 573.263 32.2532   1
  -6  10   5 42.1124 10.0831   1
  -5  10   5 124.112 14.5349   1
  -4  10   5 3.58251 10.4605   1
  -3  10   5 337.093 22.4762   1
  -2  10   5 252.794   8.987   1
  -1  10   5 105.046 6.67226   1
   0  10   5 11.2856 6.08072   1
   1  10   5 87.3833  11.558   1
  -7  11   5 15.7114 13.3163   1
  -6  11   5 8.31824 13.5628   1
  -5  11   5 118.703 15.7389   1
  -4  11   5 18.2293 10.1027   1
  -3  11   5 177.921  30.523   1
  -2  11   5 172.431 19.7946   1
  -1  11   5 61.4916 13.3185   1
   0  11   5 22.2667 13.3945   1
  -5  12   5 82.4809 16.7763   1
  -4  12   5 153.578 19.7877   1
   1 -14   6 65.6262 11.6662   1
   2 -14   6 152.772 20.8883   1
   3 -14   6 76.1125 12.3305   1
   4 -14   6  68.651 10.7805   1
  -2 -13   6 103.903 14.6314   1
  -1 -13   6 18.7489 8.04122   1
   0 -13   6 75.3072 8.48734   1
   1 -13   6 -3.3843 3.48624   1
   2 -13   6 267.835 24.1961   1
   3 -13   6 26.3547  7.5692   1
   4 -13   6 291.825 25.8297   1
   5 -13   6 6.06037 7.74323   1
   6 -13   6 135.748 15.8535   1
  -3 -12   6 199.924 18.1787   1
  -2 -12   6 71.4855 9.69312   1
  -1 -12   6 47.7051 5.66486   1
   0 -12   6 135.667 11.3463   1
   1 -12   6-3.48922 3.48922   1
   2 -12   6 548.938 28.6793   1
   3 -12   6-5.36136 5.36136   1
   4 -12   6 89.6343 10.0006   1
   5 -12   6 89.7635 15.5412   1
   6 -12   6  1.6905 7.85165   1
   7 -12   6-12.4584 12.4584   1
  -5 -11   6 66.6034 17.5515   1
  -4 -11   6 90.9961 11.9761   1
  -3 -11   6-3.11847 7.28642   1
  -2 -11   6 353.315 14.3599   1
  -1 -11   6 42.1813 5.03997   1
   0 -11   6 226.589  10.077   1
   1 -11   6 24.7324 3.12504   1
   2 -11   6 366.522 23.4944   1
   3 -11   6  7.6618 4.91549   1
   4 -11   6 80.5489  9.1449   1
   5 -11   6 319.675  17.309   1
   6 -11   6 159.193 16.1576   1
   7 -11   6 300.262 34.0165   1
   8 -11   6-13.2831 14.4636   1
  -6 -10   6 317.048 36.4024   1
  -5 -10   6 5.18773 10.3856   1
  -4 -10   6 447.677 54.9118   1
  -3 -10   6 75.0139 4.41549   1
  -2 -10   6  402.18 12.8593   1
  -1 -10   6 83.3189 5.34502   1
   0 -10   6 671.022 21.4988   1
   1 -10   6 410.508 15.1849   1
   2 -10   6 125.282 8.72554   1
   3 -10   6 581.013 20.2477   1
   4 -10   6 0.25905 4.16469   1
   5 -10   6 225.992 14.1782   1
   6 -10   6 47.1241 12.2211   1
   7 -10   6 36.5943 10.5645   1
   8 -10   6 21.5422 16.0149   1
  -6  -9   6 246.217 18.6066   1
  -5  -9   6 38.8483 7.12894   1
  -4  -9   6 165.039 11.5665   1
  -3  -9   6 166.245 7.15438   1
  -2  -9   6 296.611 9.91289   1
  -1  -9   6 323.357 15.3267   1
   0  -9   6 56.5663 4.24372   1
   1  -9   6  463.21 14.0545   1
   2  -9   6  164.51 7.69225   1
   3  -9   6 758.953 23.5209   1
   4  -9   6  8.0308 4.26979   1
   5  -9   6 896.876 37.9815   1
   6  -9   6 46.1906 9.48574   1
   7  -9   6 93.8766 13.0195   1
   8  -9   6 180.773 26.8548   1
   9  -9   6 96.3918 26.1474   1
  -7  -8   6 123.985 12.6841   1
  -6  -8   6 130.133 23.4747   1
  -5  -8   6 13.8724 7.01512   1
  -4  -8   6 135.031 8.52942   1
  -3  -8   6 888.533 20.9171   1
  -2  -8   6 92.0611 5.28557   1
  -1  -8   6 1828.32 38.5922   1
   0  -8   6 71.5916 4.38929   1
   1  -8   6 1041.28 20.8111   1
   2  -8   6  212.04 8.10655   1
   3  -8   6 352.874 11.4224   1
   4  -8   6 157.085 9.02455   1
   5  -8   6 128.904 10.3423   1
   6  -8   6 329.132 25.0367   1
   7  -8   6 3.34381 9.25286   1
   8  -8   6 307.578 33.3489   1
   9  -8   6-0.86668 14.6327   1
  -8  -7   6 150.994  14.314   1
  -7  -7   6 21.7199 7.25314   1
  -6  -7   6 595.303 34.3793   1
  -5  -7   6  46.589  5.7938   1
  -4  -7   6  6.3161  2.2758   1
  -3  -7   6  617.03 16.4967   1
  -2  -7   6 6.56475 2.68237   1
  -1  -7   6 168.292 6.41821   1
   0  -7   6 52.3167 3.33937   1
   1  -7   6 623.236 13.0189   1
   2  -7   6 336.432 10.3813   1
   3  -7   6 396.458 12.0472   1
   4  -7   6 481.489 18.3613   1
   5  -7   6 76.7136 7.53723   1
   6  -7   6 151.444 11.1152   1
   7  -7   6 5.12696 3.19188   1
   8  -7   6 56.1705 6.88799   1
   9  -7   6 43.8859 8.61275   1
  -9  -6   6 111.147 12.3162   1
  -8  -6   6  78.031 11.1969   1
  -7  -6   6 164.972 12.6038   1
  -6  -6   6 126.909   8.358   1
  -5  -6   6 169.414 8.38087   1
  -4  -6   6 462.868 16.6469   1
  -3  -6   6 1930.64 37.2065   1
  -2  -6   6 98.8803 4.35405   1
  -1  -6   6 2132.54 40.4338   1
   0  -6   6 378.174 9.68804   1
   1  -6   6 593.822 11.7705   1
   2  -6   6 192.954 7.05941   1
   3  -6   6 106.716 6.55079   1
   4  -6   6 927.395   30.39   1
   5  -6   6 6.05691 2.58722   1
   6  -6   6 345.515 12.9084   1
   7  -6   6 75.8109 9.67204   1
   8  -6   6 364.316 22.9096   1
   9  -6   6 52.5696 11.4734   1
  -9  -5   6 175.229 13.8012   1
  -8  -5   6 168.749  17.547   1
  -7  -5   6 485.223 22.6097   1
  -6  -5   6 6.38279 1.80362   1
  -5  -5   6 593.394 13.3076   1
  -4  -5   6 535.762 12.0862   1
  -3  -5   6 1896.46 36.3356   1
  -2  -5   6 315.151 9.80467   1
  -1  -5   6  940.97 18.8903   1
   0  -5   6 525.185 10.6324   1
   1  -5   6 11.1894 1.67541   1
   2  -5   6 1025.68 23.4467   1
   3  -5   6 218.246 6.44938   1
   4  -5   6 1027.77 25.0948   1
   5  -5   6 33.0233 4.01865   1
   6  -5   6 152.148 10.9371   1
   7  -5   6 28.8119  6.5477   1
   8  -5   6 13.4848 6.94102   1
   9  -5   6 48.9547 11.3034   1
 -10  -4   6 3.00942 7.56449   1
  -9  -4   6 178.363 10.5338   1
  -8  -4   6 93.8974 9.55925   1
  -7  -4   6 430.966   14.94   1
  -6  -4   6  335.17 10.0782   1
  -5  -4   6 252.173 7.65552   1
  -4  -4   6 884.203 18.2024   1
  -3  -4   6 1080.05 21.4465   1
  -2  -4   6 960.531 19.0198   1
  -1  -4   6 102.868 4.35805   1
   0  -4   6 757.594 15.3096   1
   1  -4   6 221.381 5.72778   1
   2  -4   6 2468.74 49.9948   1
   3  -4   6 653.278  14.191   1
   4  -4   6 1417.23 33.5124   1
   5  -4   6 60.3412 4.90096   1
   6  -4   6 422.075 19.4385   1
   7  -4   6 647.093  25.775   1
   8  -4   6 26.3075 10.1404   1
   9  -4   6  203.55 17.8843   1
 -10  -3   6 15.4394 6.95521   1
  -9  -3   6 388.598  10.955   1
  -8  -3   6 58.6169 5.12168   1
  -7  -3   6 294.996 9.80068   1
  -6  -3   6 649.932 17.2502   1
  -5  -3   6 94.2623 5.30104   1
  -4  -3   6 2288.82  46.906   1
  -3  -3   6 85.5854 2.97671   1
  -2  -3   6 3405.61 62.5568   1
  -1  -3   6 295.324  7.4934   1
   0  -3   6 1846.85 34.7245   1
   1  -3   6 1699.06 32.2606   1
   2  -3   6 585.767 12.7046   1
   3  -3   6  875.51 18.3498   1
   4  -3   6 7.03704 2.48366   1
   5  -3   6 371.809 11.3549   1
   6  -3   6 124.558 8.85336   1
   7  -3   6 188.123 23.9986   1
   8  -3   6  62.544  10.015   1
   9  -3   6 112.253 13.2745   1
 -10  -2   6 39.9995 6.83785   1
  -9  -2   6 2.18581 3.22949   1
  -8  -2   6  441.32 12.9061   1
  -7  -2   6 3.31799 1.89166   1
  -6  -2   6 416.387  10.897   1
  -5  -2   6  60.728 4.75735   1
  -4  -2   6 700.983 18.0763   1
  -3  -2   6 2.76938 2.01134   1
  -2  -2   6 497.973 10.3361   1
  -1  -2   6 50.4885 2.50159   1
   0  -2   6 282.277 8.32243   1
   1  -2   6 1961.23 37.0612   1
   2  -2   6 249.598 6.80952   1
   3  -2   6 552.184  12.825   1
   4  -2   6  177.92 6.91893   1
   5  -2   6 1410.68 34.6946   1
   6  -2   6 45.6398 6.16862   1
   7  -2   6 133.896 10.8524   1
   8  -2   6 94.7982 11.0341   1
 -11  -1   6 128.057 13.1656   1
 -10  -1   6 116.064 8.76683   1
  -9  -1   6 98.8764 6.81498   1
  -8  -1   6 789.866 20.5455   1
  -7  -1   6 19.5567 2.30616   1
  -6  -1   6 1201.15 24.4793   1
  -5  -1   6 332.298 10.8335   1
  -4  -1   6 1434.33  37.014   1
  -3  -1   6 1677.91 45.7109   1
  -2  -1   6 1112.68 21.6884   1
  -1  -1   6 3621.93 66.4837   1
   0  -1   6 743.571 15.1353   1
   1  -1   6 3401.75 62.9709   1
   2  -1   6 14.3664 2.72587   1
   3  -1   6 730.075 16.1327   1
   4  -1   6 273.309 11.4604   1
   5  -1   6 49.5281 5.23255   1
   6  -1   6 61.9353 7.31465   1
   7  -1   6 0.90897 5.23647   1
   8  -1   6 49.8787 12.9275   1
 -11   0   6 18.5264 6.02932   1
 -10   0   6 185.747 8.69109   1
  -9   0   6 104.709 7.57973   1
  -8   0   6 290.511 9.65052   1
  -7   0   6 14.1736 2.17899   1
  -6   0   6  585.44 13.9664   1
  -5   0   6 696.368 14.5449   1
  -4   0   6 211.673 8.42611   1
  -3   0   6 1201.64 21.7687   1
  -2   0   6  60.776 2.47635   1
  -1   0   6 51.9944 2.43739   1
   0   0   6 57.6836 2.79453   1
   1   0   6 790.869 16.4571   1
   2   0   6 35.4849 2.97903   1
   3   0   6 289.366 8.31312   1
   4   0   6 981.304 22.9398   1
   5   0   6 304.538 13.0263   1
   6   0   6 71.8682 8.26311   1
   7   0   6 26.4625 6.38647   1
   8   0   6 560.903 24.7883   1
 -11   1   6 2.24934  5.9652   1
 -10   1   6 102.053 6.98457   1
  -9   1   6 327.248 10.8642   1
  -8   1   6 280.754 9.51589   1
  -7   1   6 1302.59 28.5832   1
  -6   1   6 361.788 10.9661   1
  -5   1   6 1882.28 42.9998   1
  -4   1   6 295.891 7.05013   1
  -3   1   6 1839.43 35.0208   1
  -2   1   6 6.51388 1.19807   1
  -1   1   6 4590.05 78.5975   1
   0   1   6 852.003  17.272   1
   1   1   6 786.754 15.7361   1
   2   1   6 2146.12 41.3655   1
   3   1   6 449.338 13.6268   1
   4   1   6 361.957 11.1483   1
   5   1   6 174.802 11.2287   1
   6   1   6 119.743 11.8529   1
   7   1   6 0.90707 5.37338   1
   8   1   6 5.32316 7.24232   1
 -11   2   6 145.647 21.9662   1
 -10   2   6 22.6358 4.48974   1
  -9   2   6 348.497 13.6886   1
  -8   2   6  361.02 10.6733   1
  -7   2   6 1155.76 28.7325   1
  -6   2   6 12.6155  2.4658   1
  -5   2   6  178.80  5.7433   1
  -4   2   6 492.012 10.3676   1
  -3   2   6 389.771 8.33621   1
  -2   2   6 1386.29 25.1336   1
  -1   2   6 408.842 8.87425   1
   0   2   6 1147.68 21.5587   1
   1   2   6 164.564 5.63821   1
   2   2   6  284.34 9.03198   1
   3   2   6   80.01 5.27872   1
   4   2   6 392.425 16.6586   1
   5   2   6 13.9231 4.65423   1
   6   2   6 191.829 30.0539   1
   7   2   6 727.765 60.7869   1
 -11   3   6 74.0468 9.98228   1
 -10   3   6 -2.5715 3.72424   1
  -9   3   6 292.027 10.1868   1
  -8   3   6 219.542 8.77603   1
  -7   3   6 639.347 17.0485   1
  -6   3   6 2.22432 1.64273   1
  -5   3   6 147.579 7.18279   1
  -4   3   6 1067.08 22.2578   1
  -3   3   6 1148.98 21.3198   1
  -2   3   6 1598.23 30.7673   1
  -1   3   6 163.623 5.33872   1
   0   3   6  676.47 14.9356   1
   1   3   6  1.3614 2.55009   1
   2   3   6 1125.92  28.581   1
   3   3   6 23.5334 3.83685   1
   4   3   6 351.149 13.9367   1
   5   3   6 143.532 10.2333   1
   6   3   6 3.53748 5.21261   1
   7   3   6 13.7186 15.0164   1
 -11   4   6 136.548 10.8875   1
 -10   4   6 1.27161 3.78527   1
  -9   4   6 877.897 25.3099   1
  -8   4   6  50.827  4.3901   1
  -7   4   6 649.394 14.6266   1
  -6   4   6 7.26657 1.47364   1
  -5   4   6 205.954 7.55774   1
  -4   4   6 1500.08 38.8532   1
  -3   4   6 8.46361 2.53298   1
  -2   4   6 1074.46 21.9925   1
  -1   4   6 36.8241 3.06783   1
   0   4   6 276.376 8.20033   1
   1   4   6 163.739 6.82879   1
   2   4   6 25.4734 3.47684   1
   3   4   6 333.051 11.3322   1
   4   4   6 107.285 9.18096   1
   5   4   6 208.708  26.533   1
   6   4   6 41.7363 11.2636   1
 -11   5   6 146.664 11.0932   1
 -10   5   6 80.2266 6.21529   1
  -9   5   6 42.2149 4.27004   1
  -8   5   6 132.028 5.61101   1
  -7   5   6 185.614 9.41346   1
  -6   5   6 78.7937 5.47936   1
  -5   5   6 668.811 19.6169   1
  -4   5   6 1427.31  31.639   1
  -3   5   6 5.94506 2.91166   1
  -2   5   6 477.222 10.5428   1
  -1   5   6 4.35236 2.11545   1
   0   5   6 1575.88  29.683   1
   1   5   6 189.531 7.34213   1
   2   5   6 64.0331 4.95239   1
   3   5   6 312.203 11.5492   1
   4   5   6 1.83509 3.94495   1
   5   5   6 7.32344 7.76999   1
   6   5   6 60.0619 15.6692   1
 -11   6   6 66.1013 21.9871   1
 -10   6   6  158.43 11.1716   1
  -9   6   6  132.14 29.5084   1
  -8   6   6 266.016 23.3138   1
  -7   6   6 46.1319 5.66901   1
  -6   6   6 1856.56 58.0715   1
  -5   6   6 63.1609 5.28775   1
  -4   6   6 1391.09 51.7223   1
  -3   6   6 92.1917 5.81807   1
  -2   6   6 690.156 17.5615   1
  -1   6   6 113.042 5.13053   1
   0   6   6 162.446 6.37357   1
   1   6   6 320.506 10.4058   1
   2   6   6 11.6771 3.56417   1
   3   6   6 506.121 15.3536   1
   4   6   6 5.55249 7.69034   1
   5   6   6 249.715 39.0311   1
 -10   7   6 173.576 27.5747   1
  -8   7   6 315.988 25.4546   1
  -7   7   6 271.208 22.3165   1
  -6   7   6  36.934 5.40449   1
  -5   7   6 344.818   12.63   1
  -4   7   6 96.0876 6.45984   1
  -3   7   6 199.116 9.03391   1
  -2   7   6 103.523  4.7763   1
  -1   7   6 1179.20 26.6007   1
   0   7   6  8.4681 3.48803   1
   1   7   6 310.407 13.5554   1
   2   7   6 30.9361 5.13312   1
   3   7   6 232.491 10.7087   1
   4   7   6 11.8763 9.15298   1
 -10   8   6 95.1725 20.6517   1
  -9   8   6 0.86457 8.09917   1
  -8   8   6 340.292 21.5016   1
  -7   8   6 208.159 29.7568   1
  -6   8   6 398.108 34.3195   1
  -5   8   6 310.339 14.6756   1
  -4   8   6 49.2794 7.32598   1
  -3   8   6 732.709  23.958   1
  -2   8   6 9.55971 3.22937   1
  -1   8   6 11.2135 4.08569   1
   0   8   6 75.4324 5.49046   1
   1   8   6  227.46 10.4482   1
   2   8   6 40.0854  6.4519   1
   3   8   6 3.61428 11.0385   1
  -9   9   6  185.72 17.3767   1
  -8   9   6  21.813 11.1706   1
  -7   9   6 48.5684 11.8322   1
  -6   9   6-0.96968 7.67825   1
  -5   9   6  221.82 18.7723   1
  -4   9   6  5.9302 7.72603   1
  -3   9   6  198.42 24.8616   1
  -2   9   6  119.28 5.33592   1
  -1   9   6 67.6954 6.76954   1
   0   9   6 123.928  9.1578   1
   1   9   6 49.0093 8.30256   1
   2   9   6 216.944 17.9331   1
  -8  10   6 145.475  16.763   1
  -7  10   6 260.737 29.0366   1
  -6  10   6 4.70321 8.83725   1
  -5  10   6 162.904 16.9959   1
  -4  10   6 111.885 15.1419   1
  -3  10   6 23.4935 12.6465   1
  -2  10   6 6.11001 9.63425   1
  -1  10   6 71.6913 7.72914   1
   0  10   6 157.284 13.0984   1
  -7  11   6 146.782 20.4119   1
  -6  11   6 58.1113 12.9788   1
  -5  11   6 83.6362 14.2399   1
  -4  11   6 78.9531 13.9703   1
  -3  11   6 71.3631 17.2836   1
  -2  11   6 130.822 29.2357   1
   1 -14   7 13.5301 7.96907   1
   2 -14   7 97.1531 11.0408   1
   3 -14   7-10.3674 10.3674   1
  -2 -13   7 501.249 28.8627   1
  -1 -13   7 11.3663 6.55025   1
   0 -13   7 224.423 16.1345   1
   1 -13   7 62.9875 13.3573   1
   2 -13   7 129.646 11.6543   1
   3 -13   7 79.2664 10.2711   1
   4 -13   7 30.4569 8.46994   1
   5 -13   7 149.543 16.0128   1
   6 -13   7 23.1417 11.3076   1
  -3 -12   7 1.79907  8.5794   1
  -2 -12   7  110.52 9.40529   1
  -1 -12   7 38.1793 5.48858   1
   0 -12   7 86.8285 6.50464   1
   1 -12   7 16.4841 6.32007   1
   2 -12   7 55.9896 9.24663   1
   3 -12   7 259.478 15.2758   1
   4 -12   7 36.6545 8.10406   1
   5 -12   7 126.835 17.2666   1
   6 -12   7-8.91176 8.91176   1
   7 -12   7 64.9321 20.5988   1
  -5 -11   7 16.5086 10.8064   1
  -4 -11   7  322.98 21.2166   1
  -3 -11   7 13.6917 5.18687   1
  -2 -11   7 183.867 9.59624   1
  -1 -11   7  356.24 13.1405   1
   0 -11   7 160.007 7.87343   1
   1 -11   7 529.806  21.087   1
   2 -11   7  4.5634 5.34882   1
   3 -11   7 535.836 21.9522   1
   4 -11   7 9.90602  5.9516   1
   5 -11   7 154.494 14.9663   1
   6 -11   7 22.7685 9.43814   1
   7 -11   7 39.7492 20.3378   1
  -6 -10   7 206.124 18.2871   1
  -5 -10   7 170.082 15.7134   1
  -4 -10   7 112.661 12.2225   1
  -3 -10   7 215.308  8.0355   1
  -2 -10   7 29.0076 4.96821   1
  -1 -10   7 291.377 19.1441   1
   0 -10   7 395.406 15.1716   1
   1 -10   7 167.247 8.48268   1
   2 -10   7 11.8605 4.66659   1
   3 -10   7 222.222 11.7687   1
   4 -10   7 1.05653 5.33248   1
   5 -10   7 125.669 13.4696   1
   6 -10   7 144.514 35.8531   1
   7 -10   7 117.515 15.0444   1
   8 -10   7 64.8195 19.1639   1
  -7  -9   7 27.1014  9.5304   1
  -6  -9   7 134.001 13.4705   1
  -5  -9   7 146.789 14.4258   1
  -4  -9   7 209.388 17.0623   1
  -3  -9   7 455.411 13.8673   1
  -2  -9   7 5.42408 3.67245   1
  -1  -9   7 1387.09  36.621   1
   0  -9   7 83.4415 6.60824   1
   1  -9   7 688.947  18.672   1
   2  -9   7 379.063 12.2101   1
   3  -9   7 485.575 14.9308   1
   4  -9   7 461.616 32.9469   1
   5  -9   7  65.998   13.92   1
   6  -9   7 426.856 34.8963   1
   7  -9   7 2.15267 8.24023   1
   8  -9   7 73.3298 20.1392   1
  -7  -8   7  357.44 20.6831   1
  -6  -8   7 11.9083  5.3518   1
  -5  -8   7 295.347 13.6909   1
  -4  -8   7 127.822 6.46557   1
  -3  -8   7  432.85 12.8999   1
  -2  -8   7 104.506 5.52409   1
  -1  -8   7  586.57 14.0333   1
   0  -8   7  262.10 7.46509   1
   1  -8   7 154.904 7.38494   1
   2  -8   7 280.284 9.80768   1
   3  -8   7 4.02742 3.35785   1
   4  -8   7 625.933 19.8424   1
   5  -8   7 5.35281 5.05322   1
   6  -8   7 287.607 20.0607   1
   7  -8   7 10.1921 8.56497   1
   8  -8   7 219.409 28.3768   1
  -8  -7   7  29.979 8.19176   1
  -7  -7   7 82.5206 9.58048   1
  -6  -7   7 2.91933 4.24092   1
  -5  -7   7 465.002 14.1045   1
  -4  -7   7 70.2732 5.65313   1
  -3  -7   7 707.955 15.6533   1
  -2  -7   7  391.69 13.3578   1
  -1  -7   7 616.911 16.9346   1
   0  -7   7 514.964 10.9592   1
   1  -7   7 63.5315 2.61459   1
   2  -7   7 346.085 10.8818   1
   3  -7   7 271.092 10.6615   1
   4  -7   7 918.183 26.5549   1
   5  -7   7  59.211 7.30012   1
   6  -7   7  325.03 26.2631   1
   7  -7   7 132.127 7.92284   1
   8  -7   7-0.47912 4.87102   1
   9  -7   7 95.9397 11.5875   1
  -9  -6   7 131.306 12.4523   1
  -8  -6   7 44.7098 9.26295   1
  -7  -6   7 717.859 30.9231   1
  -6  -6   7 180.894 12.0226   1
  -5  -6   7 508.227 12.6635   1
  -4  -6   7  116.33  4.8016   1
  -3  -6   7 189.001 6.00695   1
  -2  -6   7 627.688  13.806   1
  -1  -6   7  5.6567 1.78156   1
   0  -6   7 870.851 16.7313   1
   1  -6   7 157.834 4.54733   1
   2  -6   7 1169.54 28.1123   1
   3  -6   7 549.167 17.1258   1
   4  -6   7 1051.89 28.5309   1
   5  -6   7 3.57543 3.74569   1
   6  -6   7 77.7323  7.7992   1
   7  -6   7 68.2247 7.22661   1
   8  -6   7-4.97732 7.83429   1
   9  -6   7 95.0044 14.9721   1
  -9  -5   7 244.116 15.2735   1
  -8  -5   7 47.5044 8.41265   1
  -7  -5   7  245.80 11.8942   1
  -6  -5   7 263.636  12.141   1
  -5  -5   7 367.356 9.64623   1
  -4  -5   7 603.367 13.3731   1
  -3  -5   7 7.06904 1.68601   1
  -2  -5   7 1877.98 33.6901   1
  -1  -5   7 15.3038 1.97955   1
   0  -5   7 808.657 17.9366   1
   1  -5   7 88.5629 4.18486   1
   2  -5   7 294.278 9.34566   1
   3  -5   7 461.005 10.8785   1
   4  -5   7 573.108 14.2988   1
   5  -5   7 130.471 7.21106   1
   6  -5   7 59.1592 6.61208   1
   7  -5   7  168.83 12.5961   1
   8  -5   7-1.62922 6.86458   1
   9  -5   7 51.7744  12.456   1
 -10  -4   7 84.6448 28.6095   1
  -9  -4   7 157.321 24.3771   1
  -8  -4   7 565.412 16.2092   1
  -7  -4   7 127.805 6.63999   1
  -6  -4   7 625.852 16.6684   1
  -5  -4   7 56.9592 3.69812   1
  -4  -4   7 983.638 18.9487   1
  -3  -4   7 542.924 15.2299   1
  -2  -4   7 1981.83 37.4753   1
  -1  -4   7 493.689 12.8929   1
   0  -4   7 1327.02 27.8726   1
   1  -4   7 3835.45 70.6848   1
   2  -4   7 148.453 5.07163   1
   3  -4   7 1675.00 32.8572   1
   4  -4   7 27.6071  3.4836   1
   5  -4   7 585.755 14.5372   1
   6  -4   7 12.3702 4.43292   1
   7  -4   7 254.831 15.0671   1
   8  -4   7 94.3066 12.6179   1
   9  -4   7 265.017 21.2017   1
 -10  -3   7 205.977 9.30047   1
  -9  -3   7 4.33509 3.03752   1
  -8  -3   7 558.958 21.5472   1
  -7  -3   7 5.76542 1.75775   1
  -6  -3   7 818.861 19.0759   1
  -5  -3   7 311.877 19.8964   1
  -4  -3   7 278.257 12.5477   1
  -3  -3   7 1218.18 28.3453   1
  -2  -3   7 93.3837 3.81631   1
  -1  -3   7  482.19 11.4724   1
   0  -3   7 575.081 12.3498   1
   1  -3   7 459.422 11.6019   1
   2  -3   7 23.9278 2.55686   1
   3  -3   7 805.256  16.398   1
   4  -3   7 3.84241 2.35991   1
   5  -3   7 42.9999 4.30802   1
   6  -3   7 188.747 11.1673   1
   7  -3   7  56.379 8.03292   1
   8  -3   7 174.173 16.1908   1
 -10  -2   7 179.799 11.3954   1
  -9  -2   7-0.49203 4.40863   1
  -8  -2   7 294.944 9.29013   1
  -7  -2   7  14.227 3.64769   1
  -6  -2   7 100.914 8.37461   1
  -5  -2   7 558.373  15.788   1
  -4  -2   7 372.938 11.6834   1
  -3  -2   7 1811.96 41.5871   1
  -2  -2   7 888.753 16.5838   1
  -1  -2   7 5165.36 88.1256   1
   0  -2   7 275.482 7.08214   1
   1  -2   7 839.332 17.3751   1
   2  -2   7 296.383 8.73317   1
   3  -2   7 331.912 9.11302   1
   4  -2   7 1068.09 22.9131   1
   5  -2   7 271.369 11.0253   1
   6  -2   7 475.979 21.2149   1
   7  -2   7 4.67422 5.86007   1
   8  -2   7 398.386 22.4415   1
 -11  -1   7 10.7171  17.093   1
 -10  -1   7 138.033 6.53973   1
  -9  -1   7 256.421 11.7228   1
  -8  -1   7 424.712 12.0146   1
  -7  -1   7 1051.31 27.9799   1
  -6  -1   7 96.5491  7.1662   1
  -5  -1   7 1262.61 40.1007   1
  -4  -1   7  148.70 6.27677   1
  -3  -1   7 464.851 13.1211   1
  -2  -1   7 21.7607 1.91414   1
  -1  -1   7 455.365 10.1995   1
   0  -1   7 82.0542 5.07624   1
   1  -1   7 35.2416 3.17901   1
   2  -1   7  495.76 11.7874   1
   3  -1   7 620.552  14.516   1
   4  -1   7 115.481 6.09332   1
   5  -1   7 3.20183 4.48256   1
   6  -1   7 137.744 15.6386   1
   7  -1   7 29.5659 6.69845   1
   8  -1   7   13.58 7.51891   1
 -11   0   7 27.3622 16.9095   1
 -10   0   7 111.827 7.33919   1
  -9   0   7 114.083 5.43207   1
  -8   0   7 304.263 8.77034   1
  -7   0   7 68.3424 4.98108   1
  -6   0   7 98.9162 7.16131   1
  -5   0   7 1209.24 29.4608   1
  -4   0   7  27.167  3.1083   1
  -3   0   7 930.858 17.4752   1
  -2   0   7 2865.67 50.0249   1
  -1   0   7 1145.22 21.2583   1
   0   0   7 276.541 7.32044   1
   1   0   7 498.431 12.7951   1
   2   0   7 2247.89 43.4383   1
   3   0   7 14.8896 2.98805   1
   4   0   7 481.191 14.2879   1
   5   0   7  35.482  5.8373   1
   6   0   7 130.737 10.8372   1
   7   0   7 8.06507 6.08089   1
   8   0   7 290.637 47.7127   1
 -11   1   7 339.015 16.9968   1
 -10   1   7 26.2606 4.83542   1
  -9   1   7  505.40  13.481   1
  -8   1   7 98.7589 4.87314   1
  -7   1   7 1208.03 26.5668   1
  -6   1   7 250.104 8.35454   1
  -5   1   7 1103.82 24.1185   1
  -4   1   7 1428.95 26.1389   1
  -3   1   7  675.78 13.3228   1
  -2   1   7 1424.32 25.8911   1
  -1   1   7 765.232  15.047   1
   0   1   7 632.894 12.9903   1
   1   1   7 141.707 5.22168   1
   2   1   7 495.777 12.4977   1
   3   1   7 3.83922 2.76828   1
   4   1   7  266.10 9.56079   1
   5   1   7 168.356 31.0369   1
   6   1   7  191.54 12.7136   1
   7   1   7 132.697 15.5454   1
 -11   2   7 54.8175 8.32696   1
 -10   2   7-2.01598 3.28457   1
  -9   2   7 232.699 9.91854   1
  -8   2   7 32.2083 3.20376   1
  -7   2   7 426.527 13.0146   1
  -6   2   7 527.591 14.6942   1
  -5   2   7 271.713 7.35161   1
  -4   2   7 186.025 5.12221   1
  -3   2   7 83.1161 3.35359   1
  -2   2   7 1261.52 23.3577   1
  -1   2   7 98.1491 4.10564   1
   0   2   7 1367.72 27.3506   1
   1   2   7 2348.15 49.0448   1
   2   2   7 177.018 7.65505   1
   3   2   7 352.408 12.0668   1
   4   2   7 96.5458 7.21633   1
   5   2   7 141.348 10.4768   1
   6   2   7 131.331 10.6101   1
   7   2   7 57.2502 46.0629   1
 -11   3   7  98.851 9.05928   1
 -10   3   7 30.8854  4.5359   1
  -9   3   7 141.624 7.13719   1
  -8   3   7 429.454 13.6309   1
  -7   3   7 110.377 7.76264   1
  -6   3   7 712.127 16.8053   1
  -5   3   7 82.6766  3.7376   1
  -4   3   7 2311.83 41.1178   1
  -3   3   7 38.3971 2.40619   1
  -2   3   7 1815.89 32.8774   1
  -1   3   7 119.909 5.06656   1
   0   3   7  840.80 18.3936   1
   1   3   7 119.247 5.68278   1
   2   3   7 84.3378 5.07174   1
   3   3   7 659.415 18.5142   1
   4   3   7 96.1643 7.28876   1
   5   3   7 366.182 43.6389   1
   6   3   7  86.668 15.0255   1
 -11   4   7 109.772 9.31534   1
 -10   4   7  157.19 9.43179   1
  -9   4   7 1.87078 3.79105   1
  -8   4   7 381.011  11.478   1
  -7   4   7 44.6657 3.04287   1
  -6   4   7 453.865 13.8168   1
  -5   4   7 131.053 7.36265   1
  -4   4   7 230.157 8.34639   1
  -3   4   7 144.818 5.23967   1
  -2   4   7 429.161 10.6922   1
  -1   4   7 809.899 17.8077   1
   0   4   7 510.677 12.6635   1
   1   4   7 378.205 10.4987   1
   2   4   7 85.6598 6.10146   1
   3   4   7 479.851 23.5176   1
   4   4   7 21.7579  4.7304   1
   5   4   7  69.672 19.4813   1
   6   4   7 3.03454 12.0049   1
 -11   5   7 7.06751 6.05218   1
 -10   5   7 184.719 12.8259   1
  -9   5   7  0.4249 2.15415   1
  -8   5   7 460.588 22.7523   1
  -7   5   7 27.0823 4.51873   1
  -6   5   7 1269.28 45.6877   1
  -5   5   7 282.327 11.3412   1
  -4   5   7 250.841 8.98826   1
  -3   5   7 392.943 16.9419   1
  -2   5   7 110.949 4.51758   1
  -1   5   7 286.817   8.656   1
   0   5   7  689.38 16.2324   1
   1   5   7 550.394  18.582   1
   2   5   7 54.0336 5.44777   1
   3   5   7 728.447 23.7338   1
   4   5   7  7.1727 4.78837   1
   5   5   7-6.43144  8.4976   1
 -10   6   7 167.666 27.4481   1
  -9   6   7 95.4515 19.4497   1
  -8   6   7 370.637 20.9663   1
  -7   6   7 14.3494 4.78978   1
  -6   6   7 234.465 10.9511   1
  -5   6   7 163.769 12.4063   1
  -4   6   7 4.98028 3.75529   1
  -3   6   7 1034.33 42.3521   1
  -2   6   7 62.5294 3.75537   1
  -1   6   7 295.335 8.40823   1
   0   6   7 112.621 6.31676   1
   1   6   7 165.651 11.0237   1
   2   6   7 230.654  10.083   1
   3   6   7 8.82334 5.13054   1
   4   6   7 57.6662 10.3739   1
 -10   7   7 57.5939 20.4867   1
  -9   7   7 137.373 15.9242   1
  -8   7   7 156.605 19.4039   1
  -7   7   7 898.624 39.4806   1
  -6   7   7 11.3382 4.89469   1
  -5   7   7 192.919 9.91446   1
  -4   7   7 23.1677  5.1727   1
  -3   7   7 472.098 15.5299   1
  -2   7   7 3.54753 2.14041   1
  -1   7   7 496.083 15.3185   1
   0   7   7 262.243 9.49464   1
   1   7   7   47.72  5.1507   1
   2   7   7 184.088 14.3383   1
   3   7   7 141.731 17.7024   1
  -9   8   7 352.134 22.9096   1
  -8   8   7 68.0331 11.5584   1
  -7   8   7 10.8537 7.53232   1
  -6   8   7  37.993 7.59859   1
  -5   8   7 165.721 20.9831   1
  -4   8   7 200.573 14.6298   1
  -3   8   7  102.62 12.5577   1
  -2   8   7 328.263 10.7522   1
  -1   8   7 76.4945 6.83706   1
   0   8   7 130.608 8.13655   1
   1   8   7 8.68908 6.03767   1
   2   8   7 69.9114 10.8708   1
  -9   9   7 106.087 14.5596   1
  -8   9   7 87.1634 13.2572   1
  -7   9   7 66.2468 11.2748   1
  -6   9   7 65.6657  11.905   1
  -5   9   7 143.103   15.09   1
  -4   9   7 343.546 22.5004   1
  -3   9   7 36.8517 10.2782   1
  -2   9   7 177.903 14.0853   1
  -1   9   7-4.06217 5.89957   1
   0   9   7 34.6307 9.37788   1
   1   9   7  6.8039 11.1563   1
  -8  10   7-4.00318 21.3846   1
  -7  10   7 56.1141 13.9422   1
  -6  10   7 174.718 17.9263   1
  -5  10   7 100.984 28.8597   1
  -4  10   7 19.4345 10.5349   1
  -3  10   7-0.74505 9.21248   1
  -2  10   7 139.151 17.1384   1
  -1  10   7 2.01187 12.6934   1
  -5  11   7 60.6592 13.9991   1
  -4  11   7 74.8615 26.6685   1
   1 -14   8 55.0101 9.84607   1
   2 -14   8 5.69094 9.06892   1
   3 -14   8 159.053 25.5259   1
  -2 -13   8 79.0882 9.25821   1
  -1 -13   8 59.9334 7.98624   1
   0 -13   8 80.9583 9.74593   1
   1 -13   8 189.569 13.5685   1
   2 -13   8  5.9689 6.96202   1
   3 -13   8 238.376 19.9537   1
   4 -13   8-3.67048 8.01303   1
   5 -13   8 117.232 15.6185   1
  -3 -12   8 140.297 15.2673   1
  -2 -12   8  67.139 7.53891   1
  -1 -12   8  111.67 7.14774   1
   0 -12   8 10.8735 3.86482   1
   1 -12   8 157.759 12.0175   1
   2 -12   8 23.7292 7.02456   1
   3 -12   8 298.657  16.687   1
   4 -12   8 34.2306 8.00197   1
   5 -12   8 198.053 27.9573   1
   6 -12   8 71.0388 13.5219   1
  -5 -11   8 102.854 29.3154   1
  -4 -11   8 15.8744 13.3357   1
  -3 -11   8 195.829 11.6447   1
  -2 -11   8 -1.7685 4.10331   1
  -1 -11   8 302.793 14.2751   1
   0 -11   8 5.07168 3.22563   1
   1 -11   8 145.908 11.1289   1
   2 -11   8 149.876 15.6643   1
   3 -11   8 118.161 21.3623   1
   4 -11   8 57.9529 8.69343   1
   5 -11   8 9.02566 8.19144   1
   6 -11   8 52.9105 12.0177   1
   7 -11   8 5.30695 14.2919   1
  -6 -10   8 278.871 20.4047   1
  -5 -10   8 103.582 12.3713   1
  -4 -10   8 5.60921 2.63087   1
  -3 -10   8 365.359 12.5409   1
  -2 -10   8 1.11872 3.48488   1
  -1 -10   8 447.338  15.564   1
   0 -10   8 186.355 7.62985   1
   1 -10   8 403.093 14.6174   1
   2 -10   8  221.52 12.7766   1
   3 -10   8 455.098 27.7558   1
   4 -10   8  233.29 37.9957   1
   5 -10   8-4.60799 6.82702   1
   6 -10   8 210.239 18.7377   1
   7 -10   8-9.21208 12.4277   1
  -7  -9   8 297.065 30.9619   1
  -6  -9   8 65.8717 10.6219   1
  -5  -9   8 338.121 15.7581   1
  -4  -9   8 190.147 8.88954   1
  -3  -9   8 554.547 23.2023   1
  -2  -9   8 227.488 8.33632   1
  -1  -9   8 154.513 6.92904   1
   0  -9   8 509.714 12.1719   1
   1  -9   8 6.44439 3.64118   1
   2  -9   8 289.152 10.5513   1
   3  -9   8 89.6727 7.46857   1
   4  -9   8 362.288 47.1708   1
   5  -9   8 84.3764 12.0238   1
   6  -9   8 261.117 28.3834   1
   7  -9   8 23.7059 29.9385   1
   8  -9   8 67.7883 22.1567   1
  -7  -8   8 314.383 24.5114   1
  -6  -8   8 14.0449 5.34339   1
  -5  -8   8 303.469 12.1032   1
  -4  -8   8 83.8324 5.47035   1
  -3  -8   8 137.497 7.08902   1
  -2  -8   8 463.795 16.2579   1
  -1  -8   8 1.32327 2.32575   1
   0  -8   8 832.345 17.7711   1
   1  -8   8 41.5664 6.58418   1
   2  -8   8 1618.97 42.9488   1
   3  -8   8 87.0427 10.9902   1
   4  -8   8 281.915 13.9994   1
   5  -8   8 146.089 29.1279   1
   6  -8   8 113.892 19.2231   1
   7  -8   8 62.2918  11.631   1
   8  -8   8-13.0251 13.0251   1
  -8  -7   8 118.241 20.9625   1
  -7  -7   8 177.954 24.4272   1
  -6  -7   8 264.464 12.5057   1
  -5  -7   8 193.663 8.55359   1
  -4  -7   8 195.447 8.46156   1
  -3  -7   8 30.4202 3.26039   1
  -2  -7   8 770.527 15.9191   1
  -1  -7   8 171.874  6.0176   1
   0  -7   8 968.039 18.7092   1
   1  -7   8 278.222 6.75777   1
   2  -7   8 25.7343 5.47944   1
   3  -7   8 275.458 13.8755   1
   4  -7   8 34.9173  5.2511   1
   5  -7   8 223.646 27.5626   1
   6  -7   8 1.28588 10.0278   1
   7  -7   8 409.075 23.7456   1
   8  -7   8 17.4607 6.80197   1
  -9  -6   8 78.9855 17.3385   1
  -8  -6   8 119.817 25.7048   1
  -7  -6   8 71.8454 7.24757   1
  -6  -6   8 371.159 11.8266   1
  -5  -6   8  28.306 2.84664   1
  -4  -6   8 238.688  7.2091   1
  -3  -6   8 301.099  7.6935   1
  -2  -6   8 1112.30 21.2715   1
  -1  -6   8 55.5573 3.26571   1
   0  -6   8 1183.69 23.7023   1
   1  -6   8 680.658 15.9394   1
   2  -6   8 146.228 5.64884   1
   3  -6   8 159.869 7.04156   1
   4  -6   8 25.4202 3.53698   1
   5  -6   8 811.504 27.5886   1
   6  -6   8-5.23088 5.23088   1
   7  -6   8 12.4303 7.69682   1
   8  -6   8 4.23422 10.6954   1
  -9  -5   8 25.6191 4.08666   1
  -8  -5   8 428.142  11.845   1
  -7  -5   8 19.5208 2.88758   1
  -6  -5   8 617.465 16.4984   1
  -5  -5   8 116.259 5.28635   1
  -4  -5   8 326.188 12.2937   1
  -3  -5   8  844.79  16.731   1
  -2  -5   8 872.969  19.344   1
  -1  -5   8 911.129 20.2509   1
   0  -5   8 25.1221 2.65396   1
   1  -5   8 288.939 7.55448   1
   2  -5   8  125.10 5.07517   1
   3  -5   8 479.067 11.5784   1
   4  -5   8 38.8122 3.99464   1
   5  -5   8 460.249 15.2149   1
   6  -5   8  94.395 9.20053   1
   7  -5   8 93.4239 10.1742   1
   8  -5   8 82.3075 12.8091   1
 -10  -4   8 154.225 31.5179   1
  -9  -4   8 29.8195 12.3105   1
  -8  -4   8  273.06 22.1969   1
  -7  -4   8 171.543 8.83204   1
  -6  -4   8 214.587 8.74405   1
  -5  -4   8 1023.62 24.3046   1
  -4  -4   8 131.409 7.15036   1
  -3  -4   8 2680.54 54.5828   1
  -2  -4   8 526.104 12.7131   1
  -1  -4   8 2440.18 49.6436   1
   0  -4   8  46.223 3.04668   1
   1  -4   8 737.957  15.731   1
   2  -4   8 212.699 6.61568   1
   3  -4   8  495.68 12.1158   1
   4  -4   8 1599.10 30.5346   1
   5  -4   8 371.085 12.9765   1
   6  -4   8 16.2012 4.85339   1
   7  -4   8 12.4047 6.86618   1
   8  -4   8   33.81 10.6024   1
 -10  -3   8  53.562 15.2293   1
  -9  -3   8 92.2394 12.9805   1
  -8  -3   8 141.992 10.6813   1
  -7  -3   8 265.627 16.9338   1
  -6  -3   8 724.285 19.0505   1
  -5  -3   8 741.256 22.5304   1
  -4  -3   8 3.04617 2.88262   1
  -3  -3   8 1043.30  25.518   1
  -2  -3   8 129.502 5.38369   1
  -1  -3   8 144.606  6.1974   1
   0  -3   8 31.9892 2.65738   1
   1  -3   8 624.331 12.8394   1
   2  -3   8 916.515 18.1872   1
   3  -3   8 4.57091  2.2905   1
   4  -3   8 547.735 12.8246   1
   5  -3   8 240.717 10.5372   1
   6  -3   8 103.745 9.07226   1
   7  -3   8-1.35508 7.45791   1
   8  -3   8 354.783 30.4297   1
 -10  -2   8 3.69356 11.7029   1
  -9  -2   8 209.255 13.9805   1
  -8  -2   8 82.7808 7.52372   1
  -7  -2   8 805.372 24.8412   1
  -6  -2   8 45.3905 5.33107   1
  -5  -2   8 898.378 23.2738   1
  -4  -2   8 207.535 7.93054   1
  -3  -2   8 891.289  24.743   1
  -2  -2   8 2022.57 38.2317   1
  -1  -2   8 1025.15 19.3229   1
   0  -2   8 1349.30 28.7511   1
   1  -2   8 32.0824 3.05162   1
   2  -2   8 2537.67 48.5386   1
   3  -2   8 92.1295 5.18285   1
   4  -2   8 596.599 14.7903   1
   5  -2   8 0.78817 4.64922   1
   6  -2   8 105.044 10.6114   1
   7  -2   8 225.913 15.0899   1
   8  -2   8 18.0448 12.1302   1
 -10  -1   8 85.5613 10.4321   1
  -9  -1   8 140.685 11.7837   1
  -8  -1   8 3.62262 4.29126   1
  -7  -1   8 734.769 23.1418   1
  -6  -1   8 19.1782 3.71917   1
  -5  -1   8 186.007 9.17881   1
  -4  -1   8 79.3401 5.11938   1
  -3  -1   8 1900.65  33.892   1
  -2  -1   8 116.102 4.29969   1
  -1  -1   8 411.836 11.9569   1
   0  -1   8 704.365 15.1988   1
   1  -1   8 92.5768  4.8842   1
   2  -1   8 14.7753 2.77671   1
   3  -1   8 33.1773 3.76831   1
   4  -1   8 250.116 9.34161   1
   5  -1   8 39.9962 8.95764   1
   6  -1   8 115.677 10.6776   1
   7  -1   8 219.624 16.4352   1
   8  -1   8-11.3087 11.3087   1
 -11   0   8 134.366  18.719   1
 -10   0   8 26.4427 10.2413   1
  -9   0   8 400.612 19.0067   1
  -8   0   8 314.305 14.7882   1
  -7   0   8 669.491 21.5497   1
  -6   0   8 211.285 8.89513   1
  -5   0   8 603.026 16.9029   1
  -4   0   8 1283.25 25.6654   1
  -3   0   8 72.5646 3.93785   1
  -2   0   8 1219.47 24.3229   1
  -1   0   8  49.723 3.22692   1
   0   0   8 1200.83 24.3003   1
   1   0   8  226.20 7.66659   1
   2   0   8 3125.92 68.1882   1
   3   0   8 128.376 8.33791   1
   4   0   8  190.23 9.24367   1
   5   0   8 401.517 28.9837   1
   6   0   8 0.26588 5.55388   1
   7   0   8 45.1191 8.46232   1
 -11   1   8  310.61 40.8807   1
 -10   1   8 121.366 24.1437   1
  -9   1   8 86.5383 4.69618   1
  -8   1   8 286.153 11.1757   1
  -7   1   8 257.217 11.9285   1
  -6   1   8 261.182 8.53991   1
  -5   1   8 457.617 10.3906   1
  -4   1   8 2683.49 53.9419   1
  -3   1   8 93.9927 3.60489   1
  -2   1   8 1103.28 20.8213   1
  -1   1   8  448.45 10.7341   1
   0   1   8 389.128 9.21459   1
   1   1   8 10.8476 2.48845   1
   2   1   8 9.65946 2.82198   1
   3   1   8 290.886 10.6884   1
   4   1   8-0.12914 3.98347   1
   5   1   8 147.167 11.2963   1
   6   1   8 4.10167 5.75811   1
   7   1   8 131.984 32.4171   1
 -11   2   8 181.104 17.9975   1
 -10   2   8 16.1868 5.44143   1
  -9   2   8-1.13723  2.6799   1
  -8   2   8 652.325 17.2194   1
  -7   2   8 16.5585 2.73109   1
  -6   2   8 1162.96 25.5275   1
  -5   2   8 836.883 27.8644   1
  -4   2   8 129.257 5.17518   1
  -3   2   8 84.5723 3.89108   1
  -2   2   8 381.384 9.94117   1
  -1   2   8 641.297 13.4518   1
   0   2   8 756.364 18.4717   1
   1   2   8 1738.96 34.8259   1
   2   2   8 14.7609 3.27015   1
   3   2   8 501.528 15.3769   1
   4   2   8 42.0628 6.06817   1
   5   2   8 358.332 17.6955   1
   6   2   8 53.1593 8.40719   1
 -11   3   8 71.2313 7.03592   1
 -10   3   8 213.991 10.0436   1
  -9   3   8 0.05929 2.57896   1
  -8   3   8  526.18 16.9987   1
  -7   3   8 21.7712 3.15481   1
  -6   3   8 1990.87 41.7882   1
  -5   3   8 14.7017 2.09879   1
  -4   3   8 400.074 9.13849   1
  -3   3   8 793.739 15.9021   1
  -2   3   8 4.49977  1.8223   1
  -1   3   8 1379.23 28.0635   1
   0   3   8 21.9129 3.29099   1
   1   3   8 366.615 12.7144   1
   2   3   8 63.2862 6.22781   1
   3   3   8 137.373 8.76615   1
   4   3   8  41.697  6.0577   1
   5   3   8 8.85305 6.32643   1
   6   3   8 100.875 37.8853   1
 -11   4   8 98.7105 8.50747   1
 -10   4   8 148.722 8.35196   1
  -9   4   8  52.741 4.43044   1
  -8   4   8 279.714 14.0145   1
  -7   4   8 273.508   10.28   1
  -6   4   8 183.583 8.34742   1
  -5   4   8 15.5635 3.51598   1
  -4   4   8 3.91719 3.39963   1
  -3   4   8 834.435 19.9071   1
  -2   4   8 16.0978 2.81636   1
  -1   4   8 885.115 21.0482   1
   0   4   8-2.64271 2.64271   1
   1   4   8 99.7163 6.52275   1
   2   4   8 -0.0692 3.71706   1
   3   4   8 48.5166 6.24374   1
   4   4   8 209.964  11.309   1
   5   4   8 110.061 10.7516   1
 -10   5   8 171.379 14.3375   1
  -9   5   8 104.926 12.1129   1
  -8   5   8 194.688 17.3765   1
  -7   5   8 652.774 20.8771   1
  -6   5   8 885.451 25.0984   1
  -5   5   8 357.299 15.4691   1
  -4   5   8 90.8142 7.22203   1
  -3   5   8 1203.91 23.2181   1
  -2   5   8 40.9297 3.57658   1
  -1   5   8 276.504 9.90516   1
   0   5   8  139.46 8.31351   1
   1   5   8 173.729 8.89475   1
   2   5   8 143.011 9.14613   1
   3   5   8  40.858 7.81802   1
   4   5   8 115.204 13.1547   1
 -10   6   8 13.8288 16.5351   1
  -9   6   8 222.427  42.677   1
  -8   6   8 0.68135 4.68055   1
  -7   6   8 34.1344 5.51066   1
  -6   6   8 10.6437 4.45641   1
  -5   6   8 232.805 18.4772   1
  -4   6   8 435.148 18.0725   1
  -3   6   8  81.171 6.44024   1
  -2   6   8 139.362 5.61703   1
  -1   6   8 182.555 8.35375   1
   0   6   8 66.9718  5.6417   1
   1   6   8 39.1112 4.93304   1
   2   6   8 152.191 10.9761   1
   3   6   8 6.56175 5.15352   1
   4   6   8 296.123 37.1369   1
 -10   7   8-15.2723 15.2723   1
  -9   7   8 167.253 22.4245   1
  -8   7   8 3.86924 9.86064   1
  -7   7   8 572.766 23.3178   1
  -6   7   8 152.772 9.97266   1
  -5   7   8 149.079 11.3063   1
  -4   7   8 634.869 25.4161   1
  -3   7   8 553.351 23.2357   1
  -2   7   8 300.879 10.1255   1
  -1   7   8 43.8939 5.27434   1
   0   7   8 261.282 12.1164   1
   1   7   8 58.8701 5.79535   1
   2   7   8 13.3325 6.62109   1
   3   7   8 103.394 13.3435   1
  -9   8   8 42.7541 11.1497   1
  -8   8   8 156.628 18.1709   1
  -7   8   8 91.9867 15.7084   1
  -6   8   8 267.593  29.066   1
  -5   8   8 -4.1687 6.15942   1
  -4   8   8 31.0699 8.11204   1
  -3   8   8 9.01819 10.0705   1
  -2   8   8  120.55 10.1654   1
  -1   8   8 58.2502 5.76394   1
   0   8   8 54.9082 5.87238   1
   1   8   8 165.514 11.8667   1
   2   8   8 110.671 21.5515   1
  -8   9   8 89.8359 14.1655   1
  -7   9   8 17.1968 9.85965   1
  -6   9   8 52.5762 11.4071   1
  -5   9   8 2.02469 7.07649   1
  -4   9   8 379.858 20.3683   1
  -3   9   8 38.8436 8.85925   1
  -2   9   8 133.886 12.9342   1
  -1   9   8 32.8284 7.83266   1
   0   9   8 2.74481 9.97075   1
  -7  10   8-2.08993 10.8118   1
  -6  10   8  26.148 15.2521   1
  -5  10   8 35.9996 11.2237   1
  -4  10   8 69.5346 15.3657   1
  -3  10   8 62.3288 13.4726   1
  -2  10   8 70.6945 26.1283   1
  -2 -13   9 7.14198 7.28265   1
  -1 -13   9 265.751 16.2597   1
   0 -13   9 0.11403 7.03909   1
   1 -13   9 77.5038 10.1401   1
   2 -13   9 27.4713 8.11675   1
   3 -13   9 78.7022 11.1885   1
   4 -13   9 162.697 16.7419   1
  -3 -12   9 92.5206 11.3799   1
  -2 -12   9 72.6893 7.10482   1
  -1 -12   9 395.743  13.847   1
   0 -12   9 61.4959 8.62731   1
   1 -12   9 129.235 11.2823   1
   2 -12   9 72.2557 9.70314   1
   3 -12   9 17.2486 7.23654   1
   4 -12   9 144.881 20.5117   1
   5 -12   9 20.6406 10.4535   1
   6 -12   9 77.1863 14.6329   1
  -5 -11   9 110.831 12.4733   1
  -4 -11   9  42.976 8.97122   1
  -3 -11   9 141.304 11.7102   1
  -2 -11   9 20.7923 5.03633   1
  -1 -11   9 120.431 7.68902   1
   0 -11   9  61.111 5.25654   1
   1 -11   9 83.8238 11.5101   1
   2 -11   9  145.51 23.7882   1
   3 -11   9 68.9603 9.37188   1
   4 -11   9 299.883 20.2804   1
   5 -11   9 15.0635 13.1264   1
   6 -11   9 99.4611  14.523   1
  -6 -10   9 38.7224 9.86773   1
  -5 -10   9 152.259  11.664   1
  -4 -10   9 134.755 7.68522   1
  -3 -10   9 408.936 12.6506   1
  -2 -10   9 365.987 11.4875   1
  -1 -10   9 54.9413 6.01091   1
   0 -10   9 540.854 13.7173   1
   1 -10   9-2.46578   4.683   1
   2 -10   9 229.956 13.7727   1
   3 -10   9 55.0643 10.9989   1
   4 -10   9 329.773 29.8441   1
   5 -10   9 35.9278 9.69289   1
   6 -10   9 107.426 33.4455   1
   7 -10   9 85.0001 24.2959   1
  -7  -9   9 77.9238 22.6944   1
  -6  -9   9 126.361  10.847   1
  -5  -9   9 20.8133 3.77253   1
  -4  -9   9  123.02 7.03425   1
  -3  -9   9 14.3352 5.24073   1
  -2  -9   9 357.491 10.9532   1
  -1  -9   9 73.6573 5.11966   1
   0  -9   9 767.729 17.9636   1
   1  -9   9 62.6871 5.39341   1
   2  -9   9 202.164 11.9014   1
   3  -9   9 283.686 18.1403   1
   4  -9   9 285.577 32.3234   1
   5  -9   9 106.367 13.3845   1
   6  -9   9 11.0709 8.89877   1
   7  -9   9 163.796 38.5474   1
  -7  -8   9 8.46811 11.1364   1
  -6  -8   9 353.656 15.1224   1
  -5  -8   9 37.6175 5.00449   1
  -4  -8   9 1324.08 41.2132   1
  -3  -8   9 65.7991 4.41718   1
  -2  -8   9 512.952  14.085   1
  -1  -8   9 194.003 6.43905   1
   0  -8   9  488.55 11.0315   1
   1  -8   9 92.1739 6.08092   1
   2  -8   9 83.9756  7.0446   1
   3  -8   9 638.014 20.7167   1
   4  -8   9 3.43172   6.634   1
   5  -8   9 357.659 29.9611   1
   6  -8   9   7.782  7.7421   1
   7  -8   9 122.552 15.5006   1
   8  -8   9 5.54154 17.0712   1
  -8  -7   9 67.8797 15.6825   1
  -7  -7   9 2.57972 4.23034   1
  -6  -7   9 196.797 7.69048   1
  -5  -7   9 6.06266 2.53024   1
  -4  -7   9 113.132 5.21823   1
  -3  -7   9 234.187 9.24252   1
  -2  -7   9 111.597 4.98158   1
  -1  -7   9 530.374 11.9895   1
   0  -7   9 40.5451 3.11345   1
   1  -7   9 1127.98 22.9754   1
   2  -7   9 11.3284 3.33542   1
   3  -7   9 421.254 15.0659   1
   4  -7   9  251.11   16.79   1
   5  -7   9 122.265 19.4901   1
   6  -7   9 163.606 8.97196   1
   7  -7   9 115.622 7.68481   1
   8  -7   9 58.1356 14.0293   1
  -9  -6   9 5.33628 13.0935   1
  -8  -6   9 179.826 20.3618   1
  -7  -6   9 50.3157 4.83369   1
  -6  -6   9 573.906 20.1934   1
  -5  -6   9  855.52 21.1074   1
  -4  -6   9  316.63 8.13189   1
  -3  -6   9 139.863 5.23665   1
  -2  -6   9 179.025  5.9227   1
  -1  -6   9 1110.13 24.5412   1
   0  -6   9 114.108 6.06925   1
   1  -6   9 315.803 10.2504   1
   2  -6   9 54.8169 5.43049   1
   3  -6   9 119.053 5.28255   1
   4  -6   9 4.65064 4.45061   1
   5  -6   9 264.195 21.6265   1
   6  -6   9 30.2988 7.48768   1
   7  -6   9 71.1803 10.6392   1
   8  -6   9 84.2681  15.445   1
  -9  -5   9 35.8329 17.9765   1
  -8  -5   9 128.061 9.72974   1
  -7  -5   9 257.247 12.3947   1
  -6  -5   9 236.278 14.3761   1
  -5  -5   9  363.45 11.6165   1
  -4  -5   9 494.316  13.651   1
  -3  -5   9 454.561  11.808   1
  -2  -5   9 1.04365 1.90492   1
  -1  -5   9 705.709 16.5483   1
   0  -5   9 573.001 15.8456   1
   1  -5   9 616.134 13.8628   1
   2  -5   9 447.386 11.0743   1
   3  -5   9 68.5201 4.53922   1
   4  -5   9 1782.62 38.5784   1
   5  -5   9 68.0231 6.97877   1
   6  -5   9 173.054 13.7327   1
   7  -5   9 29.6267 8.77976   1
   8  -5   9 14.5782 12.6076   1
  -9  -4   9 423.066 34.1304   1
  -8  -4   9 73.9735 6.71949   1
  -7  -4   9  983.05 29.2002   1
  -6  -4   9 1.74002  3.2286   1
  -5  -4   9 736.986 19.5167   1
  -4  -4   9 130.615 6.97851   1
  -3  -4   9 504.391 12.5411   1
  -2  -4   9 2408.80 49.6576   1
  -1  -4   9 956.535 21.3193   1
   0  -4   9 421.428 10.3563   1
   1  -4   9 254.614 7.46372   1
   2  -4   9 137.744 5.39206   1
   3  -4   9 676.191 15.9125   1
   4  -4   9 66.0915 5.03927   1
   5  -4   9 54.6536 6.08702   1
   6  -4   9 121.743  8.8418   1
   7  -4   9 23.9023  7.6666   1
   8  -4   9 17.2368 10.5274   1
 -10  -3   9-8.19749  13.076   1
  -9  -3   9 238.648 14.9812   1
  -8  -3   9 12.6943 5.69566   1
  -7  -3   9  431.39  18.604   1
  -6  -3   9 5.35281 3.27847   1
  -5  -3   9 1034.69 26.4873   1
  -4  -3   9 207.697 8.24455   1
  -3  -3   9 115.388 6.16802   1
  -2  -3   9  811.11 17.1349   1
  -1  -3   9 639.195  13.194   1
   0  -3   9 1209.15 22.7404   1
   1  -3   9 111.438  5.1444   1
   2  -3   9 1634.96 30.4735   1
   3  -3   9 1549.67 29.5108   1
   4  -3   9 580.954 17.5965   1
   5  -3   9 257.786  12.114   1
   6  -3   9 47.3406 7.45818   1
   7  -3   9 130.607 14.0106   1
   8  -3   9 147.969 15.4983   1
 -10  -2   9 73.0831 14.2765   1
  -9  -2   9 101.973 10.5273   1
  -8  -2   9  241.10 12.0327   1
  -7  -2   9 466.517 16.8084   1
  -6  -2   9 179.085 9.53087   1
  -5  -2   9 324.526 11.1641   1
  -4  -2   9 1825.18 42.6506   1
  -3  -2   9 322.047 7.59342   1
  -2  -2   9 2016.08 36.0708   1
  -1  -2   9-1.23747 1.77506   1
   0  -2   9 554.333 12.7572   1
   1  -2   9 10.7857 2.54198   1
   2  -2   9 217.832 7.35003   1
   3  -2   9 6.08089 2.98004   1
   4  -2   9 139.339 7.61882   1
   5  -2   9 152.866 10.2261   1
   6  -2   9 59.5597 9.65352   1
   7  -2   9 16.2755 7.84958   1
 -10  -1   9 2.03616  9.6103   1
  -9  -1   9 632.824 30.1387   1
  -8  -1   9 71.5277 7.51876   1
  -7  -1   9 267.857 12.2065   1
  -6  -1   9 283.382 10.6929   1
  -5  -1   9 17.7911 3.61349   1
  -4  -1   9 11.2549 3.60484   1
  -3  -1   9 159.428 5.57784   1
  -2  -1   9 1727.77 33.6805   1
  -1  -1   9 39.2219 3.41502   1
   0  -1   9 1363.89 27.4356   1
   1  -1   9 842.917 18.4478   1
   2  -1   9 47.5603 4.08468   1
   3  -1   9 466.652 12.4424   1
   4  -1   9 16.1345 4.73372   1
   5  -1   9  271.21 22.8199   1
   6  -1   9  47.436 8.48938   1
   7  -1   9 185.634 20.4049   1
 -11   0   9 51.8901 13.9461   1
 -10   0   9 23.5809 9.87608   1
  -9   0   9 14.9682  6.8046   1
  -8   0   9 401.592 16.6026   1
  -7   0   9 30.3703 5.68244   1
  -6   0   9 980.918 25.4806   1
  -5   0   9 696.303 18.9261   1
  -4   0   9 2184.25 42.3482   1
  -3   0   9 328.015 9.51702   1
  -2   0   9 622.091  14.033   1
  -1   0   9 465.716 11.2191   1
   0   0   9  173.09 6.15054   1
   1   0   9 16.9053 2.94093   1
   2   0   9 36.5608 3.89525   1
   3   0   9 765.009 18.0121   1
   4   0   9-2.29101 4.47293   1
   5   0   9 200.786 19.3311   1
   6   0   9-6.01656 6.01656   1
   7   0   9 17.5564 8.11309   1
 -11   1   9 79.9846 14.7463   1
  -9   1   9  14.458 6.14982   1
  -8   1   9 413.718 19.0115   1
  -7   1   9 18.4599 4.63011   1
  -6   1   9 409.635 13.5938   1
  -5   1   9 266.813 6.73574   1
  -4   1   9 591.322 12.4311   1
  -3   1   9 480.769 10.5984   1
  -2   1   9 44.7472 3.74424   1
  -1   1   9 954.274  18.891   1
   0   1   9 3.52528 2.20457   1
   1   1   9 404.966  10.936   1
   2   1   9 2.37098 3.29525   1
   3   1   9 576.196 31.5619   1
   4   1   9 54.4825 6.23334   1
   5   1   9 6.61708 5.67318   1
   6   1   9 92.8396 10.3842   1
 -10   2   9 67.1022 8.71533   1
  -9   2   9 4.26711 4.72043   1
  -8   2   9 289.232  8.4336   1
  -7   2   9 354.805 13.9277   1
  -6   2   9 176.541 6.06629   1
  -5   2   9 2206.56 42.3618   1
  -4   2   9 156.478 5.16423   1
  -3   2   9 1054.75 20.4028   1
  -2   2   9 19.9037 2.51597   1
  -1   2   9 1640.90 30.5576   1
   0   2   9 58.2713 3.95832   1
   1   2   9 647.168  15.576   1
   2   2   9  576.69 18.8951   1
   3   2   9 133.517 10.5244   1
   4   2   9 30.7493 5.64703   1
   5   2   9 60.4183 10.3165   1
   6   2   9 195.239  44.467   1
 -11   3   9 111.983 22.0304   1
 -10   3   9 168.122 10.6378   1
  -9   3   9 46.6648 3.70246   1
  -8   3   9 26.9532 5.14434   1
  -7   3   9 446.208 19.7154   1
  -6   3   9  104.88 4.66445   1
  -5   3   9 499.155 11.0642   1
  -4   3   9 101.112 4.50086   1
  -3   3   9 268.912 8.22826   1
  -2   3   9 28.6184 2.95108   1
  -1   3   9 128.615 7.94496   1
   0   3   9 168.047 7.50091   1
   1   3   9 58.6695    4.87   1
   2   3   9 263.411  10.762   1
   3   3   9 27.9114 5.55871   1
   4   3   9 181.555 12.8671   1
   5   3   9 14.5445 7.44278   1
 -10   4   9 63.1008 10.7366   1
  -9   4   9 104.674 6.46342   1
  -8   4   9 0.05938 1.52415   1
  -7   4   9 378.077 13.9984   1
  -6   4   9 21.9611 4.08322   1
  -5   4   9 545.514 16.7716   1
  -4   4   9 5.74153 2.68409   1
  -3   4   9  327.19  10.057   1
  -2   4   9  765.85  29.429   1
  -1   4   9  375.41 10.7939   1
   0   4   9 625.172 23.4452   1
   1   4   9-1.23556 3.82529   1
   2   4   9 89.0792  7.7964   1
   3   4   9 60.5231 6.91777   1
   4   4   9 220.386 12.5932   1
 -10   5   9 0.71149 16.0578   1
  -9   5   9 292.711 25.2247   1
  -8   5   9 101.848 7.72369   1
  -7   5   9 211.733 13.4619   1
  -6   5   9 355.746 15.8348   1
  -5   5   9 311.666 12.6772   1
  -4   5   9 61.7695 6.22096   1
  -3   5   9 68.1226 3.55752   1
  -2   5   9 126.842 7.73268   1
  -1   5   9 5.16755 3.87814   1
   0   5   9 94.6171 8.59886   1
   1   5   9 11.0377 5.19996   1
   2   5   9 12.6241 5.62051   1
   3   5   9 153.855 9.56195   1
   4   5   9 44.4658 8.17939   1
 -10   6   9 38.2562 21.0564   1
  -9   6   9 37.0071 10.0731   1
  -8   6   9 68.8346 9.17926   1
  -7   6   9 419.425   19.85   1
  -6   6   9 129.996  10.997   1
  -5   6   9 464.701 17.2357   1
  -4   6   9 179.203 10.7203   1
  -3   6   9 58.7121 8.29132   1
  -2   6   9 520.269 15.2234   1
  -1   6   9 50.1055 4.77757   1
   0   6   9 237.673 9.49004   1
   1   6   9 6.42267 5.53882   1
   2   6   9  314.00  15.605   1
   3   6   9 121.788  10.786   1
  -9   7   9 114.762 14.3602   1
  -8   7   9 314.027 25.1119   1
  -7   7   9 20.3597 7.19391   1
  -6   7   9 374.366 19.0887   1
  -5   7   9 23.3291 7.17893   1
  -4   7   9 31.1072 7.67593   1
  -3   7   9 165.244 16.1381   1
  -2   7   9 329.802 10.9244   1
  -1   7   9 98.6294 6.82267   1
   0   7   9 79.0901  7.1909   1
   1   7   9 64.8924 7.64206   1
   2   7   9-1.17329  7.2578   1
  -9   8   9 16.5878 10.7136   1
  -8   8   9 233.098  19.849   1
  -7   8   9 -1.2405 7.04603   1
  -6   8   9 137.473 21.4805   1
  -5   8   9 81.9682 22.9953   1
  -4   8   9 50.2662 11.1768   1
  -3   8   9 266.629  16.901   1
  -2   8   9 108.496 8.35805   1
  -1   8   9 73.2015 7.66236   1
   0   8   9 37.8984 7.51864   1
   1   8   9 89.9912 10.1555   1
  -7   9   9 9.57161 10.4141   1
  -6   9   9 38.2305 11.2828   1
  -5   9   9 -1.6167 8.16381   1
  -4   9   9-1.88903 8.95279   1
  -3   9   9 217.795 20.2147   1
  -2   9   9 9.29042 8.71745   1
  -1   9   9 82.0448 16.3481   1
  -1 -13  10 100.694 17.2293   1
   0 -13  10 99.5008  13.365   1
   1 -13  10 39.4867 8.89257   1
   2 -13  10  116.86 11.8855   1
   3 -13  10 1.45129 10.3156   1
   4 -13  10 218.761 27.2884   1
  -3 -12  10 98.6113 9.28712   1
  -2 -12  10 101.268 9.99259   1
  -1 -12  10 2.62474 6.46557   1
   0 -12  10 103.923 11.4809   1
   1 -12  10 8.07629 8.33844   1
   2 -12  10  84.965 16.7727   1
   3 -12  10  142.40 15.8346   1
   4 -12  10 55.0091 19.1136   1
   5 -12  10 81.9515 19.4792   1
  -4 -11  10 83.1929 10.3568   1
  -3 -11  10 23.5551 5.65484   1
  -2 -11  10 193.267 18.8027   1
  -1 -11  10-2.67782 4.48958   1
   0 -11  10 427.416 18.8534   1
   1 -11  10 1.55468 11.1718   1
   2 -11  10 429.538 29.0213   1
   3 -11  10 119.206 13.8363   1
   4 -11  10 88.6575 13.0897   1
   5 -11  10 104.073 15.8302   1
   6 -11  10 39.3404 12.8429   1
  -6 -10  10 239.637 20.5548   1
  -5 -10  10 71.2009  9.2412   1
  -4 -10  10 223.735 10.9725   1
  -3 -10  10-2.41836 3.62754   1
  -2 -10  10 244.189  10.492   1
  -1 -10  10 50.9235 5.80255   1
   0 -10  10  250.68 8.06435   1
   1 -10  10 183.437 12.6467   1
   3 -10  10 113.532  20.788   1
   4 -10  10 12.8163  8.7675   1
   5 -10  10 59.4302   11.43   1
   6 -10  10 14.9191 10.2702   1
  -6  -9  10 334.734 24.9816   1
  -5  -9  10-2.14234 3.71934   1
  -4  -9  10 39.6403 4.55601   1
  -3  -9  10 148.618 7.27693   1
  -2  -9  10 666.536 16.9868   1
  -1  -9  10 273.812 9.87813   1
   0  -9  10 53.4501 4.67987   1
   1  -9  10  757.36 26.6424   1
   2  -9  10 129.272 13.3565   1
   3  -9  10 328.221 23.7994   1
   4  -9  10 8.42463 7.19832   1
   5  -9  10 659.218 46.0414   1
   6  -9  10 39.1496 10.4754   1
   7  -9  10 50.3882  18.987   1
  -7  -8  10 72.0207 16.4928   1
  -6  -8  10 322.236 22.2689   1
  -5  -8  10 105.655 6.76011   1
  -4  -8  10 179.868  8.4694   1
  -3  -8  10 634.191 16.3315   1
  -2  -8  10 82.6281 4.81232   1
  -1  -8  10 611.061 14.2961   1
   0  -8  10 7.95756 2.58921   1
   1  -8  10 316.193 8.62136   1
   2  -8  10 16.2189 5.26989   1
   3  -8  10 308.034 18.7467   1
   4  -8  10 265.895 27.7912   1
   5  -8  10 56.7373 10.9927   1
   6  -8  10 107.913 27.3704   1
   7  -8  10 35.8836 9.82767   1
  -8  -7  10 5.27908 13.5791   1
  -7  -7  10 123.508 9.84857   1
  -6  -7  10 64.9486 7.73667   1
  -5  -7  10 285.417 8.63729   1
  -4  -7  10 46.1517 4.04875   1
  -3  -7  10  653.27 14.9222   1
  -2  -7  10 69.1825 5.27305   1
  -1  -7  10 62.4684 4.19871   1
   0  -7  10 418.745 10.7769   1
   1  -7  10 574.109 14.5895   1
   2  -7  10 140.917 7.98382   1
   3  -7  10 224.407 13.1933   1
   4  -7  10 714.216 52.5925   1
   5  -7  10  181.26 30.6264   1
   6  -7  10 113.918 8.88474   1
   7  -7  10 13.4685 8.47421   1
  -8  -6  10 115.077 11.1442   1
  -7  -6  10 370.718 14.7338   1
  -6  -6  10 105.947 7.82262   1
  -5  -6  10 351.885 12.6984   1
  -4  -6  10  4.3906 3.24523   1
  -3  -6  10 215.048 7.57438   1
  -2  -6  10 33.5799 3.52251   1
  -1  -6  10 938.935 22.9466   1
   0  -6  10 363.067 10.5375   1
   1  -6  10 641.778 16.1349   1
   2  -6  10 492.222 12.4743   1
   3  -6  10 52.7395 4.83179   1
   4  -6  10 48.4331 8.18855   1
   5  -6  10 14.6882 4.75352   1
   6  -6  10  182.92 11.5567   1
   7  -6  10 26.7605 10.5163   1
  -9  -5  10 80.7425  16.586   1
  -8  -5  10  85.553 7.39104   1
  -7  -5  10 281.113 19.8957   1
  -6  -5  10 91.3087 7.41498   1
  -5  -5  10 637.301 17.9579   1
  -4  -5  10 254.022 9.85955   1
  -3  -5  10  7.3278 2.46287   1
  -2  -5  10 1086.48 24.2581   1
  -1  -5  10 51.2325 3.90208   1
   0  -5  10 698.397 16.7971   1
   1  -5  10 22.0823 3.11145   1
   2  -5  10 362.081 9.95734   1
   3  -5  10 4.95861 2.80487   1
   4  -5  10 388.702 14.0771   1
   5  -5  10 193.802 11.5936   1
   6  -5  10 126.365 8.94534   1
   7  -5  10  55.876 11.5564   1
  -9  -4  10 257.643 27.6406   1
  -8  -4  10 344.605 25.7967   1
  -7  -4  10 258.001 12.1942   1
  -6  -4  10 77.1903 7.83526   1
  -5  -4  10 392.189 14.4604   1
  -4  -4  10 144.638 7.71256   1
  -3  -4  10 1579.59 30.8247   1
  -2  -4  10 1415.87 28.0027   1
  -1  -4  10 225.658 6.44246   1
   0  -4  10 1068.76 21.1476   1
   1  -4  10 43.7987  3.5717   1
   2  -4  10 83.8953 4.81069   1
   3  -4  10 2.96754 2.92744   1
   4  -4  10 221.199 10.1524   1
   5  -4  10 536.856 18.8472   1
   6  -4  10 153.473 9.98868   1
   7  -4  10 25.0814 9.05247   1
 -10  -3  10 3.58237 12.1419   1
  -9  -3  10 231.024 12.9013   1
  -8  -3  10 96.2309 13.1663   1
  -7  -3  10 129.559 8.85236   1
  -6  -3  10 890.372 24.2308   1
  -5  -3  10 0.77202    3.21   1
  -4  -3  10 809.302  21.541   1
  -3  -3  10 1342.40   26.45   1
  -2  -3  10 968.966 18.7967   1
  -1  -3  10 299.045 7.63087   1
   0  -3  10 590.055 22.6952   1
   1  -3  10 406.318 9.90403   1
   2  -3  10 500.788 12.7539   1
   3  -3  10 590.069 13.9538   1
   4  -3  10  73.628 6.82202   1
   5  -3  10 498.864  17.035   1
   6  -3  10 18.7746 7.70162   1
   7  -3  10 41.5972 10.8897   1
 -10  -2  10 161.512 23.9384   1
  -9  -2  10 272.694 14.3033   1
  -8  -2  10 192.465 11.3098   1
  -7  -2  10 13.6306 4.32018   1
  -6  -2  10 588.512 17.5879   1
  -5  -2  10 31.0795 4.31915   1
  -4  -2  10 2326.38 53.6021   1
  -3  -2  10 13.7186 1.77606   1
  -2  -2  10  543.79 11.6625   1
  -1  -2  10 180.109   6.545   1
   0  -2  10 261.376 8.08337   1
   1  -2  10 95.6952 5.29055   1
   2  -2  10 7.47432 3.14284   1
   3  -2  10 771.544  19.749   1
   4  -2  10 81.6313 6.90359   1
   5  -2  10 243.861  15.332   1
   6  -2  10 10.4104 7.03916   1
   7  -2  10 11.4756 8.89407   1
 -10  -1  10 18.6201 10.8075   1
  -9  -1  10 97.8078  10.873   1
  -8  -1  10 624.596 25.9757   1
  -7  -1  10 70.7633 7.00915   1
  -6  -1  10 842.954 22.9422   1
  -5  -1  10 299.585  10.698   1
  -4  -1  10 30.4381 3.96574   1
  -3  -1  10 520.657 13.1663   1
  -2  -1  10 78.1344 4.20033   1
  -1  -1  10 1123.05  23.307   1
   0  -1  10 81.2402 4.71914   1
   1  -1  10 1051.78 22.5711   1
   2  -1  10 167.128 7.29048   1
   3  -1  10 86.1525  6.2464   1
   4  -1  10 41.0088 6.30372   1
   5  -1  10 355.263 20.3787   1
   6  -1  10 23.4627 14.4683   1
 -10   0  10 81.4005 21.6839   1
  -9   0  10 9.30932 7.08019   1
  -8   0  10 378.264 18.2765   1
  -7   0  10 228.076 11.7821   1
  -6   0  10 476.155 14.8969   1
  -5   0  10 185.184 8.31785   1
  -4   0  10 270.535 7.70241   1
  -3   0  10 553.971 13.1626   1
  -2   0  10  34.886 3.31325   1
  -1   0  10 1027.49 21.7364   1
   0   0  10  86.071 5.01886   1
   1   0  10 435.727 11.6837   1
   2   0  10 119.971 6.61162   1
   3   0  10 59.8586 6.50421   1
   4   0  10 12.8298 5.29156   1
   5   0  10 1.91988 6.22239   1
   6   0  10 47.7704 9.28785   1
 -10   1  10 428.128 25.4046   1
  -9   1  10 127.998 11.4343   1
  -8   1  10 85.7727 8.93424   1
  -7   1  10 505.969  20.823   1
  -6   1  10 114.082 6.78745   1
  -5   1  10 347.706 10.5476   1
  -4   1  10 13.3239 2.02866   1
  -3   1  10 1286.00 32.9547   1
  -2   1  10 104.438 4.76292   1
  -1   1  10 55.1411 3.95822   1
   0   1  10 312.708 9.90382   1
   1   1  10 94.4231 5.63345   1
   2   1  10 105.288 8.12587   1
   3   1  10 185.757 17.7593   1
   4   1  10 507.842 33.0657   1
   5   1  10 7.05215  6.7851   1
   6   1  10 92.7526 11.5353   1
 -10   2  10 91.1794 10.4474   1
  -9   2  10 359.012 18.1893   1
  -8   2  10 11.1586 9.34671   1
  -7   2  10 686.013 26.1036   1
  -6   2  10 46.5415 3.27544   1
  -5   2  10 434.059 11.7918   1
  -4   2  10 353.278 8.78297   1
  -3   2  10 674.185 15.4438   1
  -2   2  10 283.976 9.35507   1
  -1   2  10  457.18 14.0189   1
   0   2  10 1060.27 23.1235   1
   1   2  10 76.5995 7.25816   1
   2   2  10 206.557 10.8443   1
   3   2  10  4.8417 5.11669   1
   4   2  10 31.3068 6.60955   1
   5   2  10 36.6404 17.1055   1
 -10   3  10-5.18235 5.73303   1
  -9   3  10 71.6556 8.32497   1
  -8   3  10 2.00486  2.2814   1
  -7   3  10 325.492   9.975   1
  -6   3  10 172.415 11.0867   1
  -5   3  10 353.309 9.59706   1
  -4   3  10 448.257 11.7463   1
  -3   3  10 7.36509 2.92586   1
  -2   3  10 42.2678   3.956   1
  -1   3  10 3.10706 3.12711   1
   0   3  10 320.363 11.2647   1
   1   3  10 10.2114 4.48788   1
   2   3  10 241.916 12.2854   1
   3   3  10 110.011 8.95825   1
   4   3  10 105.669 9.87567   1
 -10   4  10 21.4028  3.8385   1
  -9   4  10  69.181 11.9785   1
  -8   4  10 268.763 22.7695   1
  -7   4  10 268.321  15.035   1
  -6   4  10 318.437 14.2594   1
  -5   4  10 77.8252 6.57621   1
  -4   4  10 343.007 13.4324   1
  -3   4  10 75.3365 6.11134   1
  -2   4  10 678.463 17.5942   1
  -1   4  10 329.495  13.451   1
   0   4  10 324.037 13.2129   1
   1   4  10 84.0474 6.80113   1
   2   4  10 26.9094 5.96026   1
   3   4  10  65.836  8.5675   1
   4   4  10 11.4379 10.0953   1
 -10   5  10 26.1426 18.2829   1
  -9   5  10 267.287 20.0928   1
  -8   5  10 76.1118 9.26083   1
  -7   5  10 42.0027 5.57934   1
  -6   5  10 148.642 17.2772   1
  -5   5  10-5.30304 5.38233   1
  -4   5  10 0.40665 4.85004   1
  -3   5  10 70.3229 7.86539   1
  -2   5  10 176.187 9.46221   1
  -1   5  10 96.8128 7.63406   1
   0   5  10 283.442  19.636   1
   1   5  10 28.8173 9.48158   1
   2   5  10 32.5885 7.31781   1
   3   5  10 20.4394 28.2457   1
  -9   6  10-10.6876 10.6876   1
  -8   6  10 187.402 15.3797   1
  -7   6  10 10.8284 5.40928   1
  -6   6  10 366.296 24.4834   1
  -5   6  10 10.5744 5.22811   1
  -4   6  10 562.331 25.5712   1
  -3   6  10 301.526  16.622   1
  -2   6  10 97.4683 6.53452   1
  -1   6  10 66.2986 6.05744   1
   0   6  10 28.0874 5.83761   1
   1   6  10 69.3015 8.77826   1
   2   6  10  7.2395 11.7655   1
  -9   7  10  9.9138 14.5288   1
  -8   7  10 119.949 12.3733   1
  -7   7  10 44.9889 8.89511   1
  -6   7  10 71.1794 10.5356   1
  -5   7  10 53.9367 10.1187   1
  -4   7  10 10.3172 7.70354   1
  -3   7  10 208.566 33.3152   1
  -2   7  10 22.2193 3.77866   1
  -1   7  10 258.726 12.9759   1
   0   7  10-1.96879 6.25795   1
   1   7  10 74.0647 10.3614   1
  -8   8  10 71.6778 13.7573   1
  -7   8  10 152.737 14.2317   1
  -6   8  10 51.1855 10.0975   1
  -5   8  10 259.291 18.2517   1
  -4   8  10 2.85339 7.08873   1
  -3   8  10 94.9478 15.5453   1
  -2   8  10-3.96752 7.75378   1
  -1   8  10 65.3444 8.10903   1
  -6   9  10 9.34355 13.4172   1
  -5   9  10 133.097 25.8954   1
  -4   9  10-1.81681 9.45565   1
  -3   9  10 102.768 24.6342   1
  -1 -13  11  70.444 13.1895   1
   0 -13  11  408.29 25.2314   1
   1 -13  11 38.3127 9.62545   1
   2 -13  11 127.543 16.0678   1
   3 -13  11-4.20127 10.5296   1
  -3 -12  11 4.78956 10.2573   1
  -2 -12  11  10.674 7.76008   1
  -1 -12  11  180.57  12.268   1
   0 -12  11 213.686 19.7103   1
   1 -12  11 4.01879 6.99229   1
   2 -12  11  27.687 10.3381   1
   3 -12  11   84.84 13.6317   1
   4 -12  11 7.70741  10.497   1
  -4 -11  11  251.78 13.2777   1
  -3 -11  11 111.206 7.94253   1
  -2 -11  11  63.756 6.47381   1
  -1 -11  11 253.952 12.8429   1
   0 -11  11 116.572 18.9063   1
   1 -11  11 274.697 19.5391   1
   2 -11  11 5.76166 10.2307   1
   3 -11  11 104.844 13.4841   1
   4 -11  11 88.0912 13.7668   1
   5 -11  11 39.5567 11.7626   1
  -5 -10  11 28.9222  7.3173   1
  -4 -10  11 11.0144 4.67188   1
  -3 -10  11 100.663 6.47581   1
  -2 -10  11 23.7414  4.4726   1
  -1 -10  11 110.855 6.88624   1
   0 -10  11 147.134 6.13888   1
   1 -10  11 86.2321 17.1569   1
   2 -10  11 1.57401 9.23487   1
   3 -10  11 83.3372 14.1409   1
   4 -10  11 168.306 16.9159   1
   5 -10  11 37.6757 11.2694   1
   6 -10  11  173.35 20.0495   1
  -6  -9  11 59.5694 9.16374   1
  -5  -9  11 462.574 16.5106   1
  -4  -9  11 107.851 6.51812   1
  -3  -9  11 384.655 11.9636   1
  -2  -9  11 28.8549 4.53151   1
  -1  -9  11 1160.42 29.6609   1
   0  -9  11 254.146 10.0529   1
   1  -9  11  354.79 16.2358   1
   2  -9  11  168.56 27.6172   1
   3  -9  11 26.4129 9.16286   1
   4  -9  11 62.8009  27.978   1
   5  -9  11 341.142 26.8629   1
   6  -9  11  57.029 12.4046   1
  -7  -8  11 228.998  23.112   1
  -6  -8  11 3.19465 5.10946   1
  -5  -8  11 152.712 7.29361   1
  -4  -8  11 6.01372  3.6201   1
  -3  -8  11 248.182 9.73067   1
  -2  -8  11 31.4209 4.08322   1
  -1  -8  11 40.9826 4.07931   1
   0  -8  11 116.752 6.07553   1
   1  -8  11 236.022 8.26626   1
   2  -8  11 257.768 14.3077   1
   3  -8  11 1.38397 7.20861   1
   4  -8  11 638.253 31.4522   1
   5  -8  11 16.5686 9.09725   1
   6  -8  11 64.0735 10.8813   1
  -8  -7  11-21.1868 21.1868   1
  -7  -7  11 7.51273 5.18051   1
  -6  -7  11 61.8357 6.67136   1
  -5  -7  11 525.126 29.1111   1
  -4  -7  11 88.9403 6.36282   1
  -3  -7  11 512.463 13.9246   1
  -2  -7  11 1878.52 43.2516   1
  -1  -7  11 128.767 6.33262   1
   0  -7  11  428.34 13.0671   1
   1  -7  11 10.4295 3.76981   1
   2  -7  11 184.482 9.13375   1
   3  -7  11 9.14636  3.7263   1
   4  -7  11 211.476 17.5674   1
   5  -7  11 29.1767 5.08328   1
   6  -7  11 30.0352 6.99421   1
   7  -7  11  27.789 10.9048   1
  -8  -6  11 1.45537 7.10737   1
  -7  -6  11 265.558 12.6203   1
  -6  -6  11 149.626 10.2132   1
  -5  -6  11 264.917 11.7887   1
  -4  -6  11 304.838 12.2496   1
  -3  -6  11 93.8578  5.0954   1
  -2  -6  11  47.638 3.92538   1
  -1  -6  11 33.5226 5.01028   1
   0  -6  11 629.853  15.903   1
   1  -6  11 104.852  5.9855   1
   2  -6  11 320.956 13.9616   1
   3  -6  11 558.474 26.0365   1
   4  -6  11 73.5355 7.14874   1
   5  -6  11  104.74 8.78627   1
   6  -6  11-2.34074 6.35485   1
   7  -6  11 108.819 15.3983   1
  -9  -5  11 12.9138 13.9227   1
  -8  -5  11  11.795 5.66593   1
  -7  -5  11 61.6442  6.9084   1
  -6  -5  11 452.162 16.7677   1
  -5  -5  11 68.6088 6.37267   1
  -4  -5  11 970.813 25.5867   1
  -3  -5  11 56.8507 3.29306   1
  -2  -5  11  686.42 16.3306   1
  -1  -5  11 38.1728 4.24927   1
   0  -5  11 421.325 12.8434   1
   1  -5  11 162.991 6.41074   1
   2  -5  11 366.231  11.599   1
   3  -5  11 15.6242  4.2802   1
   4  -5  11 4.77906 5.97135   1
   5  -5  11 71.4823 7.32364   1
   6  -5  11   56.60 7.51486   1
   7  -5  11 67.0348 15.2535   1
  -9  -4  11 283.359 21.0454   1
  -8  -4  11 608.584 23.1057   1
  -7  -4  11 11.5993  7.1373   1
  -6  -4  11 805.454 25.1474   1
  -5  -4  11-0.30185 3.57187   1
  -4  -4  11 596.826 19.7917   1
  -3  -4  11 539.305 12.2486   1
  -2  -4  11  424.70  10.409   1
  -1  -4  11 1061.19 27.3082   1
   0  -4  11 220.611 7.29818   1
   1  -4  11 326.263 8.85681   1
   2  -4  11 13.9652 3.20808   1
   3  -4  11 413.421 16.8086   1
   4  -4  11-4.81266 4.81266   1
   5  -4  11 303.435 13.3046   1
   6  -4  11 150.016 13.7055   1
   7  -4  11  64.761 11.7056   1
 -10  -3  11 12.6165 12.6266   1
  -9  -3  11 37.5929 8.54966   1
  -8  -3  11 350.786 15.2857   1
  -7  -3  11 109.874 10.3273   1
  -6  -3  11 428.023 17.6235   1
  -5  -3  11 244.095 10.4178   1
  -4  -3  11 515.198 15.5327   1
  -3  -3  11 174.645  5.3468   1
  -2  -3  11 21.3877 2.56936   1
  -1  -3  11 1303.02 26.7062   1
   0  -3  11 4.91265 2.61806   1
   1  -3  11 925.912 19.0374   1
   2  -3  11 6.91661 3.17763   1
   3  -3  11 254.818 12.5636   1
   4  -3  11 3.75306 4.47595   1
   5  -3  11 111.075 10.0125   1
   6  -3  11-1.29233 7.39609   1
 -10  -2  11 691.066 43.0609   1
  -9  -2  11 9.11112 7.14963   1
  -8  -2  11  296.22 16.6705   1
  -7  -2  11 67.6514 7.93559   1
  -6  -2  11 500.933 16.2538   1
  -5  -2  11 144.842 9.43124   1
  -4  -2  11 350.114 11.9298   1
  -3  -2  11 875.078 17.7002   1
  -2  -2  11 333.136 8.44837   1
  -1  -2  11 1070.94 22.6818   1
   0  -2  11 149.747 7.05856   1
   1  -2  11  502.42 13.9351   1
   2  -2  11 44.4605 5.30484   1
   3  -2  11 116.524 8.19892   1
   4  -2  11 292.076 14.1609   1
   5  -2  11 37.1354 8.90658   1
   6  -2  11 353.811 20.0372   1
 -10  -1  11 7.74156 8.13705   1
  -9  -1  11 103.386 13.6398   1
  -8  -1  11 22.7689 6.84053   1
  -7  -1  11 219.388 14.0493   1
  -6  -1  11 4.92245 3.79502   1
  -5  -1  11 595.537 20.6204   1
  -4  -1  11-0.01017 3.18417   1
  -3  -1  11 198.316 8.31619   1
  -2  -1  11  350.69 9.62702   1
  -1  -1  11 878.205 27.1454   1
   0  -1  11 349.303 10.1931   1
   1  -1  11 58.8312 4.73262   1
   2  -1  11 226.754 9.59817   1
   3  -1  11 2.36619 4.76209   1
   4  -1  11 92.8416 10.1812   1
   5  -1  11  40.273 8.86618   1
   6  -1  11 119.386 18.8032   1
 -10   0  11  259.91 17.6052   1
  -9   0  11  60.707 9.11193   1
  -8   0  11 153.883 12.0435   1
  -7   0  11 788.149 25.3258   1
  -6   0  11 38.6464 4.94022   1
  -5   0  11 442.106 18.5118   1
  -4   0  11 258.473 7.84268   1
  -3   0  11 152.161 6.11858   1
  -2   0  11 42.6969 4.34378   1
  -1   0  11 624.332 21.4314   1
   0   0  11 222.971 8.03736   1
   1   0  11 72.8908 5.35373   1
   2   0  11 86.7661 6.95003   1
   3   0  11 30.8977 7.17498   1
   4   0  11 70.8761 11.1082   1
   5   0  11 33.2965 8.77844   1
 -10   1  11 6.51428 7.29167   1
  -9   1  11 287.163 33.9199   1
  -8   1  11 3.33241 4.91974   1
  -7   1  11 71.3983 25.4681   1
  -6   1  11 92.8065 10.0676   1
  -5   1  11  457.32 14.2562   1
  -4   1  11 254.783 8.06006   1
  -3   1  11 322.911 12.4991   1
  -2   1  11 1231.54 25.8338   1
  -1   1  11 18.4964 3.32452   1
   0   1  11 326.172 9.98844   1
   1   1  11 6.03729 3.54082   1
   2   1  11 125.124 9.37595   1
   3   1  11 25.9314  7.0106   1
   4   1  11 235.719   25.51   1
   5   1  11 83.5616 15.9583   1
 -10   2  11 9.23664 7.92697   1
  -9   2  11 387.752 18.6356   1
  -8   2  11 339.309 16.3915   1
  -7   2  11 295.614 15.8365   1
  -6   2  11 627.783 15.1633   1
  -5   2  11 89.3574  5.0536   1
  -4   2  11 247.788 7.93663   1
  -3   2  11 139.736 5.84163   1
  -2   2  11 289.087 9.94876   1
  -1   2  11 51.8011 4.39263   1
   0   2  11 187.685 8.47284   1
   1   2  11 88.9848 7.01056   1
   2   2  11 51.8321 11.8487   1
   3   2  11 125.535 11.7229   1
   4   2  11 49.6118 9.64342   1
 -10   3  11 115.241 11.0994   1
  -9   3  11 95.5874 8.20497   1
  -8   3  11 5.41394 6.48493   1
  -7   3  11 43.1969 3.36009   1
  -6   3  11 349.051 14.1644   1
  -5   3  11 3.06412 2.43533   1
  -4   3  11 529.003 15.6486   1
  -3   3  11 227.822 10.0139   1
  -2   3  11 413.242 13.2757   1
  -1   3  11 122.222 7.47025   1
   0   3  11 425.071 17.6254   1
   1   3  11 103.271  10.332   1
   2   3  11 69.1918 9.37198   1
   3   3  11 251.471 26.1078   1
   4   3  11  4.8433 10.9665   1
 -10   4  11 155.852 20.5942   1
  -9   4  11 13.8414 4.43042   1
  -8   4  11 214.855 12.6876   1
  -7   4  11 127.092 14.8026   1
  -6   4  11  279.92 32.2263   1
  -5   4  11 40.3785 9.40117   1
  -4   4  11 274.101 16.2817   1
  -3   4  11 134.763  7.3399   1
  -2   4  11 17.8086 4.30646   1
  -1   4  11 117.207 8.52931   1
   0   4  11 8.34139 5.08717   1
   1   4  11 132.207 13.3765   1
   2   4  11  1.0381 7.08872   1
   3   4  11 6.36357 8.87443   1
  -9   5  11 26.4377 12.9521   1
  -8   5  11 80.5525 10.3146   1
  -7   5  11 51.9887 6.25436   1
  -6   5  11 236.018 11.8063   1
  -5   5  11 106.802 8.74845   1
  -4   5  11 165.731 12.0157   1
  -3   5  11 40.3873 5.19953   1
  -2   5  11 39.7771 5.56192   1
  -1   5  11 150.074 9.99057   1
   0   5  11-4.14007 5.54299   1
   1   5  11 185.276 15.0063   1
   2   5  11 33.4179 13.0133   1
  -9   6  11 54.0182 15.6453   1
  -8   6  11 60.2505 9.42372   1
  -7   6  11 119.599 18.6474   1
  -6   6  11 48.7293 7.31774   1
  -5   6  11 290.076 27.6296   1
  -4   6  11 13.0271 8.75997   1
  -3   6  11 92.3335 10.9533   1
  -2   6  11 51.4346 6.24163   1
  -1   6  11  162.36 17.7301   1
   0   6  11 49.7001 7.24107   1
   1   6  11  47.534 9.37766   1
  -8   7  11 4.32466 8.54875   1
  -7   7  11 277.791 17.9406   1
  -6   7  11 21.2752 11.7667   1
  -5   7  11 288.296 17.9956   1
  -4   7  11  57.707 9.06119   1
  -3   7  11 19.7633 7.88553   1
  -2   7  11 17.6582 12.6201   1
  -1   7  11 67.6536 8.19583   1
   0   7  11 52.1241 10.4979   1
  -7   8  11 124.999 13.6405   1
  -6   8  11 9.99888 8.58644   1
  -5   8  11 81.5518 14.2067   1
  -4   8  11 11.5814 11.4188   1
  -3   8  11 2.82986 9.10476   1
  -2   8  11 503.277 34.8598   1
  -2 -12  12  92.658   9.568   1
  -1 -12  12 176.068 22.2018   1
   0 -12  12 110.853   17.91   1
   1 -12  12 87.5572 26.7303   1
   2 -12  12 10.2909 9.96194   1
   3 -12  12 128.797 16.8207   1
  -4 -11  12 94.1055 9.10834   1
  -3 -11  12 77.0677 10.2635   1
  -2 -11  12 1.55304 5.12303   1
  -1 -11  12 65.7167  6.6851   1
   0 -11  12-0.03008 8.22304   1
   1 -11  12 177.227 16.6392   1
   2 -11  12 57.2185 16.6547   1
   3 -11  12 30.1269  11.005   1
   4 -11  12 62.5799 12.5692   1
   5 -11  12 42.2258 19.5407   1
  -5 -10  12 190.203 20.6014   1
  -4 -10  12 23.9422 6.41075   1
  -3 -10  12  200.31 13.9754   1
  -2 -10  12 92.8296 7.95029   1
  -1 -10  12 10.5415  4.5405   1
   0 -10  12 254.722 9.05921   1
   1 -10  12 350.343 21.9207   1
   2 -10  12 170.934 16.8608   1
   3 -10  12 38.8187 10.5815   1
   4 -10  12 195.035 18.5839   1
   5 -10  12 3.95458  12.516   1
  -6  -9  12  148.44 17.8795   1
  -5  -9  12 296.166 19.6551   1
  -4  -9  12 15.0329 5.82688   1
  -3  -9  12 70.3532 5.82895   1
  -2  -9  12 113.276 7.18251   1
  -1  -9  12 795.838 22.0835   1
   0  -9  12 339.699 11.3117   1
   1  -9  12 31.7465 8.53795   1
   2  -9  12 187.275 19.3115   1
   3  -9  12 9.15009 8.55205   1
   4  -9  12 15.7277 14.9573   1
   5  -9  12 35.0318 21.0897   1
   6  -9  12 105.142 13.8028   1
  -7  -8  12 216.755 19.1342   1
  -6  -8  12 43.8273 6.71506   1
  -5  -8  12  261.25 14.7098   1
  -4  -8  12 149.878 7.38968   1
  -3  -8  12 9.37083 5.09155   1
  -2  -8  12 293.203 12.0066   1
  -1  -8  12 9.45846  3.7794   1
   0  -8  12 528.461 15.2737   1
   1  -8  12 76.3935 5.58104   1
   2  -8  12 174.949 16.0111   1
   3  -8  12  61.067 10.6022   1
   4  -8  12  269.08 21.5575   1
   5  -8  12 119.254 12.5161   1
   6  -8  12 45.7559 28.5645   1
  -8  -7  12 422.124 39.2433   1
  -7  -7  12 2.19351 7.51774   1
  -6  -7  12 182.026 14.0232   1
  -5  -7  12  53.762 6.80781   1
  -4  -7  12 241.364 9.14565   1
  -3  -7  12 28.5066 3.69143   1
  -2  -7  12 1234.20 40.6405   1
  -1  -7  12 13.2391 3.65422   1
   0  -7  12 130.579 7.96408   1
   1  -7  12 155.919 9.19048   1
   2  -7  12 451.157 28.6128   1
   3  -7  12 36.4542 6.13201   1
   4  -7  12 6.79686 3.85553   1
   5  -7  12 349.949  25.571   1
   6  -7  12 9.37132 8.58533   1
  -8  -6  12 24.1608  8.4648   1
  -7  -6  12  53.742 7.31412   1
  -6  -6  12 284.158  13.128   1
  -5  -6  12 2.23761 4.98016   1
  -4  -6  12 212.048 10.4784   1
  -3  -6  12 235.793 7.49201   1
  -2  -6  12 215.362 12.8281   1
  -1  -6  12 210.999 8.64921   1
   0  -6  12 12.5721 4.57439   1
   1  -6  12 314.878 11.2171   1
   2  -6  12 1.32497 3.51664   1
   3  -6  12 179.125 9.47833   1
   4  -6  12 79.3366 7.18176   1
   5  -6  12 51.5355 9.02493   1
   6  -6  12-7.98373 7.98373   1
  -9  -5  12  66.055 14.4651   1
  -8  -5  12 202.432 17.9761   1
  -7  -5  12 26.8696 6.12282   1
  -6  -5  12 350.158 16.5721   1
  -5  -5  12 80.2352 7.36376   1
  -4  -5  12 530.092 18.3453   1
  -3  -5  12 69.7091 3.50757   1
  -2  -5  12  78.338 4.41695   1
  -1  -5  12 147.731 6.27358   1
   0  -5  12  249.11 9.71276   1
   1  -5  12 982.908  23.191   1
   2  -5  12 98.8284 6.50948   1
   3  -5  12 323.061 13.8924   1
   4  -5  12 14.7463 5.47664   1
   5  -5  12 39.9301 8.66838   1
   6  -5  12 5.18595 9.69983   1
  -9  -4  12 182.405 15.3226   1
  -8  -4  12 270.298 16.9636   1
  -7  -4  12  83.478 8.05757   1
  -6  -4  12 181.997 10.8288   1
  -5  -4  12 232.183 12.1586   1
  -4  -4  12 51.0438 5.62236   1
  -3  -4  12 980.658 20.5064   1
  -2  -4  12 1.96761 2.39141   1
  -1  -4  12 600.124 15.5679   1
   0  -4  12 185.714 7.40683   1
   1  -4  12 158.028 7.80027   1
   2  -4  12 49.4482 5.16311   1
   3  -4  12-4.37428 4.82063   1
   4  -4  12 20.4733 5.97098   1
   5  -4  12 34.6865 8.07239   1
   6  -4  12 291.369 34.8401   1
  -9  -3  12 51.1434 10.8289   1
  -8  -3  12 120.817 15.3473   1
  -7  -3  12 377.231 18.7871   1
  -6  -3  12 6.64879 4.84724   1
  -5  -3  12 597.611 18.0629   1
  -4  -3  12 56.4409 6.13334   1
  -3  -3  12 439.043 10.6354   1
  -2  -3  12 43.4515 3.37585   1
  -1  -3  12 1072.80 27.3485   1
   0  -3  12 72.0473 4.55512   1
   1  -3  12  494.78 13.9647   1
   2  -3  12 223.875 10.3436   1
   3  -3  12 105.527 8.18675   1
   4  -3  12 106.834 9.57049   1
   5  -3  12-0.60417 6.83403   1
   6  -3  12 191.905 17.6066   1
 -10  -2  12 310.602 19.8596   1
  -9  -2  12 46.4555 9.71342   1
  -8  -2  12 13.9184 6.82679   1
  -7  -2  12 389.889 18.8184   1
  -6  -2  12 47.1945 6.49549   1
  -5  -2  12 915.678 24.7951   1
  -4  -2  12 257.642 10.3235   1
  -3  -2  12 535.762 12.5156   1
  -2  -2  12 326.871 8.64471   1
  -1  -2  12 29.4825 3.60084   1
   0  -2  12 538.813 14.5984   1
   1  -2  12 11.1428 4.04738   1
   2  -2  12 255.028 11.4694   1
   3  -2  12 2.49755 5.06421   1
   4  -2  12 248.584 21.5535   1
   5  -2  12 134.183 13.8612   1
 -10  -1  12 39.6915 14.6541   1
  -9  -1  12 40.2964  19.864   1
  -8  -1  12 155.303 41.7674   1
  -7  -1  12 70.0162  7.7477   1
  -6  -1  12 233.561 21.4089   1
  -5  -1  12 245.231 12.0876   1
  -4  -1  12 174.092 5.54322   1
  -3  -1  12  394.98 10.7055   1
  -2  -1  12 295.235 9.17907   1
  -1  -1  12 45.9209 4.22862   1
   0  -1  12 485.306 16.6756   1
   1  -1  12 -0.6474 3.72503   1
   2  -1  12 81.8315 8.04267   1
   3  -1  12   25.43 6.37718   1
   4  -1  12 31.1876 8.07765   1
   5  -1  12 84.8843 10.8531   1
 -10   0  12 20.8439 9.06903   1
  -9   0  12 55.8219 8.53827   1
  -8   0  12 18.1177 6.32058   1
  -7   0  12 764.165 24.7108   1
  -6   0  12 433.888 20.1398   1
  -5   0  12  269.13 14.9171   1
  -4   0  12 163.122 7.01123   1
  -3   0  12 19.4774 3.68983   1
  -2   0  12 41.4214 3.99619   1
  -1   0  12 112.789 6.05823   1
   0   0  12 420.963 13.4784   1
   1   0  12 51.3384 6.53128   1
   2   0  12 279.165 16.2593   1
   3   0  12 130.656 13.1894   1
   4   0  12  5.8845 7.22953   1
   5   0  12 21.5953 13.5835   1
 -10   1  12 31.4126 9.28617   1
  -9   1  12 72.1004 9.27201   1
  -8   1  12 251.853 17.1165   1
  -7   1  12 27.7604 6.19203   1
  -6   1  12 355.088  14.334   1
  -5   1  12 67.8513 4.65077   1
  -4   1  12  351.10 11.3947   1
  -3   1  12 80.8407 5.62885   1
  -2   1  12 372.679 14.7193   1
  -1   1  12 283.567 10.7699   1
   0   1  12 173.715  9.7566   1
   1   1  12 33.6992 7.13398   1
   2   1  12 46.9668  8.4966   1
   3   1  12 48.8703  10.317   1
   4   1  12 -5.8456 7.53722   1
 -10   2  12  104.95 11.1267   1
  -9   2  12 124.517 15.5793   1
  -8   2  12  279.60 15.0227   1
  -7   2  12 8.91301 4.70765   1
  -6   2  12 327.934 11.9061   1
  -5   2  12 1.53207 3.59141   1
  -4   2  12  197.54 7.37758   1
  -3   2  12 143.108 6.60819   1
  -2   2  12 340.447 10.6383   1
  -1   2  12 111.103 7.29602   1
   0   2  12 182.479 18.2676   1
   1   2  12 277.521   16.15   1
   2   2  12 8.38759 7.43602   1
   3   2  12 18.4158 7.97193   1
   4   2  12 0.86373 9.87123   1
 -10   3  12 137.712 44.6447   1
  -9   3  12 52.9846 6.11851   1
  -8   3  12 270.865 13.5457   1
  -7   3  12 78.8867 5.77364   1
  -6   3  12 488.498 16.1942   1
  -5   3  12 164.571 6.49505   1
  -4   3  12 37.6321 4.00868   1
  -3   3  12 411.796 14.2319   1
  -2   3  12-1.36132 3.42302   1
  -1   3  12 180.589 10.6737   1
   0   3  12 122.553 9.63065   1
   1   3  12 218.642 23.2666   1
   2   3  12 45.4003 9.07214   1
   3   3  12 83.8529 13.5023   1
  -9   4  12 30.0976 13.7059   1
  -8   4  12 24.8447 6.02237   1
  -7   4  12 26.7775 6.74338   1
  -6   4  12 11.2186  4.5738   1
  -5   4  12 128.848 10.9093   1
  -4   4  12-1.87773 3.33273   1
  -3   4  12 268.161 14.4177   1
  -2   4  12 25.1651 5.36242   1
  -1   4  12 218.375 11.8747   1
   0   4  12 13.0406 6.94192   1
   1   4  12 93.5947  10.925   1
   2   4  12 7.90389   8.675   1
  -9   5  12  111.33 19.7316   1
  -8   5  12 97.2645 17.9078   1
  -7   5  12 214.808 11.6561   1
  -6   5  12 19.0516 6.76563   1
  -5   5  12 226.447 12.1633   1
  -4   5  12  13.717  6.7997   1
  -3   5  12 135.479 8.56049   1
  -2   5  12 58.3705  6.7916   1
  -1   5  12 1.89833 5.88189   1
   0   5  12 188.606 23.9001   1
   1   5  12 7.14455 13.2597   1
  -8   6  12 2.92298 8.49867   1
  -7   6  12 60.4966 9.28963   1
  -6   6  12 6.65102 14.7822   1
  -5   6  12 93.8968 11.1782   1
  -4   6  12  8.6559 6.98184   1
  -3   6  12 54.9434 9.76904   1
  -2   6  12 58.5844 8.10971   1
  -1   6  12 74.1132 8.52986   1
   0   6  12 55.0065 8.88701   1
  -7   7  12 86.6818 11.6753   1
  -6   7  12 55.6787 10.2635   1
  -5   7  12 41.6547 9.51218   1
  -4   7  12 198.544 15.7495   1
  -3   7  12 29.3354 9.38976   1
  -2   7  12 49.9447 9.97658   1
  -2 -12  13 11.8287 8.98852   1
  -1 -12  13 105.645 21.3739   1
   0 -12  13 792.249 38.9835   1
   1 -12  13 181.742 19.0449   1
   2 -12  13 101.429 15.6992   1
  -3 -11  13 51.8293 9.67797   1
  -2 -11  13 2.56598 7.06664   1
  -1 -11  13 12.1128 4.94834   1
   0 -11  13   33.12 10.6291   1
   1 -11  13 79.5872 13.0655   1
   2 -11  13 19.1132 10.2988   1
   3 -11  13-3.55625 17.3098   1
   4 -11  13 56.5733 18.9581   1
  -5 -10  13 215.308 15.9379   1
  -4 -10  13  137.90 13.2557   1
  -3 -10  13 63.9478 7.16102   1
  -2 -10  13 413.302 14.6296   1
  -1 -10  13 11.2524 5.02319   1
   0 -10  13  362.79 22.5591   1
   1 -10  13 2.67805 7.96421   1
   2 -10  13 153.265 16.1949   1
   3 -10  13 72.2204 13.2135   1
   4 -10  13 47.1996 19.9941   1
  -6  -9  13 146.344  13.663   1
  -5  -9  13 42.1459 8.82989   1
  -4  -9  13 201.018 10.5951   1
  -3  -9  13 33.8082 5.75859   1
  -2  -9  13 34.7697 5.17236   1
  -1  -9  13 6.71379 4.88907   1
   0  -9  13 277.136 10.2654   1
   1  -9  13 9.83183 11.5815   1
   2  -9  13 76.0482 12.1434   1
   3  -9  13-0.40996 8.56913   1
   4  -9  13 5.64879 9.50526   1
   5  -9  13   70.02 14.3937   1
  -7  -8  13-4.43209 11.0543   1
  -6  -8  13 416.405 21.2512   1
  -5  -8  13 35.2855 8.20224   1
  -4  -8  13 313.126 9.73981   1
  -3  -8  13 26.6582  4.5485   1
  -2  -8  13 449.524 14.5017   1
  -1  -8  13 96.6071 7.48854   1
   0  -8  13 221.699 11.4338   1
   1  -8  13 387.811 16.7988   1
   2  -8  13 22.4113 8.04661   1
   3  -8  13 224.251 19.0185   1
   4  -8  13 19.6582 7.89929   1
   5  -8  13  157.62 14.3089   1
  -7  -7  13-8.65167 8.65167   1
  -6  -7  13 120.088 12.0127   1
  -5  -7  13 81.6374 11.4738   1
  -4  -7  13  502.63 21.9699   1
  -3  -7  13 44.9301 3.75574   1
  -2  -7  13 21.4735 4.75754   1
  -1  -7  13 576.011 22.1107   1
   0  -7  13 5.78534 4.68195   1
   1  -7  13 98.9781 8.66121   1
   2  -7  13 0.51607 4.39654   1
   3  -7  13  202.71 14.8692   1
   4  -7  13 31.2592 5.48529   1
   5  -7  13 106.534 15.1373   1
  -8  -6  13 92.2596 11.7097   1
  -7  -6  13 49.9439 9.72367   1
  -6  -6  13 15.1234 6.79915   1
  -5  -6  13 74.2624 9.35185   1
  -4  -6  13 87.8129 12.0704   1
  -3  -6  13 246.954 8.34586   1
  -2  -6  13  6.1598 3.35898   1
  -1  -6  13 412.254 12.9212   1
   0  -6  13 12.2008 3.88433   1
   1  -6  13  313.52 15.9857   1
   2  -6  13 85.8651 6.97437   1
   3  -6  13 39.2987 5.87598   1
   4  -6  13 25.3099 5.96521   1
   5  -6  13 55.3952 8.60703   1
  -8  -5  13 162.076 16.2414   1
  -7  -5  13 27.3256 8.10923   1
  -6  -5  13 126.234 11.8194   1
  -5  -5  13 1161.84 43.2427   1
  -4  -5  13 23.0527  6.4472   1
  -3  -5  13 507.039 13.9094   1
  -2  -5  13 26.5877 3.58969   1
  -1  -5  13 239.973 9.39463   1
   0  -5  13 9.67616 3.29189   1
   1  -5  13 90.4996 6.28663   1
   2  -5  13  300.67 12.1569   1
   3  -5  13 14.2961 5.32272   1
   4  -5  13 173.932 12.1916   1
   5  -5  13 26.4178 7.75348   1
  -9  -4  13 160.965 16.5126   1
  -8  -4  13  4.2049 7.77955   1
  -7  -4  13 72.5091 9.42186   1
  -6  -4  13 8.54068 6.50907   1
  -5  -4  13 200.963 13.7814   1
  -4  -4  13 11.1815 5.52088   1
  -3  -4  13 239.564 7.44068   1
  -2  -4  13  37.681  3.7681   1
  -1  -4  13 75.8912   5.325   1
   0  -4  13 430.676 12.8774   1
   1  -4  13 11.8748 4.01792   1
   2  -4  13 143.801 9.09281   1
   3  -4  13 147.257 9.69859   1
   4  -4  13 85.9641 9.28567   1
   5  -4  13 14.6563 7.38812   1
  -9  -3  13 150.374 22.9486   1
  -8  -3  13 4.99194 7.29666   1
  -7  -3  13 740.075  30.253   1
  -6  -3  13 287.278 16.2801   1
  -5  -3  13 581.326 20.5362   1
  -4  -3  13 330.508 14.2177   1
  -3  -3  13 546.479 13.8719   1
  -2  -3  13 127.023 6.16906   1
  -1  -3  13 69.3836 5.04608   1
   0  -3  13 710.659 19.9453   1
   1  -3  13 4.42992 3.91343   1
   2  -3  13 364.891  14.216   1
   3  -3  13 63.1163 7.76756   1
   4  -3  13 51.1218 8.25342   1
   5  -3  13 32.3066 19.8918   1
  -9  -2  13 141.952 13.1128   1
  -8  -2  13 37.0729 12.2401   1
  -7  -2  13 41.5696 9.00184   1
  -6  -2  13 157.844 13.9769   1
  -5  -2  13 91.8168 8.20203   1
  -4  -2  13 272.528 14.8368   1
  -3  -2  13 33.7716 3.24978   1
  -2  -2  13  132.91 6.29565   1
  -1  -2  13 319.397 16.1393   1
   0  -2  13 271.812 11.3226   1
   1  -2  13-3.53689 4.30966   1
   2  -2  13 314.207 14.5031   1
   3  -2  13 43.7328 7.20351   1
   4  -2  13 9.24754 6.64358   1
   5  -2  13 58.3158 10.9298   1
  -9  -1  13 237.796 16.7425   1
  -8  -1  13 227.348 25.5328   1
  -7  -1  13 67.9247 7.84427   1
  -6  -1  13 277.483 19.9666   1
  -5  -1  13 14.3432 4.92052   1
  -4  -1  13 351.059 9.69941   1
  -3  -1  13 8.27015  3.0137   1
  -2  -1  13 209.577 8.95115   1
  -1  -1  13 542.992 16.4407   1
   0  -1  13 387.477 15.2228   1
   1  -1  13 234.374 15.8723   1
   2  -1  13   34.80 6.92067   1
   3  -1  13  33.254 7.18209   1
   4  -1  13 4.64142 10.9462   1
  -9   0  13 110.753   11.31   1
  -8   0  13  9.1666 5.88932   1
  -7   0  13 22.0341 5.82533   1
  -6   0  13 221.153 11.9409   1
  -5   0  13 66.6821 6.84708   1
  -4   0  13 346.598 11.4645   1
  -3   0  13 99.2506 8.14037   1
  -2   0  13  75.474 6.05545   1
  -1   0  13 112.589 7.31406   1
   0   0  13 192.282 11.1504   1
   1   0  13   24.30 13.0937   1
   2   0  13 5.53413 5.62244   1
   3   0  13 37.6727  8.8752   1
   4   0  13 18.1085 11.5135   1
  -9   1  13-6.20692 6.20692   1
  -8   1  13 184.147 16.2259   1
  -7   1  13 25.0526 7.38629   1
  -6   1  13 245.575 14.8358   1
  -5   1  13 57.2394 8.06816   1
  -4   1  13 150.615 7.77931   1
  -3   1  13 192.004 8.74236   1
  -2   1  13-0.70311  3.3868   1
  -1   1  13 256.341 18.4412   1
   0   1  13-1.35595 5.13886   1
   1   1  13 210.199 23.3739   1
   2   1  13 1.63166 6.88049   1
   3   1  13 41.3037 12.6167   1
  -9   2  13 14.6184 7.46178   1
  -8   2  13 107.331 9.46116   1
  -7   2  13 118.119 38.8573   1
  -6   2  13 127.867 10.3445   1
  -5   2  13 523.497  17.931   1
  -4   2  13 94.9892 6.11688   1
  -3   2  13  251.83 10.1276   1
  -2   2  13-0.64949 3.61154   1
  -1   2  13 360.304  13.148   1
   0   2  13 6.90308 10.0168   1
   1   2  13 65.8294 9.53595   1
   2   2  13 29.0096  8.3962   1
   3   2  13 51.8697 15.1577   1
  -9   3  13 115.844 19.1621   1
  -8   3  13 16.8257 3.36318   1
  -7   3  13 166.341 7.31008   1
  -6   3  13 18.1992 3.27155   1
  -5   3  13 281.615 10.5631   1
  -4   3  13 16.6716  3.5718   1
  -3   3  13 101.749 6.94276   1
  -2   3  13 38.6817 6.19887   1
  -1   3  13 68.0189 9.20813   1
   0   3  13 187.469 14.2237   1
   1   3  13  18.236 7.82961   1
   2   3  13 51.2124 10.6413   1
  -9   4  13 186.029 23.0899   1
  -8   4  13 49.9856 13.9194   1
  -7   4  13 265.994 19.4816   1
  -6   4  13 38.8659 5.77749   1
  -5   4  13 257.767 23.3168   1
  -4   4  13-5.15784 5.15784   1
  -3   4  13 56.0857 11.1075   1
  -2   4  13 208.824 12.0083   1
  -1   4  13 28.9381 6.99117   1
   0   4  13 57.4937 14.7611   1
   1   4  13 12.2667 9.10833   1
  -8   5  13 6.46901 8.30873   1
  -7   5  13 10.7586 9.66987   1
  -6   5  13 114.462 9.58449   1
  -5   5  13 21.7676 7.53115   1
  -4   5  13  69.487 10.8438   1
  -3   5  13 29.1684 5.78246   1
  -2   5  13 102.977   9.629   1
  -1   5  13 23.9856 8.37642   1
   0   5  13 27.7547 18.6369   1
  -7   6  13 54.0632 13.8367   1
  -6   6  13 105.178 13.1059   1
  -5   6  13 76.6958 12.2893   1
  -4   6  13 164.297 16.9355   1
  -3   6  13 8.76226 8.05644   1
  -2   6  13 34.4328  8.4317   1
  -3 -11  14 30.0711 9.47677   1
  -2 -11  14 155.952 14.3635   1
  -1 -11  14-3.83333 9.42958   1
   0 -11  14 58.1423 12.3137   1
   1 -11  14 184.166 21.8842   1
   2 -11  14 79.1151  17.651   1
  -4 -10  14 174.678 18.3703   1
  -3 -10  14 11.4287 10.0102   1
  -2 -10  14 137.956 9.81452   1
  -1 -10  14 1.96596 6.12859   1
   0 -10  14 28.0772 10.3358   1
   1 -10  14 105.141 14.6005   1
   2 -10  14 234.955 21.2344   1
   3 -10  14 101.877 22.3887   1
  -5  -9  14 15.5814  11.067   1
  -4  -9  14 379.454 23.4102   1
  -3  -9  14 6.08167   4.937   1
  -2  -9  14 77.1019 9.16839   1
  -1  -9  14 145.545 8.69238   1
   0  -9  14-4.62491 4.62491   1
   1  -9  14 347.974 32.8157   1
   2  -9  14-8.31605 8.31605   1
   3  -9  14 75.3711 15.1347   1
   4  -9  14 1.51975 10.1385   1
  -6  -8  14 164.806  14.677   1
  -5  -8  14 287.292 27.4328   1
  -4  -8  14 10.5727 9.17682   1
  -3  -8  14 159.981  7.1384   1
  -2  -8  14-0.18797 4.02648   1
  -1  -8  14  232.38 10.4178   1
   0  -8  14 14.3632 5.25364   1
   1  -8  14 735.932 25.6265   1
   2  -8  14 8.01847 5.03392   1
   3  -8  14 89.0362 10.8971   1
   4  -8  14-0.18174 8.41076   1
  -7  -7  14 107.879 14.4299   1
  -6  -7  14 61.6277 10.6111   1
  -5  -7  14 236.953 19.6992   1
  -4  -7  14  89.085  10.089   1
  -3  -7  14 303.921 10.3319   1
  -2  -7  14 36.5666 4.83795   1
  -1  -7  14 221.556 9.53643   1
   0  -7  14  124.92 9.45001   1
   1  -7  14 4.87427 4.96343   1
   2  -7  14 114.641 11.6118   1
   3  -7  14 26.3642 12.9036   1
   4  -7  14 100.405  13.594   1
  -7  -6  14 241.486 19.4986   1
  -6  -6  14 34.9521 13.0467   1
  -5  -6  14 122.253 11.7223   1
  -4  -6  14 42.0692  7.9225   1
  -3  -6  14 116.412 5.38186   1
  -2  -6  14   96.98 6.13434   1
  -1  -6  14 378.498 12.6506   1
   0  -6  14 246.318 14.8431   1
   1  -6  14 19.5309 4.83077   1
   2  -6  14  198.96 12.0831   1
   3  -6  14 20.6868 6.00968   1
   4  -6  14 33.7469 7.77467   1
   5  -6  14 13.7033 10.1502   1
  -8  -5  14 -8.2059  8.2059   1
  -7  -5  14 262.523 20.2123   1
  -6  -5  14 7.45586 8.31049   1
  -5  -5  14 190.371 16.5831   1
  -4  -5  14 218.232 18.6934   1
  -3  -5  14 63.9613 3.80734   1
  -2  -5  14 232.677 11.5763   1
  -1  -5  14 8.25805 3.90074   1
   0  -5  14 87.8328 7.37391   1
   1  -5  14 1.80035 4.53055   1
   2  -5  14  179.74 12.2112   1
   3  -5  14 8.51922 5.75864   1
   4  -5  14 13.1253 6.74218   1
  -8  -4  14 11.0613 11.5668   1
  -7  -4  14 109.122 11.9339   1
  -6  -4  14 92.3392 11.1852   1
  -5  -4  14 76.6207 24.4587   1
  -4  -4  14 219.096 13.9362   1
  -3  -4  14 205.055 7.41917   1
  -2  -4  14 418.952 12.2853   1
  -1  -4  14 6.33515 3.72364   1
   0  -4  14 144.628 8.90672   1
   1  -4  14  16.283 4.81179   1
   2  -4  14 175.006 12.5357   1
   3  -4  14 42.8767 7.26137   1
   4  -4  14 47.2527 9.01761   1
  -9  -3  14 305.806 26.4649   1
  -8  -3  14 113.389 22.4908   1
  -7  -3  14 201.362 15.1947   1
  -6  -3  14 210.105 15.0131   1
  -5  -3  14 21.1508 8.37342   1
  -4  -3  14 402.535 19.0975   1
  -3  -3  14  79.364 6.09193   1
  -2  -3  14 422.776 25.8619   1
  -1  -3  14 61.5005  5.5666   1
   0  -3  14  217.00 9.55737   1
   1  -3  14 153.535 10.3356   1
   2  -3  14 141.989  10.692   1
   3  -3  14 39.7754 9.29211   1
   4  -3  14  1.5811 9.26645   1
  -9  -2  14 75.8623 11.4695   1
  -8  -2  14 28.9452 8.16076   1
  -7  -2  14 26.2965 7.80278   1
  -6  -2  14 240.839 26.7905   1
  -5  -2  14 33.5201 8.65163   1
  -4  -2  14 607.354 31.7615   1
  -3  -2  14 137.652 6.27541   1
  -2  -2  14 258.092 17.5469   1
  -1  -2  14  15.022 4.62443   1
   0  -2  14 32.6779   5.823   1
   1  -2  14 216.503 12.3865   1
   2  -2  14 23.2717 6.52828   1
   3  -2  14 171.603 12.3633   1
   4  -2  14 3.40987 8.67601   1
  -9  -1  14 5.24538 9.07281   1
  -8  -1  14 66.1717 10.0868   1
  -7  -1  14  131.70 11.7814   1
  -6  -1  14 160.368 13.7806   1
  -5  -1  14 257.911 17.2546   1
  -4  -1  14 95.9772 4.66082   1
  -3  -1  14 332.473  10.916   1
  -2  -1  14 121.864 7.97584   1
  -1  -1  14 60.6894 6.61277   1
   0  -1  14 40.5988 6.44348   1
   1  -1  14 382.458 20.0229   1
   2  -1  14 -2.2126 5.59542   1
   3  -1  14 79.2423 10.9722   1
  -9   0  14 4.02953 8.34617   1
  -8   0  14 66.8895 9.28993   1
  -7   0  14 82.5549  8.2242   1
  -6   0  14 145.681 10.2888   1
  -5   0  14 195.892 11.2695   1
  -4   0  14  46.886 4.70537   1
  -3   0  14 115.856 8.43755   1
  -2   0  14 17.4826 4.58254   1
  -1   0  14 91.7518 8.12928   1
   0   0  14 312.446 14.8756   1
   1   0  14 20.5743 6.30566   1
   2   0  14 27.5576  8.1261   1
   3   0  14  4.8292  8.2167   1
  -9   1  14 29.1624 8.17064   1
  -8   1  14 16.9105  9.4938   1
  -7   1  14  244.47 12.6384   1
  -6   1  14-1.47826 5.72704   1
  -5   1  14 332.353  12.373   1
  -4   1  14 13.7163 3.78278   1
  -3   1  14 242.892 10.3059   1
  -2   1  14 8.04531 4.34643   1
  -1   1  14  12.498 5.28914   1
   0   1  14 86.1469 8.57846   1
   1   1  14 206.169 15.2794   1
   2   1  14  25.597 8.75213   1
  -9   2  14 206.926 15.2703   1
  -8   2  14 16.0559 5.99396   1
  -7   2  14 311.937 18.2606   1
  -6   2  14 22.7315 3.54904   1
  -5   2  14 226.542  11.605   1
  -4   2  14 10.6222 4.16076   1
  -3   2  14 99.9034 9.74859   1
  -2   2  14 274.141 11.4943   1
  -1   2  14 14.1917 10.6193   1
   0   2  14 156.267 13.4564   1
   1   2  14 17.6522 7.97487   1
   2   2  14 64.3143 15.0429   1
  -8   3  14 13.2161  20.477   1
  -7   3  14 57.1342 4.90759   1
  -6   3  14 151.377 17.9017   1
  -5   3  14 68.9526  6.2204   1
  -4   3  14  81.231 7.38375   1
  -3   3  14-7.09281 7.53306   1
  -2   3  14 97.7439 11.1707   1
  -1   3  14 53.7887  9.1683   1
   0   3  14  181.43  14.835   1
   1   3  14 1.93489 8.65069   1
  -8   4  14 98.0264 20.3933   1
  -7   4  14 144.254 21.0139   1
  -6   4  14 103.893  10.808   1
  -5   4  14 8.84785 5.60364   1
  -4   4  14 211.956 16.6046   1
  -3   4  14-2.79839 5.73474   1
  -2   4  14 76.5314 10.2703   1
  -1   4  14 21.8358 8.88902   1
   0   4  14 23.3292 10.1646   1
  -7   5  14  6.5598 9.76389   1
  -6   5  14  27.228 10.9533   1
  -5   5  14 7.31302  7.5428   1
  -4   5  14 3.99186 10.3348   1
  -3   5  14 56.0556 10.4336   1
  -2   5  14  65.981 11.0752   1
  -1 -11  15 50.2312 14.2831   1
   0 -11  15 8.63376  11.178   1
   1 -11  15 228.174 30.9881   1
  -3 -10  15 196.748 16.9218   1
  -2 -10  15 19.0043 7.98892   1
  -1 -10  15 99.2868 11.4074   1
   0 -10  15  10.315 9.74648   1
   1 -10  15 62.7142 19.1955   1
   2 -10  15-15.9634 15.9634   1
  -5  -9  15 99.0631 21.6944   1
  -4  -9  15 13.9468 8.29297   1
  -3  -9  15 193.665 10.4339   1
  -2  -9  15 3.39974 4.39966   1
  -1  -9  15 154.126 9.25198   1
   0  -9  15 50.6527 10.7169   1
   1  -9  15 67.6374  10.918   1
   2  -9  15 41.1115 9.39548   1
   3  -9  15 37.3043 13.5094   1
  -6  -8  15 4.40402 9.15954   1
  -5  -8  15  536.14 25.1188   1
  -4  -8  15 39.4683 8.75634   1
  -3  -8  15 222.388 8.66974   1
  -2  -8  15 12.4871 3.96417   1
  -1  -8  15 124.855  8.9444   1
   0  -8  15 89.1776 8.26325   1
   1  -8  15 40.6007 10.9769   1
   2  -8  15 187.141 19.3991   1
   3  -8  15-4.84544 10.0348   1
  -6  -7  15  13.546 9.13125   1
  -5  -7  15 42.6306   11.30   1
  -4  -7  15 118.522 13.8956   1
  -3  -7  15 157.063 6.65204   1
  -2  -7  15 137.015 7.32776   1
  -1  -7  15 6.01961 3.88458   1
   0  -7  15 164.923 9.22229   1
   1  -7  15-0.82288 5.12568   1
   2  -7  15  106.65 9.25837   1
   3  -7  15 17.6136 6.64778   1
  -7  -6  15 125.757 13.3874   1
  -6  -6  15 190.182 17.1361   1
  -5  -6  15 90.5282 11.7224   1
  -4  -6  15 233.679 16.7258   1
  -3  -6  15 125.293 8.83051   1
  -2  -6  15  124.95 7.01512   1
  -1  -6  15 59.5522 5.69656   1
   0  -6  15 249.736   11.19   1
   1  -6  15 89.4404 7.83975   1
   2  -6  15 113.219 9.09438   1
   3  -6  15  250.80 16.1661   1
   4  -6  15 15.1794 10.4791   1
  -7  -5  15  61.919  10.517   1
  -6  -5  15 38.3579 8.90558   1
  -5  -5  15-4.12604 5.95329   1
  -4  -5  15 215.088 15.5047   1
  -3  -5  15-0.03942 2.09926   1
  -2  -5  15 46.3303 4.76523   1
  -1  -5  15 22.8521 4.54871   1
   0  -5  15 167.742 9.16339   1
   1  -5  15 5.92961 5.09098   1
   2  -5  15 23.7628 6.46009   1
   3  -5  15 11.5319 6.85328   1
   4  -5  15 0.89499 8.89908   1
  -8  -4  15 171.745  17.802   1
  -7  -4  15 23.6592 8.44831   1
  -6  -4  15  192.26 16.9003   1
  -5  -4  15 1.98283 6.16445   1
  -4  -4  15 359.512 22.8557   1
  -3  -4  15 36.8361 3.59785   1
  -2  -4  15 122.536 7.55556   1
  -1  -4  15 232.628 10.3423   1
   0  -4  15 112.076 7.74229   1
   1  -4  15 136.245 10.2236   1
   2  -4  15 27.6203 9.08823   1
   3  -4  15 185.972 13.0493   1
  -8  -3  15 165.669 27.7971   1
  -7  -3  15 32.3132  8.6476   1
  -6  -3  15  177.73 14.1921   1
  -5  -3  15 99.1364 10.9214   1
  -4  -3  15 269.417 22.6351   1
  -3  -3  15 84.6525 5.23166   1
  -2  -3  15 111.778 6.92762   1
  -1  -3  15 104.655 7.45288   1
   0  -3  15 0.49168  5.0348   1
   1  -3  15 41.3268 7.95653   1
   2  -3  15  6.1041 7.43753   1
   3  -3  15 112.995 10.9592   1
  -8  -2  15 214.859 30.2451   1
  -7  -2  15 24.5256 7.70831   1
  -6  -2  15 95.0402 10.8525   1
  -5  -2  15 165.154 13.3362   1
  -4  -2  15 3.46919 5.99492   1
  -3  -2  15 268.409 12.3475   1
  -2  -2  15-1.79021 3.76732   1
  -1  -2  15  252.70 13.7059   1
   0  -2  15 37.2801 6.62561   1
   1  -2  15 199.875 12.5315   1
   2  -2  15 98.2507 9.97851   1
   3  -2  15 110.953 10.8672   1
  -8  -1  15 49.9772 15.1174   1
  -7  -1  15 116.397 11.9186   1
  -6  -1  15 3.56898 6.39484   1
  -5  -1  15 473.404 22.9674   1
  -4  -1  15-1.00066  7.5638   1
  -3  -1  15 235.833  9.5515   1
  -2  -1  15 17.2002  5.2788   1
  -1  -1  15 41.0349 6.35228   1
   0  -1  15  77.042 8.66698   1
   1  -1  15 35.8772 8.98652   1
   2  -1  15 77.3335 13.2543   1
  -8   0  15 103.247 11.2647   1
  -7   0  15 73.2531 11.8614   1
  -6   0  15 20.0132 7.03588   1
  -5   0  15 3.18823 9.19305   1
  -4   0  15 46.3808 7.34184   1
  -3   0  15 70.3633   6.394   1
  -2   0  15 16.4941 5.41319   1
  -1   0  15 0.07832 5.16906   1
   0   0  15 189.014 12.1415   1
   1   0  15 3.43585 6.43603   1
   2   0  15 63.1479 11.2865   1
  -8   1  15 60.5199 10.1724   1
  -7   1  15 48.3141 7.88241   1
  -6   1  15 148.046 11.1731   1
  -5   1  15 158.779 8.00298   1
  -4   1  15 127.612 8.54266   1
  -3   1  15 76.4238 6.60899   1
  -2   1  15 399.359 17.5502   1
  -1   1  15 36.7953  7.4434   1
   0   1  15  105.00 10.6383   1
   1   1  15 9.52428 8.59999   1
  -8   2  15 50.9082 16.3082   1
  -7   2  15 5.49722 6.78779   1
  -6   2  15  41.408 4.26431   1
  -5   2  15 4.80515 4.22775   1
  -4   2  15 174.911 11.5851   1
  -3   2  15  38.832 6.73807   1
  -2   2  15 0.14732 7.84742   1
  -1   2  15-0.66263  7.5362   1
   0   2  15 23.9378 11.6376   1
  -7   3  15   5.157 31.2008   1
  -6   3  15 227.508 29.8442   1
  -5   3  15 4.56202 6.56222   1
  -4   3  15 411.795 20.4843   1
  -3   3  15 107.004 16.7882   1
  -2   3  15 218.472 15.6655   1
  -1   3  15 42.2746 11.0106   1
  -6   4  15  71.321 10.3597   1
  -5   4  15 125.624 16.2829   1
  -4   4  15 6.47179 8.72939   1
  -3   4  15 19.2183 8.83111   1
  -2   4  15 1.04633 9.48882   1
  -2 -10  16  0.8333 6.43727   1
  -1 -10  16 86.3432 10.1909   1
   0 -10  16 25.0682  10.705   1
  -4  -9  16 61.9327 11.7478   1
  -3  -9  16 96.4701 14.6782   1
  -2  -9  16  55.138 8.15921   1
  -1  -9  16 88.9392 8.49931   1
   0  -9  16 25.0183 9.73552   1
   1  -9  16 8.46018 11.0319   1
  -5  -8  16 70.9944 11.5756   1
  -4  -8  16 89.8652 14.5536   1
  -3  -8  16 42.1811 8.75061   1
  -2  -8  16 112.646 7.38795   1
  -1  -8  16 3.62494 4.96308   1
   0  -8  16 75.1498 9.27231   1
   1  -8  16  43.698 8.86246   1
   2  -8  16 187.232 23.7716   1
  -6  -7  16 91.5361 16.1516   1
  -5  -7  16 3.82524 8.27296   1
  -4  -7  16 184.684 14.9975   1
  -3  -7  16  1.3775 2.84419   1
  -2  -7  16 191.211 8.97277   1
  -1  -7  16 34.9852 6.98912   1
   0  -7  16 90.1586 8.60736   1
   1  -7  16 112.083 9.63995   1
   2  -7  16 105.649 11.0832   1
  -6  -6  16 72.3772 11.0137   1
  -5  -6  16 30.3114 12.3447   1
  -4  -6  16 146.058 13.4028   1
  -3  -6  16 226.268 7.93627   1
  -2  -6  16 58.7988 7.07124   1
  -1  -6  16 111.273 9.01437   1
   0  -6  16 17.8608 5.65014   1
   1  -6  16 64.1621 7.20643   1
   2  -6  16 24.6464  8.2255   1
  -7  -5  16 3.93069  14.106   1
  -6  -5  16 233.862  17.311   1
  -5  -5  16  3.1914 6.92454   1
  -4  -5  16  124.27 12.2206   1
  -3  -5  16 17.9447 2.77283   1
  -2  -5  16 71.7881 5.78555   1
  -1  -5  16 68.3512 7.14043   1
   0  -5  16 6.88749 5.93035   1
   1  -5  16 173.583 13.3495   1
   2  -5  16 45.2669 8.70518   1
  -7  -4  16 99.4889 12.8315   1
  -6  -4  16 110.802  11.846   1
  -5  -4  16 143.243 13.2907   1
  -4  -4  16 58.7899  16.385   1
  -3  -4  16 259.027 9.25762   1
  -2  -4  16 3.80175 4.11611   1
  -1  -4  16 124.435 8.31733   1
   0  -4  16 25.2838 9.59346   1
   1  -4  16 62.3236 8.31377   1
   2  -4  16  6.0553 6.82597   1
  -7  -3  16  137.64 13.3557   1
  -6  -3  16 86.7845 11.0973   1
  -5  -3  16 71.2935 9.78731   1
  -4  -3  16 71.2715 10.6604   1
  -3  -3  16 279.524  10.628   1
  -2  -3  16-0.46106 3.96316   1
  -1  -3  16 321.071 17.5051   1
   0  -3  16 20.7249  6.2096   1
   1  -3  16 12.1811 6.68473   1
   2  -3  16 60.3359 9.13329   1
  -8  -2  16 5.78323  11.134   1
  -7  -2  16 241.565 16.9634   1
  -6  -2  16 14.7255  11.451   1
  -5  -2  16 33.8498 12.4869   1
  -4  -2  16 208.752  20.426   1
  -3  -2  16 206.227 11.8389   1
  -2  -2  16 173.151 9.05341   1
  -1  -2  16 4.39526 5.27824   1
   0  -2  16 93.1286 9.26657   1
   1  -2  16 12.2554 7.15645   1
   2  -2  16  88.701 10.5374   1
  -8  -1  16 13.1138 9.27095   1
  -7  -1  16 47.4309 14.7414   1
  -6  -1  16 14.3881 7.01762   1
  -5  -1  16 109.761 16.9909   1
  -4  -1  16 194.795 8.02964   1
  -3  -1  16  33.503 4.99022   1
  -2  -1  16 226.333 10.6565   1
  -1  -1  16 146.536 10.6156   1
   0  -1  16 8.71787 6.22705   1
   1  -1  16 7.92252 7.16036   1
  -7   0  16 12.4982 7.96957   1
  -6   0  16 145.209 13.1731   1
  -5   0  16 13.5694 7.24485   1
  -4   0  16 236.409 12.4081   1
  -3   0  16 4.11276 4.93531   1
  -2   0  16 20.6673 5.99608   1
  -1   0  16-1.14432 7.65511   1
   0   0  16 27.6487 7.64307   1
  -7   1  16 26.5174  9.0911   1
  -6   1  16 185.011 22.2857   1
  -5   1  16 1.95542 3.64552   1
  -4   1  16 62.1299 6.66764   1
  -3   1  16 34.3255 6.66839   1
  -2   1  16 235.633 23.3973   1
  -1   1  16 0.35924  6.2368   1
   0   1  16-14.8468 22.9673   1
  -6   2  16 92.4451 12.0212   1
  -5   2  16 3.80753 5.83028   1
  -4   2  16 39.0861 6.55235   1
  -3   2  16 98.7675 14.1779   1
  -2   2  16 39.9994 9.38741   1
  -1   2  16 24.4996 17.3449   1
  -5   3  16 36.6929 8.68829   1
  -4   3  16 234.487 16.5584   1
  -3   3  16 62.4225 10.5414   1
  -3  -8  17 34.3912 11.7256   1
  -2  -8  17 272.576 22.5607   1
  -1  -8  17 12.1454 7.25071   1
   0  -8  17 94.8177 10.1634   1
  -5  -7  17  85.481 22.8798   1
  -4  -7  17 98.6309 19.3987   1
  -3  -7  17 39.8355 9.66531   1
  -2  -7  17 47.2555 7.26161   1
  -1  -7  17 104.782 9.25931   1
   0  -7  17 1.47231 8.92462   1
   1  -7  17 34.3842 8.01788   1
  -5  -6  17 98.6107 12.2419   1
  -4  -6  17 23.2981 8.96004   1
  -3  -6  17 276.667 18.0999   1
  -2  -6  17 36.6627  6.3489   1
  -1  -6  17 65.3363 8.16579   1
   0  -6  17 39.2997 10.9639   1
   1  -6  17 52.4993 11.5845   1
  -6  -5  17 13.0765 9.08481   1
  -5  -5  17 130.605 13.2718   1
  -4  -5  17 4.50582 8.18971   1
  -3  -5  17 105.015  6.8692   1
  -2  -5  17  7.9309 4.87523   1
  -1  -5  17 14.1795 5.78086   1
   0  -5  17 8.30821 6.50294   1
   1  -5  17 8.01895 7.39357   1
  -6  -4  17-5.93098 8.39139   1
  -5  -4  17 139.246 14.0692   1
  -4  -4  17 11.7643 9.09196   1
  -3  -4  17 80.6717 6.40408   1
  -2  -4  17 3.69868 4.70472   1
  -1  -4  17 22.9464 6.35257   1
   0  -4  17 188.093 12.1437   1
   1  -4  17 74.6039 10.2857   1
  -6  -3  17 28.9361 19.2377   1
  -5  -3  17 54.4878 9.93828   1
  -4  -3  17 97.3924 13.4816   1
  -3  -3  17 38.2596  5.9421   1
  -2  -3  17 46.9251 7.55807   1
  -1  -3  17 3.99758 6.00626   1
   0  -3  17 47.4256 8.09389   1
   1  -3  17  12.745 8.40194   1
  -6  -2  17 91.9876 11.7256   1
  -5  -2  17 59.0894 9.80221   1
  -4  -2  17 72.7921 17.3544   1
  -3  -2  17 25.8898 4.97918   1
  -2  -2  17 427.757 22.1371   1
  -1  -2  17 12.9892 6.72781   1
   0  -2  17 183.364  14.539   1
  -6  -1  17 89.2737  13.225   1
  -5  -1  17 5.51257 7.78478   1
  -4  -1  17  76.138 7.44324   1
  -3  -1  17 21.0084 7.86458   1
  -2  -1  17 20.6881  6.4997   1
  -1  -1  17   8.757 7.63738   1
   0  -1  17  2.3594 10.5258   1
  -6   0  17 64.2637 13.4508   1
  -5   0  17-4.31127 8.56294   1
  -4   0  17 86.3927 11.8304   1
  -3   0  17 271.246 14.0234   1
  -2   0  17 161.128 18.1332   1
  -1   0  17 115.326  11.285   1
  -5   1  17 61.1976 10.3001   1
  -4   1  17-1.92757 10.9028   1
  -3   1  17 24.8834 8.63406   1
  -3  -6  18 121.613 23.5081   1
  -2  -6  18 57.7317 14.1032   1
  -1  -6  18 72.7364 9.22455   1
  -4  -5  18 93.6802  16.134   1
  -3  -5  18 16.3879 11.6366   1
  -2  -5  18 146.633 10.4184   1
  -1  -5  18 51.5221 8.11906   1
  -5  -4  18 96.4308 19.5232   1
  -4  -4  18 90.3212 14.5981   1
  -3  -4  18 0.58137 10.7854   1
  -2  -4  18 59.1626 11.6155   1
  -1  -4  18 236.466 14.0432   1
  -5  -3  18-4.73342 8.96221   1
  -4  -3  18 103.307 13.2168   1
  -3  -3  18 64.1153 13.6467   1
  -2  -3  18 16.7808 6.62982   1
  -4  -2  18 28.5758 9.58893   1
  -3  -2  18-2.91685 6.32656   1
  -2  -2  18 434.947 31.1754   1
   0   0   0    0.00    0.00   1
;
_shelx_hkl_checksum              13235
loop_
_space_group_symop_operation_xyz
'x, y, z'
'-x, -y, -z'
loop_
_atom_site_label
_atom_site_type_symbol
_atom_site_fract_x
_atom_site_fract_y
_atom_site_fract_z
_atom_site_U_iso_or_equiv
_atom_site_adp_type
_atom_site_occupancy
_atom_site_site_symmetry_order
_atom_site_calc_flag
_atom_site_refinement_flags_posn
_atom_site_refinement_flags_adp
_atom_site_refinement_flags_occupancy
_atom_site_disorder_assembly
_atom_site_disorder_group
Se Se 0.27739(2) 0.06836(2) 0.62935(2) 0.01977(5) Uani 1 1 d . . . . .
O1 O 0.58863(17) 0.28051(15) 0.29590(10) 0.0280(2) Uani 1 1 d . . . . .
O2 O 0.76387(14) 0.39925(12) 0.49129(9) 0.0197(2) Uani 1 1 d . . . . .
O3 O 1.29187(16) 0.48803(13) 0.87663(10) 0.0236(2) Uani 1 1 d . . . . .
C1 C 0.43891(19) 0.31029(16) 0.55669(13) 0.0165(2) Uani 1 1 d . . . . .
C2 C 0.4252(2) 0.26958(17) 0.43779(13) 0.0192(3) Uani 1 1 d . . . . .
H2A H 0.303427 0.210496 0.376902 0.023 Uiso 1 1 calc R U . . .
C3 C 0.5895(2) 0.31278(17) 0.39990(13) 0.0203(3) Uani 1 1 d . . . . .
O4 O 1.16696(14) 0.68533(12) 0.90185(9) 0.0205(2) Uani 1 1 d . . . . .
C4 C 0.7815(2) 0.44482(16) 0.61296(12) 0.0162(2) Uani 1 1 d . . . . .
C5 C 0.9639(2) 0.53509(16) 0.69465(13) 0.0181(3) Uani 1 1 d . . . . .
H5A H 1.068499 0.562280 0.667101 0.022 Uiso 1 1 calc R U . . .
C6 C 0.98798(19) 0.58396(16) 0.81744(13) 0.0177(2) Uani 1 1 d . . . . .
C7 C 0.8373(2) 0.54747(16) 0.86036(13) 0.0187(3) Uani 1 1 d . U . . .
H7A H 0.858086 0.583169 0.945385 0.022 Uiso 0.919(4) 1 calc R U P A 1
C8 C 0.6562(2) 0.45813(16) 0.77697(13) 0.0177(2) Uani 1 1 d . . . . .
H8A H 0.552153 0.433115 0.805379 0.021 Uiso 1 1 calc R U . . .
C9 C 0.62398(19) 0.40380(15) 0.65072(12) 0.0157(2) Uani 1 1 d . . . . .
C10 C 1.3150(2) 0.62501(17) 0.91991(12) 0.0180(3) Uani 1 1 d . . . . .
C11 C 1.5001(2) 0.75170(19) 0.99854(14) 0.0242(3) Uani 1 1 d . . . . .
H11A H 1.593594 0.706109 1.033606 0.036 Uiso 1 1 calc R U . . .
H11B H 1.478656 0.826354 1.064359 0.036 Uiso 1 1 calc R U . . .
H11C H 1.549341 0.805683 0.949202 0.036 Uiso 1 1 calc R U . . .
C12 C 0.2645(2) 0.25596(16) 0.58938(13) 0.0183(3) Uani 1 1 d . . . . .
H12A H 0.146422 0.230171 0.519908 0.022 Uiso 1 1 calc R U . . .
H12B H 0.263323 0.338844 0.660369 0.022 Uiso 1 1 calc R U . . .
C13 C 0.09781(19) 0.05895(16) 0.71465(12) 0.0170(2) Uani 1 1 d . . . . .
C14 C 0.1017(2) -0.03798(16) 0.78337(13) 0.0187(3) Uani 1 1 d . . . . .
H14A H 0.189322 -0.095641 0.785523 0.022 Uiso 1 1 calc R U . . .
C15 C -0.0240(2) -0.04873(17) 0.84834(13) 0.0215(3) Uani 1 1 d . . . . .
H15A H -0.022342 -0.114596 0.894737 0.026 Uiso 1 1 calc R U . . .
C16 C -0.1521(2) 0.03561(17) 0.84625(14) 0.0235(3) Uani 1 1 d . . . . .
H16A H -0.236223 0.028629 0.891862 0.028 Uiso 1 1 calc R U . . .
C17 C -0.1564(2) 0.13003(17) 0.77717(15) 0.0234(3) Uani 1 1 d . . . . .
H17A H -0.244412 0.187342 0.775210 0.028 Uiso 1 1 calc R U . . .
C18 C -0.0327(2) 0.14159(17) 0.71056(14) 0.0208(3) Uani 1 1 d . . . . .
H18A H -0.037433 0.205501 0.662613 0.025 Uiso 1 1 calc R U . . .
O1A O 0.8971(15) 0.6110(12) 0.9882(9) 0.009(3) Uani 0.081(4) 1 d . U P A 2
H1A H 0.894292 0.538877 1.016038 0.014 Uiso 0.081(4) 1 calc R U P A 2
loop_
_atom_site_aniso_label
_atom_site_aniso_U_11
_atom_site_aniso_U_22
_atom_site_aniso_U_33
_atom_site_aniso_U_23
_atom_site_aniso_U_13
_atom_site_aniso_U_12
Se 0.01864(7) 0.01813(7) 0.02556(8) 0.00944(5) 0.01071(6) 0.00588(5)
O1 0.0228(5) 0.0375(6) 0.0197(5) 0.0093(5) 0.0077(4) 0.0027(5)
O2 0.0150(4) 0.0236(5) 0.0183(5) 0.0067(4) 0.0062(4) 0.0025(4)
O3 0.0197(5) 0.0210(5) 0.0273(5) 0.0062(4) 0.0051(4) 0.0077(4)
C1 0.0137(6) 0.0160(6) 0.0214(6) 0.0092(5) 0.0054(5) 0.0049(5)
C2 0.0142(6) 0.0214(6) 0.0199(6) 0.0081(5) 0.0039(5) 0.0029(5)
C3 0.0173(6) 0.0219(6) 0.0204(6) 0.0082(5) 0.0055(5) 0.0041(5)
O4 0.0135(4) 0.0179(5) 0.0230(5) 0.0015(4) 0.0020(4) 0.0043(4)
C4 0.0156(6) 0.0160(6) 0.0178(6) 0.0066(5) 0.0061(5) 0.0055(5)
C5 0.0133(6) 0.0171(6) 0.0228(6) 0.0063(5) 0.0062(5) 0.0040(5)
C6 0.0127(6) 0.0144(6) 0.0223(6) 0.0036(5) 0.0034(5) 0.0040(5)
C7 0.0172(6) 0.0178(6) 0.0194(6) 0.0047(5) 0.0060(5) 0.0055(5)
C8 0.0153(6) 0.0180(6) 0.0207(6) 0.0077(5) 0.0068(5) 0.0054(5)
C9 0.0134(6) 0.0148(6) 0.0195(6) 0.0075(5) 0.0055(5) 0.0042(5)
C10 0.0151(6) 0.0220(6) 0.0164(6) 0.0068(5) 0.0053(5) 0.0055(5)
C11 0.0157(6) 0.0252(7) 0.0228(7) 0.0039(6) 0.0013(5) 0.0023(6)
C12 0.0142(6) 0.0193(6) 0.0215(6) 0.0092(5) 0.0056(5) 0.0034(5)
C13 0.0144(6) 0.0157(6) 0.0171(6) 0.0044(5) 0.0038(5) 0.0014(5)
C14 0.0193(6) 0.0168(6) 0.0191(6) 0.0065(5) 0.0047(5) 0.0058(5)
C15 0.0265(7) 0.0183(6) 0.0195(6) 0.0070(5) 0.0082(6) 0.0060(6)
C16 0.0262(7) 0.0196(6) 0.0257(7) 0.0059(6) 0.0135(6) 0.0065(6)
C17 0.0212(7) 0.0193(6) 0.0318(8) 0.0094(6) 0.0105(6) 0.0084(6)
C18 0.0187(6) 0.0189(6) 0.0259(7) 0.0105(5) 0.0071(6) 0.0055(5)
O1A 0.009(5) 0.009(5) 0.005(4) 0.000(3) -0.001(4) 0.002(4)
loop_
_atom_type_symbol
_atom_type_description
_atom_type_scat_dispersion_real
_atom_type_scat_dispersion_imag
_atom_type_scat_source
C C 0.0033 0.0016 'International Tables Vol C Tables 4.2.6.8 and 6.1.1.4'
H H 0.0000 0.0000 'International Tables Vol C Tables 4.2.6.8 and 6.1.1.4'
O O 0.0106 0.0060 'International Tables Vol C Tables 4.2.6.8 and 6.1.1.4'
Se Se -0.0929 2.2259 'International Tables Vol C Tables 4.2.6.8 and 6.1.1.4'
loop_
_geom_angle_atom_site_label_1
_geom_angle_atom_site_label_2
_geom_angle_atom_site_label_3
_geom_angle
_geom_angle_site_symmetry_1
_geom_angle_site_symmetry_3
_geom_angle_publ_flag
C13 Se C12 100.03(6) . . ?
C4 O2 C3 121.84(11) . . ?
C2 C1 C9 119.20(12) . . ?
C2 C1 C12 119.68(13) . . ?
C9 C1 C12 121.10(12) . . ?
C1 C2 C3 122.55(13) . . ?
C1 C2 H2A 118.7 . . ?
C3 C2 H2A 118.7 . . ?
O1 C3 O2 116.76(13) . . ?
O1 C3 C2 126.34(14) . . ?
O2 C3 C2 116.90(12) . . ?
C10 O4 C6 117.42(11) . . ?
O2 C4 C5 115.64(12) . . ?
O2 C4 C9 121.80(12) . . ?
C5 C4 C9 122.55(13) . . ?
C6 C5 C4 117.60(12) . . ?
C6 C5 H5A 121.2 . . ?
C4 C5 H5A 121.2 . . ?
C5 C6 C7 122.48(13) . . ?
C5 C6 O4 118.97(12) . . ?
C7 C6 O4 118.31(13) . . ?
C8 C7 C6 118.84(13) . . ?
C8 C7 O1A 129.3(5) . . ?
C6 C7 O1A 111.9(5) . . ?
C8 C7 H7A 120.6 . . ?
C6 C7 H7A 120.6 . . ?
C7 C8 C9 121.06(13) . . ?
C7 C8 H8A 119.5 . . ?
C9 C8 H8A 119.5 . . ?
C4 C9 C8 117.47(12) . . ?
C4 C9 C1 117.68(12) . . ?
C8 C9 C1 124.84(12) . . ?
O3 C10 O4 122.45(13) . . ?
O3 C10 C11 126.88(14) . . ?
O4 C10 C11 110.67(12) . . ?
C10 C11 H11A 109.5 . . ?
C10 C11 H11B 109.5 . . ?
H11A C11 H11B 109.5 . . ?
C10 C11 H11C 109.5 . . ?
H11A C11 H11C 109.5 . . ?
H11B C11 H11C 109.5 . . ?
C1 C12 Se 107.13(9) . . ?
C1 C12 H12A 110.3 . . ?
Se C12 H12A 110.3 . . ?
C1 C12 H12B 110.3 . . ?
Se C12 H12B 110.3 . . ?
H12A C12 H12B 108.5 . . ?
C18 C13 C14 120.09(13) . . ?
C18 C13 Se 123.43(11) . . ?
C14 C13 Se 116.48(11) . . ?
C15 C14 C13 119.25(13) . . ?
C15 C14 H14A 120.4 . . ?
C13 C14 H14A 120.4 . . ?
C16 C15 C14 120.85(14) . . ?
C16 C15 H15A 119.6 . . ?
C14 C15 H15A 119.6 . . ?
C17 C16 C15 119.56(14) . . ?
C17 C16 H16A 120.2 . . ?
C15 C16 H16A 120.2 . . ?
C16 C17 C18 120.56(14) . . ?
C16 C17 H17A 119.7 . . ?
C18 C17 H17A 119.7 . . ?
C13 C18 C17 119.68(13) . . ?
C13 C18 H18A 120.2 . . ?
C17 C18 H18A 120.2 . . ?
C7 O1A H1A 109.5 . . ?
loop_
_geom_bond_atom_site_label_1
_geom_bond_atom_site_label_2
_geom_bond_distance
_geom_bond_site_symmetry_2
_geom_bond_publ_flag
Se C13 1.9145(14) . ?
Se C12 1.9787(14) . ?
O1 C3 1.2115(18) . ?
O2 C4 1.3796(16) . ?
O2 C3 1.3822(17) . ?
O3 C10 1.2004(18) . ?
C1 C2 1.3559(19) . ?
C1 C9 1.4558(19) . ?
C1 C12 1.5022(19) . ?
C2 C3 1.452(2) . ?
C2 H2A 0.9500 . ?
O4 C10 1.3686(17) . ?
O4 C6 1.4034(17) . ?
C4 C5 1.3880(19) . ?
C4 C9 1.4025(18) . ?
C5 C6 1.381(2) . ?
C5 H5A 0.9500 . ?
C6 C7 1.3900(19) . ?
C7 C8 1.385(2) . ?
C7 O1A 1.404(10) . ?
C7 H7A 0.9500 . ?
C8 C9 1.4088(19) . ?
C8 H8A 0.9500 . ?
C10 C11 1.495(2) . ?
C11 H11A 0.9800 . ?
C11 H11B 0.9800 . ?
C11 H11C 0.9800 . ?
C12 H12A 0.9900 . ?
C12 H12B 0.9900 . ?
C13 C18 1.393(2) . ?
C13 C14 1.4024(19) . ?
C14 C15 1.391(2) . ?
C14 H14A 0.9500 . ?
C15 C16 1.389(2) . ?
C15 H15A 0.9500 . ?
C16 C17 1.386(2) . ?
C16 H16A 0.9500 . ?
C17 C18 1.394(2) . ?
C17 H17A 0.9500 . ?
C18 H18A 0.9500 . ?
O1A H1A 0.8400 . ?
loop_
_geom_hbond_atom_site_label_D
_geom_hbond_atom_site_label_H
_geom_hbond_atom_site_label_A
_geom_hbond_distance_DH
_geom_hbond_distance_HA
_geom_hbond_distance_DA
_geom_hbond_angle_DHA
_geom_hbond_site_symmetry_A
_geom_hbond_publ_flag
C5 H5A O1 0.95 2.55 3.4123(18) 151.5 2_766 yes
C5 H5A O2 0.95 2.63 3.5171(17) 156.3 2_766 yes
C8 H8A O3 0.95 2.45 3.3302(18) 153.6 1_455 yes
C11 H11A O3 0.98 2.58 3.501(2) 156.0 2_867 yes
C12 H12B O3 0.99 2.53 3.4810(18) 160.4 1_455 yes
O1A^b H1A^b O3 0.84 2.18 2.665(11) 117.0 2_767 yes
O1A^b H1A^b O4 0.84 2.58 3.416(11) 171.4 2_767 yes
O1A^b H1A^b O1A^b 0.84 2.35 2.92(2) 125.1 2_767 yes
loop_
_geom_torsion_atom_site_label_1
_geom_torsion_atom_site_label_2
_geom_torsion_atom_site_label_3
_geom_torsion_atom_site_label_4
_geom_torsion
_geom_torsion_site_symmetry_1
_geom_torsion_site_symmetry_2
_geom_torsion_site_symmetry_3
_geom_torsion_site_symmetry_4
_geom_torsion_publ_flag
C9 C1 C2 C3 1.4(2) . . . . ?
C12 C1 C2 C3 -177.49(13) . . . . ?
C4 O2 C3 O1 178.98(13) . . . . ?
C4 O2 C3 C2 -1.0(2) . . . . ?
C1 C2 C3 O1 179.80(15) . . . . ?
C1 C2 C3 O2 -0.3(2) . . . . ?
C3 O2 C4 C5 -178.15(12) . . . . ?
C3 O2 C4 C9 1.0(2) . . . . ?
O2 C4 C5 C6 179.70(12) . . . . ?
C9 C4 C5 C6 0.5(2) . . . . ?
C4 C5 C6 C7 -0.7(2) . . . . ?
C4 C5 C6 O4 -175.09(12) . . . . ?
C10 O4 C6 C5 -71.44(17) . . . . ?
C10 O4 C6 C7 113.98(14) . . . . ?
C5 C6 C7 C8 0.3(2) . . . . ?
O4 C6 C7 C8 174.68(12) . . . . ?
C5 C6 C7 O1A -179.6(5) . . . . ?
O4 C6 C7 O1A -5.2(5) . . . . ?
C6 C7 C8 C9 0.4(2) . . . . ?
O1A C7 C8 C9 -179.7(6) . . . . ?
O2 C4 C9 C8 -179.01(12) . . . . ?
C5 C4 C9 C8 0.1(2) . . . . ?
O2 C4 C9 C1 0.10(19) . . . . ?
C5 C4 C9 C1 179.23(13) . . . . ?
C7 C8 C9 C4 -0.6(2) . . . . ?
C7 C8 C9 C1 -179.63(13) . . . . ?
C2 C1 C9 C4 -1.27(19) . . . . ?
C12 C1 C9 C4 177.56(12) . . . . ?
C2 C1 C9 C8 177.77(13) . . . . ?
C12 C1 C9 C8 -3.4(2) . . . . ?
C6 O4 C10 O3 -7.9(2) . . . . ?
C6 O4 C10 C11 172.14(12) . . . . ?
C2 C1 C12 Se 97.72(13) . . . . ?
C9 C1 C12 Se -81.12(14) . . . . ?
C18 C13 C14 C15 -0.9(2) . . . . ?
Se C13 C14 C15 179.42(11) . . . . ?
C13 C14 C15 C16 -0.3(2) . . . . ?
C14 C15 C16 C17 0.9(2) . . . . ?
C15 C16 C17 C18 -0.4(2) . . . . ?
C14 C13 C18 C17 1.4(2) . . . . ?
Se C13 C18 C17 -178.93(11) . . . . ?
C16 C17 C18 C13 -0.8(2) . . . . ?
