#------------------------------------------------------------------------------
#$Date: 2022-05-03 02:22:52 +0300 (Tue, 03 May 2022) $
#$Revision: 274818 $
#$URL: file:///home/coder/svn-repositories/cod/cif/7/71/01/7710161.cif $
#------------------------------------------------------------------------------
#
# This file is available in the Crystallography Open Database (COD),
# http://www.crystallography.net/
#
# All data on this site have been placed in the public domain by the
# contributors.
#
data_7710161
loop_
_publ_author_name
'Gautier, Romain'
'PARIS, Michael'
'Massuyeau, Florian'
_publ_section_title
;
 Templating Effect of Trans-2,5-dimethylpiperazine (TDMP) on the Structure
 Dimensionality of Hybrid Metal Halides
;
_journal_name_full               'Dalton Transactions'
_journal_paper_doi               10.1039/D2DT00614F
_journal_year                    2022
_chemical_formula_moiety         'C6 H16 N2, Ag2 Br4'
_chemical_formula_sum            'C6 H16 Ag2 Br4 N2'
_chemical_formula_weight         651.59
_space_group_crystal_system      monoclinic
_space_group_IT_number           14
_space_group_name_Hall           '-P 2ybc'
_space_group_name_H-M_alt        'P 1 21/c 1'
_atom_sites_solution_hydrogens   geom
_atom_sites_solution_primary     direct
_audit_creation_date             2022-04-26
_audit_creation_method
;
Olex2 1.5
(compiled 2021.12.09 svn.r5202d8cf for OlexSys, GUI svn.r6439)
;
_audit_update_record
;
2022-04-26 deposited with the CCDC.	2022-04-29 downloaded from the CCDC.
;
_cell_angle_alpha                90
_cell_angle_beta                 118.58(2)
_cell_angle_gamma                90
_cell_formula_units_Z            2
_cell_length_a                   7.9147(16)
_cell_length_b                   8.0914(16)
_cell_length_c                   12.984(4)
_cell_measurement_reflns_used    92
_cell_measurement_temperature    293
_cell_measurement_theta_max      25
_cell_measurement_theta_min      5
_cell_volume                     730.2(3)
_computing_data_collection       supergui
_computing_molecular_graphics    'Olex2 1.5 (Dolomanov et al., 2009)'
_computing_publication_material  'Olex2 1.5 (Dolomanov et al., 2009)'
_computing_structure_refinement  'SHELXL 2016/4 (Sheldrick, 2015)'
_computing_structure_solution    'SIR2004  (Burla et al.,  2007)'
_diffrn_ambient_temperature      293
_diffrn_detector                 'CCD area detector'
_diffrn_measured_fraction_theta_full 0.980
_diffrn_measured_fraction_theta_max 0.984
_diffrn_measurement_device_type  'Bruker APEX-II CCD'
_diffrn_measurement_method       '\w scans'
_diffrn_radiation_monochromator  graphite
_diffrn_radiation_probe          x-ray
_diffrn_radiation_type           MoK\a
_diffrn_radiation_wavelength     0.71073
_diffrn_reflns_av_R_equivalents  0.0415
_diffrn_reflns_av_unetI/netI     0.0209
_diffrn_reflns_Laue_measured_fraction_full 0.980
_diffrn_reflns_Laue_measured_fraction_max 0.984
_diffrn_reflns_limit_h_max       10
_diffrn_reflns_limit_h_min       -10
_diffrn_reflns_limit_k_max       10
_diffrn_reflns_limit_k_min       -10
_diffrn_reflns_limit_l_max       16
_diffrn_reflns_limit_l_min       -16
_diffrn_reflns_number            12933
_diffrn_reflns_point_group_measured_fraction_full 0.980
_diffrn_reflns_point_group_measured_fraction_max 0.984
_diffrn_reflns_theta_full        25.242
_diffrn_reflns_theta_max         27.598
_diffrn_reflns_theta_min         6.503
_diffrn_source                   'sealed X-ray tube'
_diffrn_source_target            Mo
_diffrn_standards_number         0
_exptl_absorpt_coefficient_mu    13.595
_exptl_absorpt_correction_T_max  0.7456
_exptl_absorpt_correction_T_min  0.4260
_exptl_absorpt_correction_type   multi-scan
_exptl_absorpt_process_details
;
SADABS-2008/1 (Bruker,2008) was used for absorption correction.
wR2(int) was 0.1418 before and 0.0632 after correction.
The Ratio of minimum to maximum transmission is 0.5714.
The \l/2 correction factor is 0.0015.
;
_exptl_crystal_colour            colourless
_exptl_crystal_colour_primary    colourless
_exptl_crystal_density_diffrn    2.963
_exptl_crystal_description       block
_exptl_crystal_F_000             600
_exptl_crystal_size_max          0.45
_exptl_crystal_size_mid          0.25
_exptl_crystal_size_min          0.15
_refine_diff_density_max         1.326
_refine_diff_density_min         -1.240
_refine_diff_density_rms         0.107
_refine_ls_extinction_coef       0.0207(6)
_refine_ls_extinction_expression Fc^*^=kFc[1+0.001xFc^2^\l^3^/sin(2\q)]^-1/4^
_refine_ls_extinction_method     'SHELXL-2016/4 (Sheldrick 2016)'
_refine_ls_goodness_of_fit_ref   1.074
_refine_ls_hydrogen_treatment    constr
_refine_ls_matrix_type           full
_refine_ls_number_parameters     66
_refine_ls_number_reflns         1669
_refine_ls_number_restraints     0
_refine_ls_restrained_S_all      1.074
_refine_ls_R_factor_all          0.0336
_refine_ls_R_factor_gt           0.0252
_refine_ls_shift/su_max          0.001
_refine_ls_shift/su_mean         0.000
_refine_ls_structure_factor_coef Fsqd
_refine_ls_weighting_details
'w=1/[\s^2^(Fo^2^)+(0.0047P)^2^+2.4301P] where P=(Fo^2^+2Fc^2^)/3'
_refine_ls_weighting_scheme      calc
_refine_ls_wR_factor_gt          0.0498
_refine_ls_wR_factor_ref         0.0533
_reflns_Friedel_coverage         0.000
_reflns_number_gt                1448
_reflns_number_total             1669
_reflns_threshold_expression     'I > 2\s(I)'
_iucr_refine_instructions_details
;
TITL aa in P2(1)/n
 new.res created by SHELXL-2016/4 at 11:41:52 on 26-Apr-2022
REM transformed to space group : P21/c:b1
CELL 0.71073 7.9147 8.0914 12.9845 90 118.578 90
ZERR 2 0.0016 0.0016 0.0041 0 0.023 0
LATT 1
SYMM -X,0.5+Y,0.5-Z
SFAC C H Ag Br N
UNIT 12 32 4 8 4

L.S. 10
PLAN  5
SIZE 150 240 450
CONF
MORE -1
BOND $H
fmap 2
acta
MERG 2
REM <olex2.extras>
REM <HklSrc "%.\\new.hkl">
REM </olex2.extras>

WGHT    0.004700    2.430100
EXTI    0.020737
FVAR       0.15656
C4    1    0.265347   -0.556836    0.111379    11.00000    0.03590    0.05871 =
         0.03819   -0.00004    0.02352   -0.00303
AFIX 137
H4A   2    0.199307   -0.462040    0.119087    11.00000   -1.50000
H4B   2    0.323994   -0.616852    0.183995    11.00000   -1.50000
H4C   2    0.175213   -0.627026    0.050093    11.00000   -1.50000
AFIX   0
C3    1    0.419238   -0.500961    0.081338    11.00000    0.02897    0.03547 =
         0.02470   -0.00144    0.01262   -0.00020
AFIX  13
H3    2    0.507811   -0.426147    0.142871    11.00000   -1.20000
AFIX   0

AG1   3    0.012788   -0.967660   -0.114147    11.00000    0.06974    0.04940 =
         0.03789    0.00478    0.02432    0.00133
BR1   4    0.055984   -0.705515   -0.223459    11.00000    0.04825    0.03294 =
         0.03194    0.00111    0.01563   -0.00844
BR2   4   -0.308187   -0.941087   -0.089740    11.00000    0.04568    0.03904 =
         0.03303   -0.00194    0.01592    0.00547
N1    5    0.326535   -0.409508   -0.033676    11.00000    0.02600    0.02930 =
         0.02819   -0.00018    0.01091    0.00351
AFIX  23
H1A   2    0.239597   -0.474845   -0.088603    11.00000   -1.20000
H1B   2    0.265212   -0.321404   -0.026933    11.00000   -1.20000
AFIX   0
C2    1    0.467994   -0.354761   -0.071769    11.00000    0.02967    0.02871 =
         0.03118    0.00567    0.01388    0.00194
AFIX  23
H2A   2    0.556083   -0.275587   -0.015701    11.00000   -1.20000
H2B   2    0.400325   -0.300144   -0.147270    11.00000   -1.20000
AFIX   0
HKLF 4




REM  aa in P2(1)/n
REM R1 =  0.0252 for    1448 Fo > 4sig(Fo)  and  0.0336 for all    1669 data
REM     66 parameters refined using      0 restraints

END  
     
WGHT      0.0046      2.4250 

REM Highest difference peak  1.326,  deepest hole -1.240,  1-sigma level  0.107
Q1    1   0.0963 -0.9728 -0.1259  11.00000  0.05    1.33
Q2    1  -0.0197 -1.0457 -0.1085  11.00000  0.05    0.78
Q3    1  -0.2391 -0.8731 -0.0834  11.00000  0.05    0.59
Q4    1   0.0233 -0.9038 -0.0842  11.00000  0.05    0.57
Q5    1  -0.0564 -0.9327 -0.1588  11.00000  0.05    0.55

  REM The information below was added by Olex2.
  REM
  REM R1 = 0.0252 for 1448 Fo > 4sig(Fo) and 0.0336 for all 13536 data
  REM 66 parameters refined using n/a restraints
  REM Highest difference peak 1.33, deepest hole -1.24
  REM Mean Shift 0, Max Shift -0.001.

  REM +++ Tabular Listing of Refinement Information +++
  REM R1_all = 0.0336
  REM R1_gt = 0.0252
  REM wR_ref = 0.0533
  REM GOOF = 1.074
  REM Shift_max = -0.001
  REM Shift_mean = 0
  REM Reflections_all = 13536
  REM Reflections_gt = 1448
  REM Parameters = 66
  REM Hole = -1.24
  REM Peak = 1.33
  REM Flack = n/a

  
;
_cod_data_source_file            d2dt00614f1.cif
_cod_data_source_block           new
_cod_database_code               7710161
_shelx_shelxl_version_number     2016/4
_shelx_space_group_comment
;
The symmetry employed for this shelxl refinement is uniquely defined
by the following loop, which should always be used as a source of
symmetry information in preference to the above space-group names.
They are only intended as comments.
;
_shelx_estimated_absorpt_t_max   0.007
_shelx_estimated_absorpt_t_min   0.007
_olex2_refinement_description
;
1. Fixed Uiso
 At 1.2 times of:
  All C(H) groups, All C(H,H) groups, All N(H,H) groups
 At 1.5 times of:
  All C(H,H,H) groups
2.a Ternary CH refined with riding coordinates:
 C3(H3)
2.b Secondary CH2 refined with riding coordinates:
 N1(H1A,H1B), C2(H2A,H2B)
2.c Idealised Me refined as rotating group:
 C4(H4A,H4B,H4C)
;
_olex2_submission_special_instructions 'No special instructions were received'
loop_
_space_group_symop_operation_xyz
'x, y, z'
'-x, y+1/2, -z+1/2'
'-x, -y, -z'
'x, -y-1/2, z-1/2'
loop_
_atom_site_label
_atom_site_type_symbol
_atom_site_fract_x
_atom_site_fract_y
_atom_site_fract_z
_atom_site_U_iso_or_equiv
_atom_site_adp_type
_atom_site_occupancy
_atom_site_site_symmetry_order
_atom_site_calc_flag
_atom_site_refinement_flags_posn
_atom_site_refinement_flags_adp
_atom_site_refinement_flags_occupancy
_atom_site_disorder_assembly
_atom_site_disorder_group
C4 C 0.2653(6) -0.5568(6) 0.1114(4) 0.0419(10) Uani 1 1 d . . . . .
H4A H 0.199307 -0.462040 0.119087 0.063 Uiso 1 1 calc R U . . .
H4B H 0.323994 -0.616852 0.183995 0.063 Uiso 1 1 calc R U . . .
H4C H 0.175213 -0.627026 0.050093 0.063 Uiso 1 1 calc R U . . .
C3 C 0.4192(5) -0.5010(5) 0.0813(3) 0.0298(8) Uani 1 1 d . . . . .
H3 H 0.507811 -0.426147 0.142871 0.036 Uiso 1 1 calc R U . . .
Ag1 Ag 0.01279(6) -0.96766(5) -0.11415(3) 0.05293(14) Uani 1 1 d . . . . .
Br1 Br 0.05598(6) -0.70552(5) -0.22346(3) 0.03918(14) Uani 1 1 d . . . . .
Br2 Br -0.30819(6) -0.94109(5) -0.08974(4) 0.04045(14) Uani 1 1 d . . . . .
N1 N 0.3265(4) -0.4095(4) -0.0337(3) 0.0287(6) Uani 1 1 d . . . . .
H1A H 0.239597 -0.474845 -0.088603 0.034 Uiso 1 1 calc R U . . .
H1B H 0.265212 -0.321404 -0.026933 0.034 Uiso 1 1 calc R U . . .
C2 C 0.4680(5) -0.3548(5) -0.0718(3) 0.0301(8) Uani 1 1 d . . . . .
H2A H 0.556083 -0.275587 -0.015701 0.036 Uiso 1 1 calc R U . . .
H2B H 0.400325 -0.300144 -0.147270 0.036 Uiso 1 1 calc R U . . .
loop_
_atom_site_aniso_label
_atom_site_aniso_U_11
_atom_site_aniso_U_22
_atom_site_aniso_U_33
_atom_site_aniso_U_23
_atom_site_aniso_U_13
_atom_site_aniso_U_12
C4 0.036(2) 0.059(3) 0.038(2) 0.000(2) 0.0235(18) -0.003(2)
C3 0.0290(18) 0.0355(19) 0.0247(17) -0.0014(15) 0.0126(15) -0.0002(15)
Ag1 0.0697(3) 0.0494(2) 0.0379(2) 0.00478(15) 0.02432(18) 0.00133(18)
Br1 0.0483(3) 0.0329(2) 0.0319(2) 0.00111(16) 0.01563(18) -0.00844(17)
Br2 0.0457(3) 0.0390(2) 0.0330(2) -0.00194(16) 0.01592(18) 0.00547(18)
N1 0.0260(15) 0.0293(15) 0.0282(15) -0.0002(12) 0.0109(13) 0.0035(12)
C2 0.0297(18) 0.0287(18) 0.0312(19) 0.0057(15) 0.0139(16) 0.0019(15)
loop_
_atom_type_symbol
_atom_type_description
_atom_type_scat_dispersion_real
_atom_type_scat_dispersion_imag
_atom_type_scat_source
C C 0.0033 0.0016 'International Tables Vol C Tables 4.2.6.8 and 6.1.1.4'
H H 0.0000 0.0000 'International Tables Vol C Tables 4.2.6.8 and 6.1.1.4'
Ag Ag -0.8971 1.1015 'International Tables Vol C Tables 4.2.6.8 and 6.1.1.4'
Br Br -0.2901 2.4595 'International Tables Vol C Tables 4.2.6.8 and 6.1.1.4'
N N 0.0061 0.0033 'International Tables Vol C Tables 4.2.6.8 and 6.1.1.4'
loop_
_diffrn_refln_index_h
_diffrn_refln_index_k
_diffrn_refln_index_l
_diffrn_refln_intensity_net
_diffrn_refln_intensity_u
-3 0 3 -0.13 0.78
3 0 -3 0 1.16
3 0 -3 0.24 0.21
-3 0 3 0.51 0.24
3 0 -3 -0.05 0.13
3 0 -3 -0.02 0.19
4 0 -4 4.56 2.1
4 0 -4 3.34 0.43
4 0 -4 3.38 0.41
-4 0 4 3.68 0.51
-4 0 4 2.96 1.74
4 0 -4 3.47 0.43
-4 0 4 2.43 0.41
-5 0 5 -0.43 0.38
5 0 -5 0.37 0.35
-5 0 5 0.03 2.04
5 0 -5 0.04 1.69
5 0 -5 0.04 0.26
-5 0 5 0.26 0.3
5 0 -5 -0.12 0.36
-6 0 6 11.3 1.17
6 0 -6 13.36 1.08
-6 0 6 12.06 0.97
6 0 -6 11.52 0.92
6 0 -6 12.48 1
-7 0 7 -0.56 0.69
7 0 -7 0.06 0.52
-7 0 7 0.36 0.58
7 0 -7 0.31 0.5
7 0 -7 0.77 0.43
8 0 -8 16.77 1.54
8 0 -8 14.67 1.28
8 0 -8 16.24 1.22
-8 0 8 14.08 1.19
9 0 -9 0.46 0.78
9 0 -9 -0.57 0.7
-9 0 9 -1.42 0.86
-9 0 9 0.41 1.08
10 0 -10 1.37 0.7
-10 0 10 -0.2 1.06
10 0 -10 1.44 1.01
10 0 -10 -0.93 1.25
-10 0 10 -0.85 0.74
-3 1 3 490.3 16.62
3 1 -3 467.58 16.66
3 1 -3 440.52 19.64
3 1 -3 514.83 19.25
-3 1 3 455.3 19.92
3 -1 -3 423.95 17.23
3 -1 -3 426.3 16.75
3 -1 -3 449.04 19.94
3 -1 -3 470.3 19.68
-3 -1 3 425.32 22.96
-3 -1 3 461.07 18.85
-3 -1 3 446.48 16.68
-4 1 4 64.57 5.51
4 1 -4 71.09 2.74
4 1 -4 61.2 2.85
4 1 -4 67.36 3.2
-4 1 4 69.97 2.8
4 1 -4 62.05 4.82
-4 -1 4 65.33 4.73
4 -1 -4 76.55 3.28
4 -1 -4 69.19 5.69
4 -1 -4 70.84 2.86
4 -1 -4 67.66 2.92
-4 -1 4 61.43 3.66
-4 -1 4 68.46 2.88
-5 1 5 8.63 2.9
5 1 -5 7.33 0.62
-5 1 5 7.85 0.85
-5 1 5 6.45 0.63
5 1 -5 4.33 2.59
5 1 -5 7.15 0.64
5 -1 -5 6.88 0.67
-5 -1 5 7.37 0.73
5 -1 -5 1.59 2.6
-5 -1 5 7.39 2.43
5 -1 -5 6.59 0.63
5 -1 -5 5.69 0.64
-5 -1 5 6.81 0.69
-6 1 6 134.92 7.69
6 1 -6 140.03 5.53
6 1 -6 141.12 6.48
6 1 -6 141.12 5.7
-6 1 6 133.85 5.54
6 -1 -6 134.44 5.59
-6 -1 6 139.03 5.65
6 -1 -6 143.69 6.52
6 -1 -6 140.68 5.78
-7 1 7 5.68 0.7
7 1 -7 6.18 0.71
7 1 -7 6.22 0.89
-7 1 7 4.77 1.03
7 1 -7 6.12 0.75
7 -1 -7 5.01 0.85
-7 -1 7 4.37 0.83
7 -1 -7 5.82 0.77
-7 -1 7 5.19 0.83
7 -1 -7 4.6 0.67
8 1 -8 26.81 1.66
-8 1 8 23.45 1.61
8 1 -8 28.27 1.69
8 1 -8 24.42 1.83
8 -1 -8 24.05 1.97
-8 -1 8 28.75 1.79
8 -1 -8 28.18 1.73
8 -1 -8 26.36 1.69
9 1 -9 19.15 1.87
9 1 -9 20.41 1.6
-9 1 9 19.75 1.49
9 1 -9 22.27 1.6
-9 -1 9 19.74 1.51
9 -1 -9 22.43 1.58
9 -1 -9 20.66 1.54
9 -1 -9 17.79 1.82
10 1 -10 1.16 1.13
10 1 -10 4.4 1.09
-10 1 10 1.81 1.21
-10 1 10 1.12 0.91
10 1 -10 3.39 1.02
10 -1 -10 3.35 0.8
-10 -1 10 2.48 1.04
10 -1 -10 2.37 1.04
10 -1 -10 1.54 1.27
-2 2 2 3.17 0.23
2 2 -2 2.26 0.75
2 2 -2 2.96 0.23
2 2 -2 2.98 0.3
-2 2 2 2.58 1.18
-2 2 2 2.63 0.25
2 -2 -2 2.22 0.89
-2 -2 2 2.41 0.9
2 -2 -2 2.95 0.26
2 -2 -2 2.61 0.31
2 -2 -2 2.5 0.3
-2 -2 2 2.87 0.27
-2 -2 2 2.94 0.27
3 2 -3 286.9 10.07
3 2 -3 299.28 12.36
3 2 -3 259.95 11.87
-3 2 3 291.44 10.05
-3 2 3 285.85 13.36
-3 -2 3 236.41 13.79
-3 -2 3 256.45 12.75
-3 -2 3 290.03 12.17
3 -2 -3 250.59 10.46
-3 -2 3 268.88 10.37
-3 -2 3 282.88 10.13
3 -2 -3 276.58 11.96
3 -2 -3 277.88 13.03
3 -2 -3 264.04 10.15
4 2 -4 227.79 10.15
-4 2 4 238.96 8.63
4 2 -4 239.29 11.33
4 2 -4 232.55 8.6
-4 2 4 240.36 12.64
4 -2 -4 223.71 12.19
-4 -2 4 218.24 10.91
4 -2 -4 219.8 8.71
4 -2 -4 233.98 9.02
-4 -2 4 226.73 8.73
4 -2 -4 226.51 10.23
-4 -2 4 235.98 8.89
-5 2 5 98.8 8.07
5 2 -5 111.07 4.25
5 2 -5 105.44 5.01
-5 2 5 109.66 4.32
-5 2 5 121.38 6.16
5 2 -5 97.82 7.12
-5 -2 5 92.4 5.68
-5 -2 5 111.08 4.46
-5 -2 5 90.57 6.74
5 -2 -5 113.7 5.12
5 -2 -5 109.62 4.54
5 -2 -5 111.59 4.4
5 -2 -5 111.33 8.29
6 2 -6 3.84 0.59
6 2 -6 4.13 0.72
-6 2 6 5.46 0.94
-6 2 6 3.91 0.55
6 -2 -6 3.62 0.74
6 -2 -6 4.11 0.64
6 -2 -6 4.34 0.57
-6 -2 6 3.54 0.71
7 2 -7 0.08 0.38
-7 2 7 -0.01 0.81
7 2 -7 1.14 0.51
-7 2 7 0.85 0.59
7 2 -7 1.95 0.62
-7 -2 7 1.18 0.69
7 -2 -7 0.91 0.44
-7 -2 7 0.12 0.53
7 -2 -7 0.43 0.6
8 2 -8 11.62 1.11
-8 2 8 10.48 1.07
8 2 -8 12.39 1.12
-8 2 8 9.5 1.66
8 2 -8 13.22 1.35
8 -2 -8 11.58 1.12
-8 -2 8 10.18 1.13
8 -2 -8 12 1.18
8 -2 -8 8.94 1.14
9 2 -9 -1.45 0.83
-9 2 9 0.02 0.86
9 2 -9 -0.48 0.6
9 2 -9 -0.29 1.08
-9 -2 9 0.6 0.77
9 -2 -9 0.38 0.85
9 -2 -9 0.35 0.75
-10 2 10 -0.62 0.99
10 2 -10 1.19 0.74
-10 2 10 -2.74 1.62
10 2 -10 -1.83 1.16
10 2 -10 0.13 0.93
-10 -2 10 0.74 0.94
10 -2 -10 1.27 0.79
10 -2 -10 1.03 1
0 3 0 0.24 0.14
0 3 0 0.12 0.12
0 3 0 -0.35 0.72
0 3 0 0.19 0.76
0 -3 0 -0.05 0.08
0 -3 0 0.16 0.16
-1 3 1 67.56 3.11
-1 3 1 65.24 3.03
1 3 -1 75.96 2.76
1 3 -1 79.54 4.22
1 3 -1 73.58 3.2
-1 3 1 67.2 4.03
1 -3 -1 70.77 2.76
1 -3 -1 73.26 2.73
-1 -3 1 76.27 4.2
1 -3 -1 73.91 2.9
-1 -3 1 70.75 2.85
-1 -3 1 69.5 2.71
1 -3 -1 72.68 4.17
2 3 -2 166.03 6.02
-2 3 2 161.57 8.12
-2 3 2 163.48 6.7
2 3 -2 163.85 7.09
2 3 -2 173.43 7.89
2 -3 -2 155.97 6.28
-2 -3 2 160.35 6.21
-2 -3 2 168.94 7.79
2 -3 -2 152.64 6.04
2 -3 -2 154.24 7.86
-2 -3 2 155.41 5.98
3 3 -3 91.1 5.39
3 3 -3 84.49 3.36
-3 3 3 94.91 6.03
3 3 -3 84.8 3.98
-3 -3 3 84.24 3.4
3 -3 -3 86.77 3.44
3 -3 -3 84.75 3.6
3 -3 -3 87.63 5.64
-3 -3 3 87.61 5.17
-3 -3 3 86.53 3.49
4 3 -4 -0.66 1.33
4 3 -4 0.04 0.33
-4 3 4 -1.06 1.75
-4 3 4 0.54 0.28
4 3 -4 -0.46 0.28
-4 -3 4 0.57 1.63
4 -3 -4 -2.01 1.91
-4 -3 4 -0.38 0.29
-4 -3 4 0.25 0.25
4 -3 -4 -0.3 0.39
-4 -3 4 0.23 0.18
-4 -3 4 -0.04 0.26
4 -3 -4 -0.01 0.33
4 -3 -4 0.31 0.35
5 3 -5 41.38 2.17
5 3 -5 39.24 1.79
-5 3 5 37.41 1.83
5 -3 -5 38.14 2.19
5 -3 -5 39.95 1.93
5 -3 -5 40.94 4.8
-5 -3 5 38.54 1.88
-5 -3 5 40.79 1.99
5 -3 -5 40.51 2.03
-6 3 6 39.17 2.02
-6 3 6 45.89 3.07
6 3 -6 40.73 1.94
6 3 -6 44.1 2.39
6 -3 -6 39.02 2.41
-6 -3 6 42.59 2.2
6 -3 -6 40.19 2.09
6 -3 -6 42.76 2.21
-7 3 7 14.56 1.82
7 3 -7 16.51 1.11
-7 3 7 18.43 1.29
7 3 -7 16.66 1.41
7 -3 -7 19.23 1.4
-7 -3 7 17.06 1.3
7 -3 -7 18.38 1.32
8 3 -8 1.98 0.73
8 3 -8 2.25 0.72
-8 3 8 2.99 0.75
-8 3 8 1 0.9
8 -3 -8 1.81 0.81
-8 -3 8 0.47 0.8
8 -3 -8 1.56 0.76
9 3 -9 0.24 0.59
9 3 -9 1.05 1.03
-9 3 9 0.12 1.44
-9 3 9 0.51 0.84
9 3 -9 0.81 0.87
9 -3 -9 0.35 0.87
9 -3 -9 -0.92 0.83
-9 -3 9 -0.16 0.64
0 4 0 272.27 10.14
0 4 0 284.78 11.83
0 4 0 291.58 12.36
0 4 0 270.22 11.47
0 4 0 275.15 12.15
0 -4 0 266.94 10.03
0 -4 0 264.73 10.46
1 4 -1 63.89 2.52
1 4 -1 64.53 2.9
1 4 -1 65.49 4.15
-1 4 1 61.81 2.76
-1 4 1 66.8 4.19
1 4 -1 65.51 4.19
-1 4 1 59.73 2.8
1 -4 -1 64.34 2.66
-1 -4 1 64.76 2.48
1 -4 -1 64.66 2.53
-1 -4 1 63.31 2.62
1 -4 -1 67.2 4.27
1 -4 -1 61.87 2.48
-1 -4 1 64.12 4.19
2 4 -2 62.09 2.83
-2 4 2 56.41 2.58
-2 4 2 60.58 4.29
2 4 -2 66.99 4.4
2 4 -2 59.98 2.41
2 -4 -2 59.85 2.44
-2 -4 2 57.79 2.5
2 -4 -2 59.25 2.58
2 -4 -2 64.14 4.37
-2 -4 2 62.51 4.16
-2 -4 2 59.29 2.39
3 4 -3 55.96 2.29
3 4 -3 51.45 4.05
-3 4 3 59.37 2.45
3 4 -3 57.92 2.73
-3 4 3 54.84 4.67
3 -4 -3 54.01 2.49
3 -4 -3 56.13 2.34
-3 -4 3 54.78 2.31
3 -4 -3 55.64 4.54
-3 -4 3 56.13 2.39
-3 -4 3 53.38 4.08
-4 4 4 14.22 1.27
4 4 -4 12.71 2.67
4 4 -4 13.31 0.96
4 4 -4 12.93 0.78
-4 4 4 15.54 3.9
4 -4 -4 12.1 0.94
4 -4 -4 12.21 0.86
-4 -4 4 13.13 0.85
-4 -4 4 13.64 0.85
4 -4 -4 10.58 2.55
5 4 -5 13 1.04
-5 4 5 13.7 1.43
5 4 -5 11.68 0.8
5 -4 -5 12.14 0.92
5 -4 -5 13.48 1.03
-5 -4 5 10.57 0.96
-5 -4 5 11.74 0.88
6 4 -6 0.62 0.44
-6 4 6 -0.16 0.9
6 4 -6 0.01 0.57
-6 4 6 1.22 0.52
-6 -4 6 -0.41 0.51
6 -4 -6 -0.26 0.46
6 -4 -6 0.34 0.48
-6 -4 6 -0.46 0.53
7 4 -7 7.09 0.87
-7 4 7 5.13 0.69
-7 4 7 6.29 1.32
7 4 -7 6.61 0.79
-7 -4 7 5.96 0.84
7 -4 -7 6.1 0.87
7 -4 -7 6.65 0.85
-8 4 8 2.97 0.72
8 4 -8 4.23 1.05
-8 4 8 3.4 1.42
8 4 -8 3.12 0.68
-8 -4 8 2.03 0.94
8 -4 -8 3.34 0.72
8 -4 -8 3.74 0.83
-9 4 9 -0.34 1.57
9 4 -9 4.11 0.96
9 4 -9 3.93 0.81
9 4 -9 0.3 1.1
-9 -4 9 2.59 1.06
9 -4 -9 1.47 0.67
9 -4 -9 2.26 0.77
0 5 0 -1.2 1.15
0 5 0 0.5 0.25
0 5 0 0.36 1
0 5 0 -0.04 0.12
0 5 0 0.22 0.2
0 5 0 -0.27 0.23
0 -5 0 -0.06 0.14
0 -5 0 0.02 0.27
1 5 -1 29.77 3.01
-1 5 1 25.42 2.89
1 5 -1 31.44 1.49
1 5 -1 28.88 3.1
-1 5 1 29.4 1.36
1 5 -1 31.02 1.35
1 5 -1 28.02 1.63
-1 5 1 32.08 3.13
-1 5 1 30.36 1.35
-1 5 1 28.53 1.4
1 -5 -1 30.05 1.34
1 -5 -1 30.15 1.3
1 -5 -1 29.59 1.45
1 -5 -1 28.88 3.05
-1 -5 1 29.02 1.41
-1 -5 1 30.32 1.3
2 5 -2 44.72 3.95
2 5 -2 47.56 2.26
-2 5 2 43.04 2.01
-2 5 2 51.5 4.32
2 5 -2 46.07 1.93
2 -5 -2 46.3 1.95
2 -5 -2 46 1.91
2 -5 -2 42.42 3.95
-2 -5 2 45.35 2.02
2 -5 -2 45.25 2.1
-2 -5 2 44.58 1.9
-2 -5 2 46 4.13
-3 5 3 52.79 3.51
3 5 -3 50.7 2.12
3 5 -3 51.67 2.51
-3 5 3 50.84 2.21
-3 -5 3 47.48 2.11
3 -5 -3 47.97 4.6
-3 -5 3 49.37 2.22
3 -5 -3 49.24 2.34
3 -5 -3 47.94 2.15
4 5 -4 38.25 2.11
4 5 -4 39.26 1.77
-4 5 4 41.55 2.71
4 -5 -4 37.96 1.99
-4 -5 4 37.12 1.82
4 -5 -4 38.86 1.82
-4 -5 4 38.26 1.85
5 5 -5 2.81 0.51
-5 5 5 4.07 0.88
-5 -5 5 2.47 0.55
5 -5 -5 2.98 0.57
5 -5 -5 3.53 0.7
-5 -5 5 3.18 0.65
6 5 -6 88.21 4.4
-6 5 6 83.98 5.42
6 5 -6 87.35 3.64
6 -5 -6 89.19 3.8
-6 -5 6 87.96 3.8
6 -5 -6 89.06 4.01
-6 -5 6 82.41 3.83
-7 5 7 1.27 1.2
7 5 -7 1.95 0.65
7 5 -7 2.28 0.64
7 -5 -7 1.55 0.79
-7 -5 7 1.78 0.79
8 5 -8 16.67 1.7
8 5 -8 14.43 1.23
-8 -5 8 19.87 1.52
8 -5 -8 19.04 1.5
8 -5 -8 17.58 1.54
0 6 0 0.72 0.23
0 6 0 0.82 0.3
0 6 0 0.81 0.24
0 -6 0 0.84 0.27
0 -6 0 0.49 0.27
-1 6 1 86.03 3.34
1 6 -1 84.13 3.82
1 6 -1 84.9 3.33
-1 6 1 76.8 3.62
1 6 -1 78.73 3.85
-1 -6 1 81.08 3.26
1 -6 -1 86.14 3.55
-1 -6 1 87.29 3.49
1 -6 -1 83.8 3.27
2 6 -2 11.1 0.72
-2 6 2 9.36 1
2 6 -2 9.94 0.75
-2 -6 2 13.04 0.81
2 -6 -2 11.39 0.75
2 -6 -2 11.2 0.87
-2 -6 2 11.55 0.7
2 -6 -2 10.76 0.67
3 6 -3 244.45 9.54
-3 6 3 254.77 13.39
3 6 -3 269.32 11.29
3 -6 -3 256.36 9.61
-3 -6 3 246.09 9.49
3 -6 -3 248.56 9.49
-3 -6 3 253.62 9.88
3 -6 -3 259.48 10.04
-4 6 4 4.93 1.09
4 6 -4 6.02 0.58
4 6 -4 6.4 0.75
-4 -6 4 5.39 0.66
4 -6 -4 5.43 0.62
-4 -6 4 4.71 0.62
4 -6 -4 4.71 0.66
4 -6 -4 4.52 0.52
5 6 -5 72.56 3.08
-5 6 5 69.78 4.58
5 6 -5 73.63 3.71
5 -6 -5 73.15 3.45
5 -6 -5 71.33 3.2
-5 -6 5 73.11 3.24
-5 -6 5 74.27 3.25
-6 6 6 0.16 0.78
6 6 -6 -0.01 0.52
6 6 -6 0.01 0.7
-6 -6 6 -0.75 0.76
6 -6 -6 -0.42 0.65
6 -6 -6 -1.47 0.6
-6 -6 6 -0.01 0.6
-7 6 7 1.91 1.08
7 6 -7 -0.69 0.66
7 6 -7 -1.3 0.89
-7 -6 7 -1.08 0.88
-7 -6 7 -0.09 0.7
7 -6 -7 2.11 0.8
7 -6 -7 -1.18 0.62
8 6 -8 3.26 1.06
8 6 -8 0.47 0.79
-8 6 8 -0.15 1.68
8 -6 -8 2.4 0.73
8 -6 -8 0.84 0.95
-8 -6 8 1.78 1.01
0 7 0 0.16 0.41
0 7 0 -0.74 0.38
0 -7 0 0.51 0.32
0 -7 0 -0.11 0.38
1 7 -1 0.69 0.44
-1 7 1 1.3 0.4
1 7 -1 0.81 0.38
1 -7 -1 0.94 0.34
-1 -7 1 1.01 0.45
-1 -7 1 1.03 0.35
2 7 -2 23.86 1.46
2 7 -2 21.61 1.64
2 7 -2 25.73 1.3
-2 7 2 24.55 1.28
-2 -7 2 25.07 1.37
2 -7 -2 25.18 1.25
-2 -7 2 26.06 1.27
2 -7 -2 25.44 1.5
2 -7 -2 25.43 1.29
3 7 -3 31.07 1.56
3 7 -3 30.87 1.8
-3 -7 3 30.48 1.53
3 -7 -3 32.36 1.56
3 -7 -3 33.25 1.62
-3 -7 3 30.13 1.62
3 -7 -3 33.03 1.83
4 7 -4 3.35 0.57
4 7 -4 3.33 0.68
-4 7 4 1.52 0.85
4 -7 -4 2.58 0.48
-4 -7 4 3.01 0.51
4 -7 -4 3.3 0.62
4 -7 -4 3.86 0.58
5 7 -5 41.52 1.96
5 7 -5 40.4 2.38
-5 -7 5 43.07 2.15
5 -7 -5 38.01 2.21
5 -7 -5 38.03 1.97
-5 -7 5 40.97 2.1
5 -7 -5 39.5 2.03
6 7 -6 25.59 1.49
6 7 -6 22.67 1.81
6 -7 -6 22.1 1.71
-6 -7 6 23.01 1.47
6 -7 -6 26.18 1.64
-6 -7 6 22.57 1.69
7 7 -7 24.24 1.99
7 7 -7 23.15 1.54
7 -7 -7 24.03 1.6
-7 -7 7 22.28 1.9
7 -7 -7 24.47 1.81
-7 -7 7 27.18 1.73
0 8 0 77.53 3.33
0 -8 0 81.26 3.58
0 -8 0 81.81 3.29
1 8 -1 44.25 2.12
-1 8 1 48.17 2.17
-1 -8 1 46.98 2.3
1 -8 -1 46.74 2.1
1 -8 -1 50.36 2.4
-1 -8 1 45.72 2.1
-2 8 2 56.88 2.66
2 8 -2 53.83 3.18
2 8 -2 62.76 2.67
2 -8 -2 62.99 2.65
-2 -8 2 63.94 2.83
-2 -8 2 62.55 2.66
2 -8 -2 66.14 2.97
3 8 -3 -0.7 0.48
-3 8 3 -0.52 0.5
3 8 -3 0 0.84
3 -8 -3 0.3 0.42
-3 -8 3 0.24 0.43
-3 -8 3 0.36 0.4
3 -8 -3 0.37 0.49
4 8 -4 21.26 1.26
-4 -8 4 21.83 1.43
4 -8 -4 21.4 1.3
4 -8 -4 21.4 1.31
-4 -8 4 24.3 1.43
4 -8 -4 20.9 1.55
-5 8 5 1.69 0.91
5 8 -5 3.68 0.72
-5 -8 5 2.74 0.59
5 -8 -5 2.91 0.7
5 -8 -5 2.46 0.57
5 -8 -5 1.8 0.84
6 8 -6 6.55 0.9
-6 -8 6 7.62 1.03
6 -8 -6 7.68 1.22
6 -8 -6 7.63 1
6 -8 -6 7.58 1
0 9 0 0.44 0.48
0 -9 0 -0.07 0.43
0 -9 0 -0.71 0.53
1 9 -1 -0.36 0.51
-1 9 1 -0.34 0.43
1 -9 -1 1.11 0.51
-1 -9 1 -0.24 0.58
-1 -9 1 0.4 0.56
1 -9 -1 0.48 0.47
2 9 -2 20.88 1.29
-2 9 2 21.51 1.3
-2 -9 2 21.01 1.41
2 -9 -2 22.01 1.47
2 -9 -2 18.31 1.17
-3 9 3 -0.04 0.54
3 9 -3 -0.23 0.4
-3 -9 3 1.4 0.52
3 -9 -3 0.3 0.81
4 9 -4 8.26 1.59
-4 9 4 7.23 0.87
4 9 -4 6.73 0.74
4 -9 -4 9.24 1.21
4 -9 -4 5.59 0.83
4 -9 -4 7.72 0.9
-4 -9 4 7.4 0.97
5 9 -5 1.13 0.64
5 -9 -5 -1.13 1
5 -9 -5 0.75 0.63
5 -9 -5 -0.05 0.7
-5 -9 5 -0.61 0.78
0 10 0 0.58 0.59
0 -10 0 0.64 0.75
-1 10 1 3.98 0.68
1 10 -1 4.21 0.71
1 -10 -1 5.4 0.96
-1 -10 1 5.08 0.93
-2 10 2 -0.18 0.61
2 10 -2 0.55 0.62
2 -10 -2 1.42 0.68
-2 -10 2 1.23 0.78
3 10 -3 1.77 0.69
-3 -10 3 0.19 0.74
3 -10 -3 1.21 0.91
-10 0 9 1.02 1.04
10 0 -9 0.88 0.74
10 0 -9 0.14 0.63
10 0 -9 -0.24 1.16
-10 0 9 1.15 0.74
9 0 -8 17.72 1.45
9 0 -8 18.89 1.73
-9 0 8 15.57 1.48
9 0 -8 19.24 1.56
-8 0 7 -0.62 0.81
8 0 -7 -0.84 0.51
8 0 -7 -0.17 0.56
8 0 -7 0.34 0.59
-8 0 7 0.07 0.69
-7 0 6 29.28 2.27
7 0 -6 33.93 1.8
7 0 -6 34.56 1.99
-7 0 6 31.54 1.8
7 0 -6 33.43 1.89
-6 0 5 0.33 0.5
6 0 -5 -0.9 0.53
6 0 -5 -0.18 0.45
6 0 -5 0.22 0.42
6 0 -5 1.87 2.37
-6 0 5 -0.22 0.44
-5 0 4 2.11 2.04
5 0 -4 4.22 2.6
5 0 -4 5.53 0.56
-5 0 4 4.13 0.54
5 0 -4 4.72 0.54
-5 0 4 6.05 0.71
5 0 -4 5.38 0.52
-4 0 3 0.34 1.48
4 0 -3 0.61 1.2
4 0 -3 -0.06 0.23
4 0 -3 0.5 0.27
-4 0 3 0.34 0.29
3 0 -2 181.02 6.97
3 0 -2 197.43 9.32
-3 0 2 184.31 9.59
-3 0 2 185.98 6.96
-3 0 2 187.43 8.84
3 0 -2 191.14 8.17
3 0 -2 182.36 7.23
3 0 -4 245 11.38
3 0 -4 216.06 8.41
-3 0 4 219.61 10.88
-3 0 4 219.27 8.43
3 0 -4 224.77 8.64
3 0 -4 227.72 9.94
4 0 -5 0.08 0.28
-4 0 5 0.15 1.7
4 0 -5 0.04 0.34
4 0 -5 -0.06 0.28
4 0 -5 -2.93 2.06
-4 0 5 -0.2 0.25
-5 0 6 2.12 0.43
5 0 -6 2.38 0.46
5 0 -6 -2 2.6
-5 0 6 0.64 1.73
5 0 -6 2.42 0.48
-6 0 7 0.33 0.52
-6 0 7 -0.46 0.6
6 0 -7 -0.04 0.56
6 0 -7 0.29 0.47
6 0 -7 -0.03 0.31
7 0 -8 7.02 1.02
7 0 -8 5.99 0.71
7 0 -8 6.78 0.83
-7 0 8 6.64 0.84
-7 0 8 4.65 1
8 0 -9 -0.62 0.56
8 0 -9 -0.34 0.7
-8 0 9 0.52 0.72
8 0 -9 -0.91 0.77
-8 0 9 0.36 0.9
9 0 -10 8.01 1.05
9 0 -10 7.23 1.28
-9 0 10 8.8 1.18
9 0 -10 10.04 1.17
10 0 -11 -0.8 1.28
-10 0 11 -0.11 0.7
10 0 -11 1.39 0.95
-10 0 11 0.06 1.52
10 0 -11 -1.23 0.89
10 1 -9 4.97 1.13
-10 1 9 4.19 1.14
10 1 -9 4.22 1.24
10 1 -9 3.82 0.83
-10 -1 9 3.5 0.89
10 -1 -9 4.9 0.86
10 -1 -9 4.89 0.95
-9 1 8 1.92 1.2
9 1 -8 5.6 1.01
9 1 -8 3.97 1.12
9 1 -8 5.45 0.8
-9 1 8 3.63 0.92
-9 -1 8 3.4 0.97
9 -1 -8 2.23 1.06
9 -1 -8 5.33 0.96
9 -1 -8 3.51 0.98
-8 1 7 9.93 1.07
8 1 -7 10.84 1.01
8 1 -7 12 1.24
8 1 -7 11.85 1.17
-8 -1 7 11.66 1.15
8 -1 -7 11.12 1.17
8 -1 -7 9.88 1.1
8 -1 -7 12.43 1.12
7 1 -6 17.96 1.29
7 1 -6 18.3 1.18
-7 1 6 17.95 1.25
7 1 -6 17.32 1.35
-7 1 6 17.69 1.61
7 -1 -6 18.05 1.26
-7 -1 6 17.08 1.25
7 -1 -6 19.08 1.35
7 -1 -6 16.25 1.35
6 1 -5 117.92 4.89
-6 1 5 112.61 4.72
6 1 -5 122.67 4.71
6 1 -5 117.01 5.46
-6 1 5 118.43 6.53
6 -1 -5 127.51 5.52
6 -1 -5 119.67 4.97
-6 -1 5 100.95 6.28
6 -1 -5 122.14 4.81
-6 -1 5 109.8 4.79
6 -1 -5 112.47 8.91
5 1 -4 35.12 1.64
-5 1 4 39.94 4.17
5 1 -4 39.5 4.22
5 1 -4 31.52 1.64
5 1 -4 36.19 1.91
-5 1 4 37.96 2.32
-5 1 4 36.25 1.73
5 -1 -4 35.67 4.72
5 -1 -4 37.16 1.77
-5 -1 4 34.49 2.17
-5 -1 4 38.01 1.81
5 -1 -4 35.08 1.84
5 -1 -4 37.07 1.9
-5 -1 4 37.09 3.74
4 1 -3 -0.25 0.23
-4 1 3 0.38 0.23
4 1 -3 0.21 1.49
-4 1 3 0.32 0.33
-4 1 3 -1.64 1.84
4 1 -3 0.09 0.13
4 1 -3 0.2 0.28
-4 -1 3 0.14 0.22
4 -1 -3 -1.79 1.81
4 -1 -3 0.92 0.35
-4 -1 3 -0.59 0.92
-4 -1 3 0.04 0.28
4 -1 -3 0.28 0.18
4 -1 -3 0.1 0.26
3 1 -2 0.18 0.94
3 1 -2 0.38 0.18
3 1 -2 0.18 0.16
3 1 -2 0 0.1
-3 1 2 0.37 0.21
-3 1 2 -0.23 0.16
-3 1 2 1.16 1.43
-3 -1 2 -0.18 0.17
-3 -1 2 -0.01 0.08
3 -1 -2 0.33 0.26
3 -1 -2 -0.06 0.89
-3 -1 2 -0.45 0.84
-3 -1 2 0.35 0.25
3 -1 -2 0.11 0.22
3 1 -4 84.43 3.34
-3 1 4 82.28 5.94
3 1 -4 82.69 3.97
-3 1 4 84.43 3.4
3 1 -4 90.43 5.36
-3 -1 4 94.65 5.3
3 -1 -4 93.02 6.09
3 -1 -4 82.98 3.45
-3 -1 4 86.83 3.46
3 -1 -4 85.87 3.53
3 -1 -4 88.68 4.09
4 1 -5 7.74 0.54
-4 1 5 6.88 0.61
4 1 -5 7.78 0.69
4 1 -5 7.24 1.82
-4 1 5 8.82 2.46
4 -1 -5 8.19 0.72
4 -1 -5 7.58 0.61
-4 -1 5 8.14 1.79
4 -1 -5 8.69 2.31
-4 -1 5 8.06 0.71
4 -1 -5 8.18 0.64
5 1 -6 44.98 2.05
5 1 -6 46.6 2.12
5 1 -6 45.99 2.45
-5 1 6 44.82 2.13
-5 1 6 43.14 4.79
5 1 -6 44.67 4.92
5 -1 -6 48.2 2.54
5 -1 -6 47.52 2.16
-5 -1 6 44.7 4.66
5 -1 -6 40.16 4.88
-5 -1 6 44.98 2.2
5 -1 -6 44.85 2.17
6 1 -7 13.7 1.18
-6 1 7 10.64 0.97
6 1 -7 12.51 0.94
6 1 -7 11.16 0.91
6 -1 -7 12.72 1.2
-6 -1 7 9.65 2.79
6 -1 -7 12.34 1.01
6 -1 -7 12.04 0.93
-6 -1 7 13.58 1.02
7 1 -8 15.33 1.14
7 1 -8 16.34 1.2
-7 1 8 14.27 1.17
7 1 -8 16.82 1.34
-7 1 8 11.89 1.57
7 -1 -8 15.65 1.35
7 -1 -8 14.47 1.1
7 -1 -8 15.63 1.21
-7 -1 8 14.53 1.16
8 1 -9 3.56 1
8 1 -9 2.77 0.61
8 1 -9 1.64 0.73
-8 1 9 0.91 1.07
-8 1 9 1.23 0.75
-8 -1 9 2.61 0.67
8 -1 -9 1.37 0.8
8 -1 -9 2.39 0.6
8 -1 -9 2.06 0.79
-9 1 10 2.18 0.72
9 1 -10 1.53 0.82
9 1 -10 2.41 0.81
9 1 -10 1.73 1.13
9 -1 -10 0.61 0.75
9 -1 -10 1.28 0.64
10 1 -11 -0.58 0.98
10 1 -11 0.25 1.07
-10 1 11 -0.47 1.4
10 1 -11 1.77 0.73
-10 1 11 0.69 0.89
10 -1 -11 0.81 0.94
10 -1 -11 -0.07 1.24
-10 -1 11 -0.5 0.96
-10 2 9 -1.93 1
10 2 -9 -0.99 0.98
10 2 -9 -0.5 1.15
-10 2 9 -2.26 1.53
10 2 -9 -1.47 0.93
10 -2 -9 0.97 0.76
10 -2 -9 0.67 0.85
-10 -2 9 0.35 0.72
9 2 -8 19.98 1.47
9 2 -8 24.19 1.75
-9 2 8 19.83 1.57
9 2 -8 19.51 1.83
-9 -2 8 21.89 1.65
9 -2 -8 24.72 1.66
9 -2 -8 22.25 1.62
8 2 -7 1.38 0.72
8 2 -7 1.53 0.8
-8 2 7 1.83 0.68
8 2 -7 2.99 0.67
-8 2 7 2.35 1.12
8 -2 -7 0.45 0.73
-8 -2 7 0.38 0.72
8 -2 -7 0.31 0.76
8 -2 -7 3.4 0.75
-7 2 6 8.47 0.87
-7 2 6 9.49 1.34
7 2 -6 8.61 0.84
7 2 -6 8.01 0.96
7 2 -6 10.42 0.95
7 -2 -6 8.95 0.91
7 -2 -6 8.55 0.89
-7 -2 6 9.23 0.99
7 -2 -6 9.18 1.03
6 2 -5 28.75 1.45
-6 2 5 27.27 1.51
6 2 -5 28.89 1.72
-6 2 5 28.76 2.14
6 -2 -5 28.27 1.69
6 -2 -5 28.23 1.65
-6 -2 5 24.79 1.54
6 -2 -5 26.64 1.52
-5 2 4 76.78 6.77
-5 2 4 78.37 4.26
-5 2 4 70.41 3.01
5 2 -4 75.85 2.98
5 2 -4 72.14 5.6
5 2 -4 74.71 3.5
-5 -2 4 68.38 3.96
5 -2 -4 75.29 3.1
-5 -2 4 64.82 4.96
-5 -2 4 70.36 3.15
5 -2 -4 67.44 5.99
5 -2 -4 74.58 3.25
5 -2 -4 70.53 3.49
-4 2 3 148.51 7.58
4 2 -3 146.36 6.4
-4 2 3 134.65 8.7
4 2 -3 152.71 7.85
-4 2 3 143.1 5.42
4 2 -3 141.06 5.39
4 2 -3 142.24 5.95
4 -2 -3 143.47 6.36
4 -2 -3 140.53 5.5
-4 -2 3 148.93 5.63
-4 -2 3 129.53 7.33
-4 -2 3 138.04 5.55
4 -2 -3 138.92 5.73
4 -2 -3 142.58 8.52
-4 -2 3 140.64 7.49
-3 2 2 77.4 5.3
3 2 -2 73.81 3.11
3 2 -2 72.4 4.41
3 2 -2 73.62 3.3
-3 2 2 78.82 3.95
-3 2 2 74.46 2.81
3 2 -2 68.96 2.76
3 -2 -2 68.8 3.25
3 -2 -2 72.33 4.86
-3 -2 2 70.25 4.27
3 -2 -2 68.95 2.83
-3 -2 2 74.75 2.91
-3 -2 2 70.55 3.74
-3 -2 2 62.26 3.48
-3 -2 2 69.98 2.9
3 -2 -2 70.8 3.02
2 2 -1 10.22 0.61
-2 2 1 11.94 1.61
-2 2 1 9.38 0.55
2 2 -1 10.86 1.37
-2 2 1 10.76 0.75
2 2 -1 11.03 0.51
-2 -2 1 10.22 0.55
-2 -2 1 10.22 1.34
-2 -2 1 10.7 0.55
2 -2 -1 10.92 0.53
2 -2 -1 11.06 1.36
2 -2 -1 9.75 0.59
2 2 -3 6.84 1.14
2 2 -3 7.15 0.48
2 2 -3 6.94 0.4
-2 2 3 7.29 0.43
-2 2 3 6.45 1.57
2 2 -3 7.22 0.5
-2 -2 3 7.26 0.43
2 -2 -3 7.25 0.54
2 -2 -3 6.67 1.39
2 -2 -3 7.18 0.49
-2 -2 3 8.33 1.31
2 -2 -3 7.43 0.48
-2 -2 3 7.21 0.43
-3 2 4 731.56 31.29
3 2 -4 750.98 27.4
3 2 -4 830.7 30.41
-3 2 4 842.03 27.28
3 2 -4 749.94 32.35
3 -2 -4 692.79 30.96
3 -2 -4 666.68 27.49
-3 -2 4 786.68 28.19
3 -2 -4 657.55 28.25
-3 -2 4 772.92 27.3
3 -2 -4 749.87 32.48
-3 -2 4 792.93 30.13
4 2 -5 0.44 0.27
-4 2 5 -1.91 2.52
-4 2 5 0.19 0.31
4 2 -5 -0.54 1.7
4 2 -5 -0.05 0.24
-4 -2 5 0.27 0.22
-4 -2 5 2.39 1.79
4 -2 -5 1.01 0.37
4 -2 -5 0.25 0.39
-4 -2 5 -0.31 0.28
4 -2 -5 0.35 0.35
4 -2 -5 -0.91 2.24
-4 -2 5 -0.16 0.36
-5 2 6 102.14 4.26
5 2 -6 106.6 5.01
5 2 -6 110.98 7.31
5 2 -6 102.99 4.2
-5 -2 6 108.88 4.41
5 -2 -6 104.17 4.44
5 -2 -6 108.39 4.36
5 -2 -6 106.48 8.34
5 -2 -6 102.98 5.12
-6 2 7 3.11 0.62
6 2 -7 3.92 0.74
6 2 -7 3.45 0.58
6 -2 -7 4.21 0.58
6 -2 -7 3.68 0.77
6 -2 -7 4.04 0.67
-6 -2 7 3.36 0.73
-7 2 8 1.07 0.54
7 2 -8 1.17 0.58
7 2 -8 1.08 0.57
7 2 -8 2.2 0.76
7 -2 -8 0.63 0.58
-7 -2 8 0.31 0.49
7 -2 -8 2.27 0.62
7 -2 -8 1.63 0.81
-7 -2 8 1.09 0.73
-8 2 9 2.23 0.96
8 2 -9 2.79 0.71
8 2 -9 4.01 1
8 2 -9 3.47 0.65
-8 2 9 4.24 0.86
8 -2 -9 4.86 0.87
8 -2 -9 1.26 0.96
8 -2 -9 3.53 0.83
-8 -2 9 3 0.91
9 2 -10 3.89 0.98
9 2 -10 2.73 1.24
-9 2 10 5.14 1.09
9 2 -10 5.05 0.83
9 -2 -10 5.58 0.92
-9 -2 10 4.52 1.07
9 -2 -10 5.64 1.01
9 3 -8 7.62 1.05
9 3 -8 5.67 1.22
-9 3 8 8.79 1.12
9 3 -8 6.11 0.9
9 -3 -8 8.11 0.94
-9 -3 8 6.78 1.13
9 -3 -8 5.01 1.1
8 3 -7 32.51 1.74
-8 3 7 27.07 1.75
-8 3 7 25.49 2.67
8 3 -7 29.51 2.09
8 -3 -7 36.41 2.04
8 -3 -7 33.05 1.91
-8 -3 7 33.21 1.95
-7 3 6 18.01 1.83
7 3 -6 19.41 1.2
-7 3 6 18.71 1.23
7 3 -6 19.8 1.46
7 -3 -6 19.25 1.37
-7 -3 6 16.37 1.4
7 -3 -6 18.68 1.3
6 3 -5 113.23 4.61
6 3 -5 119.29 5.51
-6 3 5 114.87 4.69
-6 3 5 125.32 6.7
6 -3 -5 113.45 4.76
6 -3 -5 119.16 5.02
6 -3 -5 105.69 5.5
-6 -3 5 116.82 4.87
-5 3 4 150.7 10.03
-5 3 4 142.08 7.23
5 3 -4 134.92 6.02
5 3 -4 121.86 7.91
5 3 -4 136.38 5.07
-5 3 4 131.12 5.11
5 -3 -4 124.86 5.4
-5 -3 4 128.58 5.26
-5 -3 4 129.5 5.28
5 -3 -4 127.14 5.18
5 -3 -4 120.97 8.67
5 -3 -4 118.53 5.99
4 3 -3 25.06 1.38
4 3 -3 23.29 1.11
-4 3 3 23.85 1.14
4 3 -3 15.47 2.68
-4 3 3 25.76 1.71
-4 3 3 22.65 3.68
-4 -3 3 21.41 2.55
4 -3 -3 23.25 3.29
-4 -3 3 24.37 1.37
-4 -3 3 22.98 1.25
4 -3 -3 21.88 1.27
4 -3 -3 19.48 1.29
4 -3 -3 24.07 1.21
-4 -3 3 24.92 1.21
3 3 -2 504.99 20.37
-3 3 2 512.4 20
3 3 -2 500.62 17.76
3 3 -2 487.2 20.96
-3 3 2 533.06 24.69
-3 3 2 469.5 20.8
3 -3 -2 466.43 20.45
3 -3 -2 455.48 17.79
-3 -3 2 480.59 17.7
-3 -3 2 499.63 20.27
3 -3 -2 425.63 18.38
2 3 -1 0.79 1.08
2 3 -1 0.56 0.21
-2 3 1 0.74 0.16
2 3 -1 0.69 0.15
-2 3 1 1.03 0.3
-2 3 1 1.53 1.19
2 -3 -1 0.55 0.73
2 -3 -1 1.02 0.17
2 -3 -1 0.69 0.27
-2 -3 1 0.65 0.21
-2 -3 1 0.61 0.74
-2 -3 1 0.56 0.18
1 3 0 248.06 10.08
1 3 0 246.45 10.28
1 3 0 237.9 8.58
-1 3 0 238.77 10.16
-1 3 0 212.42 9.64
1 3 0 235.51 10.2
-1 3 0 214.76 11.81
-1 -3 0 241.7 10.26
1 -3 0 235.38 10.11
1 -3 0 224 8.5
-1 -3 0 236.24 8.47
1 -3 0 224.6 8.56
1 -3 0 240.09 8.88
-1 -3 0 224.82 8.83
0 3 1 340.74 12.55
0 3 1 353.05 14.35
0 3 1 334.5 14.2
0 3 -1 362.2 14.24
0 3 -1 346.38 14.23
0 3 -1 345.31 12.53
0 3 -1 361.33 14.19
0 3 1 361.04 14.72
0 -3 1 329.52 12.43
0 -3 -1 327.09 14.17
0 -3 -1 330.66 12.53
0 -3 -1 331.68 12.39
0 -3 1 333.22 12.91
0 -3 -1 342.96 12.93
1 3 -2 1.18 0.18
1 3 -2 0.95 0.67
-1 3 2 0.72 0.09
-1 3 2 1.79 1.01
1 -3 -2 1.62 0.79
1 -3 -2 0.85 0.16
-1 -3 2 0.76 0.19
-1 -3 2 0.53 0.85
1 -3 -2 0.89 0.19
2 3 -3 96.38 5.21
-2 3 3 95.18 5.53
2 3 -3 90.25 3.44
2 3 -3 89 4.07
2 3 -3 80.31 4.03
-2 -3 3 95.79 5.23
-2 -3 3 88.07 3.44
2 -3 -3 91.95 3.51
2 -3 -3 84.82 4.02
2 -3 -3 94.52 5.51
-2 -3 3 90.85 3.56
2 -3 -3 90.62 3.64
-3 3 4 1.45 1.87
-3 3 4 1.08 0.26
3 3 -4 0.69 0.21
3 3 -4 0.05 0.92
3 3 -4 0.74 0.3
-3 -3 4 0.61 0.25
-3 -3 4 0.38 0.12
3 -3 -4 1.08 0.27
3 -3 -4 1.71 1.36
-3 -3 4 0.28 1.27
-3 -3 4 1.15 0.31
3 -3 -4 0.46 0.27
4 3 -5 66.11 2.7
4 3 -5 71.75 3.27
-4 3 5 67.01 2.76
4 3 -5 61.3 4.97
-4 3 5 71.34 6.27
-4 -3 5 68.02 2.8
4 -3 -5 67.09 2.85
4 -3 -5 71.28 6.07
-4 -3 5 54.72 4.47
4 -3 -5 65.34 3.3
4 -3 -5 65.37 2.91
-4 -3 5 66.9 2.84
5 3 -6 -0.12 0.26
5 3 -6 0.67 0.47
-5 3 6 0.5 0.42
5 -3 -6 0.72 0.45
-5 -3 6 0.2 0.3
-5 -3 6 0.57 0.5
5 -3 -6 -0.54 0.51
5 -3 -6 -0.21 0.44
-6 3 7 32.88 1.79
6 3 -7 34.29 1.69
6 3 -7 34.68 2.11
6 -3 -7 31.54 2.13
-6 -3 7 36.78 1.93
6 -3 -7 36.36 1.89
6 -3 -7 34.79 1.9
-7 3 8 20.01 2.21
7 3 -8 24.46 1.43
7 3 -8 23.15 1.67
-7 3 8 23.65 1.5
7 -3 -8 23.59 1.53
7 -3 -8 18.2 1.66
-7 -3 8 23.79 1.58
7 -3 -8 23.87 1.54
-8 3 9 0.76 0.73
8 3 -9 3.03 0.8
-8 3 9 -0.2 0.83
8 3 -9 1.79 0.76
8 3 -9 1.32 0.88
8 -3 -9 0.97 0.74
-8 -3 9 1.06 0.83
8 -3 -9 2.07 0.71
9 3 -10 18.96 1.56
-9 3 10 19.01 1.58
9 3 -10 17.8 1.52
9 3 -10 17.97 1.73
9 -3 -10 19 1.53
-9 -3 10 18.33 1.59
9 -3 -10 15.45 1.48
-9 4 8 0.02 1.5
9 4 -8 -0.03 1.01
9 4 -8 -0.4 0.72
9 -4 -8 1.06 0.85
-9 -4 8 0.89 1.01
9 -4 -8 2.85 1.03
-8 4 7 -0.15 0.5
8 4 -7 -0.3 0.63
8 4 -7 -0.04 0.81
-8 4 7 -0.03 1.22
8 -4 -7 -0.82 0.72
8 -4 -7 -0.09 0.78
-8 -4 7 0.92 0.65
7 4 -6 0.74 0.56
7 4 -6 0.96 0.74
-7 4 6 1.05 0.9
7 -4 -6 0.73 0.69
7 -4 -6 2.26 0.62
-7 -4 6 -0.18 0.74
6 4 -5 21.85 1.53
6 4 -5 21.29 1.23
-6 4 5 24.28 2
6 -4 -5 23.25 1.52
-6 -4 5 21.05 1.34
-6 -4 5 21.88 1.49
6 -4 -5 21.2 1.35
5 4 -4 18.07 1.25
5 4 -4 18.61 1.05
-5 4 4 19.86 1.67
-5 -4 4 19.05 1.19
-5 -4 4 18.41 1.13
5 -4 -4 17.83 1.11
5 -4 -4 16.43 1.2
-4 4 3 6.41 0.84
4 4 -3 6.36 0.65
4 4 -3 5.29 0.47
-4 4 3 7.29 2.58
4 4 -3 6.05 2.36
4 -4 -3 3.62 1.76
-4 -4 3 4.51 0.53
4 -4 -3 5.29 0.52
-4 -4 3 5.25 0.61
4 -4 -3 5.36 0.58
-3 4 2 6.16 2.15
-3 4 2 7.77 0.81
3 4 -2 6.64 1.94
3 4 -2 6.36 0.84
-3 4 2 7.16 0.49
3 4 -2 6.23 0.47
3 -4 -2 6.32 0.57
-3 -4 2 8.87 2.08
3 -4 -2 7.48 0.54
-3 -4 2 6.99 0.53
3 -4 -2 7.13 2.01
-3 -4 2 6.72 0.56
2 4 -1 298.3 13.17
2 4 -1 294.61 10.79
-2 4 1 274.49 12.09
-2 4 1 295.03 13.19
-2 4 1 296.8 14.94
2 4 -1 301.21 12.7
-2 -4 1 296.99 13.12
2 -4 -1 294.87 13.14
2 -4 -1 290.16 11.2
2 -4 -1 294.12 10.72
2 -4 -1 284.67 10.79
-2 -4 1 285.86 10.68
-1 4 0 230.3 9.83
1 4 0 251.61 10.92
-1 4 0 228.77 10.57
-1 4 0 219.25 12.01
-1 4 0 241.23 10.8
1 4 0 257.13 10.96
1 4 0 235.64 8.74
-1 4 0 231.74 8.73
1 4 0 249.59 10.25
1 -4 0 228.73 8.66
1 -4 0 237.45 10.69
1 -4 0 238.41 9.05
1 -4 0 233.67 8.73
-1 -4 0 229.15 8.62
-1 -4 0 232.33 9.02
0 4 1 567.05 20.98
0 4 1 514.06 23.66
0 4 -1 607.01 23.36
0 4 1 560.92 23.29
0 4 1 585.73 23.5
0 4 1 625.25 24.65
0 4 -1 567.46 23.75
0 4 -1 585.77 20.97
0 4 -1 583.24 23.24
0 -4 -1 580.32 21.62
0 -4 1 577.79 21.62
0 -4 -1 569.16 20.76
0 -4 1 551.02 20.8
-1 4 2 11.8 1.96
1 4 -2 9.61 0.53
1 4 -2 11.57 1.8
1 4 -2 8.99 0.58
-1 4 2 9.43 0.53
1 4 -2 10.15 0.78
-1 -4 2 9.78 0.59
-1 -4 2 9.2 0.52
1 -4 -2 8.56 1.54
-1 -4 2 11.14 1.81
1 -4 -2 9.51 0.55
1 -4 -2 9.57 0.51
1 -4 -2 9.47 0.63
2 4 -3 235.37 8.6
2 4 -3 238.72 10.91
-2 4 3 237.85 11.37
2 4 -3 215.93 10.12
2 -4 -3 225.54 11.15
-2 -4 3 237.17 8.57
2 -4 -3 229.06 8.65
-2 -4 3 231.69 10.85
2 -4 -3 229.13 8.96
-2 -4 3 235.05 8.88
3 4 -4 18.05 1.08
-3 4 4 15.83 2.63
3 4 -4 17.66 0.91
3 4 -4 15.07 2.3
3 -4 -4 19.45 3
-3 -4 4 18.67 0.97
-3 -4 4 17.95 0.97
3 -4 -4 17.98 0.97
-3 -4 4 17.19 2.59
3 -4 -4 17.25 1.01
3 -4 -4 17.27 1.03
4 4 -5 101.85 4.61
4 4 -5 95.71 3.83
-4 -4 5 102.05 3.99
4 -4 -5 97.24 3.97
4 -4 -5 93.43 7.17
4 -4 -5 87.4 4.49
4 -4 -5 96.93 4.12
-4 -4 5 100.25 3.94
5 4 -6 3.88 0.67
5 4 -6 3.38 0.43
-5 4 6 3.5 0.47
5 -4 -6 3.83 0.66
5 -4 -6 3.58 0.53
-5 -4 6 3.16 0.53
-5 -4 6 4.52 0.51
6 4 -7 118.16 5.72
-6 4 7 116.22 7.03
-6 4 7 118.29 4.83
6 4 -7 112.43 4.76
-6 -4 7 120.8 5.03
6 -4 -7 122.74 5.12
6 -4 -7 121.11 4.97
-6 -4 7 117.18 4.95
-7 4 8 4.59 0.79
-7 4 8 3.38 1.29
7 4 -8 3.7 0.93
7 4 -8 4.57 0.72
7 -4 -8 3.62 0.81
-7 -4 8 5.21 0.92
7 -4 -8 4.79 0.71
8 4 -9 15.24 1.19
8 4 -9 15.91 1.53
-8 4 9 14.05 1.33
8 -4 -9 20.11 1.51
8 -4 -9 18.26 1.41
-8 -4 9 16.23 1.51
9 4 -10 2.67 0.98
-9 4 10 1.24 0.7
9 4 -10 -0.05 1.13
9 4 -10 -0.86 0.92
-9 4 10 -0.88 1.13
-9 -4 10 3.51 1.05
9 -4 -10 1.29 0.94
9 -4 -10 1.02 0.66
9 5 -8 2.41 0.92
-9 5 8 -0.95 1.65
9 5 -8 0.85 1.1
9 -5 -8 -0.45 1.02
-9 -5 8 1.18 0.85
9 -5 -8 2.15 0.9
8 5 -7 3.35 0.79
8 5 -7 2.17 0.99
8 -5 -7 3.11 0.67
8 -5 -7 3.96 0.94
-8 -5 7 2.91 1.02
7 5 -6 1.12 0.63
7 5 -6 1.99 0.8
-7 -5 6 1.13 0.81
7 -5 -6 0.69 0.65
7 -5 -6 -0.34 0.73
6 5 -5 16.96 1.06
6 5 -5 17.22 1.39
-6 5 5 18.02 1.93
6 -5 -5 16.76 1.13
-6 -5 5 19.07 1.4
-6 -5 5 17.65 1.16
6 -5 -5 18.03 1.38
-5 5 4 32.25 2.32
5 5 -4 32.26 1.85
5 5 -4 29.04 1.48
5 -5 -4 28.63 1.7
5 -5 -4 29.43 1.56
-5 -5 4 27.64 1.57
-5 -5 4 29.2 1.67
4 5 -3 126.36 5.9
-4 5 3 134.71 7.08
-4 5 3 131.68 5.46
4 5 -3 130.57 4.98
4 -5 -3 126.77 5.01
-4 -5 3 124.26 5.16
4 -5 -3 120.02 5.27
-4 -5 3 124.52 5.02
3 5 -2 208.99 7.58
-3 5 2 197.95 8.41
3 5 -2 211.81 8.95
-3 5 2 203.52 10.92
-3 5 2 206.42 10.56
-3 -5 2 201.58 7.84
3 -5 -2 185.49 10.32
3 -5 -2 199.55 7.59
3 -5 -2 198.1 7.53
-3 -5 2 196.15 7.53
3 -5 -2 194.72 7.93
-2 5 1 119.24 6.34
-2 5 1 116.3 7.02
2 5 -1 118.79 6.96
2 5 -1 119.6 6.99
2 5 -1 120.63 4.59
-2 5 1 110.58 5.05
2 5 -1 122.04 5.37
2 -5 -1 122.01 4.84
2 -5 -1 120.85 6.95
2 -5 -1 116.87 4.55
-2 -5 1 119.49 4.77
-2 -5 1 123.88 7.1
2 -5 -1 116.8 4.58
-2 -5 1 120.62 4.53
-1 5 0 37.41 2.46
1 5 0 47.24 1.89
1 5 0 47.48 2.13
1 5 0 44.52 3.62
-1 5 0 42.72 3.69
-1 5 0 44.2 2.06
-1 5 0 45.15 1.86
1 5 0 43.01 3.53
-1 5 0 42.29 3.54
1 -5 0 43.22 1.84
-1 -5 0 44.32 1.8
1 -5 0 47.81 2.01
-1 -5 0 45.61 1.97
0 5 1 1.01 0.26
0 5 -1 1.06 0.18
0 5 1 -0.32 1.43
0 5 -1 1.52 1.06
0 5 1 3.2 1.6
0 5 -1 1.28 0.23
0 5 -1 0.13 1.42
0 -5 1 1.64 0.33
0 -5 1 1.72 0.23
0 -5 -1 1.36 0.35
1 5 -2 6.05 1.89
-1 5 2 2.12 1.76
1 5 -2 5.22 0.43
1 5 -2 5.17 0.44
1 5 -2 5.99 0.6
1 5 -2 4.85 1.73
-1 5 2 5.15 0.36
-1 5 2 4.92 0.35
1 -5 -2 5.86 0.47
-1 -5 2 5.05 0.48
-1 -5 2 5.11 0.43
-1 -5 2 5.65 1.89
1 -5 -2 5.13 0.37
1 -5 -2 5.52 0.53
1 -5 -2 5.29 1.55
2 5 -3 16.66 0.98
-2 5 3 16.6 2.64
-2 5 3 14.19 0.74
2 5 -3 17.05 2.37
-2 5 3 14.68 0.8
2 5 -3 15.05 0.82
2 -5 -3 15.35 2.74
-2 -5 3 17.83 0.86
-2 -5 3 17.09 0.91
2 -5 -3 15.74 0.81
2 -5 -3 16.34 0.96
-2 -5 3 13.98 2.37
2 -5 -3 15.33 0.87
3 5 -4 20.98 1.27
3 5 -4 20.78 1.06
-3 -5 4 19.2 1.06
-3 -5 4 20.85 1.12
3 -5 -4 20.4 1.21
3 -5 -4 21.53 1.15
4 5 -5 0.51 0.45
4 5 -5 0.42 0.27
-4 -5 5 0.14 0.39
4 -5 -5 1.6 0.52
-4 -5 5 0.65 0.41
4 -5 -5 0.54 0.38
5 5 -6 63.36 2.71
5 5 -6 66.75 3.31
5 -5 -6 60.83 2.97
5 -5 -6 57.23 2.79
-5 -5 6 63.8 2.84
-5 -5 6 62.77 2.81
6 5 -7 9.66 0.8
6 5 -7 11.24 1.09
-6 5 7 9.82 1.65
-6 -5 7 10.93 1.08
-6 -5 7 10.55 0.93
6 -5 -7 11.09 1.08
6 -5 -7 10.12 1.02
7 5 -8 0 0.42
-7 5 8 -1.95 1.29
7 5 -8 0.31 0.82
7 -5 -8 0.36 0.75
-7 -5 8 0.13 0.57
8 5 -9 22.07 1.95
8 5 -9 24.91 1.53
8 -5 -9 24.62 1.77
-8 -5 9 22.29 1.68
8 -5 -9 20.72 1.65
-8 6 7 1.34 1.49
8 6 -7 0.4 1
8 -6 -7 -0.59 0.7
-8 -6 7 -0.7 0.97
8 -6 -7 1.01 0.84
7 6 -6 0.13 0.58
7 6 -6 1.41 0.66
-7 6 6 -0.03 1.2
7 -6 -6 -0.3 0.82
-7 -6 6 0.79 0.75
7 -6 -6 -1.11 0.72
-6 6 5 33.23 2.9
6 6 -5 37.34 1.86
6 6 -5 36.64 2.21
6 -6 -5 34.85 1.9
-6 -6 5 35.42 2.08
6 -6 -5 39.08 2.16
-6 -6 5 36.61 1.98
5 6 -4 8.49 0.87
5 6 -4 8.45 0.69
-5 6 4 8.59 1.28
-5 -6 4 9.02 0.85
-5 -6 4 6.8 0.76
5 -6 -4 9.96 0.86
5 -6 -4 7.24 0.95
-4 6 3 69.63 4.21
4 6 -3 66.76 3.43
4 6 -3 68.74 2.89
-4 -6 3 70.06 3.05
4 -6 -3 67.24 2.92
4 -6 -3 70.53 3.21
-4 -6 3 67.08 2.94
4 -6 -3 70.91 2.94
3 6 -2 2.2 0.44
3 6 -2 2.23 0.65
-3 6 2 1.5 2.9
3 -6 -2 2.74 0.38
3 -6 -2 2.77 0.6
3 -6 -2 2.56 0.43
-3 -6 2 2.78 0.42
-2 6 1 0.33 0.25
2 6 -1 1.41 0.32
2 6 -1 0.72 0.34
2 -6 -1 1.11 0.35
-2 -6 1 0.9 0.3
-2 -6 1 0.82 0.29
2 -6 -1 1.32 0.35
2 -6 -1 0.48 0.24
-1 6 0 27.6 1.43
1 6 0 24.48 1.54
1 6 0 28.82 1.46
1 6 0 27.48 1.33
-1 6 0 30.2 1.33
-1 -6 0 27.85 1.26
-1 -6 0 27.75 1.42
1 -6 0 29.69 1.47
1 -6 0 27.86 1.29
0 6 -1 0.62 0.26
0 6 1 0.77 0.28
0 6 -1 1.11 0.28
0 6 1 0.56 0.31
0 6 1 0.65 0.21
0 -6 -1 1.36 0.4
0 -6 -1 0.23 0.22
0 -6 1 0.82 0.28
0 -6 1 0.46 0.26
1 6 -2 21 1.37
1 6 -2 22.51 1.1
-1 6 2 22.29 1.11
1 6 -2 19.54 1.18
-1 -6 2 22.18 1.17
1 -6 -2 20.7 1.1
1 -6 -2 22.23 1.22
1 -6 -2 21.68 1.03
-1 -6 2 22.25 1.07
2 6 -3 71.6 3.46
2 6 -3 73.28 2.97
2 6 -3 71.36 3.69
2 -6 -3 71.05 2.91
2 -6 -3 73.63 3.01
-2 -6 3 74.14 2.97
-2 -6 3 71.28 3.08
2 -6 -3 75.32 3.23
3 6 -4 7.15 0.62
3 6 -4 7.39 0.75
3 -6 -4 5.12 0.63
-3 -6 4 7.01 0.66
3 -6 -4 6.28 0.58
3 -6 -4 6.12 0.77
-3 -6 4 6.01 0.58
4 6 -5 27.19 1.37
4 6 -5 25.89 1.62
-4 -6 5 26.73 1.43
4 -6 -5 25.72 1.41
4 -6 -5 23.56 1.55
-4 -6 5 26.06 1.42
-5 6 6 15.85 2.01
5 6 -6 19.22 1.16
5 6 -6 19.98 1.45
5 -6 -6 19.85 1.42
-5 -6 6 20.55 1.34
-5 -6 6 20.28 1.24
5 -6 -6 22.22 1.32
6 6 -7 12.13 1.32
6 6 -7 12.57 1.03
6 -6 -7 14.91 1.3
-6 -6 7 11.67 1.07
-6 -6 7 14.79 1.28
6 -6 -7 12.71 1.14
7 6 -8 14.05 1.54
7 6 -8 11.58 1.12
7 -6 -8 16.17 1.41
-7 -6 8 13.39 1.16
7 -6 -8 13.96 1.27
-7 -6 8 11.35 1.33
8 6 -9 5.23 0.95
8 6 -9 4.04 1.02
-8 6 9 2.17 1.67
8 -6 -9 6.04 0.95
-8 -6 9 5.52 1.13
8 -6 -9 5.83 1.12
7 7 -6 2.74 1.02
-7 7 6 0.13 1.13
7 7 -6 3.64 0.8
-7 -7 6 1.66 0.83
7 -7 -6 0.65 0.8
-6 7 5 1.36 1.22
6 7 -5 1.41 0.74
6 7 -5 1.73 0.66
6 -7 -5 0.89 0.68
6 -7 -5 1.29 0.53
-6 -7 5 1.64 0.54
6 -7 -5 3.27 0.75
5 7 -4 6.39 0.63
5 7 -4 5.28 0.75
-5 7 4 3.86 0.97
5 -7 -4 5.36 0.71
-5 -7 4 5.26 0.76
-5 -7 4 6.14 0.89
5 -7 -4 5.95 0.73
5 -7 -4 5.8 0.94
4 7 -3 1 0.48
4 7 -3 0.81 0.55
-4 -7 3 0.49 0.53
4 -7 -3 0.64 0.64
-4 -7 3 0.76 0.4
4 -7 -3 -0.28 0.48
4 -7 -3 0.8 0.46
3 7 -2 57.17 3.11
3 7 -2 64.29 2.69
3 -7 -2 62.62 2.67
3 -7 -2 62.73 2.94
-3 -7 2 62.94 2.66
-3 -7 2 60.38 2.79
3 -7 -2 64.99 2.69
2 7 -1 2.34 0.53
2 7 -1 1.91 0.44
-2 7 1 1.71 0.42
2 -7 -1 1.05 0.36
2 -7 -1 2.49 0.58
-2 -7 1 2.04 0.4
1 7 0 0.97 0.4
-1 -7 0 1.9 0.41
-1 -7 0 1.44 0.34
1 -7 0 2.61 0.53
1 -7 0 1.62 0.31
0 7 -1 11.23 0.73
0 7 -1 11.71 0.86
0 7 1 11.87 0.78
0 -7 1 10.65 0.84
0 -7 -1 10.91 0.67
0 -7 -1 11.05 0.88
0 -7 1 12.06 0.76
1 7 -2 26.05 1.68
-1 7 2 28.16 1.43
1 7 -2 27.83 1.38
1 -7 -2 30.42 1.37
1 -7 -2 28.9 1.58
-1 -7 2 28.91 1.39
-1 -7 2 29.74 1.53
2 7 -3 15.5 1.29
2 7 -3 15.8 0.91
-2 -7 3 15.21 0.94
-2 -7 3 14.98 1
2 -7 -3 15.6 1.13
2 -7 -3 14.01 0.85
2 -7 -3 15.85 0.98
3 7 -4 4.41 0.93
3 7 -4 4.83 0.52
3 7 -4 5.55 0.69
3 -7 -4 6.65 0.61
3 -7 -4 6.38 0.69
-3 -7 4 5.84 0.64
-3 -7 4 5.46 0.59
3 -7 -4 5.23 0.68
4 7 -5 22.13 1.57
4 7 -5 22.94 1.29
4 -7 -5 21.05 1.5
4 -7 -5 21.65 1.28
4 -7 -5 23.48 1.39
-4 -7 5 23.15 1.34
-4 -7 5 22.4 1.32
5 7 -6 26.51 1.91
5 7 -6 27.54 1.48
-5 -7 6 29.12 1.66
5 -7 -6 26.79 1.54
-5 -7 6 29.71 1.64
5 -7 -6 25.86 1.61
5 -7 -6 29.09 1.84
6 7 -7 5.85 0.95
6 7 -7 7.05 0.83
6 -7 -7 7.36 1.02
-6 -7 7 6.19 1.03
-6 -7 7 6.19 0.88
6 -7 -7 6.09 0.99
7 7 -8 -0.75 0.75
-7 7 8 -0.39 1.27
7 7 -8 -1.16 0.94
-7 -7 8 -1.44 0.82
-7 -7 8 1.26 0.91
7 -7 -8 -0.22 0.93
7 -7 -8 -1.52 0.91
6 8 -5 2.82 0.72
-6 8 5 1.6 1.31
-6 -8 5 2.39 0.84
6 -8 -5 3.85 0.83
6 -8 -5 0.7 0.59
6 -8 -5 1.7 0.74
5 8 -4 8.1 1.19
5 8 -4 9.73 0.91
-5 -8 4 8.89 0.88
5 -8 -4 9.86 1.18
5 -8 -4 8.1 0.86
5 -8 -4 8.98 0.83
-4 -8 3 0.73 0.62
4 -8 -3 2.01 0.6
4 -8 -3 0.34 0.72
4 -8 -3 0.19 0.37
-3 8 2 8.71 0.8
3 8 -2 9.3 0.83
3 -8 -2 10.07 0.84
3 -8 -2 10.45 0.97
-3 -8 2 9.3 0.83
3 -8 -2 9.53 0.76
-2 8 1 72.6 3.1
2 8 -1 75.63 3.1
-2 -8 1 69.55 3.04
-2 -8 1 73.4 3.28
2 -8 -1 74.53 3.38
2 -8 -1 71.79 3.07
-1 8 0 7.32 0.69
1 8 0 7.06 0.71
-1 -8 0 7.07 0.81
-1 -8 0 6.94 0.65
1 -8 0 6.78 0.6
1 -8 0 7.33 0.75
0 8 -1 78.34 3.35
0 8 1 80.81 3.39
0 -8 -1 81.8 3.6
0 -8 1 80.45 3.34
0 -8 1 84.17 3.6
0 -8 -1 80.88 3.3
-1 8 2 -0.58 0.48
1 8 -2 -0.49 0.63
1 8 -2 -0.67 0.46
-1 -8 2 0.55 0.5
-1 -8 2 0.92 0.46
1 -8 -2 -0.41 0.32
1 -8 -2 -1.07 0.62
2 8 -3 0.71 0.47
-2 8 3 0.32 0.42
2 8 -3 0.19 0.5
-2 -8 3 -0.32 0.36
-2 -8 3 0.15 0.3
2 -8 -3 0.88 0.66
2 -8 -3 0.93 0.33
3 8 -4 4.25 1
3 8 -4 2.8 0.53
-3 -8 4 2.32 0.5
3 -8 -4 2.76 0.77
-3 -8 4 2.19 0.57
3 -8 -4 1.71 0.5
4 8 -5 -1.23 1.08
4 8 -5 -0.25 0.51
4 -8 -5 1.37 0.56
4 -8 -5 0.3 0.43
-4 -8 5 0.81 0.62
-4 -8 5 -0.47 0.61
-5 8 6 -1.03 1.2
5 8 -6 0.4 0.57
5 -8 -6 1.52 0.66
5 -8 -6 0.57 0.61
-5 -8 6 1.06 0.5
5 -8 -6 1.68 0.88
-5 -8 6 1.91 0.78
6 8 -7 6.01 1.4
-6 8 7 6.01 1.73
6 8 -7 7.12 0.94
-6 -8 7 7.98 1.03
6 -8 -7 7.76 1.09
6 -8 -7 7.71 0.99
6 -8 -7 9.39 1.28
-6 -8 7 8.23 1.06
5 9 -4 4.55 0.81
5 -9 -4 3.39 0.69
-5 -9 4 5.04 0.94
5 -9 -4 6.06 0.86
5 -9 -4 4.18 1.08
-4 9 3 14.31 1.1
4 9 -3 13.8 1.01
4 -9 -3 14.21 1.28
4 -9 -3 13.32 1.1
-4 -9 3 12.73 1.2
4 -9 -3 13.63 1.04
-3 9 2 20.38 1.29
3 9 -2 21.11 1.27
-3 -9 2 20.87 1.44
3 -9 -2 20.62 1.57
3 -9 -2 21.71 1.34
2 9 -1 23.12 1.33
-2 9 1 20.26 1.3
-2 -9 1 22.32 1.42
2 -9 -1 21.97 1.48
2 -9 -1 21.83 1.31
-1 9 0 -0.07 0.48
1 9 0 -0.66 0.53
1 -9 0 0.76 0.37
-1 -9 0 0.75 0.64
1 -9 0 -0.74 0.63
0 9 1 23.05 1.34
0 9 -1 24.24 1.38
0 -9 -1 25.56 1.59
0 -9 1 23.16 1.34
0 -9 1 23.32 1.47
-1 9 2 22.58 1.31
1 9 -2 21.63 1.31
1 -9 -2 24.3 1.59
-1 -9 2 22.84 1.33
-1 -9 2 21.34 1.44
-2 9 3 5.79 0.74
2 9 -3 6.04 0.71
2 -9 -3 4.66 0.9
-2 -9 3 5.32 0.72
-2 -9 3 6.01 0.83
3 9 -4 0.32 0.39
-3 9 4 0.52 0.5
3 -9 -4 0.77 0.62
3 -9 -4 -0.06 0.68
3 -9 -4 0.35 0.43
-3 -9 4 -1.05 0.63
-3 -9 4 0.56 0.47
4 9 -5 3.71 1.35
4 9 -5 0.37 0.51
-4 -9 5 1.57 0.75
4 -9 -5 1.92 0.75
4 -9 -5 4.4 1.05
-4 -9 5 0.75 0.87
5 9 -6 3.41 1.43
5 9 -6 1.53 0.65
5 -9 -6 1.25 0.79
-5 -9 6 3.49 0.81
5 -9 -6 -0.24 0.69
5 -9 -6 2.23 0.63
3 10 -2 0.46 0.65
-3 10 2 0.34 0.45
-3 -10 2 0.24 0.77
3 -10 -2 2.2 0.96
3 -10 -2 1.83 0.56
2 10 -1 2.12 0.68
-2 10 1 2.74 0.68
2 -10 -1 2.36 0.71
2 -10 -1 1.34 0.61
-2 -10 1 2.02 0.8
1 10 0 7.03 0.88
-1 10 0 8.76 0.8
1 -10 0 10.44 1.17
-1 -10 0 9.39 1.08
1 -10 0 8.58 0.83
0 10 -1 -1.16 0.6
0 10 1 1.57 0.64
0 -10 1 -0.74 0.75
0 -10 -1 -1.83 0.85
0 -10 1 -1.44 0.75
1 10 -2 25.18 1.5
-1 10 2 26.33 1.49
-1 -10 2 25.27 1.68
1 -10 -2 25.79 1.72
2 10 -3 17.33 1.27
-2 10 3 20.08 1.35
2 -10 -3 19.18 1.62
-2 -10 3 18.24 1.44
3 10 -4 40.99 2.09
-3 10 4 37.44 2.06
3 -10 -4 41.3 2.38
-3 -10 4 38.19 2.21
10 0 -8 4.77 0.9
10 0 -8 3.98 1.23
10 0 -8 2.39 0.92
-10 0 8 0.49 1.01
-10 0 8 0.76 0.99
-9 0 7 0.28 0.75
9 0 -7 0.43 0.86
9 0 -7 -0.72 0.75
9 0 -7 -0.92 0.85
-9 0 7 0.16 0.69
8 0 -6 31.23 1.98
8 0 -6 26.97 1.71
-8 0 6 27.49 1.72
8 0 -6 30.74 1.83
-7 0 5 -0.6 0.53
-7 0 5 0.07 0.56
7 0 -5 0.83 0.61
7 0 -5 -0.56 0.56
7 0 -5 0.53 0.47
-6 0 4 128.03 5.22
6 0 -4 125.68 9.11
6 0 -4 134.87 5.25
6 0 -4 134.18 6.02
-6 0 4 117.44 8.2
-6 0 4 133.64 7.1
6 0 -4 133.61 5.49
5 0 -3 0.15 0.28
-5 0 3 1.43 1.8
5 0 -3 0.69 2.14
5 0 -3 -0.12 0.23
-5 0 3 -0.6 0.4
-5 0 3 -0.23 0.25
5 0 -3 -0.28 0.25
-4 0 2 9.25 0.77
4 0 -2 9.43 0.61
-4 0 2 6.07 1.62
-4 0 2 8.81 0.58
4 0 -2 9.84 0.71
4 0 -2 8.14 2.1
4 0 -2 9.16 0.65
-3 0 1 0.33 0.17
3 0 -1 -0.72 1.04
-3 0 1 0 0.16
3 0 -1 0.16 0.22
-3 0 1 -0.14 0.76
-3 0 1 0.07 0.13
3 0 -1 -0.14 0.17
-2 0 4 23.36 1.1
2 0 -4 20.24 1.34
2 0 -4 21.82 2.47
2 0 -4 23.98 1.03
2 0 -4 23.46 1.06
-2 0 4 21.87 2.38
2 0 -4 23.59 1.2
3 0 -5 0.06 0.34
3 0 -5 0 0.14
3 0 -5 -0.7 1.62
-3 0 5 -0.54 0.31
3 0 -5 -0.17 0.26
-3 0 5 -1.42 1.55
4 0 -6 312.45 12.41
4 0 -6 314.52 12.12
-4 0 6 337.75 12.16
4 0 -6 334.74 14.42
-4 0 6 318.54 15.58
4 0 -6 328.76 16.07
5 0 -7 0.9 2.82
-5 0 7 -0.26 0.45
-5 0 7 -0.06 2.79
5 0 -7 -0.35 0.38
5 0 -7 -0.91 0.59
5 0 -7 -0.57 0.41
6 0 -8 259.13 10.39
-6 0 8 265.4 10.19
6 0 -8 262.85 10.19
6 0 -8 272.19 12.1
7 0 -9 0.33 0.58
7 0 -9 0.36 0.45
7 0 -9 -0.86 0.79
-7 0 9 -1.01 0.49
8 0 -10 16.1 1.7
-8 0 10 17.9 1.43
8 0 -10 15.92 1.27
8 0 -10 18.27 1.38
-9 0 11 -1.57 1.18
9 0 -11 -0.92 0.87
9 0 -11 -0.17 0.56
-9 0 11 -1.95 0.9
9 0 -11 -0.97 1.14
-10 1 8 -1.04 0.99
10 1 -8 1.47 1.12
10 1 -8 -1.12 0.8
10 1 -8 0.24 0.7
-10 1 8 1.35 1
10 -1 -8 0.67 0.73
10 -1 -8 1.17 1.02
-10 -1 8 0.53 0.97
-9 1 7 4.3 0.96
9 1 -7 5.48 1.03
9 1 -7 5.25 0.78
-9 1 7 4.71 1.29
9 1 -7 5.96 1.07
9 -1 -7 6.66 0.85
9 -1 -7 5.23 1.08
9 -1 -7 3.27 1.04
-9 -1 7 7.19 1.05
8 1 -6 13.19 1.15
-8 1 6 11.77 1.04
8 1 -6 13.15 1.02
8 1 -6 14.4 1.27
8 -1 -6 13.95 1.31
-8 -1 6 11.09 1.14
8 -1 -6 11.67 1.21
8 -1 -6 13.7 1.13
-7 1 5 1.08 0.66
7 1 -5 1.88 0.65
7 1 -5 1.37 0.57
7 1 -5 2.25 0.56
-7 1 5 0.07 0.54
-7 -1 5 0.55 0.52
7 -1 -5 1.11 0.58
7 -1 -5 1.97 0.68
-7 -1 5 0.99 0.45
7 -1 -5 2.18 0.51
6 1 -4 28.02 4.57
6 1 -4 34.6 1.91
-6 1 4 30.92 4.88
6 1 -4 35.79 1.81
-6 1 4 34.26 2.3
6 1 -4 35.56 1.67
-6 1 4 32.9 1.69
6 1 -4 28.38 1.61
6 -1 -4 36.64 1.87
6 -1 -4 25.26 4.76
-6 -1 4 33.78 1.76
6 -1 -4 36.18 1.76
6 -1 -4 33.3 1.92
-6 -1 4 31.79 3.96
5 1 -3 155.26 5.94
5 1 -3 161.23 8.93
-5 1 3 142.71 8.84
-5 1 3 158.27 8.24
-5 1 3 152.74 5.97
5 1 -3 161.95 7.01
5 -1 -3 154.53 9.59
-5 -1 3 152.19 6.03
5 -1 -3 156.06 6.06
5 -1 -3 152.63 6.93
-5 -1 3 149.06 8.36
-5 -1 3 156.09 8.15
5 -1 -3 159.16 6.33
4 1 -2 93.92 3.7
-4 1 2 98.28 5.17
4 1 -2 88.33 4.08
-4 1 2 94.64 6.12
4 1 -2 97.5 5.87
-4 1 2 98.07 3.75
4 1 -2 96.52 4.37
4 -1 -2 99.57 4.02
4 -1 -2 95.37 4.33
-4 -1 2 94.58 4.56
-4 -1 2 94.31 5.49
-4 -1 2 97.64 5.09
4 -1 -2 98.11 6.55
-4 -1 2 99.55 3.82
4 -1 -2 93.39 3.8
-3 1 1 323.65 13.79
-3 1 1 307.51 15.56
3 1 -1 294.51 11.2
3 1 -1 316.26 13.04
-3 1 1 334.7 11.19
3 1 -1 292.27 12.55
3 1 -1 310.86 13.24
3 -1 -1 294.93 11.28
3 -1 -1 289.8 11.69
3 -1 -1 311.28 13.19
-3 -1 1 311.45 12.83
-3 -1 1 310.42 11.22
3 -1 -1 315.44 13.79
-3 -1 1 270.65 14.21
-3 -1 1 305.84 15.49
-2 1 4 21.25 1.02
2 1 -4 23.23 1.31
2 1 -4 24.82 2.16
2 1 -4 21.5 1.27
2 1 -4 21.9 0.97
-2 1 4 21.95 2.66
-2 -1 4 21.33 2.08
2 -1 -4 22.88 1.07
2 -1 -4 24.26 1.32
2 -1 -4 21.93 1.03
-2 -1 4 23.07 1.03
2 -1 -4 21.28 1.29
-2 -1 4 21.95 0.97
2 -1 -4 21.14 2.52
3 1 -5 616.7 26.66
-3 1 5 658.02 22.44
3 1 -5 659.02 25.63
3 1 -5 612.17 22.49
-3 1 5 578.27 26.22
-3 -1 5 649.91 25.49
3 -1 -5 632.21 28.65
3 -1 -5 600.25 26.73
3 -1 -5 594.67 26.35
3 -1 -5 582.01 22.59
3 -1 -5 583.71 23.17
-4 1 6 18.22 3.05
4 1 -6 18.08 0.98
-4 1 6 18.23 1.08
4 1 -6 14.65 2.94
4 1 -6 18.16 1.23
4 -1 -6 16.71 1.03
4 -1 -6 18.6 1.09
-4 -1 6 19.1 1.1
4 -1 -6 19.54 3.52
4 -1 -6 19.6 1.32
-4 -1 6 18.61 2.88
-5 1 7 171.82 6.71
5 1 -7 164.65 6.64
5 1 -7 169.41 6.79
5 1 -7 175.17 7.94
5 1 -7 173.48 10.6
5 -1 -7 172.04 6.75
-5 -1 7 170.63 6.75
5 -1 -7 178.66 8.05
5 -1 -7 164.87 6.85
5 -1 -7 175.07 11.17
-6 1 8 2.13 0.49
6 1 -8 1.88 0.56
6 1 -8 2.35 0.59
6 -1 -8 1.47 0.72
-6 -1 8 0.67 0.6
6 -1 -8 0.94 0.53
6 -1 -8 2.8 0.59
7 1 -9 2.84 0.55
7 1 -9 4.46 0.63
7 1 -9 2.11 0.89
-7 1 9 2.97 0.72
7 -1 -9 3.51 0.72
7 -1 -9 3.05 0.89
-7 -1 9 3.35 0.65
7 -1 -9 3.82 0.72
-8 1 10 2.92 0.81
8 1 -10 3.7 0.66
8 1 -10 4.06 0.87
8 1 -10 5.7 1.18
8 -1 -10 4.67 0.89
8 -1 -10 3.99 0.8
-8 -1 10 3.68 0.76
8 -1 -10 2.5 1.03
9 1 -11 2.94 1.12
9 1 -11 2.81 0.95
-9 1 11 2.71 0.76
9 1 -11 3.19 0.84
9 -1 -11 1.69 0.89
9 -1 -11 1.61 0.91
-9 -1 11 3.6 0.8
9 -1 -11 3.72 0.92
10 2 -8 0.11 1.09
-10 2 8 1.26 0.76
10 2 -8 -0.02 0.61
10 2 -8 -2.09 1.04
-10 2 8 0.31 1.38
10 -2 -8 -0.83 1.01
-10 -2 8 1.49 1.04
-9 2 7 5.45 0.94
9 2 -7 5.02 1.08
9 2 -7 4 1.03
9 2 -7 4.27 0.82
9 -2 -7 4.29 0.96
9 -2 -7 7.15 0.99
-9 -2 7 6.45 1.11
8 2 -6 4.46 0.73
-8 2 6 3.3 0.9
8 2 -6 6.03 0.89
8 2 -6 5 0.79
-8 2 6 3.35 0.79
-8 -2 6 4.8 0.74
8 -2 -6 5.37 0.71
8 -2 -6 3.73 0.84
8 -2 -6 2.96 0.7
-7 2 5 1.29 0.59
7 2 -5 1.2 0.57
-7 2 5 0.6 0.56
7 2 -5 1.23 0.4
7 2 -5 0.31 0.5
7 -2 -5 0.3 0.55
-7 -2 5 1.42 0.58
-7 -2 5 1 0.48
7 -2 -5 0.75 0.62
7 -2 -5 0.99 0.51
6 2 -4 118.71 4.71
-6 2 4 119.29 4.78
-6 2 4 123.68 6.68
6 2 -4 124.85 5.6
6 -2 -4 122.58 5.13
6 -2 -4 119.57 4.85
-6 -2 4 117.02 4.89
6 -2 -4 114.68 5.52
6 -2 -4 105.56 8.5
5 2 -3 12.68 0.75
5 2 -3 12.08 0.92
5 2 -3 10.78 2.64
-5 2 3 12.92 0.82
-5 2 3 11.85 1.06
-5 2 3 12.76 3.46
5 -2 -3 11.58 0.9
5 -2 -3 10.98 0.82
5 -2 -3 12.32 0.83
-5 -2 3 11.96 0.91
-5 -2 3 12.41 0.91
-5 -2 3 14.78 2.37
5 -2 -3 10.29 2.96
4 2 -2 60.4 2.87
4 2 -2 58.45 4.29
-4 2 2 60.34 2.46
-4 2 2 54.6 5.03
4 2 -2 58.91 2.4
4 2 -2 62.28 2.7
-4 2 2 64.34 3.44
4 -2 -2 63.83 4.9
4 -2 -2 60.2 2.69
4 -2 -2 57.82 2.48
4 -2 -2 59.87 2.79
-4 -2 2 59.74 3.26
-4 -2 2 60.59 2.59
-4 -2 2 54.23 2.53
-4 -2 2 60.82 2.95
-4 -2 2 63.39 4.19
-3 2 1 103.66 4.35
3 2 -1 100.94 4.54
-3 2 1 106.23 6.31
3 2 -1 107.89 5.59
3 2 -1 100.97 3.83
-3 2 1 105.41 5.38
3 2 -1 104.49 4.34
-3 -2 1 90.37 3.9
3 -2 -1 102.26 4.12
3 -2 -1 96.48 5.59
-3 -2 1 100.75 4
-3 -2 1 102.73 4.91
3 -2 -1 100.05 3.87
-3 -2 1 96.97 5.22
-3 -2 1 105.45 5.4
3 -2 -1 93.62 4.43
2 2 0 7.67 0.48
2 2 0 6.66 0.39
2 2 0 10.06 1.3
-2 2 0 6.84 0.46
-2 2 0 8.17 1.2
-2 2 0 7.19 0.59
-2 -2 0 7.26 0.62
-2 -2 0 6.84 1.1
2 -2 0 6.55 1.01
-2 -2 0 6.65 0.42
2 -2 0 6.98 0.47
2 -2 0 7.41 0.38
2 -2 0 7.46 0.38
-2 -2 0 7.11 0.43
1 2 1 1.46 0.64
-1 2 -1 1.36 0.19
1 2 1 0.75 0.16
-1 2 -1 0.87 0.48
1 2 1 1.01 0.12
1 2 1 0.57 0.54
-1 2 -1 0.9 0.18
-1 -2 -1 0.95 0.12
1 -2 1 0.89 0.07
-1 -2 -1 0.86 0.15
1 -2 1 1.06 0.16
-1 -2 -1 0.85 0.09
1 -2 1 0.93 0.11
-1 -2 -1 0.87 0.35
1 -2 1 0.99 0.43
-1 -2 -1 1.02 0.52
1 2 -3 159.62 7.04
1 2 -3 158.48 5.8
1 2 -3 153.62 6.78
1 2 -3 166.36 7.1
-1 2 3 155.31 7.46
-1 2 3 160.9 5.75
1 2 -3 148.44 6.98
-1 -2 3 158.43 5.79
1 -2 -3 151.3 7.39
-1 -2 3 153.42 5.96
1 -2 -3 154.92 6
-1 -2 3 165.43 7.11
1 -2 -3 157.03 5.86
2 2 -4 736.23 26.09
2 2 -4 719.67 31.81
-2 2 4 702.74 29.11
2 2 -4 803.3 28.59
-2 2 4 772.05 25.93
2 2 -4 742.83 30.9
2 -2 -4 644.1 26.15
2 -2 -4 606.53 26.86
-2 -2 4 706.57 25.92
-2 -2 4 735.59 26.81
2 -2 -4 680.04 29.11
-2 -2 4 753.19 28.39
-3 2 5 183.79 6.66
3 2 -5 188.1 7.96
3 2 -5 175.03 6.62
-3 2 5 175.32 9.97
3 2 -5 164.59 8.14
3 2 -5 180.21 8.94
-3 -2 5 176.83 6.67
-3 -2 5 176.73 8.85
-3 -2 5 173.07 6.79
3 -2 -5 167.82 6.88
3 -2 -5 187.82 8.02
3 -2 -5 174.34 9.83
3 -2 -5 172.37 6.75
4 2 -6 15.06 2.79
-4 2 6 17.14 0.98
-4 2 6 16.62 3.12
4 2 -6 15.06 0.86
4 2 -6 16.62 1.13
-4 -2 6 17.31 1.05
4 -2 -6 15.55 0.99
-4 -2 6 16.59 2.71
4 -2 -6 15.48 1
4 -2 -6 20.1 3.57
4 -2 -6 18.21 1.27
-4 -2 6 15.17 0.87
-5 2 7 7.51 0.72
5 2 -7 7.63 0.61
5 2 -7 6.96 0.87
5 -2 -7 6.96 0.66
5 -2 -7 7.61 0.89
-5 -2 7 9.07 0.86
5 -2 -7 7.37 0.75
6 2 -8 41.09 2.47
-6 2 8 38.77 2.04
6 2 -8 41.32 2.02
-6 -2 8 39.64 2.16
6 -2 -8 43.9 2.15
6 -2 -8 40.86 2.11
6 -2 -8 41.42 2.55
7 2 -9 12.59 1.04
-7 2 9 12.93 1.15
7 2 -9 12.85 1.08
7 2 -9 11.12 1.33
7 -2 -9 11.61 1.08
7 -2 -9 14.02 1.16
7 -2 -9 11.35 1.34
-7 -2 9 14.16 1.23
8 2 -10 -0.4 0.7
-8 2 10 -0.56 0.82
8 2 -10 0.66 0.71
-8 2 10 0.89 0.75
8 2 -10 2 1
8 -2 -10 -0.46 0.98
-8 -2 10 0.77 0.82
8 -2 -10 -0.11 0.49
8 -2 -10 1.54 0.67
9 2 -11 7.54 1.48
9 2 -11 8.12 0.99
9 2 -11 8.7 1.17
-9 2 11 7.05 1.15
9 -2 -11 8.5 1.5
9 -2 -11 10.6 1.24
-9 -2 11 8.96 1.1
9 3 -7 12.17 1.16
9 3 -7 11.81 1.07
-9 3 7 9.06 1.15
9 3 -7 11.86 1.41
-9 -3 7 11.47 1.33
9 -3 -7 12.69 1.23
9 -3 -7 13.07 1.27
8 3 -6 7.36 0.85
-8 3 6 6.09 1.42
8 3 -6 5.75 0.99
-8 3 6 6.05 0.89
8 -3 -6 8.17 1.08
8 -3 -6 5.28 0.74
-8 -3 6 4.56 0.96
7 3 -5 32.92 1.99
-7 3 5 28.69 1.69
-7 3 5 28.67 2.43
7 3 -5 31.23 1.64
7 -3 -5 34.51 1.77
-7 -3 5 28.3 1.81
7 -3 -5 32.42 1.94
6 3 -4 34.34 1.92
6 3 -4 32.27 1.56
-6 3 4 30.26 1.6
-6 3 4 35.4 2.35
6 -3 -4 29.5 1.61
6 -3 -4 31.07 1.82
-6 -3 4 26.92 1.7
-5 3 3 5.27 3.43
5 3 -3 8.65 0.62
5 3 -3 8.17 0.73
5 3 -3 9.57 2.65
-5 3 3 8.98 1.02
5 -3 -3 9.19 0.81
5 -3 -3 8.74 0.69
-5 -3 3 6.98 0.67
5 -3 -3 7.07 2.87
5 -3 -3 7.55 0.81
-5 -3 3 8.76 0.68
-5 -3 3 8.16 0.79
-4 3 2 65.28 5.47
4 3 -2 64.53 2.61
-4 3 2 71 3.78
4 3 -2 66.01 3.13
-4 3 2 69.88 2.95
4 3 -2 73.4 4.8
-4 -3 2 64.39 4.45
-4 -3 2 61.19 2.74
4 -3 -2 64.09 4.77
-4 -3 2 56.98 3.45
-4 -3 2 63.11 3.31
4 -3 -2 65.72 2.89
-4 -3 2 62.36 2.76
4 -3 -2 66.48 2.68
-3 3 1 2.15 0.38
3 3 -1 1.78 0.28
-3 3 1 1.92 1.59
3 3 -1 4.93 1.57
3 -3 -1 1.41 0.2
-3 -3 1 3.92 1.35
-3 -3 1 1.75 0.31
-3 -3 1 1.59 0.3
3 -3 -1 2.15 0.26
3 -3 -1 2.56 0.37
3 -3 -1 2.42 1.35
-3 -3 1 1.46 0.23
-3 -3 1 1.73 0.39
2 3 0 27.77 2.42
-2 3 0 29.9 2.52
-2 3 0 26.27 1.3
2 3 0 27.93 1.16
-2 3 0 27.92 1.64
2 3 0 27.08 1.37
-2 -3 0 27.57 1.14
2 -3 0 26.9 1.15
2 -3 0 26.62 1.17
2 -3 0 26.75 1.28
-2 -3 0 26.33 1.22
2 -3 0 29.2 2.33
-2 -3 0 24.54 1.75
-2 -3 0 27.81 2.33
1 3 1 171.59 7.81
-1 3 -1 168.87 7.5
-1 3 -1 170.62 6.18
1 3 1 169.88 7.29
-1 3 -1 172.1 7.6
1 3 1 168.23 7.79
-1 3 -1 162.17 7.02
-1 3 -1 157.77 8.53
1 3 1 166.28 6.2
-1 -3 -1 166.39 7.45
1 -3 1 164.71 6.17
1 -3 1 161.41 6.16
1 -3 1 175.8 7.59
-1 -3 -1 166.52 6.09
-1 -3 -1 163.93 6.4
1 -3 1 169.27 6.43
0 3 2 257.03 11.05
0 3 -2 261.54 10.73
0 3 -2 262.45 10.87
0 3 -2 269.15 10.95
0 3 -2 259.43 9.39
0 3 2 255.71 11.13
0 -3 -2 235.78 11.01
0 -3 2 249.28 9.34
0 -3 -2 275.56 11.57
0 -3 2 273.06 11.01
0 -3 -2 255.32 9.7
0 -3 2 250.88 9.68
0 -3 -2 238.28 9.4
0 -3 -2 239.93 9.26
1 3 -3 54.6 2.85
1 3 -3 61.37 3.7
1 3 -3 65.17 2.79
1 3 -3 58.51 2.89
-1 3 3 63.6 4.07
1 3 -3 63.11 2.37
-1 -3 3 59.74 3.69
-1 -3 3 60.83 2.38
1 -3 -3 62.73 2.42
1 -3 -3 57.57 3.91
1 -3 -3 62.7 2.5
-1 -3 3 59.79 2.44
2 3 -4 79.85 4.71
-2 3 4 79.56 2.94
-2 3 4 66.66 4.93
2 3 -4 77.23 3.49
2 3 -4 76.28 3.59
2 3 -4 76.9 2.96
2 -3 -4 77.62 3.14
2 -3 -4 76.52 3.04
-2 -3 4 75.33 2.98
2 -3 -4 74.07 5.1
-2 -3 4 79.24 3.05
2 -3 -4 74.14 3.51
-2 -3 4 72.72 4.54
3 3 -5 233.19 8.56
3 3 -5 241.51 11.14
-3 3 5 228.89 8.53
3 3 -5 235.1 10.21
3 3 -5 235.55 10.36
-3 3 5 239.35 12.09
-3 -3 5 229.73 8.56
3 -3 -5 224.51 8.69
3 -3 -5 214.4 8.89
-3 -3 5 229.75 8.79
3 -3 -5 219.78 10.16
-3 -3 5 230.05 10.93
3 -3 -5 226.18 11.88
-4 3 6 23.84 1.25
4 3 -6 26.16 1.52
-4 3 6 30.71 4.5
4 3 -6 25.4 3.28
4 3 -6 20.43 1.4
4 3 -6 23.89 1.18
-4 -3 6 24.89 1.32
4 -3 -6 29.68 3.9
4 -3 -6 24.84 1.32
-4 -3 6 17.07 2.96
4 -3 -6 25.59 1.33
-4 -3 6 24.15 1.22
4 -3 -6 24.31 1.51
5 3 -7 150.48 6.87
5 3 -7 146.96 5.71
-5 3 7 146.4 5.76
-5 -3 7 148.29 5.87
-5 -3 7 145.31 5.86
5 -3 -7 147.2 6.87
5 -3 -7 142.33 5.86
5 -3 -7 142.99 5.97
6 3 -8 84.18 4.29
-6 3 8 81.3 3.57
6 3 -8 81.61 3.5
6 -3 -8 83.65 3.67
-6 -3 8 84.03 3.7
6 -3 -8 83.02 4.26
6 -3 -8 82.21 3.69
7 3 -9 1.72 0.85
7 3 -9 1.81 0.64
-7 3 9 2.28 0.61
7 -3 -9 0.55 0.64
7 -3 -9 -0.94 0.81
-7 -3 9 0.94 0.59
7 -3 -9 0.69 0.62
-8 3 10 24.02 1.72
8 3 -10 24.98 1.6
8 3 -10 25.2 2.13
8 3 -10 25.36 1.68
-8 -3 10 28.48 1.9
8 -3 -10 26.21 1.73
8 -3 -10 26.82 1.77
9 3 -11 -0.05 0.8
-9 3 11 1.53 0.93
-9 3 11 -0.48 1.09
9 3 -11 2.26 0.96
9 3 -11 2 0.9
-9 -3 11 1.13 0.75
9 -3 -11 0.37 0.84
9 -3 -11 0.99 0.76
9 4 -7 3.97 0.89
9 4 -7 3.12 1.1
9 -4 -7 2.22 1.04
-9 -4 7 2.93 0.92
9 -4 -7 2.25 0.68
8 4 -6 1.64 0.83
8 4 -6 3.9 0.62
-8 4 6 3.3 1.4
8 -4 -6 3 0.63
-8 -4 6 3.16 0.97
8 -4 -6 3.71 0.98
7 4 -5 4.88 0.67
7 4 -5 5 0.74
-7 4 5 3.45 1.18
-7 -4 5 3.53 0.8
7 -4 -5 4.36 0.87
6 4 -4 28.06 1.46
6 4 -4 29.68 1.82
-6 4 4 32.8 2.29
6 -4 -4 28.09 1.54
6 -4 -4 27.33 1.73
-6 -4 4 26.42 1.68
-6 -4 4 25.79 1.59
5 4 -3 54.75 2.81
5 4 -3 55.6 2.34
-5 4 3 57.58 3.44
5 -4 -3 53.61 2.63
5 -4 -3 53.76 5.3
-5 -4 3 51.72 2.46
5 -4 -3 51.53 2.37
-5 -4 3 54.13 2.53
4 4 -2 9.21 2.15
-4 4 2 11.01 2.5
4 4 -2 9.42 0.79
-4 4 2 10.74 1.03
-4 4 2 8.99 0.64
4 4 -2 9.4 0.61
-4 -4 2 9.34 0.7
-4 -4 2 8.19 0.89
-4 -4 2 9 0.71
4 -4 -2 8.9 0.64
4 -4 -2 10.73 2.48
4 -4 -2 9.55 0.8
3 4 -1 472.12 20.15
-3 4 1 466.64 19.53
3 4 -1 493.88 17.35
-3 4 1 481.09 20.5
-3 4 1 522.58 24.09
3 4 -1 488.22 20.48
-3 -4 1 415.82 22.41
3 -4 -1 452.33 19.94
3 -4 -1 464.43 17.99
-3 -4 1 479.01 20.08
-3 -4 1 477.96 17.91
3 -4 -1 464.75 17.34
-3 -4 1 464.32 17.25
-2 4 0 157.03 7.98
2 4 0 165.57 8.19
-2 4 0 147.42 6.71
2 4 0 161.91 7.05
2 4 0 165.42 6
-2 4 0 168.76 8.3
2 -4 0 152.49 5.96
2 -4 0 158.59 6.26
2 -4 0 153.81 5.96
2 -4 0 158.64 7.86
-2 -4 0 157.33 6.2
-2 -4 0 155.76 5.9
-2 -4 0 171.44 8.18
-1 4 -1 468.74 19.63
-1 4 -1 451.12 24.26
1 4 1 510.55 20.73
-1 4 -1 479.24 17.58
1 4 1 507.3 20.07
1 4 1 476.59 19.94
-1 4 -1 493.11 19.83
-1 4 -1 467.22 19.89
1 4 1 483.13 17.61
-1 -4 -1 482.65 17.4
1 -4 1 464.46 17.47
-1 -4 -1 487.71 18.15
1 -4 1 485.47 18.16
0 4 2 20.3 0.96
0 4 2 19.18 2.1
0 4 -2 20.25 2.07
0 4 2 19.96 2.17
0 4 -2 18.22 2.06
0 4 -2 21.1 0.92
0 4 2 21.27 1.05
0 4 -2 21.47 1.17
0 -4 -2 20.27 0.86
0 -4 -2 21.55 1.01
0 -4 2 19.59 0.99
0 -4 -2 20.98 2.19
0 -4 2 19.05 0.93
0 -4 -2 20.44 0.95
1 4 -3 10.96 0.76
-1 4 3 10.41 2.04
1 4 -3 12.34 0.9
1 4 -3 11.71 1.66
-1 4 3 11.59 0.68
1 4 -3 11.8 0.63
-1 -4 3 11.98 0.68
1 -4 -3 13.04 0.61
1 -4 -3 13.15 0.75
1 -4 -3 12.19 0.69
-1 -4 3 14.33 1.82
-1 -4 3 12.8 0.67
1 -4 -3 12.25 2.08
2 4 -4 42.74 3.42
2 4 -4 43.66 2.21
2 4 -4 42.64 1.81
-2 4 4 43.03 4.01
2 -4 -4 45.71 1.99
-2 -4 4 42.8 1.84
-2 -4 4 44.84 1.89
2 -4 -4 44.62 3.97
2 -4 -4 41.92 1.88
-2 -4 4 42.48 3.52
3 4 -5 7.04 0.7
-3 4 5 7.74 2.21
3 4 -5 6.35 0.43
3 4 -5 6.13 1.74
3 4 -5 6.68 0.52
3 -4 -5 8.13 0.62
3 -4 -5 7.26 2.5
-3 -4 5 4.88 1.64
-3 -4 5 6.68 0.54
3 -4 -5 7.32 0.63
-3 -4 5 7.58 0.55
4 4 -6 2.34 0.58
4 4 -6 2.47 0.41
-4 4 6 3.34 0.44
4 -4 -6 3.01 0.51
4 -4 -6 3.26 0.55
-4 -4 6 2.76 0.43
4 -4 -6 2.28 0.52
-4 -4 6 3.33 0.4
5 4 -7 37.92 2.13
-5 4 7 36.35 1.77
5 4 -7 35.89 1.71
5 -4 -7 33.52 2.02
5 -4 -7 36.62 1.88
5 -4 -7 32.89 1.86
-5 -4 7 35.42 1.83
-5 -4 7 33.98 1.73
6 4 -8 29.74 1.59
-6 4 8 28.9 1.64
6 4 -8 28.43 1.95
-6 -4 8 29.96 1.6
-6 -4 8 31.51 1.83
6 -4 -8 31.15 1.77
6 -4 -8 28.26 1.73
7 4 -9 1.77 0.66
-7 4 9 0.79 0.63
7 4 -9 0.43 0.61
-7 -4 9 2.45 0.71
7 -4 -9 1.08 0.54
7 -4 -9 1.3 0.71
-8 4 10 -0.08 1.34
-8 4 10 -0.86 0.71
8 4 -10 0.95 0.7
8 4 -10 1.15 1.09
8 -4 -10 -1.27 0.61
-8 -4 10 0.18 0.87
8 -4 -10 1.47 0.81
9 4 -11 5.66 1.45
9 4 -11 5.46 1.03
-9 4 11 4.91 1.1
9 4 -11 5.41 0.89
9 -4 -11 4.91 0.88
-9 -4 11 7.24 1.31
9 -4 -11 6.92 0.98
9 5 -7 3.62 1.16
-9 5 7 1.49 1.76
9 5 -7 4.16 0.91
9 -5 -7 3.11 1.15
9 -5 -7 1.72 0.85
8 5 -6 0.64 0.62
-8 5 6 0.29 1.4
8 5 -6 0.38 0.88
8 -5 -6 -0.36 0.67
-8 -5 6 -0.64 0.82
8 -5 -6 0.57 0.93
-7 5 5 12.15 1.58
7 5 -5 11.64 1.24
7 5 -5 13.4 1.04
7 -5 -5 12.85 1.08
-7 -5 5 13.95 1.34
7 -5 -5 14.68 1.31
6 5 -4 0.56 0.43
6 5 -4 1.01 0.51
-6 5 4 -0.54 0.9
6 -5 -4 1.36 0.45
6 -5 -4 0.25 0.61
-6 -5 4 1.62 0.65
-6 -5 4 1.03 0.45
-5 5 3 93.22 5.07
5 5 -3 80.92 4.17
5 5 -3 85.43 3.48
-5 -5 3 86.29 3.68
5 -5 -3 83.74 3.83
-5 -5 3 83.34 3.67
5 -5 -3 82.14 3.5
4 5 -2 2.94 0.47
4 5 -2 3.15 0.38
-4 5 2 2.42 0.38
-4 5 2 2.63 0.87
-4 -5 2 2.84 0.52
-4 -5 2 2.71 0.78
4 -5 -2 6.27 2.45
4 -5 -2 3.36 0.51
4 -5 -2 2.78 0.47
-3 5 1 98.57 4.94
3 5 -1 92.78 4.15
3 5 -1 89.86 6.09
-3 5 1 87.04 3.87
-3 5 1 84.33 5.99
3 5 -1 90.05 3.51
3 -5 -1 83.81 5.86
3 -5 -1 82.2 3.49
-3 -5 1 84.91 3.47
3 -5 -1 89.68 3.5
-3 -5 1 85.82 3.65
3 -5 -1 87.14 3.74
2 5 0 81.4 5.6
-2 5 0 76.16 3.59
2 5 0 84.36 3.81
2 5 0 83.08 3.25
-2 5 0 84.76 5.48
-2 5 0 84.63 4.48
2 5 0 82.5 5.46
-2 -5 0 80.52 3.18
-2 -5 0 84.01 3.4
2 -5 0 80.95 3.24
2 -5 0 84.02 3.24
2 -5 0 80.24 3.43
2 -5 0 82.61 5.39
1 5 1 7.19 0.53
1 5 1 6.09 0.49
-1 5 -1 7.1 1.76
-1 5 -1 7.61 0.49
-1 5 -1 6.47 0.6
1 5 1 6.77 1.72
-1 5 -1 6.95 0.56
1 5 1 7.36 1.91
-1 5 -1 7.65 1.93
-1 -5 -1 6.43 0.55
-1 -5 -1 6.99 0.42
1 -5 1 6.96 0.5
1 -5 1 6.55 0.53
0 5 2 362.66 16.02
0 5 -2 368.86 14.99
0 5 -2 389.74 15.9
0 5 -2 340.58 15.51
0 5 2 329.36 15.66
0 5 -2 357.45 13.16
0 5 2 371.06 15.44
0 5 2 347.76 13.19
0 -5 2 359.98 13.6
0 -5 -2 360.54 13.01
0 -5 2 336.96 13.07
0 -5 -2 363.7 13.64
-1 5 3 47.86 3.99
1 5 -3 45.14 2.35
1 5 -3 42.97 3.53
1 5 -3 44.15 1.86
-1 5 3 45.37 2.09
1 5 -3 38.66 2.19
1 5 -3 42.95 3.72
-1 -5 3 46.9 1.98
1 -5 -3 46.61 1.93
1 -5 -3 44.65 4.03
-1 -5 3 44.74 1.88
1 -5 -3 46.45 2.05
-1 -5 3 44.95 3.86
1 -5 -3 44.69 1.81
2 5 -4 29.07 1.65
-2 5 4 29.66 1.48
2 5 -4 29.28 3.22
2 5 -4 31.27 1.94
2 5 -4 28.33 1.33
2 -5 -4 29.99 1.33
2 -5 -4 30.97 1.55
2 -5 -4 29.85 1.42
-2 -5 4 30.28 1.38
-2 -5 4 30.54 1.43
2 -5 -4 28.44 3.6
-2 -5 4 25.77 3.28
3 5 -5 0.95 0.34
3 5 -5 0.45 0.86
3 -5 -5 -0.43 0.43
3 -5 -5 0.35 0.39
-3 -5 5 -0.18 0.35
-3 -5 5 0.1 0.31
4 5 -6 0.88 0.47
4 5 -6 0.37 0.36
-4 -5 6 0.13 0.43
-4 -5 6 0.47 0.39
4 -5 -6 1.31 0.52
4 -5 -6 0.26 0.48
5 5 -7 1.21 0.52
5 5 -7 0.98 0.35
5 -5 -7 1.23 0.57
5 -5 -7 1.29 0.6
-5 -5 7 0.62 0.56
-5 -5 7 1.24 0.38
6 5 -8 9.37 0.86
6 5 -8 9.09 1.1
-6 -5 8 9.12 0.87
-6 -5 8 8.65 0.91
6 -5 -8 7.96 0.87
6 -5 -8 8.7 0.97
-7 5 9 11.24 1
7 5 -9 11.14 1.27
7 5 -9 11.88 1.04
7 -5 -9 13.89 1.15
7 -5 -9 11.92 1.21
-7 -5 9 12.34 1.29
-8 5 10 5.49 0.84
8 5 -10 5.8 0.83
8 5 -10 5.31 1.1
8 -5 -10 7.8 1.13
-8 -5 10 6.4 1.19
8 -5 -10 7.03 0.98
-8 6 6 1.51 1.54
8 6 -6 2.25 0.76
8 -6 -6 1.49 0.87
7 6 -5 0.84 0.46
-7 6 5 0.84 1.26
-7 -6 5 0.99 0.73
7 -6 -5 0.19 0.88
-6 6 4 4.48 0.99
6 6 -4 4.44 0.87
6 6 -4 6.1 0.73
-6 -6 4 4.05 1.08
-6 -6 4 5.3 0.8
6 -6 -4 3.98 0.71
6 -6 -4 5.91 0.94
5 6 -3 -0.38 0.59
5 6 -3 0.65 0.33
-5 6 3 -0.77 0.78
5 -6 -3 0.31 0.47
5 -6 -3 -1.06 0.68
-5 -6 3 0.11 0.38
5 -6 -3 0.5 0.5
-5 -6 3 0.33 0.68
-4 6 2 24.5 1.89
4 6 -2 23.62 1.52
4 6 -2 26.54 1.3
4 -6 -2 26.31 1.33
-4 -6 2 23.64 1.36
-4 -6 2 23.17 1.36
4 -6 -2 26.38 1.36
4 -6 -2 24.64 1.53
3 6 -1 40.5 1.79
3 6 -1 40.45 2.09
-3 6 1 37.1 1.86
-3 6 1 38.94 2.48
3 -6 -1 39.99 1.99
-3 -6 1 37.95 1.74
3 -6 -1 38.41 1.75
3 -6 -1 37.81 1.77
-3 -6 1 37.73 1.85
-2 6 0 82.82 3.82
-2 6 0 84.33 3.45
2 6 0 88.86 4.04
2 6 0 87.52 3.47
-2 -6 0 88.49 3.4
2 -6 0 92.04 3.71
2 -6 0 84.57 3.45
-2 -6 0 86.1 3.63
2 -6 0 85.28 3.45
-1 6 -1 5.21 0.52
-1 6 -1 4.11 0.51
1 6 1 5.09 0.45
1 6 1 4.75 0.47
-1 6 -1 5.54 0.44
-1 6 -1 5.12 2.02
1 -6 1 5.24 0.45
1 -6 1 6.15 0.58
-1 -6 -1 6.34 0.57
0 6 -2 9.77 0.78
0 6 -2 9.61 0.62
0 6 2 9.03 0.6
0 6 2 9.13 0.66
0 -6 -2 9.39 1.62
0 -6 2 8.42 0.58
0 -6 2 8.39 0.65
0 -6 -2 9.33 0.55
-1 6 3 196.09 7.42
1 6 -3 198.99 8.57
1 6 -3 192.29 7.36
-1 6 3 189.46 8.52
1 -6 -3 193.95 7.26
-1 -6 3 194.43 7.33
1 -6 -3 195.16 7.42
-1 -6 3 194.16 7.62
1 -6 -3 201.65 7.74
2 6 -4 9.76 0.87
2 6 -4 12.2 1.16
2 6 -4 11.38 0.7
2 -6 -4 11.89 0.71
2 -6 -4 12.05 0.83
-2 -6 4 10.25 0.76
-2 -6 4 11.13 0.75
2 -6 -4 11.93 0.94
3 6 -5 143.95 5.6
3 6 -5 140.41 6.84
3 6 -5 144.59 6.7
3 -6 -5 141.71 5.94
3 -6 -5 148.35 5.57
-3 -6 5 145.62 5.8
-3 -6 5 143.74 5.62
3 -6 -5 146.26 5.71
4 6 -6 4.08 0.76
4 6 -6 4.02 0.47
-4 -6 6 3.79 0.54
4 -6 -6 5.03 0.71
-4 -6 6 3.62 0.52
4 -6 -6 3.6 0.65
5 6 -7 7.68 0.77
5 6 -7 6.73 0.95
5 -6 -7 9.89 0.91
5 -6 -7 8 0.89
-5 -6 7 7.96 0.8
-5 -6 7 8.43 0.79
6 6 -8 0.53 0.62
6 6 -8 -0.14 0.54
6 -6 -8 0.31 0.72
-6 -6 8 -1.14 0.78
-6 -6 8 0.42 0.49
6 -6 -8 -0.02 0.48
7 6 -9 1.74 0.8
-7 6 9 -0.28 1.31
7 6 -9 1.27 0.71
7 -6 -9 -0.06 0.8
-7 -6 9 1.55 0.75
-7 -6 9 0.83 0.67
7 -6 -9 2.98 0.71
8 6 -10 -2.18 1.26
-8 6 10 0.22 1.57
8 6 -10 0.63 0.82
8 -6 -10 0.72 0.94
8 -6 -10 -0.76 0.93
7 7 -5 3.07 1.01
7 7 -5 3.11 0.6
7 -7 -5 1.6 0.82
7 -7 -5 3.82 0.85
-7 -7 5 1.56 0.8
7 -7 -5 2.76 1.03
-6 7 4 1.56 1.01
6 7 -4 2.03 0.83
6 7 -4 1.78 0.62
6 -7 -4 1.28 0.62
6 -7 -4 2.15 0.52
6 -7 -4 1.07 0.65
-6 -7 4 1.23 0.6
5 7 -3 18.61 1.11
5 7 -3 14.24 1.35
-5 7 3 13.93 1.69
-5 -7 3 19.78 1.26
5 -7 -3 17.91 1.42
5 -7 -3 17.68 1.1
5 -7 -3 18.4 1.22
4 7 -2 3.56 0.7
-4 7 2 3.45 0.75
4 7 -2 2.98 0.56
4 -7 -2 4.61 0.64
4 -7 -2 4.68 0.6
-4 -7 2 2.73 0.63
4 -7 -2 4.97 0.82
3 7 -1 32.79 1.64
-3 7 1 33.2 1.62
3 7 -1 32.95 1.87
3 -7 -1 33.48 1.65
3 -7 -1 34.21 1.86
3 -7 -1 35.42 1.64
-3 -7 1 32.94 1.76
2 7 0 18.99 1.21
-2 7 0 19.07 1.06
2 7 0 19.64 1.1
-2 -7 0 19.46 1.19
2 -7 0 18.55 1.23
2 -7 0 18.88 1.05
-2 -7 0 18.43 1.03
1 7 1 85.19 3.5
1 7 1 81.74 3.99
-1 7 -1 85.48 3.48
-1 7 -1 83.15 3.89
1 -7 1 83.36 3.46
-1 -7 -1 92.3 3.72
1 -7 1 90.17 3.72
-1 -7 -1 87.57 3.4
0 7 -2 123.73 4.85
0 7 -2 121.16 5.52
0 7 2 121.48 4.88
0 -7 -2 124.54 4.74
0 -7 2 125.78 4.84
0 -7 -2 127.14 5.14
0 -7 2 123.98 5.07
-1 7 3 51.95 2.32
1 7 -3 51.14 2.26
1 7 -3 51.45 2.72
1 -7 -3 54.03 2.51
-1 -7 3 53.27 2.27
-1 -7 3 52.68 2.4
1 -7 -3 52.83 2.2
2 7 -4 12.33 1.21
2 7 -4 13.6 0.85
-2 -7 4 12.57 0.88
2 -7 -4 11.48 0.84
-2 -7 4 11.95 0.84
2 -7 -4 12.91 0.79
2 -7 -4 13.72 1.05
3 7 -5 7.37 0.67
3 7 -5 6.23 1.11
-3 -7 5 7.24 0.69
-3 -7 5 6.36 0.68
3 -7 -5 7.64 0.64
3 -7 -5 5.44 0.83
3 -7 -5 5.67 0.63
4 7 -6 5.34 0.89
4 7 -6 1.69 0.99
4 7 -6 5.17 0.55
4 -7 -6 3.73 0.68
-4 -7 6 3.74 0.66
-4 -7 6 3.41 0.63
4 -7 -6 3.96 0.59
4 -7 -6 4.38 0.73
5 7 -7 0.76 0.55
5 7 -7 0.4 0.79
5 -7 -7 0.61 0.67
5 -7 -7 -0.41 0.53
-5 -7 7 0.72 0.43
-5 -7 7 0.78 0.68
-6 7 8 0.77 1.05
6 7 -8 0.55 0.61
6 -7 -8 1.72 0.73
-6 -7 8 3.18 0.87
6 -7 -8 1.54 0.91
-6 -7 8 0.85 0.67
-7 7 9 2.85 1.75
7 7 -9 1.61 0.79
7 7 -9 1.97 1.21
7 -7 -9 2.88 1.02
-7 -7 9 2.86 0.69
-7 -7 9 1.06 0.9
7 -7 -9 3.79 0.79
6 8 -4 3.7 1.02
6 8 -4 4.89 0.66
6 -8 -4 3.97 1.02
6 -8 -4 5.25 0.91
-6 -8 4 3.93 0.92
6 -8 -4 3.04 0.7
5 8 -3 2.7 0.83
5 8 -3 1.04 0.6
5 -8 -3 -0.1 0.79
-5 -8 3 0.01 0.54
5 -8 -3 -0.03 0.43
4 8 -2 2.32 0.75
4 8 -2 3.48 0.59
-4 8 2 4.27 0.6
4 -8 -2 4.23 0.69
4 -8 -2 3.96 0.63
-4 -8 2 2.98 0.69
4 -8 -2 5.04 0.92
-3 8 1 38.23 1.88
3 8 -1 39.92 1.93
-3 -8 1 41.24 2.11
3 -8 -1 40.45 2.15
3 -8 -1 39.63 1.92
2 8 0 2.77 0.46
-2 8 0 1.49 0.43
2 -8 0 1.64 0.4
-2 -8 0 1.61 0.61
2 -8 0 1 0.62
-1 8 -1 61.1 2.66
1 8 1 60.28 2.69
1 -8 1 62.48 2.86
1 -8 1 61 2.67
-1 -8 -1 64.6 2.88
0 8 -2 1.98 0.47
0 -8 -2 2.87 0.67
0 -8 2 1.66 0.55
0 -8 2 0.77 0.46
-1 8 3 3.83 0.59
1 8 -3 3.3 0.59
1 8 -3 2.77 0.5
-1 -8 3 3.59 0.61
-1 -8 3 2.69 0.47
1 -8 -3 2.71 0.56
-2 8 4 12.42 0.95
2 8 -4 11.01 0.85
2 8 -4 10.72 1.24
-2 -8 4 10.71 0.92
2 -8 -4 12.24 0.88
2 -8 -4 12.5 1.03
2 -8 -4 12.05 0.93
-2 -8 4 11.88 0.84
3 8 -5 0.74 0.67
3 -8 -5 0.43 0.53
3 -8 -5 -0.43 0.47
3 -8 -5 0.85 0.69
-3 -8 5 0.44 0.4
-3 -8 5 0.15 0.48
4 8 -6 19.42 1.24
4 8 -6 17.12 1.71
4 -8 -6 19.78 1.19
-4 -8 6 20.3 1.31
4 -8 -6 18.83 1.5
4 -8 -6 20.84 1.4
-4 -8 6 19.08 1.3
5 8 -7 19.51 1.25
5 8 -7 16.77 2.03
5 -8 -7 16.49 1.25
5 -8 -7 16.7 1.48
5 -8 -7 16.39 1.37
-5 -8 7 17.33 1.32
-5 -8 7 18.12 1.31
6 8 -8 9.16 1.8
6 8 -8 10.95 1.05
6 -8 -8 8.84 1
6 -8 -8 10.64 1.35
6 -8 -8 12.9 1.23
-6 -8 8 13.33 1.21
-6 -8 8 8 1.24
-5 9 3 -0.05 0.59
5 9 -3 0.87 0.68
5 -9 -3 0.53 0.7
5 -9 -3 0.17 0.62
-5 -9 3 1.66 0.71
5 -9 -3 0.82 0.68
4 9 -2 23.31 1.42
-4 9 2 20.71 1.34
4 -9 -2 22.33 1.6
4 -9 -2 20.37 1.39
-4 -9 2 23.06 1.58
3 9 -1 -0.06 0.39
-3 9 1 0.68 0.4
-3 -9 1 0.79 0.69
3 -9 -1 1.06 0.82
3 -9 -1 1.81 0.62
-2 9 0 4.05 0.63
2 9 0 4.64 0.68
-2 -9 0 5.87 0.83
2 -9 0 3.49 0.66
2 -9 0 2.51 0.67
-1 9 -1 0.15 0.47
1 9 1 0.9 0.55
1 -9 1 1.39 0.65
-1 -9 -1 0.69 0.47
1 -9 1 1.15 0.53
0 9 2 3.77 0.65
0 9 -2 2.88 0.54
0 -9 2 2.75 0.56
0 -9 2 2.77 0.53
0 -9 -2 2.31 0.72
-1 9 3 8.04 0.84
1 9 -3 8.01 0.71
1 -9 -3 9.73 1.06
-1 -9 3 8.19 0.91
-1 -9 3 8.53 0.76
2 9 -4 0.95 0.46
-2 9 4 -0.28 0.56
-2 -9 4 0.96 0.59
2 -9 -4 0.49 0.55
-2 -9 4 -0.65 0.56
3 9 -5 17.47 1.76
3 9 -5 23.54 1.37
-3 9 5 21.65 1.4
3 -9 -5 22.22 1.44
-3 -9 5 22.38 1.46
3 -9 -5 21.65 1.71
-3 -9 5 23.48 1.44
4 9 -6 5.7 0.81
4 9 -6 4.87 1.29
4 -9 -6 7.07 0.88
-4 -9 6 5.16 0.9
4 -9 -6 8.82 1.23
-4 -9 6 6.22 0.94
-3 10 1 0.79 0.55
3 10 -1 -0.87 0.67
3 -10 -1 0.34 0.66
3 -10 -1 -0.6 0.93
-2 10 0 6.7 0.82
2 10 0 7.74 0.89
2 -10 0 7.31 1.02
-2 -10 0 7.34 0.89
2 -10 0 6.84 0.86
1 10 1 0.14 0.6
-1 10 -1 -0.28 0.54
-1 -10 -1 -0.27 0.54
1 -10 1 -0.39 0.62
1 -10 1 -0.26 0.77
0 10 -2 17.6 1.15
0 10 2 17.83 1.24
0 -10 2 18.33 1.26
0 -10 -2 19.02 1.4
0 -10 2 19.02 1.43
1 10 -3 7.52 0.82
-1 10 3 8.62 0.88
-1 -10 3 8.59 0.86
-1 -10 3 9.04 1.04
1 -10 -3 10.92 1.26
2 10 -4 18.01 1.23
-2 10 4 16.99 1.28
-2 -10 4 16.11 1.27
2 -10 -4 15.81 1.46
-2 -10 4 18.59 1.4
10 0 -7 0.08 0.57
-10 0 7 0.61 0.87
10 0 -7 0.02 1.01
10 0 -7 0.29 0.89
9 0 -6 3.85 0.86
-9 0 6 1.6 0.96
-9 0 6 1.2 0.76
9 0 -6 2.85 0.89
9 0 -6 3.38 0.93
8 0 -5 -0.27 0.51
-8 0 5 -1.34 0.78
-8 0 5 -0.34 0.45
8 0 -5 -0.52 0.52
8 0 -5 -0.34 0.45
7 0 -4 36.07 2.11
7 0 -4 46.39 2.16
-7 0 4 40.47 2.75
7 0 -4 47.47 2.4
-7 0 4 42.23 2.13
7 0 -4 45.07 2.33
6 0 -3 0.42 0.41
6 0 -3 -1.97 2.52
6 0 -3 0.36 0.54
-6 0 3 -3.25 2.24
-6 0 3 0.44 0.31
-6 0 3 -0.1 0.41
6 0 -3 0.38 0.41
5 0 -2 96.09 3.96
5 0 -2 92.62 4.26
5 0 -2 96.27 3.7
5 0 -2 86.06 6.53
-5 0 2 78.97 5.54
-5 0 2 96.09 5.03
-5 0 2 89.41 3.65
4 0 -1 0.21 1.43
-4 0 1 -0.5 0.95
4 0 -1 0.17 0.22
4 0 -1 -0.04 0.28
-4 0 1 0.2 0.23
4 0 -1 0.16 0.17
-4 0 1 -0.09 0.17
3 0 0 818.53 36.57
-3 0 0 854.5 30.81
3 0 0 815.07 32.05
-3 0 0 855.45 39.55
3 0 0 898.59 33.69
-3 0 0 862.21 42.94
3 0 0 822.95 31.03
-3 0 0 907.92 32.98
2 0 1 0.23 0.12
-2 0 -1 -0.09 0.29
2 0 1 0.07 0.16
2 0 1 0.32 0.36
-2 0 -1 0.06 0.13
-2 0 -1 0.28 0.19
2 0 1 -0.03 0.13
2 0 1 0.13 0.07
-2 0 -1 -0.01 0.12
2 0 -5 -0.27 0.36
2 0 -5 -0.03 0.13
2 0 -5 -0.31 0.15
2 0 -5 0.06 0.16
2 0 -5 -0.57 0.33
2 0 -5 -0.05 1.23
-2 0 5 -0.14 0.23
-2 0 5 0.26 1.14
3 0 -6 393.38 14.94
3 0 -6 374.54 14.61
3 0 -6 377.13 17.99
-3 0 6 386.26 17.88
3 0 -6 388.66 18.38
3 0 -6 422.6 17.49
-3 0 6 418.52 14.6
-4 0 7 0.04 0.36
4 0 -7 1.64 2.39
4 0 -7 0.11 0.26
4 0 -7 -0.36 0.49
4 0 -7 -0.08 0.13
4 0 -7 0.23 0.34
-4 0 7 2.37 1.74
5 0 -8 389.42 15.63
-5 0 8 434.41 15.34
5 0 -8 384.25 15.3
5 0 -8 429.01 18.28
6 0 -9 0.12 0.72
-6 0 9 0.25 0.41
6 0 -9 0.12 0.48
7 0 -10 4.47 0.86
7 0 -10 4.14 0.78
-7 0 10 3.47 0.66
7 0 -10 4.9 0.63
-8 0 11 1.4 0.79
8 0 -11 -0.56 0.65
8 0 -11 -1.75 1.03
8 0 -11 -1.7 0.82
-8 0 11 0.99 0.66
9 0 -12 1.5 0.74
9 0 -12 1.72 1.25
9 0 -12 1.16 0.83
-10 1 7 -0.36 0.67
10 1 -7 0.75 1.02
10 1 -7 0.78 0.69
-10 1 7 -0.29 0.84
10 1 -7 0.23 0.67
-10 -1 7 1.07 0.95
10 -1 -7 1.07 1.01
-9 1 6 14.31 1.29
9 1 -6 12.25 1.27
9 1 -6 12.61 1.1
9 1 -6 14.62 1.39
9 -1 -6 13.89 1.42
9 -1 -6 11.06 1.3
-9 -1 6 12.97 1.33
9 -1 -6 11.57 1.15
8 1 -5 8.53 1.03
8 1 -5 6.28 0.76
-8 1 5 6.58 1.18
-8 1 5 6.29 0.87
8 1 -5 7.59 0.93
8 -1 -5 6.3 0.78
8 -1 -5 6.86 1.04
-8 -1 5 5.41 0.9
-8 -1 5 5.29 0.95
8 -1 -5 5.59 0.76
7 1 -4 48.24 2.37
7 1 -4 46.41 2.48
-7 1 4 43.2 2.18
7 1 -4 44.39 2.16
-7 1 4 45.15 2.98
7 -1 -4 45.82 2.44
-7 -1 4 44.84 2.24
7 -1 -4 47.3 2.45
7 -1 -4 47.33 2.25
-7 -1 4 38.08 2.76
6 1 -3 217.48 7.9
-6 1 3 179.07 11.08
6 1 -3 218.14 8.27
6 1 -3 190.1 8.67
6 1 -3 208.16 9.27
6 1 -3 201.69 11.81
-6 1 3 210.27 7.88
-6 1 3 215.93 10.94
6 -1 -3 210.66 7.99
6 -1 -3 219.04 8.37
6 -1 -3 214.15 9.21
-6 -1 3 189.24 10.59
-6 -1 3 202.27 10.78
6 -1 -3 193.85 12.16
-6 -1 3 206.61 7.92
5 1 -2 73.04 5.48
-5 1 2 79.72 4.22
5 1 -2 73.73 3.56
-5 1 2 74.62 5.48
5 1 -2 69.14 3.28
-5 1 2 70.74 3.01
5 1 -2 77.55 3.25
5 1 -2 74.96 2.99
5 -1 -2 72.37 3.08
-5 -1 2 75.2 5.07
-5 -1 2 71.72 4.08
-5 -1 2 81.08 3.66
5 -1 -2 73.96 3.31
-5 -1 2 73.5 3.06
5 -1 -2 69.38 6.01
5 -1 -2 72.2 3.47
4 1 -1 222.27 8.5
4 1 -1 225.07 10.73
4 1 -1 213.81 9.52
-4 1 1 216.4 10.86
-4 1 1 232.23 8.49
4 1 -1 236 10.06
-4 1 1 245.22 11.86
4 -1 -1 231.05 8.98
-4 -1 1 225.85 10.75
-4 -1 1 237.34 8.53
4 -1 -1 229.38 11.43
4 -1 -1 221.92 8.58
4 -1 -1 233.98 10
-4 -1 1 235.11 11.77
-4 -1 1 227.92 10.31
-3 1 0 168.3 9.03
3 1 0 172.04 6.47
3 1 0 174.18 7.68
-3 1 0 169.29 8.24
3 1 0 171.93 7.31
-3 1 0 177.59 7.41
3 1 0 181.22 8.04
3 -1 0 170.72 6.52
3 -1 0 180.15 7.62
-3 -1 0 184.54 7.84
3 -1 0 178.89 8.42
3 -1 0 165.94 6.84
-3 -1 0 174.54 9
-3 -1 0 178.89 8.28
-3 -1 0 178.2 6.47
2 1 1 105.15 4.64
2 1 1 90.93 4.22
2 1 1 98.4 3.69
-2 1 -1 101.66 5.2
2 1 1 98.13 4.41
-2 1 -1 93.67 4.26
-2 1 -1 102.93 4.86
-2 -1 -1 86.15 5.15
2 -1 1 100.21 4.36
2 -1 1 98.36 3.93
-2 -1 -1 103.44 3.9
2 -1 1 103.6 3.68
-2 -1 -1 101.07 3.67
2 -1 1 104.11 4.55
-2 -1 -1 103.73 4.56
-2 -1 -1 103.59 4.84
1 1 -4 1.06 0.31
-1 1 4 2.44 1.15
-1 1 4 1.29 0.21
1 1 -4 1.41 0.24
1 1 -4 1.25 0.17
1 1 -4 1.96 0.25
1 1 -4 1.66 0.69
1 1 -4 1.34 0.35
1 -1 -4 1.21 0.29
-1 -1 4 1.32 0.12
1 -1 -4 1.54 0.17
-1 -1 4 1.36 0.16
-1 -1 4 1.48 0.69
1 -1 -4 1.26 0.26
1 -1 -4 1.9 0.23
1 -1 -4 1.46 0.34
1 -1 -4 0.5 0.94
-1 -1 4 1.64 0.2
1 -1 -4 1.69 0.16
-2 1 5 106.57 4.02
2 1 -5 106.51 5.78
2 1 -5 107.98 4.97
2 1 -5 106.8 4.92
2 1 -5 102.11 3.95
-2 1 5 102.73 6.44
2 1 -5 112.72 4.97
-2 -1 5 104.72 3.97
2 -1 -5 104.56 6.4
2 -1 -5 101.53 4.05
2 -1 -5 90.28 4.79
2 -1 -5 106.28 5.12
2 -1 -5 102.2 4.06
2 -1 -5 98.09 4.49
-2 -1 5 102.06 4
-2 -1 5 107.62 5.75
3 1 -6 40.3 1.73
3 1 -6 40.82 3.72
3 1 -6 39.33 2.25
-3 1 6 35.17 4.15
3 1 -6 38.17 2.25
3 1 -6 45.97 2.04
-3 1 6 39.29 1.81
3 -1 -6 41.19 2.25
3 -1 -6 41.88 4.37
-3 -1 6 33.22 3.41
3 -1 -6 40.35 2.16
-3 -1 6 39.97 1.81
3 -1 -6 39.1 1.77
3 -1 -6 39.79 1.82
-4 1 7 -4.65 2.82
4 1 -7 0.52 0.36
4 1 -7 0.83 1.59
4 1 -7 0.54 0.24
4 -1 -7 0.69 0.29
-4 -1 7 -1.13 1.49
4 -1 -7 1.35 2.38
4 -1 -7 0.36 0.24
4 -1 -7 0.32 0.35
-4 -1 7 -0.38 0.42
4 -1 -7 0.93 0.52
-5 1 8 45.51 2.18
5 1 -8 47.31 2.68
5 1 -8 43.92 2.1
5 1 -8 43.54 2.05
-5 -1 8 45.14 2.18
5 -1 -8 43.49 2.14
5 -1 -8 42.75 2.12
5 -1 -8 46.05 2.68
6 1 -9 166.69 6.81
6 1 -9 174.02 6.92
-6 1 9 172.8 6.85
6 1 -9 175.43 8.23
-6 -1 9 176.52 6.93
6 -1 -9 169.14 6.88
6 -1 -9 168.87 6.97
6 -1 -9 171.81 8.22
7 1 -10 15.89 1.13
7 1 -10 15.44 1.17
7 1 -10 16.23 1.61
-7 1 10 16.31 1.27
-7 -1 10 19.36 1.34
7 -1 -10 17.72 1.26
7 -1 -10 16.77 1.22
7 -1 -10 16.72 1.52
8 1 -11 25.18 2.17
8 1 -11 29.96 1.81
8 1 -11 30.46 1.9
-8 1 11 32.85 1.96
-8 -1 11 32.44 1.98
8 -1 -11 30.53 2.39
8 -1 -11 30.82 1.82
8 -1 -11 30.79 1.89
9 1 -12 7.64 0.99
9 1 -12 6.81 1.06
-9 1 12 5.07 0.97
9 1 -12 5.92 1.2
9 -1 -12 6.53 1.06
9 -1 -12 6.5 0.89
9 -1 -12 6 1.32
-9 -1 12 6.54 1.15
10 2 -7 0.81 1.05
10 2 -7 1.21 1.01
-10 2 7 -0.95 0.92
10 2 -7 1.08 0.66
-10 2 7 -1.45 1.34
-10 -2 7 -0.48 0.82
10 -2 -7 1.34 1.07
9 2 -6 -1.19 0.89
-9 2 6 1.23 0.81
9 2 -6 2.44 0.88
-9 2 6 0.15 1.06
9 2 -6 1.56 0.75
-9 -2 6 -0.58 0.86
9 -2 -6 0.68 0.52
9 -2 -6 0.68 0.82
8 2 -5 2.29 0.69
-8 2 5 1.6 0.98
8 2 -5 -0.19 0.59
8 2 -5 0.34 0.68
-8 2 5 2.4 0.69
8 -2 -5 1.4 0.62
8 -2 -5 1.21 0.76
-8 -2 5 0.79 0.54
-8 -2 5 0.79 0.59
-7 2 4 6.21 1.06
7 2 -4 6.16 0.86
-7 2 4 6.78 0.78
7 2 -4 5.76 0.68
7 2 -4 6.59 0.86
-7 -2 4 5.84 0.74
7 -2 -4 7.1 0.92
-7 -2 4 7.66 0.86
7 -2 -4 7.55 0.79
7 -2 -4 5.92 0.76
-6 2 3 12.52 0.83
-6 2 3 12.18 1.24
-6 2 3 14.27 4.09
6 2 -3 11.56 0.99
6 2 -3 10.81 0.78
6 2 -3 10.34 3.22
6 2 -3 10.29 0.77
-6 -2 3 11.73 0.88
6 -2 -3 11.16 0.85
-6 -2 3 10.8 1
6 -2 -3 12.01 0.88
6 -2 -3 8.31 3.67
6 -2 -3 11.75 1.04
5 2 -2 15.92 0.99
5 2 -2 18.43 1.13
5 2 -2 18.11 0.92
-5 2 2 18.91 1.4
-5 2 2 16.59 0.95
-5 2 2 16.8 3.48
5 2 -2 13.07 2.33
5 -2 -2 15.48 3.1
5 -2 -2 17.17 0.98
5 -2 -2 16.39 1.14
-5 -2 2 16.47 1.04
5 -2 -2 16.83 1
-5 -2 2 16.59 1.2
-5 -2 2 20.61 2.45
4 2 -1 6.82 0.53
-4 2 1 7.05 0.75
4 2 -1 7.02 0.45
-4 2 1 6.17 0.55
-4 2 1 6.93 2.29
4 2 -1 5.54 1.63
4 2 -1 6.68 0.59
4 -2 -1 4.45 1.6
-4 -2 1 6.82 0.55
-4 -2 1 7.02 0.55
4 -2 -1 6.53 0.49
-4 -2 1 6.8 0.54
-4 -2 1 9.15 1.75
4 -2 -1 7.1 0.5
-4 -2 1 6.48 0.59
4 -2 -1 6.53 0.65
3 2 0 318.54 13.24
3 2 0 299.33 13.32
3 2 0 296.28 11.25
-3 2 0 321.14 15.67
-3 2 0 308.22 13.96
3 2 0 305.92 12.72
-3 2 0 317.3 12.8
3 -2 0 307.95 13.21
-3 -2 0 318.6 14.45
3 -2 0 294.82 11.75
-3 -2 0 312.58 13.08
3 -2 0 312.74 11.27
-3 -2 0 302.31 11.68
3 -2 0 303.05 13.05
-3 -2 0 296.56 15.55
-3 -2 0 294.32 11.24
-2 2 -1 85.88 4.37
2 2 1 82.94 3.72
2 2 1 84.29 3.11
-2 2 -1 88.45 4.44
2 2 1 77.82 3.62
-2 2 -1 77.49 3.57
2 2 1 90.37 4.45
-2 -2 -1 80.08 3.09
2 -2 1 85.39 3.14
-2 -2 -1 80.11 4.24
2 -2 1 82.59 3.59
-2 -2 -1 81.67 4.16
2 -2 1 79.92 3.3
-2 -2 -1 80.33 3.25
2 -2 1 82.18 3.08
2 -2 1 79.73 4
-1 2 -2 -0.13 0.3
1 2 2 0.34 0.61
-1 2 -2 0.06 0.18
1 2 2 -0.29 0.56
-1 2 -2 0.01 0.37
-1 2 -2 0.2 0.19
1 2 2 0.33 0.12
1 2 2 0.14 0.12
1 -2 2 0.14 0.1
-1 -2 -2 -0.02 0.11
-1 -2 -2 0.27 0.13
1 -2 2 0.2 0.11
-1 -2 -2 0.38 0.34
0 2 -3 672.62 27.65
0 2 -3 678.8 29.73
0 2 -3 737.66 25.85
0 2 3 670.63 28.78
0 2 3 705.62 26.31
0 2 -3 661.34 24.33
0 -2 -3 605.71 25.05
0 -2 3 658.79 24.2
0 -2 -3 615.89 24.37
0 -2 -3 669.2 31.39
0 -2 -3 660.93 29.8
0 -2 -3 648.64 26.15
0 -2 3 647.66 25.04
0 -2 3 762.12 25.91
-1 2 4 332.17 13.75
-1 2 4 325.21 11.45
1 2 -4 303.01 13.27
1 2 -4 310.1 11.54
1 2 -4 323.56 14.08
1 2 -4 273.62 13.84
1 2 -4 334.9 13.18
1 -2 -4 299.27 11.89
1 -2 -4 310.24 11.61
1 -2 -4 313.63 13.63
-1 -2 4 335.56 13.15
-1 -2 4 316.03 11.51
-1 -2 4 313.36 11.85
1 -2 -4 302.3 14.35
1 -2 -4 344.49 15.09
2 2 -5 332.73 14.49
-2 2 5 339.2 11.83
2 2 -5 347.14 14.1
2 2 -5 325.93 11.87
2 2 -5 337.38 14.32
-2 2 5 329.59 14.9
2 2 -5 307.88 13.72
2 -2 -5 356.37 15.43
2 -2 -5 288.22 13.3
2 -2 -5 315.41 14.81
2 -2 -5 301.33 14.12
-2 -2 5 331.43 12.17
2 -2 -5 295.84 12.23
-2 -2 5 331.72 13.91
2 -2 -5 308.48 11.97
-2 -2 5 324.12 11.83
3 2 -6 4.52 0.38
-3 2 6 3.2 2.33
-3 2 6 4.53 0.46
3 2 -6 6.02 0.72
3 2 -6 4.26 0.54
3 2 -6 5.99 1.56
3 -2 -6 5.66 2.26
3 -2 -6 4.89 0.62
3 -2 -6 4.62 0.51
-3 -2 6 4.48 1.59
3 -2 -6 5.17 0.46
3 -2 -6 5.46 0.61
-3 -2 6 4.77 0.49
-3 -2 6 4.97 0.38
4 2 -7 23.87 1.53
4 2 -7 21.03 2.99
-4 2 7 24.56 4.32
4 2 -7 21.17 1.11
-4 2 7 22.48 1.22
4 2 -7 21.48 1.48
4 -2 -7 20.13 3.42
-4 -2 7 17.98 3.06
4 -2 -7 22.33 1.25
-4 -2 7 22.79 1.24
4 -2 -7 26 1.59
4 -2 -7 20.45 1.18
4 -2 -7 19.93 1.43
5 2 -8 15.13 1.24
-5 2 8 14.62 0.98
5 2 -8 13.63 0.93
5 -2 -8 14.17 0.99
5 -2 -8 14.62 0.96
-5 -2 8 13.73 1.07
5 -2 -8 14.43 1.27
-6 2 9 0.8 0.55
6 2 -9 0.1 0.72
6 2 -9 1.48 0.55
-6 -2 9 1.57 0.66
6 -2 -9 2.05 0.63
6 -2 -9 0.75 0.53
6 -2 -9 1.22 0.57
7 2 -10 6.76 1.01
-7 2 10 7.35 0.95
7 2 -10 8.66 0.94
7 2 -10 7.03 0.79
7 -2 -10 8.46 0.93
7 -2 -10 6.8 0.88
-7 -2 10 6.64 0.97
7 -2 -10 7.72 1.18
8 2 -11 4.8 0.9
8 2 -11 2.21 0.76
-8 2 11 4.8 0.93
8 -2 -11 3.27 0.81
8 -2 -11 3.68 0.85
8 -2 -11 0.85 0.88
-8 -2 11 2.21 0.78
9 2 -12 5.97 1.04
9 2 -12 4.69 1.06
9 2 -12 6.3 1.21
-9 2 12 6.38 0.99
9 -2 -12 4.12 1.33
9 -2 -12 6.74 0.95
-9 -2 12 5.65 1.03
9 3 -6 7.15 1.16
9 3 -6 6.28 0.88
-9 3 6 4.36 1.49
9 3 -6 7.89 0.96
9 -3 -6 6.07 0.99
8 3 -5 3.8 0.6
-8 3 5 2.58 0.91
8 3 -5 3.33 0.86
8 -3 -5 2.42 0.68
8 -3 -5 4.97 1.01
-8 -3 5 3.09 0.85
7 3 -4 -0.02 0.52
7 3 -4 0.18 0.34
-7 3 4 0.55 0.81
7 -3 -4 -0.22 0.66
7 -3 -4 0.22 0.36
-7 -3 4 0.43 0.64
-6 3 3 1.27 0.58
6 3 -3 1.06 1.6
6 3 -3 0.57 0.4
6 -3 -3 -2.08 2.96
6 -3 -3 0.79 0.34
6 -3 -3 0.66 0.57
-6 -3 3 0.96 0.52
-6 -3 3 0.93 0.34
5 3 -2 28.37 3.53
5 3 -2 30.89 1.72
5 3 -2 32.61 1.49
-5 3 2 30.57 4.68
-5 3 2 35.67 2.22
5 3 -2 34.69 1.83
-5 -3 2 31.14 3.71
-5 -3 2 28.97 1.91
-5 -3 2 31.77 1.68
5 -3 -2 33.18 3.77
-5 -3 2 33.59 1.68
5 -3 -2 32.07 1.54
5 -3 -2 34.82 1.81
4 3 -1 0 1.07
4 3 -1 1.95 0.43
4 3 -1 1.96 0.31
-4 3 1 2.62 0.57
-4 3 1 3.07 2.31
-4 -3 1 2.68 0.43
-4 -3 1 1.66 0.39
-4 -3 1 2.87 1.61
-4 -3 1 2.33 0.35
4 -3 -1 0.89 1.27
-4 -3 1 2.36 0.4
4 -3 -1 2.32 0.41
4 -3 -1 2.6 0.34
4 -3 -1 1.84 0.27
3 3 0 1.32 0.27
3 3 0 1.11 0.25
-3 3 0 0.76 0.26
3 3 0 2.39 1.2
-3 3 0 2.12 1.51
-3 3 0 1.06 0.32
-3 -3 0 1.09 0.23
-3 -3 0 0.9 0.24
3 -3 0 1.17 0.22
3 -3 0 1.03 0.15
3 -3 0 1.21 0.82
-3 -3 0 1.12 0.44
3 -3 0 1.4 0.33
-3 -3 0 1.46 1.18
2 3 1 266.02 9.59
-2 3 -1 267.41 13.29
-2 3 -1 257.49 10.87
-2 3 -1 253.09 11.28
2 3 1 264.44 11.34
2 3 1 281.71 11.64
-2 -3 -1 232.77 12.53
2 -3 1 261.16 9.56
2 -3 1 257.38 9.55
-2 -3 -1 237.62 9.49
2 -3 1 269.71 11.16
-2 -3 -1 269.24 11.6
-2 -3 -1 277.58 11.48
-2 -3 -1 251.96 9.9
2 -3 1 260.13 9.95
1 3 2 55.69 2.18
-1 3 -2 54.47 2.98
1 3 2 55.27 2.57
-1 3 -2 55.91 2.13
-1 3 -2 53.12 3.23
-1 3 -2 55.19 2.53
1 3 2 55.01 3.49
1 3 2 57.12 3.58
-1 3 -2 55.79 3.2
-1 -3 -2 55.21 3.2
-1 -3 -2 54.89 2.07
1 -3 2 56.16 2.27
-1 -3 -2 56.65 2.27
1 -3 2 56.23 2.19
0 3 -3 160.35 6.8
0 3 -3 160.37 5.86
0 3 3 151.11 7.54
0 3 -3 132.54 8.05
0 3 3 166.08 6.96
0 3 -3 164.7 7.25
0 -3 3 162.54 6.07
0 -3 -3 154.86 5.76
0 -3 3 168.84 7.36
0 -3 -3 159.14 6.09
0 -3 3 156.16 5.87
0 -3 -3 174.94 7.29
0 -3 -3 154.68 5.91
0 -3 -3 152.53 7.5
-1 3 4 57.15 4.04
1 3 -4 53.45 2.87
1 3 -4 57.67 2.68
1 3 -4 56.86 3.53
1 3 -4 61.71 2.83
1 3 -4 57.67 2.24
-1 -3 4 56.69 2.28
1 -3 -4 63.22 4.13
-1 -3 4 56.25 2.31
1 -3 -4 55.64 2.31
-1 -3 4 58.88 3.6
1 -3 -4 57.12 2.36
2 3 -5 38.3 1.58
-2 3 5 40.5 3.6
2 3 -5 39 3.08
2 3 -5 38.36 2.11
-2 3 5 37.49 1.57
2 3 -5 39.12 1.86
2 3 -5 35.95 2.13
-2 -3 5 37.93 1.63
2 -3 -5 36.18 3.46
2 -3 -5 37.7 1.94
-2 -3 5 35.97 3.05
2 -3 -5 37.59 1.7
-2 -3 5 37.59 1.61
2 -3 -5 38.74 1.68
-3 3 6 171.87 6.29
3 3 -6 165.56 6.28
3 3 -6 169.79 8.89
3 3 -6 171.69 7.62
3 3 -6 173.22 7.67
-3 3 6 172.78 9.9
-3 -3 6 165.56 6.43
-3 -3 6 166.34 6.31
-3 -3 6 154.61 8.46
3 -3 -6 166.55 6.44
3 -3 -6 161.31 7.53
3 -3 -6 159.3 9.65
3 -3 -6 160.15 6.55
4 3 -7 4.15 0.72
4 3 -7 4 0.46
-4 3 7 3.94 0.44
4 3 -7 3.89 0.55
4 3 -7 1.05 1.66
4 -3 -7 3.28 0.56
-4 -3 7 3.67 0.38
4 -3 -7 3.88 0.52
4 -3 -7 4.23 0.52
4 -3 -7 3.23 2.31
-4 -3 7 3.2 0.55
5 3 -8 12.27 0.85
-5 3 8 11.72 0.9
5 3 -8 9.66 0.99
5 3 -8 11.61 1.11
5 -3 -8 12.26 1.1
5 -3 -8 12.57 0.98
-5 -3 8 13.1 1.03
5 -3 -8 13 0.92
-6 3 9 10.92 1.01
6 3 -9 12.24 1.33
6 3 -9 13.56 1.01
6 -3 -9 15.3 1.33
-6 -3 9 12.53 1.07
6 -3 -9 12.42 1.08
6 -3 -9 12.73 0.98
-7 3 10 0.76 0.58
7 3 -10 -0.44 0.76
7 3 -10 0.86 0.57
7 -3 -10 0.2 0.59
7 -3 -10 -0.41 0.64
-7 -3 10 -0.36 0.53
7 -3 -10 1.04 0.8
8 3 -11 1.18 0.84
8 3 -11 1.64 0.64
8 3 -11 0.74 0.69
-8 3 11 0.91 0.76
8 -3 -11 1.35 0.83
8 -3 -11 0.12 0.9
-8 -3 11 -0.22 0.81
8 -3 -11 1.96 0.78
-9 3 12 -0.99 1.62
9 3 -12 1.66 0.67
-9 3 12 0.85 0.96
9 3 -12 -0.77 1.04
9 3 -12 0.25 0.64
-9 -3 12 2.2 1.05
9 -3 -12 -1.82 0.89
9 -3 -12 0.89 0.65
9 4 -6 -0.56 0.96
-9 4 6 0.87 1.37
9 4 -6 -0.37 0.74
9 -4 -6 0.95 0.96
8 4 -5 9.58 0.96
8 4 -5 11.32 1.19
-8 4 5 7.04 1.48
8 -4 -5 10.18 1.24
-8 -4 5 7.89 1.28
8 -4 -5 7.64 0.88
-7 4 4 5.76 1.06
7 4 -4 7.46 0.98
7 4 -4 5.83 0.7
-7 -4 4 3.32 0.83
7 -4 -4 4.43 0.71
6 4 -3 15.97 1.25
-6 4 3 16.65 1.61
6 4 -3 16.68 1
6 -4 -3 16.54 1.03
-6 -4 3 13.44 1.14
-6 -4 3 15.74 1.15
6 -4 -3 16.57 1.28
5 4 -2 0.16 0.47
-5 4 2 6.92 4.09
5 -4 -2 0.76 2.07
-5 -4 2 1.26 0.46
5 -4 -2 0.17 0.53
4 4 -1 10.6 0.66
-4 4 1 11.13 1.04
4 4 -1 10.45 0.79
-4 4 1 5.54 2.58
-4 4 1 9.66 0.72
4 4 -1 9.65 2.09
-4 -4 1 9.11 0.76
-4 -4 1 11.97 2.67
4 -4 -1 8.67 0.61
4 -4 -1 10.7 2.33
-4 -4 1 9.86 0.75
4 -4 -1 9.99 0.78
-4 -4 1 10.49 0.94
3 4 0 103.86 3.95
3 4 0 103.88 4.68
-3 4 0 108.9 5.55
3 4 0 101.17 6.15
-3 4 0 103.98 6.33
-3 4 0 98.32 4.45
3 -4 0 103.64 3.92
-3 -4 0 96.58 3.96
-3 -4 0 105.09 6.12
3 -4 0 101.22 3.97
-3 -4 0 97.3 4.12
3 -4 0 107.79 5.92
3 -4 0 104.23 4.21
-3 -4 0 93.71 5.36
2 4 1 0.02 0.26
2 4 1 1.31 1.06
-2 4 -1 0.27 0.22
2 4 1 0.33 0.17
-2 4 -1 0.16 0.23
2 4 1 0.91 1.26
-2 4 -1 0.29 1.11
-2 -4 -1 0.47 0.15
2 -4 1 -0.05 0.27
2 -4 1 -0.08 0.95
-2 -4 -1 0.26 0.26
-2 -4 -1 0.33 0.11
2 -4 1 -0.21 0.24
-2 -4 -1 1.23 1.04
2 -4 1 0.35 0.14
-2 -4 -1 0.48 0.63
1 4 2 13.37 2.02
-1 4 -2 14.2 0.96
1 4 2 14.58 0.73
1 4 2 15.51 1.97
-1 4 -2 14.36 0.69
1 4 2 14.4 0.85
-1 4 -2 15.06 1.88
-1 4 -2 14.97 0.89
-1 4 -2 14.18 1.79
-1 -4 -2 14.91 0.64
-1 -4 -2 14.21 0.77
1 -4 2 13.51 0.73
1 -4 2 14.41 0.79
0 4 -3 146.1 7.22
0 4 -3 142.27 7.14
0 4 3 150.44 7.61
0 4 -3 139.86 5.38
0 4 -3 151.45 6.29
0 4 3 144.47 6.36
0 4 -3 122.88 7.35
0 -4 -3 147.15 5.64
0 -4 -3 139.65 7.47
0 -4 3 141.46 5.4
0 -4 -3 157.34 6.71
0 -4 -3 145.9 5.45
0 -4 3 147.65 5.6
0 -4 -3 142.37 5.29
1 4 -4 3.61 0.58
1 4 -4 4.44 1.18
1 4 -4 3.77 0.31
1 4 -4 3.32 0.47
-1 4 4 7.02 1.96
-1 4 4 4.07 0.39
1 -4 -4 3.83 0.29
-1 -4 4 3.7 1.47
-1 -4 4 4.1 0.35
1 -4 -4 4.15 0.41
1 -4 -4 2.3 1.58
-1 -4 4 3.38 0.33
1 -4 -4 3.99 0.42
2 4 -5 38.34 1.64
-2 4 5 38.56 3.95
2 4 -5 40.25 2.17
2 4 -5 39.03 1.85
2 4 -5 36.34 3.42
2 4 -5 36.82 2.22
2 -4 -5 38.65 1.73
2 -4 -5 38.74 3.97
-2 -4 5 37.39 1.68
-2 -4 5 40.46 3.4
2 -4 -5 37.65 1.78
-2 -4 5 39.7 1.7
3 4 -6 45.64 2.4
3 4 -6 40.7 3.75
-3 4 6 44.29 1.83
3 4 -6 42.21 2.05
3 4 -6 40.67 1.81
3 -4 -6 42.5 1.95
3 -4 -6 38.92 4.23
-3 -4 6 37.26 3.66
3 -4 -6 41.05 1.99
3 -4 -6 43.73 2.21
-3 -4 6 41.67 1.88
-3 -4 6 42.6 1.88
-4 4 7 73.69 3.18
4 4 -7 68.01 3.68
4 4 -7 84.01 4
4 4 -7 79 3.18
4 -4 -7 80.25 3.84
4 -4 -7 79.16 3.41
4 -4 -7 75.99 3.34
-4 -4 7 78.66 3.28
-4 -4 7 80.37 3.25
5 4 -8 39.14 2.42
5 4 -8 38.33 1.85
-5 4 8 39.28 1.91
5 -4 -8 39.66 2.04
-5 -4 8 37.98 1.85
-5 -4 8 38.47 2.01
5 -4 -8 39.47 2.06
5 -4 -8 40.27 2.26
6 4 -9 32.19 1.64
-6 4 9 27.3 1.64
6 4 -9 27.84 2.05
6 -4 -9 29.33 1.69
6 -4 -9 29.95 1.78
-6 -4 9 30.26 1.75
7 4 -10 -0.14 0.89
7 4 -10 0.3 0.61
-7 4 10 0.81 0.67
-7 -4 10 1.73 0.79
7 -4 -10 1.73 0.73
7 -4 -10 0.39 0.52
8 4 -11 -0.96 1.13
-8 4 11 0.45 0.57
8 4 -11 0.19 0.74
8 -4 -11 1.23 0.61
-8 -4 11 1.35 0.76
8 -4 -11 -0.1 0.58
9 5 -6 13.82 1.63
9 5 -6 14.09 1.29
9 -5 -6 16.72 1.72
8 5 -5 1.64 0.93
8 5 -5 1.5 0.69
-8 5 5 0.72 0.99
8 -5 -5 -0.24 0.95
7 5 -4 10.9 1.09
7 5 -4 9.32 0.81
-7 5 4 9.79 1.59
7 -5 -4 10.07 1.11
7 -5 -4 11.41 0.95
-6 5 3 25.11 2.01
6 5 -3 20.12 1.6
6 5 -3 23.86 1.32
6 -5 -3 21.9 1.28
-6 -5 3 25.2 1.48
-6 -5 3 20.01 1.56
6 -5 -3 24.99 1.6
5 5 -2 0.77 0.42
5 5 -2 0.47 0.5
-5 5 2 0.05 0.31
-5 5 2 0.9 0.55
-5 -5 2 0.25 0.43
-5 -5 2 0.1 0.33
5 -5 -2 -0.44 0.39
5 -5 -2 0.11 0.54
-4 5 1 56.02 5.76
-4 5 1 64.4 3.56
4 5 -1 61.04 2.47
4 5 -1 61.78 2.95
-4 5 1 59.83 2.73
-4 -5 1 55.66 2.58
-4 -5 1 57.27 2.58
4 -5 -1 55.69 2.49
-4 -5 1 54.15 3.41
4 -5 -1 57.31 2.7
4 -5 -1 58.88 2.45
4 -5 -1 53.5 4.79
-3 5 0 59.82 3.23
3 5 0 56.74 2.71
-3 5 0 56.1 4.78
3 5 0 55.53 2.28
3 5 0 48.62 4.54
-3 5 0 53.47 2.53
3 -5 0 53.25 4.3
-3 -5 0 52.59 2.26
3 -5 0 55.95 2.31
-3 -5 0 44.76 3.31
3 -5 0 55.43 2.47
-3 -5 0 54.78 2.41
3 -5 0 54.98 2.25
-2 5 -1 9.95 1.88
-2 5 -1 8.64 0.57
2 5 1 12.18 2.14
2 5 1 9.41 0.72
-2 5 -1 10.75 0.84
2 5 1 9.14 0.63
2 5 1 11.31 2.67
-2 5 -1 9.6 2.16
-2 5 -1 9.86 0.69
2 -5 1 8.3 1.95
2 -5 1 9.79 0.65
-2 -5 -1 9.57 0.55
2 -5 1 9.8 0.6
-2 -5 -1 9.38 0.67
2 -5 1 10.67 0.73
-1 5 -2 117.97 4.53
1 5 2 118.55 4.57
1 5 2 118.86 6.9
-1 5 -2 118.85 5.2
1 5 2 119.4 5.33
1 5 2 122.12 6.98
-1 5 -2 114.48 6.44
-1 5 -2 118.01 6.2
-1 5 -2 126.78 6.8
-1 -5 -2 118.41 4.75
1 -5 2 124.08 4.76
-1 -5 -2 115.33 4.42
-1 -5 -2 116.12 5.39
1 -5 2 115.28 4.54
0 5 3 5.43 1.95
0 5 -3 5.8 1.63
0 5 3 8.28 2.22
0 5 -3 4.58 0.44
0 5 -3 5.33 0.55
0 5 3 6.09 0.47
0 5 -3 5.5 1.48
0 5 3 5.8 0.49
0 -5 3 5.25 0.44
0 -5 -3 5.64 0.58
0 -5 -3 6.19 0.49
0 -5 -3 3.38 1.81
0 -5 3 5.25 0.44
0 -5 -3 6.29 0.5
0 -5 -3 6.03 0.36
-1 5 4 10.91 2.83
1 5 -4 10.13 0.88
1 5 -4 10.42 2.14
-1 5 4 8.42 0.58
1 5 -4 8.66 0.55
-1 -5 4 8.5 0.57
1 -5 -4 7.25 0.6
-1 -5 4 8.22 0.59
1 -5 -4 7.91 0.65
1 -5 -4 7.68 0.47
1 -5 -4 5.15 2.14
-1 -5 4 10.32 2.22
2 5 -5 32.71 2.01
2 5 -5 31.84 3.44
-2 5 5 32.85 1.68
2 5 -5 30.36 1.89
2 5 -5 32.81 1.47
-2 -5 5 38.58 3.89
-2 -5 5 32.39 1.52
2 -5 -5 32.37 1.56
-2 -5 5 34.41 1.54
2 -5 -5 31.63 1.63
3 5 -6 177.25 8.31
3 5 -6 181.25 8.31
3 5 -6 180.69 6.86
-3 -5 6 184.54 7.07
3 -5 -6 174.96 7.21
-3 -5 6 185.81 6.9
3 -5 -6 177.07 6.98
4 5 -7 2.22 0.46
4 5 -7 2.78 0.72
-4 -5 7 2.64 0.54
4 -5 -7 2.94 0.61
-4 -5 7 2.6 0.45
4 -5 -7 2.69 0.59
5 5 -8 25.72 1.82
5 5 -8 26.14 1.41
-5 -5 8 24.93 1.41
5 -5 -8 27.31 1.6
-5 -5 8 24.42 1.52
5 -5 -8 27.63 1.61
6 5 -9 5.72 1.1
-6 5 9 6.29 0.81
6 5 -9 6.31 0.77
6 -5 -9 6.21 0.89
-6 -5 9 5.56 0.96
-6 -5 9 5.74 0.75
6 -5 -9 6.98 0.89
-7 5 10 3.92 0.82
7 5 -10 5.16 1.22
7 5 -10 4.92 0.83
7 -5 -10 3.15 0.85
7 -5 -10 2.4 0.83
-7 -5 10 2.75 0.95
8 5 -11 1.6 0.64
-8 5 11 1.83 1.63
-8 5 11 1.55 0.86
8 5 -11 0.02 1.19
8 -5 -11 1.63 0.88
8 -5 -11 1.72 0.77
-8 -5 11 3.23 1.13
8 6 -5 3.03 0.77
8 6 -5 0.87 0.95
-8 6 5 -0.09 1.46
8 -6 -5 1.59 1.05
7 6 -4 0.1 0.75
-7 6 4 1.05 1.13
7 6 -4 0.99 0.62
7 -6 -4 0.44 0.84
-7 -6 4 -0.53 0.72
-6 6 3 5.38 1.22
6 6 -3 8.13 1.06
6 6 -3 7.9 0.7
6 -6 -3 7.68 1.03
6 -6 -3 8.72 0.74
-6 -6 3 7.54 0.9
6 -6 -3 6.54 0.8
5 6 -2 0.59 0.37
5 6 -2 -0.3 0.58
-5 6 2 -0.27 0.73
5 -6 -2 0.85 0.39
5 -6 -2 0.14 0.42
5 -6 -2 -0.13 0.63
-5 -6 2 -1.42 0.58
-4 6 1 0.95 0.33
4 6 -1 0.69 0.32
-4 6 1 0.95 0.62
4 6 -1 0.89 0.39
4 -6 -1 1.76 0.33
4 -6 -1 0.11 0.54
-4 -6 1 1.04 0.7
-4 -6 1 1.23 0.49
4 -6 -1 0.98 0.47
3 6 0 2.7 0.43
-3 6 0 2.53 0.62
3 6 0 2.39 0.46
-3 6 0 2.86 0.42
-3 -6 0 2.08 0.86
-3 -6 0 1.83 0.48
3 -6 0 1.96 0.39
3 -6 0 2.36 0.46
3 -6 0 2.9 0.58
2 6 1 66 3.15
-2 6 -1 64.81 4.76
2 6 1 66.76 2.71
-2 6 -1 62.94 3
-2 6 -1 64.61 3.66
-2 6 -1 65.58 2.66
2 -6 1 65.45 2.7
-2 -6 -1 66.2 2.86
-2 -6 -1 65.57 2.61
2 -6 1 64.38 2.86
-1 6 -2 15.13 0.84
-1 6 -2 14.87 2.53
1 6 2 15.49 0.87
1 6 2 16.34 0.98
-1 6 -2 16.34 1.02
1 -6 2 14.3 0.96
-1 -6 -2 14.74 0.77
1 -6 2 15.3 0.9
-1 -6 -2 16.48 1
0 6 -3 395.46 14.83
0 6 3 408.27 14.91
0 6 -3 389.69 17.8
0 6 -3 390.04 16.9
0 6 3 420.2 17.43
0 -6 3 408.03 15.35
0 -6 -3 399.92 14.65
0 -6 -3 405.56 15.4
0 -6 3 402.75 14.78
1 6 -4 30.03 1.8
-1 6 4 28.13 1.5
1 6 -4 29.14 1.38
1 -6 -4 28.7 1.55
-1 -6 4 30.12 1.41
1 -6 -4 30.79 1.47
-1 -6 4 29.48 1.47
1 -6 -4 30.1 1.31
2 6 -5 297.61 12.87
-2 6 5 279.19 12.81
2 6 -5 289.22 10.98
2 -6 -5 296.65 10.87
-2 -6 5 301.59 10.99
2 -6 -5 305.26 11.51
-2 -6 5 301.2 11.34
2 -6 -5 286.25 11.08
3 6 -6 2.8 0.86
3 6 -6 2.85 0.69
3 6 -6 3.55 0.43
-3 -6 6 2.1 0.51
-3 -6 6 3.3 0.47
3 -6 -6 3.32 0.57
3 -6 -6 2.77 0.58
4 6 -7 15.88 0.99
4 6 -7 14.51 1.28
4 6 -7 14.29 1.53
-4 -6 7 14.91 1.01
4 -6 -7 16.45 1.1
-4 -6 7 15.46 1.08
4 -6 -7 15.39 1.12
5 6 -8 0.8 0.77
5 6 -8 1.13 0.39
-5 -6 8 2.01 0.57
5 -6 -8 1.14 0.48
-5 -6 8 1.65 0.68
5 -6 -8 2.58 0.7
6 6 -9 5.06 0.65
6 6 -9 6.83 1.22
6 -6 -9 6 0.94
-6 -6 9 4.87 0.94
6 -6 -9 5.41 0.9
-6 -6 9 4.26 0.75
7 6 -10 1.09 1.11
7 6 -10 1.76 0.75
7 -6 -10 0.57 0.62
-7 -6 10 0.39 0.96
7 -6 -10 1.44 0.85
-7 -6 10 -0.73 0.65
7 7 -4 3.38 0.75
7 7 -4 4.31 1.07
-7 7 4 2.28 1.37
7 -7 -4 4.11 1.12
-7 -7 4 5.51 0.97
7 -7 -4 4.41 0.9
-6 7 3 22.58 2.33
6 7 -3 29.07 1.53
6 -7 -3 31 1.91
6 -7 -3 24.5 1.56
-6 -7 3 30.8 1.77
6 -7 -3 26.51 1.54
5 7 -2 1.3 0.55
-5 7 2 -0.96 0.9
-5 -7 2 0.37 0.48
5 -7 -2 0.93 0.73
5 -7 -2 0.41 0.47
4 7 -1 46.09 2.66
4 7 -1 53.37 2.3
-4 -7 1 49.36 2.43
4 -7 -1 51.49 2.56
4 -7 -1 47.62 2.26
4 -7 -1 51.12 2.23
-3 7 0 16.22 0.93
3 7 0 15.22 1.09
3 7 0 16.02 1
-3 -7 0 15.32 1.03
3 -7 0 14.4 1
3 -7 0 14.27 1.12
2 7 1 33.25 1.55
2 7 1 30.6 1.7
-2 7 -1 30.69 1.48
-2 7 -1 29.67 1.63
2 -7 1 32.75 1.7
2 -7 1 30.55 1.51
-2 -7 -1 29.71 1.61
-1 7 -2 61.02 2.58
-1 7 -2 59.84 2.94
1 7 2 61.64 2.64
1 7 2 59.71 2.98
-1 -7 -2 62.4 2.79
1 -7 2 63.51 2.79
1 -7 2 64 2.63
0 7 -3 9.97 0.83
0 7 3 10.02 0.78
0 7 -3 10.21 0.71
0 -7 -3 9.98 0.81
0 -7 3 10.07 0.72
0 -7 3 10.55 0.82
1 7 -4 0.76 0.57
1 7 -4 0.56 0.36
-1 7 4 0.63 0.45
-1 -7 4 0.57 0.41
-1 -7 4 -0.35 0.37
1 -7 -4 0.45 0.45
1 -7 -4 0.23 0.41
1 -7 -4 0.95 0.31
2 7 -5 1.86 0.44
2 7 -5 2.06 0.81
2 -7 -5 0.92 0.58
-2 -7 5 3.07 0.49
-2 -7 5 1.86 0.47
2 -7 -5 2.66 0.55
2 -7 -5 2.09 0.44
3 7 -6 31.19 1.51
3 7 -6 29.86 2.23
3 -7 -6 30.53 1.65
-3 -7 6 30.32 1.6
3 -7 -6 29.26 1.78
3 -7 -6 28.55 1.48
-3 -7 6 29.61 1.55
4 7 -7 20.61 1.95
4 7 -7 21.78 1.24
4 7 -7 20.16 1.81
-4 -7 7 20.73 1.31
4 -7 -7 20.66 1.42
4 -7 -7 21.42 1.37
4 -7 -7 19.91 1.24
-4 -7 7 22.64 1.34
5 7 -8 0.72 0.56
5 7 -8 1.21 0.95
5 7 -8 0.99 1.14
-5 -7 8 -0.02 0.55
5 -7 -8 2.45 0.74
-5 -7 8 0.09 0.49
5 -7 -8 0.35 0.61
6 7 -9 17.54 1.27
6 7 -9 16.79 2.08
6 7 -9 15.05 1.75
-6 -7 9 18.82 1.26
6 -7 -9 16.91 1.33
6 -7 -9 16.41 1.49
-6 -7 9 17.29 1.49
7 7 -10 -0.7 0.89
7 7 -10 -0.01 0.71
7 7 -10 -0.23 1
7 -7 -10 1.08 0.75
-7 -7 10 -0.81 0.77
-7 -7 10 -1.26 1.1
6 8 -3 5.11 0.8
6 8 -3 2.8 0.97
6 -8 -3 5.33 0.89
6 -8 -3 5.05 1.07
-6 -8 3 4.35 0.93
5 8 -2 6.85 1.07
5 8 -2 9.47 0.82
5 -8 -2 9.39 0.93
5 -8 -2 8.15 0.84
5 -8 -2 11.29 1.22
-5 -8 2 9.32 1.04
-4 8 1 4.28 0.62
4 8 -1 3.77 0.81
4 8 -1 4.93 0.69
4 -8 -1 5.64 0.75
-4 -8 1 4.65 0.76
4 -8 -1 3.88 0.86
4 -8 -1 5.53 0.67
-3 8 0 39.45 1.9
3 8 0 39.88 1.96
-3 -8 0 41.39 2.14
3 -8 0 40.29 1.95
3 -8 0 41.09 2.16
-2 8 -1 15.45 0.97
2 8 1 14.85 0.95
2 -8 1 14.21 0.96
-2 -8 -1 15.16 1.13
2 -8 1 13.52 1.06
1 8 2 49.73 2.32
-1 8 -2 50.82 2.25
1 -8 2 50.84 2.3
1 -8 2 50.83 2.46
-1 -8 -2 52.53 2.52
0 8 3 2.32 0.44
0 8 -3 3.32 0.7
0 8 -3 1.63 0.47
0 -8 3 2.08 0.53
0 -8 -3 2.68 0.6
0 -8 3 2.27 0.58
1 8 -4 49.84 2.76
-1 8 4 50.37 2.36
1 8 -4 50.23 2.25
-1 -8 4 53.07 2.34
-1 -8 4 50.56 2.41
1 -8 -4 51.1 2.57
-2 8 5 -0.36 0.56
2 8 -5 1.56 0.64
2 8 -5 0.68 0.45
-2 -8 5 1.81 0.54
2 -8 -5 0.47 0.65
-2 -8 5 0.36 0.49
2 -8 -5 1.79 0.56
3 8 -6 36.63 1.85
3 8 -6 35.2 2.56
3 -8 -6 38.62 1.98
3 -8 -6 37.89 2.13
-3 -8 6 37.3 1.92
-3 -8 6 40.8 2
4 8 -7 19.44 1.16
4 8 -7 16.11 1.89
-4 -8 7 19.52 1.27
4 -8 -7 19.35 1.3
-4 -8 7 17.37 1.24
4 -8 -7 17.44 1.51
5 8 -8 14.63 1.04
5 8 -8 11.95 1.8
5 -8 -8 13.41 1.26
5 -8 -8 12.25 1.33
-5 -8 8 12.62 1.22
-5 -8 8 11.61 1.07
6 8 -9 3.33 0.72
6 -8 -9 3.47 0.85
6 -8 -9 1.49 0.76
-6 -8 9 3.54 0.81
5 9 -2 20.05 1.29
-5 9 2 18.01 1.21
5 -9 -2 19.94 1.54
5 -9 -2 15.18 1.32
-5 -9 2 18.52 1.42
-4 9 1 0.41 0.4
4 9 -1 -0.63 0.62
4 -9 -1 -0.51 0.66
4 -9 -1 -0.08 0.61
-3 9 0 5.53 0.72
3 9 0 5.04 0.74
-3 -9 0 6.55 0.81
3 -9 0 6.95 0.79
3 -9 0 7.09 1.02
2 9 1 6.1 0.65
-2 9 -1 4.33 0.65
-2 -9 -1 5.74 0.88
2 -9 1 5.37 0.75
2 -9 1 5.27 0.63
1 9 2 0.6 0.55
-1 9 -2 0.59 0.47
1 -9 2 1.11 0.51
1 -9 2 2.07 0.54
-1 -9 -2 2.37 0.74
0 9 3 4.12 0.66
0 9 -3 2.59 0.56
0 -9 -3 2.55 0.79
0 -9 3 3.43 0.64
0 -9 3 2.96 0.66
-1 9 4 3.1 0.7
1 9 -4 3.67 0.61
-1 -9 4 3.11 0.63
-1 -9 4 4.85 0.75
1 -9 -4 3.25 0.84
2 9 -5 0.82 0.71
2 9 -5 0.3 0.52
-2 9 5 0.34 0.44
2 -9 -5 1 0.84
-2 -9 5 1 0.47
-2 -9 5 0.6 0.53
3 9 -6 2.62 1.2
3 9 -6 2.21 0.64
-3 9 6 1.97 0.73
3 -9 -6 3.87 0.79
-3 -9 6 3.86 0.78
-3 -9 6 1.73 0.7
4 9 -7 0.95 1.28
4 -9 -7 -0.15 0.66
-4 -9 7 0.57 0.53
4 -9 -7 0.65 0.73
-4 -9 7 0.44 0.51
2 10 1 3.79 0.62
-2 10 -1 4.01 0.58
2 -10 1 4.88 0.67
2 -10 1 3.94 0.79
-2 -10 -1 2.2 0.87
-1 10 -2 -0.35 0.56
1 10 2 -0.72 0.46
1 -10 2 0.27 0.58
1 -10 2 0.39 0.76
0 10 3 2.04 0.66
0 10 -3 2.22 0.63
0 -10 -3 2.99 0.94
0 -10 3 3.63 0.6
0 -10 3 2.55 0.8
-1 10 4 2.81 0.76
1 10 -4 2.13 0.63
1 -10 -4 3.43 0.79
-1 -10 4 3.02 0.75
-1 -10 4 1.48 0.75
-2 10 5 2.01 0.59
2 10 -5 2.77 0.55
-2 -10 5 1.43 0.73
-2 -10 5 2.08 0.74
10 0 -6 1.22 0.9
10 0 -6 0.08 0.73
-10 0 6 -0.92 0.95
-10 0 6 0.02 1.05
9 0 -5 0.23 0.78
-9 0 5 1.46 0.81
9 0 -5 -1.22 0.89
-9 0 5 1.15 0.92
8 0 -4 2.34 0.64
-8 0 4 1.44 0.51
8 0 -4 1.97 0.68
-8 0 4 1.31 0.72
8 0 -4 1.08 0.74
7 0 -3 0.08 0.44
-7 0 3 -0.02 0.47
7 0 -3 0.15 0.41
-7 0 3 -0.56 0.51
7 0 -3 -0.3 0.41
7 0 -3 0.31 0.44
6 0 -2 9.17 3.34
-6 0 2 10.94 2.2
6 0 -2 10.99 0.86
6 0 -2 12.3 0.82
6 0 -2 11.55 0.92
-6 0 2 11.4 0.82
-6 0 2 12.78 1.12
6 0 -2 12.53 1
5 0 -1 0.18 0.28
5 0 -1 0 0.31
5 0 -1 0.19 0.41
-5 0 1 -1.14 1.2
-5 0 1 0.23 0.4
-5 0 1 -0.25 0.28
5 0 -1 -1.58 2.09
4 0 0 245.36 9.61
4 0 0 246.66 10.31
4 0 0 243.04 11.7
4 0 0 237.74 10.76
4 0 0 241.92 9.16
-4 0 0 262.6 12.71
-4 0 0 243.29 9.08
-4 0 0 241.7 10.75
-4 0 0 255.34 11.68
3 0 1 -0.17 0.2
-3 0 -1 0.19 0.3
3 0 1 0.08 0.8
-3 0 -1 0.27 0.47
3 0 1 -0.36 0.25
-3 0 -1 0.14 0.26
-3 0 -1 0.01 0.24
3 0 1 -0.07 0.12
3 0 1 -0.43 0.24
-2 0 -2 3.8 0.45
-2 0 -2 4.46 0.42
-2 0 -2 4.24 0.41
2 0 2 3.68 0.35
2 0 2 3.75 0.21
2 0 2 3.74 0.61
2 0 2 3.73 0.35
-1 0 -3 -0.06 0.22
1 0 3 0.42 0.2
1 0 3 0.06 0.09
-1 0 -3 0.27 0.17
-1 0 -3 0.51 0.15
1 0 3 0.28 0.17
-1 0 -3 0.01 0.17
0 0 4 359.03 14.44
0 0 4 361.7 12.71
0 0 -4 361.94 16.48
0 0 -4 332.9 12.81
0 0 4 349.2 14.26
0 0 -4 351.42 15.71
0 0 -4 340.9 14.13
0 0 -4 353.89 14.56
-1 0 5 -0.25 0.84
1 0 -5 0.11 0.16
1 0 -5 0.15 0.15
1 0 -5 0.18 0.3
-1 0 5 -0.04 0.13
1 0 -5 0.24 0.27
1 0 -5 -0.7 1.06
-1 0 5 -0.21 0.19
2 0 -6 24.54 1.36
2 0 -6 23.9 1.14
2 0 -6 24.54 1.51
2 0 -6 23.53 1.33
2 0 -6 23.01 1.03
2 0 -6 21.15 1.43
-2 0 6 28.6 2.85
-2 0 6 24.92 1.15
2 0 -6 22.43 2.81
3 0 -7 -0.28 0.29
-3 0 7 -0.16 0.35
-3 0 7 1.27 1.95
3 0 -7 -0.49 0.47
3 0 -7 -1.57 2.03
3 0 -7 -0.12 0.18
3 0 -7 0.11 0.25
3 0 -7 -0.29 0.46
3 0 -7 -0.23 0.17
4 0 -8 116.45 4.74
4 0 -8 109.39 5.65
-4 0 8 120.55 4.77
4 0 -8 129.74 5.87
4 0 -8 119.06 4.72
-4 0 8 114.52 7.94
4 0 -8 113.83 8.16
-5 0 9 0.77 0.4
5 0 -9 -1.01 0.5
5 0 -9 0.21 0.24
5 0 -9 -0.14 0.61
6 0 -10 -0.31 0.31
6 0 -10 1.46 0.78
6 0 -10 -0.46 0.55
-6 0 10 0.47 0.54
-7 0 11 -0.46 0.69
7 0 -11 0.23 0.84
7 0 -11 -0.47 0.5
7 0 -11 -1.53 0.67
8 0 -12 11.73 1.51
8 0 -12 11.89 1.23
-8 0 12 13.37 1.23
8 0 -12 11.28 1.14
-9 0 13 0.28 0.63
9 0 -13 -1.87 0.9
9 0 -13 -0.87 1.22
-9 0 13 1.89 1.36
9 0 -13 1.4 1.04
-10 1 6 3 1.02
10 1 -6 1.9 1.02
10 -1 -6 -0.22 1.02
9 1 -5 1.45 0.57
9 1 -5 1.23 0.69
9 1 -5 2.87 0.96
9 -1 -5 0.44 0.62
-9 -1 5 1.27 0.88
9 -1 -5 3.15 1.02
-9 -1 5 3.32 0.94
8 1 -4 3.3 0.78
-8 1 4 5.25 1.01
8 1 -4 4.82 0.64
8 1 -4 5.04 0.78
-8 1 4 4.08 0.74
-8 -1 4 5.61 0.84
8 -1 -4 5.5 0.97
8 -1 -4 4.2 0.75
7 1 -3 -0.11 0.56
7 1 -3 -0.52 0.55
-7 1 3 -0.58 0.63
-7 -1 3 0.01 0.46
7 -1 -3 0.13 0.45
-7 -1 3 0.32 0.54
7 -1 -3 -0.81 0.52
7 -1 -3 0.15 0.39
6 1 -2 4.87 1.22
6 1 -2 8.32 0.82
6 1 -2 6.08 0.61
-6 1 2 6.7 0.63
6 1 -2 5.86 0.6
-6 1 2 3.78 2.45
6 1 -2 6.51 3.2
6 -1 -2 9.46 3.54
-6 -1 2 7.53 2.79
6 -1 -2 7.87 0.69
6 -1 -2 6.2 2.7
-6 -1 2 5.55 2.15
-6 -1 2 6.84 0.66
6 -1 -2 7.74 0.86
-5 1 1 2.92 0.41
-5 1 1 2.46 0.54
5 1 -1 3.12 0.37
5 1 -1 1.47 0.46
5 1 -1 2.66 0.46
5 1 -1 2.23 1.91
-5 1 1 2.26 1.51
5 1 -1 2.07 0.39
5 -1 -1 0.86 2.05
5 -1 -1 2.8 0.4
-5 -1 1 2.99 0.38
-5 -1 1 3.64 1.56
-5 -1 1 2.64 0.51
-5 -1 1 2.61 0.39
5 -1 -1 1.9 0.52
5 -1 -1 2.01 0.38
4 1 0 46.68 2.29
4 1 0 53.15 3.74
4 1 0 50.57 2.4
-4 1 0 52.38 2.87
4 1 0 48.98 1.99
-4 1 0 53.7 3.63
-4 -1 0 47.93 2.54
4 -1 0 45.43 2.03
-4 -1 0 51.78 2.03
4 -1 0 50.27 2.29
4 -1 0 43.32 3.78
-4 -1 0 49.3 3.28
4 -1 0 49.34 2.34
-4 -1 0 51.04 2.82
3 1 1 353.89 13.79
3 1 1 391.12 15.48
-3 1 -1 386.64 15.75
3 1 1 378.22 16.37
3 1 1 373.06 15.6
-3 1 -1 372.36 15.34
-3 -1 -1 377.58 13.72
-3 -1 -1 385.8 19.19
-3 -1 -1 395.23 17.72
3 -1 1 386.47 16.31
3 -1 1 374.79 15.49
3 -1 1 367.86 14.41
3 -1 1 364.09 13.81
-3 -1 -1 390.15 15.23
2 1 2 78.11 3.49
-2 1 -2 77.96 3.52
-2 1 -2 76.48 3.99
-2 1 -2 82.81 3.58
-2 1 -2 80.58 4.26
2 1 2 80.86 2.98
2 1 2 82.28 3.84
2 1 2 81.53 3.62
2 -1 2 66.57 3.33
2 -1 2 82.85 3.56
-2 -1 -2 76.65 3.72
2 -1 2 87.45 3.03
-2 -1 -2 77.69 3.5
2 -1 2 80.99 2.94
-2 -1 -2 83.43 3.78
2 -1 2 79.4 3.2
-2 -1 -2 83.56 4
-1 1 -3 284.82 12.79
1 1 3 281.74 10.83
1 1 3 257.77 11.23
-1 1 -3 272.25 12.16
1 1 3 283.06 10.87
-1 1 -3 258.01 11.28
1 1 3 275.11 9.87
1 1 3 273.64 11.76
1 -1 3 276.99 10.2
-1 -1 -3 234.79 11.24
1 -1 3 270.98 9.84
-1 -1 -3 271.45 12.83
1 -1 3 293.64 11.74
-1 -1 -3 267.16 12.13
-1 -1 -3 266.14 10.19
0 1 4 40.42 2.2
0 1 4 48.43 2.95
0 1 4 51.19 1.84
0 1 -4 48.51 1.83
0 1 -4 49.29 2.33
0 1 -4 46.25 2.29
0 1 -4 52.81 2.27
0 1 -4 54.52 2.72
0 1 -4 46.84 2.48
0 -1 -4 46.69 1.86
0 -1 4 47.85 1.85
0 -1 -4 45.45 2.75
0 -1 -4 48.22 2.14
0 -1 -4 50.54 2.37
0 -1 -4 47.39 2.57
0 -1 4 47.8 1.87
0 -1 -4 49.33 1.87
0 -1 4 48.6 2.13
0 -1 4 49.18 2.45
1 1 -5 100.97 5.15
1 1 -5 96.38 4.64
-1 1 5 94.09 5.61
1 1 -5 99.67 4.46
1 1 -5 96.67 4.25
-1 1 5 94 3.62
1 1 -5 85.92 4.42
1 1 -5 95.51 3.6
-1 -1 5 92.16 3.61
1 -1 -5 92.82 3.63
1 -1 -5 97.96 4.08
1 -1 -5 91.6 3.65
1 -1 -5 106.49 4.61
-1 -1 5 98.92 4.93
1 -1 -5 89.83 5.36
-1 -1 5 91.72 4.01
-1 -1 5 95.88 3.6
1 -1 -5 93.12 4.75
-2 1 6 4.64 0.45
-2 1 6 1.43 1.75
2 1 -6 4.69 0.56
2 1 -6 5.05 0.55
2 1 -6 4.82 1.65
2 1 -6 4.67 0.39
2 1 -6 4.75 0.63
2 1 -6 5.11 0.45
2 -1 -6 4.99 0.57
2 -1 -6 4.29 1.91
2 -1 -6 5.25 0.36
2 -1 -6 5.59 0.56
2 -1 -6 4.68 0.41
-2 -1 6 4.65 0.42
2 -1 -6 4.44 0.69
2 -1 -6 4.86 0.45
-2 -1 6 2.62 1.05
3 1 -7 11.75 1.06
-3 1 7 12.84 0.83
3 1 -7 13.3 0.81
-3 1 7 12.74 2.6
3 1 -7 12.44 0.74
3 1 -7 11.42 0.99
3 1 -7 14.26 2.68
3 -1 -7 13.06 0.92
3 -1 -7 12.3 1.02
3 -1 -7 12.93 0.88
3 -1 -7 12.91 0.81
3 -1 -7 12.99 0.74
3 -1 -7 9.84 2.78
-3 -1 7 12.89 0.8
-4 1 8 -1.91 2.06
4 1 -8 0.18 0.2
4 1 -8 0.14 0.35
4 1 -8 -0.8 0.6
4 1 -8 0.45 0.27
4 1 -8 -0.1 0.48
4 1 -8 1.64 2.45
-4 1 8 0.39 0.4
4 -1 -8 0.48 0.56
-4 -1 8 -0.06 0.32
4 -1 -8 0.48 0.29
4 -1 -8 -0.06 0.27
4 -1 -8 -0.26 0.29
-4 -1 8 -0.9 2.21
4 -1 -8 -3.13 2.86
-5 1 9 44.3 2.14
5 1 -9 42.18 2.05
5 1 -9 42.86 2.67
5 1 -9 43.58 2
5 -1 -9 42.55 2.04
5 -1 -9 42.28 2.1
5 -1 -9 45.48 2.66
-5 -1 9 42.04 2.13
-6 1 10 0.41 0.51
6 1 -10 -1.09 0.59
6 1 -10 -0.24 0.41
6 1 -10 0.39 0.8
-6 -1 10 0.66 0.46
6 -1 -10 -0.38 0.75
6 -1 -10 0.35 0.49
6 -1 -10 0.89 0.36
-7 1 11 1.74 0.71
7 1 -11 0.39 0.58
7 1 -11 0.55 0.41
7 1 -11 0.34 0.75
7 -1 -11 0.15 0.62
7 -1 -11 0.26 0.53
7 -1 -11 0.21 0.81
-7 -1 11 -0.33 0.66
-8 1 12 2.67 0.68
8 1 -12 2.97 1.19
8 1 -12 1.13 0.83
8 1 -12 2.39 0.69
8 -1 -12 0.64 1.03
-8 -1 12 1.1 0.8
8 -1 -12 4.2 0.92
9 1 -13 8.61 1.33
9 1 -13 9.29 1.19
-9 1 13 10.97 1.28
9 1 -13 9.16 1.4
9 -1 -13 8.8 1.15
9 -1 -13 12.39 1.32
-9 -1 13 10.4 1.32
9 -1 -13 7.22 1.44
10 2 -6 6.25 1.21
10 2 -6 3.47 1.13
-10 2 6 4.72 1.08
-10 -2 6 3.53 1.35
10 -2 -6 6.63 1.32
-9 2 5 2.49 0.84
9 2 -5 0.88 0.68
9 2 -5 2.11 0.91
-9 2 5 1.63 1.09
9 2 -5 0.81 0.89
9 -2 -5 1.62 0.75
8 2 -4 3.93 0.83
8 2 -4 2.77 0.63
-8 2 4 2.53 0.69
8 2 -4 2.55 0.77
-8 2 4 2.92 0.87
8 -2 -4 2.44 0.86
-8 -2 4 1.79 0.61
-8 -2 4 1.15 0.7
7 2 -3 9.62 0.8
7 2 -3 10.12 0.99
-7 2 3 9.76 0.85
7 2 -3 8.7 0.88
-7 2 3 8.59 1.15
7 -2 -3 8.16 0.78
7 -2 -3 7.31 0.8
7 -2 -3 10.04 0.97
-7 -2 3 9.04 0.8
-7 -2 3 7.62 0.87
6 2 -2 33.39 1.94
-6 2 2 43.19 4.82
6 2 -2 33.67 1.8
6 2 -2 34.68 1.62
-6 2 2 37.05 2.37
6 2 -2 29.01 4.23
6 -2 -2 34.98 1.85
6 -2 -2 36.6 1.95
6 -2 -2 33.96 1.68
-6 -2 2 33.77 1.69
-6 -2 2 34.49 2.16
6 -2 -2 23.29 4.02
5 2 -1 0.11 0.33
-5 2 1 -0.05 0.37
-5 2 1 1.78 2.11
5 2 -1 0.44 0.37
5 2 -1 -0.04 0.26
5 2 -1 0.94 1.83
-5 -2 1 0.05 0.25
-5 -2 1 -0.02 0.24
-5 -2 1 0.61 1.65
5 -2 -1 -3.12 2.03
5 -2 -1 0.3 0.28
5 -2 -1 -0.39 0.46
5 -2 -1 -0.27 0.2
-4 2 0 86.68 3.94
-4 2 0 96.26 4.88
4 2 0 87.62 3.41
4 2 0 88.28 5.29
-4 2 0 89.99 5.95
4 2 0 88.61 3.94
4 2 0 89.69 4.1
-4 -2 0 84.93 5.03
4 -2 0 88.52 3.42
4 -2 0 84.56 3.74
-4 -2 0 86.57 4.73
4 -2 0 90.88 3.98
4 -2 0 83.4 5.21
-4 -2 0 88.89 4.39
-4 -2 0 90.22 3.44
-3 2 -1 0.13 1.18
3 2 1 -0.01 0.15
-3 2 -1 0.34 0.28
3 2 1 0.31 0.23
-3 2 -1 0.23 0.33
3 2 1 1.51 1.04
3 -2 1 0.47 0.76
-3 -2 -1 0.01 0.3
-3 -2 -1 0.38 0.19
3 -2 1 0.38 0.13
-3 -2 -1 1.34 0.83
-3 -2 -1 0.3 0.14
-3 -2 -1 0.8 0.29
3 -2 1 0.05 0.27
3 -2 1 0.21 0.11
2 2 2 175.67 7.75
2 2 2 185.31 6.76
2 2 2 195.07 8.22
-2 2 -2 191.09 9.45
2 2 2 190.14 8.1
2 2 2 184.33 8.05
-2 2 -2 190.51 8.06
-2 2 -2 169.28 7.72
-2 -2 -2 194.42 8.89
-2 -2 -2 182.61 7.02
-2 -2 -2 181.31 6.63
2 -2 2 184.74 6.7
2 -2 2 181.26 7.05
2 -2 2 186.37 7.61
-2 -2 -2 163.74 9.39
-2 -2 -2 189.01 8.07
-2 -2 -2 169.74 8.24
2 -2 2 184.76 6.76
2 -2 2 184.12 7.92
-1 2 -3 7.29 0.78
1 2 3 6.98 0.49
-1 2 -3 6.64 0.53
-1 2 -3 6.75 0.74
1 2 3 7.44 1.1
1 2 3 7.03 0.37
1 2 3 7.95 1.14
-1 2 -3 6.62 0.31
-1 2 -3 6.47 0.56
-1 -2 -3 6.88 0.39
-1 -2 -3 6.99 0.46
1 -2 3 6.7 0.39
-1 -2 -3 6.2 0.7
1 -2 3 6.74 0.4
0 2 -4 895.32 38.9
0 2 -4 752.06 37.6
0 2 -4 1000 33.69
0 2 4 902 37.66
0 2 4 943.98 34.23
0 2 -4 874.42 31.81
0 -2 -4 782.18 32.73
0 -2 4 956.08 33.54
0 -2 -4 871.22 38.96
0 -2 -4 886.93 35.95
0 -2 4 863.5 32.73
0 -2 -4 853.96 40.92
0 -2 4 895.1 31.65
0 -2 -4 841.23 31.86
0 -2 -4 849.49 33.95
1 2 -5 8.47 0.79
1 2 -5 10.54 1.45
1 2 -5 10.31 0.51
-1 2 5 10.8 1.89
1 2 -5 11.4 0.68
-1 2 5 10.32 0.52
1 2 -5 10.9 0.79
1 -2 -5 10.28 0.53
1 -2 -5 9.89 0.53
1 -2 -5 10.51 0.89
-1 -2 5 10.95 0.58
-1 -2 5 10.31 0.5
-1 -2 5 11.03 1.3
1 -2 -5 11.36 0.96
1 -2 -5 9.71 1.79
-1 -2 5 9.82 0.57
1 -2 -5 11.32 0.61
2 2 -6 251.13 11.03
-2 2 6 233.74 8.6
2 2 -6 232.71 10.08
2 2 -6 245.78 10.59
2 2 -6 230.28 8.62
2 2 -6 247.22 10.56
-2 2 6 241.72 11.87
2 -2 -6 257.54 11.29
2 -2 -6 223.27 11.64
-2 -2 6 236.65 10.67
2 -2 -6 204.65 10.31
-2 -2 6 237.17 8.61
-2 -2 6 223.09 9.53
2 -2 -6 216.3 8.86
2 -2 -6 216.68 8.72
-2 -2 6 226.4 8.79
3 2 -7 33.77 1.97
-3 2 7 32.75 1.48
3 2 -7 33.37 1.8
-3 2 7 33.32 4.21
3 2 -7 30.43 1.41
3 2 -7 32.25 1.99
3 2 -7 34.98 3.62
3 -2 -7 29.16 1.5
-3 -2 7 29.05 1.35
-3 -2 7 27.46 3.21
3 -2 -7 26.63 1.5
3 -2 -7 30.38 1.83
3 -2 -7 33.7 1.93
3 -2 -7 27.22 3.87
-3 -2 7 31.94 1.47
3 -2 -7 30.28 1.46
4 2 -8 13.72 2.7
4 2 -8 11.6 0.79
4 2 -8 11.75 1.17
-4 2 8 13.03 0.84
4 2 -8 11 1.04
-4 -2 8 12.59 0.92
4 -2 -8 12.68 1.02
-4 -2 8 13.99 3.32
4 -2 -8 13.84 1.09
4 -2 -8 12.8 3.68
4 -2 -8 10.96 0.79
4 -2 -8 12.09 0.9
5 2 -9 2.85 0.78
-5 2 9 3.6 0.6
5 2 -9 3 0.73
5 2 -9 3.51 0.48
5 -2 -9 3.07 0.61
5 -2 -9 3.22 0.52
-5 -2 9 2.43 0.52
5 -2 -9 1.87 0.69
6 2 -10 86.08 4.6
6 2 -10 85.64 3.69
6 2 -10 84.37 3.68
-6 2 10 83.33 3.72
6 -2 -10 90.06 4.55
6 -2 -10 85.91 3.76
-6 -2 10 82.66 3.77
6 -2 -10 84.53 3.76
7 2 -11 1.63 0.91
7 2 -11 1.83 0.58
-7 2 11 0.55 0.6
7 2 -11 1.7 0.68
7 2 -11 3.45 0.78
-7 -2 11 2.34 0.86
7 -2 -11 1.48 0.7
7 -2 -11 1.52 0.71
8 2 -12 36.65 2.14
8 2 -12 33.31 2.61
8 2 -12 34.45 2.04
-8 2 12 36.67 2.07
8 -2 -12 34.04 2.11
8 -2 -12 34.42 2.44
-8 -2 12 35.51 2.23
8 -2 -12 37.2 2.06
9 2 -13 -1.65 0.93
-9 2 13 0.62 0.9
-9 2 13 2.66 1.17
9 2 -13 -0.47 0.91
9 -2 -13 2.67 1.24
-9 -2 13 -0.3 0.94
9 -2 -13 1.09 1.08
9 -2 -13 0.97 0.87
9 3 -5 9.2 1.2
9 3 -5 8.28 1.18
9 3 -5 7.91 0.99
9 -3 -5 9.11 1.25
-8 3 4 11.71 1.59
8 3 -4 15.79 1.38
8 3 -4 14.47 1.2
8 3 -4 15.13 1.03
-8 -3 4 13.02 1.24
8 -3 -4 14.51 1.31
7 3 -3 5.23 0.63
-7 3 3 4.16 0.84
7 3 -3 5.17 0.85
7 -3 -3 4.19 0.63
7 -3 -3 5.51 0.8
-7 -3 3 5.51 0.79
-6 3 2 143.95 7.53
-6 3 2 129.29 10.69
6 3 -2 137.85 5.32
6 3 -2 134.35 6.34
-6 -3 2 143.25 5.47
6 -3 -2 138.22 5.35
6 -3 -2 144.31 5.83
-6 -3 2 115.08 7.17
-5 3 1 59.41 5.94
5 3 -1 63.06 2.58
-5 3 1 64.41 2.99
5 3 -1 63.69 5
5 3 -1 66.58 3.06
-5 3 1 66.35 3.73
5 3 -1 63.86 3.14
-5 -3 1 55.92 3.21
-5 -3 1 63.83 2.7
-5 -3 1 60.53 3.5
-5 -3 1 60.9 4.72
5 -3 -1 58.93 4.84
-5 -3 1 64.43 2.84
5 -3 -1 63.79 2.94
5 -3 -1 65.01 2.61
4 3 0 168.05 7.53
-4 3 0 173.57 8.86
-4 3 0 169.69 7.22
4 3 0 170.22 7.28
-4 3 0 162.78 9.56
4 3 0 163.31 6.31
4 3 0 163.23 8.6
4 -3 0 171.67 7.34
4 -3 0 160.73 8.25
-4 -3 0 174.73 8.17
-4 -3 0 165.51 6.63
-4 -3 0 169.46 6.36
-4 -3 0 165.48 8.69
4 -3 0 173.07 6.3
-4 -3 0 168.48 8.44
4 -3 0 159.88 6.7
-3 3 -1 431.28 21.09
3 3 1 410.29 15.18
3 3 1 413.05 17.97
3 3 1 408.06 17.44
-3 3 -1 403.69 17.23
-3 3 -1 429.08 17.89
-3 -3 -1 407.03 15.09
3 -3 1 414.21 17
-3 -3 -1 405.63 15.71
3 -3 1 413.87 15.78
-3 -3 -1 412.69 19.6
3 -3 1 418.64 15.14
3 -3 1 413.72 17.77
3 -3 1 416.35 15.14
-3 -3 -1 417.91 17.36
2 3 2 100.75 4.52
-2 3 -2 100.54 3.74
-2 3 -2 106.46 5.31
-2 3 -2 100.85 4.89
-2 3 -2 97.15 4.37
-2 3 -2 100.32 5.16
2 3 2 108.3 5.55
2 3 2 100.12 3.79
2 3 2 103.53 5.41
-2 -3 -2 93.85 5.17
-2 -3 -2 92.71 3.7
-2 -3 -2 100.91 3.97
-2 -3 -2 95.4 4.55
2 -3 2 100.11 3.81
2 -3 2 102 3.74
2 -3 2 92.19 4.33
2 -3 2 101.6 3.98
2 -3 2 103.4 4.98
1 3 3 273.41 11.98
1 3 3 290.58 12.1
-1 3 -3 283.25 11.54
-1 3 -3 270.96 10.07
-1 3 -3 271.4 14.01
-1 3 -3 280.38 11.57
1 3 3 274.25 11.97
-1 3 -3 275.95 11.36
1 3 3 280.49 10.14
-1 -3 -3 271.71 10.44
-1 -3 -3 278.33 12.34
1 -3 3 271.73 10.09
-1 -3 -3 262.43 13.35
1 -3 3 273.04 10.44
0 3 4 214.45 9.53
0 3 -4 218.95 9.04
0 3 -4 180.03 8.74
0 3 -4 199.57 8.74
0 3 4 203.21 8.77
0 3 -4 201.92 8.53
0 3 -4 186.38 10.18
0 3 -4 198.08 7.35
0 -3 4 194.9 7.59
0 -3 -4 219.06 9.99
0 -3 -4 186.8 9.18
0 -3 -4 189.9 7.22
0 -3 4 207.22 8.89
0 -3 -4 188.06 7.4
0 -3 -4 190.3 7.61
0 -3 4 201.18 7.38
0 -3 -4 216.57 9.14
1 3 -5 16.44 1.8
1 3 -5 15.51 0.87
1 3 -5 14.62 1.09
-1 3 5 14.6 0.67
1 3 -5 14.63 0.71
1 3 -5 16.91 1.1
-1 -3 5 13.65 1.78
1 -3 -5 16.07 1.18
1 -3 -5 16.55 1.36
1 -3 -5 16.93 2.12
-1 -3 5 14.8 0.77
1 -3 -5 15.05 0.78
-1 -3 5 14.48 0.73
1 -3 -5 15.01 0.8
2 3 -6 192.61 8.66
-2 3 6 195.62 7.25
2 3 -6 194.2 7.3
2 3 -6 194.92 9.49
-2 3 6 204.4 10.48
2 3 -6 196.96 8.87
2 3 -6 198.69 9.02
-2 -3 6 191.05 9.41
-2 -3 6 193.48 7.32
2 -3 -6 193.03 7.57
2 -3 -6 211.84 9.77
2 -3 -6 182.8 7.41
-2 -3 6 194.17 7.47
2 -3 -6 197.59 10.34
-3 3 7 15.58 3.52
3 3 -7 12.12 2.5
3 3 -7 13.34 1.18
3 3 -7 13.71 1.19
3 3 -7 13.8 0.76
-3 3 7 11.88 0.75
3 3 -7 12.97 0.87
-3 -3 7 12.53 0.69
3 -3 -7 10.65 0.84
3 -3 -7 13.07 1.04
3 -3 -7 13.5 1.19
-3 -3 7 11.33 0.78
3 -3 -7 11.63 0.79
-3 -3 7 12.97 2.45
3 -3 -7 11.94 3.06
-4 3 8 1.09 0.4
4 3 -8 1.46 0.39
4 3 -8 0.91 0.64
4 3 -8 0.88 0.42
4 -3 -8 -0.09 0.37
-4 -3 8 -0.44 0.49
-4 -3 8 0.43 0.28
4 -3 -8 1.27 0.41
4 -3 -8 0.34 0.34
4 -3 -8 0.5 0.55
5 3 -9 28.99 1.99
5 3 -9 31.85 1.65
5 3 -9 34.44 2.23
-5 3 9 34.32 1.74
-5 -3 9 31.13 1.79
5 -3 -9 35.56 2.13
5 -3 -9 34.75 1.77
5 -3 -9 35.14 1.83
6 3 -10 36.31 2.5
6 3 -10 35.74 1.89
-6 3 10 37.46 1.97
6 -3 -10 37.39 1.95
6 -3 -10 34.87 1.95
-6 -3 10 35.92 2.08
6 -3 -10 39.65 2.39
-7 3 11 -0.29 0.66
7 3 -11 -0.32 0.93
7 3 -11 0.46 0.48
-7 -3 11 -1.42 0.86
7 -3 -11 -1.24 0.8
7 -3 -11 -0.49 0.58
7 -3 -11 0.55 0.6
8 3 -12 9.47 1.06
8 3 -12 9.54 1.02
8 3 -12 7.87 1.51
-8 3 12 7.57 0.98
-8 -3 12 9.04 1.25
8 -3 -12 8.77 1.01
8 -3 -12 8.64 1.06
8 -3 -12 8.47 1.29
9 4 -5 13.24 1.49
9 4 -5 13.26 1.17
9 4 -5 10.62 1.18
9 -4 -5 14.98 1.54
8 4 -4 5.72 0.78
-8 4 4 6.03 1.12
8 4 -4 6.96 1.04
8 -4 -4 7.4 1.16
7 4 -3 24.23 1.85
7 4 -3 30.97 1.54
-7 4 3 27.6 2.32
7 -4 -3 31.36 1.94
-6 4 2 2.12 0.82
6 4 -2 1.71 0.4
6 -4 -2 0.61 0.65
-6 -4 2 0.95 0.66
6 -4 -2 1.52 0.43
-6 -4 2 1.12 0.44
5 4 -1 0.36 0.46
-5 4 1 0.58 0.3
-5 4 1 4.63 3.16
5 4 -1 1.36 0.31
-5 4 1 1.31 0.48
5 -4 -1 1.08 0.45
-5 -4 1 0.96 0.42
5 -4 -1 1.13 0.27
5 -4 -1 -0.07 1.72
-5 -4 1 1.11 0.45
-5 -4 1 1.91 0.54
-5 -4 1 0.8 0.37
-4 4 0 22.45 3.58
-4 4 0 21.86 1.26
4 4 0 21.46 1.31
4 4 0 24.17 3.04
-4 4 0 23.04 1.57
4 4 0 21.81 1.06
-4 -4 0 20.14 1.16
4 -4 0 21.94 1.3
-4 -4 0 21.83 1.57
-4 -4 0 21.17 1.17
4 -4 0 17.32 2.44
-4 -4 0 24.06 2.98
4 -4 0 22.12 1.16
4 -4 0 21.47 1.04
3 4 1 59.41 4.52
3 4 1 62.47 2.95
3 4 1 64.32 4.34
-3 4 -1 57.48 2.81
-3 4 -1 62.05 4.5
-3 4 -1 65.61 3.48
3 4 1 61.14 2.46
3 -4 1 65.75 4.12
-3 -4 -1 60.02 4.25
3 -4 1 60.23 2.5
3 -4 1 60.76 2.66
3 -4 1 61.83 2.41
-3 -4 -1 60.54 2.61
-3 -4 -1 53.38 2.46
-3 -4 -1 60.94 3.52
-2 4 -2 6.1 1.25
-2 4 -2 7.43 0.58
2 4 2 7.32 0.61
2 4 2 6.72 1.49
-2 4 -2 6.84 0.43
-2 4 -2 9.29 1.68
2 4 2 5.46 1.41
-2 4 -2 8.27 0.68
2 4 2 7.18 0.49
2 -4 2 7.33 0.54
-2 -4 -2 7.31 0.44
2 -4 2 7.37 0.53
-2 -4 -2 7.39 0.56
-2 -4 -2 7.37 1
-2 -4 -2 7.66 0.48
-1 4 -3 18.89 2.09
-1 4 -3 17.24 1.19
1 4 3 19 0.91
1 4 3 19.8 2.41
-1 4 -3 18.78 0.85
1 4 3 15.6 2.17
-1 4 -3 17.84 1.93
1 4 3 19.57 1.08
-1 4 -3 19.67 1.14
1 -4 3 20.06 0.96
-1 -4 -3 20.57 1.72
-1 -4 -3 18.48 0.97
1 -4 3 18.94 0.92
-1 -4 -3 18.3 0.77
-1 -4 -3 20.57 1.05
0 4 4 49.53 2.36
0 4 -4 41.06 2.32
0 4 -4 51.58 3.49
0 4 -4 53.29 2.46
0 4 -4 44.33 2.65
0 4 -4 50.17 1.95
0 4 -4 49.36 3.41
0 4 4 51.86 3.89
0 -4 4 49.12 2.02
0 -4 -4 48.73 1.86
0 -4 -4 48.31 2.02
0 -4 4 49.39 2.06
0 -4 -4 52.11 3.95
0 -4 4 56.41 3.63
0 -4 -4 49.12 2.09
1 4 -5 169.98 6.53
-1 4 5 170.86 9.24
1 4 -5 185.6 7.94
1 4 -5 171.96 8.51
1 4 -5 177.17 7.73
-1 4 5 180.81 7.79
-1 -4 5 173.44 6.73
1 -4 -5 169.64 6.8
1 -4 -5 170.94 6.62
-1 -4 5 175.15 6.57
1 -4 -5 187.72 9.35
1 -4 -5 170.28 8.3
-1 -4 5 171.45 8.55
2 4 -6 29.79 3.19
2 4 -6 35.72 2.1
-2 4 6 37.06 3.83
2 4 -6 33.89 1.68
2 4 -6 32.79 1.45
2 4 -6 32.03 2.03
2 -4 -6 32.97 1.6
-2 -4 6 33.35 1.49
-2 -4 6 34.1 1.54
-2 -4 6 29.82 3.16
2 -4 -6 33.99 1.59
2 -4 -6 33.52 3.94
3 4 -7 414.98 18.75
3 4 -7 423.26 18.82
3 4 -7 415.76 18.66
3 4 -7 417.46 15.48
-3 4 7 431.39 15.38
3 4 -7 432.72 18.11
3 -4 -7 402.3 15.63
-3 -4 7 439.91 15.91
3 -4 -7 399.1 16.03
-4 4 8 101.22 4.12
4 4 -8 95.11 4.88
4 4 -8 104.61 5.24
4 4 -8 107.77 4.15
4 4 -8 109.93 5.28
-4 -4 8 102.21 4.2
4 -4 -8 93.6 5.48
4 -4 -8 110.66 5.05
-4 -4 8 106.21 4.23
4 -4 -8 100.9 4.34
4 -4 -8 105.09 4.33
-5 4 9 165.65 6.56
5 4 -9 169.93 8.1
5 4 -9 167.9 6.56
5 -4 -9 170.92 6.78
-5 -4 9 166.23 6.66
5 -4 -9 167.25 6.83
-5 -4 9 160.29 6.65
5 -4 -9 175.04 7.88
6 4 -10 1.19 0.87
6 4 -10 -0.52 0.47
-6 4 10 -0.22 0.5
6 -4 -10 -0.41 0.59
6 -4 -10 0.21 0.56
-6 -4 10 -0.41 0.71
6 -4 -10 0.03 0.57
7 4 -11 10.91 1.45
-7 4 11 13.16 1.11
7 4 -11 13.62 1.16
-7 -4 11 12.04 1.32
7 -4 -11 15.04 1.31
7 -4 -11 15.64 1.23
-8 4 12 2.87 0.92
8 4 -12 4.29 0.87
8 4 -12 3.68 1.15
-8 -4 12 3.58 1.1
8 -4 -12 2.11 0.8
-8 5 4 3.67 1.08
8 5 -4 4.42 1.04
8 5 -4 4 0.62
-7 5 3 29.45 2.53
7 5 -3 32.51 1.69
7 -5 -3 33.03 2.07
-6 5 2 47.04 3.22
6 5 -2 46.67 2.15
6 5 -2 46.53 2.67
6 -5 -2 49.04 2.55
-6 -5 2 47.53 2.38
-5 5 1 52.43 2.6
-5 5 1 58.89 3.41
5 5 -1 53.27 2.34
5 5 -1 51.72 2.83
5 -5 -1 53.5 2.31
5 -5 -1 52.86 2.39
5 -5 -1 53.36 2.62
-5 -5 1 53.95 2.53
-4 5 0 20.93 3.91
4 5 0 13.84 0.87
-4 5 0 16.55 1.28
4 5 0 14.56 1.08
-4 5 0 16.16 1.01
4 -5 0 16.99 1.12
4 -5 0 14.75 0.82
4 -5 0 9.33 2.18
4 -5 0 14.71 0.95
-4 -5 0 15.23 1
-4 -5 0 13.89 1.41
-3 5 -1 22.69 3.23
-3 5 -1 20.4 1.46
3 5 1 20.3 1.25
-3 5 -1 20.19 1.18
3 5 1 20.77 1.03
-3 -5 -1 16.75 1.74
3 -5 1 20.87 1
-3 -5 -1 21.64 1.17
3 -5 1 20.49 1.2
3 -5 1 17.07 2.69
3 -5 1 19.39 1.08
2 5 2 10.82 0.79
2 5 2 10 2.01
-2 5 -2 10.4 0.6
-2 5 -2 10.28 0.74
2 5 2 7.5 2.63
-2 5 -2 10.26 1.9
2 5 2 10.8 0.67
-2 5 -2 9.17 2.14
-2 5 -2 11.65 0.9
-2 -5 -2 8.93 1.33
-2 -5 -2 10.48 0.72
-2 -5 -2 9.35 0.57
2 -5 2 10.56 0.75
2 -5 2 10.97 0.71
1 5 3 48.78 2.08
-1 5 -3 50.32 3.88
1 5 3 51.04 2.43
-1 5 -3 46.74 2.75
1 5 3 49.55 4.39
-1 5 -3 49.52 2.42
-1 5 -3 50.31 2.02
1 5 3 51.15 4.26
-1 5 -3 47.88 3.66
-1 -5 -3 52.2 3.39
1 -5 3 49.34 2.09
-1 -5 -3 50.88 2.2
-1 -5 -3 49.39 1.93
1 -5 3 48.46 2.16
0 5 -4 79.2 3.09
0 5 -4 66.97 4.15
0 5 -4 79.27 4.97
0 5 4 79.17 3.67
0 5 4 71.9 5.17
0 5 -4 82.9 3.73
0 5 4 81.87 3.19
0 5 -4 78.47 5.02
0 5 4 89.74 5.94
0 -5 -4 74.61 5.25
0 -5 -4 85.44 3.9
0 -5 -4 77.98 3.16
0 -5 4 79.72 3.25
0 -5 -4 77.35 2.98
0 -5 -4 81.09 3.31
0 -5 4 81.88 3.17
1 5 -5 140.96 5.47
-1 5 5 147.53 6.47
1 5 -5 141.87 7.75
1 5 -5 153.38 6.57
1 -5 -5 138.64 5.36
-1 -5 5 147.9 5.54
-1 -5 5 147.4 5.68
-1 -5 5 151.79 8.06
1 -5 -5 147.69 5.58
1 -5 -5 146.12 5.77
1 -5 -5 139.03 8.23
1 -5 -5 132.08 6.97
2 5 -6 129.2 7.67
-2 5 6 142.39 6.2
2 5 -6 136.21 5.22
2 5 -6 144.48 6.44
2 5 -6 122.68 6.49
2 -5 -6 131.72 5.51
-2 -5 6 139.25 5.39
-2 -5 6 135.81 5.27
2 -5 -6 142.13 5.37
3 5 -7 17.29 1.44
3 5 -7 19.27 1.63
3 5 -7 20.57 1.04
-3 -5 7 18.52 1.02
-3 -5 7 19.23 1.12
3 -5 -7 17.9 1.16
3 -5 -7 18.44 1.17
4 5 -8 0.99 0.71
4 5 -8 2.15 0.38
4 5 -8 2.96 1.04
4 -5 -8 2.7 0.49
-4 -5 8 2.04 0.37
4 -5 -8 1.74 0.58
-5 5 9 25.33 1.42
5 5 -9 26.34 1.94
5 5 -9 23.79 1.38
5 5 -9 27 2.08
5 -5 -9 24.25 1.56
5 -5 -9 25.52 1.58
-5 -5 9 25.34 1.4
-5 -5 9 23.62 1.53
-6 5 10 8.96 0.9
6 5 -10 7.12 1.3
6 5 -10 9.32 0.82
-6 -5 10 8.16 0.93
6 -5 -10 10.83 0.95
6 -5 -10 9.52 1.06
-6 -5 10 8.86 0.79
-7 5 11 17.26 1.37
7 5 -11 15.42 1.66
7 5 -11 16.88 1.31
-7 -5 11 14.95 1.49
7 -5 -11 17.84 1.47
7 -5 -11 18.47 1.38
8 5 -12 0.98 1.3
8 5 -12 0.72 0.62
-8 5 12 0.5 0.87
8 -5 -12 -1.36 0.95
-8 -5 12 1.04 0.94
-8 6 4 0.5 1.33
8 6 -4 -0.28 0.75
8 6 -4 -0.14 0.69
8 -6 -4 0.53 0.85
7 6 -3 0.77 0.44
7 6 -3 -0.09 0.82
-7 6 3 0.5 0.91
7 -6 -3 -0.23 0.66
7 -6 -3 0.24 0.9
6 6 -2 0.24 0.49
6 6 -2 -0.04 0.5
-6 6 2 0.34 0.79
6 -6 -2 0 0.61
6 -6 -2 0.43 0.7
-6 -6 2 -0.51 0.46
5 6 -1 8.4 0.96
5 6 -1 8.17 0.75
-5 6 1 8.27 1.14
5 -6 -1 7.85 0.62
-5 -6 1 8.56 0.86
5 -6 -1 8 0.96
5 -6 -1 6.02 0.76
-4 6 0 4.07 0.58
4 6 0 5.32 0.59
4 6 0 5.3 0.72
-4 6 0 5.17 0.84
4 -6 0 4.84 0.5
-4 -6 0 2.73 1.04
4 -6 0 5.16 0.58
-4 -6 0 4.73 0.64
4 -6 0 5.82 0.75
-3 6 -1 2.9 0.47
-3 6 -1 2.95 0.33
3 6 1 2.15 0.43
-3 6 -1 1.86 0.57
3 6 1 1.62 0.48
-3 -6 -1 1.45 0.47
-3 -6 -1 1.78 1.07
3 -6 1 2.37 0.32
3 -6 1 2.3 0.45
-2 6 -2 1.9 1.91
-2 6 -2 -0.02 0.35
2 6 2 0.14 0.38
-2 6 -2 0.11 0.38
-2 6 -2 0.54 0.28
2 6 2 -0.03 0.23
2 -6 2 0.33 0.37
2 -6 2 0.06 0.41
-2 -6 -2 0.67 0.99
-2 -6 -2 0.99 0.33
-1 6 -3 99.66 3.88
-1 6 -3 93.3 6.01
1 6 3 100.67 4.59
1 6 3 96.41 3.95
-1 6 -3 100.7 4.53
1 -6 3 100.58 4.11
1 -6 3 99.96 3.95
-1 -6 -3 103.02 4.15
0 6 4 -0.24 0.36
0 6 -4 1.33 1.64
0 6 -4 0.07 0.37
0 6 -4 0.29 0.29
0 6 4 0.38 0.28
0 -6 -4 -0.12 0.28
0 -6 4 0.51 0.36
-1 6 5 32.03 1.71
1 6 -5 35.38 2
1 6 -5 32.62 1.48
1 -6 -5 27.85 2.03
-1 -6 5 33.95 1.59
1 -6 -5 33.14 1.69
1 -6 -5 33.19 1.6
-1 -6 5 35.29 1.59
-2 6 6 34.43 1.85
2 6 -6 35.05 1.62
2 6 -6 37.73 2.33
2 -6 -6 33.66 1.54
-2 -6 6 35.03 1.67
2 -6 -6 36.72 1.74
-2 -6 6 33.67 1.68
2 -6 -6 37.77 1.88
3 6 -7 10.59 1.15
3 6 -7 11.18 1.24
3 6 -7 11.69 0.75
-3 -6 7 12.02 0.9
-3 -6 7 11.53 0.81
3 -6 -7 9.91 0.83
3 -6 -7 10.72 0.89
4 6 -8 32 2.48
4 6 -8 39.02 1.88
4 6 -8 43.03 2.74
4 -6 -8 38.95 2.1
-4 -6 8 39.53 1.99
4 -6 -8 41.46 2.09
-4 -6 8 41.7 1.94
5 6 -9 -0.27 0.83
5 6 -9 2.22 1.19
5 6 -9 1.72 0.56
5 -6 -9 1.02 0.51
-5 -6 9 0.8 0.68
-5 -6 9 0.22 0.5
5 -6 -9 1.39 0.53
6 6 -10 4.71 0.79
6 6 -10 3.83 1.22
6 6 -10 6.42 1.55
6 -6 -10 7.61 1.03
-6 -6 10 6.81 0.9
-6 -6 10 6.64 0.79
6 -6 -10 7.38 1.03
7 6 -11 4.76 0.73
7 6 -11 3.9 1.41
7 6 -11 4.86 1.13
7 -6 -11 4.27 0.81
-7 -6 11 3.9 0.88
7 -6 -11 3.59 0.91
7 7 -3 0.13 0.53
-7 7 3 1.09 1.13
7 7 -3 0.32 0.89
-7 -7 3 0.81 0.7
7 -7 -3 0.35 0.69
7 -7 -3 0.93 0.99
6 7 -2 10.52 0.91
-6 7 2 6.87 1.22
6 -7 -2 8.91 1.02
-6 -7 2 10.96 1.02
6 -7 -2 8.07 0.89
5 7 -1 0.12 0.65
-5 7 1 0.94 0.85
5 7 -1 0.85 0.54
5 -7 -1 -0.23 0.42
5 -7 -1 0.63 0.74
-5 -7 1 0.34 0.62
-4 7 0 0.47 0.87
4 7 0 1.51 0.47
-4 7 0 1.02 0.32
4 7 0 1.04 0.48
4 -7 0 2.16 0.38
-4 -7 0 1.5 0.61
-4 -7 0 1.54 1.21
4 -7 0 2.44 0.55
4 -7 0 2.13 0.55
-3 7 -1 6.67 0.58
3 7 1 5.97 0.64
3 7 1 5.99 0.72
-3 7 -1 6.07 0.71
-3 -7 -1 7.09 0.77
3 -7 1 6.69 0.81
-3 -7 -1 4.14 1.36
3 -7 1 6.59 0.62
2 7 2 25.13 1.37
-2 7 -2 26.64 1.52
2 7 2 28.24 1.57
-2 7 -2 28.3 1.32
2 -7 2 26.15 1.41
-2 -7 -2 26.54 1.51
2 -7 2 26.92 1.48
-1 7 -3 0.42 0.32
1 7 3 0.81 0.43
1 7 3 1.41 0.43
-1 7 -3 0.28 0.44
1 -7 3 0.76 0.32
-1 -7 -3 0.76 0.41
0 7 4 8.13 0.72
0 7 4 8.25 0.71
0 7 -4 8.59 0.81
0 7 -4 8.91 0.63
0 -7 4 7.4 0.64
0 -7 -4 8.37 0.75
0 -7 4 9.29 0.7
1 7 -5 6.18 0.86
-1 7 5 7.18 0.64
1 7 -5 6.56 0.59
1 -7 -5 5.78 0.59
1 -7 -5 7.52 0.75
-1 -7 5 6.93 0.67
-1 -7 5 6.85 0.62
2 7 -6 47.35 2.12
2 7 -6 48.06 2.8
2 -7 -6 47.43 2.42
2 -7 -6 49.53 2.26
-2 -7 6 47.35 2.2
-2 -7 6 47.59 2.23
3 7 -7 0.55 0.96
3 7 -7 1.99 0.39
-3 -7 7 2.85 0.51
3 -7 -7 2.67 0.72
3 -7 -7 2.32 0.51
-3 -7 7 2.09 0.58
4 7 -8 0.9 0.46
4 7 -8 -0.73 1.06
-4 -7 8 -0.44 0.53
4 -7 -8 -0.13 0.46
-4 -7 8 0.4 0.44
4 -7 -8 0.78 0.53
5 7 -9 1.77 1.12
5 7 -9 0.47 0.49
5 7 -9 -1.42 1.29
-5 -7 9 0.92 0.76
5 -7 -9 -0.83 0.73
-5 -7 9 1.51 0.55
6 7 -10 9.57 0.89
6 7 -10 11.64 1.86
6 7 -10 5.75 1.33
-6 -7 10 10.92 1.11
-6 -7 10 8.64 0.99
6 -7 -10 7.32 1.15
6 -7 -10 7.62 1.09
6 8 -2 3.13 0.7
6 8 -2 0.1 0.86
-6 8 2 0.77 0.91
6 -8 -2 2.03 0.81
-6 -8 2 2.71 0.67
6 -8 -2 1.61 0.76
5 8 -1 6.67 0.96
5 8 -1 6.28 0.81
-5 -8 1 6.17 0.8
5 -8 -1 6.58 0.89
5 -8 -1 8.35 1.12
4 8 0 3.37 0.64
-4 8 0 3.16 0.6
4 8 0 2.56 0.68
-4 -8 0 3.72 0.78
4 -8 0 3.51 0.84
4 -8 0 3.49 0.7
-3 8 -1 5.62 0.63
3 8 1 4.4 0.8
3 8 1 5.92 0.62
-3 -8 -1 6.98 0.84
3 -8 1 5.92 0.64
3 -8 1 6.19 0.83
2 8 2 0.52 0.48
2 -8 2 0.4 0.52
-2 -8 -2 1.15 1.39
-2 -8 -2 1.36 0.48
2 -8 2 0.55 0.38
1 8 3 2.32 0.53
-1 8 -3 1.96 0.41
-1 8 -3 1.26 0.64
1 -8 3 2.53 0.57
1 -8 3 2.29 0.61
-1 -8 -3 2.82 0.67
0 8 -4 1.72 0.65
0 8 -4 -0.47 0.39
0 -8 4 0.55 0.46
0 -8 4 0.37 0.35
0 -8 -4 0.09 0.42
1 8 -5 1.65 0.45
-1 8 5 1.73 0.44
1 8 -5 2.17 0.73
1 -8 -5 2.76 0.72
-1 -8 5 1.1 0.53
-1 -8 5 1.82 0.43
2 8 -6 2.46 0.91
-2 8 6 1 0.57
-2 -8 6 1.29 0.57
-2 -8 6 1.26 0.43
3 8 -7 62.4 2.72
3 8 -7 58.87 3.56
3 -8 -7 59.44 2.85
-3 -8 7 62.88 2.82
-3 -8 7 61.18 2.8
3 -8 -7 60.34 3.06
4 8 -8 1.04 1.21
4 8 -8 -0.09 0.53
-4 -8 8 1.01 0.61
4 -8 -8 0.87 0.76
-4 -8 8 1.61 0.57
4 -8 -8 0.47 0.83
5 8 -9 16.04 1.92
5 8 -9 20.41 1.31
-5 -8 9 17.43 1.32
-5 -8 9 20.78 1.52
5 -8 -9 17.89 1.59
5 -8 -9 18.07 1.4
4 9 0 0.09 0.42
4 -9 0 0.85 0.7
-4 -9 0 0.03 0.78
4 -9 0 0.29 0.79
3 9 1 34.45 1.87
-3 9 -1 36.68 1.81
3 -9 1 35.72 1.87
-3 -9 -1 35.83 2.08
3 -9 1 35.78 2.1
2 9 2 0.94 0.59
-2 9 -2 1.58 0.41
-2 -9 -2 1.99 1.58
-2 -9 -2 0.58 0.69
2 -9 2 1.24 0.72
2 -9 2 0.14 0.54
1 9 3 26.83 1.54
-1 9 -3 28.79 1.49
1 -9 3 30.08 1.72
1 -9 3 29 1.59
-1 -9 -3 30.01 1.79
0 9 -4 4.89 0.57
0 9 4 5.45 0.66
0 -9 -4 5.05 0.76
0 -9 4 5.79 0.71
0 -9 4 5.35 0.78
1 9 -5 4.74 1.04
-1 9 5 5.82 0.69
1 9 -5 5.99 0.68
1 -9 -5 5.52 0.9
-1 -9 5 5.59 0.68
-1 -9 5 6.43 0.82
-2 9 6 24.59 1.55
2 9 -6 25.72 1.44
2 9 -6 25.75 2.02
2 -9 -6 25.33 1.79
-2 -9 6 24.49 1.54
-2 -9 6 23.87 1.45
3 9 -7 2.2 0.62
3 9 -7 1 0.86
-3 9 7 -0.41 0.69
3 -9 -7 0.23 0.62
3 -9 -7 0.11 0.71
-3 -9 7 0.66 0.7
4 9 -8 -0.76 0.98
4 9 -8 -0.52 0.44
4 -9 -8 0.93 0.89
-4 -9 8 -0.48 0.7
-4 -9 8 0.96 0.59
4 -9 -8 0.72 0.81
2 10 2 8.93 0.97
-2 10 -2 6.91 0.85
2 -10 2 7.27 1.07
2 -10 2 8.23 0.97
-2 -10 -2 8.01 0.99
1 10 3 12.28 1.09
-1 10 -3 9.84 0.91
1 -10 3 11.84 1.08
-1 -10 -3 11.55 1.12
1 -10 3 10.69 1.03
0 10 4 28.7 1.68
0 10 -4 27.81 1.5
0 -10 4 24.49 1.62
0 -10 -4 29.7 1.95
0 -10 4 24.77 1.6
-1 10 5 13.3 1.09
1 10 -5 13.58 1.04
-1 -10 5 14.84 1.12
1 -10 -5 13.17 1.42
-1 -10 5 15.34 1.22
10 0 -5 1.1 0.68
10 0 -5 0.19 0.89
-10 0 5 1.39 1.09
-10 0 5 0.45 0.91
9 0 -4 35.68 2.33
9 0 -4 40.61 2.39
-9 0 4 36.89 2.11
8 0 -3 0.9 0.75
-8 0 3 -0.7 0.69
8 0 -3 -0.52 0.61
-8 0 3 0.37 0.58
-7 0 2 25.26 1.82
7 0 -2 25.78 1.65
7 0 -2 24.8 1.48
-7 0 2 25.03 1.38
7 0 -2 21.47 1.53
6 0 -1 -0.87 0.56
6 0 -1 0.58 0.42
6 0 -1 -0.23 0.38
-6 0 1 -0.72 0.54
-6 0 1 -1.14 2.6
6 0 -1 -0.18 0.33
-6 0 1 0.25 0.26
5 0 0 8.87 0.72
-5 0 0 8.05 1.69
5 0 0 5.27 2.29
-5 0 0 8.63 0.81
5 0 0 7.74 0.67
5 0 0 7.62 0.77
-5 0 0 7.56 0.74
5 0 0 8.13 0.59
-5 0 0 8.09 0.58
-4 0 -1 1.13 0.81
-4 0 -1 -0.22 0.35
4 0 1 -1.63 1.16
4 0 1 0.42 0.29
-4 0 -1 0.13 0.26
4 0 1 -0.11 0.23
4 0 1 -0.19 0.17
4 0 1 0.52 0.27
-3 0 -2 193.11 7.79
3 0 2 190.73 7.41
3 0 2 202.81 8.04
-3 0 -2 191.96 8.09
-3 0 -2 191.32 9.84
3 0 2 193.46 8.35
3 0 2 185.44 7
-3 0 -2 179.97 9.09
3 0 2 181.59 8.41
2 0 3 -0.02 0.09
-2 0 -3 0.17 0.29
-2 0 -3 -0.38 0.28
-2 0 -3 0.1 0.25
2 0 3 0.09 0.17
2 0 3 -0.2 0.17
2 0 3 0.21 0.19
-2 0 -3 -0.37 0.24
-1 0 -4 230.01 10.28
1 0 4 235.78 9.49
-1 0 -4 217.85 9.55
1 0 4 229.62 8.27
1 0 4 219.84 8.58
-1 0 -4 223.93 10.84
1 0 4 238.06 9.97
0 0 5 -0.77 0.74
0 0 -5 -0.44 0.17
0 0 -5 0.08 0.12
0 0 5 -0.14 0.15
0 0 -5 -0.15 0.23
0 0 -5 -0.07 0.27
0 0 -5 0.59 0.69
0 0 5 -0.29 0.11
-1 0 6 250.68 8.9
-1 0 6 242.86 10.09
1 0 -6 248.09 10.23
1 0 -6 235.17 9.01
1 0 -6 246.74 11.53
-1 0 6 242 11.18
1 0 -6 242.3 11.05
1 0 -6 242.2 11.42
1 0 -6 231.86 10.76
-2 0 7 -0.27 0.27
2 0 -7 0.32 0.37
2 0 -7 0 0.11
2 0 -7 1.61 1.39
2 0 -7 -0.09 0.2
2 0 -7 -0.02 0.17
2 0 -7 -0.4 0.32
2 0 -7 -0.68 0.47
-2 0 7 -0.4 1.46
-3 0 8 668.38 23.04
-3 0 8 635.12 27.21
3 0 -8 681.32 27.59
3 0 -8 596.74 27.45
3 0 -8 656.85 26.26
3 0 -8 612.94 29.3
3 0 -8 609.12 23.16
3 0 -8 592.16 23.62
3 0 -8 607.73 28.44
-4 0 9 1.9 3.31
4 0 -9 0.02 0.25
4 0 -9 0.43 0.52
4 0 -9 1.1 3.01
4 0 -9 0.08 0.43
4 0 -9 -0.13 0.56
-4 0 9 -0.03 0.45
4 0 -9 0 0.27
4 0 -9 0 0.25
5 0 -10 57.98 3.27
5 0 -10 60.67 3.45
5 0 -10 53.32 2.6
-5 0 10 56.05 2.64
5 0 -10 51.64 2.46
6 0 -11 -1 0.62
6 0 -11 0.14 0.56
-6 0 11 1.49 0.68
6 0 -11 -0.12 0.42
7 0 -12 10.13 1.04
7 0 -12 11.74 1.04
7 0 -12 9.07 1.31
-7 0 12 11.89 1.16
8 0 -13 0.59 0.73
-8 0 13 -0.59 0.85
9 0 -14 16.89 1.99
9 0 -14 20.16 1.64
-9 0 14 16.64 1.55
-10 1 5 3.72 0.99
10 1 -5 1.5 0.87
10 1 -5 1.23 1.08
-10 -1 5 -0.63 1.07
-10 -1 5 2.14 1.19
10 -1 -5 3.9 0.96
9 1 -4 0.21 0.73
-9 1 4 0.68 0.54
-9 1 4 0.16 0.9
9 1 -4 1.12 0.72
-9 -1 4 -0.52 0.83
9 -1 -4 0.24 0.65
-9 -1 4 0.29 0.78
-8 1 3 9.03 1.2
8 1 -3 8.95 1.1
8 1 -3 6.14 0.94
-8 1 3 9.23 0.89
8 -1 -3 7.18 0.83
-8 -1 3 9.22 0.84
8 -1 -3 9.06 1.03
8 -1 -3 8.33 0.92
-7 1 2 12.19 0.87
7 1 -2 10.42 0.86
7 1 -2 12.19 0.86
-7 1 2 11.32 1.24
7 1 -2 11.88 1.12
7 1 -2 12.07 1.06
-7 -1 2 10.83 1.09
7 -1 -2 13.24 1.21
-7 -1 2 12.85 0.95
6 1 -1 18.42 3.66
-6 1 1 21.36 1.57
-6 1 1 16.18 3.38
6 1 -1 18.96 1.3
6 1 -1 21.89 1.29
6 1 -1 20.53 1.13
-6 1 1 21.5 1.12
6 1 -1 21.28 1.32
6 -1 -1 21.97 1.39
6 -1 -1 19.42 1.13
-6 -1 1 15.47 2.54
-6 -1 1 21.38 1.15
6 -1 -1 19.98 1.27
-6 -1 1 23.87 1.57
-5 1 0 86.79 4.58
-5 1 0 82.11 4.96
5 1 0 76.48 5.47
5 1 0 80.84 3.68
5 1 0 85.1 3.55
5 1 0 80.23 3.22
5 1 0 81.77 3.84
5 -1 0 79.11 3.25
-5 -1 0 83.04 3.22
5 -1 0 75.93 5.58
5 -1 0 82.26 3.78
-5 -1 0 82.4 4.1
-5 -1 0 73.65 4.75
5 -1 0 81.19 3.59
-5 -1 0 82.93 4.51
4 1 1 6.83 0.42
4 1 1 6.67 1.51
4 1 1 7.54 0.62
-4 1 -1 9.42 1.43
-4 1 -1 7.57 0.72
-4 1 -1 6.27 0.62
4 1 1 7.57 0.57
-4 -1 -1 6.88 0.71
-4 -1 -1 6.14 1.22
4 -1 1 5.85 0.41
-4 -1 -1 6.77 0.43
4 -1 1 5.09 1.38
4 -1 1 6.69 0.53
-4 -1 -1 6.69 0.62
4 -1 1 6.81 0.66
-3 1 -2 218.27 10.04
-3 1 -2 259.54 9.68
-3 1 -2 228.14 11.36
3 1 2 229.18 10.05
3 1 2 229.66 8.72
3 1 2 243.17 10.42
3 1 2 237.03 9.98
-3 1 -2 247.46 12.26
3 -1 2 238.46 8.69
3 -1 2 245.47 10.36
-3 -1 -2 234.12 9.83
-3 -1 -2 223.2 12.21
3 -1 2 240.46 9.21
3 -1 2 246.29 9.76
-3 -1 -2 251.44 11.35
-2 1 -3 33.81 2.03
2 1 3 34.75 1.72
2 1 3 34.56 1.31
2 1 3 31.23 1.67
-2 1 -3 32.14 1.69
2 1 3 36.28 2.07
2 1 3 34.56 1.33
2 1 3 36.76 2.06
-2 1 -3 36.16 1.96
-2 -1 -3 35.26 1.69
2 -1 3 34.28 1.5
-2 -1 -3 35.76 1.98
-2 -1 -3 32.46 1.75
2 -1 3 35.94 1.67
2 -1 3 35.42 1.4
-1 1 -4 117.06 6.87
-1 1 -4 133.24 5.69
1 1 4 138.38 5.92
1 1 4 130.5 5.7
1 1 4 132.64 4.8
1 1 4 117.99 5.63
1 1 4 132.73 4.86
-1 1 -4 127.77 6.43
-1 1 -4 131.51 6.07
1 1 4 138.63 5.91
-1 -1 -4 138.22 5.05
-1 -1 -4 124.09 4.85
1 -1 4 143.28 5.62
-1 -1 -4 139.04 6.52
1 -1 4 132.89 4.88
1 -1 4 129.82 5.02
-1 -1 -4 128.26 5.63
-1 -1 -4 129.35 6.06
1 -1 4 147.5 5.89
-1 -1 -4 131.41 5.69
0 1 5 667.29 23.1
0 1 -5 651.28 26.48
0 1 -5 624.36 28.5
0 1 5 651.88 25.47
0 1 -5 611.34 29.83
0 1 5 618.94 26.27
0 1 -5 680.17 25.19
0 1 -5 604.96 23.27
0 1 -5 630.62 27.6
0 -1 -5 649.12 28.54
0 -1 5 692.68 24.64
0 -1 5 716.91 26.19
0 -1 -5 604.26 23.87
0 -1 -5 625.92 26.37
0 -1 -5 636.68 25.07
0 -1 5 600.06 23.89
0 -1 -5 608.53 23.29
0 -1 5 666.17 23.14
0 -1 -5 633.62 29.93
1 1 -6 99.77 4.97
-1 1 6 102.19 3.86
1 1 -6 102.27 5.71
1 1 -6 104.63 4.54
-1 1 6 105.8 6.16
1 1 -6 106.66 4.77
1 1 -6 101.14 3.85
1 -1 -6 96.95 5.87
1 -1 -6 97.79 4.35
-1 -1 6 100.04 3.82
1 -1 -6 97.97 5.06
1 -1 -6 97.58 3.89
-1 -1 6 99.79 4.29
1 -1 -6 110.57 4.9
-1 -1 6 104.85 5.31
1 -1 -6 92.87 3.82
-1 -1 6 97.53 3.81
1 -1 -6 97.69 4.7
2 1 -7 354.63 15.61
2 1 -7 359.98 13.01
2 1 -7 360.36 16.52
2 1 -7 369.89 16.16
2 1 -7 368.08 15.94
-2 1 7 369.39 12.97
2 1 -7 336.52 14.87
-2 1 7 370.71 16.63
2 -1 -7 330.97 14.65
2 -1 -7 316.69 13.23
-2 -1 7 357.59 15.55
2 -1 -7 337.25 15.52
-2 -1 7 352.36 12.9
2 -1 -7 347.12 13.06
2 -1 -7 346.67 16.61
2 -1 -7 350 16.11
-2 -1 7 346.28 14.46
2 -1 -7 363.24 16.57
3 1 -8 63.51 3.52
-3 1 8 69.84 2.88
3 1 -8 67.38 5.61
3 1 -8 65.33 2.81
-3 1 8 65.73 5.71
3 1 -8 68.98 2.75
3 1 -8 67.47 3.42
3 1 -8 68.93 3.41
3 1 -8 71.67 3.65
-3 -1 8 68.9 2.85
3 -1 -8 66.37 3.18
3 -1 -8 70.31 3.56
3 -1 -8 72.79 3.8
3 -1 -8 66.47 2.78
-3 -1 8 61.48 5.17
3 -1 -8 65.48 3.51
3 -1 -8 69.43 5.99
3 -1 -8 67.72 2.89
4 1 -9 1.95 0.44
4 1 -9 1.65 0.5
4 1 -9 1.49 0.34
4 1 -9 2.36 0.34
4 1 -9 2.52 2.93
-4 1 9 2.61 0.53
4 1 -9 0.78 0.66
4 -1 -9 1.41 0.38
4 -1 -9 1.03 0.41
4 -1 -9 1.33 3.02
4 -1 -9 2.39 0.7
4 -1 -9 2.1 0.46
-4 -1 9 4.84 2.51
4 -1 -9 1.57 0.35
-4 -1 9 1.49 0.51
4 -1 -9 1.54 0.59
5 1 -10 7.8 0.81
5 1 -10 8.53 1.13
-5 1 10 9.31 0.88
5 1 -10 6.47 1.06
5 1 -10 8.74 0.7
5 -1 -10 9.9 0.83
5 -1 -10 7.97 0.69
5 -1 -10 10.95 1.08
-5 -1 10 9.29 0.91
-6 1 11 3.8 0.62
6 1 -11 3.45 0.95
6 1 -11 3.2 0.58
6 1 -11 5.37 1.05
6 1 -11 4.73 0.79
6 -1 -11 3.52 0.61
6 -1 -11 4.63 0.84
6 -1 -11 3.41 0.6
-6 -1 11 5.1 0.86
7 1 -12 0.64 0.93
-7 1 12 2.45 0.73
7 1 -12 2.25 0.72
-7 -1 12 3.3 0.82
7 -1 -12 2.97 0.79
7 -1 -12 2.67 0.95
8 1 -13 9.82 1.55
8 1 -13 9.74 1.21
-8 1 13 8.79 1.12
-8 -1 13 10.31 1.09
8 -1 -13 8.56 1.08
8 -1 -13 8.9 1.44
9 1 -14 2.94 1.2
-9 1 14 2.33 0.77
9 1 -14 3.43 1.07
9 1 -14 0.49 1.52
9 -1 -14 5.12 0.87
9 -1 -14 4.33 1.25
-9 -1 14 5.84 1.15
9 2 -4 1.78 0.73
9 2 -4 1.94 0.88
-9 2 4 2.26 1.07
9 -2 -4 3.26 1.01
-8 2 3 6.56 1.15
8 2 -3 9.35 1.06
-8 -2 3 5.83 0.97
-8 -2 3 9.69 1.05
7 2 -2 -0.22 0.58
7 2 -2 0.58 0.58
-7 2 2 0.61 0.72
7 2 -2 0.5 0.44
-7 -2 2 0.21 0.41
-7 -2 2 -0.08 0.48
7 -2 -2 -0.48 0.67
6 2 -1 42.57 2.19
-6 2 1 42.21 2.73
6 2 -1 41.97 1.88
6 2 -1 41.46 2.3
6 -2 -1 44.73 2.29
-6 -2 1 43.1 1.94
-6 -2 1 46.25 2.64
6 -2 -1 37.75 2.14
-6 -2 1 41.06 4.34
5 2 0 7.88 0.69
-5 2 0 8.29 0.7
5 2 0 7.15 0.51
-5 2 0 8.63 0.89
-5 2 0 9.72 2.52
5 2 0 8.23 0.74
5 2 0 8.3 2.29
-5 -2 0 9.38 1.96
-5 -2 0 8.62 0.72
-5 -2 0 8.62 0.82
5 -2 0 8.24 0.56
-5 -2 0 8.14 0.57
5 -2 0 7.87 0.62
5 -2 0 7.82 0.8
-4 2 -1 52.77 3.94
-4 2 -1 50.45 2.44
4 2 1 51.89 2.44
4 2 1 49.82 2.01
-4 2 -1 51.33 2.95
4 2 1 47.4 3.48
4 2 1 49.67 2.48
-4 -2 -1 50.61 2.69
-4 -2 -1 50.31 2.87
-4 -2 -1 48.69 3.39
-4 -2 -1 50.49 2
4 -2 1 50.76 2.36
4 -2 1 46.63 3.27
4 -2 1 49.65 1.99
4 -2 1 49.39 2.33
-3 2 -2 165.27 8.21
-3 2 -2 158.36 7.59
3 2 2 155.65 6.73
-3 2 -2 149.97 6.72
3 2 2 156.09 6.97
3 2 2 162.54 7.43
3 2 2 154.15 5.81
-3 -2 -2 150.81 7.19
-3 -2 -2 139.94 8.12
-3 -2 -2 165.65 7.67
3 -2 2 158.6 6.84
3 -2 2 157.32 6.79
-3 -2 -2 161.82 6.14
-3 -2 -2 151.31 5.72
3 -2 2 156.78 5.75
3 -2 2 162.27 5.87
3 -2 2 153.04 6.15
-2 2 -3 14.57 1.35
-2 2 -3 14.35 0.58
2 2 3 16.44 1.63
2 2 3 13.89 0.95
2 2 3 15 1.55
-2 2 -3 15.24 1.03
-2 2 -3 14.17 0.89
2 2 3 15.46 0.66
2 2 3 14.35 0.86
-2 2 -3 13.19 0.98
2 -2 3 14.55 0.72
2 -2 3 14.5 0.76
2 -2 3 15.18 0.79
-2 -2 -3 14.78 1.11
-2 -2 -3 14.64 0.85
-2 -2 -3 12.28 1
-2 -2 -3 14.84 0.76
-1 2 -4 495.95 18.56
-1 2 -4 484.58 25.85
-1 2 -4 514.13 22.85
-1 2 -4 496.67 19.63
-1 2 -4 530.9 21.24
1 2 4 558.19 20.55
1 2 4 524.48 22.09
-1 2 -4 548.74 19.68
1 2 4 502.52 20.26
1 2 4 527.93 18.64
-1 -2 -4 517.31 22.81
-1 -2 -4 489.25 19.19
-1 -2 -4 489.38 18.62
1 -2 4 522.94 19.18
-1 -2 -4 505.16 21.12
1 -2 4 522.33 18.55
-1 -2 -4 475.83 24.07
-1 -2 -4 510.08 20.26
0 2 5 0.97 0.81
0 2 -5 2.85 0.46
0 2 -5 2.19 0.39
0 2 5 2.88 0.17
0 2 -5 2.51 0.35
0 2 5 2.45 0.4
0 2 -5 2.89 0.2
0 2 -5 2.7 0.79
0 2 -5 3.1 0.39
0 -2 5 2.76 0.26
0 -2 -5 2.58 0.26
0 -2 -5 2.79 0.56
0 -2 -5 3.36 1.1
0 -2 -5 2.78 0.25
0 -2 -5 2.27 0.39
0 -2 5 2.88 0.21
0 -2 5 2.88 0.75
0 -2 -5 2.57 0.21
1 2 -6 24.46 1.51
-1 2 6 23.54 2.73
1 2 -6 24.72 1.07
1 2 -6 24.88 1.46
1 2 -6 25.19 1.36
1 2 -6 26.77 2.41
-1 2 6 24.78 1.08
-1 -2 6 25.08 1.13
1 -2 -6 26.56 1.6
1 -2 -6 25.45 1.16
1 -2 -6 23.43 1.07
1 -2 -6 27.24 1.7
-1 -2 6 26.05 1.2
1 -2 -6 22.07 2.66
-1 -2 6 25.06 2.08
-1 -2 6 24.42 1.04
1 -2 -6 23.54 1.18
2 2 -7 2.27 1.54
2 2 -7 1.34 0.25
2 2 -7 1.99 0.5
-2 2 7 1.85 1.63
2 2 -7 1 0.38
-2 -2 7 0.98 0.16
-2 -2 7 0.73 0.97
2 -2 -7 0.98 0.21
2 -2 -7 0.54 0.35
2 -2 -7 0.03 0.52
-2 -2 7 1.13 0.19
-2 -2 7 0.84 0.31
2 -2 -7 2.48 1.79
2 -2 -7 1.03 0.32
2 -2 -7 1 0.22
3 2 -8 14.29 0.85
-3 2 8 17.81 3.22
3 2 -8 13.72 1.23
3 2 -8 13.56 2.79
3 2 -8 16.24 1.35
-3 2 8 15.97 0.91
3 2 -8 15.02 1.11
3 -2 -8 15.19 0.96
3 -2 -8 13.94 1.11
-3 -2 8 16.89 2.55
3 -2 -8 18.6 3.17
3 -2 -8 17.35 1.49
3 -2 -8 13.41 0.87
-3 -2 8 14.74 0.91
3 -2 -8 14.19 0.82
3 -2 -8 16.52 1.23
-3 -2 8 14.54 0.77
4 2 -9 44.33 2.04
4 2 -9 38.79 4.94
4 2 -9 52.34 2.76
4 2 -9 41.46 2.55
-4 2 9 43.67 2.06
4 2 -9 42.94 2.68
4 -2 -9 47.92 2.64
-4 -2 9 44.2 2.1
4 -2 -9 42.86 2.53
4 -2 -9 43.86 2.03
4 -2 -9 45.71 2.14
5 2 -10 22.79 1.77
5 2 -10 24.05 1.43
5 2 -10 28.28 1.97
-5 2 10 24.53 1.42
-5 -2 10 24.81 1.53
5 -2 -10 24.51 1.38
5 -2 -10 27.49 1.87
5 -2 -10 25.23 1.49
6 2 -11 55.56 2.54
6 2 -11 49.5 3.23
6 2 -11 54.91 2.67
-6 2 11 57.02 2.65
6 2 -11 54.5 3.32
-6 -2 11 57.2 2.78
6 -2 -11 59.79 3.3
6 -2 -11 56.7 2.72
6 -2 -11 55.34 2.6
-7 2 12 15.69 1.22
7 2 -12 11.31 1.45
7 2 -12 13.59 1.19
7 2 -12 12.61 1.44
7 2 -12 14.89 1.16
7 -2 -12 14.41 1.16
7 -2 -12 13.13 1.36
-7 -2 12 15.69 1.36
7 -2 -12 15.18 1.12
8 2 -13 9.39 1.18
8 2 -13 7.85 1.5
-8 2 13 11.65 1.24
8 -2 -13 10.96 1.3
-8 -2 13 10.71 1.25
8 -2 -13 13.35 1.27
9 3 -4 4.98 1.05
9 3 -4 7.38 1
9 -3 -4 5.44 1.23
-8 3 3 0.26 0.88
8 3 -3 0.43 0.76
8 3 -3 0.23 0.73
8 3 -3 0.72 0.39
8 -3 -3 -1.8 0.86
7 3 -2 13.92 1.2
-7 3 2 13.3 1.44
7 3 -2 14.57 0.95
-7 -3 2 11.08 1.2
7 -3 -2 14.3 1.3
6 3 -1 0.46 0.27
-6 3 1 0.03 0.46
6 3 -1 -0.01 0.46
6 3 -1 0.35 0.55
-6 -3 1 0.21 0.48
6 -3 -1 0.11 0.41
-6 -3 1 -0.07 0.32
-5 3 0 -0.05 0.52
-5 3 0 0.27 0.29
5 3 0 0.12 0.27
5 3 0 -3.03 2.22
5 3 0 1.13 0.46
5 3 0 0.81 0.37
-5 -3 0 0.13 0.39
-5 -3 0 0.46 1.31
5 -3 0 0.8 0.26
5 -3 0 1.02 0.4
-5 -3 0 0.44 0.33
-5 -3 0 0.9 0.35
-4 3 -1 124.25 5.65
4 3 1 131.72 7.23
4 3 1 139.67 5.8
-4 3 -1 134.07 6.92
-4 3 -1 128.66 7.79
4 3 1 127.03 4.89
4 3 1 129.02 5.88
-4 -3 -1 127.94 5.2
-4 -3 -1 129.95 6.8
4 -3 1 130.94 4.98
4 -3 1 127.65 4.84
-4 -3 -1 131.79 6.43
-4 -3 -1 123.23 4.84
4 -3 1 121.07 6.43
4 -3 1 125.23 5.24
-4 -3 -1 129.52 6.89
4 -3 1 127.13 5.67
-3 3 -2 16.83 1.23
3 3 2 14.78 2.05
3 3 2 16.36 1.01
-3 3 -2 16.43 1.04
-3 3 -2 16.62 2.28
3 3 2 16.62 0.8
3 -3 2 16.93 0.88
-3 -3 -2 15.58 0.7
3 -3 2 17.4 0.96
-3 -3 -2 15.27 1.15
-3 -3 -2 16.59 0.93
-3 -3 -2 14.39 1.94
3 -3 2 17.14 0.84
3 -3 2 16.58 0.74
-3 -3 -2 16.72 1.29
3 -3 2 16.95 1.68
-2 3 -3 114.19 5.62
2 3 3 116.13 4.34
2 3 3 122.92 6.08
-2 3 -3 117.27 5.33
2 3 3 118.94 6.04
-2 3 -3 113.58 5.03
2 3 3 113.31 5.19
-2 3 -3 118.66 6.08
-2 3 -3 111.25 4.25
-2 -3 -3 111.67 5.27
2 -3 3 116.94 5.02
-2 -3 -3 113.17 4.52
-2 -3 -3 108.77 5.89
2 -3 3 112.81 4.52
2 -3 3 112.79 4.36
-1 3 -4 16.44 1.5
-1 3 -4 16.16 1.09
-1 3 -4 15.77 0.69
1 3 4 17.1 2.01
1 3 4 16.39 0.77
1 3 4 16.65 0.97
1 3 4 12.45 1.72
-1 3 -4 16.84 1.04
-1 3 -4 18.24 1.6
-1 -3 -4 15.82 1.31
1 -3 4 16.64 0.82
-1 -3 -4 17.3 0.97
1 -3 4 16.35 0.79
-1 -3 -4 15.91 0.81
0 3 -5 57.95 3.5
0 3 5 59.56 2.83
0 3 -5 59.42 2.85
0 3 -5 56.71 2.26
0 3 -5 52.87 3.19
0 3 -5 63.41 2.88
0 3 -5 56.2 2.79
0 3 5 58.73 4.12
0 -3 -5 58.29 2.38
0 -3 -5 57.28 2.33
0 -3 5 56.8 3.47
0 -3 -5 63.51 2.97
0 -3 5 57.21 2.35
0 -3 5 59.91 2.36
0 -3 -5 64.27 3.47
0 -3 -5 57.82 3.97
1 3 -6 3.45 0.3
-1 3 6 6.05 2.03
1 3 -6 3.28 0.59
1 3 -6 6.05 1.27
1 3 -6 4.23 0.39
1 3 -6 3.08 0.54
-1 3 6 3.71 0.26
-1 -3 6 3.38 0.33
1 -3 -6 3.18 0.56
-1 -3 6 3.93 0.3
-1 -3 6 2.14 1.21
1 -3 -6 3.02 0.24
1 -3 -6 3.19 1.75
1 -3 -6 3.73 0.34
1 -3 -6 3.54 0.72
1 -3 -6 4.67 0.42
2 3 -7 29.97 1.32
-2 3 7 29.59 1.31
-2 3 7 31.76 3.9
2 3 -7 29.54 2.9
2 3 -7 29.01 1.92
2 3 -7 29.77 1.6
2 3 -7 29.61 1.88
2 -3 -7 27.76 3.4
-2 -3 7 29.14 1.31
-2 -3 7 29.8 3
-2 -3 7 29.44 1.37
2 -3 -7 29.85 1.44
2 -3 -7 34.81 2.14
2 -3 -7 31.87 2.08
-2 -3 7 27.82 1.36
2 -3 -7 28.77 1.38
3 3 -8 105.38 4.1
-3 3 8 104.93 4.1
3 3 -8 108.62 5
3 3 -8 103.28 6.84
3 3 -8 106.98 5.12
3 3 -8 109.15 5.3
3 -3 -8 86.42 7.18
-3 -3 8 101.38 4.14
-3 -3 8 103.98 4.13
3 -3 -8 101.74 4.26
3 -3 -8 105.79 5.06
3 -3 -8 120.22 5.6
-3 -3 8 96.76 6.42
3 -3 -8 96.5 4.23
4 3 -9 5.61 0.57
4 3 -9 3.91 0.65
4 3 -9 4.97 0.96
-4 3 9 5.42 0.62
4 3 -9 3.26 0.83
4 -3 -9 5.32 0.82
4 -3 -9 4.5 0.56
-4 -3 9 4.95 0.67
4 -3 -9 4.85 0.72
4 -3 -9 5.5 0.7
5 3 -10 96.89 4.7
5 3 -10 78.35 4.44
-5 3 10 87.39 3.73
5 3 -10 85.74 3.66
5 3 -10 83.81 4.65
5 -3 -10 89.09 3.78
5 -3 -10 94.06 4.57
5 -3 -10 90.31 3.86
-5 -3 10 85.28 3.79
6 3 -11 -0.31 0.79
6 3 -11 0.48 0.55
-6 3 11 0.25 0.43
6 3 -11 0.57 0.63
6 -3 -11 0.18 0.73
6 -3 -11 0.58 0.57
-6 -3 11 -0.1 0.65
6 -3 -11 0.6 0.66
7 3 -12 2.22 0.79
7 3 -12 3.12 0.64
7 3 -12 1.71 0.92
-7 3 12 3.76 0.85
7 -3 -12 3.03 0.96
7 -3 -12 2.42 0.65
7 -3 -12 2.96 0.82
-7 -3 12 1 0.73
8 3 -13 11.38 1.19
-8 3 13 7.46 1.12
8 3 -13 8.64 1.56
-8 -3 13 10.04 1.22
8 -3 -13 9.75 1.41
8 -3 -13 12.26 1.29
9 4 -4 8 1.22
9 4 -4 5.53 0.97
9 -4 -4 7.98 1.34
8 4 -3 -0.71 0.85
8 4 -3 -0.28 0.46
-8 4 3 -0.51 1
8 -4 -3 1.16 0.93
7 4 -2 2.11 0.77
-7 4 2 2.42 0.95
7 -4 -2 2.76 0.69
6 4 -1 46.18 2.08
6 4 -1 43.48 2.57
-6 4 1 51.07 3.14
6 -4 -1 47.4 2.44
-5 4 0 13.27 1.22
5 4 0 11.95 1
-5 4 0 12.02 0.93
5 4 0 12.58 0.77
-5 -4 0 10.72 0.99
5 -4 0 11.47 1.02
-5 -4 0 12.94 0.96
5 -4 0 12.68 0.9
-5 -4 0 13.51 1.1
4 4 1 76.41 3.63
4 4 1 68.29 5.23
-4 4 -1 74.55 3.47
-4 4 -1 75.03 6.49
-4 4 -1 76.5 4.26
4 4 1 76.18 3
4 -4 1 74.1 2.92
-4 -4 -1 67.33 5.16
-4 -4 -1 72.87 3.19
4 -4 1 74.88 3.28
-4 -4 -1 77.9 4.09
4 -4 1 75.56 3.06
-3 4 -2 1.89 0.49
3 4 2 3.91 1.66
3 4 2 1.97 0.44
-3 4 -2 2.22 0.44
3 4 2 1.06 0.29
-3 4 -2 0.87 1.09
3 4 2 -0.68 1.68
-3 4 -2 1.85 1.7
3 -4 2 1.06 0.34
3 -4 2 1.38 0.19
3 -4 2 1.12 1.1
-3 -4 -2 1.08 0.67
-3 -4 -2 1.17 0.31
-2 4 -3 8.84 1.66
2 4 3 9.12 0.67
-2 4 -3 9.14 0.79
2 4 3 9.22 1.75
2 4 3 7.25 1.54
2 4 3 8.15 0.53
-2 4 -3 8.41 0.46
-2 4 -3 7.98 1.38
-2 4 -3 8.99 0.68
-2 -4 -3 8.93 0.59
-2 -4 -3 7.94 1
2 -4 3 8.05 0.58
2 -4 3 8.16 0.58
-2 -4 -3 7.58 0.55
1 4 4 55.23 4.03
1 4 4 52.64 2.55
-1 4 -4 53.33 2.92
-1 4 -4 49.51 3.31
-1 4 -4 55.7 2.58
-1 4 -4 49.59 3.38
1 4 4 52.66 2.14
-1 4 -4 49.96 2.05
1 4 4 55.37 4.12
1 -4 4 50.84 2.19
-1 -4 -4 49.25 2.21
1 -4 4 51.52 2.15
-1 -4 -4 53.4 2.57
-1 -4 -4 55.37 3.31
0 4 -5 39.9 3.09
0 4 -5 41.06 2.13
0 4 5 48.76 4.02
0 4 -5 42.1 3.1
0 4 -5 38.81 1.64
0 4 -5 37.23 2.01
0 4 5 42.6 2.07
0 -4 -5 39.27 1.72
0 -4 -5 41.66 1.8
0 -4 5 40.91 1.75
0 -4 -5 44.76 2.21
0 -4 -5 39.37 3.41
0 -4 5 39.69 3.12
0 -4 5 41.11 1.74
0 -4 -5 37.24 1.53
-1 4 6 18.17 3.11
1 4 -6 20.83 0.99
1 4 -6 17.95 1.37
1 4 -6 21.96 1.48
-1 4 6 23.95 1.31
1 4 -6 21.9 2.53
1 4 -6 22.02 1.21
1 -4 -6 22.2 1.11
1 -4 -6 22.97 1.12
1 -4 -6 22.8 1.55
1 -4 -6 24.96 1.92
-1 -4 6 19.56 2.45
-1 -4 6 20.57 1.07
1 -4 -6 22 3.1
-1 -4 6 20.89 1.02
2 4 -7 189.24 8.45
2 4 -7 181.42 8.38
2 4 -7 192.43 8.72
2 4 -7 175.05 9.36
2 4 -7 187.51 6.98
2 -4 -7 183.88 7.12
2 -4 -7 194.73 9.07
-2 -4 7 178.15 9.32
2 -4 -7 209.88 9.54
2 -4 -7 157.49 10.09
-2 -4 7 189.99 7.16
2 -4 -7 177.48 7.25
-2 -4 7 183.85 7.03
3 4 -8 65.4 2.78
-3 4 8 73.09 2.79
3 4 -8 71.9 3.76
3 4 -8 67.65 3.73
3 4 -8 69.6 3.31
-3 -4 8 66.41 2.85
3 -4 -8 62.65 2.93
3 -4 -8 65.72 3.92
3 -4 -8 68 2.95
-3 -4 8 68.19 2.81
-4 4 9 23.04 1.22
4 4 -9 26.66 1.97
4 4 -9 25.76 1.84
4 4 -9 21.26 1.41
4 4 -9 23.03 1.23
4 -4 -9 23.35 1.41
4 -4 -9 21.83 1.6
-4 -4 9 22.22 1.18
4 -4 -9 22.27 1.31
-4 -4 9 22.72 1.32
4 -4 -9 20.71 1.8
5 4 -10 5.24 0.65
-5 4 10 5.59 0.71
5 4 -10 5.77 1.2
5 4 -10 3.41 0.98
-5 -4 10 4.68 0.67
5 -4 -10 4.95 0.69
5 -4 -10 4.41 0.96
5 -4 -10 5.34 0.93
-5 -4 10 5.31 0.54
5 -4 -10 6.67 0.76
6 4 -11 6.97 1.26
6 4 -11 5.72 1.28
6 4 -11 6.61 0.82
-6 4 11 6.18 0.76
6 -4 -11 6.33 1
-6 -4 11 6.2 1
6 -4 -11 6.22 0.87
6 -4 -11 6.82 0.87
-7 4 12 1.3 0.75
7 4 -12 0.61 0.58
7 4 -12 0.12 1.01
7 -4 -12 -0.44 0.77
7 -4 -12 1.24 0.9
8 4 -13 -1.11 0.94
8 4 -13 -0.41 0.62
8 -4 -13 1.96 0.88
-8 -4 13 -1.58 0.99
-8 5 3 10.78 1.69
8 5 -3 15.03 1.07
8 5 -3 9.98 1.37
8 -5 -3 14.69 1.35
7 5 -2 4.43 0.78
7 5 -2 3.33 0.62
7 -5 -2 5.36 1.02
6 5 -1 43.86 2.02
-6 5 1 43.36 2.28
-6 5 1 42.6 2.95
6 5 -1 42.92 2.5
-6 -5 1 43.17 2.27
6 -5 -1 42.29 2.1
6 -5 -1 44.02 2.39
-5 5 0 28.82 2.07
-5 5 0 27.63 1.59
5 5 0 29.89 1.43
5 5 0 26.96 1.74
5 -5 0 28.23 1.51
-5 -5 0 29.34 1.61
5 -5 0 27.38 1.67
4 5 1 10.73 0.89
-4 5 -1 11.61 0.85
-4 5 -1 10.53 1.1
4 5 1 11.91 0.76
-4 -5 -1 11.12 1.21
-4 -5 -1 10.03 0.84
4 -5 1 10.98 0.82
4 -5 1 10.18 0.89
3 5 2 117.37 4.57
3 5 2 117.87 5.45
-3 5 -2 129.26 6.41
-3 5 -2 118.7 6.63
-3 5 -2 122.33 7.47
-3 5 -2 114.3 5.22
-3 5 -2 118.69 4.49
-3 -5 -2 113.27 4.8
3 -5 2 115.58 4.61
3 -5 2 123.85 4.84
-3 -5 -2 105.27 6.31
-2 5 -3 5.7 0.4
2 5 3 5.65 1.9
-2 5 -3 6.11 0.62
2 5 3 5.68 0.54
-2 5 -3 6.32 1.95
-2 5 -3 6.1 1.64
-2 5 -3 6.05 0.62
2 5 3 5.13 0.44
-2 -5 -3 5.11 0.49
2 -5 3 6.38 0.55
-2 -5 -3 3.92 1.05
2 -5 3 5.1 0.54
1 5 4 26.53 1.29
1 5 4 26.47 3.32
-1 5 -4 27.29 2.88
-1 5 -4 29.89 1.6
-1 5 -4 27.5 1.2
-1 5 -4 26.12 2.53
1 5 4 27.52 1.52
-1 -5 -4 27.35 1.36
-1 -5 -4 30.38 2.37
1 -5 4 26.1 1.33
1 -5 4 27.11 1.32
0 5 -5 66.8 3.17
0 5 -5 61.51 3.47
0 5 5 62.48 2.64
0 5 5 61.33 4.97
0 5 -5 62.21 4.35
0 5 5 62.62 3.07
0 5 -5 58.53 4.44
0 5 -5 64.16 2.55
0 -5 -5 67.6 3.27
0 -5 -5 60.51 4.97
0 -5 -5 66.88 2.77
0 -5 -5 73.62 4.17
0 -5 -5 61.16 2.63
0 -5 5 63.65 2.68
0 -5 5 63.65 2.65
1 5 -6 -0.17 1.65
-1 5 6 1.04 0.35
1 5 -6 0.46 0.19
1 5 -6 1.14 0.57
1 -5 -6 1.02 0.91
-1 -5 6 1.12 1.88
1 -5 -6 0.16 0.54
-1 -5 6 1.05 0.31
-1 -5 6 0.51 0.38
2 5 -7 25 1.36
2 5 -7 21.17 1.72
2 5 -7 25.54 1.83
-2 5 7 24.65 1.5
2 5 -7 23.3 1.17
2 -5 -7 24.18 1.35
2 -5 -7 25.25 1.35
-2 -5 7 26.75 1.25
-2 -5 7 24.68 1.29
2 -5 -7 26.34 2.15
2 -5 -7 23.78 1.89
3 5 -8 77.71 4.07
3 5 -8 70.47 3.97
3 5 -8 73.13 2.99
-3 -5 8 72.43 3.09
3 -5 -8 65.83 4.26
3 -5 -8 75.03 3.19
-3 -5 8 75.53 3.06
3 -5 -8 71.02 3.22
4 5 -9 5.97 1.21
4 5 -9 4.96 1
4 5 -9 4.09 0.48
-4 -5 9 3.72 0.67
4 -5 -9 5.3 0.95
-4 -5 9 4.15 0.46
4 -5 -9 4.21 0.72
4 -5 -9 3.15 0.64
-5 5 10 51.37 2.48
5 5 -10 53.01 3.33
5 5 -10 63.05 3.62
5 5 -10 53.52 2.5
5 -5 -10 57.33 2.69
-5 -5 10 56.5 2.7
-5 -5 10 54.29 2.52
5 -5 -10 55.1 2.73
6 5 -11 4.93 1
6 5 -11 5.62 0.81
-6 5 11 7.41 0.84
6 5 -11 6.34 1.47
6 -5 -11 3.32 0.86
-6 -5 11 3.92 0.9
6 -5 -11 6.5 0.93
-7 5 12 0.85 0.56
7 5 -12 -1.75 1.21
7 5 -12 0.33 0.91
7 5 -12 0.34 0.53
-7 -5 12 -0.85 0.71
7 -5 -12 -1.15 0.67
-8 6 3 2.53 1.39
8 6 -3 5.27 0.77
8 6 -3 4.47 1.09
8 -6 -3 7.31 1.07
8 -6 -3 5.45 0.89
7 6 -2 5.07 0.73
7 6 -2 4.68 1
7 -6 -2 4.34 0.89
7 -6 -2 3.51 0.79
-7 -6 2 2.86 0.89
6 6 -1 51.62 2.91
-6 6 1 48.41 3.42
6 6 -1 53.15 2.36
-6 -6 1 57.3 2.71
6 -6 -1 53.12 2.71
6 -6 -1 49.99 2.46
5 6 0 32.72 1.57
-5 6 0 31.18 1.8
5 6 0 31.79 1.96
-5 6 0 29 2.25
-5 -6 0 32.01 1.79
5 -6 0 29.82 1.6
5 -6 0 32.91 1.84
-4 6 -1 32.63 1.5
-4 6 -1 31.73 2.21
4 6 1 30.84 1.56
-4 6 -1 32.24 1.79
4 6 1 33.71 1.93
-4 -6 -1 31.79 2.46
4 -6 1 35.1 1.83
4 -6 1 31.93 1.64
-4 -6 -1 30.57 1.68
-3 6 -2 22.72 1.37
3 6 2 22.78 1.41
-3 6 -2 22.12 1.12
-3 6 -2 23.63 1.65
3 6 2 23.11 1.18
3 -6 2 24.24 1.37
-3 -6 -2 22.61 1.34
3 -6 2 23.24 1.27
-2 6 -3 19.72 6.65
-2 6 -3 13.11 3.34
2 6 3 18.4 1.21
-2 6 -3 18.04 1.19
2 6 3 19.82 1.06
-2 6 -3 17.35 1.33
-2 6 -3 18.8 0.95
-2 -6 -3 16.62 1.88
2 -6 3 20.64 1.08
-2 -6 -3 21.43 1.16
2 -6 3 20.16 1.12
-1 6 -4 0.48 0.34
-1 6 -4 0.14 0.22
1 6 4 0.85 0.38
-1 6 -4 2.78 2.73
1 6 4 0.14 0.35
-1 6 -4 0.21 1.44
-1 -6 -4 -0.4 0.99
1 -6 4 0.04 0.37
-1 -6 -4 -0.05 0.37
1 -6 4 -0.06 0.33
0 6 -5 52.23 2.72
0 6 -5 51.98 2.14
0 6 5 50.52 2.25
0 6 5 50.56 2.54
0 -6 5 50.94 2.27
0 -6 -5 52.17 2.38
0 -6 5 49.2 2.22
0 -6 -5 54.75 3.67
-1 6 6 0.52 0.35
1 6 -6 0.76 0.62
1 -6 -6 0.74 0.95
-1 -6 6 0.99 0.37
1 -6 -6 0.89 0.43
-1 -6 6 0.41 0.42
1 -6 -6 1.2 0.37
-2 6 7 0.26 0.41
2 6 -7 0.27 0.74
2 6 -7 0.79 0.35
2 -6 -7 0.88 0.46
-2 -6 7 1.08 0.38
2 -6 -7 0.4 0.39
2 -6 -7 1.07 0.95
-2 -6 7 0.66 0.45
2 -6 -7 0 0.67
3 6 -8 0.96 0.31
3 6 -8 -0.34 0.77
3 6 -8 0.76 0.69
-3 -6 8 0.22 0.39
3 -6 -8 0.47 0.55
3 -6 -8 -0.39 0.98
-3 -6 8 0.6 0.41
4 6 -9 15.35 1
4 6 -9 16.7 1.66
4 6 -9 13.19 1.56
-4 -6 9 14.72 0.99
-4 -6 9 16.47 1.16
4 -6 -9 14.79 1.21
4 -6 -9 15.44 1.22
5 6 -10 2.61 0.94
5 6 -10 1.87 0.47
5 6 -10 3.5 1.28
5 -6 -10 0.56 0.67
-5 -6 10 0.41 0.5
5 -6 -10 1.36 0.54
-5 -6 10 0.81 0.75
6 6 -11 53.73 2.57
6 6 -11 53.21 3.58
6 -6 -11 54 2.81
6 -6 -11 50.51 2.74
-6 -6 11 50.83 2.77
7 6 -12 1.03 1.18
7 6 -12 0.29 1.22
7 6 -12 0.19 0.75
7 -6 -12 -0.33 0.63
-7 -6 12 1.76 0.88
-7 7 2 -0.94 0.95
7 7 -2 0.67 0.65
-7 -7 2 0.39 0.84
7 -7 -2 -0.95 0.77
7 -7 -2 0.45 0.59
-6 7 1 3.26 1.11
6 7 -1 5.19 0.63
6 7 -1 4.48 0.93
6 -7 -1 7.08 0.9
6 -7 -1 6.37 1.08
-6 -7 1 6.63 0.97
5 7 0 13 1.24
5 7 0 14.29 1.01
-5 -7 0 14.15 1.18
5 -7 0 13.82 1.09
5 -7 0 13.94 1.16
4 7 1 41.44 1.97
4 7 1 41.75 2.33
4 -7 1 40.64 2.19
-4 -7 -1 39.64 2.1
4 -7 1 43.74 2.07
-3 7 -2 71 3.39
3 7 2 70.56 3.01
-3 7 -2 71.55 2.94
3 7 2 70.8 3.53
-3 -7 -2 73.19 3.24
3 -7 2 72.39 3.21
3 -7 2 68.86 3.05
2 7 3 93.7 3.93
-2 7 -3 99.19 4.49
-2 7 -3 99.62 3.87
2 7 3 96.8 4.61
2 -7 3 96.78 3.97
-2 -7 -3 96.41 4.17
2 -7 3 98.39 4.14
1 7 4 6.04 0.67
1 7 4 6.65 0.6
-1 7 -4 6.6 0.56
-1 7 -4 7.45 0.81
1 -7 4 6.32 0.6
1 -7 4 6.6 0.69
-1 -7 -4 5.94 0.65
-1 -7 -4 6.81 1.46
0 7 5 83.88 3.43
0 7 -5 80.14 3.31
0 7 5 80.74 3.9
0 7 -5 84.66 4.05
0 -7 -5 81.26 3.6
0 -7 5 82.42 3.41
0 -7 5 82.55 3.5
-1 7 6 2.9 0.59
1 7 -6 1.82 0.34
1 7 -6 1.51 0.73
1 -7 -6 1.88 0.59
-1 -7 6 2.45 0.55
1 -7 -6 1.56 0.97
-1 -7 6 1.69 0.38
1 -7 -6 2.9 0.56
2 7 -7 20.48 1.78
2 7 -7 22.25 1.2
2 -7 -7 23.19 1.45
2 -7 -7 20.84 1.33
-2 -7 7 22.77 1.32
-2 -7 7 22.07 1.27
3 7 -8 19.67 1.13
3 7 -8 19.68 1.87
3 -7 -8 20.54 1.31
3 -7 -8 17.95 1.39
-3 -7 8 21.28 1.33
-3 -7 8 21.1 1.19
4 7 -9 9.64 0.77
4 7 -9 10.23 1.59
4 -7 -9 8.33 0.98
-4 -7 9 8.99 0.77
4 -7 -9 9.82 1.04
-4 -7 9 9.25 0.97
5 7 -10 33.17 2.56
5 7 -10 29.38 1.66
5 -7 -10 29.14 1.81
5 -7 -10 29.36 1.84
-5 -7 10 30.74 1.88
-5 -7 10 28.72 1.63
6 7 -11 -0.16 0.64
6 7 -11 -0.84 1.03
6 7 -11 1.47 1.59
6 -7 -11 -2.64 1.19
-6 -7 11 0.46 0.69
6 -7 -11 -0.59 0.81
-6 -8 1 0.68 0.81
6 -8 -1 1.74 0.91
5 8 0 8.83 1.07
5 8 0 8.31 0.78
5 -8 0 8.29 1.05
5 -8 0 8.42 0.96
-5 -8 0 7.04 1
4 8 1 4.78 0.7
4 -8 1 4.06 0.77
4 -8 1 3.98 0.71
-4 -8 -1 4.5 0.82
3 8 2 9.34 0.91
3 8 2 9.21 0.82
3 -8 2 8.33 0.84
3 -8 2 9.18 0.98
-3 -8 -2 6.43 1.84
-3 -8 -2 9.82 0.94
-2 8 -3 7.03 0.92
-2 8 -3 7.16 0.67
2 8 3 6.31 0.63
2 -8 3 4.89 0.79
-2 -8 -3 6.86 0.85
-2 -8 -3 4.21 1.31
2 -8 3 6.39 0.66
-1 8 -4 0.45 0.57
-1 8 -4 0.1 0.27
-1 -8 -4 3.27 1.48
-1 -8 -4 0.69 0.62
1 -8 4 0.54 0.51
0 8 5 0.57 0.39
0 8 -5 -0.83 0.4
0 8 -5 0.65 0.65
0 -8 5 0.87 0.52
0 -8 -5 1.2 0.47
0 -8 -5 -2.39 1.37
0 -8 5 0.86 0.52
-1 8 6 11.51 0.94
1 8 -6 8.98 1.07
1 8 -6 9.15 0.73
1 -8 -6 11.48 1.09
-1 -8 6 8.7 0.83
-1 -8 6 8.65 0.87
2 8 -7 42.9 2.73
-2 8 7 47.42 2.26
2 8 -7 42.9 2.05
2 -8 -7 46.25 2.25
2 -8 -7 46.77 2.47
-2 -8 7 43.87 2.17
-2 -8 7 45.42 2.21
3 8 -8 13.7 0.94
3 8 -8 9.03 1.53
-3 -8 8 12.82 1.02
3 -8 -8 12.19 1.14
-3 -8 8 12.62 1.09
3 -8 -8 13.69 1.17
4 8 -9 22.01 2.09
4 8 -9 21.94 1.32
-4 -8 9 23.75 1.49
-4 -8 9 22.93 1.44
4 -8 -9 21.82 1.69
5 8 -10 6.49 1.74
5 8 -10 8.12 0.86
-5 -8 10 8.13 1.13
5 -8 -10 7.97 1.28
-5 -8 10 7.66 0.88
5 -8 -10 8.91 1.01
4 9 1 3.2 0.74
-4 -9 -1 1.06 0.77
4 -9 1 0.02 0.82
4 -9 1 2.07 0.76
3 9 2 0.75 0.59
-3 -9 -2 0.18 0.64
-3 -9 -2 -0.45 1.69
3 -9 2 -0.33 0.55
3 -9 2 0.39 0.48
2 9 3 0.89 0.45
-2 -9 -3 0.35 1.13
-2 -9 -3 -0.37 0.51
2 -9 3 1.56 0.66
1 9 4 15.42 1.17
-1 9 -4 16.97 1.04
-1 -9 -4 17.01 1.28
1 -9 4 16.35 1.21
1 -9 4 18.49 1.29
0 9 5 5.59 0.8
0 9 -5 5.38 1.11
0 9 -5 4.41 0.55
0 -9 -5 5.44 0.8
0 -9 5 5.36 0.74
0 -9 5 4.91 0.66
-1 9 6 32.25 1.77
1 9 -6 30.95 1.58
1 9 -6 31.18 2.15
-1 -9 6 29.42 1.72
-1 -9 6 30.93 1.69
1 -9 -6 29.74 1.88
2 9 -7 7.52 1.31
-2 9 7 6.46 0.91
2 9 -7 7.11 0.69
2 -9 -7 7.39 1.12
-2 -9 7 7.1 0.8
-2 -9 7 8.55 0.96
3 9 -8 1.81 0.51
-3 -9 8 0.75 0.66
3 -9 -8 1.63 0.72
-3 -9 8 2.1 0.74
3 -9 -8 2.84 0.66
3 -9 -8 1.5 1.1
9 0 -3 0.2 0.73
-9 0 3 -1.14 0.87
9 0 -3 0.01 0.91
-9 0 3 0.74 0.54
8 0 -2 0.67 0.7
-8 0 2 1.8 0.77
8 0 -2 1.58 0.65
8 0 -2 1.27 0.67
-8 0 2 2.63 0.56
7 0 -1 -0.58 0.48
7 0 -1 -0.69 0.54
-7 0 1 0.6 0.43
7 0 -1 -0.18 0.48
-7 0 1 0.71 0.69
-6 0 0 30.35 2.09
6 0 0 30.58 1.72
6 0 0 30.86 1.73
6 0 0 29.92 1.77
-5 0 -1 0.16 0.41
-5 0 -1 0.42 0.43
5 0 1 0.1 0.43
5 0 1 -0.39 0.3
5 0 1 -0.12 0.35
-5 0 -1 0.99 1.47
-4 0 -2 2.48 0.42
4 0 2 1.93 0.24
-4 0 -2 2.07 0.44
4 0 2 1.75 0.4
4 0 2 2 0.37
-4 0 -2 3.92 0.84
-4 0 -2 2.64 0.52
4 0 2 0.38 1.2
3 0 3 -0.37 0.25
3 0 3 0.03 0.15
-3 0 -3 0.14 0.33
3 0 3 0.43 0.23
3 0 3 0.17 0.25
-3 0 -3 -0.03 0.24
-2 0 -4 0.73 0.32
-2 0 -4 0.98 0.38
-2 0 -4 0.56 0.34
2 0 4 0.97 0.2
2 0 4 1.09 0.15
2 0 4 1.27 0.29
2 0 4 0.87 0.24
-2 0 -4 0.89 0.25
-1 0 -5 0.06 0.25
1 0 5 -0.37 0.21
1 0 5 0.09 0.18
1 0 5 -0.08 0.11
-1 0 -5 0.05 0.24
0 0 -6 671.01 29.94
0 0 6 660.44 23.12
0 0 -6 636.54 28.55
0 0 6 677.19 26.25
0 0 -6 636.27 26.46
0 0 6 614.62 25.25
0 0 -6 610.28 25.2
0 0 -6 613.42 23.29
1 0 -7 0.05 0.34
-1 0 7 0.06 0.2
-1 0 7 -0.37 0.28
1 0 -7 0.07 1.23
1 0 -7 0.55 0.34
1 0 -7 0.3 0.21
1 0 -7 0.35 0.31
1 0 -7 -0.33 0.32
-1 0 7 0.69 1.27
-2 0 8 790.2 32.62
2 0 -8 754.23 29.59
2 0 -8 803.17 35.41
2 0 -8 807.07 36.82
2 0 -8 760.56 32.7
2 0 -8 767.01 32.89
-2 0 8 850.26 28.7
2 0 -8 785.73 28.92
3 0 -9 0.1 0.33
3 0 -9 -0.68 0.46
-3 0 9 0.08 0.28
3 0 -9 -0.72 0.58
3 0 -9 0.06 0.25
3 0 -9 -0.4 1.82
-3 0 9 0.12 2.2
3 0 -9 -0.62 0.45
4 0 -10 73.61 3.53
4 0 -10 69.77 2.94
-4 0 10 68.61 3.06
4 0 -10 76.54 3.88
4 0 -10 72.98 4
4 0 -10 65.38 3.05
4 0 -10 66.52 3.6
5 0 -11 -0.35 0.84
5 0 -11 -0.35 0.54
5 0 -11 0.14 0.47
5 0 -11 -0.51 0.45
-5 0 11 -0.25 0.55
6 0 -12 0.4 0.62
6 0 -12 3.17 0.97
-6 0 12 1.86 0.57
6 0 -12 0.46 0.63
6 0 -12 0.47 0.88
7 0 -13 -0.74 0.7
-7 0 13 0.08 0.7
7 0 -13 0.46 0.73
7 0 -13 0.21 0.61
8 0 -14 7.87 0.97
-8 0 14 6.26 1.06
8 0 -14 4.5 1.1
8 0 -14 5.87 1.14
9 1 -3 20.36 1.64
9 1 -3 20.74 1.72
9 -1 -3 21.08 1.8
-8 1 2 3.13 0.9
8 1 -2 5.17 0.9
8 1 -2 4.49 0.84
8 -1 -2 2.56 0.72
8 -1 -2 5.4 0.69
8 -1 -2 3.88 1
-8 -1 2 5.77 0.82
-8 -1 2 3.84 0.84
7 1 -1 37.97 2.26
-7 1 1 39.53 2.66
7 1 -1 42.8 2.29
7 1 -1 41.2 2.17
7 -1 -1 37.99 2.21
7 -1 -1 41.57 2.28
-7 -1 1 38.65 2.62
7 -1 -1 41.85 2.29
-7 -1 1 42.05 1.92
6 1 0 57.47 2.95
6 1 0 58.1 3.05
-6 1 0 61.08 3.65
6 1 0 63.4 2.93
6 -1 0 62.53 3
6 -1 0 59.35 3
-6 -1 0 64.21 3.28
-6 -1 0 58.71 2.54
6 -1 0 63.71 3.06
-6 -1 0 63.27 3.61
5 1 1 1.56 0.26
5 1 1 1.95 0.48
5 1 1 1.25 0.39
5 1 1 1.52 0.42
-5 1 -1 1.19 0.53
-5 -1 -1 1.52 0.26
-5 -1 -1 1.85 0.52
5 -1 1 1.58 0.32
-5 -1 -1 1.22 0.36
-5 -1 -1 1.12 1.44
-4 1 -2 152.73 7.85
4 1 2 142.79 7.25
4 1 2 145.63 5.92
4 1 2 146.32 6.39
4 1 2 141.72 5.51
-4 1 -2 148.75 6.46
-4 1 -2 137.8 6.47
4 1 2 150.25 6.65
-4 -1 -2 153.36 7.24
4 -1 2 155.77 6.59
-4 -1 -2 127.91 6.58
4 -1 2 144.96 5.96
-4 -1 -2 151.4 7.82
4 -1 2 165.09 6.49
-3 1 -3 3.24 0.49
3 1 3 3.47 0.23
3 1 3 3.67 0.78
3 1 3 4.22 0.5
-3 1 -3 4.05 0.56
3 1 3 3.81 0.41
3 1 3 3.54 0.85
-3 1 -3 3.3 0.43
3 -1 3 3.78 0.42
-3 -1 -3 3.35 0.51
3 -1 3 3.67 0.39
-3 -1 -3 3.51 0.48
3 -1 3 4.02 0.44
3 -1 3 3.97 0.34
-3 -1 -3 3.37 0.71
2 1 4 127.8 5.7
2 1 4 123.93 4.66
2 1 4 131.92 5.56
2 1 4 127.96 5.5
-2 1 -4 124.04 6.27
-2 1 -4 126.82 6.7
2 1 4 123.43 4.62
-2 1 -4 119.43 5.52
2 1 4 134.7 5.63
-2 -1 -4 115.03 5.85
-2 -1 -4 128.92 5.52
2 -1 4 126.83 4.72
2 -1 4 126.8 4.92
2 -1 4 131.41 5.66
2 -1 4 131.68 5.48
-2 -1 -4 127.43 6.3
1 1 5 360.09 14.72
1 1 5 366.55 13.12
-1 1 -5 364.06 16.34
-1 1 -5 364.2 15.19
1 1 5 390.28 15.84
1 1 5 359.96 15.09
-1 1 -5 335.58 17.15
-1 -1 -5 349.81 13.23
-1 -1 -5 358.49 14.37
1 -1 5 385.46 15.8
1 -1 5 369.99 13.21
1 -1 5 386.97 15.04
-1 -1 -5 352.57 16.32
1 -1 5 362.59 13.61
-1 -1 -5 347.13 15.13
0 1 6 23.29 2.38
0 1 -6 21.76 2.08
0 1 -6 20.09 1.39
0 1 6 23.04 0.95
0 1 -6 22.15 0.97
0 1 6 20.85 1.24
0 1 -6 22.68 1.29
0 1 -6 22.91 1.3
0 -1 -6 23.97 2.07
0 -1 -6 24.08 1.2
0 -1 -6 22.89 0.97
0 -1 -6 22.94 1.48
0 -1 6 21.86 1.15
0 -1 6 21.42 1.64
0 -1 6 22.97 1
0 -1 -6 22.4 1.32
1 1 -7 23.9 1.41
-1 1 7 25.27 1.12
1 1 -7 22.86 1.5
-1 1 7 25.23 2.95
1 1 -7 25.42 1.5
1 1 -7 24.56 1.43
1 1 -7 24.39 2.74
1 1 -7 25.48 1.12
-1 -1 7 23.77 1.23
1 -1 -7 21.72 1.52
1 -1 -7 25.71 1.52
-1 -1 7 24.12 1.09
-1 -1 7 21.34 2.17
1 -1 -7 26.48 2.77
1 -1 -7 24.65 1.15
1 -1 -7 22.91 1.26
2 1 -8 23.02 0.95
-2 1 8 23.08 3.51
2 1 -8 22.37 1.11
2 1 -8 23.41 2.96
-2 1 8 22.09 1.12
2 1 -8 23.38 1.41
2 1 -8 20.35 1.37
2 1 -8 21.49 1.54
2 1 -8 23.83 1.44
2 -1 -8 21.44 1.52
-2 -1 8 21.15 1.09
2 -1 -8 21.71 1.14
2 -1 -8 23.67 1.58
-2 -1 8 20.67 2.71
2 -1 -8 21.79 1.46
2 -1 -8 20.98 1.23
2 -1 -8 20.56 0.96
2 -1 -8 26.83 3.53
-2 -1 8 20.97 1.14
3 1 -9 282.42 11.88
-3 1 9 276.52 9.76
3 1 -9 260.81 9.76
3 1 -9 258.55 12.03
3 1 -9 260.48 11.26
3 1 -9 256.11 9.82
-3 1 9 234.93 13.49
3 1 -9 261.19 13.67
3 1 -9 265.65 12.3
3 -1 -9 254.1 12.35
-3 -1 9 261.97 9.72
3 -1 -9 241.34 9.84
3 -1 -9 264.15 12.25
-3 -1 9 238.46 12.76
3 -1 -9 266.28 11.77
3 -1 -9 257.44 9.8
3 -1 -9 244.17 10.98
3 -1 -9 256.86 13.92
4 1 -10 2.58 0.78
4 1 -10 3.44 0.52
4 1 -10 3.6 0.48
4 1 -10 2.37 0.62
4 1 -10 2.86 0.39
-4 1 10 3.06 0.55
4 1 -10 3.87 0.75
4 -1 -10 3.82 0.45
-4 -1 10 2.4 0.48
4 -1 -10 2.83 0.55
4 -1 -10 3.87 0.8
4 -1 -10 2.55 0.43
4 -1 -10 3.77 0.79
5 1 -11 95.13 4.18
5 1 -11 93.87 4.82
5 1 -11 97.18 5.26
-5 1 11 101.48 4.21
5 1 -11 93.43 5.13
5 -1 -11 110.41 5.55
5 -1 -11 96.58 4.2
-5 -1 11 95.92 4.22
5 -1 -11 108.89 5.19
6 1 -12 10.71 1.22
-6 1 12 9.51 1.01
6 1 -12 9.81 1.32
6 1 -12 9.2 1.31
6 1 -12 10.52 0.95
6 -1 -12 11.16 1.34
-6 -1 12 9.99 0.97
6 -1 -12 8.3 1.23
6 -1 -12 10.01 0.93
7 1 -13 0.32 0.95
7 1 -13 1.46 0.81
-7 1 13 1.68 0.79
7 1 -13 1.5 0.6
7 1 -13 -0.87 0.96
7 -1 -13 0.9 0.72
-7 -1 13 -1.01 0.81
7 -1 -13 1.25 1.1
7 -1 -13 0.21 0.66
-8 1 14 5.37 0.81
8 1 -14 4.61 1.03
8 1 -14 2.55 1.25
8 1 -14 3.35 1.3
8 -1 -14 4.06 1.19
-8 -1 14 6.79 1.12
8 -1 -14 5.93 0.87
8 -1 -14 4.75 1.39
9 2 -3 -0.04 0.8
-9 2 3 0.93 0.87
9 2 -3 0.34 0.89
9 -2 -3 1.09 1.01
8 2 -2 14.89 1.34
8 2 -2 12.99 1.17
-8 2 2 11.39 1.43
8 -2 -2 14.28 1.32
-8 -2 2 12.34 1.31
-7 2 1 7.24 0.96
7 2 -1 7.46 0.92
7 2 -1 7.19 0.76
7 2 -1 9.15 0.9
-7 -2 1 7.67 0.98
7 -2 -1 8.6 0.93
-6 2 0 78.8 4.52
6 2 0 76.69 3.81
6 2 0 74.29 3.65
-6 -2 0 78.55 3.15
6 -2 0 74.34 3.66
-6 -2 0 81.4 4.43
6 -2 0 78.84 3.6
-5 2 -1 2.55 0.55
5 2 1 2.42 0.54
-5 2 -1 3 0.66
5 2 1 2.7 0.52
5 2 1 3.11 0.33
-5 -2 -1 3.08 0.36
-5 -2 -1 3.08 0.5
5 -2 1 2.73 0.49
-5 -2 -1 3.23 1.88
-5 -2 -1 2.35 0.5
5 -2 1 3.5 0.38
-4 2 -2 9.1 0.74
4 2 2 7.79 0.76
4 2 2 6.88 1.67
-4 2 -2 9.28 0.91
4 2 2 8.22 0.69
4 2 2 8.1 0.49
-4 2 -2 9.52 1.81
4 -2 2 7.86 0.72
-4 -2 -2 9.9 0.82
-4 -2 -2 8.18 0.46
-4 -2 -2 8.05 1.43
-4 -2 -2 9.18 0.81
4 -2 2 9.58 0.61
4 -2 2 9.29 0.61
3 2 3 130.32 6.34
-3 2 -3 140.56 7.01
-3 2 -3 127.26 4.81
3 2 3 127.02 4.9
3 2 3 129.51 5.94
-3 2 -3 123.34 5.43
-3 2 -3 128.8 5.76
-3 2 -3 134.77 5.91
3 2 3 123.77 5.75
3 2 3 137.99 6.37
-3 -2 -3 127.02 6.95
-3 -2 -3 141.22 6.59
3 -2 3 133.7 4.97
3 -2 3 139.98 5.83
3 -2 3 127.46 5.48
3 -2 3 131.22 5.22
2 2 4 16.07 0.99
-2 2 -4 15.04 1.01
2 2 4 16.16 0.71
2 2 4 14.11 1.58
2 2 4 15.81 1.67
-2 2 -4 15.67 1.14
2 2 4 15.9 1.06
2 -2 4 15.32 0.76
-2 -2 -4 16.83 0.83
-2 -2 -4 15.07 0.94
2 -2 4 15.16 0.79
-2 -2 -4 16.35 1.24
2 -2 4 16.13 0.88
-1 2 -5 210.22 8.47
-1 2 -5 206.78 7.57
-1 2 -5 195.21 10.69
1 2 5 230.54 9.5
-1 2 -5 210.24 8.88
1 2 5 208.62 9.1
1 2 5 212.1 7.65
-1 2 -5 185.58 8.26
-1 2 -5 217.4 9.49
1 2 5 217.7 9.19
1 -2 5 203.28 7.85
1 -2 5 209.58 7.65
-1 -2 -5 202.83 7.64
-1 -2 -5 206.77 7.88
-1 -2 -5 198.99 10.12
-1 -2 -5 206.11 9.07
-1 -2 -5 207.77 8.75
-1 -2 -5 207.74 9.44
0 2 -6 96.22 3.75
0 2 -6 104.07 4.73
0 2 6 98.25 3.7
0 2 -6 105.66 5.17
0 2 -6 105.88 4.58
0 2 -6 94.98 4.62
0 2 6 106.59 4.69
0 2 6 101.88 5.77
0 -2 6 94.57 4.76
0 -2 -6 100.05 4.34
0 -2 -6 102.37 5.48
0 -2 -6 97.42 5.19
0 -2 6 99.45 3.83
0 -2 -6 95.21 3.85
0 -2 6 106.44 4.34
0 -2 -6 104.75 4.81
0 -2 6 96.56 3.81
0 -2 -6 96.42 3.81
1 2 -7 24.67 1.46
1 2 -7 23.34 1.02
1 2 -7 19.89 1.42
-1 2 7 22.56 1.02
-1 2 7 22.44 3.02
1 2 -7 24.47 2.53
1 2 -7 22.49 1.31
-1 -2 7 22.24 0.94
-1 -2 7 23.58 1.09
1 -2 -7 19.79 1.12
1 -2 -7 24.49 1.53
1 -2 -7 24.39 1.1
1 -2 -7 20.63 0.97
-1 -2 7 23.71 1.15
1 -2 -7 20.35 2.61
-1 -2 7 21.64 2.14
1 -2 -7 22.94 1.6
2 2 -8 118.48 5.6
-2 2 8 118.82 4.43
2 2 -8 122.42 5.48
2 2 -8 119.28 7.04
2 2 -8 116.59 4.42
2 2 -8 108.77 5.3
-2 2 8 122.93 7.98
-2 -2 8 107.83 6.4
2 -2 -8 105.08 4.44
2 -2 -8 119.93 5.81
2 -2 -8 107.21 7.43
2 -2 -8 118.39 5.86
-2 -2 8 114.02 4.4
2 -2 -8 96.44 4.89
-2 -2 8 114.81 4.85
2 -2 -8 113.64 4.53
2 -2 -8 119.88 5.5
-2 -2 8 115.56 4.43
3 2 -9 22.54 1.65
3 2 -9 14.14 3.13
-3 2 9 17.05 4.26
3 2 -9 22 1.14
3 2 -9 20.48 1.42
-3 2 9 22.56 1.18
3 2 -9 23.47 1.71
3 -2 -9 22.48 1.57
-3 -2 9 22.66 1.21
3 -2 -9 26.2 4.28
3 -2 -9 23.12 1.56
3 -2 -9 19.82 1.08
3 -2 -9 24.01 1.86
-3 -2 9 18.81 2.9
3 -2 -9 22.79 1.26
4 2 -10 49.19 2.33
-4 2 10 49.69 2.33
4 2 -10 47.13 2.86
4 2 -10 53.81 3.08
4 2 -10 58.12 3.06
4 -2 -10 49.86 2.4
4 -2 -10 52.86 2.99
-4 -2 10 49.43 2.38
4 -2 -10 59.55 3.4
4 -2 -10 48.22 2.86
4 -2 -10 51.87 2.3
5 2 -11 53.39 2.98
5 2 -11 43.92 2.87
5 2 -11 49.91 2.36
5 2 -11 48.59 3.03
-5 2 11 49.52 2.37
-5 -2 11 49.74 2.46
5 -2 -11 46.34 3.21
5 -2 -11 55.07 3.04
5 -2 -11 51.18 2.43
6 2 -12 68.28 3.14
6 2 -12 68.9 3.96
-6 2 12 67.65 3.1
6 2 -12 57.27 3.76
6 2 -12 67.1 3.76
6 -2 -12 73.51 3.88
-6 -2 12 68.32 3.23
6 -2 -12 68.29 3.17
6 -2 -12 65.56 4.03
7 2 -13 2.23 0.74
-7 2 13 3.21 0.81
7 2 -13 4.32 0.9
7 2 -13 3.33 0.86
7 2 -13 3.54 1.17
7 -2 -13 4.02 0.88
-7 -2 13 3.98 0.78
7 -2 -13 4.5 0.88
-8 2 14 1.09 0.62
8 2 -14 1.05 1
8 2 -14 0.26 0.87
8 2 -14 0.32 1.12
-8 -2 14 0.4 0.96
8 -2 -14 0.74 0.62
8 -2 -14 0.52 0.9
8 -2 -14 2 0.98
9 3 -3 1.45 0.69
9 3 -3 0.28 0.89
-9 3 3 -0.2 0.93
9 -3 -3 3.52 1.12
8 3 -2 0.67 0.57
-8 3 2 -1.17 0.68
8 3 -2 0.48 0.78
8 -3 -2 -0.38 0.86
-7 3 1 0.51 0.68
7 -3 -1 0.46 0.6
-7 -3 1 -0.15 0.65
6 3 0 7.35 0.85
6 3 0 6.07 0.54
6 3 0 6.48 0.82
-6 3 0 6.53 0.97
6 -3 0 6.83 0.88
-6 -3 0 7.17 0.85
5 3 1 60.46 3.08
5 3 1 62.68 3.08
-5 3 -1 61.6 2.98
5 3 1 57.96 2.49
-5 3 -1 62.47 3.65
-5 -3 -1 62.27 3.53
5 -3 1 60 2.84
5 -3 1 60.82 2.6
-5 -3 -1 62.6 3.31
4 3 2 8.73 0.8
4 3 2 9.1 0.57
-4 3 -2 9.32 0.96
4 3 2 8.16 1.92
4 3 2 9.86 0.86
-4 3 -2 9.27 0.77
4 -3 2 9.74 0.74
4 -3 2 9.84 0.65
-4 -3 -2 7.3 1.64
-4 -3 -2 11.54 1
-4 -3 -2 8.79 0.75
-4 -3 -2 10.22 0.89
3 3 3 58.16 3.85
-3 3 -3 56.01 3.22
-3 3 -3 54.19 3.12
-3 3 -3 55.95 2.7
3 3 3 52.17 2.71
-3 3 -3 55.29 4.15
3 3 3 57.12 2.23
-3 3 -3 52.54 2.12
3 -3 3 56.88 2.3
-3 -3 -3 56.91 2.42
-3 -3 -3 57.23 3.2
3 -3 3 56.79 2.42
3 -3 3 55.95 2.55
2 3 4 62.1 3.94
-2 3 -4 64.22 3.4
2 3 4 57.97 2.89
2 3 4 57.34 3.76
-2 3 -4 58.05 3.09
-2 3 -4 55.79 2.26
2 3 4 61.66 2.38
-2 3 -4 63.27 3.49
-2 3 -4 59.93 2.87
2 -3 4 60.04 2.49
-2 -3 -4 61.75 2.52
2 -3 4 63.12 2.76
-2 -3 -4 58.21 3.41
-2 -3 -4 59.77 2.92
2 -3 4 60.32 2.42
-1 3 -5 5.32 0.61
1 3 5 5.79 0.57
1 3 5 5.66 1.4
-1 3 -5 5.21 0.3
1 3 5 5.99 0.4
-1 3 -5 6.21 1.01
1 3 5 5.23 1.49
-1 3 -5 6.25 0.65
-1 3 -5 5.31 1.02
-1 -3 -5 6.53 0.55
1 -3 5 4.84 0.43
-1 -3 -5 6.28 0.8
1 -3 5 6.34 0.4
-1 -3 -5 5.12 0.41
0 3 6 264.14 12.14
0 3 -6 257.66 11.59
0 3 -6 256.72 11.08
0 3 6 267.69 11.32
0 3 -6 252.41 11.26
0 3 -6 264.78 10.99
0 3 -6 254.67 9.39
0 -3 -6 249.42 9.48
0 -3 6 253.12 9.44
0 -3 -6 259.13 11.69
0 -3 -6 262.05 12.56
0 -3 -6 247.25 11.71
0 -3 6 250.06 10.92
0 -3 6 257.21 9.68
0 -3 -6 240.73 9.71
1 3 -7 7.21 0.73
-1 3 7 7.16 0.41
1 3 -7 6.89 0.6
1 3 -7 6.6 0.81
1 3 -7 6.73 1.5
-1 3 7 8.63 2.47
1 3 -7 7.73 0.47
1 -3 -7 6.77 0.46
1 -3 -7 8.05 0.99
1 -3 -7 6.13 2.03
-1 -3 7 7.55 0.56
1 -3 -7 8.77 0.84
-1 -3 7 5.89 1.46
1 -3 -7 6.41 0.45
1 -3 -7 7.88 0.57
-1 -3 7 7.86 0.52
-1 -3 7 6.92 0.42
-2 3 8 31.82 4.37
2 3 -8 34.26 2.15
2 3 -8 37.87 1.56
2 3 -8 36.75 1.91
2 3 -8 35.83 2.18
-2 3 8 34.35 1.52
2 3 -8 32.98 3.34
-2 -3 8 35.71 1.5
2 -3 -8 34.97 1.68
-2 -3 8 34.49 1.63
-2 -3 8 31.67 3.34
2 -3 -8 31.68 4.18
2 -3 -8 36.42 2.34
2 -3 -8 32.47 1.56
2 -3 -8 40.17 2.36
-2 -3 8 35.46 1.63
3 3 -9 212.61 9.39
3 3 -9 200.57 7.51
-3 3 9 204.53 7.49
3 3 -9 184.4 10.69
3 3 -9 204.79 9.19
3 3 -9 210.98 9.08
3 -3 -9 215.37 9.87
3 -3 -9 181.76 7.68
3 -3 -9 200.71 9.13
3 -3 -9 194.82 7.67
-3 -3 9 193.03 7.52
-3 -3 9 192.7 7.58
-3 -3 9 163.59 10.1
-4 3 10 1.77 0.47
4 3 -10 0.99 0.74
4 3 -10 2.21 0.48
4 3 -10 3.42 0.92
4 3 -10 1.87 0.59
4 -3 -10 2.15 0.47
4 -3 -10 1.66 0.74
4 -3 -10 2.14 0.76
4 -3 -10 1.43 0.56
4 -3 -10 1.7 0.51
-4 -3 10 1.09 0.56
5 3 -11 24.2 1.82
5 3 -11 27.26 1.51
5 3 -11 25.82 2.05
-5 3 11 27.01 1.52
5 3 -11 30.25 2.08
5 -3 -11 24.47 2.09
-5 -3 11 26.44 1.62
5 -3 -11 29.98 2.03
5 -3 -11 27.87 1.62
6 3 -12 21.54 1.44
6 3 -12 18.2 1.7
6 3 -12 18.74 1.87
-6 3 12 20.85 1.42
-6 -3 12 20.84 1.47
6 -3 -12 23.22 1.81
6 -3 -12 21.75 1.49
7 3 -13 3.28 0.88
7 3 -13 -0.24 1.02
-7 3 13 2.03 0.74
7 3 -13 2.51 1.15
7 -3 -13 1.63 0.6
-7 -3 13 1.08 0.69
7 -3 -13 3.33 1.03
8 3 -14 3.78 1.24
8 3 -14 5.84 1.1
8 3 -14 5.1 1.33
-8 3 14 4.76 0.94
8 -3 -14 6.08 1.23
8 -3 -14 6.62 0.92
-8 -3 14 4.54 1.18
-9 4 3 0.3 1.05
9 4 -3 2.42 1.04
9 4 -3 3.53 0.84
9 -4 -3 1.86 0.86
8 4 -2 0.4 0.84
-8 4 2 0.55 1
-7 4 1 -1.48 0.86
7 -4 -1 0.09 0.74
-6 4 0 -0.46 0.72
-6 4 0 -0.51 0.53
6 4 0 -0.08 0.35
6 4 0 0.53 0.59
6 -4 0 -0.52 0.51
6 -4 0 0.71 0.67
-5 4 -1 15.64 1.11
5 4 1 15.44 0.88
5 4 1 16.09 1.21
-5 4 -1 18.65 1.49
-5 -4 -1 16.98 1.34
-5 -4 -1 17.25 1.16
5 -4 1 16.96 1.06
5 -4 1 17.33 1.17
-5 -4 -1 16.58 1.3
-4 4 -2 9.74 0.85
-4 4 -2 9.6 0.94
4 4 2 7.4 1.97
4 4 2 7.55 2.45
4 4 2 9.6 0.62
4 4 2 7.8 0.81
-4 -4 -2 10.06 1.07
-4 -4 -2 8.77 2.61
4 -4 2 9.28 0.7
-4 -4 -2 9.47 0.76
4 -4 2 9.97 0.82
3 4 3 195.21 10.03
-3 4 -3 199.94 8.86
-3 4 -3 212.21 10.77
3 4 3 210.6 7.72
-3 4 -3 202.49 7.61
3 4 3 212.75 10.12
3 4 3 201.34 9.19
-3 -4 -3 212.84 8.07
-3 -4 -3 198.32 10.27
3 -4 3 210.69 8.06
3 -4 3 209.78 7.75
2 4 4 9.71 2
-2 4 -4 9.58 0.81
-2 4 -4 6.33 1.54
-2 4 -4 9.26 1.85
2 4 4 9.24 0.57
2 4 4 8.56 0.7
-2 4 -4 8.21 0.46
2 4 4 9.98 2.07
-2 -4 -4 10.63 0.68
2 -4 4 8.47 0.59
-2 -4 -4 8.55 1.15
-2 -4 -4 8.87 0.65
2 -4 4 9.24 0.6
-1 4 -5 85.63 4.9
1 4 5 93.96 5.87
-1 4 -5 91.64 5.04
-1 4 -5 84.71 4.76
1 4 5 92.87 4.27
-1 4 -5 86.65 3.44
-1 4 -5 94.66 4.24
1 4 5 96.22 3.57
1 4 5 84.46 5.49
1 -4 5 92.52 3.58
-1 -4 -5 92.3 4.34
1 -4 5 92.49 3.65
-1 -4 -5 92.17 3.7
-1 -4 -5 95.62 5.17
0 4 -6 37.68 2.34
0 4 -6 35.93 3.03
0 4 -6 39.41 2.06
0 4 6 45.61 3.93
0 4 -6 39.58 1.64
0 4 -6 45.96 2.29
0 4 6 41.85 2.13
0 -4 -6 32.57 3.54
0 -4 -6 39.6 1.77
0 -4 6 39.97 1.75
0 -4 6 41.45 1.73
0 -4 6 41.08 3.11
0 -4 -6 42.12 2.22
0 -4 -6 40.74 1.75
1 4 -7 25.63 1.18
-1 4 7 27.75 3.54
1 4 -7 26.75 1.76
1 4 -7 27.69 2.88
-1 4 7 27.29 1.61
1 4 -7 28.57 1.5
1 4 -7 24.76 1.62
-1 -4 7 28.25 1.23
1 -4 -7 24.32 1.28
1 -4 -7 26.73 1.32
1 -4 -7 28.52 3.65
-1 -4 7 25.87 1.29
-1 -4 7 22.71 2.73
1 -4 -7 27.29 1.81
1 -4 -7 31.32 2.2
2 4 -8 119.59 4.53
2 4 -8 108.92 6.83
2 4 -8 122.45 5.52
2 4 -8 119.03 5.64
2 4 -8 123.82 5.81
2 -4 -8 119.65 4.7
-2 -4 8 120 4.62
2 -4 -8 122.57 6.09
-2 -4 8 101.55 6.77
2 -4 -8 104.73 4.7
-2 -4 8 117.28 4.61
2 -4 -8 131.59 6.41
-2 -4 8 109.17 4.96
3 4 -9 22.71 1.79
3 4 -9 21.76 1.12
3 4 -9 22.37 1.34
-3 4 9 20.97 1.11
3 4 -9 22.24 1.78
3 -4 -9 20.91 1.29
-3 -4 9 20.72 1.24
3 -4 -9 22.21 1.81
3 -4 -9 20.34 1.2
3 -4 -9 23.65 1.93
-3 -4 9 20.91 1.07
4 4 -10 0.63 0.56
4 4 -10 1.81 0.54
4 4 -10 2.17 0.76
4 4 -10 1.07 0.45
4 -4 -10 1.18 0.86
4 -4 -10 1.35 0.53
-4 -4 10 0.61 0.54
4 -4 -10 0.83 0.43
4 -4 -10 0.66 0.55
4 -4 -10 1.93 0.5
5 4 -11 0.22 0.78
-5 4 11 -0.42 0.53
5 4 -11 1.1 0.97
-5 -4 11 0.51 0.46
5 -4 -11 0.25 0.62
5 -4 -11 -0.44 0.63
5 -4 -11 0.29 0.56
-6 4 12 0.85 0.64
6 4 -12 0.46 0.68
6 4 -12 1.39 1.09
6 -4 -12 -0.1 0.72
-6 -4 12 0.82 0.78
6 -4 -12 1.06 0.86
-7 4 13 2.45 0.71
7 4 -13 1.14 0.86
7 4 -13 0.47 0.81
7 4 -13 -0.47 0.77
7 -4 -13 2.8 0.81
-7 -4 13 1.38 0.95
-8 5 2 1.2 1.17
8 5 -2 1.23 0.7
8 -5 -2 1.62 1
8 -5 -2 0.7 0.57
7 5 -1 2.19 0.56
7 5 -1 1.01 0.79
7 -5 -1 1.85 0.56
7 -5 -1 3.98 0.78
6 5 0 16.09 1.36
-6 5 0 15.85 1.56
-6 5 0 16.38 1.24
6 5 0 17.69 1.06
6 -5 0 16.64 1.17
-6 -5 0 18.62 1.33
6 -5 0 18.99 1.4
5 5 1 4.78 0.48
5 5 1 4.84 0.76
-5 5 -1 3.93 0.57
-5 5 -1 5.1 0.84
-5 -5 -1 4.3 0.85
5 -5 1 5.45 0.68
5 -5 1 5.4 0.67
-5 -5 -1 4.43 0.63
-4 5 -2 79.24 4.45
-4 5 -2 75.71 3.64
4 5 2 77.25 3.77
4 5 2 76.11 3.12
-4 -5 -2 75.55 4.37
4 -5 2 76.11 3.21
-4 -5 -2 77.71 3.38
4 -5 2 77.22 3.4
-3 5 -3 42.45 2.15
-3 5 -3 43.01 2.53
3 5 3 40.8 1.78
3 5 3 40.52 2.18
3 -5 3 41.23 1.94
-3 -5 -3 35.69 2.75
3 -5 3 38.82 1.85
-3 -5 -3 41.17 1.94
2 5 4 2.14 0.45
-2 5 -4 1.59 0.26
-2 5 -4 1.81 0.49
2 5 4 2.17 0.37
-2 5 -4 1.51 0.5
2 5 4 -1.55 2.11
-2 -5 -4 2.41 0.93
2 -5 4 1.78 0.34
2 -5 4 1.56 0.34
-2 -5 -4 1.35 0.41
1 5 5 126.01 7.65
-1 5 -5 126.4 7.07
1 5 5 127.45 5.12
-1 5 -5 144.26 7.05
1 5 5 129.85 6.05
-1 5 -5 138.38 6
-1 5 -5 123.2 6.83
-1 5 -5 129.21 5.01
-1 -5 -5 135.86 5.34
1 -5 5 133.06 5.14
1 -5 5 133.27 5.26
-1 -5 -5 134.9 6.19
-1 -5 -5 143.36 7.37
0 5 -6 54.36 2.75
0 5 6 51.15 2.58
0 5 -6 46.62 3.84
0 5 -6 43.13 3.55
0 5 -6 49.5 2.06
0 -5 6 51.28 2.18
0 -5 -6 52.84 2.72
0 -5 -6 51.11 2.27
0 -5 6 52.23 2.2
0 -5 -6 50.33 2.17
0 -5 -6 51 3.45
-1 5 7 70.08 3.32
1 5 -7 63.31 4.85
1 5 -7 68.17 3.49
1 5 -7 62.28 2.66
-1 -5 7 57.2 4.72
1 -5 -7 67.87 2.83
-1 -5 7 68.84 2.82
1 -5 -7 65.5 2.88
-1 -5 7 67.3 2.77
1 -5 -7 70.17 4.22
1 -5 -7 68.06 3.63
2 5 -8 0.15 0.62
2 5 -8 0.19 0.34
-2 5 8 0.33 0.46
2 5 -8 0.98 0.8
2 -5 -8 -0.39 0.73
-2 -5 8 0.86 0.3
2 -5 -8 0.36 0.42
2 -5 -8 0.39 0.89
3 5 -9 0.19 0.62
3 5 -9 0.91 0.55
3 -5 -9 0.72 0.89
-3 -5 9 0.33 0.35
-3 -5 9 0.54 0.34
3 -5 -9 0.07 0.45
3 -5 -9 0.64 0.5
3 -5 -9 2.04 0.9
4 5 -10 0.56 0.34
4 5 -10 0.37 0.83
4 -5 -10 -0.99 0.6
4 -5 -10 0.96 0.68
4 -5 -10 -0.73 0.94
4 -5 -10 0.18 0.56
-4 -5 10 0.18 0.4
5 5 -11 0.24 1.05
5 5 -11 0.49 0.54
5 5 -11 0.93 0.76
-5 -5 11 0.55 0.74
5 -5 -11 0.29 0.74
5 -5 -11 0.38 0.49
6 5 -12 26.82 2.37
6 5 -12 22.56 1.47
-6 -5 12 27.18 1.84
6 -5 -12 26.45 1.69
7 5 -13 0.16 1.22
7 5 -13 2.97 1.08
7 5 -13 3.1 0.89
-7 -5 13 1.78 0.93
7 -5 -13 1.23 0.89
7 6 -1 6.34 0.75
7 6 -1 5.12 0.86
-7 6 1 4.1 0.99
7 -6 -1 4.04 1.03
7 -6 -1 4.56 0.84
6 6 0 0.95 0.75
-6 6 0 0.95 0.87
6 6 0 -0.45 0.48
-6 6 0 0.06 0.7
6 -6 0 0.17 0.76
-6 -6 0 0.36 0.68
6 -6 0 0.73 0.57
5 6 1 1.02 0.48
-5 6 -1 1.27 0.58
5 6 1 0.3 0.62
-5 6 -1 -0.28 0.71
5 -6 1 0.62 0.55
5 -6 1 0.1 0.63
-5 -6 -1 0.01 0.6
-4 6 -2 6.82 0.81
-4 6 -2 6.61 0.85
4 6 2 7.03 0.84
4 6 2 7.31 0.66
4 -6 2 7.66 0.69
4 -6 2 7.37 0.78
-4 -6 -2 6.44 1.1
-4 -6 -2 7.43 0.72
-3 6 -3 102.08 4.73
3 6 3 106.42 4.13
3 6 3 104.86 4.9
-3 6 -3 106.99 5.71
3 -6 3 105.66 4.18
-3 -6 -3 88.52 5.87
-3 -6 -3 107.54 4.39
3 -6 3 102.87 4.32
-2 6 -4 24.2 1.5
-2 6 -4 23.96 1.13
2 6 4 24.74 1.48
2 6 4 24.49 1.22
-2 6 -4 23.59 1.63
2 -6 4 23.15 1.3
-2 -6 -4 21.95 2.26
-2 -6 -4 22.27 1.34
2 -6 4 24.95 1.31
-1 6 -5 94.37 3.78
1 6 5 98.06 3.92
-1 6 -5 100.65 4.6
1 6 5 98.52 4.6
1 -6 5 97.86 4.02
-1 -6 -5 96.54 4.09
1 -6 5 93.22 3.91
-1 -6 -5 102.79 5.9
0 6 -6 3.48 0.76
0 6 6 2.83 0.53
0 6 6 2.98 0.43
0 6 -6 2.39 0.35
0 -6 -6 2.53 0.92
0 -6 6 2.87 0.49
0 -6 -6 3.99 0.55
0 -6 -6 3.77 0.44
0 -6 6 3.22 0.46
1 6 -7 13.08 1.2
-1 6 7 10.94 0.9
1 6 -7 11.28 0.71
1 -6 -7 12.14 1.68
1 -6 -7 10.66 0.88
-1 -6 7 11 0.76
1 -6 -7 10.27 1.14
1 -6 -7 11.52 0.8
-1 -6 7 10.6 0.84
2 6 -8 0.79 0.27
2 6 -8 0.02 0.76
-2 6 8 0.88 0.38
2 -6 -8 0.36 0.8
2 -6 -8 0.07 0.5
2 -6 -8 0.7 0.6
-2 -6 8 -0.01 0.48
2 -6 -8 0.78 0.51
3 6 -9 34.66 2.39
3 6 -9 25.21 2.17
3 6 -9 32.45 1.52
-3 6 9 31.42 1.93
3 -6 -9 28.92 1.67
3 -6 -9 25.54 2.4
-3 -6 9 31.05 1.54
3 -6 -9 29.43 2.35
-3 -6 9 33.28 1.69
3 -6 -9 30.38 1.67
4 6 -10 0.05 0.93
4 6 -10 0.66 0.78
4 -6 -10 -0.91 0.59
4 -6 -10 0.33 0.7
-4 -6 10 1.42 0.52
4 -6 -10 0.44 1.01
4 -6 -10 0.5 0.57
5 6 -11 57.66 2.71
5 6 -11 51.24 3.58
5 6 -11 66.21 3.96
5 -6 -11 61.69 2.97
-5 -6 11 62.35 2.95
6 6 -12 -0.81 0.66
6 6 -12 -1.46 1.37
6 6 -12 -0.46 1.21
6 -6 -12 0.22 0.59
-6 -6 12 0.2 0.94
7 7 -1 8.77 1.13
7 7 -1 9.73 0.96
7 -7 -1 11.42 1.15
-7 -7 1 7.99 1.03
7 -7 -1 10.38 1.36
6 7 0 11.44 0.95
6 7 0 10.47 1.24
6 -7 0 12.16 1.28
6 -7 0 10.79 0.96
-6 -7 0 10.19 1.04
5 7 1 25.08 1.35
-5 7 -1 20.34 1.85
5 7 1 25.26 1.7
-5 -7 -1 24.93 1.56
5 -7 1 25.95 1.5
5 -7 1 23.71 1.64
4 7 2 25.02 1.68
-4 7 -2 27.73 1.72
4 7 2 26.83 1.42
-4 -7 -2 26.52 1.59
4 -7 2 28.92 1.68
4 -7 2 28.89 1.52
-3 7 -3 36.74 1.98
3 7 3 31.98 1.95
3 7 3 35.95 1.7
3 -7 3 37.36 1.87
3 -7 3 34.7 1.77
-3 -7 -3 34.84 1.89
-3 -7 -3 27.47 2.84
-2 7 -4 0.14 0.52
2 7 4 -0.17 0.43
2 7 4 -0.17 0.43
2 -7 4 -0.24 0.33
-2 -7 -4 -0.58 0.45
2 -7 4 0.08 0.46
-2 -7 -4 -0.24 1.23
1 7 5 16.31 1
-1 7 -5 13.12 1.14
-1 7 -5 14.5 0.85
1 7 5 14.46 1.07
-1 -7 -5 12.51 1.94
-1 -7 -5 14.74 1.06
1 -7 5 15.13 0.99
1 -7 5 14.26 0.94
0 7 6 11.86 0.86
0 7 -6 9.8 0.67
0 7 6 8.96 0.8
0 7 -6 11.6 1.17
0 -7 6 10.62 0.84
0 -7 6 11.84 0.85
0 -7 -6 9.88 0.91
0 -7 -6 7.12 1.61
1 7 -7 5.16 0.55
1 7 -7 5.68 0.84
-1 7 7 5.14 0.7
1 -7 -7 7.08 0.82
1 -7 -7 5.88 0.71
-1 -7 7 6.45 0.6
-1 -7 7 5.48 0.71
1 -7 -7 6.56 1.48
2 7 -8 7.1 1.2
2 7 -8 5.76 0.59
2 -7 -8 5.43 1.42
2 -7 -8 6.81 0.8
2 -7 -8 5.65 0.83
-2 -7 8 6.23 0.77
-2 -7 8 5.98 0.66
3 7 -9 2.6 0.88
3 7 -9 0.71 0.35
3 -7 -9 1.76 0.72
-3 -7 9 1.44 0.49
-3 -7 9 0.05 0.38
3 -7 -9 -0.01 1.02
3 -7 -9 0.4 0.5
3 -7 -9 -0.23 1.18
4 7 -10 8.32 0.8
4 7 -10 7.06 1.43
4 -7 -10 7.06 1.17
-4 -7 10 9.07 1
4 -7 -10 5.27 1.33
4 -7 -10 8.5 1.01
5 7 -11 4.13 1.44
5 7 -11 2.58 0.72
5 -7 -11 2.41 0.84
5 -7 -11 1.08 1.17
5 -7 -11 0.94 1.27
-5 -7 11 4.34 0.87
-5 -8 -1 3.29 0.9
5 -8 1 4.68 0.81
5 -8 1 4.83 0.99
4 8 2 6.1 0.84
4 8 2 7.23 0.72
4 -8 2 7.49 1
4 -8 2 8.26 0.8
-4 -8 -2 8 1
3 8 3 11.27 1.09
3 8 3 11.73 0.94
3 -8 3 14.3 1.08
3 -8 3 11.81 1.04
-3 -8 -3 12.6 1.06
2 8 4 22.03 1.55
-2 8 -4 22.44 1.51
2 8 4 22.88 1.34
2 -8 4 21.89 1.4
2 -8 4 22.52 1.36
-2 -8 -4 23.37 1.51
1 8 5 0.5 0.39
-1 8 -5 0.12 0.54
-1 -8 -5 0.39 0.63
1 -8 5 0.76 0.55
-1 -8 -5 1.04 1.17
1 -8 5 1.07 0.58
0 8 6 27.85 1.57
0 8 -6 27.36 1.41
0 8 -6 28.81 1.93
0 -8 6 28.68 1.57
0 -8 6 27.21 1.55
0 -8 -6 28.79 1.7
1 8 -7 26.97 1.42
-1 8 7 30.23 1.66
1 8 -7 28.95 1.99
1 -8 -7 27.95 1.72
-1 -8 7 28.04 1.57
-1 -8 7 30.41 1.6
2 8 -8 20.71 1.92
2 8 -8 23.56 1.28
-2 -8 8 21.45 1.43
2 -8 -8 23.08 1.44
-2 -8 8 22.71 1.36
2 -8 -8 22.5 1.52
3 8 -9 11.77 1.67
3 8 -9 10.43 0.82
-3 -8 9 10.59 0.96
3 -8 -9 10.69 1.26
3 -8 -9 13.19 1.19
4 8 -10 4.03 1.52
4 8 -10 5.23 0.68
-4 -8 10 6.13 0.99
4 -8 -10 2.96 1.46
4 -8 -10 6.12 1
4 9 2 3.27 0.74
-4 -9 -2 2.62 0.71
4 -9 2 3.66 0.82
4 -9 2 2.64 0.72
3 9 3 1.71 0.51
-3 -9 -3 2.17 0.68
3 -9 3 1.7 0.82
3 -9 3 1.81 0.57
2 9 4 15.7 1.14
-2 -9 -4 14.3 1.23
2 -9 4 15.54 1.24
2 -9 4 14.78 1.2
1 9 5 1.99 0.67
1 -9 5 -0.56 0.66
1 -9 5 2.67 0.73
-1 -9 -5 0.36 1.48
-1 -9 -5 1.15 0.61
0 9 6 24.71 1.55
0 9 -6 25.52 1.89
0 -9 6 26.09 1.56
0 -9 6 22.78 1.52
0 -9 -6 27.9 1.73
1 9 -7 4.21 0.61
-1 9 7 5.33 0.87
-1 -9 7 5.47 0.86
1 -9 -7 5.92 1.01
-1 -9 7 6.24 0.79
2 9 -8 -0.07 0.93
2 9 -8 -0.45 0.42
-2 9 8 0.26 0.53
-2 -9 8 0.15 0.49
-2 -9 8 1.16 0.57
9 0 -2 -0.18 0.69
-9 0 2 0.19 0.84
9 0 -2 0.8 0.74
8 0 -1 1.09 0.76
8 0 -1 0.57 0.61
8 0 -1 -0.06 0.62
-8 0 1 -0.34 0.76
-7 0 0 6.58 1
7 0 0 7.41 0.79
7 0 0 7.53 0.8
7 0 0 8.99 0.92
6 0 1 0.44 0.54
-6 0 -1 0.28 0.59
6 0 1 0.07 0.53
6 0 1 0.19 0.4
-5 0 -2 19.68 1.45
-5 0 -2 20.97 1.5
5 0 2 19.77 1.24
5 0 2 19.68 1.27
5 0 2 20.38 1.27
4 0 3 0.45 0.41
-4 0 -3 0.12 0.44
4 0 3 0.81 0.24
4 0 3 0.19 0.33
4 0 3 -0.23 0.34
-4 0 -3 -0.33 0.46
-4 0 -3 -0.11 0.45
-3 0 -4 156.34 7.59
-3 0 -4 154.76 6.72
3 0 4 144.44 6.03
3 0 4 158.43 6.88
3 0 4 155.85 6.65
-3 0 -4 152.76 8.13
3 0 4 152.92 5.68
-2 0 -5 -0.1 0.31
-2 0 -5 0.06 0.33
2 0 5 0 0.31
2 0 5 0.24 0.29
-2 0 -5 -0.03 0.28
-2 0 -5 0.2 0.24
2 0 5 -0.04 0.16
2 0 5 -0.06 0.12
1 0 6 1.8 0.2
-1 0 -6 1.64 0.38
-1 0 -6 2.13 0.53
1 0 6 1.63 0.33
-1 0 -6 1.28 0.37
1 0 6 1.23 0.35
0 0 -7 0.18 0.39
0 0 7 0.34 0.24
0 0 7 0.31 0.17
0 0 -7 0.09 0.13
0 0 -7 -0.26 0.25
0 0 -7 0.81 0.9
0 0 7 -0.76 0.87
-1 0 8 70.15 2.78
1 0 -8 71.15 3.59
-1 0 8 66.13 4.68
1 0 -8 73.39 3.59
1 0 -8 71.98 2.84
1 0 -8 71.45 3.76
1 0 -8 67.02 5.01
-1 0 8 70.02 3.23
1 0 -8 70.92 3.33
2 0 -9 -0.42 0.39
-2 0 9 -1.09 2.2
2 0 -9 -0.46 0.42
2 0 -9 0.15 0.51
-2 0 9 -0.4 0.25
2 0 -9 1.59 1.94
3 0 -10 23.4 1.56
3 0 -10 27.23 1.38
3 0 -10 25.01 1.6
3 0 -10 24.94 1.78
-3 0 10 24.91 1.35
3 0 -10 21.81 4.14
3 0 -10 24.86 1.84
-3 0 10 22.13 3.92
-4 0 11 -0.28 0.37
4 0 -11 -0.59 0.48
4 0 -11 -0.35 0.54
4 0 -11 0.53 0.38
4 0 -11 -1.23 0.81
5 0 -12 15.23 1.32
5 0 -12 17.01 1.6
5 0 -12 16.66 1.2
-5 0 12 15.63 1.23
5 0 -12 18.6 1.75
6 0 -13 0.96 0.94
6 0 -13 -0.71 0.65
-6 0 13 0.77 0.55
6 0 -13 -0.75 0.91
-7 0 14 4.9 0.82
7 0 -14 7.14 1.26
7 0 -14 6 0.97
8 0 -15 0.6 1.15
-8 0 15 -0.34 0.65
8 0 -15 0.42 0.9
9 1 -2 1.66 0.8
9 -1 -2 1.64 0.76
-9 -1 2 0.8 0.85
-8 1 1 0.83 0.73
8 1 -1 1.19 0.71
8 1 -1 1.04 0.82
8 -1 -1 2.4 0.91
-8 -1 1 1.48 0.77
7 1 0 0.59 0.68
7 1 0 -0.37 0.57
-7 1 0 0.72 0.68
7 1 0 0.33 0.4
7 -1 0 -0.66 0.49
7 -1 0 -0.32 0.59
-7 -1 0 1.24 0.68
7 -1 0 0.05 0.62
6 1 1 71.31 3.45
6 1 1 68.11 3.3
6 1 1 70.66 3.55
-6 1 -1 72.5 4.21
6 -1 1 74.22 3.49
-6 -1 -1 74.27 3.84
-6 -1 -1 74.11 4.2
6 -1 1 69.19 3.47
6 -1 1 71.74 3.39
5 1 2 23.66 1.46
5 1 2 21.57 1.36
5 1 2 22.53 1.41
-5 1 -2 25.61 1.75
-5 1 -2 24.41 1.5
5 -1 2 22.53 1.38
-5 -1 -2 22.94 1.57
5 -1 2 23.03 1.35
5 -1 2 24.19 1.46
-5 -1 -2 24.87 1.72
-4 1 -3 65.72 3.12
-4 1 -3 64.95 3.7
4 1 3 63.48 3.06
-4 1 -3 56.3 3.48
4 1 3 64.7 3.12
4 1 3 58.19 2.78
4 -1 3 60.83 2.81
4 -1 3 66.84 3.06
-4 -1 -3 65.35 3.46
-4 -1 -3 69.67 3.73
4 -1 3 68.67 3.1
4 -1 3 65.75 2.58
3 1 4 25.17 1.39
-3 1 -4 26.26 1.69
3 1 4 21.88 1.19
-3 1 -4 21.87 1.62
3 1 4 22.81 0.99
3 1 4 23.03 1.39
-3 1 -4 23.6 1.42
-3 -1 -4 25.33 1.61
-3 -1 -4 25.5 1.42
-3 -1 -4 24.9 1.68
3 -1 4 24.94 1.4
3 -1 4 23.84 1.21
3 -1 4 25.77 1.34
3 -1 4 26.52 1.11
-2 1 -5 21.5 1.55
2 1 5 22.15 1.33
-2 1 -5 21.33 1.38
2 1 5 20.87 1.07
2 1 5 23.44 1.56
2 1 5 23.28 0.91
2 1 5 23.18 1.32
2 1 5 22.91 0.92
-2 1 -5 24.3 1.37
2 1 5 23.31 1.73
-2 1 -5 22.34 1.55
-2 -1 -5 23.87 1.58
-2 -1 -5 23.35 1.35
2 -1 5 24.7 1.29
2 -1 5 24.6 1.3
2 -1 5 23.06 1.04
-2 -1 -5 25.13 1.33
2 -1 5 23.6 1.02
1 1 6 34.61 2.59
-1 1 -6 34.4 1.87
-1 1 -6 35.3 1.84
-1 1 -6 34.12 2.17
1 1 6 33.69 1.8
1 1 6 31.12 1.41
1 1 6 34.23 1.35
1 1 6 39.31 1.9
-1 1 -6 30.67 2.05
1 -1 6 36.46 1.44
1 -1 6 39.56 1.87
-1 -1 -6 35.39 1.77
-1 -1 -6 32.93 1.35
-1 -1 -6 36.08 2.13
1 -1 6 32.81 1.38
-1 -1 -6 36.61 1.89
-1 -1 -6 34.62 2.19
1 -1 6 35.66 1.75
0 1 -7 2.6 0.44
0 1 7 2.59 0.42
0 1 -7 3.17 0.45
0 1 -7 2.71 0.55
0 1 7 2.09 0.24
0 1 7 3.75 1.6
0 1 -7 2.87 1.24
0 1 -7 2.77 0.26
0 -1 -7 2.52 0.4
0 -1 -7 2.05 0.54
0 -1 7 2.58 0.79
0 -1 -7 5.28 1.29
0 -1 7 2 0.34
0 -1 -7 2.52 0.46
0 -1 7 1.99 0.28
0 -1 -7 2.76 0.26
-1 1 8 60.95 2.31
1 1 -8 54.78 3.05
1 1 -8 55.97 2.88
1 1 -8 60.53 2.85
1 1 -8 56.21 2.32
-1 1 8 55.51 4.68
1 1 -8 57.09 2.98
1 1 -8 50.54 4.35
1 -1 -8 56.42 3.12
-1 -1 8 51.54 3.75
-1 -1 8 54.62 2.58
1 -1 -8 55.15 2.32
-1 -1 8 56.24 2.27
1 -1 -8 53.58 4.4
1 -1 -8 59.6 3
1 -1 -8 53.84 2.64
2 1 -9 139.14 5.35
2 1 -9 143.26 6.61
-2 1 9 139.69 5.32
-2 1 9 129.36 8.41
2 1 -9 136.2 6.59
2 1 -9 142.52 6.84
2 1 -9 134.75 8.48
2 1 -9 134.22 6.23
2 -1 -9 139.81 6.89
2 -1 -9 136.12 6.56
-2 -1 9 116.21 7.4
-2 -1 9 141.17 5.29
2 -1 -9 141.36 5.39
-2 -1 9 140.84 5.91
2 -1 -9 132.65 6.03
2 -1 -9 141.87 6.78
2 -1 -9 140.26 8.65
-3 1 10 25.46 4.58
3 1 -10 28.15 1.86
3 1 -10 25.62 1.35
3 1 -10 23.13 4.15
3 1 -10 25.36 1.6
3 1 -10 23.36 1.64
-3 1 10 27.56 1.37
3 1 -10 24 1.72
3 -1 -10 24.73 3.84
3 -1 -10 23.5 1.89
-3 -1 10 24.41 1.35
-3 -1 10 17.9 3.55
3 -1 -10 22.7 1.61
3 -1 -10 25.99 1.38
3 -1 -10 28.11 1.88
3 -1 -10 22.53 1.44
-4 1 11 2.63 0.6
4 1 -11 2.87 0.75
4 1 -11 2.09 0.79
4 1 -11 1.84 0.52
4 1 -11 3.36 0.73
-4 -1 11 2.36 0.5
4 -1 -11 3.62 0.6
4 -1 -11 2.41 0.66
4 -1 -11 2.09 0.97
4 -1 -11 3.24 0.6
4 -1 -11 2.43 0.56
5 1 -12 2.02 0.65
-5 1 12 3.77 0.72
5 1 -12 2.56 0.87
5 1 -12 1.91 0.74
5 1 -12 2.81 0.93
5 -1 -12 3.8 0.96
-5 -1 12 1.92 0.59
5 -1 -12 2.69 0.55
6 1 -13 33.09 1.94
-6 1 13 34.19 1.92
6 1 -13 28.69 2.13
6 1 -13 32.3 2.46
6 1 -13 34.21 2.37
6 -1 -13 33.54 1.88
6 -1 -13 35.98 2.45
-6 -1 13 35.53 1.98
6 -1 -13 32.59 2.62
7 1 -14 -0.58 0.73
7 1 -14 0.01 0.75
7 1 -14 0.65 0.98
-7 1 14 0.64 0.55
7 -1 -14 -0.41 0.72
7 -1 -14 0.62 0.7
7 -1 -14 0.76 0.82
-8 1 15 3.68 0.91
8 1 -15 3 1.2
8 1 -15 3.83 1.03
-8 -1 15 3.57 1.07
8 -1 -15 3.49 0.76
8 -1 -15 2.55 1.16
8 -1 -15 1.9 1.02
9 2 -2 8.56 1.19
-9 2 2 6.81 1.13
9 -2 -2 6.74 1.13
8 2 -1 -1.21 0.86
-8 2 1 0.93 0.64
8 2 -1 -0.37 0.69
8 -2 -1 1.62 0.93
-8 -2 1 0.7 0.55
8 -2 -1 0.66 0.64
7 2 0 56.95 2.84
7 2 0 53.21 2.96
7 2 0 55.52 2.91
-7 2 0 54.94 3.55
7 -2 0 58.21 2.94
-7 -2 0 58.3 3.47
6 2 1 0.64 0.58
6 2 1 -0.1 0.36
-6 2 -1 1.37 0.67
6 2 1 0.16 0.53
6 -2 1 0.17 0.45
-6 -2 -1 0.48 0.57
-6 -2 -1 0.42 0.46
-5 2 -2 1.92 0.62
5 2 2 1.62 0.5
-5 2 -2 2.69 0.6
5 2 2 2.31 0.47
-5 -2 -2 3.15 0.58
5 -2 2 2.51 0.5
5 -2 2 2.3 0.37
-5 -2 -2 2.87 0.63
5 -2 2 1.64 0.42
-4 2 -3 4.26 0.64
4 2 3 4.25 0.51
-4 2 -3 4.75 0.68
4 2 3 4.62 0.57
-4 -2 -3 3.83 0.65
4 -2 3 4.67 0.42
4 -2 3 3.44 0.45
4 -2 3 4.37 0.42
-4 -2 -3 5.41 1.72
-4 -2 -3 3.93 0.59
3 2 4 70.2 4.2
3 2 4 77.43 3.66
3 2 4 78.28 4.36
3 2 4 79.1 3.71
-3 2 -4 81.9 4.38
-3 2 -4 76.62 3.65
3 2 4 73.35 2.96
-3 -2 -4 80.57 4.38
-3 -2 -4 82.23 4.2
3 -2 4 77.28 3.21
3 -2 4 80.22 3.58
-3 -2 -4 72.6 3.77
3 -2 4 82.26 3.08
2 2 5 4.1 0.47
-2 2 -5 3.73 0.6
2 2 5 3.92 1.02
2 2 5 3.56 0.59
-2 2 -5 3.44 0.54
2 2 5 5.35 1.28
2 2 5 3.77 0.27
2 -2 5 4.43 0.55
2 -2 5 4.24 0.34
-2 -2 -5 4.15 0.5
2 -2 5 4.39 0.35
-2 -2 -5 4.21 0.38
-2 -2 -5 4.35 0.64
2 -2 5 4.73 0.41
-2 -2 -5 3.77 0.44
-1 2 -6 6.93 0.77
1 2 6 9.46 1.32
1 2 6 8.1 0.44
-1 2 -6 8.45 0.68
-1 2 -6 7.99 0.75
1 2 6 8.66 0.73
1 2 6 7.89 1.66
-1 2 -6 6.33 0.77
-1 -2 -6 7.63 0.46
-1 -2 -6 7.66 0.67
-1 -2 -6 9.08 1.3
1 -2 6 8.07 0.51
-1 -2 -6 6.94 0.89
1 -2 6 7.34 0.41
-1 -2 -6 7.58 0.42
-1 -2 -6 9.07 0.66
1 -2 6 8.51 0.66
0 2 7 53.67 2.61
0 2 -7 49.62 2.54
0 2 -7 47.44 2.83
0 2 -7 46.5 3.38
0 2 7 48.35 3.86
0 2 -7 53.67 2.56
0 2 -7 48.18 1.96
0 -2 -7 48.44 2.89
0 -2 -7 50.81 2.62
0 -2 -7 50.46 2.34
0 -2 -7 48.85 1.98
0 -2 7 48.85 2.89
0 -2 -7 47.98 3.58
0 -2 -7 51.15 2.02
0 -2 7 51.25 2.33
0 -2 7 50.25 2.05
0 -2 7 46.53 1.93
1 2 -8 1.63 0.54
1 2 -8 1.5 1.57
1 2 -8 2.22 0.6
-1 2 8 2.51 0.3
1 2 -8 1.96 0.46
1 2 -8 1.98 0.44
-1 2 8 4.01 2.37
1 2 -8 2.33 0.29
-1 -2 8 1.93 0.33
-1 -2 8 1.63 1.24
1 -2 -8 1.85 0.2
-1 -2 8 2.02 0.36
1 -2 -8 2.79 0.62
1 -2 -8 1.55 0.6
1 -2 -8 2.36 0.35
1 -2 -8 2.45 0.36
1 -2 -8 -1.03 1.67
2 2 -9 9.21 1
2 2 -9 11.55 1.09
-2 2 9 10.35 0.7
2 2 -9 11.23 0.96
2 2 -9 12.4 0.94
-2 2 9 8.68 3.25
2 2 -9 10.28 0.7
2 2 -9 11.47 2.77
2 -2 -9 10.15 0.77
2 -2 -9 9.07 0.7
-2 -2 9 9.76 0.72
-2 -2 9 11.02 0.7
-2 -2 9 10.98 2.21
2 -2 -9 13.19 1.17
2 -2 -9 9.75 3.07
2 -2 -9 12.1 1.04
-3 2 10 184.48 7.09
3 2 -10 185.03 8.42
3 2 -10 178.88 10.89
3 2 -10 188.35 7.15
3 2 -10 186.07 8.77
3 2 -10 196.58 8.84
-3 -2 10 164.33 10.06
-3 -2 10 183.84 7.11
3 -2 -10 184.47 7.24
3 -2 -10 181.84 9.14
3 -2 -10 194.59 9.2
3 -2 -10 190.01 8.73
-4 2 11 0.46 0.46
4 2 -11 0.26 0.56
4 2 -11 1.34 0.61
4 2 -11 1.09 0.75
4 2 -11 0.14 0.45
4 -2 -11 1.1 0.91
4 -2 -11 0.56 0.38
-4 -2 11 0.3 0.39
4 -2 -11 1.25 0.79
4 -2 -11 -0.12 0.42
5 2 -12 143.78 7.78
-5 2 12 157.53 6.31
5 2 -12 161.69 7.82
5 2 -12 153.24 6.35
5 2 -12 160.18 7.48
5 -2 -12 165.69 6.45
5 -2 -12 171.98 7.79
-5 -2 12 155.72 6.41
5 -2 -12 157.19 8.17
-6 2 13 0.09 0.42
6 2 -13 -0.92 0.6
6 2 -13 0.97 0.81
6 2 -13 -1.12 0.81
6 2 -13 0.81 0.65
-6 -2 13 -0.54 0.73
6 -2 -13 -0.14 0.81
6 -2 -13 0.47 0.68
-7 2 14 8.85 1.06
7 2 -14 8.89 1.39
7 2 -14 6.31 1.19
7 2 -14 8.8 1.42
7 2 -14 9.2 1.11
7 -2 -14 9.11 1.2
7 -2 -14 8.8 1.35
-7 -2 14 8.77 1.03
7 -2 -14 9.67 1.13
8 2 -15 -0.99 1
8 2 -15 1.08 0.69
-8 2 15 0.45 0.81
8 2 -15 0.6 1.19
8 -2 -15 -0.86 1.1
8 -2 -15 1.15 1.12
-8 -2 15 -0.31 1
8 -2 -15 1.35 0.84
-9 3 2 2.96 1.19
9 3 -2 1.61 0.98
9 3 -2 3.96 0.85
9 -3 -2 4.22 1.18
8 3 -1 3.5 0.88
-8 3 1 2.59 0.99
8 3 -1 2.62 0.69
8 -3 -1 4.78 1.02
-7 3 0 18.65 1.72
7 3 0 15.92 1.31
-7 -3 0 18.35 1.49
7 -3 0 20.11 1.51
-6 3 -1 83.06 4.95
6 3 1 84.02 4.14
-6 3 -1 83.56 4.07
6 3 1 83.36 4.2
6 -3 1 84.08 3.87
-6 -3 -1 91.52 4.88
6 -3 1 87.68 3.57
-5 3 -2 39.48 2.49
-5 3 -2 35.56 2.05
5 3 2 36.03 2.13
5 3 2 36.5 2.06
5 -3 2 36.44 1.93
-5 -3 -2 38.28 2.38
-5 -3 -2 38.56 2.28
5 -3 2 38.37 1.77
4 3 3 118.85 5.45
-4 3 -3 116.13 5.37
4 3 3 117.24 5.51
4 3 3 110.03 4.51
-4 3 -3 122.32 6.49
-4 -3 -3 122.46 6.46
4 -3 3 121.53 4.88
-4 -3 -3 118.69 6.1
4 -3 3 122.87 4.64
3 3 4 207.42 9.23
-3 3 -4 211.27 8.95
-3 3 -4 216.69 10.83
3 3 4 190.51 9.6
3 3 4 190.09 9.61
3 3 4 202.06 7.67
-3 -3 -4 204.97 10.22
-3 -3 -4 213.57 9.48
3 -3 4 214.46 9.05
-3 -3 -4 211.83 8.08
3 -3 4 206.31 7.74
3 -3 4 207.12 8.02
2 3 5 0.3 1.27
-2 3 -5 0.91 0.35
2 3 5 2.2 1.31
2 3 5 0.82 0.39
-2 3 -5 1.15 0.46
2 3 5 1.62 0.24
-2 -3 -5 1.63 0.37
-2 -3 -5 2 0.55
2 -3 5 1.71 0.3
2 -3 5 0.98 0.31
-2 -3 -5 1.31 0.3
2 -3 5 1.84 0.29
1 3 6 286.71 12.66
-1 3 -6 261.57 11.72
1 3 6 296.01 12.67
-1 3 -6 287.88 14.76
1 3 6 292.29 13.09
1 3 6 288.24 10.6
-1 3 -6 292.18 11.88
-1 3 -6 274.29 10.49
-1 3 -6 299.1 12.27
-1 -3 -6 284.72 10.93
-1 -3 -6 293.15 13.04
1 -3 6 299.91 10.6
1 -3 6 284.05 10.86
-1 -3 -6 281.25 14.01
0 3 -7 42.11 2.16
0 3 7 43.16 2.22
0 3 -7 38.19 1.62
0 3 7 38.64 3.86
0 3 -7 38.66 2.95
0 3 -7 43.8 2.27
0 -3 -7 40.02 1.91
0 -3 -7 42.13 2.27
0 -3 -7 43.91 3.51
0 -3 -7 42.35 2.62
0 -3 7 41.26 1.75
0 -3 7 41.5 1.98
0 -3 7 38.34 1.65
0 -3 -7 38.14 1.7
0 -3 7 36.97 2.71
0 -3 -7 38.5 1.71
1 3 -8 45.43 2.64
1 3 -8 50.56 2.53
1 3 -8 47.83 3.8
-1 3 8 53.34 4.82
1 3 -8 46.76 1.99
1 3 -8 48.88 2.66
1 -3 -8 50.36 3.04
-1 -3 8 49.71 2.1
-1 -3 8 46.45 3.53
1 -3 -8 51.28 2.12
-1 -3 8 49.81 2.27
1 -3 -8 45.85 2.03
1 -3 -8 48.51 4.37
1 -3 -8 51.73 2.83
2 3 -9 166.96 7.88
2 3 -9 177.51 8.09
2 3 -9 174.4 9.52
2 3 -9 177.39 6.59
2 3 -9 178.91 8.21
-2 3 9 172.64 10.83
2 -3 -9 165.13 6.71
-2 -3 9 169.17 7.28
-2 -3 9 176.71 6.63
-2 -3 9 158.38 8.88
2 -3 -9 190.39 8.82
2 -3 -9 180.74 8.55
2 -3 -9 159.71 9.93
3 3 -10 0.5 0.49
3 3 -10 0.86 0.29
3 3 -10 0.98 0.75
3 3 -10 1.19 0.69
-3 3 10 0.24 0.29
-3 -3 10 0.11 0.45
3 -3 -10 0.82 0.66
3 -3 -10 0.49 0.42
3 -3 -10 -0.56 0.85
4 3 -11 35.76 2.31
4 3 -11 34.95 2.33
4 3 -11 29.75 1.6
-4 3 11 30.82 1.58
4 3 -11 27.85 1.95
-4 -3 11 31.18 1.72
4 -3 -11 29.58 2.07
4 -3 -11 36.61 2.59
4 -3 -11 32.38 2.2
4 -3 -11 30.24 1.71
5 3 -12 1.4 0.94
-5 3 12 -0.41 0.53
5 3 -12 -0.8 0.72
5 3 -12 0.74 0.57
5 3 -12 0.73 0.83
5 -3 -12 2.29 1.08
-5 -3 12 0.28 0.49
5 -3 -12 -0.74 0.64
5 -3 -12 0.3 0.84
6 3 -13 10.17 1.44
6 3 -13 8.94 1.01
6 3 -13 7.41 1.15
-6 3 13 8.1 0.84
6 -3 -13 9.81 1.52
-6 -3 13 8.31 0.98
6 -3 -13 8.28 1.1
6 -3 -13 8.73 0.94
7 3 -14 0.54 0.98
7 3 -14 0.94 0.58
7 -3 -14 2.28 1.24
7 -3 -14 2.95 0.93
7 -3 -14 1.86 1.05
-7 -3 14 1.31 0.72
-8 4 1 5.5 1.05
8 4 -1 6.04 1.01
8 -4 -1 6.74 1.15
-7 4 0 -0.41 0.86
7 4 0 1.46 0.73
7 -4 0 -0.65 0.72
7 -4 0 0.66 0.49
-6 4 -1 16.15 1.23
6 4 1 15.88 1.22
-6 4 -1 16.09 1.44
6 -4 1 15.29 1.09
6 -4 1 15.84 1.28
5 4 2 13.92 1.14
-5 4 -2 14.06 1.11
-5 4 -2 14.81 1.33
5 -4 2 13.09 0.95
-5 -4 -2 14.45 1.3
5 -4 2 14.04 1.02
-5 -4 -2 14.36 1.1
-4 4 -3 33.31 2.16
4 4 3 32.4 1.85
4 4 3 32.2 1.46
-4 4 -3 32.49 1.84
4 -4 3 32.98 1.69
-4 -4 -3 31.87 2.22
4 -4 3 32.96 1.59
-4 -4 -3 32.23 1.7
3 4 4 48.95 4.27
3 4 4 55.32 4.51
3 4 4 59.38 2.39
-3 4 -4 62.14 2.95
3 4 4 57.8 2.94
-3 4 -4 65.17 3.49
3 -4 4 63.96 2.51
3 -4 4 60.27 2.57
-3 -4 -4 58.78 3.52
-3 -4 -4 51.61 2.88
-3 -4 -4 59.9 2.61
2 4 5 3.22 2.05
2 4 5 5.4 1.78
2 4 5 4.58 0.61
-2 4 -5 4.93 0.68
2 4 5 5.54 0.42
-2 -4 -5 5.37 0.52
-2 -4 -5 5.31 0.88
-2 -4 -5 5.3 0.49
2 -4 5 5.02 0.46
2 -4 5 4.54 0.45
-1 4 -6 13.37 1.03
1 4 6 15.09 2.82
1 4 6 12.25 0.72
1 4 6 13.42 0.98
-1 4 -6 12.06 1.02
1 4 6 12.27 2.39
1 -4 6 13.75 0.81
1 -4 6 12.13 0.71
-1 -4 -6 13.51 1.45
-1 -4 -6 12.67 0.92
-1 -4 -6 12.38 0.77
0 4 -7 222.92 11.06
0 4 -7 257.8 10.73
0 4 7 247.81 10.96
0 4 -7 230.55 9.07
0 4 7 255.47 12.6
0 4 -7 268.35 11.28
0 4 -7 244.71 10.88
0 -4 -7 230.74 9.42
0 -4 7 235.36 9.35
0 -4 -7 259.65 12.35
0 -4 7 248.33 9.17
0 -4 -7 257.67 11.36
0 -4 -7 239.85 9.19
0 -4 -7 243.06 12.07
1 4 -8 64.53 3.35
1 4 -8 64.58 3.18
1 4 -8 60.51 4.44
1 4 -8 57.63 3.25
-1 4 8 67.52 3.31
1 4 -8 61.2 2.54
-1 -4 8 67.04 2.91
-1 -4 8 50.65 4.1
1 -4 -8 62.35 2.68
1 -4 -8 72.76 3.96
1 -4 -8 64.74 2.7
-1 -4 8 65.31 2.68
1 -4 -8 57.96 5.33
1 -4 -8 68.54 3.56
2 4 -9 153.39 8.94
2 4 -9 173.75 7.63
2 4 -9 162.18 7.78
2 4 -9 172.84 7.64
2 4 -9 171.19 6.25
2 -4 -9 176.86 8.22
-2 -4 9 172.32 6.34
2 -4 -9 166.29 6.41
2 -4 -9 142.85 6.42
-2 -4 9 137.6 8.64
3 4 -10 1.27 0.84
3 4 -10 1.86 0.42
3 4 -10 2.73 0.82
3 4 -10 1.46 0.49
-3 -4 10 1.15 0.53
3 -4 -10 2.9 0.86
3 -4 -10 1.48 0.55
4 4 -11 30 1.59
4 4 -11 30.7 2.27
4 4 -11 28.01 1.89
4 4 -11 34.88 2.46
-4 -4 11 29.54 1.69
4 -4 -11 32.41 1.79
4 -4 -11 30.41 2.16
4 -4 -11 32.62 2.49
5 4 -12 3.4 0.97
5 4 -12 2.64 0.58
5 4 -12 3.83 0.96
-5 -4 12 2.59 0.65
5 -4 -12 3.08 0.96
5 -4 -12 1.85 0.62
5 -4 -12 3.14 0.95
6 4 -13 34.84 1.93
6 4 -13 33.51 2.58
6 4 -13 34.06 2.5
-6 -4 13 30.26 2.05
6 -4 -13 32.35 2.01
6 -4 -13 34.2 2.35
7 4 -14 0.15 0.82
7 4 -14 0.13 1.17
-7 -4 14 -0.88 1.02
7 -4 -14 -0.04 1.2
7 -4 -14 0.5 0.89
7 -4 -14 0.94 0.75
-8 5 1 2.83 1.11
8 5 -1 1.88 0.96
8 -5 -1 2.08 0.93
-7 5 0 1.7 0.85
7 5 0 1.25 0.77
7 -5 0 2.58 0.59
7 -5 0 2.59 0.91
-6 5 -1 1.82 0.81
6 5 1 1.68 0.64
-6 5 -1 1.15 0.61
6 -5 1 0.65 0.57
6 -5 1 1.72 0.66
-5 5 -2 2.64 0.65
5 5 2 2.3 0.67
-5 5 -2 3.64 0.69
5 5 2 2.15 0.42
-5 -5 -2 2.41 0.64
-5 -5 -2 2.82 0.83
5 -5 2 3.32 0.69
5 -5 2 3.23 0.62
4 5 3 30.72 1.88
4 5 3 30.98 1.46
-4 5 -3 34 2.21
-4 5 -3 33.12 1.86
4 -5 3 31.22 1.67
-4 -5 -3 29.01 2.23
4 -5 3 32.54 1.6
-4 -5 -3 31.05 1.66
-3 5 -4 49.27 2.82
3 5 4 44.98 2.41
3 5 4 42.16 1.93
-3 5 -4 47.74 2.41
-3 -5 -4 45.45 2.14
3 -5 4 45.4 2.1
3 -5 4 46.23 2.06
-3 -5 -4 38.37 2.98
-2 5 -5 194.46 9.73
-2 5 -5 190.73 8.13
2 5 5 182.21 7.01
2 5 5 182.78 8.35
-2 -5 -5 185.1 7.32
2 -5 5 186.93 7.05
-2 -5 -5 170.58 9.59
2 -5 5 186.92 7.24
-1 5 -6 106.6 4.85
-1 5 -6 107.27 5.58
1 5 6 99.18 4.04
1 5 6 102.68 4.84
-1 -5 -6 100.59 4.91
-1 -5 -6 105.81 5.91
-1 -5 -6 98.72 4.21
1 -5 6 104.45 4.09
1 -5 6 100.56 4.13
0 5 -7 119.82 5.36
0 5 -7 99.33 4.27
0 5 7 113.74 5.28
0 -5 -7 122.53 6.4
0 -5 -7 121.21 5.52
0 -5 7 107.92 4.45
0 -5 -7 110.19 4.57
0 -5 7 110 4.42
0 -5 -7 108.57 4.42
1 5 -8 -0.01 0.37
1 5 -8 -0.28 0.72
1 5 -8 0.36 0.27
-1 5 8 1.09 0.41
1 5 -8 0.33 0.62
-1 -5 8 0.39 0.44
1 -5 -8 -0.48 0.65
1 -5 -8 0.57 0.4
1 -5 -8 -0.11 0.39
1 -5 -8 0.11 0.87
-2 5 9 2.21 0.67
2 5 -9 2.35 0.51
2 5 -9 1.68 0.72
2 5 -9 2.17 0.89
2 -5 -9 2.49 0.94
2 -5 -9 1.74 0.74
2 -5 -9 2.25 0.45
-2 -5 9 3.31 0.58
3 5 -10 11.66 1.37
3 5 -10 13.27 1.36
3 5 -10 10.98 0.82
3 -5 -10 11.32 1.46
3 -5 -10 13.56 1.57
-3 -5 10 11.97 0.96
3 -5 -10 12.63 0.96
4 5 -11 -0.04 0.71
4 5 -11 -0.6 0.45
4 -5 -11 0.55 0.84
-4 -5 11 0.32 0.6
4 -5 -11 -0.66 0.89
4 -5 -11 0.3 0.44
5 5 -12 5.62 1.25
5 5 -12 3.01 0.68
5 5 -12 5.77 1.45
5 -5 -12 3.44 0.99
-5 -5 12 3.7 0.88
5 -5 -12 2.57 0.82
6 5 -13 -0.94 0.95
6 5 -13 0.53 0.69
6 5 -13 0.53 1.25
-6 -5 13 0.54 0.68
6 -5 -13 -0.04 1.16
6 -5 -13 -1.77 0.86
-7 6 0 1.63 1.08
7 -6 0 -0.32 0.77
7 -6 0 0.98 0.54
-6 6 -1 1.65 0.7
-6 6 -1 2.53 0.74
6 6 1 2.87 0.79
-6 -6 -1 2.21 0.82
6 -6 1 2.12 0.69
6 -6 1 2.62 0.83
-5 6 -2 1.93 0.72
5 6 2 2.24 0.66
5 6 2 2.97 0.53
-5 -6 -2 2.23 0.71
-5 -6 -2 3.32 1.06
5 -6 2 2.23 0.59
5 -6 2 1.17 0.59
4 6 3 3.6 0.45
4 6 3 3.77 0.74
-4 6 -3 5.54 0.79
-4 6 -3 3.21 0.75
4 -6 3 5.49 0.75
-4 -6 -3 4.4 0.69
4 -6 3 4.86 0.64
-4 -6 -3 4.05 0.97
3 6 4 1.79 0.6
-3 6 -4 2.44 0.52
3 6 4 1.86 0.44
-3 6 -4 1.82 0.64
3 -6 4 2.43 0.51
-3 -6 -4 2.2 0.58
3 -6 4 1.62 0.52
2 6 5 0.16 0.37
-2 6 -5 0.43 0.56
2 6 5 -0.22 0.34
2 -6 5 0.86 0.36
2 -6 5 -0.31 0.4
-2 -6 -5 -0.26 0.35
-2 -6 -5 -0.17 0.74
1 6 6 8.29 0.63
1 6 6 8.1 0.81
-1 6 -6 8.33 0.95
1 -6 6 7.97 0.73
-1 -6 -6 7.09 0.71
1 -6 6 7.29 0.65
-1 -6 -6 8.46 1.55
0 6 -7 56.07 2.91
0 6 7 52.91 2.33
0 6 7 51.39 2.72
0 -6 -7 52.37 2.31
0 -6 7 50.26 2.32
0 -6 7 52.5 2.31
0 -6 -7 52.63 2.44
0 -6 -7 48.91 3.63
-1 6 8 43.75 2.34
1 6 -8 39.45 1.83
1 6 -8 45.91 2.65
1 -6 -8 39.97 2.61
1 -6 -8 42.96 3.12
1 -6 -8 45.97 2.04
-1 -6 8 42.73 2.03
1 -6 -8 40.51 2.11
2 6 -9 3.25 0.84
2 6 -9 2.61 0.45
-2 6 9 3.9 0.71
2 -6 -9 3.99 1.16
2 -6 -9 4.84 0.65
2 -6 -9 2.7 0.98
-2 -6 9 4.6 0.57
3 6 -10 6.33 1.33
3 6 -10 6.99 0.66
-3 6 10 4.96 0.87
3 -6 -10 5.65 1.07
-3 -6 10 5.52 0.76
3 -6 -10 5.67 0.79
3 -6 -10 5.51 1.1
4 6 -11 25.28 1.38
4 6 -11 21.37 2.19
4 6 -11 26.2 2.18
4 -6 -11 20.03 2.11
4 -6 -11 25.92 1.59
-4 -6 11 26.9 1.61
4 -6 -11 19.05 2.11
5 6 -12 0 1.34
5 -6 -12 0.43 1.29
-5 -6 12 0.06 0.8
5 -6 -12 -1.35 1.15
6 6 -13 3.06 0.62
6 6 -13 1.59 1.49
6 -6 -13 1.16 0.89
-6 -6 13 2 0.79
6 -6 -13 1.63 1.21
-6 7 -1 0.23 0.95
6 7 1 0.8 0.6
6 -7 1 1.21 0.74
-6 -7 -1 -0.34 0.59
6 -7 1 -0.26 0.84
5 7 2 3.62 0.85
-5 7 -2 4.34 1
5 7 2 2.63 0.6
-5 7 -2 6.03 1.04
5 -7 2 4.62 0.8
-5 -7 -2 3.69 0.7
5 -7 2 6.11 0.85
-4 7 -3 1.11 0.53
4 7 3 -0.29 0.48
4 7 3 -0.55 0.63
4 -7 3 0.59 0.62
-4 -7 -3 0.41 1.2
4 -7 3 1.66 0.64
-4 -7 -3 -0.16 0.45
-3 7 -4 8.16 0.87
3 7 4 8.4 0.93
3 7 4 8.24 0.74
-3 -7 -4 8.95 0.93
3 -7 4 6.63 0.81
3 -7 4 7.52 0.77
2 7 5 -0.58 0.47
-2 7 -5 0.46 0.58
2 7 5 0.51 0.53
2 -7 5 0.29 0.35
2 -7 5 0.33 0.38
-2 -7 -5 1.14 0.57
-2 -7 -5 0.63 0.91
-1 7 -6 22.72 1.54
1 7 6 22.19 1.4
1 7 6 20.13 1.23
1 -7 6 22.7 1.32
1 -7 6 21.73 1.22
-1 -7 -6 19.4 2.32
-1 -7 -6 22.14 1.41
0 7 -7 0.94 0.77
0 7 7 0.29 0.49
0 7 7 -0.31 0.49
0 -7 7 -0.84 0.44
0 -7 -7 0.68 0.45
0 -7 7 -0.5 0.48
0 -7 -7 0.39 1.23
-1 7 8 6.73 0.78
-1 7 8 5.92 0.84
1 7 -8 4.86 1.1
1 7 -8 6.13 0.59
-1 -7 8 5.7 0.75
1 -7 -8 4.58 1.35
1 -7 -8 4.52 0.87
1 -7 -8 6.2 0.75
2 7 -9 7.31 1.25
2 7 -9 4.75 0.6
2 -7 -9 6.17 0.82
-2 -7 9 5.04 0.66
2 -7 -9 4.83 1.2
3 7 -10 19.45 2
3 7 -10 18.14 1.09
3 -7 -10 18.94 1.31
-3 -7 10 17.53 1.3
4 7 -11 3.99 0.68
4 7 -11 3.4 1.14
4 -7 -11 3.11 0.71
4 -7 -11 3.05 1.01
-4 -7 11 2 0.75
5 7 -12 -0.14 0.62
5 7 -12 -0.91 1.44
5 -7 -12 1.92 1.4
5 -7 -12 0.85 0.9
5 -7 -12 -1.92 0.91
-5 -7 12 0.49 0.64
5 8 2 0.92 0.65
-5 -8 -2 0.81 0.84
5 -8 2 -0.15 0.59
5 -8 2 -0.33 0.59
4 8 3 15.54 1.36
4 8 3 16.82 1.15
4 -8 3 17.58 1.33
-4 -8 -3 18.64 1.43
4 -8 3 16.02 1.23
3 8 4 -0.26 0.64
3 8 4 0.23 0.37
-3 8 -4 0.87 0.75
3 -8 4 0.23 0.6
-3 -8 -4 1.86 1.46
-3 -8 -4 0.53 0.67
-2 8 -5 0.59 0.67
2 8 5 1.2 0.69
2 8 5 0.55 0.54
-2 -8 -5 -2.54 1.62
2 -8 5 0.17 0.41
-2 -8 -5 0.16 0.48
2 -8 5 0.75 0.62
-1 8 -6 -0.84 0.74
1 8 6 0.2 0.48
-1 -8 -6 -0.41 1.01
1 -8 6 0.12 0.61
-1 -8 -6 0.46 0.7
1 -8 6 0.18 0.53
0 8 -7 38.15 2.33
0 8 7 38.69 1.9
0 -8 7 35.72 1.87
0 -8 -7 34.01 2.02
0 -8 7 33.58 1.8
0 -8 -7 28.09 2.99
1 8 -8 5.76 1.19
-1 8 8 5.32 0.81
1 -8 -8 3.73 1.04
-1 -8 8 4.12 0.75
1 -8 -8 2.24 1.51
2 8 -9 15.39 1.66
2 -8 -9 16.24 1.22
-2 -8 9 17.05 1.18
3 8 -10 2.74 1.32
3 8 -10 2.73 0.62
-3 -8 10 4.98 0.88
3 -8 -10 2.9 0.86
3 -8 -10 2.64 1.46
3 9 4 12.51 1.05
3 -9 4 11.26 1.07
3 -9 4 13.38 1.16
2 9 5 12.66 1.06
2 -9 5 13.15 1.18
2 -9 5 12.57 1.05
-2 -9 -5 13.28 1.25
-1 9 -6 21.04 1.81
1 9 6 24.08 1.49
1 -9 6 23.06 1.45
1 -9 6 23.74 1.51
-1 -9 -6 23.77 1.71
0 9 7 14.22 1.19
0 9 -7 15.09 1.51
0 -9 -7 13.86 1.49
0 -9 7 16.29 1.27
-1 9 8 0.38 0.71
1 9 -8 1.19 1.08
-1 -9 8 -0.19 0.72
1 -9 -8 0.41 1.47
9 0 -1 0.17 0.75
-9 0 1 0.45 0.91
9 0 -1 -1.6 1
8 0 0 16.26 1.48
-8 0 0 16.94 1.54
8 0 0 15.46 1.35
8 0 0 16.94 1.29
7 0 1 -0.15 0.59
7 0 1 -0.26 0.54
7 0 1 0.59 0.51
-7 0 -1 -0.97 0.72
-6 0 -2 146.1 7.56
6 0 2 139.3 6.36
6 0 2 130.2 5.78
6 0 2 138.16 6.2
-6 0 -2 134.37 7.03
-5 0 -3 -0.15 0.42
5 0 3 -0.13 0.39
5 0 3 -0.07 0.43
-5 0 -3 0.07 0.55
5 0 3 -0.33 0.5
-4 0 -4 278.99 13.52
-4 0 -4 261.64 11.1
4 0 4 237.05 10.03
4 0 4 251.59 9.49
4 0 4 265.5 11.01
-4 0 -4 247.65 12.5
4 0 4 268.77 11.43
3 0 5 -0.63 0.45
3 0 5 0.17 0.17
-3 0 -5 0.22 0.49
-3 0 -5 -0.02 0.52
-3 0 -5 -0.13 0.46
3 0 5 0.23 0.24
3 0 5 0.1 0.34
2 0 6 3.09 0.5
-2 0 -6 2.35 0.51
2 0 6 3.33 0.25
-2 0 -6 3.17 0.54
-2 0 -6 2.99 0.64
2 0 6 3.53 0.49
-2 0 -6 2.82 0.5
-1 0 -7 -0.01 0.36
1 0 7 -0.34 0.35
-1 0 -7 -0.26 0.48
1 0 7 -0.15 0.27
-1 0 -7 0.52 0.3
1 0 7 0.3 0.16
0 0 8 101.96 4.42
0 0 -8 94.15 5.31
0 0 -8 101.41 4.8
0 0 8 87.21 5.2
0 0 8 98.12 3.75
0 0 -8 100.69 5.16
0 0 -8 99.36 3.76
0 0 -8 103.75 4.52
-1 0 9 -0.24 0.38
1 0 -9 -0.22 0.43
-1 0 9 0.27 1.63
1 0 -9 -0.11 0.33
-1 0 9 0.12 0.23
1 0 -9 3.54 2.04
1 0 -9 -0.25 0.42
1 0 -9 0.37 0.25
2 0 -10 -0.89 2.4
2 0 -10 0.02 0.56
-2 0 10 0.87 0.4
-2 0 10 1.58 1.8
2 0 -10 0.53 0.25
2 0 -10 0.66 0.6
2 0 -10 0.31 0.34
3 0 -11 0.53 3.15
3 0 -11 0.99 0.56
3 0 -11 -0.54 0.5
3 0 -11 -0.58 0.75
-3 0 11 1.36 3.45
3 0 -11 0.69 0.44
-3 0 11 0.06 0.3
3 0 -11 -0.27 0.46
4 0 -12 3.14 0.98
4 0 -12 3.1 0.6
4 0 -12 3.8 0.79
-4 0 12 2.82 0.52
4 0 -12 1.88 0.67
5 0 -13 -0.52 0.63
5 0 -13 0.28 0.84
-5 0 13 -0.25 0.63
5 0 -13 0.61 0.72
6 0 -14 94.93 4.96
6 0 -14 93.64 4.04
-6 0 14 87.26 4
6 0 -14 83.59 5.04
7 0 -15 1.43 1.02
-7 0 15 -0.17 0.58
7 0 -15 0.96 1.19
7 0 -15 -0.75 0.81
9 1 -1 0.22 0.83
-9 1 1 0.3 0.86
9 1 -1 -0.29 0.91
-9 -1 1 0.04 0.88
9 -1 -1 0.62 0.97
8 1 0 1.99 0.77
8 1 0 1.11 0.84
8 1 0 2.34 0.66
-8 1 0 2.2 0.88
8 -1 0 1.39 0.71
8 -1 0 1.51 0.75
7 1 1 3.03 0.61
-7 1 -1 3.58 0.8
7 1 1 1.23 0.7
7 1 1 2.38 0.68
7 -1 1 2.66 0.63
7 -1 1 3.91 0.84
-7 -1 -1 1.85 0.77
6 1 2 11.13 1
6 1 2 12.1 1.02
6 1 2 12.62 1.02
-6 1 -2 12.65 1.26
-6 -1 -2 12.93 1.18
6 -1 2 9.37 1
6 -1 2 12.44 0.97
-6 -1 -2 12.84 1.17
6 -1 2 14.2 1.17
5 1 3 14.45 1.11
5 1 3 12.31 0.97
-5 1 -3 13.99 1.12
-5 1 -3 13.49 1.2
5 1 3 14.15 1.04
-5 -1 -3 14.25 1.22
5 -1 3 12.95 1.08
5 -1 3 12.9 1.01
-5 -1 -3 14 1.2
5 -1 3 13.48 0.96
5 -1 3 13.5 0.79
-4 1 -4 43.31 2.7
4 1 4 44.31 2.25
4 1 4 42.15 2.27
-4 1 -4 39.4 3.05
4 1 4 37.36 2
-4 1 -4 44.16 2.29
4 -1 4 45.35 2.29
4 -1 4 44.3 1.82
-4 -1 -4 46.4 2.75
4 -1 4 41.98 2
4 -1 4 45.56 2.2
-4 -1 -4 43.53 2.55
-3 1 -5 239.46 12.93
3 1 5 268.98 11.82
-3 1 -5 284.41 13.94
-3 1 -5 279.2 11.49
3 1 5 229 10.26
3 1 5 263.84 11.36
3 -1 5 280.45 11.78
3 -1 5 259.72 10.26
-3 -1 -5 271.09 12.97
3 -1 5 275.92 9.85
3 -1 5 287.84 11.37
-3 -1 -5 278.55 13.96
-3 -1 -5 266.78 11.42
-2 1 -6 100.85 4.53
-2 1 -6 92.73 5.12
2 1 6 99.58 4.6
-2 1 -6 89.58 4.75
2 1 6 98.88 4.48
-2 1 -6 98.69 5.4
2 -1 6 97.93 4.55
-2 -1 -6 102.22 5.18
2 -1 6 100.68 3.74
2 -1 6 101 4.42
-2 -1 -6 103.19 4.5
-2 -1 -6 96.26 4.72
-1 1 -7 100.8 5.2
-1 1 -7 111.9 5.66
-1 1 -7 111.19 4.97
1 1 7 108.44 4.9
1 1 7 117.64 5.14
-1 -1 -7 97.78 4.05
-1 -1 -7 110.74 4.89
1 -1 7 115.42 4.85
1 -1 7 111.28 4.14
-1 -1 -7 109.63 5.68
-1 -1 -7 102.06 5.11
1 -1 7 114.5 5.09
-1 -1 -7 109.36 5.23
0 1 8 194.83 7.32
0 1 -8 181.93 7.36
0 1 8 200.8 8.56
0 1 -8 185.41 9.33
0 1 -8 202.46 9.2
0 1 -8 206.65 8.67
0 1 8 200.18 9.93
0 1 -8 211.63 9.79
0 -1 -8 198.32 7.38
0 -1 -8 192.75 8.51
0 -1 -8 201.73 9.23
0 -1 8 208.43 8.44
0 -1 -8 183.4 9.12
0 -1 -8 201.06 9.81
0 -1 8 205.81 7.38
1 1 -9 3.43 2.06
1 1 -9 1.05 0.49
-1 1 9 1.35 0.28
-1 1 9 1.95 2.22
1 1 -9 1.34 0.53
1 1 -9 1.2 0.42
1 1 -9 1.06 0.27
1 1 -9 2.34 0.62
1 -1 -9 1.7 0.4
1 -1 -9 2.12 0.35
-1 -1 9 1.99 0.29
-1 -1 9 1.31 0.36
1 -1 -9 0.16 1.83
1 -1 -9 1.35 0.51
1 -1 -9 1.58 0.47
-1 -1 9 2.81 1.5
2 1 -10 145.3 6.73
-2 1 10 139.33 5.36
2 1 -10 134.26 6.3
2 1 -10 122.15 8.6
-2 1 10 132.29 8.85
2 1 -10 146.78 5.43
2 1 -10 147.13 6.97
2 1 -10 141.08 6.71
-2 -1 10 141.88 5.34
-2 -1 10 115.33 7.57
2 -1 -10 142.18 6.68
2 -1 -10 133.24 8.85
2 -1 -10 136.64 6.97
2 -1 -10 134.15 6.1
2 -1 -10 142.59 6.87
2 -1 -10 138 5.42
3 1 -11 42.03 2.69
3 1 -11 38.88 5.41
3 1 -11 45.92 2.15
3 1 -11 45.12 2.65
-3 1 11 46.43 2.11
3 1 -11 48.85 2.87
3 1 -11 46.5 2.59
3 -1 -11 48.27 2.18
-3 -1 11 45.34 2.13
3 -1 -11 42.01 2.36
3 -1 -11 44.81 2.66
3 -1 -11 49.7 2.83
3 -1 -11 43.99 2.85
-4 1 12 13.04 1.01
4 1 -12 13.53 1.29
4 1 -12 16.36 1.53
4 1 -12 12.25 1.01
4 1 -12 12.16 1.38
4 -1 -12 12.63 0.95
-4 -1 12 11.94 1.02
4 -1 -12 13.91 1.34
4 -1 -12 14.62 1.48
4 -1 -12 10.74 1.12
5 1 -13 106.26 6.06
-5 1 13 114.98 4.85
5 1 -13 116.06 4.9
5 1 -13 104.83 5.57
5 1 -13 122.34 6.04
5 -1 -13 127.79 6.45
5 -1 -13 116.11 4.91
-5 -1 13 113.49 4.9
5 -1 -13 128.5 6.09
6 1 -14 0.97 0.76
6 1 -14 0.53 0.91
-6 1 14 1.74 0.64
6 1 -14 0.82 0.68
6 -1 -14 2.58 1.02
6 -1 -14 2.68 0.75
-6 -1 14 1.63 0.68
6 -1 -14 0.29 1.08
-7 1 15 2.97 0.69
7 1 -15 3.9 1.23
7 1 -15 3.07 0.91
7 -1 -15 3.69 0.91
7 -1 -15 3.86 1.04
7 -1 -15 3.06 1.35
9 2 -1 5.66 1.03
-9 2 1 4.55 1.1
-9 -2 1 5.22 1.29
9 -2 -1 3.06 1.04
8 2 0 2.95 0.92
8 2 0 2.2 0.81
-8 2 0 1.05 0.85
8 -2 0 0.39 0.89
-8 -2 0 1 0.64
8 -2 0 -0.65 0.78
7 2 1 10.51 1
7 2 1 9.51 1.07
7 2 1 10.19 1.04
-7 2 -1 9.19 1.11
-7 -2 -1 10.26 1.12
7 -2 1 12.12 1.09
7 -2 1 8.92 1.12
6 2 2 6.72 0.84
6 2 2 7.43 0.81
6 2 2 7.28 0.85
-6 2 -2 8.15 0.95
-6 -2 -2 7.33 0.98
6 -2 2 8.04 0.98
-6 -2 -2 6.45 0.81
6 -2 2 5.98 0.85
6 -2 2 8.05 0.65
5 2 3 14.75 1.1
5 2 3 16.33 1.17
-5 2 -3 16.72 1.24
5 2 3 15.67 1.25
-5 2 -3 16.49 1.42
5 -2 3 18.82 1.33
5 -2 3 17 1.07
5 -2 3 16.45 1.14
-5 -2 -3 18.23 1.38
-5 -2 -3 18.3 1.46
5 -2 3 17.72 1
-4 2 -4 40.91 2.66
-4 2 -4 39.31 2.27
4 2 4 42.5 2.25
4 2 4 42.37 2.3
4 -2 4 40.77 1.98
4 -2 4 41.68 1.83
-4 -2 -4 45.67 2.71
4 -2 4 43.73 2.12
-4 -2 -4 44.68 2.57
4 -2 4 41.52 2.24
3 2 5 33.07 1.82
3 2 5 33.13 1.86
-3 2 -5 32.2 1.88
-3 2 -5 33.86 2.19
-3 -2 -5 30.77 1.84
3 -2 5 32.02 1.52
3 -2 5 34.94 1.85
3 -2 5 34.05 1.48
-3 -2 -5 33.51 2.19
3 -2 5 34.42 1.73
-2 2 -6 8.65 0.79
-2 2 -6 9.48 0.93
2 2 6 8.88 0.81
2 2 6 10.45 0.82
2 -2 6 9.01 0.7
-2 -2 -6 9.03 0.75
2 -2 6 9.17 0.74
2 -2 6 9.19 0.56
-2 -2 -6 8.13 0.76
-2 -2 -6 8.22 1.01
1 2 7 44.23 1.84
-1 2 -7 50.29 2.46
1 2 7 46.3 3.58
-1 2 -7 46.08 2.82
-1 2 -7 44.37 2.78
-1 2 -7 46.1 2.47
1 2 7 48.66 2.46
-1 -2 -7 46.52 2.46
1 -2 7 48.87 2.29
-1 -2 -7 44.48 1.83
1 -2 7 45.37 1.92
-1 -2 -7 45.19 3.15
-1 -2 -7 48.73 2.31
-1 -2 -7 44.76 2.81
0 2 8 34.8 1.95
0 2 -8 31.84 1.88
0 2 -8 34.79 1.98
0 2 8 36.11 3.69
0 2 -8 31.82 2.13
0 -2 8 34.95 1.5
0 -2 -8 33.44 1.98
0 -2 8 34.43 1.73
0 -2 -8 34.07 3.04
0 -2 -8 33.76 1.44
0 -2 -8 30.95 2.15
0 -2 -8 34.26 1.75
1 2 -9 2.57 0.56
-1 2 9 3.2 2.52
1 2 -9 3.1 0.65
1 2 -9 2.73 0.36
1 2 -9 2.13 0.66
1 2 -9 -4.58 2.99
1 2 -9 2.75 0.46
1 -2 -9 3.22 0.7
1 -2 -9 2.66 0.4
1 -2 -9 2.72 2.12
-1 -2 9 2.3 0.4
1 -2 -9 2.17 0.4
1 -2 -9 2.44 0.67
-1 -2 9 2.88 0.43
2 2 -10 71.24 3.71
2 2 -10 66 3.61
-2 2 10 61.22 6.16
2 2 -10 67.56 2.76
2 2 -10 64.46 5.96
2 2 -10 69.01 3.45
2 2 -10 61.79 3.38
2 -2 -10 66.1 3.69
-2 -2 10 66.54 2.76
-2 -2 10 64.04 2.97
2 -2 -10 67.82 3.71
2 -2 -10 52.44 5.59
-2 -2 10 54.98 4.65
2 -2 -10 66.9 2.83
3 2 -11 81 4.32
3 2 -11 91.54 4.63
-3 2 11 79.07 3.49
3 2 -11 82.88 3.56
3 2 -11 88.76 4.48
3 -2 -11 84.32 4.8
3 -2 -11 86.99 4.61
-3 -2 11 87.14 3.59
3 -2 -11 87.92 3.67
3 -2 -11 88.99 4.57
-4 2 12 62.98 2.85
4 2 -12 65.65 3.72
4 2 -12 63.37 2.89
4 2 -12 60.42 3.55
4 2 -12 61.33 3.55
4 -2 -12 67.74 2.97
-4 -2 12 60.98 2.92
4 -2 -12 74.29 3.82
4 -2 -12 72.78 4.11
4 -2 -12 58.95 3.56
5 2 -13 17.96 1.64
5 2 -13 15.44 1.47
-5 2 13 15.42 1.17
5 2 -13 17.28 1.27
5 2 -13 13.82 1.52
5 -2 -13 18.05 1.92
5 -2 -13 17.59 1.23
-5 -2 13 18.31 1.36
5 -2 -13 21.07 1.8
6 2 -14 0.47 0.7
6 2 -14 1.25 0.72
6 2 -14 1.54 0.83
6 2 -14 1.35 0.9
-6 2 14 0.23 0.54
6 -2 -14 2.83 0.81
6 -2 -14 1.82 1.19
6 -2 -14 1.04 0.98
-6 -2 14 0.07 0.83
7 2 -15 3.19 1.1
7 2 -15 0.44 1.22
-7 2 15 3.81 0.87
7 2 -15 2.55 0.73
7 2 -15 2.28 0.8
-7 -2 15 1.56 0.73
7 -2 -15 3.89 1.44
7 -2 -15 3.14 1.17
7 -2 -15 2.86 0.92
8 3 0 -1.26 0.82
-8 3 0 0.46 0.88
8 3 0 -0.45 0.78
8 -3 0 0.36 0.63
-7 3 -1 8.24 1.15
7 3 1 7.93 1.03
7 3 1 8.96 1.04
7 3 1 8.81 1.11
7 -3 1 9.43 0.8
7 -3 1 10.46 1.14
-7 -3 -1 7.78 0.99
6 3 2 -0.6 0.66
6 3 2 -0.13 0.41
-6 3 -2 1.1 0.65
-6 3 -2 0.24 0.48
6 -3 2 0.51 0.62
-6 -3 -2 0.67 0.65
6 -3 2 0.1 0.39
-5 3 -3 5.16 0.87
5 3 3 4.91 0.74
-5 3 -3 5.3 0.69
5 3 3 6.4 0.78
5 -3 3 5.27 0.61
-5 -3 -3 5.12 0.74
5 -3 3 5.56 0.61
-5 -3 -3 5.7 0.77
4 3 4 13.57 1.05
-4 3 -4 13.26 1.05
-4 3 -4 14.55 1.27
4 3 4 14.2 1.14
4 -3 4 13.49 0.85
4 -3 4 12.96 0.9
-4 -3 -4 12.81 1.27
-3 3 -5 4.03 0.67
-3 3 -5 4.24 0.72
3 3 5 4.72 0.64
3 -3 5 3.21 0.45
3 -3 5 4.46 0.46
-3 -3 -5 3.93 0.55
-3 -3 -5 4.14 0.47
-3 -3 -5 5.01 0.77
-2 3 -6 15.06 1.2
2 3 6 14.09 0.74
-2 3 -6 16.03 1.2
2 3 6 15.04 1.05
-2 -3 -6 15.69 0.89
-2 -3 -6 16.2 1.07
-2 -3 -6 13.53 1.32
2 -3 6 15.61 0.86
2 -3 6 16.04 0.95
-1 3 -7 1.42 0.53
1 3 7 3.82 2.02
1 3 7 2.31 1.46
-1 3 -7 2.79 0.55
1 3 7 1.75 0.26
-1 -3 -7 1.7 0.4
-1 -3 -7 1.43 0.73
1 -3 7 1.86 0.45
-1 -3 -7 1.63 0.33
1 -3 7 1.73 0.36
0 3 8 31.04 1.84
0 3 -8 30.38 1.75
0 3 8 35.05 3.93
0 3 -8 30.96 1.84
0 -3 -8 29.35 2.15
0 -3 8 30.77 1.59
0 -3 -8 26.37 3.16
0 -3 8 28.08 1.39
0 -3 -8 31.48 1.87
0 -3 -8 28.63 1.35
1 3 -9 110.06 5.31
1 3 -9 109.69 5.3
1 3 -9 110.5 5.37
1 3 -9 106.95 4.25
-1 3 9 107.04 7.75
1 -3 -9 113.71 5.59
1 -3 -9 111 4.37
1 -3 -9 97.54 7
-1 -3 9 113.32 4.35
1 -3 -9 116.63 5.93
-1 -3 9 111.24 4.8
2 3 -10 53.54 2.81
2 3 -10 50.35 3.02
2 3 -10 48.63 2.92
2 3 -10 51.12 2.23
2 -3 -10 50.81 2.35
2 -3 -10 58.15 3.25
2 -3 -10 53.6 3.18
-2 -3 10 50.68 2.27
3 3 -11 3.94 0.71
3 3 -11 4.35 0.56
3 3 -11 3.35 0.95
3 3 -11 4.13 0.83
-3 -3 11 2.61 0.56
3 -3 -11 3.61 0.72
3 -3 -11 4.1 0.65
3 -3 -11 2.98 1.02
4 3 -12 -0.55 0.88
4 3 -12 0.37 0.35
4 3 -12 0.61 0.58
4 3 -12 -0.61 0.6
4 -3 -12 0.03 0.67
4 -3 -12 -0.15 0.58
4 -3 -12 -0.62 0.76
-4 -3 12 0.81 0.53
5 3 -13 17 1.59
5 3 -13 21.96 1.81
5 3 -13 19.88 1.76
5 3 -13 19.78 1.37
5 -3 -13 21.38 1.46
5 -3 -13 22.29 2.09
-5 -3 13 20.33 1.47
5 -3 -13 20.83 1.75
6 3 -14 0.67 0.91
6 3 -14 0.63 0.52
6 -3 -14 0.46 0.81
-6 -3 14 0.12 0.83
6 -3 -14 0.91 0.74
6 -3 -14 -0.5 0.96
7 3 -15 1.01 0.8
7 3 -15 1.56 0.89
7 3 -15 1.02 0.98
-7 -3 15 0.3 0.73
7 -3 -15 0.18 0.79
7 -3 -15 0.12 1.23
8 4 0 -0.21 0.79
8 4 0 0.9 0.81
-8 4 0 -0.4 0.94
8 -4 0 -1.67 0.96
8 -4 0 0.01 0.68
-7 4 -1 1.61 0.93
7 4 1 -0.17 0.69
7 -4 1 -0.27 0.56
7 -4 1 0.68 0.47
6 4 2 8.95 1
-6 4 -2 8.63 1.19
-6 4 -2 8.67 0.98
6 -4 2 9.17 0.86
6 -4 2 10.76 1.02
-5 4 -3 0.85 0.64
5 4 3 0.62 0.58
-5 4 -3 1.04 0.53
5 -4 3 0.53 0.4
-5 -4 -3 1.48 0.58
5 -4 3 1.16 0.39
4 4 4 18.87 1.35
-4 4 -4 20.28 1.55
-4 4 -4 19.7 1.39
-4 -4 -4 20.45 1.26
-4 -4 -4 18.9 1.68
4 -4 4 19.21 1.16
4 -4 4 21.88 1.17
-3 4 -5 10.29 0.99
3 4 5 11.57 0.97
-3 4 -5 12.04 1.1
3 -4 5 11.42 0.76
-3 -4 -5 9.01 0.81
-3 -4 -5 11.13 0.8
-3 -4 -5 10.93 1.22
3 -4 5 11.62 0.78
-2 4 -6 1.35 0.58
2 4 6 0.16 0.45
-2 4 -6 0.63 0.47
2 4 6 0.54 0.23
2 -4 6 0.15 0.26
-2 -4 -6 -0.17 0.67
-2 -4 -6 0.84 0.29
1 4 7 91.31 4.35
-1 4 -7 96.37 4.36
1 4 7 85.12 6.32
1 4 7 86.1 3.53
-1 4 -7 95.44 5.01
-1 -4 -7 84.92 3.67
1 -4 7 91.11 3.61
-1 -4 -7 90.8 4.42
-1 -4 -7 87.46 5.12
0 4 8 43.85 2.42
0 4 8 41.95 5.03
0 4 -8 46.83 2.42
0 4 -8 44.59 2.5
0 -4 -8 44.85 3
0 -4 -8 41.69 1.9
0 -4 8 41.52 1.93
0 -4 -8 43.2 4.15
0 -4 -8 43.73 2.5
0 -4 8 44.14 2.17
1 4 -9 8.73 0.75
1 4 -9 7.45 0.93
1 4 -9 7.31 0.94
-1 4 9 8.11 0.87
1 -4 -9 8.48 0.65
-1 -4 9 8.66 0.72
-1 -4 9 8.52 0.68
1 -4 -9 8.3 1.09
1 -4 -9 8.45 1.11
2 4 -10 0.32 0.43
2 4 -10 0.48 0.55
2 4 -10 0.95 0.67
-2 -4 10 0.52 0.48
2 -4 -10 0.32 0.42
2 -4 -10 0.56 0.67
2 -4 -10 0.38 0.8
3 4 -11 14.33 0.88
3 4 -11 14.06 1.14
3 4 -11 15.27 1.49
3 4 -11 13.23 1.53
3 -4 -11 13.83 1.06
3 -4 -11 13.28 1.36
-3 -4 11 13.12 1.04
3 -4 -11 12.88 1.61
4 4 -12 1.61 0.91
4 4 -12 4.44 0.87
4 4 -12 3.05 1.11
4 4 -12 3.67 0.52
4 -4 -12 3.15 0.71
-4 -4 12 3.28 0.6
4 -4 -12 3.2 0.95
4 -4 -12 3.72 1.22
5 4 -13 1.93 1.06
5 4 -13 0.97 0.64
5 4 -13 -0.75 0.94
-5 -4 13 -1.6 0.84
5 -4 -13 -1.3 0.69
5 -4 -13 2.98 1.25
6 4 -14 5.59 0.97
6 4 -14 5.83 1.31
6 4 -14 5.39 1.3
-6 -4 14 5.57 1.16
6 -4 -14 7.1 1.54
6 -4 -14 7.29 0.92
6 -4 -14 5.07 1.24
-7 5 -1 1.18 0.94
7 5 1 2.12 0.84
7 -5 1 0.66 0.86
7 -5 1 0.77 0.66
6 5 2 9.82 1.09
-6 5 -2 10.75 1.31
-6 5 -2 9.71 1.05
6 -5 2 10.43 1.09
6 -5 2 10.41 0.98
-5 5 -3 9.1 1.02
5 5 3 6.11 0.88
-5 -5 -3 6.05 0.85
-5 -5 -3 7.95 1.18
5 -5 3 8.82 0.84
5 -5 3 6.97 0.82
4 5 4 0.57 0.42
-4 5 -4 0.6 0.63
-4 5 -4 -0.57 0.63
-4 -5 -4 -0.36 0.84
4 -5 4 -0.47 0.41
-4 -5 -4 0.54 0.53
4 -5 4 0.63 0.48
-3 5 -5 50.97 2.6
3 5 5 46.31 2.04
3 5 5 46.21 2.56
-3 5 -5 51.54 3
-3 -5 -5 43.84 3.2
3 -5 5 44.73 2.15
3 -5 5 50.4 2.19
-3 -5 -5 48.04 2.27
-2 5 -6 1.47 0.57
-2 5 -6 1.3 0.61
2 5 6 1.38 0.54
2 5 6 1.15 0.3
2 -5 6 1.22 0.46
-2 -5 -6 1.75 0.5
-2 -5 -6 0.77 0.71
1 5 7 41.66 2.32
-1 5 -7 44.18 2.46
-1 5 -7 43.15 2.64
1 5 7 41.04 1.89
-1 -5 -7 44.97 3.16
-1 -5 -7 42.24 2.34
1 -5 7 44.76 1.99
0 5 -8 110.82 5.28
0 5 8 105 5.23
0 5 8 103.99 4.36
0 -5 -8 113.06 5.47
0 -5 8 111.69 4.4
0 -5 -8 125.07 6.38
0 -5 -8 102.97 4.35
-1 5 9 0.06 0.51
1 5 -9 0.42 0.34
1 5 -9 1.3 0.64
1 -5 -9 0.95 0.44
1 -5 -9 0.18 0.66
1 -5 -9 0.81 0.76
-1 -5 9 0.8 0.51
2 5 -10 103.33 4.93
-2 5 10 99.65 5.03
2 5 -10 94.84 4.01
2 5 -10 95.47 5.17
2 5 -10 102.85 5.19
2 -5 -10 112.78 5.84
2 -5 -10 103.31 4.24
2 -5 -10 94.04 5.42
-2 -5 10 104.34 4.17
3 5 -11 1.7 0.45
3 5 -11 2.06 0.74
3 5 -11 1.29 0.79
3 -5 -11 1 0.71
3 -5 -11 0.71 0.89
-3 -5 11 1.38 0.6
3 -5 -11 1.2 0.61
4 5 -12 2.95 1.01
4 5 -12 4.1 1.06
4 5 -12 4.42 0.67
4 -5 -12 5.63 1.33
4 -5 -12 4.53 1.14
4 -5 -12 4.18 0.84
-4 -5 12 5.54 0.88
5 5 -13 7.21 1.23
5 5 -13 10.96 1.71
5 5 -13 8.69 0.91
5 -5 -13 7.92 0.93
-5 -5 13 8.29 0.96
5 -5 -13 7.33 1.52
6 5 -14 0.81 1.13
6 5 -14 -0.34 1.32
6 5 -14 2.04 0.8
6 -5 -14 0.55 1.27
6 -5 -14 0.48 0.63
7 6 1 17.41 1.6
-7 6 -1 14.72 1.81
-7 6 -1 17.6 1.56
7 -6 1 19.79 1.42
7 -6 1 19.78 1.58
-6 6 -2 6.27 0.82
-6 6 -2 6.23 1.14
6 6 2 5.46 0.97
6 -6 2 4.86 0.77
6 -6 2 4.73 0.81
-6 -6 -2 4.8 1
-5 6 -3 5.44 1
5 6 3 6.45 0.94
-5 6 -3 5.92 0.82
-5 -6 -3 3.87 0.85
5 -6 3 6.25 0.73
-5 -6 -3 6.05 1.21
5 -6 3 5.28 0.76
-4 6 -4 1.65 0.59
4 6 4 2.64 0.72
-4 6 -4 1.64 0.75
-4 -6 -4 3.28 0.73
4 -6 4 2.29 0.6
-4 -6 -4 2.01 0.94
4 -6 4 2.3 0.62
-3 6 -5 15.54 1.33
3 6 5 14.57 0.9
3 6 5 13.03 1.14
-3 6 -5 14.71 1.19
3 -6 5 13.66 0.93
-3 -6 -5 13.68 1.09
-3 -6 -5 11.93 1.66
3 -6 5 15.26 1.04
2 6 6 8.46 0.68
-2 6 -6 7.59 0.95
2 6 6 7.56 0.82
-2 -6 -6 7.46 0.85
2 -6 6 8.59 0.78
-2 -6 -6 7.55 1.48
1 6 7 40.75 2.36
1 6 7 42.19 1.97
-1 6 -7 45.34 2.54
-1 -6 -7 45.39 3.26
1 -6 7 43.46 2.02
0 6 -8 2.81 0.82
0 6 8 3.18 0.55
0 6 8 3.24 0.47
0 -6 8 3.15 0.59
0 -6 -8 3.85 0.48
0 -6 -8 3.05 1.01
-1 6 9 0.17 0.53
1 6 -9 1.88 0.89
1 -6 -9 0.6 1.13
-1 -6 9 0.74 0.53
1 -6 -9 0.57 0.79
1 -6 -9 0.83 0.52
-2 6 10 1.59 0.65
2 6 -10 1.64 1.03
2 -6 -10 0.83 1.16
-2 -6 10 1.91 0.48
2 -6 -10 -0.26 0.91
3 6 -11 54.76 2.51
3 6 -11 56.78 3.62
-3 6 11 54.61 3.16
3 -6 -11 60.91 2.83
3 -6 -11 52.23 3.64
3 -6 -11 58.02 3.85
-3 -6 11 62.76 2.75
4 6 -12 9.04 0.88
4 6 -12 8.73 1.66
4 -6 -12 6.53 1.43
4 -6 -12 5.41 1.14
4 -6 -12 6.61 0.99
5 6 -13 23.54 1.55
5 6 -13 27.89 2.57
5 -6 -13 25.7 1.71
-5 -6 13 27.09 1.73
6 7 2 9.53 1.22
6 -7 2 10.84 1.08
-6 -7 -2 9.35 1.06
6 -7 2 10.7 0.98
5 7 3 11.94 1.15
-5 7 -3 13.37 1.25
5 -7 3 15.16 1.14
-5 -7 -3 12.57 1.22
5 -7 3 12.3 1.06
-4 7 -4 2.33 0.61
4 7 4 1.41 0.56
4 -7 4 1.94 0.67
4 -7 4 1.72 0.53
-4 -7 -4 1.82 0.75
-4 -7 -4 0.06 1.25
3 7 5 26.69 1.4
3 7 5 25.17 1.69
-3 7 -5 27.77 1.71
-3 -7 -5 20.94 2.5
3 -7 5 26.56 1.52
3 -7 5 25.19 1.49
-3 -7 -5 24.26 1.56
2 7 6 0.23 0.48
2 7 6 0.36 0.48
-2 7 -6 0.94 0.68
-2 -7 -6 -0.84 0.95
-2 -7 -6 0.01 0.73
2 -7 6 0.73 0.57
1 7 7 54.24 2.55
-1 7 -7 57.16 3.12
1 7 7 59.71 3.02
1 -7 7 61.26 2.65
-1 -7 -7 53.53 4.01
0 7 -8 33.1 2.2
0 7 8 31.51 1.68
0 7 8 31.03 1.88
0 -7 8 32.02 1.67
0 -7 -8 30.35 2.73
-1 7 9 53.62 2.53
1 7 -9 54.43 3.24
-1 7 9 51.53 2.84
1 -7 -9 57.37 2.56
1 -7 -9 43.53 3.71
-1 -7 9 56.48 2.54
2 7 -10 53.76 3.35
2 -7 -10 53.29 2.58
-2 -7 10 51.69 2.53
2 -7 -10 50.54 3.76
3 7 -11 25.77 2.43
3 -7 -11 32.13 1.84
3 -7 -11 22.69 2.49
-3 -7 11 31.61 1.7
4 7 -12 3.17 1.51
4 -7 -12 2.48 1.04
-4 -7 12 2 0.85
4 -7 -12 2.24 0.92
4 8 4 8.21 0.94
-4 -8 -4 6.22 1.85
-4 -8 -4 8.14 1.15
4 -8 4 7.55 0.86
4 -8 4 10.53 1.07
-3 8 -5 2.91 0.88
3 8 5 2.07 0.48
3 8 5 3.2 0.78
-3 -8 -5 3.33 1.04
-3 -8 -5 4.21 1.66
3 -8 5 3.91 0.64
2 8 6 2.77 0.78
-2 8 -6 3.7 0.88
2 8 6 3.64 0.68
-2 -8 -6 4.41 1.72
2 -8 6 4.84 0.81
1 8 7 10.3 1.19
-1 8 -7 13.07 1.33
1 8 7 10.41 0.92
-1 -8 -7 10.95 2.08
1 -8 7 11.66 1.03
0 8 8 1.48 0.66
0 8 -8 0.98 0.91
0 -8 8 0.06 0.64
0 -8 -8 -0.13 1.46
-1 8 9 10.73 1.03
1 8 -9 10.45 1.5
1 -8 -9 7.97 1.57
-1 -8 9 9.93 1.02
-2 8 10 1.49 0.57
2 8 -10 3.78 1.31
-2 -8 10 2.46 0.72
2 -8 -10 1.95 0.62
3 8 -11 -2.39 1.39
3 -8 -11 -0.78 0.76
-3 -8 11 0.38 0.58
3 -8 -11 -0.23 0.96
-9 0 0 0.91 0.95
9 0 0 0.71 1.01
-8 0 -1 -0.11 0.71
8 0 1 0.69 0.56
8 0 1 0.36 0.84
7 0 2 17 1.36
7 0 2 17.36 1.44
7 0 2 18.01 1.34
-7 0 -2 18.18 1.56
-6 0 -3 -0.44 0.67
-6 0 -3 1.21 0.75
6 0 3 0.04 0.5
6 0 3 -0.48 0.54
6 0 3 0.4 0.61
5 0 4 22.08 1.35
-5 0 -4 18.22 1.57
-5 0 -4 20.51 1.59
5 0 4 18.43 1.32
-4 0 -5 0.06 0.69
-4 0 -5 0.15 0.58
-4 0 -5 0.04 0.37
4 0 5 0.37 0.41
4 0 5 -0.16 0.5
-3 0 -6 85.93 4.7
-3 0 -6 80.52 3.91
3 0 6 82.4 3.84
3 0 6 81.05 3.9
-3 0 -6 78.4 4.44
2 0 7 -0.03 0.38
-2 0 -7 0.47 0.46
-2 0 -7 -0.68 0.51
-2 0 -7 0.37 0.57
2 0 7 0.12 0.45
-1 0 -8 317.63 15.06
1 0 8 340.31 14.65
-1 0 -8 324.71 14.06
1 0 8 342.46 13.93
0 0 -9 0.23 0.45
0 0 -9 0.56 0.57
0 0 9 0.28 0.32
0 0 -9 0.04 0.34
1 0 -10 13 1.19
-1 0 10 14.82 1.05
1 0 -10 15.22 1.22
1 0 -10 14.47 0.86
1 0 -10 14.63 1.12
-1 0 10 14.03 0.81
2 0 -11 0.8 0.69
2 0 -11 -0.17 0.5
2 0 -11 0.17 0.47
2 0 -11 -0.04 0.51
-2 0 11 -0.16 0.32
3 0 -12 1.03 0.54
3 0 -12 0.49 0.57
3 0 -12 -0.12 0.75
3 0 -12 1.66 0.48
-3 0 12 -0.17 0.49
3 0 -12 0.06 0.49
-4 0 13 -0.74 0.48
4 0 -13 0.1 0.59
4 0 -13 -0.62 0.93
4 0 -13 -1 0.65
4 0 -13 -0.26 0.52
5 0 -14 47.06 2.98
5 0 -14 43.87 3.09
5 0 -14 42.37 2.27
-5 0 14 43.23 2.3
-6 0 15 0.14 0.53
6 0 -15 -1.23 1.01
6 0 -15 -0.76 0.71
7 0 -16 13.87 1.94
7 0 -16 13.46 1.36
7 0 -16 17.25 1.79
-7 0 16 15.09 1.27
9 1 0 0.51 0.6
9 1 0 -0.74 0.99
-9 1 0 1.85 1.05
9 -1 0 0.74 0.96
-9 -1 0 -0.91 0.97
8 1 1 1.86 0.82
-8 1 -1 -1.3 0.88
8 1 1 -1.09 0.83
8 1 1 -0.39 0.69
8 -1 1 -0.16 0.59
-8 -1 -1 -0.12 0.58
8 -1 1 -1.3 0.68
7 1 2 8.39 1.03
7 1 2 9.18 0.96
7 1 2 8.77 0.96
-7 1 -2 10.16 1.24
7 -1 2 8.72 0.93
-7 -1 -2 9.98 1.12
7 -1 2 7.49 1.06
-6 1 -3 9.11 1.15
6 1 3 9.64 0.97
6 1 3 10.44 0.97
6 1 3 9.41 0.97
6 -1 3 10.34 0.91
6 -1 3 9.19 0.94
6 -1 3 9.95 1.05
-6 -1 -3 10.32 1.2
-6 -1 -3 10.34 1.14
-5 1 -4 14.34 1.36
5 1 4 15.48 1.22
5 1 4 14.37 1.11
-5 1 -4 14.9 1.16
5 -1 4 14.94 1.04
-5 -1 -4 14.17 1.25
-5 -1 -4 16.35 1.41
5 -1 4 14.68 1.21
-4 1 -5 103.37 6.14
-4 1 -5 127.69 6.57
4 1 5 115.6 5.49
4 1 5 119.22 5.39
-4 1 -5 118.98 5.46
-4 -1 -5 120.56 6.14
4 -1 5 120.72 5.37
4 -1 5 123.78 5.46
4 -1 5 114.41 4.51
-4 -1 -5 124.24 6.55
-4 -1 -5 111.72 5.38
3 1 6 29.89 1.74
-3 1 -6 31.82 1.82
-3 1 -6 24.84 1.94
3 1 6 30.57 1.71
-3 1 -6 28.71 2.03
-3 -1 -6 26.92 1.76
-3 -1 -6 30.17 2.09
3 -1 6 29.55 1.7
3 -1 6 30.74 1.65
3 -1 6 29.01 1.28
-3 -1 -6 30.27 1.74
-3 -1 -6 29.09 2.03
2 1 7 34.76 1.93
-2 1 -7 35.06 1.99
-2 1 -7 37.32 2.3
-2 1 -7 33.34 2.01
2 1 7 35.33 1.93
-2 -1 -7 30.55 1.91
2 -1 7 33.74 1.87
2 -1 7 35.7 1.88
-2 -1 -7 34.75 2.25
-2 -1 -7 34.64 1.9
2 -1 7 33.58 1.45
-1 1 -8 77.23 4.59
1 1 8 82.77 3.98
-1 1 -8 85.91 4.25
1 1 8 90.29 4.19
-1 1 -8 88.51 4.11
1 -1 8 86.55 3.32
-1 -1 -8 88.32 4
-1 -1 -8 82.21 4.23
1 -1 8 92.57 3.96
1 -1 8 85.69 4.13
-1 -1 -8 80.54 4.64
0 1 -9 102.84 5.56
0 1 9 103.57 4.85
0 1 -9 107.24 5.18
0 1 -9 111.32 4.99
0 -1 -9 103.4 4.81
0 -1 -9 105.77 5.21
0 -1 9 108.07 4.75
0 -1 -9 104.12 5.59
0 -1 9 109.28 4.09
1 1 -10 58.4 3.09
1 1 -10 57.33 3
1 1 -10 59.75 3.32
1 -1 -10 52.98 2.8
-1 -1 10 58.48 2.74
1 -1 -10 57.32 3.33
-1 -1 10 56.8 2.39
1 -1 -10 59.47 3.21
1 -1 -10 54.61 2.4
2 1 -11 32.33 2.1
2 1 -11 33.43 1.63
2 1 -11 32.39 2.18
2 1 -11 29.96 2.03
2 1 -11 34.46 2.19
2 -1 -11 33.83 2.19
2 -1 -11 34.07 2.27
-2 -1 11 32.99 1.6
2 -1 -11 32.57 1.63
2 -1 -11 31.87 1.85
3 1 -12 8.31 1.21
3 1 -12 6.9 0.97
3 1 -12 8.02 1.13
3 1 -12 9.49 0.98
3 1 -12 6.99 0.73
-3 -1 12 6.81 0.78
3 -1 -12 6.43 0.81
3 -1 -12 8.14 1.12
3 -1 -12 7.99 0.78
3 -1 -12 7.99 1.14
4 1 -13 3.32 1.45
4 1 -13 2.44 1
-4 1 13 3.86 0.7
4 1 -13 4.18 0.71
4 -1 -13 4.74 0.74
4 -1 -13 4.38 0.99
4 -1 -13 3.27 0.97
-4 -1 13 3.92 0.77
5 1 -14 -0.04 0.69
5 1 -14 0.87 0.63
5 1 -14 2.19 0.99
5 1 -14 -0.33 0.64
-5 1 14 0.77 0.63
5 -1 -14 0.99 1.13
5 -1 -14 0.67 0.64
-5 -1 14 0.23 0.69
5 -1 -14 -0.07 0.98
6 1 -15 3.73 1.1
6 1 -15 4.5 1.2
6 1 -15 4.8 0.91
-6 1 15 4.2 0.83
6 -1 -15 5.08 1.23
6 -1 -15 5.52 1.29
6 -1 -15 4.79 0.89
-6 -1 15 5.05 0.82
7 1 -16 -0.48 0.73
-7 1 16 0.55 0.59
7 1 -16 -0.96 1.19
7 1 -16 -0.89 0.65
7 -1 -16 0.96 0.86
7 -1 -16 -2.45 1.36
-7 -1 16 -2.07 1.01
7 -1 -16 -0.84 1.11
-8 2 -1 3.35 1.04
8 2 1 2.69 0.87
8 2 1 1.32 0.89
8 -2 1 3.02 0.95
-8 -2 -1 1.94 0.82
-7 2 -2 4.24 0.95
7 2 2 4.28 0.86
7 2 2 3.93 0.67
7 2 2 3.12 0.68
7 -2 2 4.78 0.94
7 -2 2 3.31 0.55
-7 -2 -2 3.56 0.91
7 -2 2 2.87 0.85
6 2 3 5.19 0.74
-6 2 -3 4.64 0.91
6 2 3 3.92 0.73
-6 2 -3 4.43 0.83
6 2 3 5.04 0.78
-6 -2 -3 3.41 0.76
6 -2 3 4.86 0.87
-6 -2 -3 4.37 0.89
6 -2 3 4.94 0.77
6 -2 3 5.04 0.53
-5 2 -4 5.49 0.74
5 2 4 6.14 0.79
-5 2 -4 7.15 0.88
5 2 4 6.8 0.9
-5 -2 -4 8.15 0.98
5 -2 4 7.14 0.63
5 -2 4 6.36 0.84
-5 -2 -4 8.11 1
-4 2 -5 7.86 0.95
-4 2 -5 7.72 0.99
4 2 5 7.99 0.9
4 2 5 8.46 0.83
4 -2 5 7.12 0.67
-4 -2 -5 9.04 1.06
-4 -2 -5 8.23 0.95
4 -2 5 8.3 0.81
4 -2 5 7.6 0.61
3 2 6 162.49 7.44
3 2 6 162.49 7.65
-3 2 -6 169.07 7.52
-3 2 -6 172.7 9.02
-3 -2 -6 170.12 8.53
3 -2 6 175.29 7.4
3 -2 6 166.88 6.35
-3 -2 -6 165.73 7.91
3 -2 6 173.15 7.56
2 2 7 0.45 0.42
-2 2 -7 0.33 0.52
-2 2 -7 0.4 0.59
-2 2 -7 1.39 0.56
2 2 7 -0.06 0.54
2 -2 7 0.38 0.44
2 -2 7 -0.11 0.28
-2 -2 -7 0.57 0.63
-2 -2 -7 0.49 0.44
2 -2 7 0.68 0.39
-2 -2 -7 0.75 0.39
-1 2 -8 205.13 10.14
-1 2 -8 221.73 9.6
-1 2 -8 219.14 10.92
1 2 8 223.78 9.91
1 -2 8 218.54 9.81
-1 -2 -8 218.82 10.16
-1 -2 -8 213.19 10.89
1 -2 8 221.36 8.16
-1 -2 -8 224.74 9.45
1 -2 8 228.87 9.37
0 2 -9 24.99 1.8
0 2 -9 23.06 1.51
0 2 -9 21.24 1.57
0 2 9 22.76 1.6
0 -2 -9 23.47 1.58
0 -2 9 23.12 1.36
0 -2 9 24.29 1.15
0 -2 -9 24.45 1.39
0 -2 -9 23.26 1.75
0 -2 -9 20.65 1.06
1 2 -10 1.72 0.52
1 2 -10 0.34 0.49
1 2 -10 1.26 0.43
1 2 -10 0.6 0.48
1 -2 -10 1.22 0.54
1 -2 -10 1.18 0.66
-1 -2 10 0.87 0.3
1 -2 -10 0.47 0.35
-1 -2 10 1.26 0.41
2 2 -11 51.43 2.86
2 2 -11 50.59 3.05
2 2 -11 45.57 2.82
2 2 -11 59.24 3.2
2 -2 -11 51.17 3.09
-2 -2 11 50.21 2.46
-2 -2 11 51.07 2.27
2 -2 -11 50.13 2.32
2 -2 -11 50.13 3.08
3 2 -12 52.38 3.01
3 2 -12 51.95 2.39
3 2 -12 55.32 3.23
3 2 -12 50.82 2.97
-3 -2 12 51.09 2.39
3 -2 -12 52.2 3.08
3 -2 -12 47.54 3.27
3 -2 -12 51.05 2.42
4 2 -13 13.13 1.42
4 2 -13 16.12 1.14
4 2 -13 16.66 1.51
4 2 -13 19.73 1.75
4 -2 -13 16.3 1.62
-4 -2 13 14.89 1.2
4 -2 -13 16.39 1.7
4 -2 -13 15.24 1.16
4 -2 -13 14.48 1.39
5 2 -14 0.35 0.87
5 2 -14 0.09 0.62
5 2 -14 -0.34 0.67
5 2 -14 0.41 0.81
5 -2 -14 0.27 0.56
5 -2 -14 0.2 0.91
6 2 -15 0.81 0.89
6 2 -15 -1.09 0.83
6 2 -15 0.65 0.77
6 -2 -15 -0.02 0.88
6 -2 -15 0.36 0.73
-6 -2 15 -1.14 0.9
6 -2 -15 0.35 0.87
7 2 -16 -2.13 0.93
7 2 -16 -0.25 0.77
7 2 -16 -0.74 1.39
7 -2 -16 1.7 0.88
7 -2 -16 0.62 1.35
-7 -2 16 -2.44 1.01
7 -2 -16 0.65 1.16
8 3 1 0.78 0.8
8 3 1 0.04 0.83
8 -3 1 0.83 0.75
8 -3 1 2.08 0.74
8 -3 1 -0.57 0.55
7 3 2 10.13 1.1
7 3 2 11.45 1.27
-7 3 -2 9.76 1.32
7 3 2 11.07 1.06
7 -3 2 11.12 1.3
7 -3 2 12.42 1.19
7 -3 2 11.51 0.98
-7 -3 -2 10.69 1.18
-6 3 -3 1.81 0.82
6 3 3 1.21 0.67
-6 3 -3 1.12 0.53
6 3 3 1.87 0.66
6 3 3 1.59 0.51
6 -3 3 1.04 0.57
6 -3 3 1.28 0.67
-6 -3 -3 1.68 0.6
-6 -3 -3 1.98 0.77
5 3 4 2.51 0.79
-5 3 -4 2.68 0.63
-5 3 -4 2.01 0.72
-5 -3 -4 2.44 0.63
5 -3 4 2.39 0.6
5 -3 4 1.52 0.4
-4 3 -5 8.21 1.02
-4 3 -5 8.74 0.97
4 3 5 7.59 1
4 3 5 9.03 0.89
-4 -3 -5 7.88 1.1
4 -3 5 8.41 0.63
4 -3 5 8.32 0.94
-3 3 -6 38.78 2.48
-3 3 -6 37.63 2.16
3 3 6 37.43 2.14
-3 -3 -6 37.81 2.6
3 -3 6 41.14 2.13
-3 -3 -6 36.94 2.12
3 -3 6 39.19 1.74
-2 3 -7 19.45 1.33
2 3 7 17.22 1.25
-2 3 -7 19.79 1.47
-2 -3 -7 16.85 1.52
-2 -3 -7 15.91 1.18
2 -3 7 16.44 1.08
2 -3 7 17.16 0.94
2 -3 7 19.05 1.23
-1 3 -8 7.32 0.75
-1 3 -8 6.98 0.8
1 3 8 7.96 0.86
1 -3 8 5.84 0.64
1 -3 8 7.81 0.73
-1 -3 -8 6.62 0.63
-1 -3 -8 7.16 1.12
-1 -3 -8 7.89 0.74
1 -3 8 7.09 0.59
0 3 -9 167.78 7.89
0 3 9 169.36 7.79
0 3 -9 173.41 7.64
0 -3 -9 171.21 8.01
0 -3 9 173.21 7.22
0 -3 -9 157.96 6.34
0 -3 -9 163.77 8.61
0 -3 9 164.19 6.38
1 3 -10 14.24 1.27
1 3 -10 14.09 1.12
1 3 -10 14.75 1.26
-1 3 10 12.41 1.16
-1 -3 10 13.44 0.93
1 -3 -10 12.09 0.85
-1 -3 10 14.24 0.89
1 -3 -10 15.87 1.34
1 -3 -10 13.7 1.37
2 3 -11 72.47 3.9
2 3 -11 70.99 3.66
2 3 -11 68.03 3.77
-2 -3 11 67.61 2.95
2 -3 -11 65.64 3
2 -3 -11 69.89 4.02
2 -3 -11 74.09 4.09
3 3 -12 79.97 3.43
3 3 -12 88.65 4.56
3 3 -12 76.15 4.17
3 3 -12 78.9 4.32
3 -3 -12 82.17 4.53
3 -3 -12 78.62 3.52
-3 -3 12 80.8 3.44
3 -3 -12 80.05 4.65
4 3 -13 1.49 0.96
4 3 -13 0.74 0.76
4 3 -13 0.34 0.9
4 -3 -13 -0.53 0.62
4 -3 -13 0 1.11
4 -3 -13 0.92 0.59
-4 -3 13 1.55 0.69
5 3 -14 42.23 3.03
5 3 -14 49.25 3.21
5 3 -14 51.72 3.31
5 3 -14 50.75 2.55
-5 -3 14 52.7 2.69
5 -3 -14 53.78 2.67
5 -3 -14 57.94 3.38
5 -3 -14 51.03 3.48
6 3 -15 3.02 1.19
6 3 -15 1.75 1.01
-6 -3 15 0.61 0.97
6 -3 -15 3.09 0.9
6 -3 -15 2.82 1.19
6 -3 -15 3.35 1.37
8 4 1 5.57 1.02
8 4 1 4.62 1.06
-8 4 -1 4.73 1.22
8 -4 1 6.11 0.91
8 -4 1 3.48 0.98
-7 4 -2 2.08 0.76
7 4 2 3.75 0.9
7 -4 2 2.07 0.54
7 -4 2 2.71 0.69
-6 4 -3 51.52 3.32
-6 4 -3 51.93 2.8
6 4 3 51.76 2.89
6 -4 3 48.29 2.56
6 -4 3 54.62 2.42
-5 4 -4 15.63 1.49
-5 4 -4 16.16 1.34
5 4 4 14.91 1.2
5 -4 4 16.58 1.06
-5 -4 -4 16.19 1.55
4 4 5 70.23 3.67
-4 4 -5 74.03 4.31
-4 4 -5 74.8 3.68
4 -4 5 73.75 3.07
-4 -4 -5 72.48 4.27
3 4 6 4.94 0.68
-3 4 -6 5.07 0.83
-3 4 -6 6.28 0.89
-3 -4 -6 4.87 1.06
3 -4 6 4.34 0.57
-3 -4 -6 5.1 0.63
2 4 7 11.31 0.95
-2 4 -7 12.07 1.07
-2 4 -7 13.12 1.17
-2 -4 -7 9.65 1.3
2 -4 7 12.3 0.8
-2 -4 -7 11.47 0.96
-1 4 -8 20.21 1.52
-1 4 -8 19.29 1.47
1 4 8 18.83 1.37
-1 -4 -8 19.51 1.76
-1 -4 -8 19.91 1.36
1 -4 8 17.85 1.06
1 -4 8 19.47 1.26
0 4 9 21.93 1.53
0 4 -9 21.73 1.65
0 4 -9 21.83 1.46
0 -4 -9 20.82 1.82
0 -4 -9 20.68 1.11
0 -4 -9 21.2 1.53
0 -4 9 21.56 1.19
0 -4 9 19.44 1.26
1 4 -10 0.57 0.37
-1 4 10 1.07 0.71
1 4 -10 0.03 0.74
1 4 -10 0.47 0.59
1 -4 -10 1.49 0.93
1 -4 -10 1.17 0.44
1 -4 -10 1.14 0.76
-1 -4 10 0.73 0.47
2 4 -11 41.56 2.7
2 4 -11 45.49 2.45
2 4 -11 41.27 2.71
2 -4 -11 40.96 2.07
2 -4 -11 43.92 2.94
-2 -4 11 43.84 2.08
2 -4 -11 46.29 2.99
3 4 -12 1.46 0.87
3 4 -12 1.35 0.62
3 4 -12 1.01 0.99
3 -4 -12 1.22 0.48
3 -4 -12 2.44 0.95
3 -4 -12 1.26 1.07
-3 -4 12 2.45 0.59
4 4 -13 -1.66 1.1
4 4 -13 1.05 0.73
4 4 -13 0.17 0.67
4 -4 -13 0.73 0.83
4 -4 -13 -0.39 0.47
-4 -4 13 0.62 0.7
5 4 -14 7.92 1.51
5 4 -14 8.48 1.02
5 4 -14 6.4 1.34
5 -4 -14 7.41 1.61
5 -4 -14 7.68 1.05
-5 -4 14 8.38 1.06
6 4 -15 13.53 1.32
6 4 -15 14.01 1.81
6 4 -15 12.77 1.54
6 -4 -15 17.52 1.44
-6 -4 15 15.31 1.49
6 -4 -15 11.7 1.63
-7 5 -2 3.94 1.06
7 5 2 6.38 1.03
-7 5 -2 4.31 0.97
-6 5 -3 2.58 0.67
-6 5 -3 1.68 0.86
6 5 3 0.53 0.74
6 -5 3 2.27 0.69
6 -5 3 1.74 0.71
-5 5 -4 -0.89 0.79
5 5 4 -0.67 0.48
-5 -5 -4 -0.9 0.63
5 -5 4 -0.66 0.57
-5 -5 -4 -1.01 0.89
4 5 5 30.49 1.95
-4 5 -5 32.35 2.3
-4 5 -5 33.36 2.05
-4 -5 -5 33.89 2.59
4 -5 5 31.99 1.64
-3 5 -6 2.12 0.59
3 5 6 2.51 0.66
-3 5 -6 3.11 0.63
3 -5 6 2.45 0.49
-3 -5 -6 1.11 1.02
-2 5 -7 36.26 2.17
2 5 7 33.65 2.05
-2 5 -7 41.54 2.46
-2 -5 -7 34.33 2.7
2 -5 7 35.13 1.75
-1 5 -8 12.82 1.25
1 5 8 12.89 1.12
-1 5 -8 11.91 1.17
-1 -5 -8 12.96 1.62
-1 -5 -8 11.64 1.03
1 -5 8 12.49 0.86
0 5 9 12.02 1.1
0 5 -9 11.03 1.29
0 5 9 10.89 0.84
0 -5 9 13.16 0.97
0 -5 9 12.98 0.87
0 -5 -9 13.34 1.14
0 -5 -9 13.67 0.88
0 -5 -9 12.39 1.51
1 5 -10 13.26 1.09
1 5 -10 10.02 1.37
-1 5 10 11.47 1.09
-1 -5 10 11.95 0.93
1 -5 -10 12.36 1.36
1 -5 -10 12.65 1.65
1 -5 -10 11.92 0.92
2 5 -11 22.41 1.87
-2 5 11 22.46 1.68
2 -5 -11 22.74 1.37
2 -5 -11 20.63 1.97
-2 -5 11 23.47 1.39
2 -5 -11 24.4 2.16
3 5 -12 32.56 2.47
3 5 -12 34.47 2.57
3 -5 -12 31.6 2.62
3 -5 -12 30.85 2.51
3 -5 -12 29.21 1.8
-3 -5 12 33.82 1.77
4 5 -13 31.27 2.41
4 5 -13 26.5 2.31
4 -5 -13 25.29 2.48
4 -5 -13 25.33 2.14
4 -5 -13 28.75 1.76
-4 -5 13 28.42 1.76
5 5 -14 28.11 2.55
5 5 -14 27.33 1.75
5 5 -14 22.44 2.25
5 -5 -14 30.36 1.89
-5 -5 14 28.94 1.91
-6 6 -3 0.53 0.76
-6 6 -3 1.57 0.86
6 -6 3 0.69 0.52
-5 6 -4 3.66 0.84
5 6 4 4.96 0.91
-5 6 -4 3.52 0.98
-5 -6 -4 3.72 0.84
-5 -6 -4 4.35 1.06
5 -6 4 3.5 0.61
-4 6 -5 -0.22 0.63
4 6 5 0.58 0.69
4 -6 5 0.27 0.61
-4 -6 -5 -1.55 1.19
-3 6 -6 3.84 0.73
3 6 6 3.77 0.77
-3 6 -6 6.07 0.94
-3 -6 -6 3.34 1.27
3 -6 6 4.3 0.58
-2 6 -7 2.52 0.64
2 6 7 2.58 0.56
-2 -6 -7 1.65 1.26
2 -6 7 3.17 0.52
1 6 8 1.59 0.48
-1 6 -8 1.16 0.78
1 6 8 0.85 0.55
-1 -6 -8 1.16 1.06
1 -6 8 0.81 0.52
0 6 9 8.51 1
0 6 -9 9.86 1.28
0 6 9 9.19 0.79
0 -6 9 9.26 0.82
0 -6 -9 8.24 1.6
-1 6 10 8.21 1
1 6 -10 7.74 1.29
1 -6 -10 6.09 1.11
1 -6 -10 7.21 1.39
-1 -6 10 8.33 0.85
1 -6 -10 7.31 0.81
-2 6 11 71.82 3.84
2 6 -11 73.9 4.21
2 -6 -11 62.83 4.2
-2 -6 11 75.93 3.26
2 -6 -11 76.06 4.65
2 -6 -11 76.37 3.32
3 6 -12 5.35 1.38
-3 6 12 4.05 1.01
-3 -6 12 5.39 0.84
3 -6 -12 3.95 1.12
3 -6 -12 4.15 0.71
3 -6 -12 4.3 1.33
4 6 -13 14.73 2.01
4 -6 -13 13.2 1.79
4 -6 -13 13.81 1.21
4 -6 -13 11.34 1.66
-4 -6 13 14.6 1.31
-5 7 -4 -0.9 0.86
5 7 4 -0.3 0.72
5 -7 4 -0.71 0.72
-4 7 -5 10.17 1.08
4 7 5 8.79 0.99
-4 -7 -5 8.23 1.76
4 -7 5 11.71 1.06
3 7 6 -0.4 0.6
-3 7 -6 0.75 0.78
3 -7 6 0.09 0.51
-3 -7 -6 -0.85 1.4
-2 7 -7 8.29 0.97
2 7 7 8.47 0.98
2 -7 7 6.73 0.75
-2 -7 -7 7.42 1.52
1 7 8 13.74 1.25
1 7 8 15.23 1.05
-1 7 -8 16.08 1.48
-1 -7 -8 13.76 1.88
1 -7 8 15.09 1.05
0 7 -9 12.63 1.45
0 7 9 15.46 1.27
0 7 9 12.09 0.94
0 -7 9 12.71 0.98
0 -7 -9 11.65 1.94
-1 7 10 15.02 1.34
-1 7 10 13.77 1.13
1 7 -10 15.61 1.57
1 -7 -10 14.31 1.97
-1 -7 10 13.39 1.14
1 -7 -10 17.04 1.17
2 7 -11 3.07 1.23
-2 -7 11 3.98 0.79
2 -7 -11 1.48 1.34
2 -7 -11 3.67 0.67
3 7 -12 4.23 1.24
-3 -7 12 3.05 0.83
3 -7 -12 1.62 0.81
3 -7 -12 0.61 1.18
-3 8 -6 9.1 1.18
3 8 6 9.39 1.08
-3 -8 -6 8.89 2.01
3 -8 6 6.22 0.95
-2 8 -7 0.53 0.84
2 8 7 2.3 0.8
2 -8 7 2.55 0.62
-2 -8 -7 2.51 1.71
1 8 8 5.53 0.66
1 8 8 4.19 0.95
-1 8 -8 4.87 1.06
-1 -8 -8 2.9 1.64
1 -8 8 6.55 0.88
0 8 9 -0.71 0.65
0 8 -9 -1.08 1.05
0 -8 9 1.06 0.72
0 -8 -9 -0.79 1.5
-1 8 10 2.28 0.71
-1 -8 10 2.91 0.82
1 -8 -10 1.94 1.15
8 0 2 0.55 0.67
-8 0 -2 -0.12 0.84
8 0 2 -0.94 0.84
-7 0 -3 1.17 0.78
7 0 3 -0.83 0.62
7 0 3 0.39 0.54
6 0 4 21.65 1.54
-6 0 -4 18.3 1.73
-6 0 -4 24.66 1.91
6 0 4 23.32 1.51
5 0 5 -0.08 0.47
-5 0 -5 0.62 0.69
-5 0 -5 0.19 0.61
5 0 5 -0.81 0.64
-4 0 -6 2.62 0.75
-4 0 -6 2.62 0.69
-4 0 -6 2.71 0.7
4 0 6 2.67 0.55
4 0 6 2.7 0.56
-3 0 -7 0.08 0.63
-3 0 -7 -0.64 0.68
-3 0 -7 0.63 0.57
3 0 7 0.48 0.54
3 0 7 -0.63 0.35
-2 0 -8 9.64 0.99
2 0 8 11.09 0.91
-2 0 -8 11.26 1.17
2 0 8 11.36 0.95
-2 0 -8 10.84 0.99
-1 0 -9 0.16 0.48
1 0 9 -0.43 0.39
1 0 9 0.24 0.49
-1 0 -9 -0.43 0.4
-1 0 -9 0.36 0.51
0 0 -10 151.32 7.7
0 0 10 150.01 6.62
0 0 -10 144.74 7.18
0 0 -10 152.97 6.79
1 0 -11 0.28 0.66
1 0 -11 -0.06 0.55
1 0 -11 0.6 0.49
2 0 -12 86.27 4.66
2 0 -12 84.3 4.19
2 0 -12 84.28 4.58
3 0 -13 -0.15 0.93
3 0 -13 -0.39 0.66
3 0 -13 -0.4 0.86
4 0 -14 4.43 0.8
-4 0 14 4.57 0.78
4 0 -14 5.72 1.06
-5 0 15 -0.19 0.51
5 0 -15 1.52 1.07
5 0 -15 1.33 1.07
5 0 -15 0.97 0.64
6 0 -16 8.07 1.46
-6 0 16 8.28 1.07
6 0 -16 4.31 1.41
6 0 -16 5.6 0.93
8 1 2 0.59 0.86
8 1 2 0.35 0.74
-8 1 -2 -0.31 0.71
8 -1 2 0.42 0.84
7 1 3 10.36 0.99
-7 1 -3 10.01 1.31
7 1 3 10.05 1.08
7 -1 3 10.07 1.07
-7 -1 -3 10.16 1.19
6 1 4 0.08 0.64
6 1 4 -0.11 0.55
-6 1 -4 -0.63 0.56
-6 -1 -4 0.14 0.73
6 -1 4 -0.02 0.48
6 -1 4 -0.8 0.53
-6 -1 -4 -0.23 0.75
5 1 5 -0.75 0.64
5 1 5 -0.49 0.52
-5 1 -5 1.31 0.69
-5 1 -5 0.42 0.69
5 -1 5 -0.1 0.53
5 -1 5 -0.35 0.48
-5 -1 -5 -0.92 0.72
-5 -1 -5 -0.47 0.67
-4 1 -6 2.15 0.72
-4 1 -6 1.9 0.58
4 1 6 2.07 0.45
-4 1 -6 1.53 0.82
4 1 6 1.09 0.61
-4 -1 -6 2.15 0.69
4 -1 6 1.98 0.49
-4 -1 -6 1.35 0.73
-4 -1 -6 1.55 0.73
4 -1 6 2.53 0.53
3 1 7 17.74 1.23
-3 1 -7 18.28 1.54
-3 1 -7 18.07 1.37
-3 1 -7 14.14 1.43
3 1 7 17.67 1.27
-3 -1 -7 18.05 1.56
3 -1 7 17.62 1.22
3 -1 7 17.68 1.18
-3 -1 -7 15.08 1.27
-3 -1 -7 18.8 1.32
-2 1 -8 18.26 1.38
-2 1 -8 19.47 1.62
-2 1 -8 21.9 1.45
2 1 8 20.83 1.42
2 1 8 19.59 1.36
2 -1 8 22.33 1.38
2 -1 8 19.1 1.29
-2 -1 -8 18 1.31
-2 -1 -8 19.15 1.33
-2 -1 -8 21 1.64
-1 1 -9 103.05 4.93
1 1 9 104.5 4.82
-1 1 -9 104.62 5.15
-1 1 -9 95.71 5.55
1 1 9 100.57 5.01
-1 -1 -9 104.22 5.12
-1 -1 -9 105.31 5.61
1 -1 9 109.1 4.76
-1 -1 -9 106.41 4.84
1 -1 9 106.32 4.99
0 1 10 38.04 2.51
0 1 -10 47.21 2.89
0 1 -10 44.88 2.5
0 1 -10 45.92 2.56
0 -1 10 46.77 2.34
0 -1 10 43.62 1.91
0 -1 -10 45.36 2.86
0 -1 -10 45.99 2.4
0 -1 -10 45.39 2.59
1 1 -11 2.49 0.8
1 1 -11 2.72 0.72
1 1 -11 2.3 0.73
-1 -1 11 1.67 0.41
-1 -1 11 1.49 0.5
1 -1 -11 3.08 0.65
1 -1 -11 1.73 0.57
1 -1 -11 2.06 0.48
2 1 -12 16.06 1.41
2 1 -12 14.72 1.36
2 1 -12 14.67 1.39
2 1 -12 16.07 1.51
-2 -1 12 15.57 1.02
2 -1 -12 16.78 1.54
2 -1 -12 14.7 1.33
3 1 -13 52.92 3.23
3 1 -13 50.7 3.07
3 1 -13 50.04 2.91
3 1 -13 49.26 3.09
3 -1 -13 49.22 3
-3 -1 13 48.99 2.33
3 -1 -13 48.06 3.14
3 -1 -13 46.6 2.37
4 1 -14 11.85 1.54
4 1 -14 16.05 1.72
4 1 -14 12.53 1.33
-4 -1 14 13.09 1.05
4 -1 -14 12.54 1.57
4 -1 -14 12.76 1.02
4 -1 -14 13.07 1.55
5 1 -15 6 0.99
5 1 -15 4.54 1.15
5 1 -15 6.8 1.32
5 -1 -15 4.58 0.77
-5 -1 15 5.23 0.87
5 -1 -15 8.36 1.52
5 -1 -15 6.28 1.12
6 1 -16 6.98 1.38
6 1 -16 6.82 0.93
6 -1 -16 4.32 1.2
6 -1 -16 6.72 0.98
6 -1 -16 8.4 1.28
-6 -1 16 5.53 1.08
-8 2 -2 3.3 1.04
8 2 2 4.44 1.08
8 2 2 5.13 0.97
8 -2 2 4.87 0.99
-8 -2 -2 5.17 0.97
7 2 3 -0.01 0.48
-7 2 -3 -0.95 0.85
7 2 3 -1.19 0.82
7 -2 3 -1.23 0.84
-7 -2 -3 -0.67 0.77
6 2 4 6.46 0.99
-6 2 -4 6.96 0.87
6 2 4 6.58 0.89
-6 2 -4 6.25 1.01
-6 -2 -4 4.72 0.97
-6 -2 -4 6.1 1.03
6 -2 4 4.38 0.89
5 2 5 2.79 0.67
-5 2 -5 1.57 0.76
-5 2 -5 2.37 0.73
5 2 5 1.86 0.71
5 -2 5 1.96 0.69
-5 -2 -5 2.45 0.82
-5 -2 -5 3.18 0.71
-4 2 -6 31.91 2.04
4 2 6 33.48 2.02
-4 2 -6 32.56 2.32
4 2 6 32.8 1.95
4 -2 6 31.4 1.52
-4 -2 -6 31.89 2.25
4 -2 6 34.21 1.83
4 -2 6 35.73 1.97
3 2 7 23.89 1.61
-3 2 -7 23.83 1.79
-3 2 -7 23.45 1.63
3 2 7 22.27 1.5
-3 -2 -7 22.42 1.52
-3 -2 -7 22.16 1.79
3 -2 7 22.26 1.13
-3 -2 -7 22.89 1.55
3 -2 7 23.51 1.47
3 -2 7 24.03 1.4
2 2 8 19.36 1.41
-2 2 -8 15.14 1.5
-2 2 -8 18.08 1.53
2 2 8 17.33 1.28
-2 2 -8 17.15 1.29
-2 -2 -8 17.4 1.23
-2 -2 -8 17.57 1.23
2 -2 8 15.84 1.14
2 -2 8 16.73 0.91
2 -2 8 17.19 1.23
-2 -2 -8 16.87 1.59
-1 2 -9 25.42 2.08
-1 2 -9 28.2 1.8
1 2 9 27.93 1.74
-1 2 -9 25.87 1.71
1 -2 9 24.88 1.6
1 -2 9 26.51 1.57
-1 -2 -9 24.64 1.58
-1 -2 -9 26.14 1.69
-1 -2 -9 24 1.99
1 -2 9 27.14 1.26
0 2 -10 75.54 3.93
0 2 -10 79.86 4.43
0 2 10 76.22 3.95
0 2 -10 82.51 3.92
0 -2 10 76.25 3.1
0 -2 -10 74.87 3.98
0 -2 -10 69.14 4.32
0 -2 10 77.68 3.58
1 2 -11 1.53 0.69
1 2 -11 2.64 0.72
1 2 -11 1.23 0.63
1 -2 -11 2.34 0.82
1 -2 -11 -0.15 0.75
-1 -2 11 1.23 0.43
-1 -2 11 1.11 0.39
2 2 -12 103.36 5.56
2 2 -12 102.82 5.29
2 2 -12 119.15 5.93
2 2 -12 103.63 5.41
2 -2 -12 112.79 5.74
-2 -2 12 105.3 4.34
2 -2 -12 107.96 5.78
3 2 -13 9 1.36
3 2 -13 7.88 1.2
3 2 -13 8.31 1.14
-3 -2 13 7.19 0.75
3 -2 -13 9.07 0.92
3 -2 -13 7.5 1.34
3 -2 -13 8.42 1.1
4 2 -14 3.97 1.17
4 2 -14 4.39 1.13
4 2 -14 6.03 1.13
4 -2 -14 4.06 0.79
4 -2 -14 2.23 0.97
-4 -2 14 2.77 0.78
5 2 -15 3.45 0.94
5 2 -15 2.33 0.86
5 -2 -15 2.56 0.93
-5 -2 15 1.13 0.81
5 -2 -15 4.85 1.39
5 -2 -15 4.43 0.87
6 2 -16 2.03 1.17
6 2 -16 1.45 1.07
6 -2 -16 1.88 0.78
-6 -2 16 1.78 0.74
6 -2 -16 1.65 1.01
6 -2 -16 3.91 1.14
-8 3 -2 0.86 0.77
8 -3 2 1.2 0.96
7 3 3 1.99 0.83
-7 3 -3 3.15 1.01
7 3 3 3.47 0.7
-7 -3 -3 2.92 0.97
7 -3 3 2.69 0.82
-6 3 -4 19.07 1.66
-6 3 -4 20.13 1.57
6 3 4 18.14 1.6
6 3 4 21.19 1.54
6 -3 4 18.48 1.13
6 -3 4 16.36 1.41
-6 -3 -4 19.77 1.68
-6 -3 -4 22.12 1.84
5 3 5 2.54 0.73
5 3 5 2.97 0.73
-5 3 -5 2.46 0.81
-5 3 -5 2.04 0.84
-5 -3 -5 1.38 0.65
5 -3 5 3.67 0.56
-4 3 -6 62.17 3.3
4 3 6 56.83 3.21
4 3 6 63.87 3.38
-4 3 -6 65.95 3.87
-4 -3 -6 63.94 3.76
4 -3 6 62.46 3.22
4 -3 6 64.73 2.67
3 3 7 27.81 1.73
-3 3 -7 29.23 2.08
-3 3 -7 28.33 1.85
3 -3 7 29.7 1.77
-3 -3 -7 28.09 2.12
3 -3 7 28.46 1.39
-3 -3 -7 24.57 1.69
-2 3 -8 45.59 2.86
2 3 8 41.16 2.4
-2 3 -8 44 2.54
2 -3 8 44.35 1.96
-2 -3 -8 40.38 2.91
-2 -3 -8 44.34 2.47
2 -3 8 47.59 2.38
-1 3 -9 175.48 7.93
1 3 9 170.04 7.71
-1 3 -9 162.41 7.51
1 -3 9 143.99 7.48
1 -3 9 169.9 6.33
-1 -3 -9 163.4 8.61
-1 -3 -9 165.92 7.87
1 -3 9 173.53 7.25
0 3 -10 28.61 1.8
0 3 10 27.77 1.84
0 3 -10 28.4 1.95
0 -3 -10 27.35 1.84
0 -3 -10 25.3 2.13
0 -3 10 27.33 1.37
0 -3 10 29.56 1.61
1 3 -11 41.08 2.67
-1 3 11 42.58 2.7
1 3 -11 47.58 2.61
-1 -3 11 42.87 2.04
-1 -3 11 46.03 2.29
1 -3 -11 44.56 2.8
1 -3 -11 49.62 3.05
2 3 -12 51.31 3.19
2 3 -12 49.59 3.13
2 3 -12 56.45 3.06
2 -3 -12 53.46 2.52
2 -3 -12 60.41 3.44
-2 -3 12 54.51 2.45
2 -3 -12 53.24 3.34
3 3 -13 1.19 0.6
3 3 -13 3.18 1.01
3 3 -13 1.95 0.99
3 -3 -13 2.47 0.65
-3 -3 13 1.36 0.65
3 -3 -13 0.94 0.8
3 -3 -13 1.27 0.82
4 3 -14 7.62 1
4 3 -14 7.76 1.18
4 3 -14 9.53 1.45
-4 -3 14 8.83 0.91
4 -3 -14 8.49 1.65
4 -3 -14 7.37 1.28
4 -3 -14 6.93 0.89
5 3 -15 1.91 1.12
5 3 -15 -0.36 1.03
5 3 -15 2.23 1.16
5 -3 -15 3.48 0.88
-5 -3 15 1.35 0.68
5 -3 -15 1.58 1.04
6 3 -16 2.82 1.24
6 3 -16 5.23 1.29
6 -3 -16 4.77 0.98
6 -3 -16 4.61 1.23
6 -3 -16 4.38 1.54
-6 -3 16 4.4 0.94
7 4 3 21.81 1.7
-7 4 -3 20.44 1.95
-7 4 -3 21.76 1.66
7 -4 3 20.81 1.38
7 -4 3 17.92 1.74
6 4 4 7.83 1.04
-6 4 -4 6.77 1.18
-6 4 -4 6.59 1.02
6 -4 4 5.86 0.73
6 -4 4 4.21 0.83
-5 4 -5 12.5 1.27
5 4 5 11.64 1.07
-5 4 -5 12.07 1.15
-5 -4 -5 12.52 1.46
5 -4 5 12.22 1.16
5 -4 5 12.04 0.95
4 4 6 -0.16 0.6
-4 4 -6 0.33 0.54
-4 4 -6 0.65 0.74
4 -4 6 -0.15 0.67
4 -4 6 0.69 0.49
-4 -4 -6 -1.22 0.92
-3 4 -7 6.49 0.97
3 4 7 5.24 0.83
-3 4 -7 5.99 0.82
-3 -4 -7 4.31 0.71
3 -4 7 6.07 0.65
3 -4 7 5.77 0.74
-3 -4 -7 6.33 1.2
-2 4 -8 3.7 0.67
2 4 8 2.59 0.67
-2 4 -8 3.12 0.86
2 -4 8 2.56 0.47
2 -4 8 2.79 0.58
-2 -4 -8 3.24 0.87
-2 -4 -8 2.74 0.56
-1 4 -9 6.51 0.97
1 4 9 7.28 0.93
-1 -4 -9 8.52 1.22
-1 -4 -9 6.49 0.87
1 -4 9 7.07 0.6
1 -4 9 6.56 0.71
0 4 10 12.34 1.14
0 4 -10 14.51 1.2
0 4 -10 13.47 1.28
0 -4 10 13.23 0.87
0 -4 10 13.2 1
0 -4 -10 13.52 1.28
0 -4 -10 12.88 1.45
1 4 -11 2.6 0.88
-1 4 11 3.06 0.72
1 4 -11 3.06 0.68
1 -4 -11 1.44 0.9
1 -4 -11 3.26 1.06
-1 -4 11 3.14 0.6
2 4 -12 7.54 1.33
-2 4 12 6.38 1.06
2 4 -12 8.35 0.99
2 4 -12 6.96 1.18
2 -4 -12 9.14 1.37
2 -4 -12 8.33 1.29
2 -4 -12 7.84 0.83
-2 -4 12 8.75 0.83
3 4 -13 27.57 2.15
3 4 -13 28.54 2.28
3 4 -13 25.88 1.84
3 -4 -13 27.35 2.16
3 -4 -13 24.69 2.36
-3 -4 13 28.03 1.56
3 -4 -13 25.98 1.57
4 4 -14 11.29 1.58
4 4 -14 10.55 1.61
4 -4 -14 10.86 1.57
4 -4 -14 10.43 1.54
-4 -4 14 8.23 1.09
4 -4 -14 10.48 0.98
5 4 -15 39.49 2.9
5 4 -15 44.49 3.1
-5 -4 15 44 2.5
5 -4 -15 45.21 2.43
5 -4 -15 38.97 3.23
-6 5 -4 16.32 1.67
-6 5 -4 17.96 1.55
6 5 4 16.43 1.5
6 -5 4 18.52 1.29
-5 5 -5 21.61 1.68
-5 5 -5 19.42 1.77
5 5 5 17.8 1.48
-5 -5 -5 19.16 1.9
5 -5 5 19.36 1.28
4 5 6 29.77 1.92
-4 5 -6 31.48 2.32
-4 5 -6 32.4 2.07
4 -5 6 29.62 1.62
-4 -5 -6 32.7 2.49
-3 5 -7 28.78 2.08
-3 5 -7 27.5 1.89
3 5 7 25.3 1.77
-3 -5 -7 26.66 2.41
3 -5 7 27.8 1.45
2 5 8 0.6 0.63
-2 5 -8 0.09 0.67
-2 5 -8 -0.29 0.55
2 -5 8 0.53 0.5
2 -5 8 0.58 0.51
-2 -5 -8 1.02 0.8
-1 5 -9 9.58 1.19
1 5 9 8.22 1.01
-1 -5 -9 8.75 1.47
1 -5 9 7.87 0.87
-1 -5 -9 8.19 0.97
1 -5 9 8.67 0.78
0 5 10 -0.72 0.65
0 5 -10 0.87 0.88
0 -5 10 1.76 0.57
0 -5 -10 0.03 0.67
0 -5 -10 0.45 0.77
1 5 -11 25.3 1.67
1 5 -11 21.75 1.82
-1 5 11 20.63 1.71
1 -5 -11 22.43 1.33
1 -5 -11 23.59 2.21
-1 -5 11 22.07 1.31
1 -5 -11 22.05 1.85
-2 5 12 7.77 1.17
2 5 -12 7.7 1.41
2 -5 -12 8.82 1.47
-2 -5 12 7.89 0.88
2 -5 -12 8.18 0.92
-3 5 13 27.6 2.28
3 5 -13 32.95 2.61
3 5 -13 36.21 2.72
3 -5 -13 33.94 1.89
3 -5 -13 30.28 2.69
3 -5 -13 39.01 2.74
-3 -5 13 34.35 1.9
4 5 -14 3.68 1.14
4 5 -14 3.57 1.08
4 -5 -14 1.62 1.35
4 -5 -14 4.62 0.77
-4 -5 14 3.83 0.75
4 -5 -14 3.64 1.33
5 6 5 4.51 0.95
-5 6 -5 4.02 1.04
-5 -6 -5 4.53 1.34
-4 6 -6 1.98 0.84
-4 -6 -6 1.66 1.27
4 -6 6 2.07 0.58
-3 6 -7 53.79 2.95
3 6 7 52.81 2.96
-3 -6 -7 49.59 3.8
3 -6 7 55.88 2.51
-2 6 -8 6.39 1.07
2 6 8 6.4 0.95
2 -6 8 5 0.75
-2 -6 -8 4.87 1.49
1 6 9 13.71 1.24
-1 6 -9 12.12 1.41
1 -6 9 13.96 0.97
1 -6 9 10.99 1.02
-1 -6 -9 13.5 1.9
0 6 -10 1.16 0.98
0 6 10 2.38 0.8
0 -6 -10 1.62 1.32
0 -6 10 0.71 0.53
-1 6 11 1.86 0.78
1 6 -11 0.34 0.74
1 -6 -11 1.8 0.97
1 -6 -11 2.07 0.69
-1 -6 11 1.13 0.66
2 6 -12 -0.82 1.12
-2 6 12 0.82 0.84
2 -6 -12 -0.79 0.65
-2 -6 12 -0.5 0.66
2 -6 -12 -1.16 1.11
2 -6 -12 1.12 0.94
3 6 -13 -1.01 0.95
-3 6 13 -0.39 0.64
3 -6 -13 0.34 1.11
3 -6 -13 -1.38 1.28
3 -6 -13 -0.15 0.75
-3 -6 13 -0.11 0.53
-4 7 -6 4.29 0.97
4 7 6 5.09 0.9
-4 -7 -6 4.31 1.28
4 -7 6 5.44 0.87
3 7 7 -0.62 0.75
-3 7 -7 0.06 0.72
-3 -7 -7 -1.73 1.5
3 -7 7 -1.25 0.7
2 7 8 6.13 0.96
-2 7 -8 4.42 1.07
2 -7 8 6.29 0.86
-2 -7 -8 4.6 1.36
-1 7 -9 2.61 1.04
1 7 9 2.79 0.84
-1 -7 -9 3.16 1.25
1 -7 9 2.42 0.7
0 7 -10 10.61 1.31
0 7 10 10.4 1.07
0 -7 10 11.68 1.05
0 -7 -10 8.32 1.87
-1 7 11 5.23 0.98
1 7 -11 6.73 1.46
-1 -7 11 4.3 0.87
1 -7 -11 5.88 1.36
1 -7 -11 4.68 0.91
-2 7 12 0.98 0.87
2 7 -12 0.71 1.33
2 -7 -12 1.26 0.82
2 -7 -12 1.76 1.25
-2 -7 12 2.21 0.84
-8 0 -3 0.81 0.98
8 0 3 -1.53 0.98
7 0 4 41.64 2.58
-7 0 -4 43.6 3.03
7 0 4 42.12 2.48
6 0 5 0.96 0.8
-6 0 -5 0.11 0.77
-6 0 -5 0.12 0.78
-5 0 -6 23.89 1.77
5 0 6 25.91 1.61
-5 0 -6 26.25 2.02
-5 0 -6 22.69 1.92
5 0 6 23.04 1.71
-4 0 -7 -1.06 0.78
-4 0 -7 1.49 0.71
4 0 7 -0.47 0.49
-4 0 -7 -1.08 0.85
4 0 7 -0.01 0.63
-3 0 -8 12.3 1.21
3 0 8 12.57 1.14
3 0 8 11.58 0.98
-3 0 -8 12.16 1.39
-2 0 -9 0.14 0.44
2 0 9 -0.61 0.52
-2 0 -9 0.59 0.77
-2 0 -9 0.75 0.59
2 0 9 0.18 0.58
1 0 10 103.06 4.77
-1 0 -10 106.63 4.93
-1 0 -10 98.25 5.59
1 0 10 101.2 5
-1 0 -10 101.87 5.13
0 0 -11 -0.22 0.77
0 0 11 -0.57 0.55
0 0 -11 -0.76 0.62
0 0 -11 -0.32 0.64
1 0 -12 30.58 1.94
1 0 -12 29.98 2.2
1 0 -12 28.76 2.04
2 0 -13 0.18 0.84
2 0 -13 -0.73 0.79
2 0 -13 -0.23 0.67
3 0 -14 64.6 3.77
3 0 -14 62.27 3.81
4 0 -15 -0.91 1.06
5 0 -16 47.46 3.35
5 0 -16 50.82 3.39
8 1 3 1.43 0.81
-8 1 -3 1.23 0.76
8 -1 3 0.69 0.95
-7 1 -4 -0.6 0.79
7 1 4 0.48 0.5
7 1 4 -0.82 0.74
7 -1 4 -0.37 0.87
-7 -1 -4 -0.11 0.63
6 1 5 19.47 1.51
-6 1 -5 21.09 1.84
6 1 5 20.53 1.66
-6 -1 -5 21.75 1.8
6 -1 5 23.22 1.7
-6 -1 -5 22.57 1.93
5 1 6 3.11 0.69
-5 1 -6 2.9 0.86
5 1 6 3.62 0.83
-5 1 -6 4.63 0.87
-5 -1 -6 1.72 0.83
-5 -1 -6 4.49 0.95
5 -1 6 3.72 0.79
5 -1 6 3.02 0.62
4 1 7 9.09 1.04
4 1 7 9.27 0.96
-4 1 -7 11.18 1.17
-4 1 -7 10.66 1.15
-4 1 -7 10.51 1.41
4 -1 7 10.21 1.08
-4 -1 -7 9.15 1.15
4 -1 7 11.11 0.93
-4 -1 -7 10.74 1.05
-3 1 -8 49.05 3.19
-3 1 -8 42.95 3.14
3 1 8 49.5 2.64
3 1 8 46.98 2.62
-3 1 -8 49.56 2.71
3 -1 8 52.42 2.66
-3 -1 -8 48.04 2.78
3 -1 8 47.16 2.56
-3 -1 -8 48.55 2.65
-3 -1 -8 51.49 3.17
-2 1 -9 2.58 0.9
-2 1 -9 1.84 0.78
-2 1 -9 3.23 0.75
2 1 9 3 0.66
2 1 9 4.07 0.78
2 -1 9 3.58 0.71
-2 -1 -9 2.95 0.85
2 -1 9 2.4 0.49
-2 -1 -9 2.01 0.64
-2 -1 -9 1.63 0.54
-1 1 -10 68.72 3.98
-1 1 -10 65.92 3.42
1 1 10 67.49 3.36
-1 1 -10 64.9 3.49
1 1 10 62.65 3.43
1 -1 10 68.68 3.25
-1 -1 -10 65.24 3.31
1 -1 10 57.45 3.33
-1 -1 -10 66.69 3.92
-1 -1 -10 63.41 3.48
0 1 -11 50.77 3.16
0 1 -11 50.65 2.72
0 1 -11 48.81 2.76
0 1 11 43.18 2.73
0 -1 -11 48.54 2.61
0 -1 -11 44.56 3.05
0 -1 11 47.17 2.47
0 -1 -11 48.11 2.81
1 1 -12 43.21 2.66
1 1 -12 51.67 3.14
1 1 -12 48.3 2.84
1 -1 -12 48.04 2.91
-1 -1 12 47.07 2.5
1 -1 -12 47.57 3.07
2 1 -13 174.78 8.85
2 1 -13 193.28 9.37
2 1 -13 176.81 8.34
2 -1 -13 183.42 9.27
2 -1 -13 184.11 9.07
3 1 -14 22.37 1.94
3 1 -14 23.58 1.83
3 1 -14 25.59 2.15
3 -1 -14 23.16 1.83
3 -1 -14 20.29 2.06
4 1 -15 15.94 1.66
4 -1 -15 17.81 1.82
5 1 -16 17.44 1.88
5 -1 -16 15.39 2.04
5 -1 -16 15.97 1.84
7 2 4 1.07 0.57
-7 2 -4 1.83 0.95
7 2 4 0.56 0.89
-7 -2 -4 0.55 0.67
7 -2 4 -0.27 0.62
-6 2 -5 22.32 1.72
-6 2 -5 21.74 1.84
6 2 5 20.73 1.59
6 2 5 22.1 1.73
-6 -2 -5 23.7 1.98
-6 -2 -5 20.92 1.8
6 -2 5 20.31 1.57
-5 2 -6 12.72 1.43
5 2 6 12.31 1.19
-5 2 -6 13.02 1.29
5 2 6 12.92 1.1
-5 -2 -6 14.76 1.47
5 -2 6 13.7 1.24
4 2 7 52.38 2.86
-4 2 -7 53.85 3.41
-4 2 -7 54.77 3
4 2 7 53.37 2.9
4 -2 7 51.48 2.83
-4 -2 -7 53.35 3.32
3 2 8 23.82 1.67
3 2 8 20.95 1.52
-3 2 -8 23.06 1.86
-3 2 -8 23.67 1.63
3 -2 8 24.25 1.55
3 -2 8 22.1 1.41
-3 -2 -8 20.52 1.53
-3 -2 -8 21.85 1.59
-3 -2 -8 21.56 1.94
-2 2 -9 5.77 0.95
-2 2 -9 4.93 0.97
2 2 9 5.08 0.76
-2 2 -9 4.17 0.71
2 2 9 5.09 0.82
-2 -2 -9 5.47 0.94
-2 -2 -9 4.09 0.76
2 -2 9 4.25 0.66
2 -2 9 5.67 0.8
-2 -2 -9 4.81 0.77
-1 2 -10 11.17 1.46
-1 2 -10 8.38 1.03
1 2 10 11.64 1.05
-1 2 -10 8.87 1.14
1 -2 10 11.42 0.99
-1 -2 -10 10.8 1.06
-1 -2 -10 10.31 1.23
-1 -2 -10 10.08 1
1 -2 10 9.31 0.91
0 2 -11 1.73 0.92
0 2 -11 3.65 0.92
0 2 -11 2.88 0.78
0 2 11 2.07 0.84
0 -2 -11 2.97 0.93
0 -2 11 2.96 0.48
0 -2 11 3.58 0.55
0 -2 -11 3.84 0.81
1 2 -12 17 1.76
1 2 -12 16.99 1.44
1 2 -12 16.73 1.57
1 -2 -12 19.24 1.64
-1 -2 12 16.41 1.05
1 -2 -12 18.08 1.59
-1 -2 12 17.67 1.24
2 2 -13 0.45 0.76
2 2 -13 2.4 0.67
2 2 -13 2.86 0.94
-2 -2 13 1.4 0.55
2 -2 -13 1.83 1.07
3 2 -14 10.98 1.53
3 2 -14 11.07 1.25
3 2 -14 9.53 1.37
3 -2 -14 8.91 1.54
3 -2 -14 10.06 1.27
-3 -2 14 9.61 0.92
4 2 -15 0.84 0.98
4 2 -15 2.98 1.22
4 2 -15 -0.51 0.74
4 -2 -15 0.12 0.89
-4 -2 15 0.94 0.59
5 2 -16 4.77 1.35
5 2 -16 7.49 1.41
5 2 -16 3.19 1
-5 -2 16 5.55 1.05
5 -2 -16 7.77 1.7
-7 3 -4 1.81 0.77
7 3 4 0.44 0.94
7 3 4 -0.46 0.74
-7 -3 -4 0.09 0.93
7 -3 4 0.73 0.75
-6 3 -5 8.22 1.22
6 3 5 7.38 0.9
-6 3 -5 8.47 1.15
6 3 5 6.79 1.05
-6 -3 -5 9.2 1.29
6 -3 5 5.98 1.07
-5 3 -6 0.67 0.72
5 3 6 -2.01 0.89
5 3 6 0.77 0.68
-5 3 -6 -0.81 0.76
-5 -3 -6 0.89 0.68
5 -3 6 -0.33 0.53
4 3 7 1.04 0.49
-4 3 -7 0.29 0.57
-4 3 -7 1.76 0.64
4 -3 7 1.23 0.7
-4 -3 -7 1.11 0.74
-3 3 -8 16.68 1.48
-3 3 -8 15.41 1.52
3 3 8 16.85 1.31
-3 -3 -8 14.33 1.2
3 -3 8 17.08 1.31
3 -3 8 15.47 0.96
-3 -3 -8 17.88 1.75
2 3 9 41.81 2.42
-2 3 -9 43.53 2.56
-2 -3 -9 44.33 2.49
-2 -3 -9 39.68 2.88
2 -3 9 39.56 1.89
2 -3 9 45.05 2.36
-1 3 -10 8.73 1.1
-1 3 -10 9.21 0.95
1 3 10 8.62 1.06
1 -3 10 8.76 0.9
1 -3 10 8.26 0.71
-1 -3 -10 8.33 1.2
1 -3 10 6.71 0.78
-1 -3 -10 9.64 0.96
0 3 -11 6.18 1
0 3 -11 6.87 0.82
0 3 11 7.71 1.09
0 -3 11 5.84 0.65
0 -3 11 7.08 0.79
0 -3 -11 7.51 1.25
0 -3 -11 7.04 1.03
1 3 -12 3.69 1.06
1 3 -12 4.37 0.71
-1 3 12 2.04 0.93
1 -3 -12 3.11 0.9
1 -3 -12 3.88 1.01
2 3 -13 6.15 1.06
2 3 -13 8.74 1.2
2 3 -13 7.96 1.09
2 -3 -13 8.11 1.21
-2 -3 13 7.27 0.81
2 -3 -13 9.75 1.24
3 3 -14 1.08 1.09
3 3 -14 -0.78 1.07
3 -3 -14 2.72 0.97
-3 -3 14 1.78 0.7
3 -3 -14 1.74 1.02
4 3 -15 -0.76 1.09
4 3 -15 1.02 0.81
4 3 -15 0.87 0.99
-4 -3 15 0.58 0.77
4 -3 -15 -0.98 1.39
5 3 -16 2.49 1.17
5 3 -16 4.73 1.38
5 3 -16 1.53 0.98
-5 -3 16 2.87 1.05
5 -3 -16 1.9 1.1
5 -3 -16 0.62 1.03
-6 4 -5 0.78 0.98
6 4 5 -0.1 0.78
6 -4 5 0.16 0.59
-6 -4 -5 0.43 0.68
-5 4 -6 -0.61 0.85
5 4 6 -0.33 0.71
-5 4 -6 -0.66 0.63
5 -4 6 0.51 0.52
5 -4 6 -0.64 0.57
-5 -4 -6 -0.19 0.96
4 4 7 9.16 0.96
-4 4 -7 8.79 1.21
-4 4 -7 9.34 1.13
4 -4 7 6.99 0.99
4 -4 7 7.37 0.77
-4 -4 -7 8.46 1.43
-3 4 -8 0.52 0.56
-3 4 -8 2.2 0.87
3 4 8 0.4 0.61
3 -4 8 1 0.67
-3 -4 -8 0.26 0.58
-3 -4 -8 0 0.69
-2 4 -9 1.02 0.59
-2 4 -9 1.47 0.85
2 4 9 1.57 0.73
-2 -4 -9 0.51 0.61
-2 -4 -9 0.97 1.01
2 -4 9 1.27 0.64
1 4 10 11.55 1.19
-1 4 -10 12.17 1.32
1 -4 10 10.22 0.98
-1 -4 -10 10.72 1.54
-1 -4 -10 11.57 1.16
1 -4 10 9.04 0.81
0 4 11 32.9 2.17
0 4 -11 31.89 2.28
0 4 -11 34.01 2.13
0 -4 -11 34.38 2.53
0 -4 -11 29.44 2.08
0 -4 11 32.05 1.64
0 -4 11 28.43 1.81
1 4 -12 10.98 1.44
-1 4 12 10.64 1.31
1 4 -12 11.23 1.14
1 -4 -12 9.64 1.23
-1 -4 12 11.25 0.87
1 -4 -12 11.3 1.52
2 4 -13 1.41 1.09
-2 4 13 0.66 0.69
2 4 -13 1.55 0.78
2 4 -13 2.5 1.03
-2 -4 13 -0.06 0.62
2 -4 -13 -0.86 1.11
2 -4 -13 0.13 0.96
3 4 -14 1.71 1.25
3 4 -14 2.08 0.73
3 4 -14 1.18 1.04
3 -4 -14 0.25 1.24
-3 -4 14 2.13 0.59
3 -4 -14 2.3 0.83
4 4 -15 2.66 1.31
4 -4 -15 2.48 1.34
-6 5 -5 2.7 1.11
6 5 5 3.69 0.96
-6 5 -5 2.66 1.03
6 -5 5 3.19 0.78
-5 5 -6 0.17 0.63
-5 5 -6 -0.78 0.91
5 5 6 -0.73 0.8
5 -5 6 0.92 0.84
-5 -5 -6 0.37 1.12
5 -5 6 -1.04 0.66
-4 5 -7 4.2 0.84
-4 5 -7 2.74 0.76
4 5 7 4.03 0.87
4 -5 7 3.83 0.92
4 -5 7 4.56 0.68
-4 -5 -7 2.62 1.24
-3 5 -8 27.19 1.92
3 5 8 25.95 1.83
-3 5 -8 27.81 2.1
-3 -5 -8 23.2 2.23
3 -5 8 26.19 1.77
3 -5 8 25.43 1.42
-2 5 -9 2.12 0.95
-2 5 -9 0.11 0.74
2 5 9 -0.21 0.69
2 -5 9 -0.52 0.43
-2 -5 -9 1.74 1.22
2 -5 9 0.15 0.62
1 5 10 54.61 3.08
-1 5 -10 56.13 3.22
1 -5 10 50.97 2.78
-1 -5 -10 52.27 3.08
1 -5 10 56.06 2.51
-1 -5 -10 56.78 3.85
0 5 -11 4.11 0.94
0 5 11 2.01 0.87
0 -5 11 2.74 0.64
0 -5 -11 3.07 1.03
0 -5 -11 2.51 0.88
1 5 -12 1.62 1.09
-1 5 12 1.37 0.9
1 -5 -12 0.78 1.18
-1 -5 12 2.73 0.64
1 -5 -12 1.66 1
-2 5 13 18.19 1.77
2 5 -13 19.23 2.09
2 -5 -13 20.39 2.04
-2 -5 13 20.88 1.39
2 -5 -13 22.64 2.15
3 5 -14 1.67 1.42
-3 5 14 -0.03 0.83
3 -5 -14 1.22 0.84
3 -5 -14 1.84 1.3
-3 -5 14 1.88 0.84
4 6 7 38.77 2.46
-4 6 -7 43.05 2.64
-4 6 -7 39.22 2.82
-4 -6 -7 35.76 3.03
4 -6 7 44.88 2.1
3 6 8 7.86 0.94
-3 6 -8 9.28 1.27
3 -6 8 6.77 0.91
-3 -6 -8 6.53 1.63
3 -6 8 7.73 0.92
2 6 9 12.33 1.18
-2 6 -9 12.05 1.47
-2 -6 -9 12.25 1.82
2 -6 9 11.22 1.06
2 -6 9 14.38 1.08
-1 6 -10 0.87 0.98
1 6 10 -0.27 0.77
-1 -6 -10 1.37 1.22
0 6 11 6.17 1.08
0 6 -11 7.68 1.26
0 -6 11 6.41 0.86
0 -6 -11 7.81 1.7
1 6 -12 5.61 1.43
-1 6 12 6.22 0.97
1 -6 -12 7.85 1.52
-1 -6 12 6.97 0.91
-2 6 13 1.84 0.98
2 6 -13 1.1 1.25
-2 -6 13 1.83 0.72
2 -6 -13 -0.2 1.12
-2 7 -9 24.51 2.05
2 7 9 25.02 1.8
-2 -7 -9 24.55 2.57
2 -7 9 28.48 1.6
-1 7 -10 20.83 1.94
1 7 10 19.72 1.69
-1 -7 -10 23.06 2.42
1 -7 10 21.6 1.48
0 7 11 39.93 2.47
0 7 -11 40.14 2.73
0 -7 -11 40.32 3.41
0 -7 11 38.72 2.13
7 0 5 -0.71 0.73
-7 0 -5 0.48 0.92
7 0 5 -1.31 0.96
-6 0 -6 3.16 1.24
6 0 6 0.38 0.81
6 0 6 1.35 0.65
-6 0 -6 2.04 0.98
-5 0 -7 -0.54 0.85
-5 0 -7 0.3 0.8
-5 0 -7 0.72 1.07
5 0 7 -0.09 0.52
-4 0 -8 8.95 1.15
4 0 8 10.97 0.97
4 0 8 11.25 1.09
-4 0 -8 10.64 1.46
-3 0 -9 0.23 0.92
3 0 9 -0.15 0.47
3 0 9 0.42 0.5
-3 0 -9 -0.58 0.77
-2 0 -10 3.57 1.1
2 0 10 4 0.84
-2 0 -10 4.62 0.93
-2 0 -10 3.92 0.69
2 0 10 4.15 0.65
-1 0 -11 -0.9 0.78
-1 0 -11 1.64 0.96
1 0 11 -0.23 0.65
1 0 11 0.67 0.65
-1 0 -11 0.64 0.64
0 0 12 2.04 0.78
0 0 -12 3.16 1.03
0 0 12 3.32 0.76
0 0 -12 3.04 0.84
0 0 -12 2.18 0.81
1 0 -13 -0.49 0.58
1 0 -13 0.28 0.85
1 0 -13 0.58 0.74
2 0 -14 28.81 2.27
2 0 -14 28.63 2.24
3 0 -15 -0.02 1.08
4 0 -16 18.95 1.95
7 1 5 11.96 1.21
7 1 5 11.24 1.37
-7 1 -5 11.37 1.37
7 -1 5 10.03 1.25
6 1 6 1.11 0.9
-6 1 -6 0.33 0.83
6 1 6 -0.78 0.71
-6 -1 -6 0.14 1.07
-6 -1 -6 -0.59 0.95
-5 1 -7 3.52 0.82
-5 1 -7 3.66 0.97
5 1 7 3.54 0.76
5 1 7 2.61 0.58
-5 -1 -7 3.84 1.16
5 -1 7 2.26 0.6
-5 -1 -7 4.16 0.89
5 -1 7 3.72 0.91
-4 1 -8 5.91 0.96
-4 1 -8 5.1 1.08
-4 1 -8 8.34 1.16
4 1 8 6.29 0.96
4 1 8 6.62 0.86
-4 -1 -8 6.05 0.88
4 -1 8 5.05 0.7
-4 -1 -8 4.57 1.2
4 -1 8 5.1 0.8
-3 1 -9 11.78 1.24
3 1 9 10.36 1.04
3 1 9 9.97 1.02
-3 1 -9 9.06 1.44
-3 -1 -9 7.87 1.06
-3 -1 -9 8.5 1.08
3 -1 9 8.83 1.05
-3 -1 -9 7.78 1.32
3 -1 9 9.54 0.95
2 1 10 24.82 1.73
2 1 10 22.83 1.64
-2 1 -10 22.44 1.75
-2 1 -10 21.71 2.04
-2 1 -10 24.1 1.81
-2 -1 -10 23.64 1.66
-2 -1 -10 23.85 2.07
2 -1 10 26.37 1.65
2 -1 10 21.95 1.57
-2 -1 -10 24.59 1.74
-1 1 -11 1.28 0.7
1 1 11 -1.03 0.7
-1 1 -11 1.48 0.91
-1 1 -11 0.16 0.73
1 1 11 0.23 0.72
1 -1 11 0.56 0.64
1 -1 11 0.02 0.41
-1 -1 -11 -0.57 0.7
-1 -1 -11 0.38 0.89
-1 -1 -11 1.1 0.7
0 1 -12 8.76 1.1
0 1 12 6.8 0.96
0 1 -12 7.42 1.14
0 1 -12 8.84 1.21
0 -1 -12 6.78 1.05
0 -1 -12 6.75 1.05
0 -1 12 8.05 0.91
1 1 -13 14.92 1.53
1 1 -13 14.21 1.44
1 1 -13 15.52 1.47
1 -1 -13 15.09 1.55
-1 -1 13 13.19 1.21
1 -1 -13 13.77 1.5
2 1 -14 5.72 1.22
2 1 -14 4.1 0.83
2 1 -14 5.85 1.12
2 -1 -14 5.36 1.24
2 -1 -14 4.55 0.89
3 1 -15 4.77 1.21
3 -1 -15 2.56 1.12
4 1 -16 3.2 1.34
4 1 -16 5.66 1.43
4 -1 -16 4.63 1.48
7 2 5 0.77 0.78
-7 2 -5 -0.48 0.86
7 2 5 -1.11 0.9
-7 -2 -5 -0.3 0.89
6 2 6 27.15 1.9
6 2 6 29.56 2.14
-6 2 -6 32.72 2.37
-6 2 -6 29.33 2.13
-6 -2 -6 30.67 2.41
6 -2 6 26.84 2.03
-5 2 -7 -0.23 0.84
-5 2 -7 0.56 0.84
5 2 7 0.49 0.67
5 2 7 0.38 0.6
-5 -2 -7 -0.25 0.99
5 -2 7 0.01 0.53
-4 2 -8 81.72 4.21
-4 2 -8 82.39 4.85
4 2 8 75.56 4.04
4 2 8 75.85 4.07
4 -2 8 83.24 4.06
-4 -2 -8 81.52 4.71
3 2 9 -0.18 0.54
-3 2 -9 -1.32 0.86
3 2 9 1.66 0.71
-3 -2 -9 0.69 0.68
3 -2 9 0.25 0.69
-3 -2 -9 0.52 0.94
-3 -2 -9 0.54 0.69
2 2 10 13.91 1.26
-2 2 -10 15.51 1.46
-2 -2 -10 14.69 1.66
2 -2 10 14.6 1.24
-2 -2 -10 12.43 1.15
2 -2 10 14.27 1.13
-2 -2 -10 14.08 1.25
-1 2 -11 19.09 1.67
-1 2 -11 16.79 1.9
-1 2 -11 20.91 1.53
1 2 11 19.25 1.58
-1 -2 -11 18.98 1.53
1 -2 11 19.71 1.39
1 -2 11 16.22 1.32
-1 -2 -11 19.27 1.86
0 2 -12 3.34 0.87
0 2 -12 2.74 0.92
0 2 -12 1.18 1.09
0 2 12 2.55 0.89
0 -2 12 2.13 0.67
0 -2 -12 2.05 0.85
0 -2 -12 2.49 0.8
1 2 -13 2.47 1.13
1 2 -13 0.09 0.61
-1 2 13 0.28 0.87
1 2 -13 1.16 0.8
1 -2 -13 1.09 0.92
1 -2 -13 0.86 0.92
2 2 -14 24.96 2.09
2 2 -14 25.64 2.01
2 -2 -14 27.11 2.31
2 -2 -14 26.95 2.13
3 2 -15 0.21 0.87
3 2 -15 0.89 0.99
3 -2 -15 1.41 1.01
3 -2 -15 0.47 1.26
4 2 -16 4.27 1.2
4 2 -16 3.63 1.24
4 2 -16 2.75 1.36
4 -2 -16 3.19 1.38
6 3 6 0.02 0.74
-6 3 -6 1.23 0.94
6 3 6 -1.38 1.05
-6 3 -6 1.45 1.01
6 -3 6 -0.67 0.84
-6 -3 -6 -0.71 0.99
5 3 7 0.51 0.68
5 3 7 -0.35 0.53
-5 3 -7 0.02 0.61
-5 3 -7 -0.65 0.92
5 -3 7 0.86 0.77
-5 -3 -7 0.33 0.77
4 3 8 0.56 0.71
-4 3 -8 1.84 0.71
-4 -3 -8 2.31 1.14
4 -3 8 0.96 0.78
3 3 9 22.54 1.64
-3 3 -9 23.44 1.81
-3 3 -9 23.55 1.98
3 -3 9 21.69 1.6
-3 -3 -9 19.07 1.56
-3 -3 -9 21.06 2.04
-2 3 -10 0.64 0.76
2 3 10 -0.32 0.51
2 -3 10 -0.69 0.66
-2 -3 -10 -0.35 0.97
-2 -3 -10 -0.52 0.69
1 3 11 9.69 1.06
-1 3 -11 10.77 1.2
-1 3 -11 11.38 1.37
-1 -3 -11 8.8 1.07
1 -3 11 10.68 1.04
-1 -3 -11 9.41 1.45
0 3 12 44.25 2.75
0 3 -12 44.91 2.73
0 3 -12 42.14 2.81
0 -3 -12 46.78 2.88
0 -3 -12 45.83 3.15
0 -3 12 47.03 2.46
1 3 -13 0.12 0.69
1 3 -13 -0.91 0.78
-1 3 13 -0.69 0.94
-1 -3 13 -0.19 0.39
1 -3 -13 -0.21 0.69
2 3 -14 57.83 3.31
2 3 -14 53.4 3.41
2 -3 -14 58.66 3.55
2 -3 -14 52.31 3.64
-2 -3 14 53.61 2.59
3 3 -15 20.85 1.85
3 3 -15 20.2 2.02
3 3 -15 18.27 2.06
-3 -3 15 20.59 1.47
3 -3 -15 21.11 1.94
3 -3 -15 21.9 2.29
4 3 -16 6.4 1.34
4 3 -16 9.76 1.63
4 3 -16 10.85 1.44
4 -3 -16 9.39 1.66
-4 -3 16 8.88 1.2
-5 4 -7 10.46 1.38
5 4 7 11.01 1.11
-5 4 -7 10.57 1.44
-5 -4 -7 10.06 1.51
5 -4 7 8.87 1.09
-4 4 -8 0.07 0.85
4 4 8 0.13 0.7
-4 4 -8 0.29 0.85
-4 -4 -8 1.34 0.86
4 -4 8 -0.53 0.77
-3 4 -9 58.35 3.58
3 4 9 54.53 3.1
-3 4 -9 58.66 3.24
3 -4 9 52.28 2.44
3 -4 9 52.29 2.95
-3 -4 -9 53.03 3.75
-2 4 -10 10.05 1.28
2 4 10 6.66 1.05
-2 -4 -10 8.86 0.95
2 -4 10 9.84 1.04
2 -4 10 6.69 0.73
-2 -4 -10 8.69 1.52
1 4 11 86.28 4.55
-1 4 -11 89.06 4.64
-1 -4 -11 85.38 4.61
1 -4 11 87.29 4.2
-1 -4 -11 93.28 5.37
1 -4 11 84.6 3.64
0 4 -12 7.24 1.06
0 4 -12 4.87 1.24
0 4 12 4.36 1.05
0 -4 12 5.24 0.64
0 -4 -12 6.82 1.18
0 -4 -12 7.19 1.22
-1 4 13 12.91 1.43
1 4 -13 16.24 1.44
1 4 -13 11.73 1.62
1 -4 -13 14.45 1.79
1 -4 -13 12.21 1.62
-1 -4 13 13.96 1.08
2 4 -14 7.26 1.24
2 4 -14 8.44 1.07
-2 4 14 5.77 1.25
2 -4 -14 7.78 1.39
-2 -4 14 8.49 0.94
2 -4 -14 10.18 1.53
3 4 -15 2.45 0.92
3 4 -15 1.02 1.26
3 4 -15 0.82 1.25
3 -4 -15 2.54 1.38
-3 -4 15 3.6 0.7
3 -4 -15 3.68 0.98
5 5 7 -0.71 0.63
-5 5 -7 -1.29 0.94
-5 -5 -7 -0.48 1
5 -5 7 -0.3 0.65
4 5 8 7.61 0.97
-4 5 -8 7.65 1.26
-4 5 -8 10.42 1.33
-4 -5 -8 8.88 1.41
4 -5 8 8.11 0.86
4 -5 8 6.27 1.03
-3 5 -9 1.75 1.02
3 5 9 0.49 0.58
-3 5 -9 2.14 0.96
-3 -5 -9 0.13 1.23
3 -5 9 1.5 0.48
3 -5 9 -0.55 0.74
-2 5 -10 3.23 1.12
2 5 10 3.93 0.84
2 -5 10 3.53 0.57
2 -5 10 3.98 0.8
-2 -5 -10 3.65 1.47
-1 5 -11 14.11 1.56
1 5 11 11.96 1.38
1 -5 11 13.44 0.98
1 -5 11 11.85 1.26
-1 -5 -11 13.82 1.98
0 5 -12 10.14 1.56
0 5 12 7.95 1.23
0 -5 -12 8.37 1.2
0 -5 12 6.62 0.86
0 -5 -12 7.97 1.38
-1 5 13 33.04 2.44
1 5 -13 39.41 2.46
1 5 -13 34.37 2.61
1 -5 -13 39.73 3.04
-1 -5 13 38.28 1.98
1 -5 -13 31.5 2.62
-2 5 14 12.43 1.41
2 5 -14 13.55 1.77
2 -5 -14 14.32 1.86
-2 -5 14 13.73 1.21
2 -5 -14 11.11 1.55
3 6 9 0.5 0.82
-3 6 -9 0.74 0.75
-3 -6 -9 -1.23 1.09
3 -6 9 0.66 0.73
3 -6 9 -0.2 0.67
-2 6 -10 8.3 1.39
2 6 10 5.57 0.93
-2 -6 -10 7.57 1.48
2 -6 10 8.54 0.81
2 -6 10 4.91 0.96
1 6 11 9.39 1.26
-1 6 -11 8.36 1.41
1 -6 11 8.51 0.85
-1 -6 -11 9.79 1.59
0 6 -12 3.53 1.07
0 6 12 3.67 1.06
0 -6 -12 4.34 1.64
0 -6 12 4.92 0.7
6 0 7 -0.03 0.76
-6 0 -7 0.15 1.26
6 0 7 0.12 0.66
-6 0 -7 -0.09 1.03
-5 0 -8 5.69 1.13
5 0 8 5.28 0.85
-5 0 -8 4.81 1.26
5 0 8 5.09 1.04
4 0 9 -0.42 0.61
-4 0 -9 -0.3 1.16
-4 0 -9 1.85 0.91
4 0 9 -0.37 0.79
-3 0 -10 88.07 4.49
3 0 10 91.33 4.43
-3 0 -10 89.1 5.26
3 0 10 82.32 4.35
-2 0 -11 0.48 1.07
2 0 11 0.01 0.66
-2 0 -11 1.54 0.84
2 0 11 0.27 0.53
-1 0 -12 106.86 5.46
1 0 12 93.8 5.18
-1 0 -12 111.01 6.07
1 0 12 109.69 5.05
-1 0 -12 103.12 5.2
0 0 -13 2.13 0.83
0 0 13 -0.45 0.81
0 0 -13 1.6 1.06
0 0 -13 -1.39 0.92
1 0 -14 1.65 1.07
2 0 -15 -0.94 0.84
2 0 -15 0.64 1.02
6 1 7 8.69 1.08
6 1 7 7.05 1.28
-6 1 -7 8.75 1.33
-6 -1 -7 9.15 1.31
-6 -1 -7 9.35 1.39
6 -1 7 8.48 1.29
-5 1 -8 1.81 0.98
5 1 8 -0.08 0.65
5 1 8 -0.67 0.65
-5 -1 -8 -0.58 0.82
5 -1 8 0.65 0.68
4 1 9 35.08 2.21
-4 1 -9 35.21 2.37
4 1 9 31.91 2.07
-4 1 -9 34.69 2.88
-4 -1 -9 32.7 2.19
4 -1 9 33.33 2.05
-4 -1 -9 36.05 2.8
4 -1 9 34.08 2.23
3 1 10 -0.3 0.64
3 1 10 0.07 0.68
-3 1 -10 0.27 0.8
-3 1 -10 -1.2 1.19
-3 -1 -10 -0.11 1.14
-3 -1 -10 0.54 0.79
-3 -1 -10 0.02 0.81
3 -1 10 0.09 0.58
3 -1 10 -0.37 0.68
-2 1 -11 4 0.88
-2 1 -11 4.92 1.37
2 1 11 2.47 0.9
-2 1 -11 1.87 0.74
-2 -1 -11 4.36 0.95
-2 -1 -11 4.97 1.29
2 -1 11 2.26 0.83
-2 -1 -11 2.99 0.84
2 -1 11 3 0.65
-1 1 -12 2.12 1.06
-1 1 -12 2.83 1.01
1 1 12 1.78 0.71
-1 1 -12 2.27 0.68
-1 -1 -12 3.27 0.94
1 -1 12 3.52 0.86
-1 -1 -12 0.35 1.07
1 -1 12 1.98 0.77
0 1 -13 15.63 1.56
0 1 -13 15.68 1.47
0 1 13 12.74 1.36
0 1 -13 16.8 1.85
0 -1 -13 13.06 1.62
0 -1 13 11.31 1.25
0 -1 13 15.04 1.26
0 -1 -13 14.06 1.5
1 1 -14 9.8 1.52
1 1 -14 7.27 1.24
1 1 -14 9.8 1.16
-1 1 14 5.95 1.22
1 -1 -14 8.28 1.18
1 -1 -14 7.78 1.25
2 1 -15 0.27 0.89
2 1 -15 0.19 1.06
2 1 -15 -2.23 1.22
2 -1 -15 -0.53 1.09
2 -1 -15 0.25 0.95
3 1 -16 12.12 1.71
3 -1 -16 13.43 1.66
-6 2 -7 1.84 0.88
-6 2 -7 3.06 1.12
6 2 7 2.9 1.09
-6 -2 -7 3.17 1.31
-5 2 -8 13.7 1.6
5 2 8 12.58 1.17
5 2 8 12.4 1.35
-5 2 -8 12.18 1.46
5 -2 8 12.14 1.39
4 2 9 2.4 0.95
-4 2 -9 3.17 0.87
-4 2 -9 4.44 1.1
4 2 9 4.1 0.87
4 -2 9 2.66 0.91
-3 2 -10 4.69 1.04
3 2 10 3.26 0.83
3 2 10 2.9 0.84
3 -2 10 2.65 0.88
-3 -2 -10 2.69 0.88
-3 -2 -10 1.27 1.17
-3 -2 -10 2.83 0.71
2 2 11 9.5 1.03
-2 2 -11 7.7 1.29
2 -2 11 7.61 0.94
2 -2 11 9.16 0.97
-2 -2 -11 9.81 1.56
-2 -2 -11 8.73 1.12
-1 2 -12 7.17 1.23
1 2 12 6.88 0.98
-1 -2 -12 7.23 1.35
1 -2 12 8.41 0.94
1 -2 12 6.58 0.89
-1 -2 -12 7.16 1.14
0 2 -13 20.58 1.6
0 2 -13 17.12 1.62
0 2 -13 17.96 1.91
0 2 13 16.6 1.63
0 -2 -13 17.59 1.72
0 -2 -13 18.44 1.93
0 -2 13 19.98 1.48
1 2 -14 1.56 1.02
-1 2 14 2.78 1.09
1 2 -14 2.95 1.04
1 -2 -14 3.12 1.12
1 -2 -14 3.87 0.95
2 2 -15 15.09 1.7
2 2 -15 15.92 1.73
2 -2 -15 16.37 1.84
2 -2 -15 17 1.81
3 2 -16 -0.69 1.15
3 2 -16 0.51 1.09
3 -2 -16 -0.05 0.91
-5 3 -8 2.21 1.08
-5 3 -8 2.24 0.84
5 -3 8 2.84 0.98
-5 -3 -8 4.01 1.15
4 3 9 22.2 1.77
-4 3 -9 24.32 2.04
-4 3 -9 25.21 2.04
-4 -3 -9 25.03 2.33
4 -3 9 23.69 1.77
3 3 10 13 1.29
-3 3 -10 11.88 1.44
-3 -3 -10 10.17 1.22
3 -3 10 10.39 1.2
-3 -3 -10 8.84 1.52
-2 3 -11 7.53 1.08
2 3 11 6.18 1.08
-2 -3 -11 5.06 0.83
2 -3 11 5.26 0.94
-2 -3 -11 4.53 1.09
-1 3 -12 41.2 2.72
-1 3 -12 40.51 2.62
1 3 12 33.38 2.45
-1 -3 -12 37.25 2.95
1 -3 12 40.24 2.29
-1 -3 -12 36.87 2.48
0 3 -13 0.88 1.03
0 3 13 -0.06 0.91
0 3 -13 0.5 0.63
0 -3 -13 0.97 0.72
0 -3 -13 1.2 1.06
1 3 -14 19.05 1.7
-1 3 14 15.02 1.58
1 3 -14 15.56 1.81
1 -3 -14 18.83 1.98
1 -3 -14 17.6 1.86
2 3 -15 6.87 1.27
2 3 -15 4.36 1.31
2 -3 -15 4.72 1.27
2 -3 -15 5.53 1.31
4 4 9 4.2 1
-4 4 -9 4.08 1.15
-4 4 -9 4.88 1.19
4 -4 9 4.72 0.99
-4 -4 -9 2.82 1.4
3 4 10 14.14 1.44
-3 4 -10 16.32 1.66
3 -4 10 15.77 1.42
-3 -4 -10 15.62 1.81
-2 4 -11 6.8 1.09
2 4 11 4.99 1.04
-2 -4 -11 6.01 1.01
-2 -4 -11 6.8 1.3
2 -4 11 5.86 0.97
1 4 12 14.01 1.39
-1 4 -12 12.31 1.66
-1 -4 -12 13.62 1.75
-1 -4 -12 11.99 1.39
1 -4 12 11.1 1.27
0 4 -13 4.03 1.04
0 4 13 4.5 1.13
0 4 -13 4.39 1.07
0 -4 -13 2.06 1.32
0 -4 -13 4.7 1.24
1 4 -14 -1.23 1.18
-1 4 14 0.93 0.96
1 4 -14 0.58 0.67
1 -4 -14 -0.62 0.86
1 -4 -14 0.02 1.17
2 4 -15 19.25 1.68
2 4 -15 17.46 2.04
-2 4 15 13.61 1.76
2 -4 -15 19.09 2
2 -4 -15 13.78 1.95
3 5 10 0.68 0.67
-3 5 -10 0.39 0.92
-3 -5 -10 0.89 1.27
3 -5 10 0.78 0.78
2 5 11 7.81 1.14
-2 5 -11 6.27 1.37
-2 -5 -11 5 1.31
2 -5 11 5.15 0.8
-1 5 -12 16.08 1.69
1 5 12 16.08 1.61
1 -5 12 14.59 1.15
-1 -5 -12 15.35 2.08
0 5 -13 28.57 2.45
0 5 13 25.01 2.01
0 -5 -13 33.65 2.77
0 -5 -13 25.88 2.26
0 -5 13 27.88 1.63
-5 0 -9 0.98 1.37
-5 0 -9 0.4 1.05
5 0 9 -0.61 0.69
-4 0 -10 60.31 4.15
4 0 10 61.67 3.37
4 0 10 65.9 3.55
-4 0 -10 62.33 3.52
-3 0 -11 0.29 1.02
-3 0 -11 0.18 0.88
3 0 11 -0.08 0.85
3 0 11 0.12 0.74
2 0 12 34.72 2.25
-2 0 -12 31.76 2.71
2 0 12 28.14 2.04
-2 0 -12 35.69 2.33
-2 0 -12 35.14 2.31
1 0 13 0.2 0.79
-1 0 -13 0.1 0.89
1 0 13 0.1 0.76
-1 0 -13 -0.86 1.24
-1 0 -13 -0.92 0.96
0 0 14 1.22 0.84
0 0 -14 2.86 1.3
0 0 -14 -0.26 1.01
1 0 -15 0.12 1.09
1 0 -15 -1.41 1.22
-1 0 15 -0.61 1.06
2 0 -16 4.59 1.4
2 0 -16 4.04 1.32
5 1 9 -0.96 0.76
-5 -1 -9 -2.46 1.34
-4 1 -10 -1.52 1.36
-4 1 -10 2.23 0.88
4 1 10 2.05 0.7
4 -1 10 0.52 0.77
-4 -1 -10 -0.89 1.01
-4 -1 -10 0.48 1.33
3 1 11 14.61 1.5
-3 1 -11 14.41 1.65
-3 1 -11 13.36 1.97
3 1 11 14.28 1.33
3 -1 11 15.98 1.51
3 -1 11 12.21 1.14
-3 -1 -11 13.85 1.38
-3 -1 -11 15.07 1.46
-3 -1 -11 16.07 1.99
-2 1 -12 3.82 1.2
2 1 12 1.74 0.88
-2 1 -12 4.58 1.1
-2 1 -12 2.85 1
-2 -1 -12 4.05 0.85
2 -1 12 3.7 0.9
-2 -1 -12 6.13 1.55
2 -1 12 3.53 0.88
1 1 13 48.11 3.1
-1 1 -13 51.55 3.24
-1 1 -13 58.19 3.31
-1 1 -13 51.62 3.84
1 -1 13 57.5 3.01
-1 -1 -13 53.3 3.25
-1 -1 -13 54.38 3.71
1 -1 13 46.27 3
0 1 -14 13.36 1.47
0 1 -14 13.21 1.9
0 1 14 11.23 1.43
0 1 -14 12.11 1.34
0 -1 -14 10.87 1.51
0 -1 14 11.68 1.29
0 -1 14 9.58 1.31
0 -1 -14 13.98 1.79
1 1 -15 12.71 1.55
1 1 -15 11.71 1.81
1 1 -15 11.34 1.55
1 -1 -15 10.98 1.61
1 -1 -15 13.98 1.77
2 1 -16 20.74 2.1
2 1 -16 24.04 2.38
2 -1 -16 23.15 2.17
2 -1 -16 20.75 2.19
-4 2 -10 -0.93 1.15
4 2 10 -1.48 1.11
4 2 10 2.13 0.86
4 -2 10 0.35 0.65
-4 -2 -10 -0.83 0.99
3 2 11 1.56 0.84
-3 2 -11 4.22 1.19
-3 -2 -11 -0.59 1.28
3 -2 11 1.92 0.68
-3 -2 -11 1.9 0.93
-2 2 -12 -1.38 1.01
2 2 12 0.18 0.84
-2 -2 -12 1.73 0.91
-2 -2 -12 -0.47 1.13
2 -2 12 -1.3 0.83
-1 2 -13 7.58 1.15
-1 2 -13 8.57 1.41
1 2 13 5.92 1.17
1 -2 13 6.04 0.96
1 -2 13 6.03 1.04
-1 -2 -13 5.77 1.17
-1 -2 -13 5.17 1.31
0 2 14 23.82 2.02
0 2 -14 28.78 2.32
0 2 -14 27.36 2.16
0 -2 -14 28.13 2.25
0 -2 -14 26.34 2.41
1 2 -15 3.07 0.96
-1 2 15 3.58 1.32
1 -2 -15 5.6 1.42
1 -2 -15 4.46 1.35
-3 3 -11 0.65 1.13
3 3 11 1.64 0.91
-3 -3 -11 1.12 1.27
-3 -3 -11 1.3 0.7
2 3 12 -0.52 0.93
-2 3 -12 -0.34 0.82
-2 -3 -12 -0.89 0.86
2 -3 12 1.18 0.81
-2 -3 -12 -0.46 1.29
-1 3 -13 7.56 1.12
1 3 13 5.72 1.06
-1 3 -13 7.35 1.43
-1 -3 -13 7.23 1.55
1 -3 13 6.05 1.08
-1 -3 -13 6.58 1.21
0 3 14 2.81 1.16
0 3 -14 -0.33 0.84
0 -3 -14 0.65 0.82
0 -3 -14 1.58 1.28
-2 0 -13 -0.26 1.1
-2 0 -13 0.14 0.98
2 0 13 0.86 0.9
2 0 13 -1.1 1
-2 0 -13 0.47 1.06
-1 0 -14 10.49 1.85
1 0 14 6.7 1.24
-1 0 -14 10.09 1.27
loop_
_geom_angle_atom_site_label_1
_geom_angle_atom_site_label_2
_geom_angle_atom_site_label_3
_geom_angle
_geom_angle_site_symmetry_1
_geom_angle_site_symmetry_3
_geom_angle_publ_flag
H4A C4 H4B 109.5 . . ?
H4A C4 H4C 109.5 . . ?
H4B C4 H4C 109.5 . . ?
C3 C4 H4A 109.5 . . ?
C3 C4 H4B 109.5 . . ?
C3 C4 H4C 109.5 . . ?
C4 C3 H3 108.9 . . ?
N1 C3 C4 109.4(3) . . ?
N1 C3 H3 108.9 . . ?
N1 C3 C2 109.0(3) . 3_645 ?
C2 C3 C4 111.7(3) 3_645 . ?
C2 C3 H3 108.9 3_645 . ?
Br1 Ag1 Ag1 122.78(3) 2_544 3_535 ?
Br1 Ag1 Ag1 136.49(2) . 3_535 ?
Br1 Ag1 Br1 100.37(2) . 2_544 ?
Br1 Ag1 Br2 111.40(2) . . ?
Br1 Ag1 Br2 118.35(2) . 3_535 ?
Br1 Ag1 Br2 107.22(3) 2_544 . ?
Br2 Ag1 Ag1 53.91(2) . 3_535 ?
Br2 Ag1 Ag1 55.44(2) 3_535 3_535 ?
Br2 Ag1 Br1 109.29(3) 3_535 2_544 ?
Br2 Ag1 Br2 109.35(3) 3_535 . ?
Ag1 Br1 Ag1 161.928(19) . 2_554 ?
Ag1 Br2 Ag1 70.65(3) 3_535 . ?
C3 N1 H1A 109.0 . . ?
C3 N1 H1B 109.0 . . ?
H1A N1 H1B 107.8 . . ?
C2 N1 C3 112.8(3) . . ?
C2 N1 H1A 109.0 . . ?
C2 N1 H1B 109.0 . . ?
C3 C2 H2A 109.4 3_645 . ?
C3 C2 H2B 109.4 3_645 . ?
N1 C2 C3 111.4(3) . 3_645 ?
N1 C2 H2A 109.4 . . ?
N1 C2 H2B 109.4 . . ?
H2A C2 H2B 108.0 . . ?
loop_
_geom_bond_atom_site_label_1
_geom_bond_atom_site_label_2
_geom_bond_distance
_geom_bond_site_symmetry_2
_geom_bond_publ_flag
C4 H4A 0.9600 . ?
C4 H4B 0.9600 . ?
C4 H4C 0.9600 . ?
C4 C3 1.515(5) . ?
C3 H3 0.9800 . ?
C3 N1 1.506(5) . ?
C3 C2 1.510(5) 3_645 ?
Ag1 Ag1 3.1106(12) 3_535 ?
Ag1 Br1 2.6636(7) . ?
Ag1 Br1 2.7109(8) 2_544 ?
Ag1 Br2 2.7149(8) . ?
Ag1 Br2 2.6643(11) 3_535 ?
Br1 Ag1 2.7108(8) 2_554 ?
Br2 Ag1 2.6643(11) 3_535 ?
N1 H1A 0.8900 . ?
N1 H1B 0.8900 . ?
N1 C2 1.491(5) . ?
C2 C3 1.510(5) 3_645 ?
C2 H2A 0.9700 . ?
C2 H2B 0.9700 . ?
loop_
_geom_torsion_atom_site_label_1
_geom_torsion_atom_site_label_2
_geom_torsion_atom_site_label_3
_geom_torsion_atom_site_label_4
_geom_torsion
_geom_torsion_site_symmetry_1
_geom_torsion_site_symmetry_2
_geom_torsion_site_symmetry_3
_geom_torsion_site_symmetry_4
_geom_torsion_publ_flag
C4 C3 N1 C2 -178.1(3) . . . . ?
C3 N1 C2 C3 57.1(4) . . . 3_645 ?
C2 C3 N1 C2 -55.7(4) 3_645 . . . ?
