#------------------------------------------------------------------------------
#$Date: 2022-06-29 01:53:26 +0300 (Wed, 29 Jun 2022) $
#$Revision: 276372 $
#$URL: file:///home/coder/svn-repositories/cod/cif/7/71/06/7710623.cif $
#------------------------------------------------------------------------------
#
# This file is available in the Crystallography Open Database (COD),
# http://www.crystallography.net/
#
# All data on this site have been placed in the public domain by the
# contributors.
#
data_7710623
loop_
_publ_author_name
'Gross, Peter'
'Zhang, Yue'
'Bayarjargal, Lkhamsuren'
'Winkler, Bjoern'
'H\"oppe, Henning A.'
_publ_section_title
;
 New Alkaline-Earth Amidosulfates and their Unexpected Decomposition to
 S4N4
;
_journal_name_full               'Dalton Transactions'
_journal_paper_doi               10.1039/D2DT01380K
_journal_year                    2022
_chemical_formula_sum            'H12 Mg N2 O10 S2'
_chemical_formula_weight         288.55
_space_group_crystal_system      monoclinic
_space_group_IT_number           14
_space_group_name_Hall           '-P 2ybc'
_space_group_name_H-M_alt        'P 1 21/c 1'
_atom_sites_solution_hydrogens   difmap
_audit_creation_method           SHELXL-2018/3
_audit_update_record
;
2021-10-27 deposited with the CCDC.	2022-06-06 downloaded from the CCDC.
;
_cell_angle_alpha                90
_cell_angle_beta                 91.574(2)
_cell_angle_gamma                90
_cell_formula_units_Z            2
_cell_length_a                   6.1147(3)
_cell_length_b                   5.2369(3)
_cell_length_c                   15.3002(8)
_cell_measurement_reflns_used    13322
_cell_measurement_temperature    288(2)
_cell_measurement_theta_max      32.484
_cell_measurement_theta_min      2.663
_cell_volume                     489.76(4)
_computing_structure_refinement  'SHELXL-2018/3 (Sheldrick, 2018)'
_diffrn_ambient_temperature      288(2)
_diffrn_measured_fraction_theta_full 1.000
_diffrn_measured_fraction_theta_max 0.999
_diffrn_measurement_device_type  'D8 Venture Bruker'
_diffrn_measurement_method       'generic phi and omega scans'
_diffrn_radiation_type           MoK\a
_diffrn_radiation_wavelength     0.71073
_diffrn_reflns_av_R_equivalents  0.0488
_diffrn_reflns_av_unetI/netI     0.0331
_diffrn_reflns_Laue_measured_fraction_full 1.000
_diffrn_reflns_Laue_measured_fraction_max 0.999
_diffrn_reflns_limit_h_max       9
_diffrn_reflns_limit_h_min       -9
_diffrn_reflns_limit_k_max       7
_diffrn_reflns_limit_k_min       -7
_diffrn_reflns_limit_l_max       23
_diffrn_reflns_limit_l_min       -23
_diffrn_reflns_number            13322
_diffrn_reflns_point_group_measured_fraction_full 1.000
_diffrn_reflns_point_group_measured_fraction_max 0.999
_diffrn_reflns_theta_full        25.242
_diffrn_reflns_theta_max         32.484
_diffrn_reflns_theta_min         2.663
_exptl_absorpt_coefficient_mu    0.654
_exptl_crystal_colour            colourless
_exptl_crystal_density_diffrn    1.957
_exptl_crystal_description       block
_exptl_crystal_F_000             300
_exptl_crystal_size_max          0.10
_exptl_crystal_size_mid          0.02
_exptl_crystal_size_min          0.02
_exptl_transmission_factor_max   0.7464
_exptl_transmission_factor_min   0.6377
_refine_diff_density_max         0.408
_refine_diff_density_min         -0.483
_refine_diff_density_rms         0.084
_refine_ls_extinction_coef       0.012(4)
_refine_ls_extinction_expression Fc^*^=kFc[1+0.001xFc^2^\l^3^/sin(2\q)]^-1/4^
_refine_ls_extinction_method     'SHELXL-2018/3 (Sheldrick 2018)'
_refine_ls_goodness_of_fit_ref   1.065
_refine_ls_hydrogen_treatment    refxyz
_refine_ls_matrix_type           full
_refine_ls_number_parameters     89
_refine_ls_number_reflns         1758
_refine_ls_number_restraints     6
_refine_ls_restrained_S_all      1.086
_refine_ls_R_factor_all          0.0476
_refine_ls_R_factor_gt           0.0338
_refine_ls_shift/su_max          0.000
_refine_ls_shift/su_mean         0.000
_refine_ls_structure_factor_coef Fsqd
_refine_ls_weighting_details
'w=1/[\s^2^(Fo^2^)+(0.0446P)^2^+0.1754P] where P=(Fo^2^+2Fc^2^)/3'
_refine_ls_weighting_scheme      calc
_refine_ls_wR_factor_gt          0.0858
_refine_ls_wR_factor_ref         0.0892
_reflns_Friedel_coverage         0.000
_reflns_number_gt                1398
_reflns_number_total             1758
_reflns_threshold_expression     'I > 2\s(I)'
_cod_data_source_file            d2dt01380k2.cif
_cod_data_source_block           mo_PG_16_820_0m
_cod_original_sg_symbol_H-M      'P 21/c'
_cod_database_code               7710623
_shelx_shelxl_version_number     2018/3
_shelx_space_group_comment
;
The symmetry employed for this shelxl refinement is uniquely defined
by the following loop, which should always be used as a source of
symmetry information in preference to the above space-group names.
They are only intended as comments.
;
_shelx_res_file
;
TITL mo_PG_16_820_0m in P2(1)/c
    mo_PG_16_820_0m.res
    created by SHELXL-2018/3 at 10:05:59 on 06-May-2020
CELL 0.71073   6.1147   5.2369  15.3002  90.000  91.574  90.000
ZERR    2.00   0.0003   0.0003   0.0008   0.000   0.002   0.000
LATT  1
SYMM -X, 0.5+Y, 0.5-Z
SFAC N H O MG S
UNIT 4 24 20 2 4
LIST 6 ! automatically inserted. Change 6 to 4 for CHECKCIF!!
TEMP 14.530

L.S. 10
BOND
FMAP 2
PLAN 20
htab
acta
omit 0 70

dfix 0.99 0.05 OW1 HW11 OW2 HW21 OW1 HW12 OW2 HW22
dfix 0.99 0.01 N1 HN11 N1 HN12

WGHT    0.044600    0.175400
EXTI    0.011941
FVAR       0.28756
MOLE   1
S1    5    0.256333    0.272587    0.327101    11.00000    0.01828    0.01737 =
         0.01083   -0.00049    0.00199    0.00051
MG2   4    0.000000    0.500000    0.500000    10.50000    0.01730    0.01466 =
         0.01188   -0.00130    0.00198    0.00037
N1    1    0.270197   -0.040950    0.320216    11.00000    0.03253    0.01817 =
         0.02709   -0.00055    0.00977    0.00295
HN11  2    0.391469   -0.077652    0.282466    11.00000   -1.20000
HN12  2    0.141827   -0.103087    0.289811    11.00000   -1.20000
OW1   3   -0.191463    0.759423    0.433717    11.00000    0.03697    0.01858 =
         0.01588   -0.00071   -0.00481    0.00529
HW11  2   -0.197980    0.909655    0.449937    11.00000   -1.50000
HW12  2   -0.211041    0.763756    0.382302    11.00000   -1.50000
OW2   3    0.264786    0.751235    0.495871    11.00000    0.02341    0.02126 =
         0.02353   -0.00146    0.00235   -0.00308
HW21  2    0.360601    0.712481    0.521228    11.00000   -1.50000
HW22  2    0.292484    0.784298    0.444346    11.00000   -1.50000
O1    3    0.076530    0.319369    0.385166    11.00000    0.02357    0.02961 =
         0.01931   -0.00915    0.00725    0.00079
O2    3    0.211560    0.379675    0.241222    11.00000    0.05383    0.02813 =
         0.01210    0.00370    0.00058    0.00385
O3    3    0.466038    0.353138    0.362267    11.00000    0.02136    0.03970 =
         0.04031   -0.00337   -0.00340   -0.00582
MOLE   2
HKLF 4




REM  mo_PG_16_820_0m in P2(1)/c
REM wR2 = 0.0892, GooF = S = 1.065, Restrained GooF = 1.086 for all data
REM R1 = 0.0338 for 1398 Fo > 4sig(Fo) and 0.0476 for all 1758 data
REM 89 parameters refined using 6 restraints

END

WGHT      0.0444      0.1781

REM Instructions for potential hydrogen bonds
EQIV $2 -x+1, y-1/2, -z+1/2
HTAB N1 S1_$2
HTAB N1 O2_$2
HTAB N1 O3_$2
EQIV $3 -x, y-1/2, -z+1/2
HTAB N1 O2_$3
EQIV $4 -x, -y+2, -z+1
HTAB OW1 OW2_$4
EQIV $5 -x, y+1/2, -z+1/2
HTAB OW1 O2_$5
EQIV $6 -x+1, -y+1, -z+1
HTAB OW2 O3_$6
EQIV $7 x, y+1, z
HTAB OW2 N1_$7

REM Highest difference peak  0.408,  deepest hole -0.483,  1-sigma level  0.084
Q1    1   0.3754  0.3500  0.3392  11.00000  0.05    0.41
Q2    1   0.4677  0.2564  0.3885  11.00000  0.05    0.37
Q3    1   0.3699  0.2684  0.3588  11.00000  0.05    0.36
Q4    1   0.5041  0.2538  0.3732  11.00000  0.05    0.35
Q5    1   0.3561 -0.0658  0.3539  11.00000  0.05    0.30
Q6    1   0.3427 -0.0008  0.3469  11.00000  0.05    0.30
Q7    1   0.1473 -0.0253  0.3129  11.00000  0.05    0.30
Q8    1   0.1175  0.3129  0.3439  11.00000  0.05    0.27
Q9    1   0.5605  0.3510  0.3636  11.00000  0.05    0.27
Q10   1  -0.0791  0.6998  0.4468  11.00000  0.05    0.27
Q11   1   0.1250  0.4449  0.2606  11.00000  0.05    0.25
Q12   1  -0.1423  0.6213  0.4442  11.00000  0.05    0.25
Q13   1   0.1975  0.3764  0.2836  11.00000  0.05    0.25
Q14   1   0.1261  0.3117  0.2317  11.00000  0.05    0.25
Q15   1   0.1786  0.3020  0.2777  11.00000  0.05    0.24
Q16   1   0.5488  0.4037  0.3783  11.00000  0.05    0.24
Q17   1   0.2519  0.3658  0.2799  11.00000  0.05    0.23
Q18   1   0.1575  0.6879  0.5086  11.00000  0.05    0.22
Q19   1   0.0653  0.1375  0.4549  11.00000  0.05    0.22
Q20   1   0.2605  0.1104  0.3036  11.00000  0.05    0.21
;
_shelx_res_checksum              41041
_shelx_hkl_file
;
  -1   0   0   53.10    2.34
  -1   0   0   54.73    2.34
   1   0   0   52.75    2.35
   1   0   0   51.19    2.36
   1   0   0   53.18    2.34
  -1   0   0   54.04    2.36
  -1   0   0   51.50    2.35
  -2   0   0  454.34   19.56
   2   0   0  466.79   19.57
  -2   0   0  438.95   19.56
  -2   0   0  435.54   19.56
   2   0   0  457.66   19.56
   2   0   0  419.07   19.57
  -2   0   0  460.64   19.58
   3   0   0    5.29    0.54
  -3   0   0    5.50    0.48
  -3   0   0    6.84    0.43
  -3   0   0    5.83    0.48
   3   0   0    6.52    0.45
   3   0   0    5.77    0.42
  -3   0   0    7.54    0.48
   4   0   0  403.14   16.88
  -4   0   0  377.70   16.89
  -4   0   0  398.57   16.96
   4   0   0  357.74   16.93
  -4   0   0  384.81   16.88
  -5   0   0    0.04    0.40
   5   0   0   -0.35    0.54
  -5   0   0    0.65    0.52
  -6   0   0   38.53    2.09
  -6   0   0   37.67    2.17
   6   0   0   39.41    2.31
  -6   0   0   40.98    1.89
   6   0   0   35.37    2.06
  -7   0   0    3.37    0.56
  -7   0   0    3.59    0.90
  -7   0   0    3.55    0.80
   7   0   0    4.82    0.94
  -8   0   0   12.43    1.38
  -8   0   0   18.46    1.80
   8   0   0   18.25    1.87
  -9   0   0    0.27    1.32
   9   0   0    1.24    1.37
   0  -1   0   -0.06    0.10
   0  -1   0   -0.01    0.06
   0  -1   0   -0.04    0.10
   0  -1   0   -0.14    0.11
   0   1   0   -0.10    0.10
   0   1   0   -0.02    0.07
   0   1   0    0.10    0.11
  -1  -1   0  479.92   18.93
   1  -1   0  436.18   18.80
  -1  -1   0  443.02   18.80
   1  -1   0  417.07   18.79
   1  -1   0  395.57   18.77
   1  -1   0  448.62   18.82
  -1   1   0  470.03   18.87
  -1   1   0  413.68   18.80
   1   1   0  422.22   18.77
   1   1   0  407.26   18.77
  -1   1   0  406.86   18.76
  -1   1   0  399.76   18.77
  -1   1   0  421.25   18.78
   1   1   0  461.04   18.82
  -2  -1   0  104.43    5.00
   2  -1   0  116.17    5.01
  -2  -1   0  109.04    5.01
  -2  -1   0  118.24    5.03
   2  -1   0  119.27    5.02
   2  -1   0  107.73    4.99
   2  -1   0  110.18    5.00
  -2   1   0  111.95    5.01
  -2   1   0  116.95    4.99
  -2   1   0  113.96    4.98
   2   1   0  113.64    4.99
  -2   1   0  112.33    5.01
   2   1   0  113.84    5.00
   2   1   0  111.64    5.04
  -2   1   0  110.89    5.02
   3  -1   0    6.40    0.48
   3  -1   0    8.03    0.50
  -3  -1   0    7.14    0.52
   3  -1   0    6.17    0.54
  -3  -1   0    6.93    0.52
   3  -1   0    7.31    0.50
   3   1   0    6.41    0.55
  -3   1   0    8.11    0.49
  -3   1   0    6.12    0.47
   3   1   0    7.76    0.51
   3   1   0    7.97    0.53
  -3   1   0    6.23    0.50
  -3   1   0    7.87    0.50
  -3   1   0    7.24    0.51
  -4  -1   0   14.74    0.99
  -4  -1   0   14.84    0.97
   4  -1   0   16.29    0.97
   4  -1   0   18.23    0.95
   4  -1   0   18.02    1.05
  -4   1   0   17.88    0.94
  -4   1   0   18.67    1.01
  -4   1   0   19.85    1.06
   4   1   0   18.96    0.94
   5  -1   0   55.75    2.71
   5  -1   0   51.92    2.70
  -5  -1   0   50.03    2.64
  -5  -1   0   51.70    2.62
  -5   1   0   52.29    2.63
   5   1   0   54.55    2.50
  -6  -1   0    0.29    0.64
   6  -1   0    0.39    0.79
  -6  -1   0    0.68    0.63
  -6   1   0    0.70    0.60
   6   1   0    0.42    0.61
  -6   1   0   -0.20    0.62
   6   1   0    0.76    0.71
  -7  -1   0    2.75    0.81
   7  -1   0    3.39    0.83
  -7  -1   0    3.27    0.85
   7  -1   0    3.03    1.08
  -7   1   0    3.92    0.89
   7   1   0    2.90    0.85
  -7   1   0    3.44    0.87
   8  -1   0    1.91    1.07
  -8  -1   0    1.34    0.94
  -8  -1   0    0.34    0.96
  -8   1   0    1.83    0.97
  -8   1   0    1.54    1.15
   8   1   0    2.59    1.04
  -8   1   0    2.04    1.00
   9  -1   0    1.53    1.36
  -9  -1   0    4.12    1.40
   9   1   0    2.35    1.48
  -9   1   0    1.95    1.38
  -9   1   0    3.23    1.41
   0  -2   0  409.82   18.67
   0  -2   0  430.41   18.69
   0  -2   0  414.80   18.67
   0   2   0  432.92   18.67
   0   2   0  432.22   18.67
   0   2   0  459.37   18.67
   0   2   0  408.10   18.70
  -1  -2   0    2.19    0.26
  -1  -2   0    2.37    0.26
   1  -2   0    3.48    0.30
   1  -2   0    2.25    0.25
   1  -2   0    2.61    0.31
   1  -2   0    2.26    0.22
   1   2   0    2.24    0.25
   1   2   0    2.53    0.32
  -1   2   0    2.33    0.33
   1   2   0    2.29    0.23
  -1   2   0    2.96    0.27
   2  -2   0  251.66   11.34
  -2  -2   0  280.90   11.40
  -2  -2   0  241.72   11.35
   2  -2   0  252.09   11.31
   2  -2   0  272.21   11.39
   2  -2   0  244.54   11.37
   2   2   0  269.87   11.35
   2   2   0  251.51   11.35
   2   2   0  259.88   11.29
  -2   2   0  257.71   11.37
   2   2   0  267.25   11.36
   2   2   0  247.52   11.33
  -2   2   0  249.89   11.36
  -2   2   0  261.35   11.33
  -2   2   0  254.85   11.40
  -2   2   0  263.98   11.31
   3  -2   0   37.94    1.84
   3  -2   0   38.34    1.85
  -3  -2   0   38.30    1.87
   3  -2   0   40.49    1.93
  -3  -2   0   40.92    2.01
  -3  -2   0   37.16    1.86
   3   2   0   40.65    1.89
  -3   2   0   39.99    1.89
  -3   2   0   36.58    1.95
  -3   2   0   38.57    1.81
  -3   2   0   38.13    1.86
  -3   2   0   39.18    1.87
  -4  -2   0   28.64    1.57
  -4  -2   0   25.51    1.66
   4  -2   0   29.57    1.41
   4  -2   0   29.20    1.44
  -4   2   0   31.50    1.46
  -4   2   0   28.92    1.58
   4   2   0   27.21    1.61
  -4   2   0   29.13    1.57
  -4   2   0   25.03    1.56
   5  -2   0   10.55    1.07
  -5  -2   0   13.26    1.19
   5  -2   0   10.61    1.18
  -5  -2   0   12.12    1.10
  -5   2   0   11.58    1.08
  -5   2   0   12.83    1.18
   5   2   0   10.65    1.13
  -6  -2   0   53.21    2.84
   6  -2   0   52.04    2.90
  -6  -2   0   50.87    2.79
  -6   2   0   52.90    2.79
   6   2   0   52.46    2.87
  -6   2   0   55.79    2.89
   6   2   0   55.28    2.65
   7  -2   0    1.52    1.14
   7  -2   0    0.92    0.83
  -7  -2   0    2.66    0.95
  -7  -2   0    0.65    0.85
  -7   2   0    1.49    0.77
  -7   2   0    3.03    0.93
   7   2   0    0.85    0.82
  -8  -2   0    1.91    1.11
   8  -2   0    1.65    1.09
  -8  -2   0    3.84    1.16
   8   2   0    2.43    1.13
  -8   2   0    2.05    1.10
  -8   2   0    2.41    1.14
   8   2   0    2.53    1.19
   0  -3   0    0.35    0.18
   0  -3   0   -0.13    0.27
   0  -3   0    0.20    0.23
   0   3   0   -0.18    0.12
   0   3   0    0.64    0.20
   0   3   0    0.85    0.24
   0   3   0    0.15    0.17
   1  -3   0   62.75    2.76
   1  -3   0   61.83    2.90
  -1  -3   0   58.43    2.79
   1  -3   0   61.54    2.83
  -1  -3   0   60.62    2.83
   1  -3   0   60.81    2.82
   1   3   0   60.40    2.84
   1   3   0   65.42    2.81
  -1   3   0   58.93    2.83
  -1   3   0   55.97    2.86
  -1   3   0   65.33    2.82
   1   3   0   60.29    2.83
   1   3   0   60.89    2.76
  -2  -3   0    5.16    0.41
  -2  -3   0    5.73    0.60
   2  -3   0    6.01    0.47
  -2  -3   0    4.91    0.56
   2  -3   0    6.60    0.46
   2  -3   0    6.59    0.50
  -2   3   0    5.17    0.46
  -2   3   0    5.11    0.59
   2   3   0    6.16    0.44
   2   3   0    5.85    0.47
  -2   3   0    6.38    0.70
   2   3   0    6.14    0.48
   2   3   0    6.18    0.54
  -3  -3   0   27.85    1.61
   3  -3   0   29.18    1.46
  -3  -3   0   31.28    1.46
   3  -3   0   30.43    1.47
   3  -3   0   27.88    1.63
   3   3   0   30.02    1.48
   3   3   0   29.15    1.45
   3   3   0   30.06    1.40
  -3   3   0   28.98    1.60
  -3   3   0   28.00    1.67
  -4  -3   0    0.28    0.59
   4  -3   0    0.31    0.51
   4  -3   0    1.17    0.27
   4   3   0   -0.26    0.29
   4   3   0    0.32    0.54
  -4   3   0    0.41    0.49
  -4   3   0   -0.06    0.56
   5  -3   0   11.99    1.23
   5  -3   0   10.72    1.05
  -5   3   0   13.58    1.32
  -5   3   0   10.92    1.16
   5   3   0   12.43    0.76
   5   3   0   11.16    1.26
   6  -3   0    0.78    0.75
  -6  -3   0    1.30    0.73
   6  -3   0    0.32    0.91
   6  -3   0   -0.35    0.81
  -6   3   0    0.56    0.96
   6   3   0    0.56    0.76
  -6   3   0   -0.53    0.62
   6   3   0    1.33    0.42
   7  -3   0    7.34    1.14
   7  -3   0    8.49    1.47
  -7  -3   0    5.48    1.03
  -7   3   0    7.13    1.10
   7   3   0    8.81    1.24
  -7   3   0    8.08    1.46
   8  -3   0    1.12    1.25
  -8  -3   0    1.96    1.20
   8   3   0    0.85    1.14
  -8   3   0    0.91    1.20
  -8   3   0    0.31    1.12
   0  -4   0  131.64    5.93
   0   4   0  123.63    6.02
   0   4   0  140.43    6.04
  -1  -4   0   17.00    1.14
  -1  -4   0   19.05    0.94
   1  -4   0   17.84    1.19
   1  -4   0   15.71    1.25
  -1   4   0   16.15    1.21
   1   4   0   18.54    0.91
   1   4   0   16.02    1.17
   1   4   0   15.44    1.11
   2  -4   0   64.86    3.11
  -2  -4   0   60.72    3.07
  -2  -4   0   59.37    3.03
   2  -4   0   62.69    3.06
   2   4   0   63.44    3.27
  -2   4   0   64.11    3.05
  -2   4   0   66.32    3.17
   2   4   0   64.34    2.93
   3  -4   0   20.12    1.50
  -3  -4   0   22.05    1.35
  -3  -4   0   20.78    1.39
   3  -4   0   21.77    1.41
   3   4   0   20.47    1.20
  -3   4   0   20.70    1.40
  -3   4   0   19.77    1.51
   3   4   0   22.44    1.39
  -4  -4   0   61.24    3.09
   4  -4   0   63.54    3.12
   4  -4   0   61.27    2.83
  -4  -4   0   63.88    3.07
   4   4   0   56.31    3.16
   4   4   0   62.14    3.12
  -4   4   0   62.74    3.25
  -4   4   0   64.05    3.12
  -5  -4   0    1.07    0.75
   5  -4   0   -0.04    0.39
  -5  -4   0    2.09    0.75
   5  -4   0    0.31    0.75
   5  -4   0    1.03    0.84
  -5   4   0    0.51    0.94
  -5   4   0    0.13    0.64
   5   4   0    0.76    0.81
   5   4   0    0.96    0.79
   6  -4   0    7.53    1.16
   6  -4   0    8.24    1.29
   6  -4   0    7.30    1.07
  -6  -4   0    7.27    1.10
  -6  -4   0    7.02    1.15
   6   4   0    5.38    1.14
   6   4   0    6.35    1.07
  -6   4   0    6.66    1.05
  -6   4   0    4.99    1.07
  -7  -4   0    7.74    1.30
   7  -4   0    8.23    1.84
   7  -4   0    7.07    1.47
  -7  -4   0    6.53    1.34
   7  -4   0    6.82    1.31
  -7   4   0    6.55    1.32
   7   4   0    5.82    1.19
  -7   4   0    6.57    1.48
   0  -5   0    0.54    0.58
   0  -5   0    0.05    0.58
   0   5   0   -0.06    0.57
  -1  -5   0    0.36    0.64
   1  -5   0    1.27    0.66
  -1  -5   0    2.23    0.71
   1  -5   0    3.03    0.75
   1   5   0    0.79    0.61
   1   5   0    1.28    0.35
  -1   5   0    1.49    0.65
  -2  -5   0    1.14    0.67
   2  -5   0    1.45    0.69
   2  -5   0    0.67    0.72
  -2  -5   0    1.01    0.67
  -2   5   0    0.47    0.60
  -2   5   0    0.60    0.68
   2   5   0    0.32    0.36
   2   5   0    0.42    0.64
  -3  -5   0    9.48    1.00
  -3  -5   0    8.97    0.96
   3  -5   0    8.55    1.02
   3  -5   0   10.63    1.13
  -3   5   0    8.79    0.96
   3   5   0    7.85    1.00
   3   5   0    8.65    0.98
  -3   5   0    9.97    1.27
  -4  -5   0    0.90    0.78
   4  -5   0    1.60    0.88
  -4  -5   0    1.92    0.80
  -4   5   0    1.64    0.80
  -4   5   0    0.76    0.76
   4   5   0    1.53    0.83
   4   5   0    1.24    0.86
  -5  -5   0    0.89    0.90
   5  -5   0    0.23    0.99
  -5  -5   0    0.90    0.86
   5   5   0   -0.66    0.89
  -5   5   0   -0.30    0.95
  -5   5   0   -0.29    0.91
   5   5   0   -0.02    1.01
   6  -5   0    1.19    1.26
  -6  -5   0    0.45    1.15
  -6  -5   0    1.48    1.07
   6   5   0    1.91    1.10
  -6   5   0    0.32    1.11
  -6   5   0    2.04    1.05
   6   5   0    2.56    1.32
  -7  -5   0    2.67    1.48
   7  -5   0    0.91    1.69
  -7  -5   0    1.84    1.31
  -7   5   0    1.49    1.55
   7   5   0    0.67    1.24
  -7   5   0    1.75    1.45
   0  -6   0   10.06    1.21
   0  -6   0   13.10    1.38
   0   6   0    8.68    1.19
  -1  -6   0    1.79    0.89
   1  -6   0    2.90    0.87
   1  -6   0    3.30    0.90
  -1   6   0    2.54    0.91
   1   6   0    2.44    0.81
   2  -6   0   61.79    3.30
  -2  -6   0   62.44    3.23
  -2  -6   0   60.63    3.26
   2  -6   0   62.39    3.27
  -2   6   0   60.25    3.37
   2   6   0   61.04    3.42
   2   6   0   59.21    2.90
  -2   6   0   61.94    3.26
  -3  -6   0    2.91    1.01
  -3  -6   0    1.78    0.91
   3  -6   0    2.42    0.99
   3  -6   0    3.19    1.00
  -3   6   0    2.88    1.05
   3   6   0    1.55    1.04
  -3   6   0    1.67    0.86
  -3   6   0    2.61    0.95
   3   6   0    0.91    0.95
  -4  -6   0    8.16    1.18
  -4  -6   0    3.44    1.12
   4  -6   0    3.70    1.17
  -4   6   0    4.32    1.22
  -4   6   0    8.03    1.23
   4   6   0    4.98    1.23
   4   6   0    5.47    1.35
  -4   6   0    5.49    1.42
  -5  -6   0   -0.24    1.04
   5  -6   0    0.98    1.32
  -5  -6   0   -0.92    1.26
  -5   6   0    0.12    1.18
   5   6   0    1.50    1.49
   5   6   0   -0.39    1.23
  -5   6   0    0.68    1.05
  -6  -6   0    6.71    1.63
   6  -6   0    5.96    1.85
  -6   6   0    5.76    1.61
  -6   6   0    9.88    1.73
   0  -7   0   -1.53    1.03
   0  -7   0    0.44    0.90
   0   7   0    0.53    1.03
  -1  -7   0   10.35    1.38
  -1  -7   0    7.40    1.35
   1  -7   0    9.47    1.35
   1  -7   0    9.68    1.46
   1   7   0   12.02    1.54
  -1   7   0   14.40    1.87
  -2  -7   0   -0.92    1.26
   2  -7   0   -0.22    1.15
   2  -7   0    0.53    1.02
   2   7   0    0.12    1.14
  -2   7   0   -0.31    1.08
  -2   7   0    0.05    1.18
   3  -7   0    6.41    1.34
  -3  -7   0    8.69    1.58
   3  -7   0    9.01    1.48
  -3  -7   0    7.91    1.38
   3   7   0    6.51    1.49
   3   7   0   12.02    2.32
  -3   7   0    8.92    1.69
  -3   7   0   10.56    1.50
  -3   7   0    6.95    1.36
   4  -7   0    0.89    1.41
  -4  -7   0    1.15    1.63
  -4  -7   0    2.13    1.40
  -4   7   0    3.20    2.09
  -4   7   0    0.35    1.61
   4   7   0    1.70    1.59
   4   7   0    0.21    1.67
  -4   7   0    2.28    1.52
  -9   0   1    0.70    1.42
   9   0  -1   -0.58    1.44
  -9   0   1   -1.09    1.36
  -8   0   1    0.50    0.86
   8   0  -1    0.84    1.00
  -8   0   1   -0.20    0.90
  -7   0   1    0.62    0.71
   7   0  -1   -0.33    0.78
  -7   0   1    1.50    0.41
  -7   0   1    4.26    0.94
  -6   0   1   -0.32    0.28
   6   0  -1    0.10    0.60
   6   0  -1   -0.17    0.61
  -6   0   1    0.09    0.57
  -6   0   1    1.44    0.65
  -5   0   1    0.31    0.39
  -5   0   1   -0.27    0.51
   5   0  -1    0.33    0.38
   5   0  -1    0.09    0.57
   4   0  -1    0.32    0.19
  -4   0   1   -0.01    0.17
  -4   0   1   -0.09    0.35
  -4   0   1   -0.14    0.46
   4   0  -1   -0.27    0.41
  -4   0   1   -0.25    0.20
   4   0  -1    0.44    0.26
  -3   0   1    0.15    0.23
  -3   0   1   -0.02    0.19
   3   0  -1    0.00    0.21
  -3   0   1   -0.07    0.14
   3   0  -1   -0.11    0.14
  -3   0   1    0.42    0.22
  -2   0   1   -0.04    0.12
   2   0  -1    0.06    0.14
  -2   0   1   -0.13    0.14
   2   0  -1    0.02    0.18
  -2   0   1    0.13    0.11
  -2   0   1    0.04    0.14
   2   0  -1   -0.03    0.11
  -1   0   1   -0.01    0.11
   1   0  -1    0.01    0.09
   1   0  -1    0.03    0.06
   1   0  -1    0.01    0.11
   1   0  -1   -0.03    0.06
  -1   0   1    0.06    0.09
   1   0  -1    0.01    0.11
  -1   0   1    0.23    0.06
  -1   0  -1    0.11    0.13
  -1   0  -1   -0.16    0.10
   1   0   1    0.18    0.15
   1   0   1    0.23    0.13
  -1   0  -1    0.05    0.10
   2   0   1    0.12    0.19
   2   0   1    0.08    0.12
  -2   0  -1    0.04    0.13
  -2   0  -1    0.02    0.17
   2   0   1    0.05    0.10
  -2   0  -1    0.09    0.12
  -2   0  -1    0.22    0.19
  -3   0  -1   -0.24    0.21
  -3   0  -1   -0.26    0.19
   3   0   1   -0.46    0.21
  -3   0  -1   -0.05    0.21
   3   0   1   -0.14    0.17
   3   0   1    0.25    0.19
  -3   0  -1   -0.33    0.22
  -4   0  -1    0.48    0.43
  -4   0  -1    0.00    0.26
  -4   0  -1    0.16    0.33
   4   0   1    0.29    0.23
  -4   0  -1   -0.38    0.18
   4   0   1    0.53    0.24
  -5   0  -1   -0.20    0.44
   5   0   1   -0.11    0.54
   5   0   1   -0.06    0.56
  -5   0  -1    0.36    0.27
  -5   0  -1    0.17    0.47
   6   0   1   -0.65    0.68
  -6   0  -1    0.07    0.30
  -6   0  -1    0.50    0.57
  -6   0  -1   -0.03    0.61
  -7   0  -1    0.74    0.73
  -7   0  -1    0.85    0.74
  -7   0  -1   -0.62    0.48
   7   0   1   -0.36    0.91
   8   0   1   -1.29    0.93
  -8   0  -1    0.75    1.02
  -8   0  -1    0.43    0.86
   9   0   1   -1.07    2.25
  -9   0  -1    1.35    1.31
   9  -1  -1    0.49    1.28
  -9  -1   1   -0.27    1.46
  -9  -1   1    0.13    1.53
  -9   1   1    1.62    1.19
   9   1  -1    1.02    1.40
  -9   1   1    1.93    1.43
  -8  -1   1    3.77    1.07
   8  -1  -1    4.57    1.12
  -8  -1   1    4.01    1.01
  -8   1   1    4.86    1.23
   8   1  -1    4.27    1.21
  -8   1   1    4.22    1.04
  -8   1   1    2.41    1.05
   7  -1  -1    0.62    0.77
  -7  -1   1    1.46    0.82
  -7  -1   1    0.27    0.69
   7   1  -1   -0.69    0.75
  -7   1   1    0.60    0.81
  -7   1   1    0.73    0.80
  -6  -1   1    1.88    0.64
   6  -1  -1    2.05    0.82
   6  -1  -1    0.77    0.66
  -6  -1   1    1.44    0.56
  -6   1   1    0.98    0.65
   6   1  -1    0.08    0.49
   6   1  -1    1.01    0.64
  -6   1   1    0.79    0.54
  -5  -1   1    0.25    0.43
  -5  -1   1    0.58    0.48
   5  -1  -1   -0.45    0.63
   5   1  -1   -0.01    0.52
  -5   1   1    0.03    0.24
   5   1  -1   -0.42    0.28
  -5   1   1    0.20    0.49
   4  -1  -1   38.05    1.82
  -4  -1   1   35.61    1.79
   4  -1  -1   37.53    1.79
   4  -1  -1   35.75    1.80
   4   1  -1   39.32    1.74
  -4   1   1   37.63    1.79
   4   1  -1   36.17    1.88
  -4   1   1   37.43    1.85
  -4   1   1   35.79    1.85
   3  -1  -1    1.40    0.29
   3  -1  -1    2.65    0.29
  -3  -1   1    1.31    0.25
  -3  -1   1    1.28    0.26
  -3  -1   1    2.24    0.39
   3  -1  -1    1.57    0.28
  -3   1   1    1.27    0.24
   3   1  -1    1.24    0.26
  -3   1   1    1.67    0.28
  -3   1   1    1.44    0.23
   3   1  -1    0.80    0.27
  -3   1   1    1.25    0.28
   2  -1  -1   51.81    2.14
   2  -1  -1   44.91    2.12
   2  -1  -1   47.73    2.14
  -2  -1   1   45.02    2.13
  -2  -1   1   44.56    2.14
   2   1  -1   44.34    2.16
  -2   1   1   47.74    2.12
   2   1  -1   48.25    2.12
  -2   1   1   47.30    2.15
   2   1  -1   45.78    2.13
  -2   1   1   45.35    2.14
  -2   1   1   47.78    2.13
   1  -1  -1    2.37    0.26
  -1  -1   1    3.34    0.26
  -1  -1   1    2.73    0.26
   1  -1  -1    3.06    0.27
   1  -1  -1    2.53    0.25
  -1   1   1    2.88    0.25
  -1   1   1    2.70    0.28
  -1   1   1    2.81    0.25
   1   1  -1    2.83    0.27
   1   1  -1    2.59    0.26
   1   1  -1    2.91    0.29
   1   1  -1    2.41    0.22
   0  -1  -1   61.69    2.63
   0  -1  -1   60.84    2.65
   0  -1   1   53.73    2.67
   0  -1   1   57.14    2.65
   0  -1   1   62.32    2.63
   0  -1  -1   62.57    2.67
   0  -1   1   58.18    2.65
   0   1   1   59.35    2.66
   0   1   1   62.63    2.63
   0   1   1   56.88    2.66
   0   1  -1   59.52    2.66
   0   1  -1   59.81    2.63
   1  -1   1   53.11    2.40
   1  -1   1   54.30    2.43
  -1  -1  -1   51.37    2.39
  -1  -1  -1   56.11    2.42
   1  -1   1   54.76    2.40
   1  -1   1   53.91    2.43
  -1  -1  -1   54.00    2.41
   1  -1   1   54.05    2.39
   1   1   1   52.96    2.39
   1   1   1   55.45    2.41
  -1   1  -1   53.94    2.42
  -1   1  -1   53.58    2.41
   1   1   1   55.05    2.42
  -1   1  -1   52.78    2.38
   1   1   1   52.33    2.42
  -1   1  -1   52.43    2.43
   2  -1   1  180.22    8.15
  -2  -1  -1  179.58    8.18
   2  -1   1  184.39    8.18
  -2  -1  -1  183.56    8.13
   2  -1   1  188.98    8.19
  -2  -1  -1  194.44    8.20
  -2  -1  -1  183.20    8.16
   2  -1   1  196.82    8.18
   2   1   1  186.70    8.12
  -2   1  -1  190.62    8.17
   2   1   1  173.49    8.19
  -2   1  -1  185.11    8.18
   2   1   1  187.42    8.16
  -2   1  -1  187.66    8.14
  -2   1  -1  178.06    8.20
   2   1   1  194.31    8.18
  -2   1  -1  178.64    8.17
  -3  -1  -1   22.47    1.18
   3  -1   1   23.63    1.21
   3  -1   1   23.12    1.21
  -3  -1  -1   22.61    1.22
  -3  -1  -1   25.13    1.22
  -3  -1  -1   23.87    1.11
   3  -1   1   22.24    1.21
   3  -1   1   23.32    1.16
  -3   1  -1   23.00    1.18
   3   1   1   24.58    1.22
  -3   1  -1   24.24    1.18
  -3   1  -1   23.97    1.21
  -3   1  -1   25.61    1.20
   3   1   1   23.78    1.16
  -3   1  -1   23.60    1.15
   4  -1   1    0.86    0.39
  -4  -1  -1    0.53    0.25
  -4  -1  -1    0.26    0.19
  -4   1  -1    0.50    0.38
   4   1   1    0.36    0.34
  -4   1  -1    0.54    0.40
   4   1   1    0.22    0.46
  -4   1  -1    0.54    0.20
  -4   1  -1    0.05    0.28
  -5  -1  -1    9.90    1.00
  -5  -1  -1   11.42    0.66
   5  -1   1   11.06    1.16
  -5  -1  -1   10.48    1.03
   5   1   1    9.73    0.99
   5   1   1   11.05    0.89
  -5   1  -1   11.24    1.00
  -6  -1  -1    5.51    0.80
  -6  -1  -1    4.33    0.77
   6  -1   1    4.81    0.87
  -6   1  -1    6.01    0.83
  -6   1  -1    4.79    0.79
   6   1   1    5.47    0.78
  -7  -1  -1    1.74    0.77
   7  -1   1    4.47    1.15
  -7  -1  -1    2.36    0.86
  -7   1  -1    2.48    0.78
   7   1   1    1.60    0.77
  -7   1  -1    2.46    0.85
  -8  -1  -1   -0.24    0.96
  -8  -1  -1   -0.27    0.84
   8  -1   1    0.42    0.89
   8   1   1    1.12    0.97
  -8   1  -1   -1.74    1.12
  -8   1  -1   -0.01    0.93
  -8   1  -1    0.20    0.98
   9  -1   1    0.82    1.39
  -9  -1  -1    3.80    1.73
  -9  -1  -1    1.12    1.37
  -9   1  -1    0.74    1.44
   9   1   1    0.31    1.37
  -9   1  -1    1.17    1.31
  -8  -2   1   -0.77    0.96
  -8  -2   1    0.94    1.02
   8  -2  -1   -0.20    1.08
  -8   2   1   -2.19    0.99
  -8   2   1    0.81    0.93
   8   2  -1   -0.19    1.05
   8   2  -1    1.37    1.31
  -7  -2   1   -0.18    0.92
  -7  -2   1    0.11    0.85
   7  -2  -1    1.26    0.85
   7   2  -1    0.35    0.83
  -7   2   1    1.39    0.83
  -7   2   1    0.27    0.79
   6  -2  -1   11.45    1.23
  -6  -2   1   11.25    1.14
   6  -2  -1   10.38    1.17
  -6  -2   1   11.88    1.09
  -6   2   1   11.00    1.09
   6   2  -1    8.17    1.03
  -6   2   1   12.03    1.36
  -5  -2   1    7.43    0.83
   5  -2  -1    5.58    0.79
   5  -2  -1    6.31    0.80
  -5  -2   1    6.23    0.80
  -5   2   1    4.73    0.74
   5   2  -1    5.21    0.79
  -5   2   1    5.64    0.72
   4  -2  -1   29.87    1.68
   4  -2  -1   27.81    1.46
  -4  -2   1   27.19    1.58
   4  -2  -1   27.12    1.43
  -4   2   1   33.38    1.45
   4   2  -1   27.15    1.64
  -4   2   1   30.40    1.50
  -4   2   1   26.74    1.56
   3  -2  -1    2.50    0.31
  -3  -2   1    2.72    0.50
   3  -2  -1    3.56    0.35
   3  -2  -1    3.93    0.46
  -3  -2   1    2.11    0.30
  -3  -2   1    2.16    0.31
   3   2  -1    2.43    0.47
  -3   2   1    2.71    0.32
   3   2  -1    2.84    0.32
   3   2  -1    2.24    0.27
  -3   2   1    3.01    0.34
   3   2  -1    2.32    0.35
  -3   2   1    1.69    0.41
   2  -2  -1   15.14    0.85
  -2  -2   1   14.78    0.86
  -2  -2   1   16.80    0.90
   2  -2  -1   15.95    0.80
   2  -2  -1   16.55    0.89
   2  -2  -1   16.96    0.88
   2   2  -1   16.78    0.85
  -2   2   1   16.05    0.86
  -2   2   1   15.46    0.87
   2   2  -1   15.36    0.87
  -2   2   1   17.75    0.78
   2   2  -1   14.01    0.79
   2   2  -1   15.78    0.82
  -2   2   1   16.54    0.83
  -2   2   1   15.50    0.89
   2   2  -1   17.79    0.86
   1  -2  -1   13.42    0.74
   1  -2  -1   13.28    0.74
  -1  -2   1   14.08    0.71
  -1  -2   1   12.28    0.74
   1  -2  -1   15.45    0.75
  -1  -2   1   12.19    0.72
   1   2  -1   13.89    0.72
  -1   2   1   12.27    0.76
   1   2  -1   14.40    0.72
   1   2  -1   12.76    0.73
  -1   2   1   15.41    0.71
   0  -2   1  402.42   18.02
   0  -2   1  396.99   17.98
   0  -2  -1  407.35   18.00
   0  -2  -1  404.82   18.02
   0  -2   1  431.99   18.04
   0  -2   1  380.92   18.01
   0  -2  -1  439.52   18.05
   0   2  -1  420.34   18.02
   0   2   1  436.41   18.01
   0   2   1  397.06   18.05
   0   2  -1  424.42   18.02
   0   2  -1  399.86   17.98
   0   2  -1  390.03   18.04
   0   2   1  432.70   18.03
   1  -2   1   17.01    0.82
   1  -2   1   15.93    0.91
   1  -2   1   17.65    0.88
  -1  -2  -1   16.95    0.90
   1  -2   1   18.02    0.87
  -1  -2  -1   16.83    0.85
  -1  -2  -1   19.17    0.88
   1  -2   1   17.25    0.92
  -1   2  -1   17.78    0.88
   1   2   1   17.30    0.86
   1   2   1   16.58    0.90
   1   2   1   17.91    0.88
  -1   2  -1   17.24    0.93
  -1   2  -1   18.01    0.88
   2  -2   1   19.81    0.98
  -2  -2  -1   17.14    0.97
   2  -2   1   17.91    0.93
   2  -2   1   16.26    0.97
   2  -2   1   17.44    0.92
  -2  -2  -1   20.25    0.99
  -2   2  -1   17.88    0.90
   2   2   1   20.71    0.96
  -2   2  -1   18.39    0.97
  -2   2  -1   16.91    0.94
   2   2   1   18.27    0.96
  -2   2  -1   18.72    0.88
  -2   2  -1   17.96    0.91
   2   2   1   18.14    0.90
  -2   2  -1   16.72    1.00
   3  -2   1   31.16    1.56
   3  -2   1   34.01    1.67
  -3  -2  -1   31.47    1.55
   3  -2   1   29.75    1.60
  -3  -2  -1   33.64    1.57
   3  -2   1   32.07    1.53
  -3  -2  -1   33.07    1.73
   3   2   1   32.30    1.48
  -3   2  -1   30.71    1.59
  -3   2  -1   30.72    1.69
   3   2   1   30.75    1.62
  -3   2  -1   31.97    1.57
  -3   2  -1   34.25    1.53
   3   2   1   29.79    1.61
  -3   2  -1   31.96    1.54
  -4  -2  -1    9.93    0.99
   4  -2   1   11.26    0.67
   4  -2   1   11.48    0.68
  -4  -2  -1   10.36    0.93
  -4   2  -1   13.05    0.81
  -4   2  -1   10.06    0.89
  -4   2  -1   10.95    0.93
  -5  -2  -1   13.99    1.26
   5  -2   1   14.02    1.10
   5  -2   1   14.58    1.29
  -5  -2  -1   14.33    1.18
  -5   2  -1   13.80    1.24
  -5   2  -1   13.09    1.12
  -6  -2  -1    0.59    0.64
  -6  -2  -1    0.50    0.71
   6  -2   1    0.38    0.82
   6   2   1   -0.05    0.61
   6   2   1   -0.12    0.71
  -6   2  -1    0.58    0.64
   7  -2   1   -0.84    1.09
  -7  -2  -1   -0.53    0.86
  -7  -2  -1    0.29    0.84
   7   2   1    0.43    0.83
  -7   2  -1   -0.34    0.89
  -7   2  -1    0.32    0.75
   8  -2   1    1.36    1.64
  -8  -2  -1    1.30    1.09
   8  -2   1    0.01    0.97
  -8  -2  -1    0.29    1.03
  -8   2  -1    0.84    0.99
  -8   2  -1    0.81    1.12
   8   2   1    0.40    1.08
  -8  -3   1   -0.46    1.15
   8  -3  -1    0.66    1.26
   8   3  -1    1.36    1.48
  -8   3   1    0.98    1.22
  -8   3   1   -1.11    1.04
   8   3  -1    0.37    1.25
   7  -3  -1    0.15    0.93
  -7  -3   1    0.43    1.01
  -7  -3   1    0.84    0.97
   7   3  -1    1.39    0.95
  -7   3   1    2.10    1.28
  -7   3   1    0.98    0.88
   6  -3  -1    5.83    0.91
   6  -3  -1    6.82    0.99
   6  -3  -1    6.22    1.11
  -6  -3   1    5.65    0.92
  -6   3   1    6.55    1.17
  -6   3   1    6.28    0.90
   6   3  -1    5.53    0.94
  -5  -3   1   71.82    3.59
   5  -3  -1   74.57    3.61
  -5   3   1   77.02    3.73
  -5   3   1   73.10    3.60
   5   3  -1   72.96    3.67
   4  -3  -1    0.00    0.31
  -4  -3   1    0.38    0.50
   4  -3  -1    0.94    0.29
   4  -3  -1    0.41    0.55
   4   3  -1    1.36    0.57
  -4   3   1    0.86    0.58
   4   3  -1    1.82    0.26
  -4   3   1    0.65    0.53
  -3  -3   1    0.34    0.27
  -3  -3   1    0.38    0.49
   3   3  -1    0.02    0.20
  -3   3   1    0.23    0.54
   3   3  -1    1.26    0.27
   3   3  -1    0.03    0.56
  -3   3   1    0.24    0.37
   2  -3  -1   13.83    0.71
  -2  -3   1   12.22    0.71
  -2  -3   1   12.51    1.01
   2  -3  -1   13.09    0.77
   2   3  -1   11.69    0.74
  -2   3   1   11.64    0.81
   2   3  -1   13.35    0.82
  -2   3   1   11.68    0.89
   2   3  -1   12.70    0.73
   2   3  -1   13.27    0.73
  -2   3   1   12.07    0.76
  -1  -3   1  190.72    8.87
   1  -3  -1  197.30    8.87
  -1  -3   1  205.10    8.87
   1  -3  -1  199.76    8.91
   1  -3  -1  197.50    8.86
  -1  -3   1  197.61    8.86
  -1   3   1  213.35    8.86
  -1   3   1  195.67    8.92
   1   3  -1  206.78    8.86
  -1   3   1  201.50    8.87
   1   3  -1  204.72    8.87
   1   3  -1  195.43    8.82
   1   3  -1  195.74    8.88
   0  -3  -1   10.31    0.64
   0  -3   1    9.48    0.65
   0  -3  -1   10.39    0.70
   0  -3   1   12.17    0.73
   0  -3   1   10.32    0.65
   0  -3   1    9.96    0.56
   0   3   1   11.24    0.59
   0   3   1   10.66    0.74
   0   3  -1   11.58    0.66
   0   3   1   10.50    0.68
   0   3  -1    8.61    0.66
   0   3  -1   11.56    0.68
   0   3  -1    9.84    0.56
   1  -3   1   33.09    1.57
  -1  -3  -1   36.26    1.62
   1  -3   1   31.92    1.51
   1  -3   1   33.85    1.63
   1  -3   1   31.13    1.59
  -1  -3  -1   32.26    1.57
  -1  -3  -1   31.43    1.61
   1  -3   1   34.27    1.70
   1   3   1   34.34    1.64
  -1   3  -1   33.03    1.64
  -1   3  -1   32.76    1.66
   1   3   1   29.71    1.65
  -1   3  -1   35.18    1.63
   1   3   1   34.16    1.55
   2  -3   1    1.80    0.23
  -2  -3  -1    0.80    0.24
   2  -3   1    1.48    0.34
  -2  -3  -1    1.11    0.43
   2  -3   1    0.99    0.22
   2  -3   1    0.94    0.23
  -2  -3  -1    1.16    0.24
  -2   3  -1    0.91    0.18
   2   3   1    0.78    0.25
  -2   3  -1    1.26    0.41
   2   3   1    0.72    0.31
   2   3   1    0.85    0.21
   2   3   1    1.10    0.41
   3  -3   1   30.04    1.47
  -3  -3  -1   29.48    1.48
   3  -3   1   26.90    1.68
   3  -3   1   29.56    1.50
  -3  -3  -1   29.85    1.62
  -3   3  -1   33.18    1.45
  -3   3  -1   29.15    1.62
   3   3   1   31.53    1.49
   3   3   1   29.36    1.46
   3   3   1   30.25    1.51
  -4  -3  -1   -0.20    0.51
   4  -3   1    0.49    0.26
   4  -3   1    0.75    0.51
   4   3   1    0.85    0.55
  -4   3  -1    0.46    0.54
   4   3   1    0.77    0.22
  -4   3  -1    0.42    0.63
   5  -3   1    0.46    0.61
   5  -3   1   -0.24    0.70
  -5  -3  -1   -0.05    0.57
  -5   3  -1    0.48    0.77
   5   3   1   -0.19    0.67
  -5   3  -1    0.29    0.57
  -6  -3  -1   20.88    1.59
   6  -3   1   19.48    1.66
   6  -3   1   18.12    1.72
   6   3   1   20.03    1.70
  -6   3  -1   18.93    1.74
  -6   3  -1   19.63    1.59
   7  -3   1    8.15    1.45
   7  -3   1    5.79    1.11
  -7  -3  -1    6.21    1.15
  -7   3  -1    5.96    1.12
   7   3   1    6.21    1.18
   7   3   1    6.05    1.09
   8  -3   1    2.20    1.96
  -8  -3  -1    1.51    1.18
   8  -3   1    1.61    1.26
  -8   3  -1    1.56    1.19
  -8   3  -1    2.74    1.28
   8   3   1    0.73    1.21
   7  -4  -1    1.88    1.35
  -7  -4   1    1.45    1.15
  -7  -4   1    2.15    1.13
   7  -4  -1    0.37    1.17
  -7   4   1    1.22    0.97
  -7   4   1    1.61    1.34
   7   4  -1   -0.17    1.06
  -6  -4   1    2.38    0.93
  -6  -4   1    3.52    0.97
   6  -4  -1    3.52    1.20
   6  -4  -1    3.67    1.06
   6  -4  -1    3.34    0.97
  -6   4   1    2.93    0.85
   6   4  -1    3.73    0.99
  -6   4   1    2.49    1.13
  -5  -4   1    1.69    0.76
   5  -4  -1    1.55    0.79
   5  -4  -1    2.84    0.41
  -5  -4   1    1.47    0.78
   5   4  -1    1.24    0.44
  -5   4   1    1.05    0.72
   5   4  -1    1.30    0.81
  -5   4   1    1.10    0.83
   4  -4  -1    9.17    0.95
  -4  -4   1    8.28    0.90
  -4  -4   1    8.84    0.97
   4  -4  -1    9.05    0.55
   4   4  -1    6.88    0.68
   4   4  -1    6.80    0.88
  -4   4   1    9.40    0.92
  -4   4   1    6.18    0.89
   3  -4  -1    0.16    0.51
  -3  -4   1    0.09    0.55
  -3  -4   1   -0.24    0.42
   3  -4  -1    0.40    0.55
  -3   4   1   -0.10    0.49
   3   4  -1   -0.48    0.51
   3   4  -1   -0.97    0.45
  -3   4   1    0.10    0.63
  -2  -4   1    0.60    0.48
  -2  -4   1    0.34    0.54
   2  -4  -1    0.31    0.47
   2  -4  -1    0.63    0.58
   2   4  -1   -0.31    0.55
   2   4  -1   -0.03    0.26
  -2   4   1   -0.16    0.46
  -1  -4   1    5.32    0.69
   1  -4  -1    6.42    0.70
   1   4  -1    5.87    0.82
   1   4  -1    7.55    0.52
  -1   4   1    5.39    0.75
   0  -4  -1   21.41    1.03
   0   4   1   18.26    1.24
   0   4  -1   19.71    1.27
   0   4  -1   17.53    0.94
   0   4   1   19.65    1.08
  -1  -4  -1    0.26    0.22
   1  -4   1    1.13    0.53
  -1  -4  -1    1.36    0.51
   1  -4   1    0.77    0.24
  -1  -4  -1    0.81    0.49
   1  -4   1    0.88    0.49
   1   4   1    0.42    0.37
   1   4   1    0.36    0.25
   1   4   1    0.73    0.49
  -1   4  -1    1.00    0.47
   2  -4   1    1.33    0.60
   2  -4   1    1.88    0.54
  -2  -4  -1    1.87    0.57
   2  -4   1    1.33    0.27
   2   4   1    1.54    0.56
  -2   4  -1    1.34    0.56
  -2   4  -1    1.27    0.65
   2   4   1    1.06    0.30
  -3  -4  -1    1.27    0.52
   3  -4   1    1.70    0.31
   3  -4   1    1.29    0.58
   3  -4   1    1.49    0.70
  -3   4  -1    0.78    0.29
   3   4   1    0.71    0.61
  -3   4  -1    1.07    0.62
   3   4   1    1.58    0.56
  -3   4  -1    0.98    0.58
   3   4   1    1.42    0.56
   4  -4   1    0.21    0.38
  -4  -4  -1    1.22    0.65
   4  -4   1   -0.33    0.70
  -4  -4  -1    0.47    0.65
   4   4   1    0.42    0.64
   4   4   1    1.32    0.55
  -4   4  -1   -0.26    0.58
  -4   4  -1   -0.14    0.62
   4   4   1    1.06    0.67
   5  -4   1    9.37    1.10
   5  -4   1    9.32    1.06
  -5  -4  -1    9.26    1.07
  -5  -4  -1    9.48    1.07
  -5   4  -1    8.97    1.17
  -5   4  -1   10.70    1.05
   5   4   1   10.54    1.15
   5   4   1    9.21    1.06
  -6  -4  -1    3.89    0.99
   6  -4   1    1.63    0.94
   6  -4   1    1.57    1.04
   6  -4   1    0.83    1.10
  -6  -4  -1    2.09    0.93
  -6   4  -1    2.02    0.93
   6   4   1    1.21    0.93
  -6   4  -1    2.08    1.12
   6   4   1    1.84    1.08
   7  -4   1   -0.39    1.19
   7  -4   1   -0.64    1.28
  -7  -4  -1    0.49    1.18
  -7  -4  -1    0.08    1.06
   7  -4   1    1.43    1.63
  -7   4  -1    1.83    1.28
   7   4   1    0.47    0.99
  -7   4  -1   -1.60    1.04
  -7  -5   1    5.62    1.54
  -7  -5   1    4.53    1.42
   7  -5  -1    5.57    1.75
  -7   5   1    2.20    1.54
   7   5  -1    3.08    1.39
  -7   5   1    4.35    1.45
  -6  -5   1    1.31    1.12
  -6  -5   1    0.79    0.98
   6  -5  -1    0.12    1.25
  -6   5   1    0.94    1.10
   6   5  -1    0.71    1.31
   6   5  -1   -0.63    1.04
  -6   5   1    0.27    1.10
  -5  -5   1    3.86    1.02
   5  -5  -1    2.17    1.04
  -5  -5   1    2.60    0.96
  -5   5   1    0.46    0.89
   5   5  -1    1.25    0.98
  -5   5   1    3.39    0.94
   5   5  -1    2.07    1.09
  -4  -5   1    1.84    0.81
  -4  -5   1    2.16    0.75
   4  -5  -1    3.61    0.92
  -4   5   1    2.41    0.93
   4   5  -1    2.39    0.92
  -4   5   1    1.47    0.78
   4   5  -1    1.30    0.84
  -3  -5   1   14.77    1.40
  -3  -5   1   16.67    1.43
   3  -5  -1   17.05    1.52
   3  -5  -1   15.97    1.40
   3   5  -1   16.93    1.45
  -3   5   1   14.61    1.43
   3   5  -1   16.43    1.49
   3   5  -1   20.25    1.27
  -3   5   1   16.49    1.56
  -2  -5   1    1.94    0.70
   2  -5  -1    1.05    0.66
  -2  -5   1    0.67    0.66
   2  -5  -1    1.98    0.76
   2   5  -1    1.99    0.76
  -2   5   1    2.15    0.87
   2   5  -1    1.76    0.29
   1  -5  -1    0.09    0.63
  -1  -5   1    0.37    0.62
   1  -5  -1    0.15    0.60
  -1  -5   1   -0.17    0.60
   1   5  -1    0.20    0.28
   1   5  -1    0.52    0.65
  -1   5   1   -0.04    0.55
   0  -5  -1   20.11    1.46
   0  -5   1   21.45    1.48
   0  -5  -1   20.26    1.44
   0   5  -1   20.18    1.52
   0   5   1   21.56    1.54
  -1  -5  -1   29.55    1.73
   1  -5   1   31.81    1.45
   1  -5   1   28.79    1.82
   1  -5   1   29.75    1.78
  -1  -5  -1   26.65    1.77
  -1  -5  -1   26.63    1.87
   1   5   1   27.87    1.81
  -1   5  -1   29.38    1.89
   1   5   1   28.10    1.41
  -2  -5  -1    3.57    0.74
   2  -5   1    2.36    0.69
   2  -5   1    2.72    0.76
  -2  -5  -1    2.67    0.71
   2   5   1    1.89    0.71
  -2   5  -1    2.19    0.83
  -2   5  -1    2.43    0.72
   2   5   1    2.75    0.41
   3  -5   1    1.18    0.74
  -3  -5  -1    1.99    0.71
   3  -5   1    2.53    0.72
  -3  -5  -1    1.84    0.66
  -3   5  -1    0.73    0.74
  -3   5  -1    1.58    0.89
   3   5   1    1.08    0.74
   3   5   1    1.35    0.75
  -3   5  -1    1.36    0.72
  -4  -5  -1   18.33    1.61
  -4  -5  -1   15.84    1.46
   4  -5   1   17.46    1.66
   4  -5   1   16.82    1.61
  -4   5  -1   18.14    1.61
   4   5   1   17.06    1.58
  -4   5  -1   16.35    1.74
   4   5   1   16.19    1.57
  -4   5  -1   19.04    1.15
  -5  -5  -1    5.88    1.07
   5  -5   1    4.92    1.13
   5  -5   1    5.76    1.19
  -5  -5  -1    5.72    1.09
  -5   5  -1    7.68    1.41
   5   5   1    4.85    1.06
  -5   5  -1    5.54    1.03
   5   5   1    6.90    1.16
   6  -5   1   -0.74    1.27
   6  -5   1    1.45    1.47
  -6  -5  -1    0.15    1.15
   6  -5   1    1.67    1.31
  -6  -5  -1    1.07    1.10
   6   5   1    1.30    1.11
  -6   5  -1   -0.07    1.09
  -6   5  -1    1.61    1.08
   6   5   1   -0.28    1.20
  -7  -5  -1    0.09    1.57
   7  -5   1    0.44    1.70
  -7  -5  -1    1.07    1.40
  -7   5  -1    2.55    1.67
   7   5   1    2.64    1.43
  -7   5  -1    2.56    2.22
   6  -6  -1    6.50    1.83
  -6  -6   1    6.60    1.58
  -6   6   1    4.28    1.70
  -6   6   1    5.60    1.54
  -5  -6   1    0.05    1.16
   5  -6  -1    0.68    1.31
  -5  -6   1   -0.58    1.23
   5   6  -1   -0.57    1.25
   5   6  -1    0.32    1.40
  -5   6   1    0.39    1.05
  -5   6   1   -0.33    1.10
  -4  -6   1   13.03    1.49
   4  -6  -1   14.14    1.51
  -4  -6   1   14.69    1.45
   4   6  -1   13.75    1.54
  -4   6   1   15.24    1.41
  -4   6   1    9.85    1.39
  -4   6   1   15.29    1.48
   4   6  -1   14.53    1.54
  -3  -6   1   -0.33    0.81
   3  -6  -1    1.44    0.99
   3  -6  -1    0.16    0.81
  -3  -6   1    0.19    0.91
  -3   6   1    0.29    0.88
  -3   6   1    0.08    0.88
   3   6  -1    0.26    0.95
   3   6  -1    0.04    0.99
   2  -6  -1   14.48    1.42
   2  -6  -1   15.85    1.57
  -2  -6   1   13.11    1.27
  -2  -6   1   14.88    1.54
  -2   6   1   13.31    1.51
   2   6  -1   11.34    1.20
  -2   6   1   11.71    1.24
   2   6  -1   11.16    1.24
   1  -6  -1    5.51    0.99
   1  -6  -1    4.53    0.95
  -1  -6   1    5.98    1.01
  -1   6   1    4.25    0.91
   1   6  -1    3.91    0.93
   0  -6  -1   13.53    1.26
   0  -6  -1   13.75    1.28
   0  -6   1   10.70    1.12
   0  -6   1   12.65    1.25
   0   6  -1   11.40    1.27
   0   6   1   13.06    1.41
   1  -6   1    2.82    0.80
  -1  -6  -1    3.17    0.90
   1  -6   1    2.32    0.93
   1   6   1    3.90    1.09
  -1   6  -1    2.73    0.89
   2  -6   1   12.15    1.28
   2  -6   1   12.48    1.35
  -2  -6  -1   12.89    1.27
  -2  -6  -1   13.65    1.29
  -2   6  -1   12.37    1.46
  -2   6  -1   12.73    1.27
   2   6   1   11.96    0.98
   2   6   1   11.61    1.32
  -3  -6  -1   10.53    1.24
  -3  -6  -1   11.68    1.25
   3  -6   1    7.96    1.17
   3  -6   1    9.83    1.34
  -3   6  -1    7.96    1.18
  -3   6  -1    9.94    1.27
   3   6   1   10.40    1.26
  -3   6  -1   10.31    1.26
   3   6   1   11.61    1.22
   4  -6   1    0.90    1.08
  -4  -6  -1    1.44    1.02
  -4  -6  -1    1.57    1.17
  -4   6  -1   -0.56    1.13
  -4   6  -1    1.78    1.15
  -4   6  -1    2.33    1.04
   4   6   1    1.37    1.20
   4   6   1    0.66    1.13
  -5  -6  -1   10.03    1.47
   5  -6   1    6.03    1.50
  -5  -6  -1    9.98    1.55
   5   6   1   11.06    1.74
  -5   6  -1    8.49    1.63
  -5   6  -1    9.24    1.39
   5   6   1    7.04    1.44
  -6  -6  -1    3.50    1.56
   6  -6   1    4.48    1.81
   4  -7  -1   -0.52    1.26
  -4  -7   1    2.81    1.41
  -4  -7   1    2.10    1.55
  -4   7   1    0.87    1.45
   4   7  -1    1.54    1.74
   4   7  -1    2.76    1.62
  -4   7   1   -2.02    1.28
  -3  -7   1    2.52    1.20
   3  -7  -1    4.72    1.23
  -3  -7   1    3.49    1.50
  -3   7   1    1.60    1.43
   3   7  -1    4.52    1.47
   3   7  -1    4.96    1.54
  -3   7   1    3.77    1.29
  -3   7   1    3.72    1.57
  -2  -7   1    4.29    1.32
   2  -7  -1    4.81    1.25
   2  -7  -1    6.33    1.37
  -2   7   1    4.77    1.48
   2   7  -1    5.42    1.28
  -2   7   1    7.77    1.33
   1  -7  -1    9.70    1.42
   1  -7  -1    8.59    1.25
  -1  -7   1   10.77    1.36
  -1  -7   1   10.38    1.43
   1   7  -1   11.12    1.59
  -1   7   1   12.99    1.72
   0  -7  -1    0.52    0.91
   0  -7  -1    0.28    1.06
   0  -7   1   -0.06    1.11
   0  -7   1    0.41    0.97
   0   7   1   -0.94    1.20
   0   7  -1    0.85    1.11
   1  -7   1    0.79    1.10
  -1  -7  -1    2.24    1.21
  -1  -7  -1    1.17    1.05
   1  -7   1    0.12    0.96
   1   7   1    1.46    1.01
  -1   7  -1    2.80    1.21
  -1   7  -1    2.17    1.08
   2  -7   1    7.68    1.33
   2  -7   1    4.80    1.29
  -2  -7  -1    6.71    1.39
  -2   7  -1    4.57    1.30
  -2   7  -1    8.83    1.53
  -2   7  -1    5.11    1.29
   2   7   1    6.76    1.34
   3  -7   1    5.36    1.35
  -3  -7  -1    5.76    1.63
   3  -7   1    8.77    1.58
  -3  -7  -1    5.13    1.32
  -3   7  -1    7.45    1.67
  -3   7  -1    5.87    1.63
   3   7   1    4.37    1.34
  -3   7  -1    5.05    1.37
   4  -7   1    0.10    1.47
  -4  -7  -1   -0.45    1.31
  -4  -7  -1    0.45    1.64
   4   7   1    0.10    1.50
   4   7   1    1.06    1.59
  -4   7  -1    0.23    1.51
  -4   7  -1   -0.40    1.43
  -4   7  -1    1.10    1.93
  -9   0   2    3.96    1.47
  -9   0   2    3.31    1.57
   9   0  -2    4.40    1.37
  -8   0   2   -0.45    0.86
  -8   0   2   -0.17    0.94
   8   0  -2    0.67    1.00
   7   0  -2   22.82    1.81
  -7   0   2   24.92    1.77
  -7   0   2   23.50    1.69
   6   0  -2   78.13    3.55
   6   0  -2   75.57    3.75
  -6   0   2   75.32    3.68
  -6   0   2   76.05    3.73
   5   0  -2   65.98    2.93
  -5   0   2   65.34    3.08
  -5   0   2   62.23    3.08
   5   0  -2   61.29    3.10
  -4   0   2   47.98    2.21
  -4   0   2   41.15    2.27
   4   0  -2   48.48    2.15
  -4   0   2   48.32    2.34
  -4   0   2   46.72    2.25
   4   0  -2   46.15    2.29
   4   0  -2   47.64    2.25
   3   0  -2   40.31    2.03
  -3   0   2   41.56    2.01
   3   0  -2   42.93    1.95
   3   0  -2   44.92    2.01
  -3   0   2   41.58    2.01
   3   0  -2   44.31    1.96
  -3   0   2   48.51    2.05
  -3   0   2   41.32    2.03
   2   0  -2  180.05    7.91
  -2   0   2  181.88    7.93
   2   0  -2  174.57    7.88
  -2   0   2  174.64    7.91
  -2   0   2  190.53    7.94
   2   0  -2  182.07    7.88
   2   0  -2  176.43    7.94
   1   0  -2   90.79    4.05
  -1   0   2   91.20    4.04
   1   0  -2   93.29    4.07
  -1   0   2   93.78    4.05
  -1   0   2   92.19    4.06
  -1   0   2   90.43    4.05
   1   0  -2   95.34    4.05
   1   0  -2   89.49    4.07
   0   0   2    4.02    0.23
   0   0   2    3.70    0.20
   0   0   2    3.68    0.20
   0   0   2    3.90    0.23
   0   0  -2    3.59    0.23
   0   0  -2    3.69    0.20
   0   0   2    3.72    0.22
   0   0  -2    3.59    0.23
   0   0  -2    3.76    0.24
   0   0  -2    4.17    0.20
  -1   0  -2  664.13   28.10
  -1   0  -2  603.49   27.98
   1   0   2  628.85   28.06
  -1   0  -2  652.55   28.02
   1   0   2  566.30   28.02
   1   0   2  651.45   28.04
   1   0   2  642.77   28.04
  -1   0  -2  663.77   27.96
  -1   0  -2  682.22   28.09
  -2   0  -2   45.04    2.05
  -2   0  -2   44.91    2.07
   2   0   2   45.86    2.07
  -2   0  -2   44.32    2.05
  -2   0  -2   45.74    2.08
  -2   0  -2   43.53    2.04
   2   0   2   47.28    2.08
   2   0   2   43.91    2.09
  -2   0  -2   45.83    2.06
   2   0   2   44.78    2.03
   3   0   2   12.95    0.83
  -3   0  -2   14.01    0.76
  -3   0  -2   14.24    0.83
   3   0   2   15.02    0.73
   3   0   2   15.31    0.77
  -3   0  -2   13.61    0.78
   3   0   2   15.25    0.80
  -3   0  -2   14.99    0.82
   4   0   2   17.05    1.02
   4   0   2   15.02    1.12
  -4   0  -2   17.56    0.92
  -4   0  -2   18.10    0.91
  -4   0  -2   17.87    0.94
  -4   0  -2   16.92    1.11
   5   0   2  174.44    8.01
  -5   0  -2  179.61    7.84
  -5   0  -2  177.77    7.96
   5   0   2  181.22    7.95
  -5   0  -2  168.58    7.89
  -5   0  -2  176.53    7.89
  -6   0  -2    0.36    0.35
  -6   0  -2    0.94    0.60
   6   0   2    0.76    0.81
  -6   0  -2    0.10    0.65
  -7   0  -2    6.57    0.99
  -7   0  -2    4.49    0.90
  -7   0  -2    6.14    1.09
   7   0   2    5.47    1.11
  -8   0  -2    0.42    1.12
  -8   0  -2    0.70    1.05
  -8   0  -2    0.60    0.94
  -9   0  -2   13.39    1.87
  -9   0  -2   14.24    1.84
  -9  -1   2    9.07    1.68
   9  -1  -2    8.62    1.60
   9   1  -2    9.50    1.56
  -9   1   2    6.92    1.56
  -8  -1   2    0.96    1.01
   8  -1  -2    2.08    1.02
  -8  -1   2    1.80    0.99
  -8   1   2    0.38    0.96
  -8   1   2    0.62    0.93
   8   1  -2    1.57    1.08
  -7  -1   2   14.29    1.45
   7  -1  -2   12.82    1.26
  -7  -1   2   12.92    1.28
  -7   1   2    9.25    1.07
   7   1  -2   13.54    1.50
  -7   1   2   14.79    1.45
   6  -1  -2   13.32    1.31
  -6  -1   2   16.46    1.32
  -6  -1   2   16.54    1.35
   6   1  -2   17.23    0.91
   6   1  -2   15.51    1.34
  -6   1   2   15.72    1.34
  -6   1   2   15.55    1.34
   5  -1  -2  126.71    5.73
  -5  -1   2  123.39    5.67
  -5  -1   2  124.35    5.69
   5  -1  -2  121.49    5.68
   5  -1  -2  128.12    5.62
   5   1  -2  122.42    5.73
  -5   1   2  121.23    5.69
  -5   1   2  124.70    5.60
  -4  -1   2   16.90    1.21
   4  -1  -2   19.80    1.04
   4  -1  -2   20.98    1.06
   4  -1  -2   19.83    1.02
  -4  -1   2   20.62    1.05
   4  -1  -2   20.10    1.08
  -4   1   2   20.76    1.02
   4   1  -2   18.34    1.15
  -4   1   2   18.30    1.18
   4   1  -2   17.09    1.19
  -4   1   2   21.82    1.13
   3  -1  -2  149.80    6.35
  -3  -1   2  154.28    6.43
   3  -1  -2  153.83    6.38
  -3  -1   2  134.66    6.35
   3  -1  -2  140.11    6.36
   3  -1  -2  136.91    6.36
   3  -1  -2  137.96    6.35
  -3  -1   2  135.55    6.36
  -3   1   2  139.90    6.36
   3   1  -2  151.08    6.37
  -3   1   2  137.15    6.37
   3   1  -2  142.52    6.34
  -3   1   2  138.75    6.35
   3   1  -2  142.21    6.40
  -3   1   2  150.35    6.35
   2  -1  -2   62.55    2.68
   2  -1  -2   60.75    2.67
  -2  -1   2   58.04    2.67
   2  -1  -2   57.17    2.69
  -2  -1   2   56.87    2.69
   2  -1  -2   60.40    2.67
  -2   1   2   57.59    2.69
  -2   1   2   59.91    2.68
  -2   1   2   58.03    2.68
  -2   1   2   59.44    2.65
   2   1  -2   61.27    2.68
   2   1  -2   59.98    2.66
   2   1  -2   57.96    2.71
  -1  -1   2  264.04   11.77
  -1  -1   2  274.32   11.77
   1  -1  -2  265.45   11.80
   1  -1  -2  284.49   11.81
  -1  -1   2  258.16   11.79
  -1  -1   2  268.89   11.81
   1  -1  -2  266.89   11.77
  -1   1   2  282.49   11.77
   1   1  -2  256.26   11.81
  -1   1   2  264.75   11.81
   1   1  -2  273.98   11.77
  -1   1   2  272.02   11.80
   1   1  -2  268.74   11.79
  -1   1   2  274.80   11.80
   1   1  -2  266.59   11.77
   0  -1   2  233.49   10.23
   0  -1   2  232.01   10.20
   0  -1   2  229.17   10.25
   0  -1  -2  231.64   10.22
   0  -1  -2  232.94   10.18
   0  -1   2  212.53   10.23
   0   1  -2  235.38   10.22
   0   1  -2  229.98   10.21
   0   1   2  244.23   10.23
   0   1  -2  203.46   10.21
   0   1  -2  240.15   10.23
   0   1  -2  246.06   10.23
   0   1   2  249.41   10.19
   0   1   2  246.64   10.21
   1  -1   2  134.18    5.94
   1  -1   2  126.45    5.97
   1  -1   2  135.37    5.99
  -1  -1  -2  129.67    5.97
   1  -1   2  134.02    6.00
  -1  -1  -2  135.40    5.97
  -1  -1  -2  140.20    5.98
   1  -1   2  140.48    5.96
  -1   1  -2  140.33    5.99
  -1   1  -2  138.02    6.01
  -1   1  -2  139.84    5.98
   1   1   2  140.24    5.97
  -1   1  -2  132.42    5.96
   1   1   2  137.06    5.96
   1   1   2  138.99    5.98
   1   1   2  129.49    5.98
  -1   1  -2  133.68    5.96
   2  -1   2    0.51    0.11
   2  -1   2    0.02    0.14
  -2  -1  -2    0.67    0.19
  -2  -1  -2    0.11    0.16
   2  -1   2    0.21    0.18
  -2  -1  -2    0.03    0.20
  -2  -1  -2    0.26    0.16
   2  -1   2    0.55    0.19
   2  -1   2    0.41    0.15
   2   1   2    0.58    0.21
  -2   1  -2    0.45    0.19
  -2   1  -2    0.39    0.16
   2   1   2    0.01    0.16
  -2   1  -2    0.21    0.12
   2   1   2    0.57    0.17
   2   1   2    0.56    0.16
  -3  -1  -2   76.01    3.41
  -3  -1  -2   75.55    3.49
   3  -1   2   73.60    3.41
  -3  -1  -2   78.97    3.50
   3  -1   2   78.91    3.46
   3  -1   2   70.95    3.47
  -3  -1  -2   72.70    3.44
   3  -1   2   78.62    3.49
  -3   1  -2   80.61    3.47
   3   1   2   72.01    3.50
   3   1   2   76.63    3.43
  -3   1  -2   74.94    3.47
  -3   1  -2   79.02    3.47
  -3   1  -2   75.71    3.41
   3   1   2   78.04    3.46
   4  -1   2   67.70    3.14
  -4  -1  -2   69.84    3.04
  -4  -1  -2   59.80    3.24
  -4  -1  -2   68.15    3.09
   4  -1   2   69.01    3.18
  -4   1  -2   72.05    3.28
   4   1   2   65.74    3.23
  -4   1  -2   63.57    3.16
  -4   1  -2   68.27    3.07
   5  -1   2    2.24    0.71
  -5  -1  -2    2.09    0.54
  -5  -1  -2    2.58    0.34
  -5  -1  -2    1.98    0.64
   5   1   2    1.81    0.56
  -5   1  -2    2.28    0.55
  -5   1  -2    1.05    0.59
   5   1   2    2.90    0.76
   6  -1   2   56.65    3.03
  -6  -1  -2   58.16    2.63
  -6  -1  -2   56.63    2.85
  -6  -1  -2   58.03    2.95
  -6   1  -2   55.92    2.86
   6   1   2   54.34    3.02
  -6   1  -2   53.57    2.90
   7  -1   2   10.95    1.37
  -7  -1  -2    9.97    1.12
  -7  -1  -2    8.57    1.08
  -7   1  -2   13.72    1.22
  -7   1  -2   11.97    1.22
  -7   1  -2   11.05    1.17
   8  -1   2   14.40    1.82
  -8  -1  -2   10.80    1.38
  -8  -1  -2   13.78    1.53
   8   1   2   12.37    1.50
  -8   1  -2   13.63    1.51
  -8   1  -2   13.52    1.40
  -8   1  -2    8.40    1.27
  -9  -1  -2    1.57    1.50
   9  -1   2    2.69    1.65
  -9  -1  -2    2.73    1.44
  -9   1  -2    3.75    1.72
  -9   1  -2    3.22    1.54
  -9   1  -2    0.78    1.41
   9   1   2    2.43    1.44
  -8  -2   2    3.94    1.19
   8  -2  -2    6.17    1.25
  -8  -2   2    7.19    1.29
  -8   2   2    8.75    1.29
  -8   2   2    6.68    1.24
   8   2  -2    6.30    1.41
   8   2  -2    5.56    1.21
  -7  -2   2    4.18    1.06
  -7  -2   2    3.95    0.93
   7  -2  -2    4.31    0.92
  -7   2   2    2.92    0.73
   7   2  -2    4.23    0.98
   7   2  -2    3.80    0.94
   6  -2  -2    0.37    0.66
  -6  -2   2    0.30    0.67
  -6  -2   2    0.58    0.76
  -6   2   2    1.09    0.68
   6   2  -2    0.80    0.70
  -6   2   2    1.43    0.78
   5  -2  -2   65.78    3.17
  -5  -2   2   63.17    3.16
  -5  -2   2   65.82    3.19
   5  -2  -2   63.61    3.13
  -5   2   2   64.37    3.18
  -5   2   2   66.53    3.20
   5   2  -2   64.87    3.25
   4  -2  -2   49.38    2.35
  -4  -2   2   48.47    2.47
  -4  -2   2   48.05    2.37
   4  -2  -2   49.64    2.35
   4  -2  -2   51.10    2.54
   4  -2  -2   45.42    2.54
   4   2  -2   48.58    2.53
  -4   2   2   53.60    2.34
  -4   2   2   52.89    2.40
   4   2  -2   55.10    2.57
  -4   2   2   49.04    2.47
  -3  -2   2    9.34    0.93
   3  -2  -2    8.18    0.53
  -3  -2   2    7.28    0.55
  -3  -2   2    6.91    0.58
   3  -2  -2    8.24    0.51
   3  -2  -2    8.35    0.69
  -3   2   2    7.31    0.49
  -3   2   2    6.92    0.57
   3   2  -2    8.21    0.48
   3   2  -2    6.68    0.57
  -3   2   2    7.33    0.74
   3   2  -2    7.59    0.72
   3   2  -2    6.51    0.54
  -3   2   2    7.84    0.72
  -3   2   2    8.13    0.53
  -2  -2   2   57.87    2.81
   2  -2  -2   62.50    2.74
   2  -2  -2   61.88    2.84
   2  -2  -2   60.88    2.81
   2   2  -2   63.42    2.80
   2   2  -2   64.74    2.78
   2   2  -2   60.67    2.76
  -2   2   2   60.77    2.80
  -2   2   2   58.87    2.82
   2   2  -2   60.90    2.83
  -2   2   2   62.25    2.81
  -2   2   2   61.31    2.84
  -1  -2   2   52.08    2.55
   1  -2  -2   57.13    2.55
  -1  -2   2   51.84    2.55
  -1  -2   2   55.71    2.54
   1  -2  -2   57.43    2.58
  -1  -2   2   57.61    2.53
   1  -2  -2   56.75    2.56
   1   2  -2   56.20    2.54
  -1   2   2   59.15    2.54
   1   2  -2   54.42    2.54
   1   2  -2   56.75    2.55
  -1   2   2   55.60    2.59
   0  -2   2   11.75    0.68
   0  -2  -2   12.26    0.65
   0  -2   2   12.62    0.64
   0  -2   2   11.88    0.68
   0  -2   2   11.85    0.70
   0   2   2   12.71    0.72
   0   2   2   12.89    0.68
   0   2  -2   12.73    0.71
   0   2  -2   11.96    0.65
   0   2  -2   12.63    0.67
   0   2   2   14.30    0.63
   0   2  -2   13.47    0.68
  -1  -2  -2    0.12    0.14
   1  -2   2   -0.03    0.17
  -1  -2  -2    0.21    0.18
  -1  -2  -2   -0.02    0.19
   1  -2   2    0.04    0.12
   1  -2   2    0.33    0.19
   1  -2   2    0.05    0.15
   1  -2   2    0.39    0.21
  -1   2  -2   -0.06    0.21
   1   2   2   -0.31    0.18
  -1   2  -2    0.49    0.15
  -1   2  -2   -0.03    0.15
   1   2   2   -0.12    0.19
   1   2   2    0.08    0.14
  -1   2  -2   -0.11    0.13
   2  -2   2   69.33    3.29
   2  -2   2   70.30    3.25
   2  -2   2   72.32    3.28
   2  -2   2   70.44    3.22
  -2  -2  -2   74.85    3.28
  -2  -2  -2   69.05    3.26
   2   2   2   72.45    3.25
   2   2   2   72.99    3.23
  -2   2  -2   71.26    3.32
  -2   2  -2   68.89    3.25
  -2   2  -2   71.77    3.21
  -2   2  -2   74.13    3.28
  -2   2  -2   75.24    3.24
   2   2   2   71.08    3.27
   3  -2   2   30.95    1.62
   3  -2   2   31.66    1.64
  -3  -2  -2   31.61    1.57
  -3  -2  -2   31.45    1.51
  -3  -2  -2   32.98    1.75
   3  -2   2   32.87    1.57
   3  -2   2   31.65    1.53
  -3   2  -2   30.73    1.63
   3   2   2   30.42    1.62
  -3   2  -2   33.12    1.57
   3   2   2   30.90    1.61
   3   2   2   33.95    1.53
  -3   2  -2   33.54    1.80
   3   2   2   33.13    1.68
  -3   2  -2   34.11    1.53
  -3   2  -2   34.68    1.57
  -4  -2  -2   -0.15    0.20
   4  -2   2    0.48    0.17
  -4  -2  -2    0.14    0.46
  -4  -2  -2    0.52    0.46
  -4   2  -2   -0.54    0.33
   4   2   2    0.12    0.59
  -4   2  -2    0.35    0.47
  -4   2  -2   -0.98    0.55
  -4   2  -2   -0.37    0.40
  -5  -2  -2   12.48    1.27
   5  -2   2   14.29    0.94
   5  -2   2   13.78    1.28
  -5  -2  -2   14.88    1.19
  -5   2  -2   13.63    1.15
  -5   2  -2   15.75    1.32
  -6  -2  -2    4.15    0.76
  -6  -2  -2    2.67    0.78
   6  -2   2    3.03    0.89
  -6   2  -2    2.45    0.64
  -7  -2  -2   24.38    1.95
  -7  -2  -2   23.26    1.83
   7  -2   2   25.91    2.14
   7   2   2   21.08    1.85
  -7   2  -2   26.79    1.90
  -7   2  -2   21.97    1.93
  -8  -2  -2    6.21    1.28
   8  -2   2    5.70    1.72
  -8  -2  -2    5.71    1.20
  -8   2  -2    6.51    1.29
   8   2   2    6.15    1.36
  -8   2  -2    6.09    1.22
   8  -3  -2    1.52    1.32
  -8  -3   2    1.83    1.25
  -8  -3   2    2.03    1.22
   8   3  -2    0.55    1.54
  -8   3   2    1.29    1.04
   8   3  -2    1.38    1.14
  -7  -3   2   19.17    1.76
   7  -3  -2   15.81    1.74
  -7  -3   2   15.19    1.54
  -7   3   2   20.58    2.09
  -7   3   2   20.85    1.79
   7   3  -2   16.57    1.82
  -6  -3   2    4.35    0.90
   6  -3  -2    4.95    0.86
   6  -3  -2    4.29    0.94
  -6  -3   2    5.01    0.87
  -6   3   2    3.36    0.85
  -6   3   2    4.44    0.98
  -5  -3   2   42.78    2.36
   5  -3  -2   43.85    2.39
   5  -3  -2   42.93    2.14
   5   3  -2   44.80    2.43
  -5   3   2   43.31    2.33
  -5   3   2   43.77    2.46
   4  -3  -2    1.16    0.60
   4  -3  -2    0.79    0.23
  -4  -3   2    1.83    0.59
   4  -3  -2    0.13    0.30
  -4   3   2    0.73    0.55
   4   3  -2    0.15    0.56
   4   3  -2    0.75    0.30
  -4   3   2    0.59    0.51
  -3  -3   2   74.45    3.55
   3  -3  -2   77.47    3.38
   3  -3  -2   75.92    3.54
  -3   3   2   73.51    3.61
   3   3  -2   74.33    3.43
  -3   3   2   73.38    3.54
   3   3  -2   77.49    3.50
   2  -3  -2    5.88    0.44
  -2  -3   2    4.97    0.38
   2   3  -2    5.96    0.54
   2   3  -2    5.53    0.46
   2   3  -2    4.83    0.43
  -2   3   2    5.29    0.52
  -2   3   2    5.91    0.56
  -1  -3   2   22.41    1.18
  -1  -3   2   23.10    1.17
   1  -3  -2   23.84    1.32
  -1  -3   2   22.30    1.19
   1  -3  -2   22.90    1.17
   1  -3  -2   23.30    1.20
  -1   3   2   20.93    1.22
  -1   3   2   22.35    1.27
   1   3  -2   22.44    1.15
   1   3  -2   23.42    1.19
   1   3  -2   23.06    1.24
   1   3  -2   24.63    1.20
  -1   3   2   26.82    1.17
   0  -3   2   32.22    1.64
   0  -3   2   31.85    1.63
   0  -3  -2   33.80    1.61
   0  -3   2   32.15    1.57
   0  -3   2   36.53    1.68
   0   3  -2   38.17    1.67
   0   3  -2   32.68    1.57
   0   3  -2   31.11    1.65
   0   3   2   32.01    1.67
   0   3   2   33.26    1.68
   0   3   2   35.66    1.58
   0   3  -2   36.15    1.63
  -1  -3  -2   38.76    1.66
  -1  -3  -2   34.92    1.63
   1  -3   2   34.57    1.60
   1  -3   2   33.90    1.69
   1  -3   2   33.41    1.65
   1  -3   2   35.49    1.65
   1  -3   2   33.65    1.77
  -1  -3  -2   33.22    1.67
   1   3   2   33.25    1.69
   1   3   2   34.59    1.61
  -1   3  -2   33.51    1.70
   1   3   2   33.27    1.67
  -1   3  -2   35.82    1.75
  -1   3  -2   34.17    1.73
   1   3   2   35.57    1.72
   2  -3   2  102.47    4.56
  -2  -3  -2  107.06    4.68
   2  -3   2  102.90    4.61
  -2  -3  -2  101.55    4.58
  -2  -3  -2   90.48    4.70
   2  -3   2  103.38    4.61
  -2   3  -2   97.20    4.64
   2   3   2  107.14    4.62
  -2   3  -2  108.35    4.60
   2   3   2  100.27    4.64
  -2   3  -2  104.73    4.63
   2   3   2  103.30    4.68
  -3  -3  -2    3.45    0.54
   3  -3   2    4.19    0.40
   3  -3   2    4.06    0.46
   3  -3   2    4.58    0.68
  -3  -3  -2    4.93    0.40
  -3   3  -2    4.48    0.72
  -3   3  -2    3.59    0.38
  -3   3  -2    4.27    0.59
   3   3   2    5.09    0.45
   3   3   2    4.80    0.40
  -4  -3  -2   75.51    3.53
   4  -3   2   61.38    3.50
  -4   3  -2   75.86    3.53
  -4   3  -2   75.52    3.65
   4   3   2   78.38    3.34
  -5  -3  -2    4.27    0.78
   5  -3   2    5.01    0.76
   5  -3   2    5.91    0.90
  -5   3  -2    3.53    0.72
   5   3   2    6.16    0.94
  -5   3  -2    4.55    0.88
   6  -3   2   48.99    2.65
  -6  -3  -2   48.51    2.65
   6  -3   2   49.90    2.79
  -6   3  -2   48.58    2.82
  -6   3  -2   44.51    2.64
   6   3   2   48.71    2.75
  -7  -3  -2    6.18    1.13
   7  -3   2    5.45    1.25
   7   3   2    4.39    1.07
  -7   3  -2    6.39    1.14
  -8  -3  -2   20.06    1.79
   8  -3   2   14.36    1.66
   8  -3   2   22.54    2.50
  -8   3  -2   19.16    1.83
   8   3   2   15.26    1.67
  -8   3  -2   14.85    1.72
   7  -4  -2   15.06    1.54
  -7  -4   2   11.90    1.49
   7  -4  -2   14.52    1.68
  -7  -4   2   15.47    1.63
  -7   4   2   13.67    1.76
   7   4  -2   12.80    1.51
  -7   4   2   11.99    1.41
  -6  -4   2   11.14    1.30
  -6  -4   2   12.17    1.29
   6  -4  -2   13.34    1.24
   6  -4  -2   11.13    1.32
   6   4  -2   11.64    1.38
  -6   4   2   14.14    1.31
  -6   4   2   10.08    1.36
  -5  -4   2    1.07    0.76
   5  -4  -2   -0.03    0.75
  -5  -4   2    0.18    0.72
  -5   4   2    0.74    0.71
   5   4  -2    0.23    0.74
  -5   4   2   -0.30    0.73
  -4  -4   2    1.77    0.67
   4  -4  -2    1.81    0.76
  -4  -4   2    0.74    0.66
   4   4  -2    1.53    0.67
  -4   4   2    2.33    0.72
  -4   4   2    0.43    0.59
   4   4  -2    1.01    0.34
  -3  -4   2   35.80    1.92
  -3  -4   2   33.43    1.93
   3  -4  -2   33.87    1.97
  -3   4   2   35.03    1.95
   3   4  -2   34.99    1.75
   3   4  -2   37.52    1.73
   3   4  -2   33.66    1.96
  -3   4   2   34.95    2.09
   2  -4  -2    8.52    0.83
  -2  -4   2    8.56    0.90
   2  -4  -2    7.60    0.80
  -2  -4   2    8.90    0.86
   2   4  -2    7.52    0.59
   2   4  -2    8.46    0.63
  -2   4   2    7.39    0.87
   2   4  -2    9.07    0.90
  -1  -4   2   -0.09    0.45
   1  -4  -2    0.89    0.22
  -1  -4   2    0.22    0.46
   1  -4  -2   -0.02    0.44
  -1   4   2    0.18    0.49
  -1   4   2    0.13    0.43
   1   4  -2    0.42    0.24
   0  -4  -2   45.53    2.07
   0  -4  -2   40.83    2.18
   0  -4   2   42.17    2.18
   0   4  -2   43.55    2.00
   0   4   2   44.48    2.26
   0   4  -2   39.56    2.22
   0   4   2   44.05    2.05
   1  -4   2   55.81    2.72
   1  -4   2   58.87    2.70
  -1  -4  -2   58.78    2.70
   1  -4   2   59.68    2.86
  -1  -4  -2   61.37    2.74
  -1  -4  -2   57.27    2.84
   1  -4   2   56.79    2.81
  -1   4  -2   54.83    2.89
   1   4   2   58.48    2.64
   1   4   2   57.92    2.87
   2  -4   2    0.23    0.26
   2  -4   2    0.14    0.52
  -2  -4  -2    0.67    0.53
  -2  -4  -2    0.16    0.85
   2  -4   2    0.35    0.48
  -2   4  -2    0.21    0.59
  -2   4  -2    0.05    0.47
   2   4   2   -0.17    0.23
   2   4   2    0.36    0.54
  -3  -4  -2   33.51    1.52
   3  -4   2   31.68    1.56
  -3  -4  -2   29.68    1.76
   3  -4   2   30.28    1.83
   3  -4   2   31.43    1.52
   3  -4   2   30.55    1.77
   3   4   2   27.11    1.73
  -3   4  -2   32.98    1.55
   3   4   2   28.49    1.71
   3   4   2   30.72    1.77
  -3   4  -2   30.25    1.75
  -3   4  -2   28.29    1.88
   4  -4   2   17.95    1.55
   4  -4   2   15.39    1.34
   4  -4   2   16.69    1.38
  -4  -4  -2   16.43    1.26
  -4  -4  -2   15.23    1.28
   4   4   2   15.06    1.33
  -4   4  -2   15.30    1.52
   4   4   2   15.65    1.36
  -4   4  -2   17.09    1.33
   4   4   2   16.32    1.17
  -5  -4  -2   36.68    2.17
   5  -4   2   35.87    2.25
  -5  -4  -2   37.61    2.10
   5  -4   2   39.45    2.22
  -5   4  -2   35.46    2.18
  -5   4  -2   35.17    2.33
   5   4   2   32.92    2.26
   5   4   2   32.72    2.15
   6  -4   2    4.51    1.10
  -6  -4  -2    4.48    1.04
  -6  -4  -2    3.83    1.02
   6  -4   2    4.06    1.22
  -6   4  -2    4.46    1.21
  -6   4  -2    3.81    1.00
   6   4   2    5.59    1.20
   6   4   2    5.57    1.07
   7  -4   2    6.66    1.41
   7  -4   2    8.22    1.51
  -7  -4  -2    9.33    1.33
   7  -4   2    7.64    1.58
  -7  -4  -2    7.88    1.42
  -7   4  -2    8.96    1.38
   7   4   2    7.30    1.31
  -7   4  -2    8.09    1.49
   7   4   2   10.95    1.62
   7  -5  -2    8.14    1.75
  -7  -5   2    7.28    1.55
  -7  -5   2    4.73    1.45
   7   5  -2    3.81    1.36
  -7   5   2    4.49    1.47
  -7   5   2    8.01    1.98
   6  -5  -2    0.23    1.20
  -6  -5   2    0.45    1.04
  -6  -5   2    0.29    1.06
  -6   5   2    1.26    1.06
  -6   5   2    0.48    1.28
   6   5  -2   -0.55    1.05
  -5  -5   2    4.49    1.02
  -5  -5   2    4.63    1.03
   5  -5  -2    4.98    1.06
   5   5  -2    4.36    1.16
   5   5  -2    5.18    1.18
  -5   5   2    3.87    1.18
  -5   5   2    4.64    1.13
  -4  -5   2   -0.14    0.74
   4  -5  -2   -0.07    0.81
  -4  -5   2    0.23    0.75
  -4   5   2   -0.02    0.95
   4   5  -2    0.16    0.84
   4   5  -2   -1.26    0.82
  -4   5   2   -0.34    0.76
   3  -5  -2   10.24    1.10
  -3  -5   2   14.09    1.40
  -3  -5   2   12.55    1.29
  -3   5   2   14.49    1.39
   3   5  -2   12.97    1.36
   3   5  -2   13.48    1.38
   3   5  -2   13.46    1.19
  -3   5   2   13.39    1.53
  -2  -5   2    2.96    0.77
   2  -5  -2    3.72    0.79
  -2  -5   2    2.93    0.75
   2  -5  -2    4.31    0.81
  -2   5   2    4.00    0.94
   2   5  -2    2.57    0.76
  -1  -5   2    1.98    0.73
  -1  -5   2    1.75    0.72
   1  -5  -2    3.52    0.73
   1  -5  -2    1.46    0.68
  -1   5   2    1.69    0.77
   1   5  -2    1.17    0.64
   1   5  -2    2.17    0.40
   0  -5   2    1.95    0.68
   0  -5  -2    1.90    0.67
   0  -5  -2    1.58    0.64
   0   5   2    1.08    0.68
   0   5  -2    1.76    0.74
   1  -5   2    1.83    0.70
   1  -5   2    1.93    0.65
  -1  -5  -2    1.85    0.67
  -1  -5  -2    1.74    0.74
   1   5   2    0.99    0.62
  -1   5  -2    1.80    0.77
  -2  -5  -2   20.16    1.42
   2  -5   2   21.00    1.13
  -2  -5  -2   16.56    1.38
   2  -5   2   18.12    1.43
   2  -5   2   18.95    1.50
  -2   5  -2   17.69    1.43
   2   5   2   18.95    1.08
   2   5   2   18.07    1.51
  -2   5  -2   16.53    1.50
  -2   5  -2   19.36    1.50
   3  -5   2    1.54    0.54
  -3  -5  -2   -0.40    0.67
   3  -5   2    0.62    0.77
  -3  -5  -2    0.46    0.67
   3  -5   2    0.84    0.77
  -3   5  -2    0.32    0.73
   3   5   2    0.68    0.70
  -3   5  -2    0.20    0.68
   3   5   2   -0.13    0.70
  -3   5  -2    0.69    0.73
   4  -5   2   11.56    1.21
  -4  -5  -2   11.42    1.22
   4  -5   2   12.34    1.23
   4  -5   2   11.93    1.33
  -4  -5  -2   13.39    1.19
   4   5   2   11.83    1.18
  -4   5  -2    9.53    1.18
  -4   5  -2   11.98    0.98
  -4   5  -2   14.31    1.25
   4   5   2   11.51    1.17
   5  -5   2    6.44    1.20
   5  -5   2    5.10    0.58
  -5  -5  -2    4.81    1.08
  -5  -5  -2    5.38    1.07
   5  -5   2    4.67    1.23
  -5   5  -2    4.42    1.06
   5   5   2    5.06    1.09
   5   5   2    4.05    1.06
  -5   5  -2    9.16    1.47
   6  -5   2    7.46    1.45
   6  -5   2    8.48    1.59
  -6  -5  -2    9.20    1.38
  -6  -5  -2    8.85    1.36
   6  -5   2    8.27    1.30
   6   5   2    6.78    1.36
   6   5   2    8.96    1.43
  -6   5  -2    9.87    1.35
  -6   5  -2    6.75    1.45
  -7  -5  -2    3.63    1.60
  -7  -5  -2    1.03    1.44
   7  -5   2    1.61    2.10
   7  -5   2   -0.59    1.67
  -7   5  -2    2.06    2.11
   7   5   2    0.47    1.29
  -7   5  -2    0.82    1.95
   5  -6  -2    3.02    1.32
  -5  -6   2    4.20    1.26
  -5  -6   2    3.97    1.32
  -5   6   2    5.15    1.44
  -5   6   2    3.62    1.28
   5   6  -2    4.30    1.53
   5   6  -2    4.42    1.40
  -4  -6   2    5.45    1.19
   4  -6  -2    4.94    1.16
  -4  -6   2    2.53    1.01
  -4   6   2    3.43    1.43
  -4   6   2    3.55    1.19
   4   6  -2    3.87    1.18
   4   6  -2    5.13    1.28
  -4   6   2    3.79    1.07
  -3  -6   2    1.80    0.98
  -3  -6   2    1.04    0.84
   3  -6  -2    1.35    0.93
  -3   6   2    0.04    0.87
   3   6  -2    0.09    0.97
   3   6  -2    1.03    1.04
  -3   6   2    1.35    0.92
   2  -6  -2    0.99    0.92
  -2  -6   2    0.26    0.78
   2  -6  -2    0.39    0.93
  -2  -6   2    0.16    0.88
   2   6  -2    0.80    0.83
   2   6  -2    0.57    0.91
  -2   6   2    0.43    0.85
   1  -6  -2    8.34    1.06
  -1  -6   2    7.81    1.07
   1  -6  -2    8.61    1.09
   1   6  -2    8.64    0.80
  -1   6   2    8.91    1.21
   1   6  -2    6.46    1.05
   0  -6  -2    2.72    0.78
   0  -6   2    2.92    0.87
   0  -6  -2    2.58    0.86
   0  -6   2    1.16    0.74
   0   6  -2    2.83    0.90
   0   6   2    2.71    1.02
   1  -6   2    0.34    0.84
   1  -6   2    0.50    0.80
  -1  -6  -2    0.74    0.76
  -1  -6  -2    0.42    0.82
   1  -6   2    0.84    0.86
   1   6   2    1.46    0.83
  -1   6  -2    0.95    0.90
  -1   6  -2    1.41    0.82
  -2  -6  -2    8.05    1.13
  -2  -6  -2    6.65    1.04
   2  -6   2    7.51    1.12
   2  -6   2    7.64    1.12
   2   6   2    7.97    1.22
  -2   6  -2    8.04    1.17
  -2   6  -2    9.77    1.37
   2   6   2    9.24    0.74
  -2   6  -2    7.07    1.07
   3  -6   2   26.36    1.95
  -3  -6  -2   20.28    1.90
   3  -6   2   23.53    1.95
  -3  -6  -2   21.28    1.91
   3   6   2   17.31    2.06
  -3   6  -2   22.00    2.05
   3   6   2   19.80    1.85
  -3   6  -2   26.65    1.97
  -3   6  -2   21.71    2.00
  -4  -6  -2    1.01    0.98
  -4  -6  -2    1.49    1.13
   4  -6   2    1.37    1.13
   4  -6   2    2.09    0.95
   4   6   2    0.67    1.07
   4   6   2    0.89    1.17
  -4   6  -2    0.39    1.13
  -4   6  -2    1.52    1.22
  -4   6  -2    1.25    1.03
  -5  -6  -2    1.31    1.19
  -5  -6  -2    0.82    1.36
   5  -6   2    0.00    1.38
  -5   6  -2   -0.13    1.12
  -5   6  -2    0.32    1.11
   5   6   2    0.09    1.28
   5   6   2    0.04    1.47
   4  -7  -2    0.78    1.36
  -4  -7   2    0.29    1.32
  -4  -7   2    0.18    1.45
  -4   7   2    1.72    1.41
  -4   7   2    0.69    1.56
   4   7  -2    1.73    1.76
   4   7  -2    0.18    1.69
  -3  -7   2    9.21    1.54
  -3  -7   2    8.02    1.50
   3  -7  -2   12.29    1.63
  -3   7   2    7.52    1.41
  -3   7   2    8.90    1.49
   3   7  -2    8.96    1.56
   3   7  -2    7.53    1.60
  -2  -7   2    1.64    1.27
   2  -7  -2    1.67    1.16
   2  -7  -2    1.72    1.06
   2   7  -2    1.60    1.21
  -2   7   2    2.17    1.21
  -2   7   2    2.50    1.22
  -1  -7   2   12.32    1.35
   1  -7  -2   15.51    1.53
  -1  -7   2   11.89    1.45
   1  -7  -2   12.17    1.53
   1   7  -2   10.24    1.42
  -1   7   2   16.61    1.88
   0  -7  -2    1.91    0.93
   0  -7   2    0.09    0.90
   0  -7   2   -0.02    1.28
   0  -7   2    2.89    1.22
   0  -7  -2    0.90    1.17
   0   7   2    0.18    1.13
   0   7  -2    0.13    1.17
   1  -7   2    2.04    1.04
   1  -7   2    3.45    1.12
  -1  -7  -2    2.64    1.23
  -1  -7  -2    3.78    1.08
  -1   7  -2    3.53    1.20
  -1   7  -2    2.33    1.40
  -1   7  -2    2.95    1.32
   1   7   2    4.05    1.40
   2  -7   2    7.05    1.25
  -2  -7  -2    3.55    1.11
   2  -7   2    6.04    1.38
  -2  -7  -2    5.31    1.46
   2   7   2    5.64    1.24
  -2   7  -2    5.78    1.53
  -2   7  -2    6.14    1.29
  -2   7  -2    7.43    1.59
   3  -7   2    2.07    1.18
  -3  -7  -2    1.77    1.51
   3  -7   2    1.36    1.25
  -3   7  -2    2.58    1.48
   3   7   2    0.67    1.55
  -3   7  -2    2.59    1.31
  -3   7  -2    3.63    1.64
   4  -7   2    6.75    1.67
  -4  -7  -2    6.46    1.80
  -4  -7  -2    6.38    1.49
  -4   7  -2    3.72    1.59
  -4   7  -2    6.99    1.62
  -4   7  -2    6.52    1.75
   4   7   2    9.80    2.08
  -9   0   3   -1.77    1.25
   9   0  -3   -0.28    1.53
   8   0  -3    0.55    1.05
  -8   0   3   -0.95    0.94
  -8   0   3    0.28    0.93
   7   0  -3   -0.22    0.75
  -7   0   3   -0.29    0.67
  -7   0   3   -0.51    0.78
  -6   0   3    0.31    0.63
   6   0  -3    0.04    0.58
  -6   0   3   -0.25    0.51
   5   0  -3   -0.29    0.24
  -5   0   3    0.05    0.48
  -5   0   3    0.01    0.49
   5   0  -3   -0.38    0.50
  -4   0   3    0.26    0.15
   4   0  -3    0.07    0.21
   4   0  -3    0.17    0.40
  -4   0   3    0.53    0.45
  -3   0   3    0.94    0.19
   3   0  -3    0.30    0.22
  -3   0   3    0.04    0.27
  -3   0   3   -0.40    0.16
  -3   0   3   -0.16    0.22
   3   0  -3   -0.38    0.18
   3   0  -3   -0.20    0.14
  -2   0   3    0.11    0.13
   2   0  -3    0.21    0.14
  -2   0   3    0.07    0.14
   2   0  -3   -0.06    0.13
   2   0  -3    0.38    0.12
  -2   0   3    0.35    0.13
  -2   0   3    0.29    0.15
   1   0  -3   -0.04    0.12
  -1   0   3   -0.08    0.09
  -1   0   3   -0.04    0.12
   1   0  -3    0.08    0.14
   1   0  -3   -0.14    0.13
  -1   0   3    0.07    0.09
   1   0  -3   -0.08    0.12
  -1   0   3    0.11    0.11
   0   0   3    0.12    0.08
   0   0  -3   -0.05    0.11
   0   0  -3   -0.09    0.11
   0   0  -3    0.07    0.10
   0   0   3    0.04    0.13
   0   0  -3    0.00    0.14
   0   0   3    0.03    0.09
  -1   0  -3   -0.09    0.10
   1   0   3   -0.07    0.15
   1   0   3   -0.10    0.10
   1   0   3   -0.06    0.11
  -1   0  -3   -0.04    0.15
  -1   0  -3    0.09    0.12
   1   0   3    0.21    0.13
  -1   0  -3    0.13    0.15
  -1   0  -3    0.12    0.09
  -1   0  -3   -0.01    0.12
   1   0   3   -0.26    0.14
  -2   0  -3    0.16    0.14
  -2   0  -3    0.49    0.12
  -2   0  -3   -0.05    0.16
   2   0   3    0.05    0.13
   2   0   3    0.14    0.18
  -2   0  -3    0.57    0.22
   2   0   3   -0.14    0.10
  -2   0  -3   -0.03    0.12
  -3   0  -3    0.49    0.18
  -3   0  -3   -0.68    0.25
  -3   0  -3    0.16    0.17
  -3   0  -3   -0.54    0.22
   3   0   3   -0.32    0.15
   3   0   3    0.41    0.20
  -3   0  -3    0.21    0.20
  -3   0  -3    0.30    0.18
   3   0   3   -0.59    0.23
   3   0   3   -0.64    0.22
  -4   0  -3   -0.86    0.24
   4   0   3   -0.61    0.21
  -4   0  -3    0.11    0.15
  -4   0  -3    0.47    0.20
  -4   0  -3    0.18    0.43
  -4   0  -3    0.14    0.39
   4   0   3    0.17    0.39
  -5   0  -3    0.74    0.55
   5   0   3   -0.12    0.32
  -5   0  -3   -0.50    0.27
  -5   0  -3    0.26    0.56
   5   0   3    0.35    0.58
  -5   0  -3    0.00    0.47
  -6   0  -3    0.56    0.55
   6   0   3    0.02    0.71
  -6   0  -3    0.41    0.61
  -7   0  -3    0.20    0.88
  -7   0  -3    0.25    0.75
  -7   0  -3   -0.14    0.77
   7   0   3    0.86    1.10
   8   0   3   -0.21    1.29
  -8   0  -3   -0.17    1.09
  -8   0  -3   -0.92    0.90
  -8   0  -3    0.03    1.04
   9   0   3    0.54    1.34
  -9   0  -3    0.33    1.37
  -9   0  -3   -0.64    1.34
  -9  -1   3    0.78    1.34
   9  -1  -3   -0.53    1.27
  -9  -1   3    0.79    1.40
   9   1  -3    0.29    1.33
  -9   1   3    0.11    1.25
  -9   1   3    2.93    1.49
  -8  -1   3    1.87    1.01
  -8  -1   3    1.40    1.00
   8  -1  -3    1.88    1.02
   8   1  -3    1.06    1.04
  -8   1   3    1.66    0.94
  -8   1   3    2.11    0.93
  -7  -1   3    4.25    0.93
  -7  -1   3    2.91    0.80
   7  -1  -3    5.06    1.00
  -7   1   3    2.57    0.80
  -7   1   3    3.89    0.92
   7   1  -3    3.71    0.90
  -6  -1   3   10.89    1.14
   6  -1  -3    9.83    1.03
   6  -1  -3   12.32    1.08
  -6   1   3   10.94    1.17
   6   1  -3   13.23    0.76
  -6   1   3   12.26    1.24
   6   1  -3   10.57    1.21
   5  -1  -3    4.54    0.56
  -5  -1   3    4.54    0.68
   5  -1  -3    4.83    0.65
  -5  -1   3    4.05    0.64
   5   1  -3    5.62    0.77
   5   1  -3    4.32    0.41
  -5   1   3    5.13    0.68
  -5   1   3    4.56    0.45
  -4  -1   3    3.47    0.51
   4  -1  -3    4.70    0.39
   4  -1  -3    4.58    0.49
  -4  -1   3    3.56    0.38
  -4   1   3    3.27    0.38
  -4   1   3    4.37    0.67
   4   1  -3    2.80    0.51
  -4   1   3    5.01    0.47
   4   1  -3    2.13    0.47
  -3  -1   3    6.39    0.50
   3  -1  -3    6.78    0.52
  -3  -1   3    8.93    0.67
   3  -1  -3    6.81    0.49
   3  -1  -3    6.89    0.54
  -3  -1   3    6.72    0.52
  -3   1   3    8.09    0.48
  -3   1   3    7.73    0.51
  -3   1   3    6.39    0.52
   3   1  -3    6.99    0.48
   3   1  -3    6.58    0.52
  -3   1   3    8.89    0.50
   2  -1  -3    2.14    0.27
   2  -1  -3    1.93    0.23
  -2  -1   3    2.59    0.27
  -2  -1   3    1.23    0.25
   2  -1  -3    2.14    0.23
  -2  -1   3    2.14    0.22
  -2   1   3    1.77    0.22
  -2   1   3    2.54    0.26
  -2   1   3    1.30    0.21
  -2   1   3    1.86    0.23
   2   1  -3    1.00    0.24
   2   1  -3    2.12    0.21
   2   1  -3    1.54    0.18
  -1  -1   3   55.74    2.47
   1  -1  -3   53.09    2.51
   1  -1  -3   55.96    2.49
  -1  -1   3   55.71    2.51
  -1  -1   3   56.12    2.46
  -1  -1   3   56.35    2.52
   1   1  -3   56.99    2.48
   1   1  -3   54.88    2.53
  -1   1   3   55.12    2.52
   1   1  -3   57.50    2.50
  -1   1   3   57.44    2.51
  -1   1   3   54.24    2.49
  -1   1   3   54.90    2.52
  -1   1   3   56.07    2.48
   1   1  -3   56.63    2.46
   1   1  -3   55.08    2.47
   0  -1   3   24.35    1.16
   0  -1   3   24.08    1.13
   0  -1   3   24.47    1.17
   0  -1  -3   24.48    1.16
   0  -1  -3   24.52    1.18
   0  -1   3   25.05    1.16
   0  -1   3   24.03    1.16
   0   1  -3   26.10    1.10
   0   1   3   25.43    1.14
   0   1  -3   25.29    1.17
   0   1  -3   22.06    1.14
   0   1   3   25.72    1.15
   0   1  -3   24.61    1.17
   0   1  -3   24.97    1.17
   0   1   3   25.36    1.10
   0   1  -3   24.19    1.17
   0   1   3   25.37    1.18
  -1  -1  -3   30.08    1.38
   1  -1   3   29.02    1.37
  -1  -1  -3   29.53    1.37
   1  -1   3   30.15    1.35
   1  -1   3   30.68    1.41
  -1  -1  -3   29.07    1.39
   1  -1   3   28.94    1.40
   1  -1   3   29.46    1.33
   1  -1   3   29.11    1.40
   1   1   3   30.32    1.40
   1   1   3   28.33    1.39
   1   1   3   29.82    1.38
  -1   1  -3   27.98    1.42
  -1   1  -3   29.46    1.38
  -1   1  -3   30.86    1.39
   1   1   3   31.26    1.36
  -1   1  -3   31.45    1.39
  -1   1  -3   29.04    1.36
  -2  -1  -3    5.84    0.47
   2  -1   3    5.87    0.37
   2  -1   3    6.38    0.40
  -2  -1  -3    6.01    0.46
   2  -1   3    6.34    0.47
  -2  -1  -3    6.26    0.43
   2  -1   3    6.45    0.46
   2  -1   3    5.83    0.43
   2  -1   3    5.85    0.35
  -2  -1  -3    5.78    0.42
   2   1   3    6.29    0.46
   2   1   3    6.17    0.40
   2   1   3    5.15    0.46
   2   1   3    6.84    0.38
  -2   1  -3    5.83    0.44
  -2   1  -3    4.93    0.45
  -2   1  -3    5.83    0.38
  -2   1  -3    4.97    0.42
  -2   1  -3    6.55    0.41
  -3  -1  -3  103.20    4.65
  -3  -1  -3  103.93    4.66
   3  -1   3  101.65    4.71
   3  -1   3  101.56    4.62
  -3  -1  -3  109.38    4.74
   3  -1   3  107.73    4.70
   3  -1   3  105.36    4.73
  -3  -1  -3  103.27    4.71
   3   1   3   96.81    4.72
   3   1   3  106.71    4.66
   3   1   3  107.82    4.70
  -3   1  -3  107.92    4.71
  -3   1  -3   98.80    4.69
  -3   1  -3  105.19    4.70
  -3   1  -3  104.94    4.62
  -4  -1  -3   20.99    1.07
  -4  -1  -3   20.89    1.08
   4  -1   3   21.72    1.34
  -4  -1  -3   21.21    1.30
  -4   1  -3   20.56    1.23
  -4   1  -3   21.67    1.08
   4   1   3   18.66    1.36
  -5  -1  -3   12.83    1.18
  -5  -1  -3   12.61    1.05
   5  -1   3   13.57    1.29
  -5  -1  -3   13.67    0.79
   5   1   3   13.76    1.35
  -5   1  -3   12.34    1.00
  -5   1  -3   13.00    1.14
   5   1   3   12.89    1.24
  -5   1  -3   12.47    1.12
  -6  -1  -3    1.55    0.36
  -6  -1  -3    2.30    0.75
  -6  -1  -3    0.75    0.64
   6  -1   3    1.05    0.80
  -6   1  -3    1.38    0.69
   6   1   3    1.47    0.71
  -6   1  -3    1.39    0.66
   6   1   3    1.39    0.60
  -7  -1  -3    7.40    1.04
  -7  -1  -3    5.31    1.06
   7  -1   3    6.15    1.22
  -7  -1  -3    4.98    0.61
  -7   1  -3    5.64    0.92
   7   1   3    5.15    1.11
  -7   1  -3    6.15    1.00
  -7   1  -3    5.27    0.99
  -8  -1  -3   -0.09    1.04
  -8  -1  -3    0.25    1.00
   8  -1   3    0.98    1.41
  -8   1  -3    2.65    1.08
  -8   1  -3    0.00    0.98
  -8   1  -3    1.05    1.20
  -9  -1  -3   -1.11    1.37
  -9  -1  -3   -1.06    1.33
  -9   1  -3    0.03    1.33
  -9   1  -3   -1.09    1.79
  -9   1  -3    1.50    1.53
   9   1   3    0.45    1.39
  -8  -2   3    1.58    1.06
  -8  -2   3   -0.72    1.03
   8  -2  -3    0.87    1.09
   8   2  -3    0.41    1.04
  -8   2   3   -0.38    1.03
  -8   2   3   -0.73    0.91
   8   2  -3    0.35    1.28
  -7  -2   3    0.28    0.87
   7  -2  -3    0.05    0.79
  -7  -2   3    0.12    0.89
   7   2  -3    1.03    0.85
  -7   2   3   -0.32    0.63
   7   2  -3   -0.22    0.94
  -6  -2   3    2.83    0.73
   6  -2  -3    2.86    0.76
   6  -2  -3    3.11    0.84
  -6  -2   3    2.36    0.79
  -6   2   3    1.53    0.68
   6   2  -3    2.99    0.74
   6   2  -3    2.08    0.72
  -6   2   3    1.76    0.81
   5  -2  -3   36.15    2.06
  -5  -2   3   39.08    2.08
  -5  -2   3   39.68    2.05
   5  -2  -3   38.45    2.02
  -5   2   3   35.69    2.04
  -5   2   3   37.04    2.07
   5   2  -3   36.85    2.12
  -4  -2   3    3.35    0.38
  -4  -2   3    3.39    0.60
   4  -2  -3    2.33    0.52
   4  -2  -3    3.70    0.66
  -4   2   3    2.35    0.49
   4   2  -3    2.16    0.52
  -4   2   3    2.60    0.34
   4   2  -3    2.59    0.56
   3  -2  -3   -0.55    0.29
  -3  -2   3    0.41    0.18
  -3  -2   3   -0.29    0.25
   3  -2  -3    0.44    0.24
   3  -2  -3    0.12    0.18
  -3   2   3   -0.58    0.18
   3   2  -3    0.11    0.26
  -3   2   3   -0.16    0.34
   3   2  -3   -0.18    0.23
  -3   2   3   -0.22    0.17
  -3   2   3    0.23    0.37
  -2  -2   3   67.12    3.11
   2  -2  -3   67.19    3.02
   2  -2  -3   64.84    3.10
   2  -2  -3   72.48    3.13
  -2  -2   3   62.22    3.09
  -2  -2   3   69.69    3.12
   2   2  -3   67.39    3.04
   2   2  -3   69.90    3.09
  -2   2   3   69.91    3.09
   2   2  -3   63.09    3.11
  -2   2   3   71.64    3.08
   2   2  -3   69.91    3.05
  -2   2   3   66.98    3.12
  -1  -2   3   51.58    2.58
   1  -2  -3   59.43    2.61
   1  -2  -3   56.90    2.57
  -1  -2   3   56.19    2.58
  -1  -2   3   53.48    2.58
   1  -2  -3   56.41    2.59
  -1  -2   3   58.57    2.56
   1   2  -3   55.58    2.52
   1   2  -3   56.56    2.57
   1   2  -3   54.84    2.58
  -1   2   3   58.85    2.56
   1   2  -3   57.77    2.57
  -1   2   3   56.65    2.63
  -1   2   3   57.90    2.58
   0  -2  -3    0.27    0.19
   0  -2  -3    0.24    0.15
   0  -2   3    0.25    0.21
   0  -2   3    0.09    0.18
   0  -2   3   -0.04    0.13
   0   2   3    0.55    0.09
   0   2  -3    0.24    0.15
   0   2   3   -0.04    0.18
   0   2  -3   -0.05    0.19
   0   2   3    0.45    0.16
   0   2  -3    0.40    0.14
   0   2   3    0.14    0.19
   1  -2   3   44.43    2.07
  -1  -2  -3   45.62    2.02
  -1  -2  -3   43.45    2.04
  -1  -2  -3   44.24    1.98
   1  -2   3   43.30    2.01
   1  -2   3   44.58    2.05
   1   2   3   43.47    2.03
  -1   2  -3   42.84    2.09
   1   2   3   43.11    2.04
   1   2   3   44.52    2.03
  -1   2  -3   43.12    2.03
  -1   2  -3   42.93    2.01
  -1   2  -3   45.97    2.05
  -1   2  -3   44.31    2.01
   2  -2   3   42.55    2.09
  -2  -2  -3   44.43    2.05
   2  -2   3   42.98    2.01
   2  -2   3   43.65    2.06
  -2  -2  -3   44.33    2.08
  -2  -2  -3   42.89    2.04
   2  -2   3   43.99    2.09
  -2   2  -3   42.92    2.01
  -2   2  -3   46.51    2.08
   2   2   3   46.96    2.05
   2   2   3   40.76    2.07
  -2   2  -3   41.70    2.12
  -2   2  -3   42.83    2.04
   2   2   3   47.45    2.07
   2   2   3   44.66    2.04
   3  -2   3    0.54    0.19
  -3  -2  -3   -0.38    0.48
  -3  -2  -3    0.63    0.18
   3  -2   3    0.52    0.24
   3  -2   3    0.98    0.31
   3  -2   3    0.71    0.41
  -3  -2  -3    0.44    0.19
   3  -2   3    0.35    0.52
   3   2   3    0.66    0.24
  -3   2  -3    0.21    0.28
  -3   2  -3    0.39    0.25
   3   2   3    0.34    0.30
  -3   2  -3    0.45    0.20
  -3   2  -3    0.53    0.23
  -3   2  -3    0.25    0.23
  -4  -2  -3    0.48    0.26
  -4  -2  -3    1.02    0.47
  -4  -2  -3    1.37    0.52
   4  -2   3    0.90    0.22
  -4   2  -3    1.28    0.62
  -4   2  -3    1.23    0.46
   4   2   3    0.87    0.53
  -4   2  -3    0.80    0.34
  -5  -2  -3    2.48    0.62
   5  -2   3    5.12    0.80
  -5  -2  -3    2.43    0.68
  -5  -2  -3    2.22    0.38
  -5   2  -3    2.55    0.73
  -5   2  -3    1.70    0.54
  -5   2  -3    2.46    0.61
   5   2   3    2.75    0.77
  -6  -2  -3    3.30    0.78
   6  -2   3    2.92    0.91
  -6  -2  -3    3.02    0.85
  -6   2  -3    1.93    0.67
  -7  -2  -3    0.97    0.88
  -7  -2  -3    0.69    0.90
   7  -2   3    1.13    1.05
  -7   2  -3    0.44    0.83
  -7   2  -3    1.25    0.89
  -8  -2  -3    0.65    1.08
   8  -2   3    1.30    1.58
  -8  -2  -3   -0.43    1.13
  -8   2  -3    1.16    1.16
   8   2   3   -1.58    1.00
  -8   2  -3   -0.01    1.29
  -8   2  -3    1.76    1.12
   8  -3  -3    1.89    1.31
  -8  -3   3    1.78    1.19
  -8  -3   3    2.13    1.34
   8   3  -3    2.84    1.27
  -8   3   3    0.59    1.03
   8   3  -3    1.03    1.64
  -7  -3   3    5.46    1.12
   7  -3  -3    4.49    1.10
  -7  -3   3    4.28    1.14
  -7   3   3    4.18    1.28
   7   3  -3    5.25    1.18
  -7   3   3    5.90    1.05
   7   3  -3    3.97    1.01
   6  -3  -3    2.04    0.81
   6  -3  -3    3.07    0.85
  -6  -3   3    2.17    0.85
  -6  -3   3    1.17    0.81
   6   3  -3    3.70    0.92
  -6   3   3    1.76    0.89
  -6   3   3    2.38    0.78
   5  -3  -3    0.34    0.65
   5  -3  -3   -0.60    0.37
  -5  -3   3    0.12    0.61
  -5   3   3    0.09    0.66
  -5   3   3    0.15    0.63
   5   3  -3   -0.11    0.71
  -4  -3   3   59.90    3.08
   4  -3  -3   64.51    3.13
   4  -3  -3   65.51    2.91
  -4   3   3   61.94    3.10
   4   3  -3   63.85    3.15
  -4   3   3   62.63    3.15
   3  -3  -3   52.23    2.28
  -3  -3   3   50.97    2.49
  -3  -3   3   49.40    2.50
   3  -3  -3   49.94    2.49
  -3   3   3   49.74    2.54
   3   3  -3   50.56    2.38
   3   3  -3   47.33    2.49
   3   3  -3   51.02    2.33
  -3   3   3   48.57    2.48
  -2  -3   3    7.99    0.55
   2   3  -3    7.36    0.62
  -2   3   3    9.26    0.64
   2   3  -3    7.25    0.55
   2   3  -3    7.40    0.55
   1  -3  -3    1.99    0.54
   1  -3  -3    1.61    0.28
  -1  -3   3    1.96    0.24
  -1  -3   3    2.02    0.31
   1  -3  -3    1.69    0.30
   1   3  -3    2.16    0.43
  -1   3   3    1.44    0.29
  -1   3   3    2.07    0.51
   1   3  -3    1.55    0.30
   1   3  -3    2.70    0.31
   1   3  -3    1.85    0.27
   0  -3   3  218.98    9.57
   0  -3   3  215.21    9.50
   0  -3   3  207.53    9.56
   0  -3  -3  214.64    9.56
   0  -3   3  214.68    9.54
   0  -3  -3  217.91    9.51
   0   3  -3  221.52    9.57
   0   3   3  216.38    9.57
   0   3  -3  221.73    9.55
   0   3  -3  217.31    9.59
   0   3   3  223.47    9.50
   0   3  -3  204.91    9.50
   0   3   3  213.86    9.60
   0   3   3  212.72    9.55
   1  -3   3   12.71    0.70
   1  -3   3   11.19    0.73
  -1  -3  -3   12.70    0.67
  -1  -3  -3   13.01    0.73
  -1  -3  -3   11.10    0.70
   1  -3   3   11.65    0.68
   1  -3   3   10.12    0.91
   1   3   3   12.60    0.86
   1   3   3   12.62    0.70
  -1   3  -3   11.81    0.68
   1   3   3   11.82    0.79
  -1   3  -3   10.41    0.88
  -1   3  -3   12.20    0.76
  -1   3  -3   12.10    0.71
   2  -3   3   -0.01    0.15
   2  -3   3    0.51    0.22
  -2  -3  -3   -0.03    0.17
   2  -3   3    0.42    0.23
  -2  -3  -3    0.10    0.31
  -2  -3  -3    0.67    0.41
   2  -3   3   -0.01    0.41
  -2   3  -3    0.03    0.34
  -2   3  -3   -0.17    0.34
  -2   3  -3   -0.54    0.17
  -2   3  -3    0.13    0.16
   2   3   3    0.62    0.16
   2   3   3   -0.18    0.34
   3  -3   3    3.21    0.63
  -3  -3  -3    2.37    0.51
   3  -3   3    4.49    0.42
   3  -3   3    3.20    0.33
  -3  -3  -3    3.07    0.37
   3   3   3    2.50    0.42
  -3   3  -3    4.24    0.45
  -3   3  -3    3.69    0.71
  -3   3  -3    2.76    0.50
  -4  -3  -3   34.83    1.94
   4  -3   3   35.82    1.70
   4  -3   3   34.81    1.94
   4   3   3   35.97    1.74
  -4   3  -3   32.87    2.02
  -4   3  -3   31.22    1.90
   5  -3   3    1.44    0.78
   5  -3   3    1.15    0.68
  -5  -3  -3    0.88    0.72
  -5   3  -3    0.74    0.71
  -5   3  -3    0.36    0.62
  -6  -3  -3    1.62    0.82
   6  -3   3    0.59    0.83
   6  -3   3    0.30    0.91
  -6   3  -3    1.07    0.87
  -6   3  -3    0.15    0.70
   7  -3   3    0.78    1.16
  -7  -3  -3    0.30    0.97
   7   3   3    1.85    1.00
  -7   3  -3    0.03    0.91
  -8  -3  -3    7.21    1.46
   8  -3   3   10.69    2.18
  -8   3  -3    7.94    1.47
  -8   3  -3    5.71    1.49
   8   3   3    7.26    1.49
  -7  -4   3    1.56    1.17
   7  -4  -3    0.29    1.30
   7  -4  -3   -0.52    1.22
  -7  -4   3    0.20    0.97
   7   4  -3   -0.42    0.98
   7   4  -3    0.14    1.29
  -7   4   3   -1.67    1.44
  -7   4   3   -0.41    0.97
  -6  -4   3    0.02    0.88
   6  -4  -3   -0.77    0.99
  -6  -4   3   -0.93    0.85
   6  -4  -3   -0.41    0.92
  -6   4   3    0.19    0.82
  -6   4   3   -0.63    1.10
   6   4  -3    0.81    0.92
  -5  -4   3    9.20    1.12
   5  -4  -3   11.93    0.75
   5  -4  -3    9.60    1.13
  -5  -4   3   10.74    1.13
  -5   4   3   10.64    1.19
  -5   4   3    7.68    0.94
   5   4  -3    7.63    1.03
  -4  -4   3    1.08    0.67
  -4  -4   3    0.71    0.64
   4  -4  -3    0.43    0.67
  -4   4   3   -0.24    0.69
  -4   4   3    0.63    0.58
   4   4  -3    0.44    0.73
   3  -4  -3    0.13    0.52
  -3  -4   3   -0.42    0.54
  -3  -4   3    0.17    0.57
   3   4  -3    0.28    0.23
   3   4  -3    0.15    0.58
  -3   4   3    0.15    0.58
  -3   4   3   -0.69    0.49
   3   4  -3   -0.39    0.33
  -2  -4   3   -0.26    0.54
  -2  -4   3    0.53    0.54
   2  -4  -3   -0.01    0.45
   2  -4  -3    0.36    0.54
   2   4  -3   -0.34    0.49
   2   4  -3    0.07    0.23
  -2   4   3   -0.40    0.58
  -1  -4   3    1.64    0.52
  -1  -4   3    2.19    0.54
   1  -4  -3    4.05    0.38
   1  -4  -3    1.60    0.48
   1   4  -3    2.74    0.34
  -1   4   3    2.97    0.69
  -1   4   3    2.06    0.48
   0  -4   3   14.73    1.11
   0  -4  -3   15.79    0.85
   0  -4   3   15.54    0.85
   0  -4  -3   14.30    1.10
   0  -4   3   13.97    1.13
   0   4  -3   13.82    0.83
   0   4   3   13.95    1.13
   0   4  -3   15.29    1.15
   1  -4   3   18.78    0.98
  -1  -4  -3   17.63    0.97
   1  -4   3   17.81    1.22
  -1  -4  -3   17.53    1.23
   1  -4   3   18.31    1.18
  -1   4  -3   16.99    0.96
   1   4   3   19.00    0.92
  -1   4  -3   15.14    1.26
   1   4   3   17.69    1.29
  -2  -4  -3    1.63    0.34
   2  -4   3    1.87    0.62
  -2  -4  -3    2.49    0.61
   2  -4   3    3.85    0.42
  -2  -4  -3    1.38    0.93
   2  -4   3    3.51    0.39
   2  -4   3    2.63    0.55
  -2   4  -3    2.87    0.67
   2   4   3    3.26    0.69
  -2   4  -3    2.51    0.52
   2   4   3    2.56    0.35
  -2   4  -3    2.84    0.32
  -3  -4  -3    0.87    0.60
  -3  -4  -3    2.32    0.29
   3  -4   3    1.43    0.60
   3  -4   3    2.34    0.55
   3  -4   3    1.48    0.63
   3   4   3    2.14    0.72
  -3   4  -3    2.30    0.62
  -3   4  -3    2.55    0.38
   3   4   3    1.03    0.65
   3   4   3    1.67    0.58
  -3   4  -3    1.23    0.57
  -4  -4  -3    1.13    0.62
   4  -4   3    0.63    0.75
   4  -4   3   -0.04    0.55
   4  -4   3    0.00    0.66
  -4  -4  -3   -0.21    0.56
  -4   4  -3    0.16    0.62
   4   4   3   -0.47    0.70
  -4   4  -3   -0.28    0.74
   4   4   3   -0.82    0.70
   4   4   3    0.28    0.69
  -5  -4  -3    3.58    0.86
   5  -4   3    4.49    0.99
  -5  -4  -3    3.08    0.79
   5  -4   3    3.81    0.91
  -5   4  -3    2.74    1.01
   5   4   3    3.54    0.91
  -5   4  -3    4.66    0.87
   5   4   3    3.26    0.91
  -6  -4  -3    1.56    0.96
   6  -4   3   -0.24    0.97
  -6  -4  -3    0.37    0.94
   6  -4   3    0.39    1.12
  -6   4  -3    0.96    0.87
  -6   4  -3   -0.35    0.90
   6   4   3    0.54    1.18
   6   4   3    0.68    0.91
   7  -4   3    2.94    1.47
  -7  -4  -3    2.36    1.20
  -7  -4  -3    1.83    1.29
  -7   4  -3    2.23    1.20
   7   4   3    3.59    1.65
   7   4   3    2.93    1.12
   7  -5  -3    1.87    1.66
  -7  -5   3    1.46    1.39
  -7  -5   3    1.06    1.39
   7   5  -3    0.16    1.40
   7   5  -3    1.67    1.70
  -7   5   3   -0.01    1.58
  -7   5   3    0.60    1.29
   6  -5  -3    6.62    1.35
  -6  -5   3    6.76    1.27
  -6  -5   3    8.99    1.33
  -6   5   3    7.69    1.50
   6   5  -3    7.64    1.25
  -6   5   3    9.57    1.37
   5  -5  -3    3.15    1.04
  -5  -5   3    1.38    0.81
  -5  -5   3    3.80    1.00
  -5   5   3    2.59    0.97
   5   5  -3    3.08    1.10
  -5   5   3    3.30    0.92
  -4  -5   3   -0.16    0.73
  -4  -5   3    0.77    0.76
   4  -5  -3    1.71    0.90
  -4   5   3    1.01    0.80
   4   5  -3    0.61    0.88
   4   5  -3    1.88    0.91
  -4   5   3    0.29    1.04
  -3  -5   3    1.62    0.77
   3  -5  -3    0.83    0.77
  -3  -5   3    2.06    0.80
   3   5  -3    0.88    0.80
   3   5  -3    2.39    0.82
  -3   5   3    1.42    0.79
   3   5  -3    2.16    0.82
  -3   5   3    2.37    0.74
   2  -5  -3   14.07    1.35
  -2  -5   3   12.86    1.31
  -2  -5   3   12.51    1.27
   2  -5  -3   14.85    1.34
   2   5  -3   13.64    1.33
  -2   5   3   15.28    1.36
   2   5  -3   14.70    1.34
   1  -5  -3    0.45    0.67
  -1  -5   3    1.23    0.70
   1  -5  -3   -0.06    0.58
  -1  -5   3    0.22    0.57
   1   5  -3   -0.20    0.70
  -1   5   3   -0.34    0.64
   1   5  -3    0.06    0.31
   0  -5  -3    6.20    0.80
   0  -5  -3    4.76    0.75
   0  -5   3    5.65    0.85
   0   5   3    5.25    0.84
   0   5  -3    4.55    0.80
   1  -5   3    9.37    1.02
  -1  -5  -3   11.41    0.99
   1  -5   3   11.06    0.99
  -1   5  -3    6.82    0.92
   1   5   3    8.85    1.03
  -1   5  -3    9.16    0.88
   2  -5   3   50.99    2.66
  -2  -5  -3   51.33    2.73
   2  -5   3   49.01    2.74
   2   5   3   48.65    2.71
  -2   5  -3   54.38    2.66
   2   5   3   51.93    2.43
  -2   5  -3   51.44    2.69
  -2   5  -3   50.83    2.80
  -3  -5  -3    4.50    0.84
   3  -5   3    4.87    0.84
   3  -5   3    4.93    0.86
  -3  -5  -3    5.60    0.82
   3  -5   3    4.69    0.93
   3   5   3    3.71    0.83
   3   5   3    5.07    0.91
  -3   5  -3    4.41    0.90
  -3   5  -3    4.55    0.83
  -3   5  -3    3.23    0.77
  -4  -5  -3    1.29    0.86
   4  -5   3    2.14    0.99
   4  -5   3    2.20    0.68
   4  -5   3    0.86    0.88
  -4  -5  -3    1.90    0.89
  -4   5  -3    2.22    1.03
  -4   5  -3    1.25    0.84
   4   5   3    3.48    0.87
   4   5   3    2.16    0.97
   5  -5   3    4.19    1.15
  -5  -5  -3    3.75    1.03
   5  -5   3    4.65    1.28
  -5  -5  -3    1.83    0.98
  -5   5  -3    3.93    1.27
  -5   5  -3    2.79    0.99
   5   5   3    3.60    1.17
   5   5   3    3.44    1.05
  -6  -5  -3   18.38    1.66
   6  -5   3   15.09    1.67
   6  -5   3   15.25    1.77
  -6  -5  -3   16.91    1.64
  -6   5  -3   10.68    1.52
   6   5   3   10.78    1.51
  -6   5  -3   14.79    1.57
   6   5   3   18.30    1.87
  -7  -5  -3    0.26    1.52
   7  -5   3    2.34    1.75
   7  -5   3    1.41    1.98
  -7   5  -3    1.19    1.91
  -7   5  -3    3.04    1.76
   5  -6  -3    4.90    1.34
  -5  -6   3    3.76    1.29
  -5  -6   3    2.87    1.28
  -5   6   3    3.79    1.27
  -5   6   3    4.11    1.44
   5   6  -3    4.06    1.50
   5   6  -3    3.21    1.45
  -4  -6   3    2.12    1.03
  -4  -6   3    3.12    1.08
   4  -6  -3    2.42    1.14
  -4   6   3    3.89    1.12
   4   6  -3    2.43    1.31
  -4   6   3    2.28    1.14
   4   6  -3    1.95    1.25
  -4   6   3    2.53    1.14
  -3  -6   3   12.50    1.32
   3  -6  -3   11.67    1.34
  -3  -6   3   10.58    1.21
   3   6  -3   10.06    1.31
  -3   6   3   10.64    1.26
  -3   6   3   11.58    1.39
   3   6  -3   12.90    1.38
   2  -6  -3   -0.14    0.79
  -2  -6   3   -0.75    0.86
  -2  -6   3    0.42    0.85
   2  -6  -3    0.43    0.80
   2   6  -3    0.40    0.89
  -2   6   3   -0.58    0.86
   2   6  -3   -0.50    0.87
   1  -6  -3   10.59    1.13
  -1  -6   3   11.76    1.21
   1  -6  -3   14.89    1.30
   1   6  -3   11.52    1.28
  -1   6   3   10.22    1.21
   1   6  -3   11.47    0.94
   0  -6  -3    1.50    0.77
   0  -6  -3    2.10    0.87
   0  -6   3    2.19    0.85
   0  -6   3    1.46    0.90
   0   6   3    1.15    0.79
   0   6  -3    1.44    0.86
   1  -6   3   35.95    2.27
   1  -6   3   34.30    2.33
  -1  -6  -3   37.73    2.26
  -1  -6  -3   38.62    2.27
   1  -6   3   38.92    2.29
  -1   6  -3   38.98    2.38
  -1   6  -3   40.32    2.28
  -1   6  -3   35.78    2.40
   1   6   3   32.60    2.36
   2  -6   3    0.07    0.84
   2  -6   3    0.58    0.90
   2  -6   3    0.24    0.94
  -2  -6  -3   -0.04    0.95
   2   6   3   -0.41    0.45
  -2   6  -3   -0.63    0.89
   2   6   3    0.60    1.00
  -2   6  -3    0.44    0.86
  -2   6  -3   -0.04    1.02
   3  -6   3   22.98    2.06
  -3  -6  -3   23.25    1.97
   3  -6   3   23.44    2.19
  -3  -6  -3   22.60    1.97
   3  -6   3   21.14    2.02
  -3   6  -3   23.33    2.15
  -3   6  -3   27.05    2.04
  -3   6  -3   22.77    2.05
   3   6   3   21.29    1.86
   3   6   3   22.93    1.94
   4  -6   3    1.97    1.37
   4  -6   3   -0.05    1.13
  -4  -6  -3    1.53    1.01
  -4  -6  -3    0.24    1.14
   4  -6   3    1.12    1.05
   4   6   3    0.15    1.06
  -4   6  -3    0.61    1.02
  -4   6  -3    0.38    1.29
   4   6   3    0.86    1.08
  -4   6  -3   -0.18    1.21
  -5  -6  -3    9.16    1.45
   5  -6   3    9.98    1.66
  -5  -6  -3   10.63    1.63
  -5   6  -3   11.21    1.54
  -5   6  -3   11.07    1.91
   5   6   3    6.55    1.48
   5   6   3    9.79    1.57
  -4  -7   3    9.83    1.60
  -4  -7   3    9.01    1.72
   4  -7  -3    9.46    1.91
  -4   7   3    7.08    3.40
  -4   7   3    6.03    1.70
   4   7  -3    8.15    1.87
   4   7  -3    6.97    1.91
  -3  -7   3    1.63    1.32
  -3  -7   3    3.02    1.30
   3  -7  -3    0.73    1.19
  -3   7   3    3.03    1.32
  -3   7   3    0.45    1.26
   3   7  -3    2.54    1.51
   3   7  -3    1.71    1.45
   2  -7  -3    2.16    1.02
  -2  -7   3    0.94    1.14
   2  -7  -3    1.54    1.22
   2   7  -3    1.54    1.22
   2   7  -3    0.71    1.31
  -2   7   3    1.36    1.09
  -2   7   3    2.07    1.49
  -1  -7   3    3.87    1.17
   1  -7  -3    4.46    1.33
   1  -7  -3    3.68    1.16
  -1   7   3    3.55    1.05
   1   7  -3    3.72    1.27
   0  -7  -3   16.78    1.62
   0  -7   3   13.35    1.42
   0  -7  -3   11.98    1.36
   0  -7   3   15.97    1.60
   0  -7   3   14.49    1.63
   0   7  -3   15.18    1.63
   0   7   3   16.65    1.80
   0   7  -3   13.13    1.55
  -1  -7  -3    2.44    1.03
   1  -7   3    1.21    1.15
   1  -7   3    1.95    1.27
   1  -7   3    1.76    1.05
  -1  -7  -3    0.09    1.24
   1   7   3   -0.16    1.34
  -1   7  -3    2.42    1.25
  -1   7  -3    0.68    1.19
  -1   7  -3    1.14    1.19
  -2  -7  -3    7.17    1.36
   2  -7   3    8.84    1.48
   2  -7   3    7.67    1.41
  -2  -7  -3    8.82    1.53
  -2   7  -3   10.93    1.68
   2   7   3    6.51    1.48
  -2   7  -3    6.05    1.38
  -2   7  -3    7.00    1.42
  -3  -7  -3    1.19    1.50
   3  -7   3    3.54    1.42
   3  -7   3    2.73    1.40
  -3   7  -3    3.24    1.68
  -3   7  -3    0.35    1.40
  -3   7  -3    3.71    1.64
   3   7   3    4.64    1.58
   4  -7   3    9.21    1.83
  -4  -7  -3    9.03    1.67
   4  -7   3    7.70    1.72
  -4  -7  -3   13.81    3.04
  -4   7  -3   11.75    2.02
   4   7   3   11.53    2.18
  -4   7  -3   11.91    1.88
  -4   7  -3    9.95    1.75
  -9   0   4   13.25    1.80
  -9   0   4   16.21    1.88
  -8   0   4    7.69    1.22
  -8   0   4    8.17    1.21
   8   0  -4    6.97    1.25
  -7   0   4    1.04    0.73
   7   0  -4    0.77    0.80
  -7   0   4    0.56    0.78
   6   0  -4    6.14    0.87
  -6   0   4    4.80    0.77
  -6   0   4    3.19    0.72
  -5   0   4  179.08    7.65
  -5   0   4  173.24    7.81
  -5   0   4  170.06    7.82
   5   0  -4  171.44    7.86
  -4   0   4    2.16    0.45
  -4   0   4    1.99    0.26
  -4   0   4    2.70    0.57
   4   0  -4    1.49    0.46
   4   0  -4    1.71    0.27
   3   0  -4   57.44    2.78
  -3   0   4   59.58    2.76
  -3   0   4   58.31    2.74
  -3   0   4   63.93    2.78
  -3   0   4   59.91    2.69
  -3   0   4   58.27    2.76
   3   0  -4   59.24    2.70
   3   0  -4   62.72    2.75
  -2   0   4   91.64    4.11
   2   0  -4   90.26    4.15
   2   0  -4   90.06    4.15
  -2   0   4   92.91    4.14
   2   0  -4   92.44    4.11
  -2   0   4   90.00    4.09
  -2   0   4   94.88    4.10
   2   0  -4   97.29    4.12
  -1   0   4  962.22   42.65
  -1   0   4  968.54   42.74
  -1   0   4  977.58   42.70
   1   0  -4  954.78   42.78
  -1   0   4 1000.00   42.75
   1   0  -4  997.62   42.88
   1   0  -4  975.52   42.79
   1   0  -4  959.58   42.79
   0   0  -4    0.20    0.12
   0   0  -4    0.26    0.20
   0   0   4    0.17    0.15
   0   0  -4    0.02    0.13
   0   0   4    0.27    0.10
   0   0  -4    0.17    0.16
   0   0   4    0.13    0.11
   0   0   4    0.11    0.10
   0   0   4    0.09    0.10
  -1   0  -4  270.57   12.12
   1   0   4  268.39   12.12
  -1   0  -4  275.88   12.13
  -1   0  -4  270.49   12.10
   1   0   4  277.27   12.09
   1   0   4  290.49   12.11
   1   0   4  283.34   12.12
   1   0   4  273.44   12.12
  -1   0  -4  278.31   12.12
  -2   0  -4   76.30    3.38
   2   0   4   73.89    3.35
  -2   0  -4   71.51    3.38
  -2   0  -4   76.72    3.38
   2   0   4   77.59    3.37
  -2   0  -4   71.64    3.31
   2   0   4   74.15    3.40
  -2   0  -4   76.60    3.35
   3   0   4  329.18   13.97
   3   0   4  338.13   14.01
  -3   0  -4  309.19   13.91
   3   0   4  318.73   13.93
  -3   0  -4  308.41   13.96
  -3   0  -4  304.41   13.98
  -3   0  -4  325.09   13.90
  -3   0  -4  320.94   13.95
   3   0   4  303.84   14.00
  -4   0  -4   27.37    1.50
  -4   0  -4   27.22    1.34
  -4   0  -4   27.85    1.34
   4   0   4   27.43    1.60
  -4   0  -4   26.99    1.53
  -4   0  -4   29.32    1.38
   4   0   4   26.99    1.57
   4   0   4   26.45    1.37
   5   0   4    0.24    0.37
  -5   0  -4    0.18    0.42
  -5   0  -4    0.30    0.49
  -5   0  -4    0.41    0.44
  -5   0  -4    0.56    0.29
   5   0   4    0.06    0.56
  -6   0  -4   23.18    1.55
   6   0   4   23.30    1.77
  -6   0  -4   20.05    1.54
  -6   0  -4   24.22    1.58
  -7   0  -4   32.76    2.08
   7   0   4   30.35    2.36
  -7   0  -4   30.81    2.05
  -7   0  -4   28.65    2.03
  -8   0  -4    0.62    1.10
  -8   0  -4   -0.31    1.19
   8   0   4   -2.13    1.24
  -8   0  -4   -0.07    1.02
  -9   0  -4    2.35    1.54
  -9   0  -4    3.95    1.51
  -9  -1   4    1.87    1.43
   9  -1  -4    0.02    1.34
  -9  -1   4    0.49    1.34
  -9   1   4   -0.13    1.23
   9   1  -4    0.81    1.44
  -9   1   4    1.11    1.29
  -8  -1   4    6.22    1.18
  -8  -1   4    6.93    1.17
   8  -1  -4    7.53    1.28
  -8   1   4    9.39    1.23
   8   1  -4    8.68    1.32
  -8   1   4    8.94    1.22
  -7  -1   4    0.80    0.80
   7  -1  -4    1.10    0.85
  -7  -1   4   -0.31    0.74
  -7   1   4    0.42    0.81
   7   1  -4   -0.11    0.82
  -7   1   4    1.18    0.81
   6  -1  -4   37.89    2.16
  -6  -1   4   37.99    2.19
  -6  -1   4   36.51    2.11
   6  -1  -4   38.78    2.05
   6   1  -4   35.53    2.19
  -6   1   4   36.60    2.14
   6   1  -4   40.48    1.87
  -6   1   4   38.19    2.16
  -5  -1   4   44.57    2.36
  -5  -1   4   47.41    2.36
   5  -1  -4   46.19    2.22
   5  -1  -4   47.18    2.38
  -5   1   4   44.97    2.37
   5   1  -4   46.74    2.18
   5   1  -4   44.53    2.42
  -5   1   4   46.81    2.20
  -4  -1   4  128.77    6.25
   4  -1  -4  135.32    6.28
  -4  -1   4  134.35    6.20
   4  -1  -4  139.09    6.24
   4  -1  -4  145.41    6.19
   4   1  -4  140.40    6.19
  -4   1   4  140.17    6.29
  -4   1   4  139.28    6.19
   4   1  -4  136.15    6.31
  -4   1   4  146.61    6.23
   4   1  -4  140.78    6.23
  -3  -1   4    8.23    0.52
  -3  -1   4    7.57    0.73
  -3  -1   4    8.68    0.57
   3  -1  -4    8.53    0.52
   3  -1  -4    7.03    0.56
   3  -1  -4    8.76    0.57
   3   1  -4    7.23    0.52
  -3   1   4    7.76    0.52
   3   1  -4    6.79    0.54
  -3   1   4    7.90    0.63
  -3   1   4    8.96    0.55
  -3   1   4    8.22    0.55
  -2  -1   4  173.77    7.89
   2  -1  -4  163.75    7.94
   2  -1  -4  177.60    7.93
  -2  -1   4  170.95    7.93
  -2   1   4  188.57    7.92
  -2   1   4  189.78    7.91
   2   1  -4  185.12    7.89
  -2   1   4  186.18    7.94
   2   1  -4  173.77    7.97
  -2   1   4  176.95    7.94
   2   1  -4  177.79    7.94
  -2   1   4  182.73    7.94
   2   1  -4  182.20    7.93
  -2   1   4  183.77    7.89
  -2   1   4  182.44    7.93
  -1  -1   4  113.48    5.05
  -1  -1   4  113.92    5.11
   1  -1  -4  114.64    5.08
  -1  -1   4  113.65    5.08
  -1  -1   4  117.33    5.11
   1  -1  -4  109.77    5.10
   1   1  -4  111.84    5.11
   1   1  -4  115.39    5.12
  -1   1   4  114.87    5.10
   1   1  -4  116.84    5.06
  -1   1   4  121.11    5.11
   1   1  -4  113.17    5.02
  -1   1   4  116.84    5.07
  -1   1   4  115.72    5.08
   1   1  -4  115.15    5.07
   1   1  -4  115.70    5.07
  -1   1   4  114.54    5.09
   0  -1  -4  304.19   12.89
   0  -1   4  285.60   12.89
   0  -1   4  295.32   12.93
   0  -1   4  299.28   12.93
   0  -1  -4  294.06   12.92
   0  -1   4  283.67   12.93
   0  -1   4  295.88   12.94
   0   1  -4  299.97   12.93
   0   1   4  293.09   12.89
   0   1   4  295.11   12.91
   0   1  -4  284.54   12.94
   0   1   4  302.88   12.90
   0   1   4  304.15   12.88
   0   1  -4  285.15   12.94
   0   1   4  302.06   12.91
   0   1   4  302.96   12.94
   0   1  -4  288.66   12.94
  -1  -1  -4  155.16    6.93
  -1  -1  -4  160.04    6.96
   1  -1   4  163.76    7.00
   1  -1   4  160.24    6.93
   1  -1   4  160.01    6.96
  -1  -1  -4  159.14    6.98
   1  -1   4  150.65    6.97
   1  -1   4  157.11    6.98
  -1   1  -4  156.19    6.91
   1   1   4  153.73    6.96
  -1   1  -4  154.47    6.93
   1   1   4  161.11    6.93
  -1   1  -4  150.57    7.00
   1   1   4  168.60    6.98
  -1   1  -4  152.11    6.96
  -1   1  -4  162.54    6.97
  -2  -1  -4  149.22    6.49
  -2  -1  -4  144.40    6.52
   2  -1   4  141.71    6.54
   2  -1   4  138.50    6.44
  -2  -1  -4  141.10    6.54
   2  -1   4  145.66    6.49
   2  -1   4  143.53    6.55
  -2  -1  -4  150.89    6.54
   2  -1   4  153.68    6.51
   2   1   4  153.56    6.55
  -2   1  -4  142.97    6.58
  -2   1  -4  144.80    6.50
   2   1   4  151.42    6.49
   2   1   4  140.97    6.54
  -2   1  -4  153.76    6.55
  -2   1  -4  145.92    6.52
  -2   1  -4  150.82    6.53
   2   1   4  156.49    6.52
   3  -1   4   10.66    0.70
  -3  -1  -4    9.39    0.61
   3  -1   4   11.15    0.72
   3  -1   4    9.97    0.60
   3  -1   4   10.44    0.65
   3  -1   4   10.47    0.66
  -3  -1  -4    9.63    0.62
  -3  -1  -4    9.33    0.68
  -3  -1  -4   10.97    0.81
   3   1   4   11.96    0.57
  -3   1  -4   11.45    0.74
  -3   1  -4   10.97    0.81
   3   1   4   10.40    0.77
  -3   1  -4    9.37    0.58
  -3   1  -4    9.91    0.55
  -3   1  -4   10.29    0.64
   3   1   4   10.18    0.66
  -4  -1  -4   24.63    1.40
  -4  -1  -4   23.94    1.23
   4  -1   4   24.48    1.46
  -4  -1  -4   24.28    1.45
  -4  -1  -4   25.27    1.22
  -4   1  -4   24.55    1.21
  -4   1  -4   24.43    1.41
   4   1   4   23.36    1.52
  -5  -1  -4   29.66    1.82
  -5  -1  -4   31.62    1.54
  -5  -1  -4   28.48    1.83
  -5  -1  -4   31.95    1.75
   5  -1   4   31.26    1.90
  -5   1  -4   31.76    1.82
  -5   1  -4   30.66    1.72
   5   1   4   30.08    1.93
  -5   1  -4   31.97    1.59
   6  -1   4    1.17    0.78
  -6  -1  -4    1.74    0.72
  -6  -1  -4    2.04    0.42
  -6  -1  -4    1.87    0.78
  -6   1  -4    0.40    0.61
  -6   1  -4    1.24    0.74
   6   1   4    2.08    0.81
  -6   1  -4    1.54    0.73
  -7  -1  -4    4.07    0.96
  -7  -1  -4    6.00    1.02
   7  -1   4    5.87    1.26
  -7   1  -4    4.85    1.10
   7   1   4    5.07    1.18
  -7   1  -4    5.12    1.00
  -7   1  -4    5.75    0.97
  -8  -1  -4    6.93    1.26
   8  -1   4    5.96    1.55
  -8  -1  -4    6.80    1.39
  -8   1  -4    8.00    1.30
  -8   1  -4    8.25    1.49
  -8   1  -4    6.91    1.29
   8  -2  -4   -0.58    1.05
  -8  -2   4    2.49    1.24
  -8  -2   4    1.44    1.13
   8   2  -4    0.79    1.37
   8   2  -4    0.79    1.13
  -8   2   4    1.29    0.95
  -8   2   4    1.44    1.04
   7  -2  -4    6.69    1.10
  -7  -2   4    8.28    1.18
  -7  -2   4    6.77    1.02
   7   2  -4    6.50    1.05
   7   2  -4    5.80    1.11
  -7   2   4    6.61    1.01
  -6  -2   4   -0.24    0.74
   6  -2  -4    0.45    0.70
  -6  -2   4    1.26    0.68
   6  -2  -4    0.13    0.71
   6   2  -4    0.13    0.71
   6   2  -4   -0.15    0.68
  -6   2   4    0.33    0.77
  -6   2   4    0.12    0.69
   5  -2  -4    2.00    0.65
  -5  -2   4    3.37    0.73
  -5  -2   4    2.68    0.64
   5  -2  -4    3.02    0.66
   5   2  -4    2.86    0.72
  -5   2   4    3.70    0.68
   5   2  -4    2.20    0.58
   4  -2  -4   31.73    1.79
  -4  -2   4   30.98    1.77
   4  -2  -4   31.48    1.77
   4  -2  -4   35.26    1.61
  -4  -2   4   33.26    1.60
  -4   2   4   32.07    1.62
   4   2  -4   31.70    1.80
   4   2  -4   32.08    1.70
  -4   2   4   30.84    1.77
  -4   2   4   34.04    1.56
   3  -2  -4   67.79    3.44
   3  -2  -4   77.20    3.38
  -3  -2   4   73.29    3.30
   3  -2  -4   73.33    3.31
  -3   2   4   73.08    3.36
  -3   2   4   73.11    3.39
   3   2  -4   73.15    3.30
   3   2  -4   71.98    3.40
  -2  -2   4   27.42    1.40
  -2  -2   4   27.92    1.40
   2  -2  -4   27.95    1.31
  -2  -2   4   27.77    1.28
   2  -2  -4   29.70    1.41
  -2  -2   4   26.72    1.38
   2  -2  -4   27.20    1.38
   2   2  -4   27.59    1.31
  -2   2   4   29.00    1.38
  -2   2   4   27.51    1.39
   2   2  -4   26.96    1.39
   2   2  -4   27.53    1.31
   2   2  -4   28.61    1.37
  -2   2   4   26.90    1.36
   2   2  -4   28.09    1.29
  -2   2   4   29.01    1.32
  -1  -2   4    8.02    0.45
  -1  -2   4    6.81    0.50
   1  -2  -4    7.92    0.55
  -1  -2   4    7.72    0.53
  -1  -2   4    7.95    0.51
  -1   2   4    7.85    0.50
  -1   2   4    7.96    0.46
   1   2  -4    6.98    0.42
  -1   2   4    7.37    0.40
   1   2  -4    7.97    0.54
   1   2  -4    6.78    0.53
   1   2  -4    8.33    0.51
  -1   2   4    7.07    0.54
   1   2  -4    7.12    0.50
  -1   2   4    8.71    0.45
   0  -2   4   67.83    3.02
   0  -2  -4   65.36    3.04
   0  -2   4   69.40    3.04
   0  -2  -4   67.98    2.97
   0  -2   4   67.18    3.03
   0   2   4   63.60    3.06
   0   2  -4   66.93    3.01
   0   2   4   69.13    3.02
   0   2  -4   66.53    3.05
   0   2  -4   67.86    3.04
   0   2  -4   67.07    2.97
   0   2  -4   64.87    3.03
   0   2  -4   65.48    3.06
   1  -2   4  242.25   11.14
  -1  -2  -4  262.18   11.14
  -1  -2  -4  250.06   11.17
  -1  -2  -4  253.99   11.08
  -1  -2  -4  240.96   11.14
   1  -2   4  249.02   11.17
   1  -2   4  244.35   11.18
   1  -2   4  259.63   11.20
   1   2   4  250.83   11.14
  -1   2  -4  258.52   11.18
  -1   2  -4  242.49   11.16
   1   2   4  272.60   11.15
   1   2   4  256.24   11.17
  -1   2  -4  253.29   11.22
  -1   2  -4  264.28   11.13
  -1   2  -4  256.61   11.12
  -2  -2  -4   84.77    4.00
   2  -2   4   88.48    3.95
   2  -2   4   87.54    4.03
   2  -2   4   82.34    4.04
  -2  -2  -4   91.18    4.03
   2  -2   4   90.52    4.08
   2  -2   4   93.88    3.99
  -2  -2  -4   86.75    3.99
   2   2   4   90.90    4.03
  -2   2  -4   93.57    4.05
  -2   2  -4   89.55    3.99
   2   2   4   92.04    3.99
  -2   2  -4   87.86    3.99
   2   2   4   91.23    4.01
   2   2   4   86.42    4.02
  -2   2  -4   83.76    4.07
   3  -2   4   32.40    1.62
  -3  -2  -4   32.00    1.53
   3  -2   4   31.30    1.48
  -3  -2  -4   29.49    1.51
  -3  -2  -4   30.68    1.73
   3  -2   4   31.20    1.56
  -3   2  -4   32.46    1.51
  -3   2  -4   31.73    1.53
   3   2   4   32.42    1.54
   3   2   4   30.97    1.56
   3   2   4   31.34    1.55
  -3   2  -4   32.69    1.62
   4  -2   4   -0.16    0.19
  -4  -2  -4   -0.09    0.50
  -4  -2  -4    0.17    0.22
   4  -2   4   -0.09    0.55
  -4  -2  -4    0.33    0.45
  -4   2  -4    0.34    0.57
   4   2   4    0.03    0.54
  -4   2  -4   -0.13    0.42
   5  -2   4   32.04    1.99
  -5  -2  -4   31.63    1.91
  -5  -2  -4   32.10    1.59
  -5  -2  -4   33.06    1.81
  -5   2  -4   31.87    1.72
   5   2   4   30.14    2.02
  -5   2  -4   32.45    1.84
   6  -2   4    1.11    0.90
  -6  -2  -4    0.52    0.68
  -6  -2  -4    1.36    0.76
  -6  -2  -4    2.10    0.41
   6   2   4    1.78    0.85
  -6   2  -4    2.36    0.77
  -7  -2  -4    4.46    1.01
   7  -2   4    3.73    1.21
  -7  -2  -4    5.11    1.01
  -7   2  -4    3.84    1.00
  -7   2  -4    4.21    1.04
   8  -2   4    2.46    1.60
  -8  -2  -4    2.31    1.12
  -8  -2  -4    1.51    1.15
  -8   2  -4    1.53    1.16
  -8   2  -4    3.08    1.20
   8   2   4    2.48    1.13
  -8   2  -4    1.45    1.37
  -8  -3   4   11.00    1.66
  -8  -3   4    8.17    1.43
   8  -3  -4    9.51    1.58
  -8   3   4    9.81    1.52
   8   3  -4   11.39    1.75
   8   3  -4   13.28    1.84
   7  -3  -4    0.78    1.11
  -7  -3   4    2.95    1.08
  -7  -3   4    1.01    0.98
   7  -3  -4    2.73    1.06
  -7   3   4    3.00    1.26
   7   3  -4    1.19    0.91
   7   3  -4    1.69    1.16
  -7   3   4    1.50    0.96
  -6  -3   4   17.01    1.51
  -6  -3   4   14.11    1.53
   6  -3  -4   15.35    1.51
   6  -3  -4   17.24    1.61
   6   3  -4   15.63    1.56
  -6   3   4   15.80    1.46
  -6   3   4   14.64    1.68
   6   3  -4   14.09    1.53
   5  -3  -4    9.79    0.94
  -5  -3   4   11.65    1.21
   5  -3  -4   13.99    1.30
  -5   3   4   12.79    1.33
  -5   3   4   12.67    1.20
   5   3  -4   11.73    1.27
   4  -3  -4   63.85    3.12
  -4  -3   4   60.94    3.09
  -4  -3   4   57.39    3.04
   4  -3  -4   65.49    2.89
  -4   3   4   63.41    3.09
   4   3  -4   60.66    3.12
  -4   3   4   64.07    3.14
  -3  -3   4   53.68    2.74
   3  -3  -4   58.18    2.54
  -3  -3   4   55.05    2.75
   3  -3  -4   58.26    2.78
  -3   3   4   54.07    2.77
   3   3  -4   55.77    2.61
  -3   3   4   56.64    2.75
   3   3  -4   57.49    2.57
   3   3  -4   54.21    2.76
  -2  -3   4  117.88    5.42
   2  -3  -4  118.00    5.44
  -2  -3   4  122.86    5.33
  -2   3   4  120.85    5.38
   2   3  -4  118.54    5.36
   2   3  -4  114.79    5.40
   2   3  -4  123.76    5.33
  -1  -3   4  122.78    5.39
  -1  -3   4  117.07    5.39
   1  -3  -4  119.55    5.38
  -1  -3   4  122.50    5.39
   1  -3  -4  113.27    5.43
   1   3  -4  118.91    5.40
   1   3  -4  117.57    5.40
  -1   3   4  126.50    5.49
  -1   3   4  120.78    5.46
   1   3  -4  117.11    5.41
  -1   3   4  127.27    5.36
   0  -3  -4  181.75    8.38
   0  -3   4  180.81    8.39
   0  -3   4  192.49    8.34
   0  -3   4  187.38    8.36
   0  -3  -4  190.23    8.31
   0  -3   4  200.85    8.40
   0   3  -4  196.01    8.36
   0   3  -4  182.57    8.40
   0   3  -4  186.35    8.39
   0   3  -4  182.86    8.34
   0   3   4  193.89    8.39
   0   3   4  182.90    8.40
   0   3  -4  189.37    8.41
   0   3   4  185.04    8.42
   0   3   4  196.45    8.30
   1  -3   4   74.78    3.82
   1  -3   4   84.38    3.79
  -1  -3  -4   85.17    3.80
  -1  -3  -4   84.79    3.72
  -1  -3  -4   87.35    3.76
   1  -3   4   84.34    3.77
   1  -3   4   79.84    3.88
   1   3   4   79.74    3.83
   1   3   4   84.45    3.82
  -1   3  -4   87.16    3.80
  -1   3  -4   83.60    3.75
  -1   3  -4   82.76    3.86
  -1   3  -4   85.61    3.80
   1   3   4   81.22    3.83
   2  -3   4  173.11    7.90
  -2  -3  -4  175.26    7.74
   2  -3   4  170.21    7.78
  -2  -3  -4  167.51    7.90
   2  -3   4  176.22    7.82
  -2  -3  -4  183.11    7.84
   2  -3   4  173.88    7.78
  -2   3  -4  178.76    7.95
  -2   3  -4  179.47    7.80
  -2   3  -4  172.51    7.80
   2   3   4  185.21    7.84
  -2   3  -4  171.82    7.81
  -3  -3  -4   30.57    1.43
   3  -3   4   28.03    1.52
  -3  -3  -4   30.62    1.62
   3  -3   4   29.62    1.45
   3  -3   4   28.19    1.71
  -3   3  -4   30.38    1.75
  -3   3  -4   27.77    1.67
  -3   3  -4   29.50    1.46
   3   3   4   29.99    1.57
  -4  -3  -4   32.79    1.82
   4  -3   4   30.79    1.60
   4  -3   4   34.26    1.90
  -4   3  -4   31.04    1.83
   4   3   4   34.10    1.76
  -4   3  -4   31.30    1.98
  -5  -3  -4    9.51    0.96
   5  -3   4    9.07    1.07
  -5   3  -4    8.23    1.05
  -5   3  -4    8.83    0.97
   6  -3   4   13.55    1.38
  -6  -3  -4   14.86    1.55
  -6   3  -4   14.57    1.53
   7  -3   4    9.43    1.48
  -7  -3  -4    8.29    1.25
   7   3   4    8.06    1.27
  -7   3  -4    7.01    1.25
   8  -3   4    3.09    1.62
  -8  -3  -4    2.95    1.38
  -8   3  -4    3.44    1.40
  -8   3  -4    1.73    1.38
   8   3   4    2.23    1.33
   7  -4  -4    1.17    1.23
   7  -4  -4   -0.57    1.34
  -7  -4   4   -1.01    1.09
  -7  -4   4   -0.71    1.11
  -7   4   4    0.49    1.04
   7   4  -4    1.00    1.09
  -7   4   4    0.21    1.41
   7   4  -4    0.27    1.33
  -6  -4   4    2.14    0.94
  -6  -4   4    4.18    0.95
   6  -4  -4    2.85    1.03
   6  -4  -4    3.34    1.08
  -6   4   4    1.77    0.77
   6   4  -4    2.22    1.14
  -6   4   4    3.06    1.20
   6   4  -4    4.86    1.13
   5  -4  -4   14.91    0.90
   5  -4  -4   12.20    1.25
  -5  -4   4   13.02    1.30
  -5  -4   4   13.17    1.38
  -5   4   4   12.24    1.27
  -5   4   4   11.62    1.19
   5   4  -4   13.47    1.34
   4  -4  -4    0.19    0.68
  -4  -4   4    1.26    0.67
  -4  -4   4    1.79    0.68
  -4   4   4    1.44    0.58
   4   4  -4    0.95    0.73
  -4   4   4    2.39    0.89
  -3  -4   4   14.16    1.19
   3  -4  -4   13.48    1.20
  -3  -4   4   12.67    1.14
   3   4  -4   16.73    1.24
   3   4  -4   12.72    0.86
   3   4  -4   13.52    0.85
  -3   4   4   13.28    1.23
  -3   4   4   13.96    1.15
   3   4  -4   12.52    0.99
  -2  -4   4   50.90    2.59
  -2  -4   4   49.72    2.58
   2  -4  -4   52.60    2.63
   2   4  -4   51.22    2.46
   2   4  -4   52.06    2.47
  -2   4   4   51.55    2.67
  -1  -4   4   95.17    4.30
  -1  -4   4   92.21    4.30
   1  -4  -4   87.20    4.31
   1  -4  -4   93.15    4.21
  -1  -4   4   88.46    4.31
   1   4  -4   92.76    4.20
  -1   4   4   91.24    4.38
  -1   4   4   98.46    4.19
   0  -4   4    5.27    0.70
   0  -4  -4    4.95    0.49
   0  -4  -4    5.46    0.67
   0  -4   4    7.12    0.75
   0   4   4    5.99    0.80
   0   4  -4    4.77    0.49
   0   4  -4    6.33    0.82
   1  -4   4   67.21    2.97
  -1  -4  -4   62.94    3.07
   1  -4   4   62.97    2.93
  -1  -4  -4   64.28    2.94
   1  -4   4   59.76    3.09
  -1  -4  -4   64.70    2.91
  -1   4  -4   61.07    3.07
  -1   4  -4   62.78    3.15
  -1   4  -4   64.87    2.94
   1   4   4   61.63    3.13
   1   4   4   64.74    2.88
  -2  -4  -4   26.24    1.61
   2  -4   4   25.93    1.58
   2  -4   4   25.47    1.32
  -2  -4  -4   23.45    1.46
   2  -4   4   21.82    1.53
   2  -4   4   22.69    1.38
  -2  -4  -4   25.11    1.23
   2   4   4   22.75    1.53
  -2   4  -4   24.51    1.61
   3  -4   4   94.45    4.34
   3  -4   4   93.58    4.43
  -3  -4  -4   92.21    4.37
  -3  -4  -4   95.38    4.17
   3  -4   4   93.48    4.30
   3  -4   4   88.80    4.27
  -3   4  -4   92.86    4.20
   3   4   4   88.93    4.37
  -3   4  -4   87.54    4.48
  -3   4  -4   93.75    4.33
   4  -4   4    5.18    0.81
   4  -4   4    3.98    0.94
   4  -4   4    3.95    0.87
  -4  -4  -4    3.65    0.53
  -4  -4  -4    3.77    0.78
  -4   4  -4    2.72    0.69
  -4   4  -4    4.39    0.78
   4   4   4    2.95    0.73
   4   4   4    4.02    0.83
  -4   4  -4    4.13    0.48
  -5  -4  -4   11.58    1.09
   5  -4   4   10.80    1.24
   5  -4   4   10.96    1.11
  -5  -4  -4   11.43    1.21
   5   4   4    9.59    1.15
  -5   4  -4    9.76    1.19
  -5   4  -4   12.85    1.17
   5   4   4   10.58    1.18
  -6  -4  -4    1.17    0.99
  -6  -4  -4    4.28    1.04
   6  -4   4    2.82    1.02
   6  -4   4    0.77    1.11
  -6   4  -4    1.63    1.04
  -6   4  -4    2.20    0.90
   6   4   4    3.12    1.14
   6   4   4    1.51    0.93
  -7  -4  -4   12.59    1.57
  -7  -4  -4   13.69    1.64
   7  -4   4   14.01    1.83
   7   4   4   12.87    1.55
  -7   4  -4   14.72    1.62
   7   4   4   15.18    1.84
   7  -5  -4    4.28    1.65
  -7  -5   4    3.39    1.39
  -7   5   4    3.23    1.74
  -7   5   4    3.68    1.43
  -6  -5   4    1.55    1.12
  -6  -5   4    2.63    1.10
   6  -5  -4    2.58    1.26
  -6   5   4    2.02    1.03
   6   5  -4    2.31    1.20
   6   5  -4    0.64    1.23
  -6   5   4    2.58    1.27
  -5  -5   4    4.52    1.02
   5  -5  -4    2.96    1.06
  -5  -5   4    2.17    0.97
  -5   5   4    3.79    0.97
  -5   5   4    5.25    1.33
   5   5  -4    4.90    1.20
   4  -5  -4    8.07    1.14
  -4  -5   4    7.88    1.10
  -4  -5   4    5.82    1.01
  -4   5   4    5.36    1.05
   4   5  -4    5.46    1.05
   4   5  -4    5.69    1.03
  -4   5   4    7.40    1.00
   3  -5  -4   27.60    1.87
  -3  -5   4   26.36    1.89
  -3  -5   4   30.15    1.86
   3   5  -4   27.05    1.85
  -3   5   4   25.41    1.95
   3   5  -4   29.80    1.95
  -3   5   4   28.27    1.81
  -2  -5   4   18.95    1.51
  -2  -5   4   18.97    1.46
   2  -5  -4   20.81    1.53
   2   5  -4   19.12    1.48
  -2   5   4   19.55    1.61
   2   5  -4   18.81    1.53
   1  -5  -4   21.95    1.55
  -1  -5   4   22.71    1.53
   1  -5  -4   21.92    1.52
  -1  -5   4   21.28    1.60
   1   5  -4   22.60    1.19
   1   5  -4   21.87    1.60
  -1   5   4   21.30    1.58
   0  -5   4   21.25    1.24
   0  -5   4   21.00    1.48
   0  -5  -4   19.62    1.44
   0   5  -4   21.09    1.56
   0   5   4   18.48    1.51
   1  -5   4    6.22    0.86
  -1  -5  -4    6.44    0.55
   1  -5   4    5.17    0.57
   1  -5   4    4.68    0.84
  -1  -5  -4    4.16    0.70
   1  -5   4    6.23    0.84
  -1   5  -4    5.13    0.76
   1   5   4    4.78    0.87
  -1   5  -4    3.55    0.74
  -1   5  -4    6.29    0.89
   2  -5   4   17.94    1.44
  -2  -5  -4   20.52    1.06
   2  -5   4   18.32    1.52
  -2  -5  -4   19.12    1.52
   2  -5   4   15.21    1.15
   2  -5   4   20.29    1.52
  -2   5  -4   19.03    1.59
  -2   5  -4   21.39    1.57
   2   5   4   17.71    1.56
   2   5   4   18.12    1.05
  -2   5  -4   21.18    1.46
   3  -5   4   12.41    1.16
  -3  -5  -4    9.40    1.06
   3  -5   4    8.54    1.02
   3  -5   4   11.28    1.22
   3   5   4    9.34    1.07
  -3   5  -4    9.14    1.07
   3   5   4   10.31    1.02
  -3   5  -4   10.24    1.06
  -3   5  -4   12.95    1.43
   4  -5   4    6.25    1.02
   4  -5   4    4.44    0.99
   4  -5   4    6.10    1.11
  -4  -5  -4    5.78    0.98
  -4  -5  -4    4.53    0.97
  -4   5  -4    6.62    1.07
   4   5   4    4.15    0.95
  -4   5  -4    5.26    0.97
  -4   5  -4    5.53    1.05
   4   5   4    7.08    1.07
  -5  -5  -4    0.02    0.94
   5  -5   4    0.31    1.04
   5  -5   4   -0.21    1.20
  -5  -5  -4   -0.14    0.98
  -5   5  -4   -0.53    1.12
  -5   5  -4   -1.20    0.92
   5   5   4    0.95    0.98
   5   5   4    0.44    1.05
  -6  -5  -4    2.59    1.29
   6  -5   4    1.81    1.51
   6  -5   4    3.40    1.38
  -6  -5  -4    1.26    1.18
  -6   5  -4    2.41    1.34
  -6   5  -4    2.19    1.23
   6   5   4    3.11    1.21
   6   5   4    3.00    1.57
   5  -6  -4   -0.60    1.12
  -5  -6   4   -0.16    1.21
  -5  -6   4   -0.31    1.18
   5   6  -4    0.92    1.40
  -5   6   4   -0.25    1.05
  -5   6   4    0.44    1.15
  -4  -6   4    2.84    1.03
   4  -6  -4    1.10    1.02
  -4  -6   4    0.68    0.95
  -4   6   4    0.98    1.09
   4   6  -4    2.07    1.22
  -4   6   4    1.22    1.04
   4   6  -4    2.42    1.26
  -3  -6   4   17.38    1.77
  -3  -6   4   17.53    1.71
   3  -6  -4   16.32    1.77
  -3   6   4   19.02    1.98
   3   6  -4   17.16    1.58
  -3   6   4   16.20    1.53
   3   6  -4   16.48    1.56
  -2  -6   4    1.14    0.84
   2  -6  -4   -0.24    0.81
  -2  -6   4   -1.08    0.87
   2   6  -4   -0.62    0.93
  -2   6   4    2.81    0.92
   2   6  -4    0.05    0.91
  -1  -6   4    6.49    1.04
   1  -6  -4    4.53    1.04
   1  -6  -4    8.61    1.11
  -1   6   4    5.88    1.08
   1   6  -4    4.87    1.03
   0  -6  -4    0.36    0.86
   0  -6   4   -0.42    0.79
   0  -6  -4    0.87    0.73
   0   6  -4    0.58    0.93
   0   6  -4   -0.18    0.95
   0   6   4    0.02    0.77
   1  -6   4   29.63    2.12
  -1  -6  -4   27.87    1.98
   1  -6   4   25.85    2.01
   1  -6   4   32.26    2.15
  -1  -6  -4   30.19    2.00
  -1   6  -4   30.39    2.19
   1   6   4   28.69    2.12
  -1   6  -4   30.44    2.12
  -1   6  -4   29.16    1.98
   2  -6   4    2.27    0.90
   2  -6   4    3.35    1.01
   2  -6   4    2.45    1.07
  -2  -6  -4    1.78    0.82
  -2  -6  -4    3.71    0.97
  -2   6  -4    2.55    1.03
   2   6   4    3.39    0.96
   2   6   4    2.42    0.49
  -2   6  -4    2.46    1.05
  -2   6  -4    3.00    0.90
  -3  -6  -4    2.32    1.01
   3  -6   4    1.45    1.05
   3  -6   4    1.45    1.04
   3  -6   4    1.41    1.19
  -3  -6  -4    2.54    1.13
   3   6   4    0.74    0.94
   3   6   4    1.33    1.02
  -3   6  -4    0.77    1.02
  -3   6  -4    1.03    0.92
  -3   6  -4    1.53    1.16
   4  -6   4   -0.80    1.30
  -4  -6  -4    0.17    1.09
   4  -6   4   -1.00    1.12
   4  -6   4    0.89    1.16
  -4  -6  -4   -0.07    1.20
  -4   6  -4   -0.31    1.30
   4   6   4   -0.15    1.09
  -4   6  -4    1.01    1.13
  -4   6  -4   -0.23    1.16
   4   6   4   -1.19    1.03
   5  -6   4   11.19    1.83
   5  -6   4   13.95    1.80
  -5  -6  -4   13.57    1.69
  -5  -6  -4   12.54    1.52
  -5   6  -4   12.28    1.64
   5   6   4   11.93    1.70
   5   6   4   12.13    1.59
  -5   6  -4   11.76    1.80
  -4  -7   4    4.86    1.49
   4  -7  -4    6.59    1.75
   4   7  -4    6.98    1.60
  -4   7   4    4.99    1.49
  -4   7   4    4.19    1.66
   4   7  -4    5.08    1.85
  -3  -7   4    4.30    1.36
   3  -7  -4    5.62    1.26
  -3  -7   4    4.02    1.40
   3   7  -4    1.76    1.64
   3   7  -4    3.04    1.56
  -3   7   4    3.85    1.34
  -3   7   4    4.96    1.38
  -2  -7   4   19.84    1.86
   2  -7  -4   18.26    1.78
   2   7  -4   15.68    1.82
   2   7  -4   19.83    2.09
  -2   7   4   15.92    1.73
   2   7  -4   18.77    1.74
  -2   7   4   16.36    1.96
  -1  -7   4    2.66    1.21
   1  -7  -4    1.45    1.13
   1  -7  -4    0.93    1.22
  -1   7   4    1.12    1.09
   1   7  -4   -0.45    1.24
   1   7  -4    2.36    1.24
   0  -7   4   14.58    1.46
   0  -7  -4   13.82    1.62
   0  -7   4   12.22    1.60
   0  -7   4   15.15    1.74
   0  -7  -4   15.22    1.54
   0   7  -4   18.99    2.03
   0   7   4   10.12    1.49
   0   7  -4   11.28    1.50
   0   7  -4   14.78    1.55
  -1  -7  -4   -0.25    0.98
   1  -7   4    1.75    1.15
   1  -7   4    1.34    1.06
   1  -7   4    0.56    1.30
  -1  -7  -4    1.35    1.30
  -1   7  -4    0.52    1.20
   1   7   4   -0.12    1.04
  -1   7  -4   -0.40    1.28
  -1   7  -4    0.82    1.16
   2  -7   4    4.83    1.39
  -2  -7  -4    5.10    1.47
   2  -7   4    4.11    1.35
  -2  -7  -4    4.80    1.29
   2  -7   4    3.97    1.51
   2   7   4    4.43    1.30
  -2   7  -4    3.98    1.35
  -2   7  -4    4.46    1.56
  -2   7  -4    4.31    1.63
   3  -7   4    3.06    1.42
  -3  -7  -4   -0.24    1.12
   3  -7   4    1.54    1.45
  -3  -7  -4    2.07    1.55
  -3   7  -4    0.98    1.54
  -3   7  -4    3.49    1.78
  -3   7  -4    0.54    1.51
   3   7   4    1.58    1.51
  -9   0   5    1.18    1.40
  -9   0   5    0.16    1.39
   9   0  -5    1.60    2.39
  -8   0   5   -0.77    0.91
  -8   0   5   -0.02    0.98
   8   0  -5    1.08    1.01
  -7   0   5    0.55    0.65
   7   0  -5   -0.21    0.81
  -7   0   5   -0.06    0.74
   6   0  -5   -0.15    0.59
  -6   0   5   -0.57    0.65
  -6   0   5    0.19    0.59
  -5   0   5    0.23    0.46
   5   0  -5   -0.33    0.50
  -5   0   5    0.24    0.51
  -4   0   5    0.20    0.57
  -4   0   5    0.00    0.14
   4   0  -5   -0.08    0.23
  -4   0   5    0.02    0.15
   4   0  -5   -0.55    0.42
   4   0  -5    0.28    0.47
  -4   0   5    0.08    0.40
   3   0  -5   -0.02    0.19
  -3   0   5   -0.14    0.26
  -3   0   5   -0.01    0.19
   3   0  -5   -0.34    0.22
  -3   0   5   -0.20    0.18
  -3   0   5    0.43    0.14
   3   0  -5    0.04    0.20
   2   0  -5    0.22    0.19
  -2   0   5    0.09    0.15
  -2   0   5   -0.13    0.12
   2   0  -5    0.07    0.18
  -2   0   5    0.03    0.12
  -2   0   5    0.47    0.17
  -2   0   5   -0.11    0.16
   2   0  -5    0.05    0.18
   1   0  -5   -0.11    0.17
   1   0  -5    0.14    0.17
   1   0  -5   -0.03    0.18
  -1   0   5   -0.16    0.13
  -1   0   5    0.06    0.12
  -1   0   5    0.12    0.11
   1   0  -5   -0.12    0.14
  -1   0   5    0.16    0.10
   0   0   5   -0.49    0.14
   0   0  -5   -0.06    0.16
   0   0   5   -0.16    0.13
   0   0   5   -0.02    0.10
   0   0   5    0.17    0.15
   0   0  -5   -0.11    0.14
   0   0  -5   -0.13    0.11
   1   0   5   -0.03    0.17
   1   0   5   -0.15    0.13
  -1   0  -5    0.00    0.15
  -1   0  -5   -0.13    0.15
  -1   0  -5   -0.06    0.16
   1   0   5    0.09    0.13
  -1   0  -5   -0.01    0.12
   1   0   5   -0.12    0.13
   1   0   5   -0.21    0.13
  -1   0  -5   -0.04    0.18
  -2   0  -5    0.04    0.17
  -2   0  -5    0.06    0.13
  -2   0  -5    0.44    0.17
   2   0   5   -0.07    0.22
   2   0   5   -0.09    0.17
   2   0   5   -0.42    0.17
   2   0   5   -0.05    0.16
  -2   0  -5   -0.26    0.18
  -2   0  -5   -0.19    0.23
   3   0   5   -0.60    0.39
  -3   0  -5    0.01    0.15
  -3   0  -5    0.05    0.22
  -3   0  -5    0.10    0.14
  -3   0  -5   -0.03    0.18
   3   0   5   -0.64    0.31
   3   0   5   -0.13    0.20
   3   0   5    1.09    0.26
  -3   0  -5   -0.15    0.37
  -3   0  -5   -0.18    0.21
  -4   0  -5   -1.15    0.48
  -4   0  -5    0.49    0.38
  -4   0  -5   -0.06    0.21
   4   0   5   -0.82    0.28
  -4   0  -5   -0.03    0.19
  -4   0  -5   -0.28    0.23
   4   0   5   -0.28    0.47
  -5   0  -5    0.68    0.44
   5   0   5   -0.67    0.43
   5   0   5   -0.56    0.60
  -5   0  -5   -0.96    0.42
  -6   0  -5   -0.49    0.64
   6   0   5   -0.24    0.81
  -6   0  -5   -0.04    0.67
  -6   0  -5    0.40    0.62
  -6   0  -5    0.71    0.71
   6   0   5    0.50    0.61
  -7   0  -5    1.17    0.96
  -7   0  -5    0.89    0.80
   7   0   5    0.69    0.93
  -7   0  -5   -0.58    0.71
  -8   0  -5    0.24    1.01
  -8   0  -5   -0.75    0.89
   8   0   5    0.84    1.57
  -8   0  -5   -1.01    1.21
  -8  -1   5    0.52    1.01
   8  -1  -5    0.21    1.02
  -8  -1   5    0.82    1.14
   8   1  -5    0.12    1.11
  -8   1   5    0.55    0.96
  -8   1   5   -0.17    0.96
  -7  -1   5    4.85    0.95
   7  -1  -5    3.67    0.96
  -7  -1   5    2.88    0.84
   7   1  -5    3.85    0.95
  -7   1   5    4.19    0.91
  -7   1   5    3.25    0.84
   6  -1  -5    2.46    0.75
   6  -1  -5    2.86    0.57
  -6  -1   5    2.66    0.73
  -6  -1   5    1.92    0.65
   6   1  -5    2.94    0.76
   6   1  -5    3.97    0.40
  -6   1   5    2.69    0.75
  -6   1   5    3.62    0.78
   5  -1  -5   19.54    1.37
  -5  -1   5   18.87    1.35
  -5  -1   5   19.96    1.36
   5  -1  -5   21.50    1.16
  -5   1   5   19.96    1.38
  -5   1   5   20.24    1.10
   5   1  -5   22.41    1.08
   5   1  -5   18.71    1.40
   4  -1  -5    8.58    0.57
   4  -1  -5    5.87    0.67
  -4  -1   5    8.45    0.53
  -4  -1   5    7.50    0.78
   4  -1  -5    5.88    0.57
  -4   1   5    7.43    0.52
  -4   1   5    9.97    0.70
   4   1  -5    7.44    0.56
  -4   1   5    8.87    0.55
   4   1  -5    7.83    0.76
  -4   1   5    8.09    0.78
   4   1  -5    5.34    0.67
   3  -1  -5   79.03    3.53
  -3  -1   5   80.18    3.67
  -3  -1   5   77.89    3.65
   3  -1  -5   78.47    3.62
   3  -1  -5   81.55    3.60
  -3  -1   5   74.92    3.59
  -3  -1   5   75.35    3.55
  -3   1   5   82.41    3.58
   3   1  -5   80.08    3.65
  -3   1   5   77.49    3.56
  -3   1   5   73.08    3.62
   3   1  -5   79.06    3.59
  -3   1   5   77.96    3.59
   3   1  -5   81.75    3.55
  -3   1   5   84.96    3.57
   2  -1  -5   10.91    0.65
  -2  -1   5   11.60    0.60
  -2  -1   5   10.75    0.66
  -2  -1   5   10.82    0.69
   2  -1  -5   10.50    0.71
   2  -1  -5   10.80    0.64
  -2   1   5   13.13    0.63
  -2   1   5   11.16    0.65
   2   1  -5   11.17    0.67
  -2   1   5   11.59    0.66
   2   1  -5   11.38    0.60
  -2   1   5   11.20    0.64
  -2   1   5   12.42    0.64
  -2   1   5   13.57    0.61
   2   1  -5   11.00    0.67
   2   1  -5   11.99    0.59
   2   1  -5   11.45    0.69
   1  -1  -5    0.46    0.18
  -1  -1   5    0.50    0.17
  -1  -1   5    0.44    0.10
  -1  -1   5    1.00    0.17
  -1  -1   5    1.17    0.16
  -1  -1   5    0.40    0.20
   1  -1  -5    0.61    0.25
   1  -1  -5    0.50    0.20
   1   1  -5    0.75    0.15
  -1   1   5    0.59    0.13
   1   1  -5    0.27    0.17
   1   1  -5    0.36    0.19
  -1   1   5    0.66    0.12
   1   1  -5    0.19    0.16
  -1   1   5    0.62    0.14
   0  -1   5   11.89    0.60
   0  -1   5   11.45    0.66
   0  -1  -5   11.47    0.64
   0  -1   5   13.75    0.65
   0  -1   5   11.53    0.66
   0  -1   5   13.31    0.66
   0  -1  -5   12.00    0.69
   0   1   5   12.30    0.62
   0   1   5   11.76    0.62
   0   1  -5   12.29    0.65
   0   1   5   11.96    0.67
   0   1  -5   11.77    0.69
   0   1   5   12.17    0.62
   0   1  -5   12.32    0.67
   0   1   5   12.61    0.64
   0   1  -5   11.70    0.68
  -1  -1  -5   82.00    3.55
   1  -1   5   77.78    3.55
   1  -1   5   76.41    3.55
   1  -1   5   75.63    3.57
  -1  -1  -5   77.41    3.50
  -1  -1  -5   77.85    3.51
  -1  -1  -5   80.18    3.58
   1  -1   5   82.57    3.50
  -1   1  -5   79.11    3.55
  -1   1  -5   79.30    3.51
  -1   1  -5   80.31    3.48
   1   1   5   77.37    3.55
   1   1   5   76.19    3.56
  -1   1  -5   75.53    3.55
   1   1   5   80.80    3.50
   1   1   5   83.18    3.56
   1   1   5   81.87    3.57
   2  -1   5   47.94    2.26
   2  -1   5   47.88    2.19
   2  -1   5   47.08    2.25
  -2  -1  -5   47.56    2.15
   2  -1   5   43.93    2.22
   2  -1   5   47.60    2.19
  -2  -1  -5   48.73    2.17
  -2  -1  -5   47.02    2.23
  -2   1  -5   48.24    2.21
   2   1   5   44.84    2.23
  -2   1  -5   47.34    2.22
  -2   1  -5   50.05    2.24
   2   1   5   47.77    2.21
  -2   1  -5   47.12    2.20
   2   1   5   49.86    2.16
   2   1   5   50.87    2.24
   3  -1   5    0.98    0.48
   3  -1   5    0.30    0.22
  -3  -1  -5    0.49    0.22
   3  -1   5    0.43    0.16
  -3  -1  -5    0.94    0.38
  -3  -1  -5    0.69    0.22
   3  -1   5    0.34    0.23
   3  -1   5    0.47    0.29
  -3  -1  -5    0.32    0.23
  -3  -1  -5    0.35    0.20
  -3   1  -5   -0.10    0.19
   3   1   5    1.03    0.25
  -3   1  -5    1.40    0.44
   3   1   5    0.56    0.26
  -3   1  -5    0.95    0.34
   3   1   5    0.45    0.46
  -3   1  -5    0.33    0.23
  -4  -1  -5    3.50    0.61
   4  -1   5    3.01    0.37
  -4  -1  -5    2.97    0.37
  -4  -1  -5    4.82    0.42
   4  -1   5    3.80    0.60
  -4  -1  -5    3.88    0.56
   4   1   5    2.95    0.60
   4   1   5    3.07    0.52
  -4   1  -5    3.35    0.36
  -4   1  -5    3.56    0.57
   5  -1   5    4.91    0.81
  -5  -1  -5    6.60    0.76
  -5  -1  -5    6.40    0.82
  -5  -1  -5    4.75    0.56
  -5  -1  -5    5.65    0.72
   5   1   5    5.49    0.83
  -5   1  -5    4.99    0.70
  -5   1  -5    4.41    0.67
  -5   1  -5    6.22    0.69
  -5   1  -5    4.94    0.54
  -6  -1  -5   12.61    1.30
   6  -1   5   14.83    1.42
  -6  -1  -5   13.41    1.26
  -6   1  -5   13.11    1.34
  -6   1  -5   13.56    1.26
   6   1   5   15.28    1.41
  -6   1  -5   13.40    1.31
  -6   1  -5   12.32    1.00
   7  -1   5    1.81    1.17
  -7  -1  -5    1.17    0.98
  -7  -1  -5    0.52    0.87
  -7  -1  -5    1.80    1.00
  -7   1  -5    1.98    0.85
  -7   1  -5    1.20    0.79
   7   1   5    2.79    1.03
  -7   1  -5    2.06    1.03
  -8  -1  -5    3.28    1.26
  -8  -1  -5    3.46    1.17
   8  -1   5    3.17    1.47
  -8  -1  -5    1.41    1.10
  -8   1  -5    4.50    1.22
   8   1   5    3.79    1.45
  -8   1  -5    4.06    1.22
  -8   1  -5    4.21    1.38
   8  -2  -5    0.69    1.10
  -8  -2   5    0.07    1.21
  -8  -2   5   -1.24    1.11
  -8   2   5   -0.20    1.02
  -8   2   5    0.88    0.97
   8   2  -5   -1.88    1.30
   8   2  -5    1.34    1.15
  -7  -2   5    2.45    0.90
  -7  -2   5    2.58    1.02
   7  -2  -5    2.60    0.93
   7   2  -5    3.79    0.99
  -7   2   5    2.77    0.92
   7   2  -5    3.19    1.05
  -7   2   5    2.81    1.09
  -6  -2   5    0.66    0.68
  -6  -2   5    0.51    0.75
   6  -2  -5    0.96    0.75
   6  -2  -5    1.55    0.78
  -6   2   5    0.64    0.67
   6   2  -5    1.60    0.81
   6   2  -5    1.51    0.77
  -6   2   5    0.99    0.80
   5  -2  -5    9.73    0.98
  -5  -2   5    9.95    0.92
  -5  -2   5    9.34    0.95
   5  -2  -5    9.01    0.91
   5   2  -5   11.13    1.07
   5   2  -5    8.64    0.88
  -5   2   5    7.50    0.81
  -4  -2   5    4.73    0.66
  -4  -2   5    5.98    0.52
   4  -2  -5    4.14    0.63
   4  -2  -5    4.77    0.49
   4  -2  -5    4.82    0.67
  -4   2   5    6.76    0.50
   4   2  -5    4.04    0.64
   4   2  -5    5.89    0.61
  -4   2   5    4.00    0.62
  -3  -2   5   29.32    1.42
   3  -2  -5   30.46    1.45
   3  -2  -5   29.64    1.63
   3  -2  -5   31.70    1.56
   3   2  -5   29.32    1.47
   3   2  -5   28.30    1.43
  -3   2   5   29.76    1.48
  -3   2   5   29.28    1.58
  -2  -2   5   48.53    2.36
  -2  -2   5   49.62    2.39
  -2  -2   5   50.14    2.39
   2  -2  -5   51.65    2.31
   2  -2  -5   51.71    2.39
  -2   2   5   50.79    2.34
   2   2  -5   50.63    2.29
   2   2  -5   50.68    2.36
   2   2  -5   49.74    2.27
   2   2  -5   49.96    2.38
   2   2  -5   50.90    2.40
  -2   2   5   51.39    2.38
  -2   2   5   51.73    2.32
  -2   2   5   51.88    2.42
  -2   2   5   50.39    2.41
  -1  -2   5   20.77    1.10
  -1  -2   5   22.53    1.07
   1  -2  -5   22.39    1.13
  -1  -2   5   21.37    1.12
  -1  -2   5   21.39    1.13
  -1   2   5   21.38    1.15
  -1   2   5   23.64    1.04
   1   2  -5   21.72    1.13
   1   2  -5   23.43    1.11
   1   2  -5   21.14    1.14
  -1   2   5   21.62    1.14
  -1   2   5   21.62    1.06
  -1   2   5   21.67    1.12
   1   2  -5   23.54    1.11
   0  -2   5   11.07    0.65
   0  -2   5   11.17    0.68
   0  -2   5   13.49    0.66
   0  -2   5   11.80    0.65
   0  -2  -5   11.20    0.66
   0   2  -5   10.61    0.63
   0   2  -5   10.82    0.68
   0   2   5   11.52    0.67
   0   2  -5   10.94    0.70
   0   2  -5   12.00    0.67
   0   2  -5   10.13    0.66
   0   2   5   10.96    0.58
   0   2   5   11.98    0.64
   0   2  -5   11.27    0.55
   0   2   5   11.08    0.55
   1  -2   5    6.96    0.53
   1  -2   5    8.32    0.57
  -1  -2  -5    7.49    0.48
  -1  -2  -5    7.84    0.57
  -1  -2  -5    8.06    0.52
   1  -2   5    6.38    0.50
   1  -2   5    8.06    0.56
  -1   2  -5    7.50    0.52
  -1   2  -5    7.74    0.46
   1   2   5    7.99    0.49
   1   2   5    7.37    0.56
  -1   2  -5    7.14    0.48
  -1   2  -5    8.45    0.50
  -1   2  -5    7.36    0.56
  -2  -2  -5    9.02    0.47
   2  -2   5   10.55    0.54
   2  -2   5    8.30    0.50
  -2  -2  -5    9.66    0.60
  -2  -2  -5    7.51    0.57
   2  -2   5    9.52    0.61
   2  -2   5    7.44    0.58
  -2  -2  -5    8.14    0.55
  -2   2  -5    8.71    0.70
  -2   2  -5    8.62    0.55
   2   2   5    9.26    0.60
   2   2   5    8.59    0.59
   2   2   5    9.48    0.78
  -2   2  -5    7.77    0.53
  -2   2  -5    7.06    0.61
   2   2   5    8.95    0.56
  -2   2  -5    9.59    0.53
  -3  -2  -5   15.01    0.84
   3  -2   5   13.81    0.77
   3  -2   5   14.84    0.94
  -3  -2  -5   14.75    0.81
   3  -2   5   14.46    1.12
   3  -2   5   15.02    0.88
   3   2   5   16.81    0.87
   3   2   5   15.64    0.95
  -3   2  -5   15.19    0.81
   3   2   5   14.34    0.86
  -3   2  -5   15.53    1.09
  -3   2  -5   13.88    0.81
   4  -2   5    3.35    0.67
  -4  -2  -5    3.06    0.65
  -4  -2  -5    3.22    0.37
   4  -2   5    2.21    0.28
   4  -2   5    2.82    0.64
  -4   2  -5    3.18    0.74
  -4   2  -5    3.18    0.56
   4   2   5    2.19    0.64
  -5  -2  -5   10.30    0.91
   5  -2   5    9.51    1.05
  -5  -2  -5    8.57    0.92
  -5  -2  -5    7.79    0.67
  -5   2  -5    6.85    0.81
   5   2   5    6.28    0.94
  -5   2  -5    8.38    0.79
   6  -2   5    1.42    0.87
  -6  -2  -5    2.88    0.81
  -6  -2  -5    2.72    0.52
  -6  -2  -5    3.13    0.80
  -6   2  -5    2.65    0.85
   6   2   5    2.50    0.95
  -7  -2  -5   -0.24    0.90
  -7  -2  -5    0.76    0.95
   7  -2   5    0.49    1.11
  -7  -2  -5    0.93    0.56
  -7   2  -5    1.28    0.98
   7   2   5    0.81    1.01
  -7   2  -5    0.30    0.95
  -7   2  -5    1.43    0.94
   8  -2   5   -0.12    1.50
  -8  -2  -5    1.64    1.19
  -8  -2  -5    2.68    1.24
  -8   2  -5    2.00    1.19
  -8   2  -5    1.40    1.40
  -8   2  -5    3.40    1.30
  -8  -3   5    1.17    1.44
  -8  -3   5    1.78    2.25
   8  -3  -5   -0.75    1.43
  -8   3   5   -0.36    1.39
   8   3  -5    0.66    2.18
   8   3  -5    1.03    1.72
   7  -3  -5    1.35    1.13
  -7  -3   5   -1.04    0.87
   7  -3  -5   -1.04    0.93
  -7  -3   5   -0.26    1.02
  -7   3   5   -0.94    1.18
  -7   3   5    0.39    0.88
   7   3  -5    0.26    1.18
   7   3  -5   -0.18    0.90
  -6  -3   5   15.81    1.53
   6  -3  -5   16.39    1.60
  -6  -3   5   15.60    1.57
   6  -3  -5   16.30    1.60
   6   3  -5   15.83    1.56
  -6   3   5   15.88    1.47
   6   3  -5   16.36    1.66
  -6   3   5   15.89    1.70
   5  -3  -5    3.18    0.85
  -5  -3   5    2.80    0.72
  -5   3   5    2.43    0.68
   5   3  -5    2.63    0.81
   5   3  -5    1.61    0.64
  -5   3   5    3.47    0.90
   4  -3  -5    3.01    0.35
   4  -3  -5    1.63    0.59
  -4  -3   5    2.44    0.67
  -4  -3   5    3.35    0.72
  -4   3   5    3.07    0.69
   4   3  -5    2.11    0.72
   4   3  -5    2.21    0.62
  -4   3   5    2.56    0.63
   4   3  -5    2.39    0.69
  -3  -3   5    2.32    0.57
  -3  -3   5    2.32    0.56
   3  -3  -5    2.26    0.32
   3  -3  -5    1.70    0.55
  -3   3   5    2.74    0.65
  -3   3   5    1.12    0.46
   3   3  -5    2.48    0.58
   3   3  -5    2.80    0.33
  -2  -3   5  103.01    5.04
  -2  -3   5  107.78    5.07
  -2  -3   5  106.89    5.04
   2  -3  -5  113.30    5.07
  -2  -3   5  119.16    4.95
  -2   3   5  116.62    4.99
  -2   3   5  108.14    5.10
   2   3  -5  109.08    5.02
   2   3  -5  112.00    4.91
   2   3  -5  109.36    4.96
  -1  -3   5    6.43    0.66
  -1  -3   5    9.59    0.55
  -1  -3   5    6.67    0.50
   1   3  -5    7.52    0.68
  -1   3   5    9.00    0.49
   1   3  -5    7.14    0.54
   1   3  -5    6.95    0.53
   1   3  -5    7.12    0.47
   0  -3   5   13.31    0.82
   0  -3   5   13.30    0.92
   0  -3   5   12.77    0.94
   0  -3  -5   14.69    0.77
   0  -3  -5   13.74    0.86
   0  -3   5   15.87    0.86
   0   3  -5   15.59    0.83
   0   3  -5   14.86    0.89
   0   3  -5   14.94    0.84
   0   3  -5   14.47    0.76
   0   3   5   15.31    1.14
   0   3   5   17.55    0.74
   0   3  -5   13.51    0.85
   0   3   5   16.86    0.73
   0   3   5   13.31    0.98
  -1  -3  -5   65.30    3.03
  -1  -3  -5   70.21    2.99
   1  -3   5   66.47    3.03
   1  -3   5   63.72    3.05
  -1  -3  -5   66.94    2.93
  -1   3  -5   64.34    2.98
   1   3   5   63.95    3.09
   1   3   5   66.03    3.06
  -1   3  -5   66.61    3.03
  -1   3  -5   65.21    3.12
  -1   3  -5   63.63    3.04
   2  -3   5   43.94    2.34
   2  -3   5   46.25    2.15
  -2  -3  -5   48.37    2.26
   2  -3   5   47.76    2.20
   2  -3   5   43.71    2.21
  -2  -3  -5   46.77    2.10
  -2   3  -5   43.23    2.38
  -2   3  -5   46.27    2.15
  -2   3  -5   46.44    2.18
  -2   3  -5   46.71    2.24
   2   3   5   47.65    2.30
   3  -3   5    3.22    0.38
   3  -3   5    2.98    0.67
  -3  -3  -5    4.11    0.39
  -3  -3  -5    3.69    0.63
   3  -3   5    3.13    0.60
  -3   3  -5    3.49    0.77
   3   3   5    3.56    0.70
  -3   3  -5    2.65    0.87
   3   3   5    3.54    0.67
  -3   3  -5    3.49    0.42
  -3   3  -5    2.51    0.80
  -4  -3  -5    3.67    0.66
   4  -3   5    3.38    0.39
   4  -3   5    2.67    0.78
   4  -3   5    2.80    0.73
  -4   3  -5    3.25    0.74
  -4   3  -5    2.07    0.38
   4   3   5    2.72    0.74
  -4   3  -5    2.14    0.63
   5  -3   5   25.15    1.83
   5  -3   5   24.00    1.29
  -5  -3  -5   23.95    1.66
  -5   3  -5   23.14    1.63
  -5   3  -5   24.15    1.85
   6  -3   5   -0.63    0.99
  -6  -3  -5    0.09    0.79
  -6   3  -5   -0.13    0.80
   7  -3   5    0.59    1.22
  -7  -3  -5    1.18    1.07
  -7   3  -5    0.22    1.04
   8  -3   5    1.27    1.59
  -8  -3  -5    1.58    1.37
  -8   3  -5    0.63    1.43
  -8   3  -5   -1.58    1.46
  -7  -4   5   -0.51    1.10
  -7  -4   5   -0.78    1.04
   7  -4  -5    1.05    1.27
   7  -4  -5   -1.09    1.48
   7   4  -5    1.24    1.42
  -7   4   5    0.58    1.42
  -7   4   5    0.44    0.97
   7   4  -5    0.10    1.09
  -6  -4   5    2.53    0.94
   6  -4  -5    4.92    1.16
  -6  -4   5    2.64    1.07
   6  -4  -5    3.71    1.02
   6   4  -5    3.05    0.97
   6   4  -5    3.84    1.13
  -6   4   5    2.92    0.92
  -6   4   5    2.57    1.19
  -5  -4   5    1.29    0.74
   5  -4  -5    2.43    0.95
  -5  -4   5    1.70    0.89
  -5   4   5    0.27    0.81
  -5   4   5    1.06    0.72
   5   4  -5    1.26    0.91
   5   4  -5    1.49    0.87
   4  -4  -5    9.18    1.00
  -4  -4   5   13.24    1.25
  -4  -4   5    9.61    1.04
   4   4  -5   12.04    1.34
  -4   4   5   12.22    1.24
  -4   4   5   11.53    1.23
  -3  -4   5    6.75    0.80
  -3  -4   5    8.30    0.90
   3  -4  -5    6.74    0.84
   3   4  -5   10.04    0.95
  -3   4   5    6.32    0.88
   3   4  -5    8.93    0.78
  -3   4   5    5.70    0.75
  -2  -4   5    1.01    0.59
  -2  -4   5   -0.07    0.57
   2  -4  -5    0.14    0.54
  -2   4   5    0.02    0.56
   2   4  -5    0.62    0.21
   2   4  -5   -0.52    0.42
   2   4  -5    0.18    0.57
   1  -4  -5    0.43    0.20
   1  -4  -5    0.72    0.49
  -1  -4   5    0.85    0.54
  -1  -4   5    0.35    0.49
  -1   4   5    0.12    0.61
   1   4  -5   -0.37    0.27
   0  -4   5   13.27    1.09
   0  -4  -5   13.31    0.77
   0  -4  -5   13.33    1.05
   0  -4   5   11.23    1.10
   0   4  -5   12.49    0.77
   0   4  -5   12.05    1.09
   0   4  -5   11.35    1.14
   0   4   5   14.82    0.70
   0   4   5   12.39    1.15
  -1  -4  -5   -0.50    0.22
   1  -4   5    0.34    0.55
   1  -4   5   -0.30    0.50
  -1  -4  -5    0.03    0.46
   1  -4   5    0.50    0.44
  -1   4  -5    0.25    0.61
  -1   4  -5    0.24    0.20
   1   4   5   -0.02    0.47
  -1   4  -5   -0.14    0.46
   2  -4   5    2.25    0.56
   2  -4   5    2.17    0.68
  -2  -4  -5    1.70    0.64
   2  -4   5    1.78    0.61
  -2  -4  -5    0.62    0.71
   2   4   5    1.72    0.64
  -2   4  -5    1.11    0.55
  -2   4  -5    1.16    0.58
   3  -4   5   11.16    1.13
   3  -4   5   12.64    1.15
   3  -4   5    9.69    1.04
  -3  -4  -5   10.23    1.01
  -3  -4  -5   13.60    0.70
   3   4   5   11.87    1.18
  -3   4  -5   10.63    1.17
  -3   4  -5   11.89    1.13
  -4  -4  -5    1.14    0.69
   4  -4   5    0.85    0.77
   4  -4   5    0.48    0.82
   4  -4   5    0.54    0.67
  -4  -4  -5    1.58    0.33
  -4   4  -5    0.82    0.67
  -4   4  -5    1.38    0.37
   4   4   5    0.68    0.68
  -4   4  -5    0.70    0.73
   5  -4   5    0.29    0.89
  -5  -4  -5    0.73    0.81
  -5  -4  -5    0.89    0.78
   5  -4   5    0.93    0.83
  -5   4  -5    0.34    0.81
  -5   4  -5   -0.21    0.94
   5   4   5    0.33    0.79
   6  -4   5    2.54    1.05
  -6  -4  -5    2.65    1.07
  -6  -4  -5    2.94    1.00
   6  -4   5    2.93    1.23
   6   4   5    3.48    1.14
   6   4   5    1.95    1.02
  -6   4  -5    2.97    1.22
  -6   4  -5    5.07    1.11
  -7  -4  -5    3.17    1.21
  -7  -4  -5    0.58    1.31
   7  -4   5    3.16    1.49
  -7   4  -5    1.70    1.30
   7   4   5    0.54    1.51
   7   4   5    0.30    1.04
  -6  -5   5    1.47    1.14
   6  -5  -5   -0.37    1.21
  -6  -5   5   -1.11    1.06
   6   5  -5    0.95    1.26
  -6   5   5    0.39    1.06
   6   5  -5   -0.80    1.12
  -6   5   5    0.70    1.33
  -5  -5   5   16.84    1.71
   5  -5  -5   19.66    1.92
  -5  -5   5   16.57    1.67
  -5   5   5   17.60    1.82
   5   5  -5   16.26    1.58
  -5   5   5   16.38    1.71
   5   5  -5   16.45    1.64
   4  -5  -5   17.31    1.52
  -4  -5   5   15.49    1.51
  -4  -5   5   14.77    1.56
   4   5  -5   17.15    1.73
  -4   5   5   18.87    1.76
  -4   5   5   15.22    1.58
   3  -5  -5    1.73    0.68
  -3  -5   5    1.87    0.81
  -3  -5   5    3.44    0.92
   3   5  -5    1.56    0.83
   3   5  -5    1.51    0.84
  -3   5   5    1.45    0.69
  -3   5   5    2.01    0.73
  -2  -5   5    0.15    0.66
  -2  -5   5    0.48    0.75
   2  -5  -5    1.22    0.74
   2   5  -5    1.06    0.74
   2   5  -5    2.23    0.66
   2   5  -5    0.67    0.73
  -2   5   5   -0.05    0.63
   1  -5  -5   24.56    1.64
   1  -5  -5   23.08    1.54
  -1  -5   5   22.27    1.66
  -1  -5   5   22.81    1.61
   1   5  -5   22.97    1.70
   1   5  -5   24.70    1.69
   1   5  -5   25.25    1.51
  -1   5   5   23.83    1.68
   0  -5  -5   16.08    1.27
   0  -5   5   15.32    1.23
   0  -5   5   13.64    1.29
   0  -5  -5   15.16    0.92
   0   5   5   14.02    1.36
   0   5  -5   13.86    1.41
   0   5  -5   15.39    1.35
   1  -5   5    6.44    0.87
   1  -5   5    4.71    0.81
  -1  -5  -5    5.90    0.85
   1  -5   5    5.83    0.70
   1  -5   5    6.80    0.93
  -1  -5  -5    6.28    0.60
  -1   5  -5    5.99    0.78
  -1   5  -5    4.51    0.84
  -1   5  -5    5.19    0.82
   1   5   5    7.87    1.08
   2  -5   5    2.14    0.77
   2  -5   5    2.00    0.80
   2  -5   5    2.25    0.71
  -2  -5  -5    2.53    0.75
   2  -5   5    1.27    0.69
  -2   5  -5    2.30    0.87
   2   5   5    1.72    0.39
  -2   5  -5    2.11    0.80
   2   5   5    1.84    0.80
  -2   5  -5    1.96    0.70
  -3  -5  -5   17.08    1.57
  -3  -5  -5   19.72    1.10
   3  -5   5   17.93    1.65
   3  -5   5   19.18    1.57
   3  -5   5   18.65    1.68
   3   5   5   17.78    1.45
  -3   5  -5   18.89    1.63
   3   5   5   17.15    1.61
  -3   5  -5   16.23    1.65
  -3   5  -5   18.01    1.51
  -4  -5  -5    7.06    1.07
   4  -5   5    7.64    1.07
   4  -5   5    6.75    1.04
   4  -5   5    8.56    1.22
  -4   5  -5    5.01    0.97
   4   5   5    7.29    1.08
  -4   5  -5    7.21    1.06
   4   5   5    8.47    1.13
  -4   5  -5    8.21    1.12
  -5  -5  -5    0.42    1.01
  -5  -5  -5    0.06    1.06
   5  -5   5   -0.60    1.23
   5  -5   5    0.27    1.07
  -5   5  -5    1.22    1.01
   5   5   5    0.04    1.06
  -5   5  -5    0.44    0.99
   5   5   5   -0.70    0.99
   6  -5   5    0.09    1.53
  -6  -5  -5    0.48    1.18
  -6  -5  -5    0.84    1.29
   6  -5   5   -0.03    1.32
   6   5   5    3.74    1.25
   6   5   5    1.34    1.47
  -6   5  -5    1.07    1.22
  -6   5  -5    1.50    1.12
  -5  -6   5    5.00    1.43
   5  -6  -5    5.17    1.34
  -5  -6   5    4.59    1.35
   5   6  -5    6.56    1.72
   5   6  -5    4.05    1.56
  -5   6   5    3.62    1.43
  -5   6   5    5.99    1.35
  -4  -6   5   10.04    1.36
  -4  -6   5    7.10    1.27
   4  -6  -5    7.71    1.24
  -4   6   5    8.56    1.33
   4   6  -5    9.09    1.52
   4   6  -5    8.68    1.45
   4   6  -5    8.99    1.51
  -4   6   5    7.10    1.23
  -3  -6   5   15.78    1.45
  -3  -6   5   15.33    1.56
   3  -6  -5   17.15    1.71
   3   6  -5   16.70    1.91
   3   6  -5   16.54    1.70
  -3   6   5   15.05    1.76
  -3   6   5   16.27    1.50
   3   6  -5   16.43    1.58
  -2  -6   5   10.27    1.27
   2  -6  -5   12.35    1.36
  -2  -6   5    9.43    1.27
   2   6  -5   10.41    1.31
   2   6  -5   12.89    1.35
  -2   6   5   10.31    1.32
   2   6  -5   10.95    1.27
   1  -6  -5    9.48    1.09
   1  -6  -5    9.38    1.12
  -1  -6   5    9.26    1.17
   1   6  -5   11.23    1.28
   1   6  -5    8.40    1.18
  -1   6   5    7.90    1.14
   0  -6  -5    7.92    1.04
   0  -6  -5   11.97    1.19
   0  -6   5   14.08    1.42
   0   6  -5   12.08    1.16
   0   6   5   12.95    1.42
   0   6  -5   10.12    1.24
   0   6  -5   15.70    1.43
   1  -6   5   15.22    1.67
   1  -6   5   16.04    1.72
   1  -6   5   15.42    1.61
  -1  -6  -5   14.92    1.53
  -1  -6  -5   15.50    1.58
  -1   6  -5   16.09    1.72
  -1   6  -5   16.87    1.80
   1   6   5   14.32    1.63
  -1   6  -5   15.94    1.57
   2  -6   5   16.28    1.79
   2  -6   5   19.28    1.94
  -2  -6  -5   19.90    1.73
  -2  -6  -5   18.18    1.73
   2  -6   5   17.31    1.81
  -2   6  -5   18.23    1.77
   2   6   5   17.49    1.79
  -2   6  -5   21.50    1.99
  -2   6  -5   16.48    1.88
  -3  -6  -5    9.08    1.20
  -3  -6  -5    5.52    1.20
   3  -6   5    5.38    1.23
   3  -6   5    7.50    1.24
   3  -6   5    7.93    1.29
  -3   6  -5    5.82    1.29
  -3   6  -5    5.81    1.13
   3   6   5    6.28    1.12
  -3   6  -5    8.53    1.55
   3   6   5    5.95    1.08
   4  -6   5    4.68    1.32
  -4  -6  -5    6.40    1.33
   4  -6   5    5.18    1.48
  -4  -6  -5    5.83    1.23
   4  -6   5    4.63    1.27
   4   6   5    4.77    1.19
  -4   6  -5    2.03    1.02
   4   6   5    5.56    1.23
  -4   6  -5    8.18    1.48
  -4   6  -5    5.47    1.25
   5  -6   5    1.78    1.54
   5  -6   5    0.67    1.71
  -5  -6  -5    2.29    1.29
   5   6   5    2.55    1.33
  -5   6  -5    2.29    1.36
   5   6   5    2.07    1.32
  -5   6  -5    0.62    1.24
  -3  -7   5   12.97    1.62
  -3  -7   5   10.14    1.61
   3  -7  -5   10.95    1.54
   3   7  -5   11.05    1.86
   3   7  -5   12.15    1.80
  -3   7   5   11.25    1.64
   3   7  -5   10.51    2.70
  -3   7   5   13.38    2.33
   2  -7  -5   10.51    1.52
  -2  -7   5   11.31    1.54
   2   7  -5    7.81    1.31
   2   7  -5   10.51    1.61
  -2   7   5    9.30    1.77
   2   7  -5   11.02    1.69
  -1  -7   5    1.99    1.14
   1  -7  -5    1.03    1.05
   1   7  -5    1.13    1.29
   1   7  -5    1.56    1.22
  -1   7   5    0.26    1.24
   0  -7   5    1.34    1.14
   0  -7  -5    0.18    0.91
   0  -7   5    1.78    1.10
   0  -7  -5    2.38    1.32
   0  -7   5    1.19    1.34
   0   7   5    0.72    1.07
   0   7  -5    0.75    1.24
   0   7  -5    1.30    1.22
   0   7  -5    3.36    1.20
  -1  -7  -5   11.96    1.53
  -1  -7  -5   14.23    1.59
   1  -7   5   11.43    1.58
   1  -7   5   11.09    1.68
   1  -7   5   13.44    1.53
   1   7   5   13.57    1.86
  -1   7  -5   11.69    1.64
  -1   7  -5   11.42    1.52
  -1   7  -5   12.46    1.71
  -2  -7  -5    8.46    1.40
  -2  -7  -5    6.14    1.52
   2  -7   5    7.02    1.61
   2  -7   5    8.01    1.46
   2  -7   5    7.73    1.50
   2   7   5    7.15    1.70
  -2   7  -5    3.98    1.34
  -2   7  -5    6.24    1.54
  -2   7  -5    9.97    1.76
  -3  -7  -5   -0.63    1.31
   3  -7   5   -2.00    1.27
   3  -7   5    1.75    1.50
   3  -7   5   -0.25    1.74
  -3   7  -5    1.23    1.48
  -3   7  -5    2.72    1.62
  -3   7  -5    2.87    1.77
   3   7   5    0.44    1.59
  -8   0   6   12.96    1.42
   8   0  -6   13.80    1.53
  -8   0   6   17.08    1.54
   7   0  -6   57.23    3.19
  -7   0   6   60.16    3.14
  -7   0   6   61.25    3.17
   6   0  -6   15.97    1.34
  -6   0   6   13.78    1.23
  -6   0   6   15.73    1.34
  -5   0   6    9.84    0.50
   5   0  -6    7.99    0.96
  -5   0   6    7.73    0.86
  -4   0   6  160.71    7.02
  -4   0   6  153.02    7.08
  -4   0   6  160.18    7.15
   4   0  -6  165.04    7.20
   4   0  -6  156.18    7.05
  -3   0   6  326.15   14.42
   3   0  -6  322.06   14.44
   3   0  -6  318.12   14.36
  -3   0   6  340.10   14.43
  -3   0   6  326.88   14.40
  -3   0   6  320.02   14.36
  -3   0   6  337.24   14.35
  -2   0   6    1.10    0.16
  -2   0   6    0.49    0.17
  -2   0   6    0.62    0.18
   2   0  -6    0.34    0.19
   2   0  -6    0.13    0.18
   2   0  -6    0.46    0.21
  -2   0   6    0.00    0.25
   2   0  -6    0.22    0.20
  -2   0   6   -0.32    0.18
   1   0  -6    5.76    0.45
  -1   0   6    6.27    0.41
  -1   0   6    6.44    0.40
  -1   0   6    6.44    0.40
   1   0  -6    5.15    0.44
  -1   0   6    7.23    0.38
   1   0  -6    5.90    0.47
   1   0  -6    5.51    0.44
   0   0  -6  244.51   11.10
   0   0  -6  252.52   11.04
   0   0  -6  246.04   11.09
   0   0   6  251.57   11.05
   0   0   6  256.97   11.09
   0   0   6  244.04   11.08
   0   0   6  263.12   11.10
   0   0   6  253.81   11.04
   0   0   6  257.13   11.09
   1   0   6   51.26    2.31
   1   0   6   49.30    2.31
  -1   0  -6   48.22    2.33
   1   0   6   48.84    2.26
   1   0   6   46.70    2.31
  -1   0  -6   52.56    2.26
  -1   0  -6   49.14    2.21
  -1   0  -6   51.54    2.31
  -1   0  -6   48.62    2.32
   1   0   6   54.51    2.28
   2   0   6  113.20    5.03
  -2   0  -6  116.54    4.98
  -2   0  -6  108.58    5.09
  -2   0  -6  110.41    5.07
   2   0   6  117.35    5.06
   2   0   6  112.35    5.06
   2   0   6  108.78    5.09
  -2   0  -6  112.28    5.07
  -2   0  -6  119.47    5.03
  -3   0  -6    8.52    0.56
  -3   0  -6    8.45    0.49
  -3   0  -6    7.30    0.57
   3   0   6    5.94    0.56
   3   0   6    7.81    0.61
  -3   0  -6    7.72    0.52
   3   0   6    7.16    0.63
  -3   0  -6    6.85    0.47
  -4   0  -6  258.88   11.56
  -4   0  -6  262.92   11.44
  -4   0  -6  269.10   11.49
   4   0   6  253.60   11.64
   4   0   6  264.34   11.53
  -4   0  -6  255.76   11.56
  -5   0  -6   10.81    1.07
   5   0   6    7.80    0.91
   5   0   6   10.90    0.86
  -5   0  -6    8.91    0.92
  -5   0  -6    9.07    0.76
  -6   0  -6   30.15    1.79
  -6   0  -6   27.67    1.87
   6   0   6   27.04    1.80
  -6   0  -6   31.15    1.90
  -6   0  -6   25.06    1.71
   6   0   6   27.80    1.98
   7   0   6    4.74    1.29
  -7   0  -6    5.06    1.09
  -7   0  -6    4.08    1.01
  -7   0  -6    3.57    0.98
   8   0   6   61.57    3.88
  -8   0  -6   56.71    3.47
  -8   0  -6   59.34    3.40
  -8   0  -6   56.97    3.45
   8  -1  -6    3.59    1.20
  -8  -1   6    6.13    1.11
  -8  -1   6    3.98    1.22
  -8   1   6    5.90    1.14
  -8   1   6    5.24    1.12
   8   1  -6    3.34    1.14
  -7  -1   6    3.02    0.97
   7  -1  -6    2.49    0.91
  -7  -1   6    3.78    0.94
  -7   1   6    3.57    0.92
   7   1  -6    2.26    0.92
  -7   1   6    3.97    0.98
  -6  -1   6    6.29    0.89
  -6  -1   6    7.09    0.92
   6  -1  -6    5.70    0.85
   6   1  -6    8.55    0.83
  -6   1   6    6.72    0.92
   6   1  -6    7.00    1.00
  -6   1   6    6.47    0.86
   5  -1  -6   27.29    1.64
  -5  -1   6   24.79    1.56
  -5  -1   6   24.49    1.61
   5   1  -6   28.11    1.38
  -5   1   6   24.43    1.60
  -5   1   6   31.86    1.42
  -5   1   6   25.50    1.36
   5   1  -6   24.43    1.64
  -4  -1   6    3.90    0.37
  -4  -1   6    4.04    0.60
   4  -1  -6    4.61    0.64
   4   1  -6    4.35    0.66
  -4   1   6    3.53    0.50
  -4   1   6    7.07    0.67
   4   1  -6    4.24    0.47
   4   1  -6    4.40    0.53
  -4   1   6    5.13    0.44
   3  -1  -6    2.16    0.25
  -3  -1   6    1.65    0.25
   3  -1  -6    1.16    0.26
  -3  -1   6    1.91    0.28
   3  -1  -6    1.52    0.28
   3   1  -6    1.36    0.29
  -3   1   6    2.10    0.24
  -3   1   6    1.73    0.24
  -3   1   6    1.74    0.26
   3   1  -6    1.68    0.27
   3   1  -6    2.92    0.29
  -2  -1   6   84.75    3.89
   2  -1  -6   81.54    3.89
  -2  -1   6   86.47    3.80
   2  -1  -6   84.19    3.85
  -2  -1   6   87.79    3.90
   2  -1  -6   86.27    3.88
  -2  -1   6   87.36    3.82
  -2  -1   6   81.50    3.86
  -2   1   6   90.05    3.86
  -2   1   6   87.42    3.86
   2   1  -6   86.30    3.83
   2   1  -6   84.59    3.92
  -2   1   6   88.43    3.85
  -2   1   6   84.61    3.89
   2   1  -6   83.08    3.89
  -2   1   6   88.75    3.88
   1  -1  -6   34.96    1.74
  -1  -1   6   36.42    1.67
  -1  -1   6   35.18    1.73
   1  -1  -6   36.50    1.71
   1  -1  -6   35.50    1.72
  -1  -1   6   36.13    1.72
   1  -1  -6   36.91    1.73
  -1  -1   6   36.82    1.69
  -1  -1   6   35.34    1.73
  -1   1   6   35.83    1.69
   1   1  -6   34.66    1.75
   1   1  -6   36.10    1.70
  -1   1   6   35.74    1.72
  -1   1   6   38.76    1.70
   1   1  -6   38.22    1.67
   1   1  -6   36.83    1.74
  -1   1   6   38.08    1.70
   0  -1   6  163.93    7.12
   0  -1   6  155.68    7.11
   0  -1   6  155.50    7.04
   0  -1   6  155.62    7.12
   0  -1  -6  157.91    7.08
   0  -1   6  164.52    7.11
   0  -1  -6  159.98    7.14
   0   1   6  160.76    7.08
   0   1   6  159.97    7.09
   0   1  -6  167.88    7.11
   0   1  -6  161.36    7.14
   0   1   6  167.66    7.13
   0   1  -6  159.03    7.13
   0   1  -6  157.70    7.12
   0   1   6  159.15    7.07
   0   1   6  163.79    7.12
   1  -1   6    3.20    0.31
  -1  -1  -6    3.36    0.29
  -1  -1  -6    3.16    0.31
  -1  -1  -6    3.61    0.40
   1  -1   6    3.00    0.31
   1  -1   6    2.22    0.29
   1  -1   6    3.80    0.28
   1  -1   6    3.37    0.37
   1  -1   6    3.64    0.40
   1   1   6    4.05    0.37
  -1   1  -6    3.41    0.39
   1   1   6    4.27    0.25
   1   1   6    3.46    0.33
  -1   1  -6    2.54    0.31
  -1   1  -6    3.66    0.31
   1   1   6    3.27    0.37
  -1   1  -6    3.11    0.23
   1   1   6    2.22    0.28
  -1   1  -6    3.83    0.37
   2  -1   6    5.63    0.46
  -2  -1  -6    5.38    0.49
   2  -1   6    6.60    0.44
   2  -1   6    5.34    0.48
  -2  -1  -6    5.48    0.35
  -2  -1  -6    5.28    0.50
  -2  -1  -6    5.20    0.39
   2  -1   6    5.11    0.52
  -2   1  -6    5.69    0.49
  -2   1  -6    5.14    0.46
   2   1   6    5.66    0.45
   2   1   6    5.26    0.45
   2   1   6    7.23    0.37
   2   1   6    6.54    0.51
   2   1   6    5.73    0.55
  -2   1  -6    5.66    0.44
  -2   1  -6    6.39    0.52
  -2   1  -6    5.19    0.56
  -3  -1  -6   38.02    1.85
  -3  -1  -6   38.13    2.17
  -3  -1  -6   34.78    1.93
   3  -1   6   37.17    1.85
  -3  -1  -6   40.05    1.80
  -3  -1  -6   37.83    1.78
   3  -1   6   39.39    1.88
   3  -1   6   40.76    1.83
   3   1   6   37.67    1.89
   3   1   6   37.54    1.87
  -3   1  -6   37.21    1.91
   3   1   6   42.03    1.77
  -3   1  -6   37.29    1.84
  -3   1  -6   36.60    1.80
   3   1   6   38.65    1.88
  -3   1  -6   36.68    1.87
  -4  -1  -6    2.49    0.27
  -4  -1  -6    2.31    0.50
   4  -1   6    2.34    0.67
  -4  -1  -6    1.47    0.50
  -4  -1  -6    1.79    0.30
   4  -1   6    1.76    0.43
   4   1   6    1.65    0.60
  -4   1  -6    1.76    0.54
   4   1   6    1.16    0.52
  -4   1  -6    1.75    0.51
  -4   1  -6    1.57    0.30
   5  -1   6   13.98    1.35
  -5  -1  -6   13.77    1.14
  -5  -1  -6   14.84    1.19
   5  -1   6   13.14    0.98
  -5  -1  -6   13.65    1.23
  -5   1  -6   13.53    0.84
  -5   1  -6   15.33    1.23
  -5   1  -6   13.58    1.19
   5   1   6   13.19    1.38
  -6  -1  -6    2.41    0.81
  -6  -1  -6    2.79    0.77
  -6  -1  -6    1.40    0.73
   6  -1   6    1.56    0.86
  -6   1  -6    1.44    0.60
  -6   1  -6    1.18    0.57
  -6   1  -6    1.93    0.86
  -6   1  -6    1.94    0.75
   6   1   6    2.25    0.87
   7  -1   6   18.17    1.81
  -7  -1  -6   16.74    1.74
  -7  -1  -6   20.90    1.85
  -7  -1  -6   19.53    1.87
  -7   1  -6   20.77    1.91
  -7   1  -6   18.64    1.77
   7   1   6   19.93    1.97
  -7   1  -6   22.03    1.78
   8  -1   6    0.68    1.44
  -8  -1  -6    1.88    1.21
  -8  -1  -6    2.17    1.36
  -8  -1  -6    2.88    1.19
  -8   1  -6    2.78    1.19
  -8   1  -6    2.17    1.31
  -8   1  -6    0.40    1.42
   8   1   6    1.06    1.63
   8  -2  -6    4.79    1.30
  -8  -2   6    6.02    1.33
  -8  -2   6    4.70    1.39
   8   2  -6    6.10    1.52
   8   2  -6    4.64    1.36
  -8   2   6    5.48    1.24
  -8   2   6    4.70    1.21
  -7  -2   6    1.81    1.03
   7  -2  -6    3.28    1.04
  -7  -2   6    2.97    0.99
   7   2  -6    2.85    1.13
   7   2  -6    3.67    1.12
  -7   2   6    3.01    1.14
  -7   2   6    3.74    0.99
   6  -2  -6   42.53    2.39
  -6  -2   6   41.59    2.37
   6  -2  -6   42.50    2.44
  -6  -2   6   41.34    2.38
  -6   2   6   40.66    2.36
   6   2  -6   39.09    2.40
   6   2  -6   41.89    2.42
  -6   2   6   42.24    2.37
  -5  -2   6   22.60    1.50
   5  -2  -6   25.68    1.60
   5  -2  -6   23.43    1.52
  -5  -2   6   22.52    1.56
   5   2  -6   21.67    1.52
   5   2  -6   20.62    1.60
  -5   2   6   21.13    1.50
   4  -2  -6   25.52    1.26
  -4  -2   6   23.56    1.50
  -4  -2   6   23.40    1.25
   4  -2  -6   21.44    1.50
   4   2  -6   23.02    1.53
   4   2  -6   23.43    1.47
   4   2  -6   23.29    1.34
  -4   2   6   25.63    1.27
  -4   2   6   26.84    1.23
  -4   2   6   23.14    1.46
   3  -2  -6    4.50    0.57
  -3  -2   6    5.94    0.49
  -3  -2   6    6.74    0.68
   3  -2  -6    6.97    0.51
  -3   2   6    4.97    0.60
   3   2  -6    7.87    0.76
  -3   2   6    4.31    0.57
   3   2  -6    6.68    0.49
  -3   2   6    7.57    0.49
   2  -2  -6   81.31    3.85
  -2  -2   6   81.87    3.89
  -2  -2   6   87.48    3.75
  -2  -2   6   82.57    3.82
  -2  -2   6   79.72    3.86
   2  -2  -6   83.28    3.79
  -2   2   6   85.90    3.86
   2   2  -6   85.61    3.76
   2   2  -6   85.59    3.77
   2   2  -6   83.88    3.88
   2   2  -6   86.49    3.84
  -2   2   6   80.65    3.88
  -2   2   6   87.42    3.80
  -2   2   6   83.74    3.90
  -2   2   6   90.63    3.78
   2   2  -6   83.81    3.77
   2   2  -6   81.59    3.86
  -2   2   6   85.58    3.81
  -1  -2   6   25.37    1.30
   1  -2  -6   26.56    1.34
  -1  -2   6   25.62    1.34
  -1  -2   6   27.59    1.28
  -1  -2   6   26.30    1.37
  -1   2   6   27.78    1.33
  -1   2   6   25.41    1.35
  -1   2   6   27.99    1.26
  -1   2   6   28.28    1.26
   1   2  -6   26.07    1.36
   1   2  -6   26.03    1.30
   1   2  -6   27.46    1.32
   1   2  -6   28.37    1.36
  -1   2   6   27.14    1.32
  -1   2   6   25.15    1.39
   1   2  -6   27.75    1.30
   0  -2   6    8.86    0.55
   0  -2   6    6.82    0.53
   0  -2  -6    7.79    0.54
   0  -2   6    8.05    0.56
   0  -2  -6    7.33    0.59
   0  -2   6    7.97    0.49
   0   2   6    9.31    0.47
   0   2   6   10.13    0.53
   0   2  -6    7.34    0.51
   0   2  -6    6.98    0.55
   0   2   6    9.23    0.57
   0   2  -6    8.84    0.53
   0   2  -6    7.29    0.55
   0   2  -6    7.28    0.55
  -1  -2  -6   89.55    4.02
   1  -2   6   86.38    4.01
   1  -2   6   87.10    4.02
   1  -2   6   87.55    4.00
  -1  -2  -6   87.62    3.96
   1  -2   6   87.42    4.03
  -1  -2  -6   91.50    3.96
  -1  -2  -6   87.54    3.97
   1  -2   6   87.07    3.99
  -1   2  -6   83.70    4.04
  -1   2  -6   87.60    4.00
  -1   2  -6   91.73    3.93
   1   2   6   94.15    3.95
   1   2   6   87.83    4.01
  -1   2  -6   85.83    3.92
  -1   2  -6   92.11    4.01
   1   2   6   85.00    3.95
   2  -2   6  196.98    9.00
  -2  -2  -6  203.39    8.94
   2  -2   6  201.92    8.95
   2  -2   6  203.31    9.00
   2  -2   6  220.07    9.18
   2  -2   6  217.35    8.93
  -2  -2  -6  203.56    8.98
   2  -2   6  202.48    8.87
  -2   2  -6  203.20    8.90
   2   2   6  203.54    8.99
  -2   2  -6  195.42    8.96
  -2   2  -6  197.59    9.00
  -2   2  -6  192.23    9.04
   2   2   6  208.22    8.93
   2   2   6  190.51    8.97
  -2   2  -6  198.64    8.93
  -3  -2  -6   12.44    0.67
   3  -2   6   10.27    0.86
   3  -2   6   10.49    0.75
  -3  -2  -6   10.84    0.70
  -3  -2  -6   12.14    0.68
   3  -2   6   10.69    0.97
   3  -2   6   11.36    0.60
   3  -2   6   12.99    1.02
   3   2   6   13.32    0.72
  -3   2  -6   10.67    0.66
  -3   2  -6   10.99    1.01
  -3   2  -6   10.92    0.70
   3   2   6   10.41    0.93
   4  -2   6   28.37    1.47
   4  -2   6   29.07    1.72
   4  -2   6   28.49    1.79
  -4  -2  -6   30.57    1.49
  -4  -2  -6   30.10    1.53
   4   2   6   28.45    1.69
   4   2   6   26.93    1.81
  -4   2  -6   27.95    1.65
  -4   2  -6   29.77    1.45
   5  -2   6   14.64    1.41
  -5  -2  -6   13.68    1.33
  -5  -2  -6   14.84    1.22
  -5  -2  -6   12.70    1.03
   5   2   6   13.97    1.42
  -5   2  -6   14.32    1.32
  -6  -2  -6   58.58    2.95
   6  -2   6   57.97    3.20
  -6  -2  -6   56.35    2.92
  -6  -2  -6   53.86    3.06
  -6   2  -6   55.62    2.93
  -6   2  -6   55.64    3.05
   6   2   6   54.86    3.15
  -6   2  -6   59.62    3.07
  -7  -2  -6    0.52    0.94
   7  -2   6    0.80    1.17
  -7  -2  -6    0.75    1.02
  -7  -2  -6    1.91    1.03
  -7   2  -6    1.45    0.99
  -7   2  -6    0.25    0.95
  -7   2  -6    0.19    1.10
   7   2   6    0.70    0.96
  -8  -2  -6   13.77    1.63
  -8  -2  -6   11.46    1.57
   8  -2   6   16.00    1.92
  -8   2  -6   12.03    1.63
  -8   2  -6   13.50    1.81
  -8   2  -6   10.59    1.64
  -8  -3   6    4.00    1.50
  -8  -3   6    3.53    1.78
   8  -3  -6    1.11    1.91
   8   3  -6    1.68    1.83
   8   3  -6    3.08    1.87
   7  -3  -6    8.66    1.33
  -7  -3   6    6.26    1.26
  -7  -3   6    6.61    1.19
   7  -3  -6    6.72    1.23
  -7   3   6    6.00    1.06
   7   3  -6    6.54    1.38
  -7   3   6    6.46    1.42
   7   3  -6    7.79    1.27
   6  -3  -6    3.06    1.05
  -6  -3   6    3.06    0.89
  -6  -3   6    4.03    0.95
   6  -3  -6    2.54    0.87
   6   3  -6    2.10    0.86
  -6   3   6    3.20    0.87
   6   3  -6    2.00    0.89
  -6   3   6    2.92    1.03
  -5  -3   6   13.34    1.34
   5  -3  -6   12.97    1.35
  -5   3   6   14.46    1.44
  -5   3   6   12.83    1.32
   5   3  -6   13.12    1.37
   5   3  -6   12.36    1.34
  -4  -3   6    6.27    0.80
   4  -3  -6    6.88    0.81
   4  -3  -6    8.70    0.59
  -4  -3   6    7.60    0.91
  -4   3   6    5.95    0.77
   4   3  -6    9.65    0.94
  -4   3   6    9.31    1.06
   4   3  -6    6.75    0.71
   4   3  -6    7.53    0.96
  -3  -3   6   32.81    1.77
  -3  -3   6   31.13    1.76
   3  -3  -6   33.09    1.84
   3  -3  -6   36.14    1.54
  -3   3   6   31.14    1.52
   3   3  -6   29.04    1.53
   3   3  -6   31.30    1.84
  -3   3   6   32.16    1.80
  -3   3   6   31.72    1.80
   3   3  -6   31.15    1.78
  -2  -3   6    4.60    0.62
  -2  -3   6    4.29    0.61
   2  -3  -6    3.69    0.54
  -2  -3   6    5.68    0.36
   2   3  -6    3.84    0.61
   2   3  -6    4.13    0.43
  -2   3   6    5.33    0.74
   1  -3  -6   11.05    0.90
  -1  -3   6    8.91    0.90
  -1  -3   6   13.49    0.68
  -1  -3   6   11.26    0.90
  -1  -3   6   11.91    0.66
   1   3  -6   11.02    0.61
   1   3  -6   10.64    0.70
   1   3  -6   10.38    0.68
  -1   3   6   11.49    0.60
   1   3  -6    9.72    0.90
  -1   3   6   10.21    0.93
   0  -3   6    3.50    0.36
   0  -3   6    2.83    0.45
   0  -3   6    3.66    0.55
   0  -3   6    2.85    0.43
   0   3   6    3.02    0.57
   0   3  -6    3.80    0.38
   0   3  -6    3.79    0.40
   0   3  -6    3.87    0.32
   0   3   6    4.62    0.31
   0   3   6    4.86    0.28
   0   3  -6    2.90    0.46
   0   3   6    3.43    0.54
   1  -3   6   43.10    2.39
   1  -3   6   47.91    2.32
  -1  -3  -6   49.76    2.25
   1  -3   6   49.29    2.34
  -1   3  -6   49.20    2.30
  -1   3  -6   50.11    2.30
  -1   3  -6   49.72    2.23
   1   3   6   47.72    2.33
   2  -3   6    0.26    0.48
   2  -3   6    0.01    0.50
   2  -3   6    0.14    0.16
  -2  -3  -6   -0.26    0.44
  -2   3  -6   -0.33    0.37
  -2   3  -6    0.64    0.22
  -2   3  -6    0.08    0.17
  -2   3  -6    1.10    0.44
   2   3   6   -0.35    0.24
  -3  -3  -6   41.28    1.81
   3  -3   6   39.60    1.85
  -3  -3  -6   37.06    2.00
  -3  -3  -6   41.09    2.07
   3  -3   6   39.09    2.12
   3  -3   6   37.45    2.14
  -3   3  -6   37.59    2.19
   3   3   6   38.16    2.13
  -3   3  -6   39.19    1.91
   4  -3   6    0.33    0.72
   4  -3   6    0.22    0.34
  -4  -3  -6    1.47    0.27
  -4  -3  -6    0.00    0.54
   4  -3   6   -0.01    0.69
  -4   3  -6    0.75    0.76
  -4   3  -6    0.97    0.58
   4   3   6    0.47    0.70
   5  -3   6   20.63    1.75
  -5  -3  -6   20.14    1.52
   5  -3   6   19.45    1.14
   5   3   6   21.36    1.78
  -5   3  -6   20.08    1.55
  -6  -3  -6    1.32    0.89
   6  -3   6    0.41    1.02
  -6   3  -6    0.14    0.87
   7  -3   6   15.26    1.78
  -7  -3  -6   19.21    1.68
  -7   3  -6   14.89    1.69
  -7   3  -6   18.40    1.68
  -8  -3  -6    1.76    1.40
   8  -3   6    0.26    1.69
   8   3   6   -1.51    1.29
  -8   3  -6   -1.78    1.43
  -8   3  -6    0.91    3.13
  -8   3  -6   -0.01    1.58
   7  -4  -6   10.37    1.73
  -7  -4   6    9.95    1.54
   7  -4  -6   10.74    1.47
  -7  -4   6   10.67    1.51
  -7   4   6    9.48    1.78
   7   4  -6   13.42    1.79
   7   4  -6    8.75    1.43
  -7   4   6   10.62    1.43
   6  -4  -6    6.62    1.23
  -6  -4   6    5.03    1.17
   6  -4  -6    4.92    1.15
  -6  -4   6    4.53    1.10
   6   4  -6    4.60    1.21
  -6   4   6    3.89    0.95
   6   4  -6    5.13    1.12
  -6   4   6    3.96    1.32
  -5  -4   6    5.21    0.96
   5  -4  -6    5.70    1.03
  -5  -4   6    4.10    0.95
  -5   4   6    6.62    1.20
  -5   4   6    6.85    1.00
   5   4  -6    2.83    0.87
   5   4  -6    4.31    0.97
  -4  -4   6   62.48    3.22
   4  -4  -6   63.81    3.24
  -4  -4   6   59.90    3.18
   4   4  -6   56.37    3.20
   4   4  -6   73.62    3.09
  -4   4   6   61.86    3.27
  -4   4   6   59.70    3.17
   4   4  -6   60.53    3.25
  -3  -4   6   24.19    1.65
   3  -4  -6   25.48    1.69
  -3  -4   6   25.44    1.64
   3   4  -6   23.19    1.45
  -3   4   6   26.37    1.64
   3   4  -6   26.25    1.65
   3   4  -6   28.44    1.36
   3   4  -6   27.53    1.83
  -3   4   6   25.39    1.80
  -3   4   6   29.50    1.45
  -2  -4   6   28.51    1.75
  -2  -4   6   35.93    1.60
  -2  -4   6   29.33    1.77
   2  -4  -6   29.50    1.79
   2   4  -6   30.05    1.81
  -2   4   6   29.49    1.83
   2   4  -6   31.37    1.53
   2   4  -6   28.85    1.56
  -1  -4   6   -0.10    0.56
   1  -4  -6    0.17    0.50
  -1  -4   6    0.33    0.55
  -1   4   6    0.36    0.45
   1   4  -6   -0.07    0.31
   1   4  -6    0.63    0.51
   0  -4  -6  122.82    5.39
   0  -4   6  115.46    5.50
   0  -4   6  110.36    5.56
   0  -4  -6  119.83    5.55
   0  -4   6  119.49    5.52
   0   4   6  119.68    5.62
   0   4   6  133.48    5.37
   0   4  -6  118.86    5.59
   0   4  -6  119.38    5.60
   0   4  -6  125.94    5.38
   1  -4   6   20.13    1.38
  -1  -4  -6   19.06    1.35
   1  -4   6   19.90    1.41
   1  -4   6   18.64    1.31
  -1  -4  -6   20.36    1.01
  -1   4  -6   20.22    1.40
  -1   4  -6   21.76    1.07
  -1   4  -6   20.37    1.47
   1   4   6   19.71    1.43
  -2  -4  -6   49.73    2.60
  -2  -4  -6   51.56    2.65
   2  -4   6   51.15    2.61
  -2  -4  -6   50.78    2.37
   2  -4   6   47.81    2.67
   2  -4   6   51.41    2.63
   2  -4   6   48.10    2.49
  -2   4  -6   50.16    2.73
   2   4   6   51.31    2.68
  -2   4  -6   54.74    2.65
  -2   4  -6   56.96    2.43
  -3  -4  -6   12.13    0.74
   3  -4   6   14.71    1.37
   3  -4   6   11.38    0.92
   3  -4   6   13.41    1.31
  -3  -4  -6   13.15    1.19
  -3   4  -6   13.75    1.23
   3   4   6   11.50    1.23
  -3   4  -6   13.48    1.31
  -3   4  -6   13.37    1.34
  -4  -4  -6   69.54    3.12
   4  -4   6   67.88    3.54
   4  -4   6   66.80    3.50
  -4  -4  -6   65.45    3.42
  -4   4  -6   72.62    3.25
  -4   4  -6   68.84    3.41
  -4   4  -6   64.36    3.58
   5  -4   6    5.96    1.14
   5  -4   6    5.05    0.93
  -5  -4  -6    5.27    0.95
  -5   4  -6    4.86    0.96
  -5   4  -6    3.17    0.92
   6  -4   6   20.87    1.90
   6  -4   6   22.43    2.26
  -6  -4  -6   21.15    1.93
  -6  -4  -6   21.34    1.87
  -6   4  -6   17.19    1.66
   7  -4   6    4.57    1.66
  -7  -4  -6    2.82    1.46
  -7  -4  -6    3.42    1.29
   7   4   6    1.97    1.63
   7   4   6    2.43    1.22
  -7   4  -6    1.20    1.31
   6  -5  -6    1.15    1.22
  -6  -5   6    2.87    1.19
  -6  -5   6    0.89    1.15
  -6   5   6    0.27    0.99
  -6   5   6   -0.81    1.32
   6   5  -6    0.11    1.47
   6   5  -6   -1.19    1.18
  -5  -5   6   -0.15    0.84
  -5  -5   6    0.48    0.92
   5  -5  -6    0.64    0.90
  -5   5   6    0.50    1.17
   5   5  -6    0.53    1.13
  -5   5   6   -0.24    0.84
   5   5  -6    0.34    1.08
  -4  -5   6   -0.20    0.74
  -4  -5   6    0.28    0.82
   4  -5  -6    0.59    0.85
   4   5  -6    1.32    0.98
   4   5  -6   -0.03    0.79
  -4   5   6    0.25    0.91
  -4   5   6    0.16    0.83
  -3  -5   6    3.35    0.89
   3  -5  -6    2.19    0.79
  -3  -5   6    1.85    0.80
   3   5  -6    1.92    0.85
  -3   5   6    3.09    0.93
  -3   5   6    4.25    0.83
   3   5  -6    4.04    0.99
   3   5  -6    1.59    0.64
   2  -5  -6    3.13    0.79
  -2  -5   6    1.25    0.78
  -2  -5   6    2.69    0.79
   2   5  -6    2.21    0.71
   2   5  -6    2.25    0.80
   2   5  -6    2.46    0.82
  -2   5   6    4.01    0.96
   2   5  -6    1.90    0.64
   1  -5  -6    0.96    0.62
  -1  -5   6    1.01    0.62
  -1  -5   6   -0.15    0.69
   1   5  -6   -0.18    0.72
   1   5  -6   -0.78    0.57
  -1   5   6    0.20    0.68
   1   5  -6    0.07    0.56
   1   5  -6    0.70    0.72
   0  -5  -6    0.89    0.43
   0  -5   6    1.62    0.66
   0  -5  -6    1.41    0.62
   0   5  -6    0.84    0.83
   0   5  -6    1.35    0.64
   0   5   6    1.35    0.80
   0   5  -6    0.75    0.33
   1  -5   6   -0.17    0.61
   1  -5   6    1.07    0.75
   1  -5   6    1.48    0.80
  -1  -5  -6    1.76    0.70
   1  -5   6    1.22    0.69
  -1   5  -6    1.64    0.73
   1   5   6    1.69    0.81
  -1   5  -6    1.55    0.74
  -2  -5  -6    2.25    0.71
   2  -5   6    1.60    0.73
   2  -5   6    4.16    0.68
   2  -5   6    1.56    0.79
   2  -5   6    1.43    0.82
  -2  -5  -6    1.72    0.38
  -2   5  -6    4.16    0.97
  -2   5  -6    2.00    0.83
   2   5   6    1.44    0.44
   2   5   6    2.53    0.74
  -2   5  -6    1.98    0.72
  -3  -5  -6    1.80    0.41
   3  -5   6    2.38    0.89
   3  -5   6    1.73    0.91
  -3  -5  -6    1.77    0.82
   3  -5   6    0.86    0.78
   3   5   6    1.22    0.85
   3   5   6    1.19    0.75
  -3   5  -6    1.02    0.75
  -3   5  -6    0.25    0.78
  -3   5  -6    2.40    0.97
  -4  -5  -6   -0.66    0.44
   4  -5   6    1.91    0.88
  -4  -5  -6    1.07    0.81
   4  -5   6   -0.10    0.93
   4  -5   6   -0.22    0.98
  -4   5  -6    0.43    0.85
  -4   5  -6    0.05    0.87
   4   5   6   -0.22    0.96
   4   5   6   -0.82    0.84
  -4   5  -6    0.42    0.99
   5  -5   6    2.51    0.93
   5  -5   6    6.49    1.37
  -5  -5  -6    4.29    1.11
  -5  -5  -6    5.84    1.20
   5  -5   6    4.97    1.18
   5   5   6    3.71    1.11
   5   5   6    6.38    1.36
  -5   5  -6    4.12    1.04
  -5   5  -6    4.01    1.16
  -6  -5  -6   -0.45    1.20
   6  -5   6    0.94    1.56
   6  -5   6    0.77    1.38
  -6   5  -6    1.32    1.27
  -6   5  -6    0.47    1.29
   6   5   6    0.42    1.56
   6   5   6    0.35    1.20
  -5  -6   6   12.36    1.64
  -5  -6   6   10.64    1.70
   5  -6  -6   11.99    1.67
  -5   6   6   12.01    1.62
   5   6  -6   15.84    2.00
   5   6  -6   10.62    1.78
  -5   6   6   12.20    1.83
   4  -6  -6    2.46    1.14
  -4  -6   6   -0.06    0.96
  -4  -6   6    2.10    1.03
   4   6  -6   -0.73    1.30
  -4   6   6    1.33    0.96
   4   6  -6   -0.43    1.09
  -4   6   6    1.22    1.32
   4   6  -6    0.12    1.38
  -3  -6   6   -0.34    0.98
  -3  -6   6    0.36    0.99
   3  -6  -6   -0.71    0.95
   3   6  -6    1.51    1.00
  -3   6   6    1.04    0.95
   3   6  -6   -0.09    1.14
  -3   6   6    1.08    0.96
   3   6  -6    0.43    1.14
   2  -6  -6   19.86    1.79
  -2  -6   6   21.07    1.82
  -2  -6   6   17.95    1.84
   2   6  -6   18.82    1.77
   2   6  -6   20.86    1.94
   2   6  -6   21.12    1.95
  -2   6   6   20.00    1.90
  -1  -6   6    6.47    1.08
   1  -6  -6    3.46    0.87
   1   6  -6    4.03    1.00
  -1   6   6    4.39    1.09
   1   6  -6    4.65    1.10
   0  -6  -6    1.08    0.93
   0  -6   6    1.46    0.84
   0   6  -6    0.89    0.90
   0   6  -6    1.21    0.86
   0   6  -6    1.66    1.05
   0   6   6    1.18    0.92
   1  -6   6    1.32    0.93
   1  -6   6    0.12    0.91
  -1  -6  -6    1.57    0.85
   1  -6   6    1.22    0.87
  -1   6  -6    1.10    0.98
  -1   6  -6    2.39    1.12
  -1   6  -6    0.76    0.88
   1   6   6    1.05    1.01
   2  -6   6   20.64    1.69
   2  -6   6   18.85    1.86
  -2  -6  -6   19.73    1.83
  -2  -6  -6   20.20    1.23
   2  -6   6   19.20    1.92
  -2   6  -6   16.81    1.84
  -2   6  -6   21.38    2.06
   2   6   6   17.99    1.86
  -2   6  -6   19.19    2.05
   3  -6   6    0.93    1.22
  -3  -6  -6   -0.15    0.92
   3  -6   6   -0.10    1.02
   3  -6   6   -0.24    1.04
  -3  -6  -6   -0.01    0.59
  -3   6  -6    0.22    1.10
  -3   6  -6    1.02    1.22
  -3   6  -6    0.71    1.07
   3   6   6   -0.31    0.96
   3   6   6   -0.29    1.08
  -4  -6  -6    4.26    1.26
   4  -6   6    5.69    1.56
   4  -6   6    4.22    1.27
   4  -6   6    4.87    1.38
  -4   6  -6    5.34    1.32
  -4   6  -6    4.20    1.33
   4   6   6    6.81    1.39
   4   6   6    4.47    1.20
  -4   6  -6    5.84    1.54
  -5  -6  -6    1.45    1.35
   5  -6   6    2.27    1.59
   5  -6   6    1.71    1.80
  -5   6  -6    0.63    2.27
   5   6   6   -0.87    1.32
   5   6   6    1.15    1.58
  -5   6  -6    1.41    1.48
  -3  -7   6    1.12    1.51
  -3  -7   6    0.75    1.29
   3   7  -6   -0.56    1.35
   3   7  -6    0.75    1.64
   3   7  -6    1.46    1.72
  -3   7   6    1.33    1.95
  -3   7   6    0.11    2.46
  -2  -7   6    1.01    1.26
   2  -7  -6    0.17    1.24
   2   7  -6   -0.63    1.18
  -2   7   6    1.18    1.07
   2   7  -6    0.31    1.43
   1  -7  -6    0.53    0.98
  -1  -7   6    2.46    1.16
   1   7  -6    0.43    1.30
   1   7  -6    1.35    1.30
  -1   7   6   -0.09    1.08
   1   7  -6   -0.02    1.30
   0  -7   6   -1.20    1.37
   0  -7   6   -0.40    1.20
   0  -7   6    1.46    1.09
   0  -7  -6    0.29    0.94
   0   7  -6    1.21    1.29
   0   7  -6    0.30    1.34
   0   7   6    0.39    1.14
   0   7  -6   -0.17    1.24
   1  -7   6    0.68    1.44
   1  -7   6    1.09    1.23
  -1  -7  -6    0.77    1.42
  -1  -7  -6   -0.28    1.05
   1  -7   6    0.11    1.24
  -1   7  -6    0.28    1.27
  -1   7  -6    0.31    1.37
   1   7   6   -0.97    1.31
  -1   7  -6   -0.20    1.30
   2  -7   6    0.65    1.36
  -2  -7  -6    0.32    1.16
   2  -7   6    1.10    1.38
   2  -7   6    0.66    1.65
   2   7   6    0.37    1.56
  -2   7  -6   -0.93    1.39
  -2   7  -6   -0.03    1.19
  -2   7  -6    1.53    1.73
   3  -7   6    0.62    1.79
   3  -7   6    1.37    1.53
   3  -7   6   -0.71    2.64
  -3   7  -6    0.71    1.39
  -3   7  -6   -0.13    1.58
  -3   7  -6    0.87    1.89
   3   7   6    1.53    1.64
  -8   0   7   -0.26    1.00
  -8   0   7    0.74    1.02
   8   0  -7    0.40    1.06
   7   0  -7    1.17    0.94
  -7   0   7    2.79    0.80
  -7   0   7    0.14    0.81
   6   0  -7    1.02    0.71
  -6   0   7   -0.47    0.62
  -6   0   7   -0.37    0.59
   5   0  -7    0.19    0.26
  -5   0   7   -0.17    0.56
   5   0  -7   -0.44    0.61
  -5   0   7    1.14    0.49
  -4   0   7   -0.04    0.20
   4   0  -7    0.26    0.27
  -4   0   7   -0.08    0.46
   4   0  -7    0.25    0.48
   3   0  -7    0.25    0.21
  -3   0   7    0.39    0.18
  -3   0   7    0.60    0.15
  -3   0   7    0.11    0.20
  -3   0   7    0.03    0.39
  -3   0   7    0.40    0.14
   3   0  -7   -0.42    0.19
  -2   0   7    0.09    0.25
   2   0  -7   -0.06    0.18
  -2   0   7    0.25    0.16
  -2   0   7   -0.25    0.21
   2   0  -7    0.03    0.17
  -2   0   7   -0.23    0.19
   2   0  -7    0.05    0.19
   2   0  -7    0.46    0.16
   1   0  -7   -0.07    0.20
   1   0  -7   -0.03    0.21
   1   0  -7    0.02    0.21
   1   0  -7    0.01    0.19
  -1   0   7   -0.38    0.21
  -1   0   7    0.19    0.19
  -1   0   7   -0.10    0.15
  -1   0   7    0.40    0.15
   0   0   7   -0.18    0.14
   0   0   7    0.26    0.13
   0   0  -7    0.08    0.15
   0   0   7    0.10    0.17
   0   0  -7    0.02    0.21
   0   0   7   -0.34    0.14
   0   0  -7    0.04    0.23
   1   0   7   -0.50    0.15
  -1   0  -7    0.27    0.11
  -1   0  -7    0.09    0.16
   1   0   7    0.13    0.16
   1   0   7   -0.13    0.21
  -1   0  -7   -0.05    0.16
  -1   0  -7    0.44    0.16
  -1   0  -7    0.00    0.20
   1   0   7    0.18    0.22
   1   0   7   -0.16    0.16
   2   0   7   -0.21    0.27
  -2   0  -7   -0.06    0.18
   2   0   7   -0.07    0.22
  -2   0  -7    0.41    0.19
  -2   0  -7   -0.20    0.18
  -2   0  -7    0.21    0.20
   2   0   7    0.00    0.18
  -2   0  -7    0.09    0.24
  -3   0  -7    0.36    0.18
   3   0   7    0.11    0.43
   3   0   7   -0.06    0.31
  -3   0  -7   -0.01    0.16
  -3   0  -7    0.03    0.30
   4   0   7   -1.04    0.57
  -4   0  -7    0.27    0.22
  -4   0  -7   -1.02    0.65
  -4   0  -7    0.07    0.45
  -4   0  -7    0.12    0.22
   4   0   7   -0.57    0.55
  -4   0  -7   -0.02    0.50
  -5   0  -7   -1.17    0.34
  -5   0  -7   -0.04    0.60
   5   0   7   -0.59    0.71
  -5   0  -7    0.20    0.64
  -5   0  -7    0.55    0.32
   5   0   7   -0.22    0.72
  -6   0  -7   -0.13    0.75
  -6   0  -7   -1.76    0.61
  -6   0  -7   -0.31    0.67
   6   0   7   -0.40    0.75
  -6   0  -7   -0.89    0.65
  -7   0  -7   -0.06    0.94
  -7   0  -7   -0.62    0.97
  -7   0  -7   -0.91    0.86
   7   0   7   -1.24    1.01
   8   0   7    0.73    1.54
  -8   0  -7    0.36    1.28
  -8   0  -7   -0.27    1.23
  -8   0  -7    0.85    1.42
  -8  -1   7    0.17    0.95
  -8  -1   7   -0.79    1.24
   8  -1  -7    0.48    1.09
   8   1  -7    1.10    1.08
  -8   1   7   -0.53    0.89
  -8   1   7    0.77    1.00
   7  -1  -7    2.29    0.95
  -7  -1   7    1.75    0.82
  -7  -1   7    1.05    0.94
  -7   1   7    2.31    0.84
   7   1  -7    1.07    1.00
  -7   1   7    2.32    0.86
   7   1  -7    0.83    0.93
  -6  -1   7    3.13    0.81
   6  -1  -7    3.71    0.85
  -6  -1   7    3.02    0.74
   6   1  -7    2.23    0.80
  -6   1   7    2.30    0.76
  -6   1   7    2.60    0.77
  -5  -1   7   11.03    1.12
  -5  -1   7   13.32    1.11
   5  -1  -7   11.08    1.13
  -5   1   7   10.54    1.13
   5   1  -7   12.35    0.83
  -5   1   7   11.80    0.78
   5   1  -7   11.21    1.19
   4  -1  -7   19.91    1.31
   4  -1  -7   20.52    1.07
  -4  -1   7   21.90    1.11
  -4  -1   7   19.36    1.30
   4  -1  -7   21.38    1.37
  -4   1   7   18.66    1.09
  -4   1   7   23.05    1.21
  -4   1   7   18.98    1.30
  -4   1   7   23.02    1.12
   4   1  -7   19.32    1.35
  -4   1   7   23.10    1.03
   4   1  -7   22.56    1.26
   4   1  -7   21.22    1.11
   3  -1  -7    0.59    0.19
   3  -1  -7   -0.26    0.38
  -3  -1   7    0.14    0.16
   3  -1  -7    0.17    0.19
  -3  -1   7    0.58    0.17
  -3   1   7   -0.38    0.17
  -3   1   7    0.84    0.22
   3   1  -7    0.20    0.43
   3   1  -7    0.04    0.19
  -2  -1   7   42.14    1.91
  -2  -1   7   43.39    1.94
  -2  -1   7   44.64    2.03
  -2  -1   7   41.03    1.98
   2  -1  -7   41.87    2.01
  -2  -1   7   44.16    2.01
   2  -1  -7   42.84    2.02
  -2  -1   7   41.97    2.07
   2  -1  -7   39.66    1.98
   2   1  -7   41.75    1.96
   2   1  -7   38.41    2.03
  -2   1   7   41.11    2.02
  -2   1   7   40.20    1.97
  -2   1   7   42.63    2.00
  -2   1   7   45.45    1.97
  -2   1   7   45.60    1.99
   2   1  -7   42.86    2.02
   1  -1  -7   92.01    4.12
   1  -1  -7   92.74    4.10
  -1  -1   7   91.39    4.05
  -1  -1   7   93.21    4.07
  -1  -1   7   85.41    4.09
   1  -1  -7   89.57    4.10
  -1  -1   7   93.68    4.10
   1  -1  -7   89.41    4.09
  -1  -1   7   92.29    4.04
  -1  -1   7   87.81    4.10
   1   1  -7   89.68    4.08
  -1   1   7   90.29    4.07
  -1   1   7   91.37    4.11
  -1   1   7   92.25    4.09
  -1   1   7   90.30    4.07
   0  -1  -7  117.72    5.46
   0  -1   7  122.68    5.37
   0  -1   7  120.91    5.34
   0  -1  -7  118.77    5.40
   0  -1   7  122.11    5.44
   0  -1   7  118.64    5.44
   0  -1   7  120.99    5.43
   0  -1   7  124.30    5.43
   0   1  -7  118.29    5.46
   0   1   7  123.54    5.44
   0   1  -7  120.41    5.44
   0   1   7  122.66    5.34
   0   1   7  121.02    5.41
   0   1   7  125.39    5.45
   0   1   7  122.52    5.38
   0   1  -7  128.73    5.43
   0   1   7  123.78    5.40
   0   1  -7  116.18    5.45
   1  -1   7   12.35    0.75
   1  -1   7   14.17    0.73
   1  -1   7   13.25    0.67
  -1  -1  -7   13.92    0.74
   1  -1   7   13.82    0.76
   1  -1   7   14.23    0.78
  -1  -1  -7   12.77    0.82
  -1  -1  -7   12.89    0.71
   1  -1   7   12.46    0.78
  -1   1  -7   13.86    0.74
  -1   1  -7   12.14    0.77
   1   1   7   13.82    0.66
  -1   1  -7   13.47    0.71
   1   1   7   14.45    0.77
   1   1   7   13.93    0.74
   1   1   7   14.77    0.75
  -1   1  -7   12.39    0.78
   1   1   7   13.73    0.76
   2  -1   7    9.82    0.63
   2  -1   7    8.07    0.59
   2  -1   7   11.63    0.57
  -2  -1  -7    9.33    0.64
  -2  -1  -7    9.45    0.54
   2  -1   7   11.36    0.85
  -2  -1  -7    7.97    0.55
  -2  -1  -7    8.80    0.53
   2  -1   7    9.81    0.65
  -2  -1  -7    9.93    0.70
  -2   1  -7    9.67    0.61
   2   1   7    9.55    0.78
  -2   1  -7   10.86    0.64
   2   1   7    8.85    0.60
  -2   1  -7    8.64    0.63
   2   1   7   10.42    0.72
   2   1   7    8.55    0.65
  -2   1  -7    9.59    0.60
  -2   1  -7    9.75    0.82
   2   1   7    9.72    0.51
  -3  -1  -7    4.60    0.67
   3  -1   7    5.16    0.67
  -3  -1  -7    4.12    0.42
   3  -1   7    4.88    0.42
  -3  -1  -7    5.30    0.45
   3  -1   7    4.80    0.51
   3  -1   7    4.92    0.53
  -3  -1  -7    4.71    0.43
  -3   1  -7    4.39    0.59
  -3   1  -7    5.69    0.45
   3   1   7    4.46    0.62
   3   1   7    6.24    0.34
  -3   1  -7    4.86    0.43
  -3   1  -7    4.47    0.39
   3   1   7    5.43    0.67
  -4  -1  -7   15.49    0.77
   4  -1   7   11.67    1.26
   4  -1   7   12.19    1.15
  -4  -1  -7   11.74    1.15
  -4  -1  -7   13.92    1.10
  -4   1  -7   12.89    1.05
  -4   1  -7   13.24    0.76
   4   1   7   12.83    1.24
  -4   1  -7   13.01    1.12
   5  -1   7    0.44    0.70
  -5  -1  -7    0.29    0.62
  -5  -1  -7    0.86    0.56
  -5  -1  -7    0.61    0.59
  -5  -1  -7    0.88    0.67
   5  -1   7    0.16    0.62
   5   1   7    0.52    0.65
  -5   1  -7    0.84    0.73
  -5   1  -7    0.62    0.52
  -6  -1  -7    2.68    0.78
  -6  -1  -7    2.51    0.83
   6  -1   7    1.59    0.87
  -6  -1  -7    2.76    0.87
  -6   1  -7    1.99    0.76
  -6   1  -7    3.51    1.01
  -6   1  -7    2.42    0.82
   6   1   7    2.82    0.93
  -7  -1  -7    0.47    0.93
  -7  -1  -7    0.34    0.94
   7  -1   7    1.89    1.25
  -7  -1  -7    1.27    1.09
  -7   1  -7    1.54    1.10
   7   1   7    0.94    1.05
  -7   1  -7    0.81    1.00
  -7   1  -7    0.89    0.97
  -8  -1  -7    0.39    1.15
  -8  -1  -7    0.36    1.31
   8  -1   7    1.94    1.60
  -8  -1  -7   -0.44    1.43
  -8   1  -7    3.20    1.55
  -8   1  -7    3.36    1.42
   8   1   7    1.71    1.53
  -8   1  -7    1.79    1.21
  -8  -2   7   -0.32    1.35
  -8  -2   7    2.28    1.23
   8  -2  -7   -1.42    1.20
  -8   2   7    0.41    1.17
   8   2  -7    1.21    1.17
   8   2  -7   -1.21    1.50
  -8   2   7    1.36    0.97
   7  -2  -7    5.73    1.19
  -7  -2   7    5.44    1.11
  -7  -2   7    5.87    1.16
  -7   2   7    5.90    1.05
   7   2  -7    6.57    1.27
   7   2  -7    5.58    1.10
  -7   2   7    5.58    1.03
  -7   2   7    6.89    1.18
  -6  -2   7    2.01    0.81
   6  -2  -7    2.51    0.83
  -6  -2   7    1.39    0.84
   6  -2  -7    1.33    0.82
  -6   2   7    1.68    0.75
   6   2  -7    2.42    0.87
   6   2  -7    1.74    0.77
  -6   2   7    1.17    0.88
   5  -2  -7    1.88    0.68
  -5  -2   7    2.00    0.70
  -5  -2   7    2.13    0.66
   5  -2  -7    3.04    0.76
   5   2  -7    2.04    0.76
   5   2  -7    1.89    0.71
  -5   2   7    2.79    0.74
   4  -2  -7    0.12    0.29
   4  -2  -7    0.54    0.51
  -4  -2   7    0.31    0.57
  -4  -2   7   -0.03    0.29
  -4   2   7    1.03    0.27
   4   2  -7    0.26    0.60
  -4   2   7   -0.14    0.52
   4   2  -7   -0.08    0.50
   4   2  -7   -0.84    0.43
  -3  -2   7   11.05    0.64
   3  -2  -7    8.85    0.64
  -3  -2   7   10.14    0.90
   3  -2  -7    7.94    0.89
   3   2  -7    8.66    0.89
   3   2  -7    9.21    0.95
   3   2  -7    9.41    0.59
  -3   2   7   11.64    0.60
  -3   2   7   11.61    0.64
  -3   2   7    9.04    0.89
   2  -2  -7    6.25    0.48
  -2  -2   7    5.37    0.48
  -2  -2   7    6.38    0.39
   2   2  -7    6.09    0.53
   2   2  -7    5.92    0.56
   2   2  -7    6.54    0.65
  -2   2   7    5.77    0.48
  -2   2   7    6.95    0.48
   2   2  -7    5.85    0.48
  -2   2   7    8.31    0.50
  -1  -2   7   -0.16    0.18
   1  -2  -7   -0.15    0.14
  -1  -2   7   -0.42    0.18
  -1  -2   7    0.16    0.35
   1   2  -7    0.35    0.21
   1   2  -7    0.22    0.20
  -1   2   7   -0.30    0.46
   1   2  -7    0.18    0.24
  -1   2   7    0.21    0.24
  -1   2   7    0.08    0.29
   1   2  -7   -0.32    0.16
   1   2  -7    0.12    0.17
   0  -2   7   10.90    0.70
   0  -2   7    9.68    0.58
   0  -2  -7    9.11    0.58
   0  -2   7    9.30    0.56
   0  -2  -7    9.58    0.65
   0  -2   7    9.41    0.61
   0   2  -7    9.89    0.57
   0   2  -7    8.57    0.62
   0   2  -7    9.34    0.62
   0   2  -7    8.79    0.61
   0   2  -7    9.34    0.63
   0   2   7   11.44    0.55
   0   2   7    8.75    0.74
   0   2   7    8.54    0.74
   0   2  -7    9.70    0.67
   1  -2   7   39.42    1.90
  -1  -2  -7   38.41    1.87
   1  -2   7   37.57    1.86
  -1  -2  -7   39.05    1.82
  -1  -2  -7   38.71    1.82
   1  -2   7   36.52    1.92
   1  -2   7   37.88    1.90
   1  -2   7   38.19    1.89
  -1   2  -7   38.71    1.78
  -1   2  -7   38.30    1.77
   1   2   7   42.74    1.81
  -1   2  -7   39.22    1.89
   1   2   7   38.58    1.91
  -1   2  -7   38.00    1.90
  -1   2  -7   38.66    1.86
   1   2   7   37.66    1.82
   2  -2   7   10.62    0.79
   2  -2   7   11.81    0.86
  -2  -2  -7   11.74    0.68
  -2  -2  -7   10.17    0.62
  -2  -2  -7   10.87    0.81
   2  -2   7    9.31    0.70
   2  -2   7   10.72    0.57
   2   2   7   11.14    0.69
  -2   2  -7   11.19    0.65
   2   2   7   10.06    0.88
   2   2   7   12.82    0.63
  -2   2  -7   10.59    0.64
  -2   2  -7   10.26    0.67
   3  -2   7    1.58    0.58
   3  -2   7    1.74    0.58
  -3  -2  -7    1.81    0.26
  -3  -2  -7    2.41    0.25
  -3  -2  -7    0.75    0.23
   3  -2   7    1.39    0.44
   3  -2   7    2.29    0.50
  -3   2  -7    1.70    0.22
   3   2   7    1.69    0.70
   3   2   7    1.34    0.28
   3   2   7    1.67    0.56
   4  -2   7   10.59    1.18
   4  -2   7   11.12    0.95
  -4  -2  -7   11.54    0.85
   4   2   7   10.48    1.02
  -4   2  -7    9.90    1.07
  -4   2  -7   10.27    0.74
  -5  -2  -7    7.02    0.93
  -5  -2  -7    6.40    0.82
   5  -2   7    5.39    0.92
  -5  -2  -7    7.12    0.90
   5   2   7    6.97    1.08
  -5   2  -7    5.32    0.84
  -5   2  -7    5.92    0.87
  -6  -2  -7    0.51    0.79
  -6  -2  -7   -0.62    0.86
   6  -2   7    1.25    1.04
   6   2   7    0.15    0.86
  -6   2  -7   -0.04    0.80
  -6   2  -7    0.35    0.83
  -6   2  -7    0.04    0.78
   7  -2   7    0.33    1.22
  -7  -2  -7   -0.10    1.07
  -7  -2  -7    0.88    1.08
  -7   2  -7    0.72    1.05
  -7   2  -7    0.74    1.06
  -7   2  -7    1.05    1.12
   7   2   7    0.42    1.19
  -8  -2  -7    6.67    1.50
   8  -2   7    5.74    1.70
  -8   2  -7    9.36    1.58
  -8   2  -7    4.89    1.56
  -8   2  -7    3.97    1.55
  -8  -3   7    6.58    1.45
   8  -3  -7    9.46    2.11
   8   3  -7    7.09    1.57
  -8   3   7    7.08    1.44
  -8   3   7    5.47    1.58
  -8   3   7    6.28    1.89
   8   3  -7    6.85    1.92
  -7  -3   7    0.01    0.97
   7  -3  -7   -0.19    0.93
   7  -3  -7   -1.40    1.34
  -7  -3   7    0.88    1.12
   7   3  -7    1.03    0.96
  -7   3   7    0.21    0.88
   7   3  -7    1.63    1.33
  -7   3   7    0.05    1.27
   6  -3  -7    0.09    0.81
  -6  -3   7    0.73    0.79
   6  -3  -7    0.35    1.03
  -6  -3   7   -0.16    0.86
   6   3  -7   -0.31    0.88
  -6   3   7   -0.78    0.94
  -6   3   7   -0.92    0.66
   6   3  -7   -0.18    0.82
   5  -3  -7   17.17    1.48
   5  -3  -7   19.29    1.45
  -5  -3   7   16.40    1.45
  -5  -3   7   14.71    1.33
   5   3  -7   15.35    1.49
  -5   3   7   15.29    1.51
  -5   3   7   14.70    1.42
   5   3  -7   15.01    1.50
  -4  -3   7    1.91    0.68
   4  -3  -7    2.21    0.76
  -4  -3   7    1.88    0.68
  -4   3   7    1.78    0.63
   4   3  -7    2.57    0.54
   4   3  -7    2.72    0.75
   4   3  -7    1.71    0.65
  -4   3   7    2.29    0.70
  -3  -3   7    1.48    0.61
   3  -3  -7    1.19    0.60
  -3  -3   7    0.49    0.51
   3  -3  -7    1.13    0.25
  -3   3   7    0.71    0.56
   3   3  -7    1.32    0.60
  -3   3   7    0.71    0.49
   3   3  -7    0.91    0.62
   3   3  -7    1.43    0.28
   2  -3  -7    0.30    0.48
  -2  -3   7    0.74    0.50
  -2  -3   7    0.29    0.46
   2   3  -7    0.64    0.24
   2   3  -7    0.57    0.26
   2   3  -7    0.21    0.42
  -2   3   7    0.78    0.59
   2   3  -7    1.33    0.53
   1  -3  -7   34.86    1.91
  -1  -3   7   34.32    1.76
  -1  -3   7   41.15    1.77
  -1  -3   7   34.38    1.90
  -1   3   7   39.89    1.70
   1   3  -7   34.21    1.93
  -1   3   7   40.19    1.68
   1   3  -7   35.46    1.91
  -1   3   7   34.78    1.95
   1   3  -7   34.33    1.81
   1   3  -7   35.71    1.79
   0  -3  -7    5.48    0.62
   0  -3   7    6.52    0.65
   0  -3   7    6.13    0.43
   0  -3   7    3.27    0.54
   0  -3   7    3.97    0.57
   0   3  -7    4.46    0.55
   0   3  -7    5.31    0.43
   0   3   7    6.08    0.33
   0   3  -7    4.10    0.44
   0   3  -7    4.12    0.64
   0   3   7    4.85    0.67
   0   3  -7    4.64    0.33
   0   3   7    5.56    0.39
   1  -3   7    5.24    0.64
   1  -3   7    5.79    0.68
   1  -3   7    5.06    0.66
  -1  -3  -7    5.46    0.49
   1   3   7    5.93    0.51
   1   3   7    6.22    0.69
  -1   3  -7    4.87    0.43
  -1   3  -7    4.71    0.66
  -1   3  -7    5.16    0.56
   2  -3   7   23.83    1.48
  -2  -3  -7   24.51    1.50
  -2  -3  -7   23.41    1.41
   2  -3   7   25.85    1.69
   2  -3   7   24.69    1.21
   2  -3   7   23.38    1.49
  -2   3  -7   22.39    1.39
  -2   3  -7   23.55    1.22
   2   3   7   24.72    1.25
  -2   3  -7   24.55    1.53
  -2   3  -7   24.85    1.33
   3  -3   7   83.08    4.07
   3  -3   7   85.79    3.81
  -3  -3  -7   85.80    4.01
   3  -3   7   84.61    4.07
  -3  -3  -7   87.32    3.97
  -3   3  -7   89.40    3.90
  -3   3  -7   84.84    4.13
   3   3   7   78.72    4.03
  -3   3  -7   82.28    3.93
   4  -3   7    0.04    0.65
   4  -3   7    0.85    0.33
   4  -3   7   -0.45    0.62
  -4  -3  -7    0.12    0.68
  -4  -3  -7    0.18    0.62
  -4   3  -7    1.45    0.31
  -4   3  -7   -0.15    0.58
   4   3   7   -0.38    0.73
  -4   3  -7    0.37    0.64
  -5  -3  -7    0.71    0.72
   5  -3   7    0.48    0.86
  -5  -3  -7    1.72    0.81
  -5   3  -7    0.88    0.76
   5   3   7    1.42    0.91
  -6  -3  -7    6.88    1.09
  -6  -3  -7    7.72    1.14
   6  -3   7    6.14    1.24
   6   3   7    7.83    1.36
  -6   3  -7    4.46    1.08
   7  -3   7    9.98    1.60
  -7  -3  -7   10.76    1.46
  -7   3  -7    7.95    1.44
  -7   3  -7   10.17    1.57
  -7   3  -7    8.16    1.43
  -7  -4   7    0.56    1.24
   7  -4  -7    0.81    1.62
  -7  -4   7   -0.20    1.16
   7  -4  -7    0.81    1.29
   7   4  -7   -1.05    1.63
   7   4  -7    1.28    1.26
  -7   4   7    1.18    1.09
  -7   4   7   -0.96    1.54
  -6  -4   7    0.55    0.89
  -6  -4   7    0.71    0.99
   6  -4  -7    1.50    1.28
   6  -4  -7   -0.36    0.96
  -6   4   7    1.76    1.25
  -6   4   7    0.14    0.72
   6   4  -7    0.62    1.12
   6   4  -7   -0.19    0.93
  -5  -4   7    4.61    0.98
  -5  -4   7    3.70    0.99
   5  -4  -7    6.50    0.70
   5  -4  -7    5.65    1.11
   5   4  -7    4.12    1.04
   5   4  -7    6.26    1.05
  -5   4   7    4.31    1.13
  -5   4   7    3.67    0.90
  -4  -4   7    4.83    0.89
   4  -4  -7    4.33    0.87
  -4  -4   7    3.56    0.79
   4   4  -7    3.79    0.87
   4   4  -7    3.56    0.93
  -4   4   7    3.69    0.75
  -4   4   7    4.14    0.90
  -3  -4   7   -0.53    0.55
   3  -4  -7   -0.67    0.67
  -3  -4   7   -1.02    0.59
   3   4  -7   -0.78    0.25
   3   4  -7    0.14    0.65
   3   4  -7    0.06    0.40
   3   4  -7    0.00    0.47
  -3   4   7   -0.78    0.66
   2  -4  -7    8.41    0.89
  -2  -4   7    8.27    0.89
  -2  -4   7    7.15    0.88
   2   4  -7    8.57    0.63
  -2   4   7    9.50    0.99
   2   4  -7    5.81    0.57
   2   4  -7    7.55    0.89
   2   4  -7    8.25    0.98
   1  -4  -7    0.28    0.48
  -1  -4   7    0.31    0.56
  -1  -4   7    0.01    0.54
   1   4  -7    0.00    0.64
  -1   4   7    0.23    0.64
   1   4  -7   -0.01    0.59
   1   4  -7   -0.17    0.53
   1   4  -7   -0.02    0.25
   0  -4  -7    0.07    0.49
   0  -4   7   -0.67    0.56
   0  -4   7   -0.09    0.44
   0   4  -7    0.47    0.58
   0   4  -7    0.42    0.63
   0   4  -7    0.69    0.22
   0   4   7    0.30    0.58
  -1  -4  -7    9.86    1.05
   1  -4   7    9.38    1.01
   1  -4   7   10.41    1.14
   1   4   7    9.72    1.07
  -1   4  -7    7.58    0.86
  -1   4  -7    9.38    0.64
  -1   4  -7    9.69    1.12
   2  -4   7   16.21    1.36
   2  -4   7   15.00    0.93
  -2  -4  -7   16.32    1.31
   2  -4   7   16.93    1.38
  -2  -4  -7   14.79    1.30
  -2  -4  -7   15.87    1.26
   2   4   7   17.01    1.34
  -2   4  -7   16.05    1.40
  -2   4  -7   16.08    1.34
  -2   4  -7   17.87    0.93
   3  -4   7   -0.03    0.33
  -3  -4  -7    0.00    0.64
   3  -4   7    0.00    0.68
   3  -4   7    0.10    0.74
  -3   4  -7    0.58    0.59
  -3   4  -7   -0.76    0.67
  -3   4  -7   -0.17    0.74
   4  -4   7    6.87    1.05
  -4  -4  -7    7.67    0.99
   4  -4   7    5.31    0.64
   4  -4   7    8.07    1.09
  -4   4  -7    7.73    1.17
  -4   4  -7    8.58    1.03
  -4   4  -7    6.80    0.94
   5  -4   7    0.36    1.00
   5  -4   7   -0.64    0.85
   5  -4   7   -0.12    0.63
  -5  -4  -7    0.33    0.41
  -5  -4  -7    1.13    0.87
  -5   4  -7   -0.26    0.84
  -5   4  -7   -1.50    1.00
   6  -4   7    0.89    1.26
  -6  -4  -7   -0.22    1.10
  -6  -4  -7    1.03    1.07
  -6   4  -7    1.07    1.10
  -7  -4  -7    1.90    1.41
   7  -4   7    2.51    1.57
  -7   4  -7   -0.08    1.38
  -6  -5   7    0.51    1.22
   6  -5  -7    1.41    1.22
  -6  -5   7   -0.16    1.24
   6   5  -7   -0.53    1.35
  -6   5   7    0.76    1.52
   6   5  -7    0.50    1.21
  -6   5   7    0.39    1.09
  -5  -5   7    0.28    0.97
  -5  -5   7    0.06    0.98
   5  -5  -7    0.70    0.97
   5   5  -7    0.83    1.16
  -5   5   7    0.29    0.88
   5   5  -7    1.48    1.03
  -5   5   7    2.98    1.11
   4  -5  -7   10.62    1.30
  -4  -5   7    9.93    1.24
  -4  -5   7    9.09    1.16
  -4   5   7    7.77    1.09
   4   5  -7    8.97    1.25
  -4   5   7    6.90    1.11
   4   5  -7    5.46    1.09
   3  -5  -7   37.86    2.20
  -3  -5   7   37.29    2.18
  -3  -5   7   35.25    2.19
  -3   5   7   35.82    2.32
   3   5  -7   35.73    2.21
   3   5  -7   31.96    1.75
   3   5  -7   33.51    2.16
   3   5  -7   35.40    2.30
  -2  -5   7    3.45    0.86
   2  -5  -7    1.94    0.67
  -2  -5   7    2.46    0.80
   2   5  -7    2.39    0.86
   2   5  -7    0.40    0.85
   2   5  -7    2.78    0.77
   2   5  -7    4.36    0.95
  -2   5   7    1.32    0.77
   1  -5  -7    1.56    0.64
  -1  -5   7    1.39    0.75
  -1  -5   7    1.60    0.77
   1   5  -7    1.43    0.81
   1   5  -7    1.87    0.83
   1   5  -7    1.93    0.52
   1   5  -7    1.98    0.33
  -1   5   7    1.06    0.85
   1   5  -7    0.85    0.78
   0  -5  -7   11.82    1.14
   0  -5   7   10.49    1.12
   0   5   7    8.98    1.08
   0   5  -7    9.77    1.11
   0   5  -7   12.00    1.28
   0   5  -7   10.52    0.70
   0   5   7   11.26    0.88
  -1  -5  -7   35.40    2.04
   1  -5   7   33.58    2.10
   1  -5   7   33.58    2.02
   1  -5   7   34.06    2.15
  -1  -5  -7   35.87    1.66
  -1   5  -7   35.93    2.20
  -1   5  -7   35.07    2.16
   1   5   7   33.35    2.10
   1   5   7   33.22    1.66
   2  -5   7    0.11    0.78
   2  -5   7   -0.08    0.76
   2  -5   7    0.20    0.73
  -2  -5  -7    0.00    0.64
  -2   5  -7    0.56    0.86
  -2   5  -7    0.34    0.80
   2   5   7    1.30    0.44
   2   5   7    0.78    0.72
  -2   5  -7    0.31    0.68
   3  -5   7    5.62    1.03
   3  -5   7    5.56    1.09
  -3  -5  -7    7.06    1.05
   3  -5   7    6.04    0.95
  -3   5  -7    6.77    1.12
   3   5   7    6.26    1.07
  -3   5  -7    6.17    0.96
  -3   5  -7    5.00    1.06
   4  -5   7    0.12    0.95
   4  -5   7    0.48    1.05
  -4  -5  -7    0.70    0.89
   4  -5   7    1.17    1.03
  -4   5  -7    1.57    0.94
   4   5   7   -0.20    0.91
  -4   5  -7   -0.28    1.04
   4   5   7    0.52    0.95
  -4   5  -7    0.51    1.09
   5  -5   7    7.13    1.24
  -5  -5  -7    6.01    1.23
   5  -5   7    5.35    1.18
   5  -5   7    9.02    1.47
  -5   5  -7    5.28    1.23
   5   5   7    5.13    1.18
   5   5   7    6.94    1.54
  -5   5  -7    7.96    1.27
  -6  -5  -7    0.32    1.31
   6  -5   7   -1.01    1.62
   6   5   7    1.10    1.75
  -6   5  -7    1.67    1.32
   6   5   7    0.34    1.28
  -5  -6   7   -1.15    1.23
   5  -6  -7   -0.80    1.48
  -5   6   7   -0.32    1.28
  -5   6   7   -0.06    1.38
   5   6  -7    1.06    1.54
   4  -6  -7   17.10    1.72
  -4  -6   7   17.01    1.63
  -4  -6   7   12.98    1.51
  -4   6   7   12.24    1.47
  -4   6   7   13.13    1.58
   4   6  -7   12.74    1.60
   4   6  -7   14.60    1.77
   4   6  -7   16.01    1.67
  -3  -6   7    0.12    1.01
   3  -6  -7   -0.48    1.02
  -3  -6   7    0.68    0.95
   3   6  -7    0.65    0.88
  -3   6   7    0.47    0.98
  -3   6   7    0.35    0.91
   3   6  -7    0.09    1.20
   3   6  -7    0.43    0.97
   3   6  -7   -0.49    1.23
   2  -6  -7   21.31    1.86
  -2  -6   7   23.12    1.95
  -2  -6   7   21.37    1.89
   2   6  -7   20.74    1.84
   2   6  -7   23.49    2.11
  -2   6   7   23.03    1.90
   2   6  -7   20.62    2.12
   1  -6  -7    0.35    0.78
  -1  -6   7   -0.52    0.94
   1   6  -7   -0.63    0.99
   1   6  -7    0.04    0.75
  -1   6   7   -0.47    0.77
   1   6  -7    0.61    0.54
   0  -6  -7   25.48    1.86
   0  -6   7   24.52    1.94
   0   6  -7   23.28    2.10
   0   6  -7   24.42    1.81
   0   6  -7   23.63    2.02
   0   6   7   23.67    1.94
   1  -6   7    2.83    0.97
   1  -6   7    1.03    1.01
   1  -6   7    1.14    0.98
  -1  -6  -7    1.82    0.95
  -1   6  -7    1.25    0.95
   1   6   7    0.93    1.07
  -1   6  -7    1.19    1.10
  -1   6  -7    1.41    1.06
   2  -6   7   29.59    2.35
  -2  -6  -7   28.34    2.07
   2  -6   7   25.06    2.15
   2  -6   7   30.02    2.17
   2   6   7   27.81    1.47
  -2   6  -7   26.08    2.23
  -2   6  -7   31.28    2.43
   2   6   7   25.04    2.12
  -2   6  -7   28.03    2.11
  -3  -6  -7    0.50    0.93
   3  -6   7    0.04    1.09
   3  -6   7    1.43    1.15
   3  -6   7    0.87    1.24
  -3   6  -7    0.49    1.35
  -3   6  -7    0.47    1.06
   3   6   7    2.45    1.14
  -3   6  -7    0.25    1.06
   3   6   7    0.95    1.02
  -4  -6  -7    8.72    1.35
   4  -6   7    6.96    1.45
  -4  -6  -7    7.24    1.27
   4  -6   7   11.86    1.79
   4  -6   7   10.36    1.56
  -4   6  -7   10.02    1.49
  -4   6  -7   10.16    1.67
   4   6   7   10.78    1.44
   4   6   7   10.91    1.55
  -4   6  -7    8.87    1.68
   5  -6   7    0.25    1.55
   5  -6   7    0.81    1.44
  -5  -6  -7    0.68    1.42
   5  -6   7    2.76    1.84
   5   6   7    3.45    1.45
  -5   6  -7    1.41    1.31
   5   6   7   -1.49    1.54
  -5   6  -7    1.03    1.54
   3  -7  -7    3.53    1.39
  -3  -7   7    1.69    1.47
  -3   7   7    3.19    1.39
   3   7  -7    3.29    1.59
   3   7  -7    3.25    1.83
   3   7  -7    4.76    1.82
  -3   7   7    3.14    1.40
   2  -7  -7    3.80    1.37
  -2  -7   7    3.08    1.37
   2   7  -7    1.86    1.66
  -2   7   7    4.43    1.45
   2   7  -7    4.36    1.56
  -1  -7   7   12.11    1.70
   1  -7  -7   12.94    1.61
  -1   7   7   15.59    1.89
   1   7  -7   16.10    1.89
   1   7  -7   10.87    1.64
   0  -7   7    1.96    1.15
   0  -7  -7    0.21    1.06
   0  -7   7    0.36    1.50
   0  -7   7    0.79    1.25
   0   7   7    1.98    1.31
   0   7  -7    3.09    1.35
   0   7  -7   -0.06    1.28
   0   7  -7   -1.76    1.25
   1  -7   7    3.20    1.44
  -1  -7  -7    3.06    1.15
   1  -7   7    4.08    1.34
   1  -7   7    2.66    1.45
  -1   7  -7    2.48    1.21
  -1   7  -7    5.13    1.43
   1   7   7    4.03    1.35
  -1   7  -7    4.51    1.48
   2  -7   7    3.27    1.67
   2  -7   7    6.06    1.54
  -2  -7  -7    1.81    1.20
   2  -7   7    2.79    1.52
  -2   7  -7    4.52    1.55
  -2   7  -7    6.75    1.77
   2   7   7    5.23    1.63
  -2   7  -7    4.53    1.40
   3  -7   7    7.01    1.76
   3  -7   7   11.62    1.84
   3  -7   7    8.40    2.11
  -3  -7  -7    8.17    1.53
   3   7   7    9.92    1.74
  -3   7  -7   10.76    2.06
  -3   7  -7   11.60    2.24
  -3   7  -7   11.18    1.76
  -8   0   8    4.57    1.23
   8   0  -8    4.31    1.17
  -8   0   8    5.07    1.15
  -7   0   8    4.69    0.99
  -7   0   8    3.25    0.92
   7   0  -8    2.79    1.01
   6   0  -8   28.29    1.88
  -6   0   8   26.91    1.79
  -6   0   8   27.86    1.77
  -5   0   8   16.57    1.30
   5   0  -8   21.33    1.03
   5   0  -8   17.65    1.44
  -5   0   8   17.87    1.33
  -4   0   8    0.75    0.23
   4   0  -8    1.29    0.52
  -4   0   8    1.26    0.51
   3   0  -8  132.11    5.78
  -3   0   8  123.79    5.77
  -3   0   8  127.86    5.73
  -3   0   8  133.32    5.77
  -3   0   8  127.40    5.74
  -2   0   8  287.27   12.10
  -2   0   8  269.86   12.06
   2   0  -8  272.70   12.11
  -2   0   8  274.92   12.07
  -2   0   8  269.24   12.04
  -2   0   8  276.24   12.12
  -2   0   8  275.72   12.10
   2   0  -8  268.55   12.08
  -1   0   8   45.75    2.02
   1   0  -8   43.90    2.04
   1   0  -8   39.84    2.07
   1   0  -8   42.13    2.07
   1   0  -8   42.78    2.07
  -1   0   8   43.19    2.07
  -1   0   8   43.23    1.99
  -1   0   8   44.77    2.07
  -1   0   8   46.87    2.05
   0   0  -8   26.50    1.23
   0   0   8   23.67    1.26
   0   0   8   25.76    1.16
   0   0   8   25.82    1.30
   0   0  -8   24.80    1.30
   0   0   8   24.92    1.29
   0   0  -8   25.64    1.31
   0   0   8   25.36    1.29
   0   0   8   27.16    1.20
   0   0   8   25.39    1.21
  -1   0  -8  207.92    9.19
  -1   0  -8  202.27    9.28
  -1   0  -8  208.84    9.15
   1   0   8  216.44    9.28
   1   0   8  201.24    9.26
   1   0   8  210.52    9.20
  -1   0  -8  203.42    9.28
   1   0   8  223.12    9.22
   1   0   8  212.98    9.27
   1   0   8  204.28    9.27
   2   0   8  144.61    6.11
  -2   0  -8  140.53    6.07
  -2   0  -8  132.74    6.11
  -2   0  -8  139.21    6.17
  -2   0  -8  134.38    6.14
   2   0   8  131.57    6.15
  -2   0  -8  135.22    6.17
   2   0   8  138.28    6.08
   2   0   8  136.18    6.16
  -3   0  -8   39.18    1.75
   3   0   8   37.10    2.04
  -3   0  -8   37.97    1.86
  -3   0  -8   39.24    2.02
   3   0   8   37.90    1.99
   4   0   8    3.93    0.74
  -4   0  -8    5.06    0.82
  -4   0  -8    5.03    0.47
  -4   0  -8    4.76    0.66
  -5   0  -8   31.00    1.89
  -5   0  -8   30.51    1.52
  -5   0  -8   31.44    1.90
   5   0   8   29.69    1.99
  -6   0  -8    1.89    0.76
  -6   0  -8    3.29    0.80
  -6   0  -8    2.59    0.89
   6   0   8    2.55    0.93
   7   0   8    4.96    1.35
  -7   0  -8    2.99    1.10
  -7   0  -8    5.61    1.17
  -7   0  -8    5.19    1.07
  -8   0  -8   -0.24    1.25
  -8   0  -8    0.17    1.44
  -8   0  -8   -0.45    1.58
   8   0   8    0.28    1.52
  -8  -1   8    0.68    1.03
  -8  -1   8    0.59    1.20
   8  -1  -8    0.85    1.50
  -8   1   8    0.00    1.06
   8   1  -8    0.36    1.21
  -8   1   8   -0.67    0.98
  -7  -1   8   21.02    1.78
   7  -1  -8   20.04    1.83
  -7  -1   8   19.81    1.88
   7   1  -8   19.39    1.78
   7   1  -8   20.90    1.95
  -7   1   8   20.03    1.71
  -7   1   8   17.17    1.64
  -6  -1   8    1.27    0.74
   6  -1  -8    1.29    0.82
  -6  -1   8    1.22    0.74
  -6   1   8    0.52    0.71
   6   1  -8    2.04    0.84
  -6   1   8    1.87    0.73
   6   1  -8    2.32    0.78
  -5  -1   8    7.06    0.82
  -5  -1   8   11.16    1.12
   5  -1  -8    8.68    0.98
   5   1  -8    8.67    0.89
   5   1  -8   10.38    1.03
  -5   1   8    9.28    0.94
   4  -1  -8   33.28    1.78
   4  -1  -8   31.36    1.51
  -4  -1   8   30.49    1.51
  -4  -1   8   27.61    1.69
   4  -1  -8   30.55    1.75
  -4   1   8   29.96    1.71
   4   1  -8   31.02    1.80
   4   1  -8   29.89    1.64
  -4   1   8   30.80    1.51
  -4   1   8   28.51    1.57
  -4   1   8   33.07    1.47
  -3  -1   8   90.41    4.69
  -3  -1   8  107.97    4.59
   3  -1  -8  101.81    4.75
  -3  -1   8  104.51    4.60
   3  -1  -8  102.05    4.69
   3  -1  -8  105.49    4.65
   3   1  -8  103.96    4.68
  -3   1   8  102.72    4.63
   3   1  -8  102.46    4.60
  -3   1   8  102.23    4.69
  -3   1   8  104.03    4.66
  -3   1   8  102.44    4.67
   3   1  -8  103.34    4.79
  -3   1   8  108.86    4.63
  -2  -1   8   20.11    1.09
  -2  -1   8   21.79    1.43
   2  -1  -8   22.28    1.13
  -2  -1   8   21.09    1.02
  -2  -1   8   20.97    1.18
   2  -1  -8   21.76    1.14
  -2  -1   8   20.98    1.06
  -2  -1   8   21.09    1.22
   2  -1  -8   23.29    1.11
   2   1  -8   19.43    1.17
  -2   1   8   22.21    1.09
  -2   1   8   22.69    1.12
   2   1  -8   22.30    1.14
  -2   1   8   24.67    1.12
   2   1  -8   21.43    1.10
  -2   1   8   20.75    1.25
  -2   1   8   21.64    1.16
   1  -1  -8  159.68    7.10
  -1  -1   8  164.51    7.05
  -1  -1   8  151.83    7.07
   1  -1  -8  162.88    7.11
  -1  -1   8  162.12    7.05
  -1  -1   8  170.37    7.07
  -1  -1   8  153.66    7.10
   1  -1  -8  160.01    7.09
   1  -1  -8  155.92    7.07
  -1  -1   8  162.76    7.10
  -1  -1   8  157.62    7.01
   1   1  -8  152.33    7.10
  -1   1   8  158.50    7.07
  -1   1   8  159.98    7.05
  -1   1   8  150.01    7.09
   1   1  -8  160.51    7.07
  -1   1   8  164.94    7.09
   1   1  -8  155.53    7.12
   0  -1  -8   62.83    2.91
   0  -1   8   65.05    2.87
   0  -1   8   64.45    2.97
   0  -1  -8   66.33    2.99
   0  -1   8   61.52    2.84
   0  -1   8   64.87    2.95
   0  -1   8   64.11    2.96
   0  -1   8   62.68    2.94
   0  -1   8   67.46    2.83
   0   1   8   62.31    2.90
   0   1  -8   64.70    2.94
   0   1   8   63.45    2.93
   0   1   8   65.16    2.98
   0   1  -8   60.80    2.96
   0   1  -8   63.71    2.97
   0   1   8   66.19    2.89
   0   1   8   63.37    2.97
   0   1   8   63.80    2.85
   1  -1   8   40.54    1.94
   1  -1   8   38.57    1.98
   1  -1   8   41.62    2.01
  -1  -1  -8   40.34    1.89
   1  -1   8   43.36    1.88
   1  -1   8   42.91    1.96
  -1  -1  -8   41.17    1.94
   1  -1   8   40.49    1.98
  -1  -1  -8   39.32    1.98
  -1   1  -8   37.45    1.97
  -1   1  -8   41.53    1.93
   1   1   8   39.67    1.94
   1   1   8   42.63    1.84
   1   1   8   44.99    1.96
   1   1   8   41.80    2.00
  -1   1  -8   40.84    1.97
   1   1   8   38.60    1.99
  -1   1  -8   40.65    1.88
  -2  -1  -8   47.02    2.11
  -2  -1  -8   46.70    2.12
   2  -1   8   44.99    2.25
  -2  -1  -8   47.50    2.10
  -2  -1  -8   47.94    2.25
   2  -1   8   52.18    2.16
  -2  -1  -8   48.52    2.24
   2  -1   8   45.71    2.21
   2  -1   8   39.34    2.25
  -2   1  -8   47.07    2.23
  -2   1  -8   45.77    2.18
   2   1   8   46.15    2.31
   2   1   8   49.20    2.10
   2   1   8   46.31    2.21
  -2   1  -8   45.51    2.27
   2   1   8   46.29    2.28
  -2   1  -8   47.91    2.22
   2   1   8   44.53    2.30
   3  -1   8  160.14    7.44
  -3  -1  -8  165.63    7.35
   3  -1   8  159.97    7.53
   3  -1   8  166.36    7.46
  -3  -1  -8  167.69    7.36
   3  -1   8  174.68    7.47
   3   1   8  177.03    7.35
  -3   1  -8  165.75    7.43
  -3   1  -8  168.35    7.32
  -3   1  -8  164.34    7.48
   3   1   8  158.10    7.51
  -3   1  -8  163.54    7.43
  -3   1  -8  174.21    7.55
  -4  -1  -8   21.02    1.47
  -4  -1  -8   21.95    1.48
  -4  -1  -8   22.12    1.17
   4  -1   8   23.36    1.48
   4  -1   8   22.71    1.53
  -4  -1  -8   23.81    1.30
  -4   1  -8   23.97    1.14
   4   1   8   21.04    1.59
  -4   1  -8   21.47    1.43
  -4   1  -8   23.58    1.57
   5  -1   8    8.64    1.03
  -5  -1  -8   10.96    1.06
   5  -1   8    8.63    0.87
  -5  -1  -8    9.69    0.96
  -5  -1  -8   11.69    1.24
  -5   1  -8    8.25    0.95
  -5   1  -8   11.42    1.30
  -5   1  -8   11.14    0.67
   5   1   8    9.48    1.09
  -6  -1  -8    3.59    0.87
  -6  -1  -8    5.86    0.90
   6  -1   8    4.70    1.09
  -6  -1  -8    4.83    1.01
  -6   1  -8    5.28    1.00
   6   1   8    4.68    0.99
  -6   1  -8    5.93    0.93
  -6   1  -8    6.69    1.03
   7  -1   8    6.25    1.34
  -7  -1  -8    8.70    1.36
  -7  -1  -8    8.29    1.22
  -7  -1  -8    6.85    1.20
  -7   1  -8    8.00    1.36
   7   1   8    8.99    1.31
  -7   1  -8    8.81    1.24
  -7   1  -8    8.92    1.35
   8  -1   8   16.22    2.06
  -8  -1  -8   16.80    1.90
  -8  -1  -8   15.24    1.80
  -8  -1  -8   16.61    1.91
   8   1   8   13.24    1.91
  -8   1  -8   17.74    1.94
  -8   1  -8   18.56    1.98
  -8   1  -8   15.11    1.80
  -8  -2   8    8.59    1.50
  -8  -2   8    9.49    1.58
   8  -2  -8    9.84    2.01
  -8   2   8    7.68    1.47
  -8   2   8    7.91    1.40
   8   2  -8    8.74    1.67
   8   2  -8    9.05    1.77
  -7  -2   8    1.61    1.08
  -7  -2   8    0.79    0.97
   7  -2  -8    2.77    1.25
   7   2  -8    0.16    0.93
  -7   2   8    1.66    1.12
  -7   2   8    0.92    0.98
  -7   2   8    1.40    0.86
   7   2  -8    1.18    1.20
   6  -2  -8   -0.48    0.75
  -6  -2   8   -0.16    0.77
  -6  -2   8    0.39    0.81
   6  -2  -8    0.02    0.88
  -6   2   8    0.47    0.70
   6   2  -8    0.04    0.83
   6   2  -8    0.33    0.83
  -6   2   8    0.39    0.88
  -5  -2   8   61.47    3.17
   5  -2  -8   59.96    3.19
   5  -2  -8   64.02    3.17
   5   2  -8   64.51    3.19
  -5   2   8   62.94    3.16
   5   2  -8   62.15    3.24
  -4  -2   8   16.20    0.93
   4  -2  -8   16.05    1.28
  -4  -2   8   14.19    1.25
   4   2  -8   13.84    1.25
  -4   2   8   18.36    0.97
   4   2  -8   14.15    1.04
   4   2  -8   15.48    1.31
  -4   2   8   19.45    0.85
  -4   2   8   14.25    1.25
  -3  -2   8   26.07    1.55
   3  -2  -8   27.42    1.62
   3  -2  -8   28.58    1.40
  -3  -2   8   26.37    1.59
  -3  -2   8   26.84    1.31
  -3   2   8   26.38    1.54
  -3   2   8   30.32    1.41
   3   2  -8   26.10    1.66
   3   2  -8   27.05    1.61
  -2  -2   8    5.89    0.64
  -2  -2   8    7.11    0.42
   2  -2  -8    5.40    0.61
  -2  -2   8    5.82    0.46
   2  -2  -8    5.39    0.49
  -2   2   8    6.97    0.56
  -2   2   8    5.14    0.44
   2   2  -8    5.05    0.48
   2   2  -8    6.67    0.70
   2   2  -8    4.10    0.55
   2   2  -8    4.30    0.56
  -1  -2   8   94.24    4.57
  -1  -2   8   98.73    4.50
  -1  -2   8  103.46    4.51
  -1  -2   8  102.61    4.68
   1  -2  -8  101.23    4.56
  -1   2   8   99.40    4.58
   1   2  -8   97.61    4.59
  -1   2   8  100.90    4.49
  -1   2   8  105.54    4.47
   1   2  -8  102.57    4.54
  -1   2   8   98.10    4.56
   1   2  -8  101.16    4.50
  -1   2   8  101.31    4.57
   0  -2   8   28.99    1.40
   0  -2   8   28.28    1.34
   0  -2  -8   28.07    1.39
   0  -2  -8   29.43    1.49
   0  -2   8   26.10    1.42
   0  -2   8   29.73    1.64
   0  -2   8   24.58    1.52
   0   2   8   33.17    1.38
   0   2  -8   27.02    1.43
   0   2  -8   27.89    1.42
   0   2  -8   26.51    1.41
   0   2  -8   25.52    1.51
   0   2   8   30.05    1.34
   0   2   8   29.01    1.36
   0   2  -8   28.04    1.35
   1  -2   8    2.30    0.30
  -1  -2  -8    3.22    0.37
   1  -2   8    2.78    0.51
   1  -2   8    2.77    0.48
   1  -2   8    3.79    0.66
  -1  -2  -8    3.49    0.43
  -1  -2  -8    3.53    0.34
  -1   2  -8    3.48    0.30
  -1   2  -8    3.81    0.48
  -1   2  -8    2.51    0.52
  -1   2  -8    3.63    0.32
  -1   2  -8    2.87    0.28
  -2  -2  -8    0.98    0.21
   2  -2   8    1.74    0.55
  -2  -2  -8    0.61    0.46
   2  -2   8    1.02    0.49
  -2  -2  -8    1.12    0.24
  -2   2  -8    1.06    0.47
  -2   2  -8    1.51    0.23
  -2   2  -8    0.94    0.27
  -2   2  -8    1.48    0.26
   2   2   8    1.25    0.25
  -3  -2  -8   38.68    1.76
  -3  -2  -8   36.32    1.99
   3  -2   8   41.59    2.04
   3  -2   8   35.40    2.01
   3  -2   8   33.68    1.96
   3  -2   8   36.31    2.01
   3   2   8   42.18    1.76
   3   2   8   33.32    2.00
  -3   2  -8   36.48    2.02
  -3   2  -8   35.51    1.76
  -3   2  -8   34.65    1.80
  -3   2  -8   38.37    1.82
   4  -2   8   24.62    1.67
  -4  -2  -8   26.71    1.63
  -4  -2  -8   26.59    1.37
   4  -2   8   22.63    1.57
   4  -2   8   25.43    1.71
   4   2   8   24.84    1.74
  -4   2  -8   25.91    1.34
  -4   2  -8   26.13    1.59
  -4   2  -8   26.47    1.69
  -5  -2  -8    2.19    0.79
  -5  -2  -8    0.58    0.66
   5  -2   8    2.25    0.93
   5  -2   8    1.58    0.72
  -5  -2  -8    1.36    0.66
   5   2   8    2.69    0.92
  -5   2  -8    1.90    0.83
  -5   2  -8    1.46    0.71
  -6  -2  -8    0.59    0.87
   6  -2   8    2.71    1.04
  -6  -2  -8    2.15    1.00
  -6   2  -8    2.84    0.91
  -6   2  -8    2.91    0.97
  -6   2  -8    2.75    1.07
   6   2   8    2.44    1.01
   7  -2   8    7.88    1.51
  -7  -2  -8    9.93    1.44
  -7  -2  -8   13.27    1.43
  -7   2  -8   11.49    1.38
   7   2   8    7.51    1.43
  -7   2  -8    9.76    1.45
  -7   2  -8   11.00    1.48
  -8  -2  -8    1.51    1.56
   8  -2   8    1.18    1.74
  -8   2  -8   -1.65    1.61
  -8   2  -8    1.10    1.70
  -8   2  -8    0.33    1.47
  -8  -3   8   -0.67    1.28
  -8   3   8   -1.44    1.26
  -8   3   8    0.22    1.34
   7  -3  -8   16.92    1.84
   7  -3  -8   14.26    1.71
  -7  -3   8   13.25    1.53
   7   3  -8   11.49    1.53
  -7   3   8   15.50    1.51
  -7   3   8   15.06    1.74
   7   3  -8   13.91    1.77
  -6  -3   8    1.09    0.85
   6  -3  -8    0.70    1.13
   6  -3  -8    0.46    0.82
   6   3  -8    1.60    0.97
  -6   3   8    1.62    1.02
   6   3  -8    1.14    0.99
  -6   3   8    2.20    0.87
  -5  -3   8   31.20    2.04
   5  -3  -8   32.72    2.11
   5  -3  -8   37.69    2.09
  -5  -3   8   31.52    2.07
   5   3  -8   31.56    2.14
  -5   3   8   34.05    2.15
  -5   3   8   31.05    2.01
   5   3  -8   34.48    2.15
   4  -3  -8   22.86    1.16
  -4  -3   8   21.06    1.50
   4  -3  -8   21.77    1.62
  -4  -3   8   18.31    1.49
  -4   3   8   20.02    1.51
   4   3  -8   19.58    1.20
   4   3  -8   19.74    1.51
  -4   3   8   21.55    1.50
   4   3  -8   20.51    1.61
  -3  -3   8   98.56    4.55
  -3  -3   8   94.12    4.58
   3  -3  -8   93.50    4.59
   3  -3  -8  100.92    4.40
   3   3  -8   90.53    4.64
   3   3  -8   97.95    4.35
   3   3  -8   93.69    4.61
   3   3  -8  102.02    4.33
  -3   3   8   94.02    4.59
  -3   3   8  107.91    4.43
  -2  -3   8   31.49    1.43
  -2  -3   8   28.28    1.67
  -2  -3   8   28.19    1.69
   2  -3  -8   29.47    1.70
   2   3  -8   28.69    1.78
   2   3  -8   29.06    1.48
   2   3  -8   27.66    1.71
   2   3  -8   29.65    1.50
  -2   3   8   30.89    1.79
  -2   3   8   35.04    1.48
  -1  -3   8  171.35    7.72
   1  -3  -8  174.33    7.81
  -1  -3   8  181.62    7.74
  -1  -3   8  171.40    7.83
   1   3  -8  169.44    7.73
   1   3  -8  170.36    7.83
   1   3  -8  170.43    7.75
  -1   3   8  170.72    7.85
   1   3  -8  170.48    7.85
   1   3  -8  168.75    7.75
  -1   3   8  178.55    7.65
  -1   3   8  184.48    7.66
   0  -3   8   11.58    0.69
   0  -3  -8   13.25    0.99
   0  -3   8   11.29    0.97
   0   3  -8   10.76    1.05
   0   3  -8   13.19    0.81
   0   3   8   11.98    1.03
   0   3  -8   10.32    0.87
   1  -3   8  150.84    7.35
  -1  -3  -8  163.30    7.24
   1  -3   8  159.92    7.37
  -1  -3  -8  169.61    7.32
  -1   3  -8  167.80    7.38
   1   3   8  157.91    7.22
  -1   3  -8  158.36    7.40
  -1   3  -8  165.61    7.23
  -1   3  -8  170.72    7.18
   2  -3   8   17.71    0.92
   2  -3   8   14.46    1.30
  -2  -3  -8   17.14    1.30
  -2  -3  -8   17.16    1.17
   2  -3   8   16.80    1.31
  -2   3  -8   19.47    1.07
  -2   3  -8   17.87    0.96
  -2   3  -8   16.82    1.27
   2   3   8   18.89    1.00
   3  -3   8   65.38    2.84
  -3  -3  -8   63.05    3.03
  -3  -3  -8   64.68    3.11
   3  -3   8   61.19    3.18
   3  -3   8   63.26    3.17
  -3   3  -8   58.47    3.15
   3   3   8   60.15    3.12
  -3   3  -8   62.28    2.98
   4  -3   8    3.03    0.81
  -4  -3  -8    3.97    0.73
  -4  -3  -8    3.36    0.43
  -4  -3  -8    3.47    0.84
   4  -3   8    3.59    0.87
  -4   3  -8    2.42    0.75
   4   3   8    2.90    0.85
   5  -3   8   21.45    1.85
  -5  -3  -8   21.12    1.60
  -5  -3  -8   20.56    1.73
  -5   3  -8   21.33    1.73
   5   3   8   19.28    1.88
   6  -3   8    7.71    1.35
  -6  -3  -8    7.96    1.09
  -6  -3  -8    6.64    1.19
  -6   3  -8    6.73    1.19
   6   3   8    6.80    1.27
  -6   3  -8    5.27    1.11
  -7  -3  -8    3.78    1.33
   7  -3   8    2.97    1.45
  -7   3  -8    0.70    1.07
  -7   3  -8    2.54    1.40
  -7   3  -8    1.62    1.24
   7  -4  -8   11.49    1.63
  -7  -4   8   10.88    1.56
  -7  -4   8    7.16    1.98
   7   4  -8   15.30    1.95
  -7   4   8   10.81    1.96
   7   4  -8   11.78    1.60
  -7   4   8   11.72    1.68
   6  -4  -8   14.98    1.58
  -6  -4   8    8.12    1.21
   6  -4  -8    9.25    1.24
  -6  -4   8   10.26    1.31
  -6   4   8   11.89    1.54
  -6   4   8   11.14    1.36
   6   4  -8   12.29    1.51
   6   4  -8   11.87    1.41
  -5  -4   8    2.13    0.87
   5  -4  -8    1.68    0.99
  -5  -4   8    1.96    0.95
   5  -4  -8    2.49    0.49
   5   4  -8    1.62    0.88
  -5   4   8    2.22    0.84
   5   4  -8    2.05    0.94
  -5   4   8    2.41    1.10
   4  -4  -8    8.85    1.08
  -4  -4   8    7.88    1.06
  -4  -4   8    5.94    0.90
   4   4  -8    6.95    1.05
  -4   4   8    7.57    0.95
  -4   4   8    6.54    1.04
   4   4  -8    6.24    0.93
  -3  -4   8   67.64    3.47
  -3  -4   8   66.75    3.43
   3  -4  -8   71.34    3.51
  -3   4   8   68.03    3.51
   3   4  -8   64.85    3.46
   3   4  -8   72.23    3.20
   3   4  -8   71.69    3.55
   3   4  -8   70.94    3.17
  -2  -4   8   54.23    2.29
  -2  -4   8   45.98    2.48
  -2  -4   8   46.92    2.45
   2  -4  -8   42.80    2.45
   2   4  -8   50.17    2.27
   2   4  -8   44.28    2.54
   2   4  -8   43.41    2.51
   2   4  -8   44.26    2.21
  -2   4   8   45.16    2.56
  -1  -4   8    4.13    0.73
  -1  -4   8    3.58    0.72
   1  -4  -8    3.21    0.67
   1   4  -8    2.74    0.69
   1   4  -8    3.68    0.75
  -1   4   8    3.66    0.80
   1   4  -8    3.39    0.74
   0  -4   8   29.03    1.74
   0  -4   8   25.78    1.73
   0  -4  -8   28.20    1.76
   0   4   8   28.75    1.82
   0   4   8   33.99    1.41
   0   4  -8   29.25    1.83
   0   4   8   32.08    1.40
   0   4  -8   28.09    1.83
  -1  -4  -8   35.67    1.96
   1  -4   8   35.34    2.06
   1  -4   8   35.28    2.00
   1   4   8   34.51    2.03
  -1   4  -8   36.24    1.66
  -1   4  -8   34.46    2.06
  -1   4  -8   32.02    2.01
   2  -4   8   40.36    1.92
   2  -4   8   37.84    2.26
  -2  -4  -8   40.55    2.17
  -2  -4  -8   39.04    2.12
   2  -4   8   39.22    2.28
  -2   4  -8   40.94    2.34
  -2   4  -8   41.76    1.94
  -2   4  -8   41.91    2.30
   2   4   8   39.30    2.25
   3  -4   8    0.89    0.78
  -3  -4  -8    0.33    0.72
   3  -4   8    0.20    0.32
   3  -4   8    0.25    0.79
  -3   4  -8    1.07    0.76
  -3   4  -8    0.36    0.77
  -3   4  -8    0.44    0.63
   4  -4   8    0.78    0.79
   4  -4   8   -0.44    0.40
  -4  -4  -8    0.08    0.75
   4  -4   8    0.61    0.90
  -4   4  -8    0.08    0.86
  -4   4  -8    0.14    0.72
  -4   4  -8    0.69    0.82
  -5  -4  -8    6.90    1.10
  -5  -4  -8    6.68    0.72
   5  -4   8    6.63    1.17
   5  -4   8    6.71    1.28
   5  -4   8    5.98    0.60
  -5   4  -8    5.81    1.10
  -5   4  -8    5.60    1.24
  -6  -4  -8    5.04    1.23
   6  -4   8    3.11    1.43
  -6   4  -8    5.72    1.28
  -7  -4  -8    0.38    1.40
   7  -4   8    0.82    1.66
  -7   4  -8    1.66    1.52
  -7   4  -8   -2.06    1.54
  -6  -5   8    1.45    1.20
  -6  -5   8    2.62    1.26
   6  -5  -8    0.62    1.24
  -6   5   8    2.14    1.36
  -6   5   8    3.22    1.73
   6   5  -8    0.94    1.52
   6   5  -8    2.93    1.46
  -5  -5   8    7.89    1.22
  -5  -5   8    7.40    1.31
   5  -5  -8    9.55    1.40
  -5   5   8    8.53    1.26
   5   5  -8   11.51    1.57
   5   5  -8    7.64    1.32
  -5   5   8    9.00    1.61
  -4  -5   8    4.23    1.03
   4  -5  -8    2.60    1.03
  -4  -5   8    3.65    0.97
   4   5  -8    4.74    1.10
  -4   5   8    3.07    0.87
   4   5  -8    3.38    1.04
  -4   5   8    6.34    1.27
  -3  -5   8    9.32    1.16
  -3  -5   8    9.37    1.26
   3  -5  -8   10.65    1.21
  -3   5   8    8.72    1.25
   3   5  -8    7.96    1.08
   3   5  -8   10.40    1.15
   3   5  -8    9.10    1.23
   3   5  -8    8.58    0.84
   2  -5  -8   12.56    1.34
  -2  -5   8   12.09    1.23
  -2  -5   8   14.41    1.30
  -2   5   8   12.82    1.42
   2   5  -8   13.43    1.46
   2   5  -8   14.77    1.29
   2   5  -8   13.43    1.32
   1  -5  -8   24.19    1.68
  -1  -5   8   24.46    1.71
  -1  -5   8   24.00    1.73
   1   5  -8   24.62    1.85
   1   5  -8   24.06    1.75
   1   5  -8   25.65    1.77
  -1   5   8   24.99    1.80
   1   5  -8   19.85    1.26
  -1   5   8   25.32    1.54
   0  -5   8    1.30    0.72
   0  -5  -8    1.74    0.71
   0   5   8    1.87    0.85
   0   5  -8    2.15    0.76
   0   5  -8    1.73    0.89
  -1  -5  -8   36.27    2.23
   1  -5   8   37.94    2.30
   1  -5   8   38.47    2.38
  -1   5  -8   39.43    2.40
  -1   5  -8   42.35    1.90
  -1   5  -8   40.66    2.40
   1   5   8   37.59    2.36
   2  -5   8    0.37    0.81
   2  -5   8    0.45    0.84
  -2  -5  -8    0.96    0.74
   2  -5   8    1.24    0.78
   2   5   8    0.61    0.84
  -2   5  -8    1.90    0.75
  -2   5  -8    1.39    0.78
  -2   5  -8    1.61    0.90
  -3  -5  -8    4.83    0.97
   3  -5   8    5.85    1.12
   3  -5   8    6.29    0.96
   3  -5   8    5.39    1.09
  -3   5  -8    5.95    1.17
  -3   5  -8    5.34    0.98
  -3   5  -8    4.46    0.95
   3   5   8    5.21    1.06
  -4  -5  -8    1.34    0.95
   4  -5   8    0.61    1.09
   4  -5   8    0.61    0.97
   4  -5   8   -0.16    0.88
  -4   5  -8    0.21    1.15
  -4   5  -8    0.20    1.09
   4   5   8   -0.06    1.12
  -4   5  -8   -0.29    0.95
   5  -5   8    6.17    1.38
   5  -5   8    6.48    1.43
   5  -5   8    7.36    1.26
  -5  -5  -8    9.73    1.29
  -5   5  -8    8.16    1.60
  -5   5  -8    8.67    1.41
  -5   5  -8    8.79    1.45
   5   5   8    8.05    1.38
  -6  -5  -8    0.67    1.34
   6  -5   8    2.59    1.77
   6   5   8    1.94    1.67
   6   5   8   -0.10    1.32
  -6   5  -8   -0.39    1.48
  -5  -6   8    5.92    1.57
   5  -6  -8    6.96    1.48
   5   6  -8    5.79    1.90
  -5   6   8    7.49    1.62
   5   6  -8    3.83    1.65
  -5   6   8    6.10    1.42
   4  -6  -8    6.48    1.36
  -4  -6   8    6.32    1.36
  -4  -6   8    7.93    1.41
  -4   6   8    4.58    1.26
   4   6  -8    6.54    1.49
  -4   6   8    6.21    1.27
   4   6  -8    4.46    1.34
  -3  -6   8    2.13    1.08
  -3  -6   8    1.66    1.15
   3  -6  -8    2.07    1.19
   3   6  -8    2.39    1.01
   3   6  -8    2.85    1.30
  -3   6   8    3.27    1.10
   3   6  -8    1.90    1.30
  -3   6   8    3.26    1.05
   3   6  -8    3.06    1.12
   2  -6  -8   -0.55    0.81
  -2  -6   8    0.78    0.97
  -2  -6   8    1.49    1.10
  -2   6   8    0.48    0.84
   2   6  -8   -0.53    1.13
   2   6  -8    0.15    1.05
   2   6  -8    0.17    1.19
  -1  -6   8   17.54    1.87
   1  -6  -8   19.22    1.83
   1   6  -8   19.23    1.14
  -1   6   8   18.61    1.82
   1   6  -8   19.37    1.92
   1   6  -8   19.30    1.95
   0  -6  -8   18.91    1.75
   0  -6   8   18.41    1.78
   0   6   8   21.01    1.95
   0   6  -8   19.00    1.87
   0   6  -8   20.36    1.85
   0   6  -8   20.16    1.23
  -1  -6  -8   -0.40    0.90
   1  -6   8    0.25    0.92
   1  -6   8    0.14    1.03
   1  -6   8   -0.08    0.92
   1   6   8   -0.12    0.77
  -1   6  -8    0.79    0.90
  -1   6  -8   -0.19    1.00
  -1   6  -8   -0.37    0.92
   2  -6   8   -0.64    1.12
   2  -6   8    0.68    1.04
  -2  -6  -8   -0.52    0.87
   2  -6   8    0.54    1.03
  -2   6  -8   -0.13    1.15
  -2   6  -8   -0.22    1.23
  -2   6  -8    0.41    1.02
   2   6   8    1.11    1.15
   3  -6   8    2.19    1.17
   3  -6   8    4.30    1.26
  -3  -6  -8    5.02    1.07
   3  -6   8    3.51    1.40
   3   6   8    3.47    1.09
   3   6   8    2.86    1.32
  -3   6  -8    3.53    1.21
  -3   6  -8    1.89    1.31
  -3   6  -8    2.94    1.50
   4  -6   8    2.56    1.37
   4  -6   8    1.44    1.35
   4  -6   8    3.09    1.61
  -4  -6  -8    3.52    1.24
   4   6   8    3.23    1.32
  -4   6  -8    1.08    1.05
  -4   6  -8    2.70    1.63
   4   6   8    0.80    1.26
  -4   6  -8    0.19    1.37
  -5  -6  -8   -1.43    1.39
  -5  -6  -8    0.77    1.29
  -5   6  -8    0.29    1.34
  -2  -7   8    2.89    1.54
   2  -7  -8    2.32    2.32
  -2   7   8    1.88    2.77
   2   7  -8    2.25    1.59
  -1  -7   8    8.17    1.51
   1  -7  -8    9.04    1.55
  -1   7   8    9.70    1.78
   1   7  -8    7.07    1.53
   1   7  -8   10.29    1.75
   0  -7  -8    3.70    1.26
   0  -7   8    4.43    1.57
   0  -7   8    3.41    1.27
   0  -7   8    3.36    1.43
   0   7  -8    3.06    1.31
   0   7   8    3.36    1.59
   0   7  -8    3.21    1.47
   1  -7   8   13.41    1.82
  -1  -7  -8   11.50    1.45
   1  -7   8   10.29    1.62
   1  -7   8   10.38    1.74
   1   7   8   11.03    1.66
  -1   7  -8   12.66    1.91
  -1   7  -8   12.49    1.83
   2  -7   8    1.02    1.51
   2  -7   8   -1.16    1.76
  -2   7  -8    0.57    1.46
   2   7   8    3.06    1.31
  -2   7  -8   -0.01    1.34
  -2   7  -8    0.72    1.73
  -8   0   9    0.57    1.11
  -8   0   9    1.30    1.15
   8   0  -9    0.21    1.47
   7   0  -9   -0.68    1.02
  -7   0   9   -0.05    0.80
  -7   0   9    0.13    0.94
  -6   0   9    0.24    0.65
   6   0  -9   -0.43    0.39
  -6   0   9    0.83    0.72
   6   0  -9    1.39    0.84
  -5   0   9    0.08    0.60
  -5   0   9   -0.14    0.56
   5   0  -9    0.98    0.30
   5   0  -9   -0.47    0.62
   4   0  -9    1.18    0.26
   4   0  -9    0.02    0.54
  -4   0   9    0.71    0.53
  -4   0   9    0.13    0.23
  -3   0   9    0.55    0.28
   3   0  -9    0.35    0.46
  -3   0   9    0.60    0.18
   3   0  -9    0.92    0.19
  -2   0   9    1.13    0.26
  -2   0   9   -0.26    0.31
  -2   0   9   -0.52    0.31
  -2   0   9    1.58    0.52
  -2   0   9    0.12    0.17
   2   0  -9    0.46    0.22
  -2   0   9   -0.25    0.17
   2   0  -9   -0.19    0.17
   2   0  -9    0.23    0.16
  -1   0   9    0.16    0.20
   1   0  -9    0.10    0.18
  -1   0   9   -0.08    0.14
   1   0  -9   -0.36    0.15
  -1   0   9    0.03    0.36
  -1   0   9    0.10    0.35
  -1   0   9   -0.39    0.24
   1   0  -9    0.43    0.19
   0   0   9   -0.03    0.11
   0   0   9    0.33    0.38
   0   0   9   -0.08    0.17
   0   0  -9   -0.11    0.17
   0   0  -9   -0.21    0.20
   0   0   9   -0.67    0.26
   0   0   9   -0.22    0.37
   0   0   9    0.26    0.14
   0   0   9   -0.39    0.15
   0   0  -9   -0.07    0.20
   0   0   9    0.24    0.14
   1   0   9    1.50    0.36
  -1   0  -9   -0.21    0.20
  -1   0  -9    0.09    0.20
   1   0   9   -0.04    0.17
  -1   0  -9    0.07    0.20
   1   0   9    0.44    0.20
   1   0   9    0.21    0.40
   1   0   9    0.10    0.16
  -1   0  -9   -0.21    0.12
   1   0   9   -0.56    0.43
   2   0   9    0.50    0.47
   2   0   9    0.31    0.28
  -2   0  -9    0.11    0.27
   2   0   9    0.00    0.17
   2   0   9    0.43    0.22
  -2   0  -9   -0.18    0.20
  -3   0  -9   -0.20    0.35
   3   0   9   -0.06    0.48
  -3   0  -9   -0.18    0.45
  -3   0  -9    0.06    0.50
  -4   0  -9   -0.23    0.56
   4   0   9    0.18    0.60
  -4   0  -9   -0.07    0.22
  -4   0  -9    0.46    0.71
  -4   0  -9   -0.22    0.62
  -5   0  -9   -0.57    0.68
  -5   0  -9    0.75    0.66
  -5   0  -9    0.26    0.31
   5   0   9    0.13    0.77
  -6   0  -9   -0.35    0.80
  -6   0  -9    0.15    0.78
  -6   0  -9    0.28    0.85
   6   0   9    0.65    0.88
  -7   0  -9   -0.86    1.02
  -7   0  -9   -0.36    1.07
   7   0   9    1.36    1.29
  -7   0  -9   -0.30    1.01
  -8   0  -9   -0.36    1.68
   8   0   9   -2.38    1.79
  -8   0  -9    0.84    1.43
  -8   0  -9    0.88    1.26
  -8  -1   9    1.88    1.38
  -8  -1   9    2.12    1.20
   8  -1  -9    0.60    1.58
   8   1  -9    0.97    1.52
  -8   1   9   -0.23    1.07
  -8   1   9    1.10    1.14
  -7  -1   9    1.18    0.88
   7  -1  -9    1.99    1.11
  -7  -1   9    0.90    1.01
   7   1  -9    0.64    1.11
  -7   1   9    0.55    0.91
  -7   1   9    1.15    0.88
   7   1  -9    1.68    1.14
  -6  -1   9    3.34    0.83
  -6  -1   9    4.74    0.84
   6  -1  -9    4.96    1.06
   6   1  -9    4.11    0.92
  -6   1   9    3.32    0.80
   6   1  -9    3.87    0.91
  -6   1   9    3.60    0.85
  -5  -1   9    0.52    0.61
   5  -1  -9    0.43    0.75
  -5  -1   9    0.88    0.64
   5   1  -9    0.50    0.67
   5   1  -9    1.15    0.67
  -5   1   9    0.61    0.61
  -4  -1   9   10.82    1.05
   4  -1  -9   10.11    1.07
  -4  -1   9   12.07    0.60
   4  -1  -9   12.08    0.75
   4  -1  -9   11.86    1.19
  -4  -1   9   11.38    0.69
  -4   1   9   13.79    0.69
  -4   1   9   10.39    0.72
  -4   1   9   10.75    1.10
   4   1  -9   10.81    1.11
  -4   1   9   10.31    1.05
   4   1  -9   10.39    1.12
   3  -1  -9   23.59    1.27
   3  -1  -9   23.72    1.45
  -3  -1   9   28.24    1.21
  -3  -1   9   23.84    1.22
  -3   1   9   23.96    1.39
   3   1  -9   23.57    1.25
   3   1  -9   25.13    1.51
  -3   1   9   29.60    1.28
  -3   1   9   23.63    1.26
  -3   1   9   25.15    1.28
   2  -1  -9   18.16    0.99
  -2  -1   9   19.13    0.92
  -2  -1   9   16.84    1.06
  -2  -1   9   19.09    0.99
   2  -1  -9   18.08    0.96
   2  -1  -9   18.83    0.98
  -2  -1   9   16.45    0.86
  -2  -1   9   17.50    0.93
  -2  -1   9   17.51    0.89
   2  -1  -9   16.06    1.08
   2   1  -9   18.15    1.17
  -2   1   9   21.08    1.03
   2   1  -9   17.46    0.95
   2   1  -9   19.14    1.03
  -2   1   9   17.06    0.92
  -2   1   9   17.02    1.05
  -2   1   9   17.68    1.07
   1  -1  -9   -0.03    0.20
  -1  -1   9    0.84    0.42
  -1  -1   9    0.64    0.21
   1  -1  -9    0.79    0.18
  -1  -1   9    0.65    0.23
  -1  -1   9    0.31    0.38
   1  -1  -9   -0.10    0.18
  -1  -1   9    0.31    0.18
  -1   1   9   -0.93    0.36
  -1   1   9    0.92    0.25
   1   1  -9    0.17    0.22
   1   1  -9    0.31    0.21
  -1   1   9    0.11    0.38
  -1   1   9    0.34    0.18
   1   1  -9    0.17    0.19
   0  -1  -9   28.79    1.39
   0  -1   9   30.43    1.44
   0  -1   9   27.75    1.54
   0  -1   9   29.90    1.35
   0  -1   9   28.61    1.32
   0  -1   9   28.30    1.42
   0  -1   9   26.94    1.51
   0  -1  -9   29.95    1.49
   0   1   9   28.17    1.39
   0   1   9   30.43    1.36
   0   1   9   27.08    1.53
   0   1   9   28.12    1.56
   0   1   9   31.97    1.34
   0   1   9   27.27    1.43
   0   1  -9   27.89    1.46
   0   1  -9   26.39    1.43
   0   1   9   28.93    1.33
   1  -1   9   79.18    3.60
   1  -1   9   79.12    3.76
   1  -1   9   88.72    3.65
   1  -1   9   76.05    3.77
  -1  -1  -9   80.86    3.73
  -1  -1  -9   82.53    3.78
   1  -1   9   83.35    3.86
   1  -1   9   81.57    3.80
   1  -1   9   80.83    3.71
  -1  -1  -9   81.82    3.66
  -1   1  -9   81.93    3.72
   1   1   9   79.34    3.71
  -1   1  -9   82.05    3.77
   1   1   9   83.93    3.61
  -1   1  -9   79.62    3.76
   1   1   9   84.99    3.74
  -2  -1  -9   21.82    1.02
  -2  -1  -9   21.35    1.36
  -2  -1  -9   20.89    1.05
   2  -1   9   21.45    1.13
   2  -1   9   20.17    1.31
   2  -1   9   20.27    1.37
   2   1   9   23.82    1.01
   2   1   9   20.50    1.12
  -2   1  -9   22.75    1.14
  -2   1  -9   22.88    1.23
  -2   1  -9   20.22    1.30
  -2   1  -9   20.90    1.10
   3  -1   9    8.82    0.69
  -3  -1  -9   10.09    1.01
  -3  -1  -9    9.74    0.55
  -3  -1  -9    9.04    0.57
  -3   1  -9    9.71    0.72
   3   1   9   10.05    0.95
  -3   1  -9   10.40    1.03
  -3   1  -9    9.19    0.72
  -4  -1  -9    0.34    0.63
  -4  -1  -9    0.13    0.25
  -4  -1  -9   -0.35    0.50
   4  -1   9    0.17    0.57
  -4  -1  -9    0.51    0.61
  -4   1  -9    0.54    0.21
  -4   1  -9    0.98    0.59
   4   1   9    1.04    0.72
  -4   1  -9    0.50    0.67
  -5  -1  -9    7.13    1.00
   5  -1   9    3.95    0.83
  -5  -1  -9    6.92    0.72
  -5  -1  -9    5.59    0.66
  -5  -1  -9    4.97    0.89
   5   1   9    3.47    0.89
  -5   1  -9    4.77    0.90
  -5   1  -9    6.36    0.93
  -6  -1  -9    1.12    0.80
  -6  -1  -9    1.39    0.87
  -6  -1  -9   -0.17    0.91
   6  -1   9    0.76    0.89
  -6   1  -9    1.67    0.90
   6   1   9    0.71    0.87
  -6   1  -9    2.01    0.93
  -6   1  -9    1.54    0.93
   7  -1   9    1.50    1.25
  -7  -1  -9    1.40    1.03
  -7  -1  -9    3.17    1.23
  -7  -1  -9    3.34    1.29
   7   1   9    2.03    1.21
  -7   1  -9    3.21    1.20
  -7   1  -9    3.26    1.16
  -7   1  -9    4.63    1.21
   8  -1   9   -1.29    1.63
  -8  -1  -9   -0.46    1.54
  -8  -1  -9   -0.88    1.70
  -8   1  -9    0.76    1.50
  -8   1  -9    1.01    1.50
  -8   1  -9    0.05    1.60
  -8  -2   9    2.57    1.52
   8  -2  -9    4.14    1.90
  -8   2   9    2.05    1.55
   8   2  -9    2.98    1.57
   8   2  -9    0.86    1.77
  -8   2   9    1.07    1.26
   7  -2  -9   -0.32    1.31
  -7  -2   9    0.10    1.12
  -7  -2   9    0.46    0.96
  -7   2   9    0.29    0.86
  -7   2   9   -0.54    1.12
  -7   2   9   -0.80    0.86
   7   2  -9   -2.15    0.96
   7   2  -9    1.30    1.23
   6  -2  -9    1.96    1.03
  -6  -2   9    1.37    0.89
   6  -2  -9    0.81    0.80
  -6  -2   9    1.16    0.83
  -6   2   9    1.66    0.79
  -6   2   9    0.90    0.92
   6   2  -9    1.43    0.98
   6   2  -9    1.05    0.93
   5  -2  -9    1.21    0.83
   5  -2  -9    1.61    0.77
  -5  -2   9    1.21    0.77
   5   2  -9    1.36    0.74
  -5   2   9    0.30    0.69
  -5   2   9    1.37    0.91
   5   2  -9    1.24    0.76
  -4  -2   9    3.44    0.39
   4  -2  -9    2.93    0.72
   4  -2  -9    2.69    0.69
  -4  -2   9    2.90    0.69
  -4   2   9    2.93    0.61
   4   2  -9    3.02    0.73
   4   2  -9    3.11    0.77
  -3  -2   9    4.91    0.72
  -3  -2   9    5.38    0.44
   3  -2  -9    6.68    0.50
  -3  -2   9    7.29    0.76
   3  -2  -9    5.29    0.74
   3   2  -9    5.73    0.76
  -3   2   9    7.11    0.52
  -3   2   9    6.26    0.72
   3   2  -9    5.94    0.47
   3   2  -9    5.00    0.78
   2  -2  -9   11.64    0.96
  -2  -2   9   11.76    0.96
   2  -2  -9   13.63    0.75
  -2  -2   9   12.93    0.74
  -2  -2   9   14.73    0.67
   2   2  -9   11.42    0.75
   2   2  -9   11.24    1.01
  -2   2   9   12.14    0.76
   2   2  -9   11.58    1.07
  -2   2   9   11.83    0.85
   2   2  -9   13.04    1.00
  -1  -2   9   15.23    1.10
  -1  -2   9   19.05    0.90
  -1  -2   9   16.87    0.89
   1   2  -9   16.63    1.17
  -1   2   9   17.93    0.89
   1   2  -9   17.23    1.16
   1   2  -9   17.21    0.96
   1   2  -9   17.09    0.94
  -1   2   9   16.90    0.85
   0  -2   9   19.37    0.99
   0  -2  -9   20.37    1.04
   0  -2  -9   19.45    1.26
   0  -2   9   19.83    1.10
   0   2   9   21.05    1.03
   0   2  -9   19.62    1.08
   0   2  -9   18.62    1.24
   0   2   9   19.88    1.00
   0   2  -9   19.55    1.00
  -1  -2  -9    1.04    0.37
  -1  -2  -9    3.69    0.30
  -1  -2  -9    2.85    0.62
   1  -2   9    0.96    0.48
  -1   2  -9    2.61    0.57
  -1   2  -9    1.62    0.24
  -1   2  -9    2.67    0.26
   1   2   9    2.67    0.32
  -2  -2  -9   -0.62    0.55
   2  -2   9    0.67    0.55
   2  -2   9   -0.24    0.47
  -2  -2  -9   -0.11    0.47
  -2  -2  -9    0.03    0.21
  -2   2  -9   -0.06    0.24
   2   2   9   -0.37    0.20
  -2   2  -9    0.19    0.42
  -2   2  -9   -0.14    0.19
   3  -2   9   50.75    2.60
  -3  -2  -9   51.83    2.62
  -3  -2  -9   49.42    2.36
  -3  -2  -9   53.93    2.37
   3  -2   9   50.56    2.65
  -3   2  -9   46.66    2.60
  -3   2  -9   49.94    2.34
   3   2   9   56.89    2.36
  -3   2  -9   49.22    2.44
   3   2   9   47.74    2.60
   4  -2   9   -1.04    0.69
  -4  -2  -9    0.98    0.28
  -4  -2  -9    0.91    0.38
   4  -2   9    0.41    0.70
  -4  -2  -9   -0.26    0.63
   4   2   9    0.08    0.69
  -4   2  -9   -0.10    0.53
  -4   2  -9    0.24    0.63
  -5  -2  -9    1.04    0.73
  -5  -2  -9    1.35    0.88
   5  -2   9    1.39    0.84
  -5  -2  -9    0.86    0.84
  -5   2  -9    1.21    0.83
  -5   2  -9    2.08    0.78
  -5   2  -9    1.44    0.43
   5   2   9    2.20    0.94
  -6  -2  -9   -0.48    0.88
   6  -2   9    0.78    0.98
  -6  -2  -9   -0.30    1.01
  -6   2  -9   -0.09    0.85
  -6   2  -9    0.74    0.87
  -6   2  -9    0.42    0.98
   6   2   9   -0.35    1.04
   7  -2   9    3.84    1.36
  -7  -2  -9    2.55    1.37
  -7  -2  -9    5.24    1.30
   7   2   9    2.72    1.24
  -7   2  -9    1.76    1.22
  -7   2  -9    3.51    1.29
  -7   2  -9    3.52    1.38
  -8  -2  -9    0.03    1.67
  -8  -2  -9   -1.39    2.69
  -8   2  -9   -2.19    1.52
   8   2   9    2.52    1.72
  -8   2  -9   -0.90    1.81
  -7  -3   9   11.89    1.45
  -7  -3   9   13.37    1.56
   7  -3  -9   16.30    1.89
  -7   3   9   14.94    1.70
   7   3  -9   13.19    1.59
   7   3  -9   15.19    1.85
  -7   3   9   10.88    1.30
  -6  -3   9    1.09    0.91
  -6  -3   9    0.29    0.90
   6  -3  -9    0.87    1.12
   6  -3  -9   -0.41    0.92
   6   3  -9    0.45    1.03
  -6   3   9    0.94    0.80
  -6   3   9    0.58    1.05
   6   3  -9    0.86    1.05
   5  -3  -9    4.85    1.00
  -5  -3   9    4.30    0.97
  -5  -3   9    2.32    0.86
   5  -3  -9    5.91    1.03
   5   3  -9    5.43    1.00
  -5   3   9    4.83    0.99
  -5   3   9    4.70    0.87
   5   3  -9    4.95    1.02
  -4  -3   9   19.16    1.45
  -4  -3   9   16.98    1.40
   4  -3  -9   19.31    1.50
   4  -3  -9   19.68    1.09
   4   3  -9   18.97    1.49
  -4   3   9   18.00    1.50
  -4   3   9   18.28    1.42
   4   3  -9   14.94    1.11
   4   3  -9   19.00    1.61
  -3  -3   9   25.31    1.59
  -3  -3   9   22.72    1.56
   3  -3  -9   25.50    1.63
   3  -3  -9   25.46    1.31
   3   3  -9   25.21    1.71
   3   3  -9   26.38    1.25
   3   3  -9   25.35    1.66
  -3   3   9   25.02    1.66
  -2  -3   9    6.37    0.43
  -2  -3   9    4.26    0.70
   2  -3  -9    3.59    0.69
  -2  -3   9    4.37    0.74
   2   3  -9    6.82    0.86
   2   3  -9    3.96    0.44
  -2   3   9    4.86    0.83
  -2   3   9    6.08    0.41
   2   3  -9    3.27    0.68
  -1  -3   9    0.15    0.19
  -1  -3   9   -0.16    0.44
   1  -3  -9    0.47    0.51
   1   3  -9   -0.36    0.57
   1   3  -9    0.19    0.51
   1   3  -9    0.52    0.54
  -1   3   9   -0.07    0.52
   1   3  -9    0.08    0.28
   1   3  -9    0.87    0.29
   0  -3  -9   24.17    1.42
   0  -3   9   23.60    1.20
   0  -3   9   21.82    1.43
   0   3  -9   23.32    1.42
   0   3  -9   25.45    1.40
   0   3   9   26.10    1.15
   0   3   9   22.00    1.44
   0   3  -9   21.44    1.56
   0   3  -9   22.19    1.50
  -1  -3  -9    1.35    0.68
  -1  -3  -9    1.37    0.38
   1  -3   9    1.76    0.63
   1  -3   9    1.93    0.59
  -1  -3  -9    1.98    0.54
  -1   3  -9    1.33    0.23
   1   3   9    1.84    0.31
  -1   3  -9    2.40    0.43
  -1   3  -9    1.44    0.50
  -1   3  -9    1.79    0.67
   2  -3   9    7.92    0.55
   2  -3   9    7.16    0.87
  -2  -3  -9    7.95    0.91
  -2  -3  -9    6.78    0.89
   2  -3   9    7.50    0.84
  -2  -3  -9    9.12    0.80
  -2   3  -9    6.92    0.84
  -2   3  -9    5.11    0.74
  -2   3  -9    8.76    0.65
   2   3   9    8.24    0.61
  -2   3  -9    7.62    0.56
   3  -3   9    0.59    0.25
  -3  -3  -9   -0.32    0.66
  -3  -3  -9    0.28    0.53
  -3  -3  -9    0.34    0.58
   3  -3   9    1.03    0.79
   3  -3   9    0.31    0.66
   3   3   9    0.70    0.70
  -3   3  -9    0.20    0.67
  -3   3  -9    0.72    0.63
  -3   3  -9   -0.24    0.58
   4  -3   9   39.23    2.43
  -4  -3  -9   43.66    2.23
   4  -3   9   39.29    2.41
  -4  -3  -9   40.73    2.32
  -4   3  -9   43.42    2.34
  -4   3  -9   40.00    2.28
   4   3   9   35.93    2.41
   5  -3   9    2.48    0.98
  -5  -3  -9    3.04    0.85
  -5  -3  -9    3.46    0.98
   5  -3   9    2.48    0.96
  -5  -3  -9    2.12    0.40
  -5   3  -9    2.39    0.93
  -5   3  -9    2.24    0.94
   5   3   9    2.27    1.01
  -5   3  -9    2.60    0.87
   6  -3   9    2.92    1.30
  -6  -3  -9   -0.96    1.03
  -6  -3  -9   -1.07    1.11
   6   3   9   -0.55    1.09
  -6   3  -9    0.03    0.86
  -6   3  -9    2.07    1.10
  -6   3  -9   -0.14    0.99
  -7  -3  -9    0.10    1.45
  -7  -3  -9   -0.29    1.38
   7  -3   9   -0.77    1.48
  -7   3  -9    0.50    1.44
  -7   3  -9    0.48    1.34
  -7   3  -9    0.00    1.24
   7   3   9    1.52    1.43
  -7  -4   9    2.34    1.39
  -7  -4   9    1.44    1.74
  -7   4   9    1.13    1.26
   7   4  -9   -1.49    1.88
  -7   4   9    2.54    1.80
   7   4  -9    0.17    1.72
   6  -4  -9   -0.27    1.32
  -6  -4   9    0.23    1.08
  -6  -4   9    0.15    1.05
   6  -4  -9    0.64    1.15
   6   4  -9    0.40    1.01
  -6   4   9    0.99    0.87
  -6   4   9    2.41    1.29
   6   4  -9    0.73    1.26
   5  -4  -9    2.48    1.05
  -5  -4   9    2.39    0.90
  -5  -4   9    1.51    0.95
   5   4  -9    1.77    1.00
   5   4  -9    2.04    1.00
  -5   4   9    1.73    0.83
  -5   4   9    3.62    1.17
  -4  -4   9    0.04    0.82
  -4  -4   9   -0.26    0.68
   4  -4  -9    0.18    0.79
  -4   4   9    0.73    0.90
   4   4  -9    0.53    0.84
   4   4  -9    1.06    0.85
  -4   4   9    0.61    0.66
   3  -4  -9   11.93    1.17
  -3  -4   9    8.64    1.03
  -3  -4   9   11.97    1.08
   3   4  -9   10.32    1.14
   3   4  -9   12.39    0.72
   3   4  -9   11.77    1.29
  -3   4   9    7.59    0.96
   2  -4  -9   10.54    1.09
  -2  -4   9    9.53    0.95
  -2  -4   9   10.86    1.10
   2   4  -9    8.87    0.77
   2   4  -9   11.99    1.20
   2   4  -9    9.18    0.81
  -2   4   9    9.32    1.10
   2   4  -9    8.08    1.04
  -1  -4   9    2.30    0.74
  -1  -4   9    3.34    0.70
   1  -4  -9    3.26    0.74
   1   4  -9    2.80    0.75
  -1   4   9    2.11    0.70
   1   4  -9    3.34    0.70
   1   4  -9    2.28    0.69
   1   4  -9    3.41    0.84
   0  -4  -9    0.17    0.57
   0  -4   9   -0.20    0.60
   0  -4   9    0.35    0.61
   0   4  -9   -0.08    0.73
   0   4   9   -0.03    0.58
   0   4  -9   -0.22    0.62
  -1  -4  -9    0.46    0.58
   1  -4   9   -0.30    0.65
   1  -4   9   -0.45    0.62
  -1   4  -9    0.27    0.76
  -1   4  -9    0.52    0.66
   1   4   9    0.94    0.65
   2  -4   9    0.19    0.72
  -2  -4  -9    0.16    0.62
   2  -4   9    0.55    0.31
   2  -4   9    0.38    0.72
  -2   4  -9   -0.38    0.70
  -2   4  -9   -0.14    0.28
   2   4   9    0.10    0.60
  -2   4  -9    0.78    0.83
   3  -4   9    8.00    1.10
  -3  -4  -9   11.48    1.05
   3  -4   9    8.83    0.72
  -3  -4  -9   11.23    1.03
   3  -4   9    9.24    1.11
  -3   4  -9   10.09    0.96
  -3   4  -9    6.32    0.95
  -3   4  -9   10.12    1.12
   4  -4   9    0.57    0.41
   4  -4   9    0.26    0.88
   4  -4   9    0.23    0.83
  -4  -4  -9    0.81    0.78
  -4   4  -9    0.78    0.96
  -4   4  -9    0.79    0.81
  -5  -4  -9   -0.27    0.99
   5  -4   9    0.27    0.95
   5  -4   9   -0.07    1.11
  -5   4  -9   -0.59    1.05
  -5   4  -9    1.43    0.95
  -6  -4  -9   -0.11    1.22
   6  -4   9   -0.68    1.32
  -6   4  -9   -0.65    1.22
  -6   4  -9    0.92    1.00
   7  -4   9   -1.23    1.69
  -7  -4  -9    0.61    1.63
  -7   4  -9    0.88    1.66
   6   5  -9    5.99    1.46
  -6   5   9    6.38    1.53
  -6   5   9    8.09    1.77
   6   5  -9    9.76    1.93
  -5  -5   9    3.71    1.21
   5  -5  -9    4.95    1.20
  -5  -5   9    4.19    1.08
  -5   5   9    3.56    1.13
   5   5  -9    4.34    1.31
  -5   5   9    4.83    1.53
   5   5  -9    4.53    1.27
  -4  -5   9    4.00    1.04
   4  -5  -9    2.16    0.90
  -4  -5   9    4.87    1.07
  -4   5   9    4.56    1.01
   4   5  -9    4.55    1.18
   4   5  -9    4.96    1.26
  -4   5   9    2.84    1.02
  -3  -5   9    1.17    0.85
  -3  -5   9    0.25    0.85
   3  -5  -9    0.13    0.79
   3   5  -9    0.67    0.47
  -3   5   9   -0.44    0.76
   3   5  -9    2.48    1.05
   3   5  -9    0.55    0.91
   3   5  -9    0.16    0.70
  -2  -5   9   25.11    1.82
   2  -5  -9   23.86    1.74
  -2  -5   9   23.17    1.74
   2   5  -9   25.68    1.96
  -2   5   9   22.38    1.81
   2   5  -9   23.95    1.62
   2   5  -9   22.74    1.84
   2   5  -9   24.47    1.86
  -1  -5   9   26.88    1.87
  -1  -5   9   25.36    1.80
   1  -5  -9   26.21    1.86
  -1   5   9   25.60    1.90
   1   5  -9   23.81    1.94
   1   5  -9   26.63    1.89
   1   5  -9   27.03    1.92
   0  -5   9    0.27    0.78
   0  -5  -9    0.43    0.71
   0   5  -9   -0.03    0.86
   0   5  -9    0.05    0.79
   0   5   9    1.21    0.85
   1  -5   9    0.75    0.71
   1  -5   9   -0.21    0.82
  -1  -5  -9    0.39    0.65
  -1   5  -9    0.98    0.78
   1   5   9    1.20    0.75
  -1   5  -9   -0.21    0.36
  -1   5  -9    0.59    0.92
  -2  -5  -9   16.50    1.48
   2  -5   9   19.44    1.76
   2  -5   9   16.42    1.68
   2  -5   9   18.46    1.56
  -2   5  -9   16.68    1.85
  -2   5  -9   15.86    1.71
  -2   5  -9   15.63    1.48
   2   5   9   17.22    1.63
  -3  -5  -9    5.47    0.96
   3  -5   9    7.48    1.04
   3  -5   9    4.80    1.05
   3  -5   9    7.84    1.22
  -3   5  -9    6.28    1.28
  -3   5  -9    5.21    1.05
   3   5   9    4.11    1.04
  -3   5  -9    5.01    1.22
  -4  -5  -9    1.61    0.92
  -4  -5  -9    1.38    0.90
   4  -5   9   -0.38    1.17
   4  -5   9   -1.01    0.97
   4  -5   9    0.74    1.07
  -4   5  -9   -0.59    1.27
   4   5   9   -0.32    0.95
  -4   5  -9    0.88    0.93
  -4   5  -9    0.91    1.06
  -5  -5  -9   -0.54    1.09
   5  -5   9    0.69    0.97
   5  -5   9   -1.10    1.29
  -5   5  -9   -0.79    1.28
  -5   5  -9   -0.93    1.43
   5   5   9   -2.15    1.19
   6  -5   9    2.76    1.82
  -6  -5  -9    3.66    1.50
  -6   5  -9    2.79    1.71
   6   5   9    5.14    1.84
   6   5   9    4.64    1.55
  -4  -6   9    7.64    1.33
  -4  -6   9    4.18    1.19
   4  -6  -9    5.02    1.33
   4   6  -9    6.44    1.48
   4   6  -9    7.66    1.57
  -4   6   9    6.15    1.31
  -4   6   9    4.20    1.29
  -3  -6   9   12.30    1.51
  -3  -6   9   13.28    1.46
   3  -6  -9   15.06    1.61
   3   6  -9   15.60    1.70
   3   6  -9   15.67    1.53
  -3   6   9   18.69    1.86
   3   6  -9   14.38    1.75
   3   6  -9   17.66    1.90
  -3   6   9   13.66    1.51
  -2  -6   9    9.32    1.37
   2  -6  -9    8.10    1.11
  -2  -6   9    9.44    1.33
   2   6  -9    8.90    1.26
   2   6  -9   10.18    1.47
   2   6  -9   10.00    1.41
   2   6  -9    8.23    1.22
  -2   6   9    7.67    1.18
  -1  -6   9    5.79    1.23
   1  -6  -9    6.07    1.17
   1   6  -9    5.43    1.05
  -1   6   9    5.25    1.13
   1   6  -9    4.16    1.20
   0  -6   9    7.92    1.20
   0  -6   9   12.75    1.41
   0  -6  -9    8.57    1.19
   0   6  -9   11.88    1.50
   0   6   9   10.55    1.36
   0   6  -9   11.30    1.43
   0   6  -9   12.96    0.81
   1  -6   9    8.10    1.17
   1  -6   9    7.23    1.29
  -1  -6  -9    7.63    1.18
   1  -6   9    5.51    1.22
  -1   6  -9    4.47    1.11
   1   6   9    5.57    1.08
  -1   6  -9    7.81    1.32
  -2  -6  -9    1.32    0.93
   2  -6   9    1.01    1.01
   2  -6   9    0.52    1.17
   2  -6   9    0.09    1.09
   2   6   9    0.51    1.12
  -2   6  -9    0.69    1.32
  -2   6  -9   -0.60    0.96
  -2   6  -9   -0.79    1.06
  -3  -6  -9    5.09    1.19
   3  -6   9    4.67    1.50
   3  -6   9    4.29    1.39
   3  -6   9    7.14    1.35
  -3   6  -9    6.16    1.64
  -3   6  -9    5.21    1.41
   3   6   9    7.01    1.24
   3   6   9    5.72    1.37
  -3   6  -9    5.49    1.32
   4  -6   9    0.46    1.34
   4  -6   9    0.58    1.42
   4  -6   9    1.12    1.67
  -4  -6  -9    0.43    1.06
  -4   6  -9    0.54    1.70
  -4   6  -9   -0.08    1.60
   4   6   9   -0.28    1.27
   4   6   9    2.08    1.37
  -4   6  -9    0.57    1.45
  -2  -7   9    1.87    2.05
   2  -7  -9    1.39    1.24
  -2   7   9    1.32    1.41
   2   7  -9    2.05    1.70
   2   7  -9    1.70    1.49
   2   7  -9    1.45    1.63
  -1  -7   9    1.73    1.29
   1   7  -9    0.67    1.49
   1   7  -9    0.30    1.55
  -1   7   9    0.02    2.31
   0  -7  -9    6.93    1.68
   0  -7   9    6.99    1.53
   0  -7   9    9.21    1.60
   0  -7   9    6.45    1.70
   0   7  -9    7.68    1.73
   0   7  -9    5.22    1.40
   1  -7   9    2.82    1.64
   1  -7   9    5.14    1.50
  -1   7  -9    3.25    1.33
  -1   7  -9    5.37    1.71
   2  -7   9    0.29    1.77
   2  -7   9   -0.84    1.48
  -2  -7  -9    0.55    1.37
   2  -7   9   -1.39    1.61
  -2   7  -9   -0.68    1.93
   2   7   9    2.25    1.45
  -8   0  10   10.96    1.50
  -8   0  10    9.85    1.57
   8   0 -10   12.53    1.98
  -7   0  10    8.79    1.19
  -7   0  10    7.51    1.13
   7   0 -10   11.44    1.50
  -6   0  10    3.12    0.83
   6   0 -10    5.04    1.09
  -6   0  10    4.41    0.89
  -5   0  10   21.75    1.53
  -5   0  10   20.62    1.53
   5   0 -10   23.22    1.72
  -5   0  10   26.91    1.26
  -4   0  10   16.85    0.84
  -4   0  10   12.06    1.16
   4   0 -10   12.42    1.34
   3   0 -10   20.51    1.29
  -3   0  10   20.20    1.08
  -3   0  10   24.08    1.11
  -3   0  10   20.65    1.04
  -3   0  10   18.15    1.33
   3   0 -10   20.08    1.35
  -2   0  10    0.69    0.22
   2   0 -10    1.21    0.27
  -2   0  10   -0.05    0.16
  -2   0  10    1.27    0.42
   2   0 -10    0.26    0.41
   2   0 -10   -0.03    0.17
  -1   0  10  190.47    8.45
   1   0 -10  187.22    8.53
   1   0 -10  194.74    8.48
   1   0 -10  188.15    8.51
  -1   0  10  193.36    8.46
  -1   0  10  200.62    8.53
   1   0 -10  186.09    8.54
  -1   0  10  188.10    8.41
   0   0 -10    1.68    0.38
   0   0  10    1.98    0.24
   0   0  10    1.48    0.56
   0   0 -10    1.42    0.32
   0   0  10    1.23    0.28
   0   0  10    2.66    0.54
   0   0  10    1.68    0.19
   0   0 -10    1.70    0.28
   1   0  10    5.31    0.42
   1   0  10    6.04    0.47
  -1   0 -10    4.21    0.43
   1   0  10    6.43    0.34
   1   0  10    5.72    0.41
  -2   0 -10   52.65    2.60
  -2   0 -10   48.95    2.58
   2   0  10   51.81    2.40
   2   0  10   54.29    2.47
   2   0  10   49.97    2.57
  -2   0 -10   53.64    2.40
  -3   0 -10  307.05   13.75
  -3   0 -10  315.13   13.70
   3   0  10  305.70   13.76
  -4   0 -10    0.15    0.56
  -4   0 -10   -0.12    0.59
   4   0  10    0.18    0.65
  -5   0 -10   23.71    1.81
   5   0  10   23.73    1.90
  -5   0 -10   27.15    1.26
  -5   0 -10   22.54    1.73
   6   0  10    1.45    1.00
  -6   0 -10    1.07    0.85
  -6   0 -10    1.10    0.89
  -6   0 -10    1.61    0.94
  -7   0 -10   39.96    2.96
  -7   0 -10   46.31    2.80
   7   0  10   41.99    3.06
  -7   0 -10   47.02    2.94
  -8   0 -10    0.07    1.80
  -8   0 -10    0.57    3.07
   8   0  10   -0.58    1.83
  -8   0 -10    1.42    1.66
  -8  -1  10   21.20    1.99
  -8  -1  10   25.59    2.48
   8  -1 -10   26.11    2.42
   8   1 -10   28.64    2.68
  -8   1  10   12.69    2.14
  -8   1  10   16.69    1.76
  -7  -1  10    2.97    0.96
   7  -1 -10    3.45    1.30
  -7  -1  10    2.70    1.11
   7   1 -10    3.08    1.19
  -7   1  10    1.43    0.95
  -7   1  10    2.77    1.05
   7   1 -10    1.91    1.25
   6  -1 -10   30.26    2.18
  -6  -1  10   29.21    1.89
  -6  -1  10   26.64    1.94
  -6   1  10   25.22    1.89
   6   1 -10   28.30    2.09
   6   1 -10   28.73    2.04
  -6   1  10   28.60    1.91
  -5  -1  10    3.50    0.75
  -5  -1  10    2.48    0.69
   5  -1 -10    2.43    0.86
  -5   1  10    2.54    0.68
  -5   1  10    1.38    0.73
   5   1 -10    2.63    0.79
   5   1 -10    3.19    0.79
  -4  -1  10   19.29    1.06
  -4  -1  10   21.35    0.97
   4  -1 -10   20.58    1.10
  -4  -1  10   17.96    1.34
   4  -1 -10   19.09    1.43
   4  -1 -10   18.19    1.36
  -4   1  10   17.65    1.07
  -4   1  10   19.24    1.33
  -4   1  10   24.28    1.14
   4   1 -10   18.25    1.48
   4   1 -10   17.44    1.41
  -3  -1  10    7.43    0.75
  -3  -1  10    9.36    0.56
   3  -1 -10    9.89    0.61
   3  -1 -10    7.26    0.85
  -3  -1  10   10.81    0.54
   3  -1 -10    8.04    0.82
   3   1 -10    7.00    0.81
   3   1 -10    9.39    0.62
  -3   1  10    8.55    0.62
   3   1 -10    8.75    0.98
  -3   1  10    9.10    0.87
  -2  -1  10  114.29    5.03
  -2  -1  10  113.92    5.12
   2  -1 -10  117.12    5.20
  -2  -1  10  116.97    5.09
  -2  -1  10  113.05    5.11
   2  -1 -10  116.81    5.18
  -2  -1  10  100.46    5.29
   2  -1 -10  110.13    5.21
   2   1 -10  107.34    5.26
   2   1 -10  113.99    5.25
  -2   1  10  126.44    5.30
  -2   1  10  116.15    5.22
   2   1 -10  117.16    5.15
  -1  -1  10   35.02    1.72
   1  -1 -10   37.67    1.75
  -1  -1  10   37.94    1.80
  -1  -1  10   34.88    1.74
   1  -1 -10   36.64    1.82
  -1  -1  10   38.26    1.69
  -1  -1  10   36.32    1.72
  -1   1  10   37.64    1.72
   1   1 -10   35.89    1.77
  -1   1  10   38.96    1.78
   1   1 -10   35.72    1.90
   1   1 -10   32.95    1.93
  -1   1  10   32.35    1.79
   0  -1  10   10.35    0.54
   0  -1  10   11.79    0.54
   0  -1  10   11.50    0.57
   0  -1 -10   10.71    0.63
   0  -1  10    8.80    0.65
   0  -1  10   10.91    0.77
   0   1 -10   10.25    0.71
   0   1  10   11.54    0.60
   0   1  10    9.17    0.57
   0   1  10    8.74    0.80
   0   1  10   10.33    0.61
   1  -1  10   78.16    3.87
   1  -1  10   81.97    3.77
   1  -1  10   90.35    3.70
  -1  -1 -10   80.91    3.72
  -1  -1 -10   79.69    3.89
   1   1  10   83.32    3.80
  -1   1 -10   83.51    3.78
  -1   1 -10   81.70    3.88
   1   1  10   85.65    3.66
   1   1  10   81.57    3.78
  -2  -1 -10   82.21    3.77
  -2  -1 -10   83.10    3.99
  -2  -1 -10   86.80    3.74
   2  -1  10   88.80    3.81
   2  -1  10   82.75    3.99
   2  -1  10   86.75    3.86
  -2   1 -10   80.90    3.90
  -2   1 -10   81.96    3.82
   2   1  10   87.34    3.73
  -2   1 -10   81.40    3.98
  -2   1 -10   85.59    3.98
  -3  -1 -10   61.59    3.09
   3  -1  10   60.95    3.10
  -3  -1 -10   64.86    2.82
  -3  -1 -10   64.20    2.80
  -3  -1 -10   62.59    2.80
  -3   1 -10   61.56    3.09
   3   1  10   59.83    3.10
  -3   1 -10   60.52    3.05
  -4  -1 -10   79.10    3.46
   4  -1  10   72.40    3.79
  -4  -1 -10   74.20    3.42
  -4  -1 -10   77.21    3.54
  -4  -1 -10   74.83    3.75
  -4   1 -10   77.51    3.71
   4   1  10   75.97    3.80
  -4   1 -10   81.24    3.42
  -4   1 -10   74.48    3.76
  -5  -1 -10    7.95    1.01
  -5  -1 -10    6.77    1.00
   5  -1  10    7.63    1.14
  -5  -1 -10   10.02    0.71
  -5  -1 -10    7.47    0.65
  -5   1 -10    9.20    1.19
  -5   1 -10    9.52    1.06
  -5   1 -10    7.18    0.67
   5   1  10    6.29    1.02
  -6  -1 -10   16.20    1.81
  -6  -1 -10   17.74    1.34
  -6  -1 -10   16.35    1.70
   6  -1  10   16.75    1.59
  -6   1 -10   13.27    1.42
   6   1  10   11.93    1.40
  -6   1 -10   15.08    1.49
  -6   1 -10   10.91    1.30
  -7  -1 -10    4.93    1.49
  -7  -1 -10    3.24    1.17
  -7  -1 -10    5.40    1.34
   7  -1  10    4.65    1.41
  -7   1 -10    4.30    1.23
  -7   1 -10    4.88    1.35
  -7   1 -10    2.72    1.32
   7   1  10    3.47    1.43
  -8  -1 -10   12.22    1.96
  -8  -1 -10   13.25    1.93
   8  -1  10   13.06    2.38
  -8  -1 -10   11.72    2.11
  -8   1 -10   14.15    2.08
  -8   1 -10    9.83    3.52
  -8   1 -10   14.18    1.85
   8   1  10   12.33    2.02
   8  -2 -10   -1.19    2.10
  -8  -2  10    0.10    1.29
  -8  -2  10    1.55    1.54
  -8   2  10   -0.14    1.22
   8   2 -10    1.96    1.78
   8   2 -10   -0.28    1.72
  -8   2  10   -1.01    1.17
  -7  -2  10   23.36    2.16
  -7  -2  10   19.96    1.97
   7  -2 -10   27.74    2.27
   7   2 -10   22.79    1.93
  -7   2  10   20.52    1.89
  -7   2  10   20.28    2.01
   7   2 -10   20.02    2.21
   6  -2 -10   12.74    1.42
  -6  -2  10   11.17    1.24
  -6  -2  10   13.47    1.25
  -6   2  10   11.63    1.16
  -6   2  10   12.48    1.25
   6   2 -10   10.00    1.28
   6   2 -10   12.26    1.33
  -5  -2  10   -0.54    0.39
  -5  -2  10    0.17    0.72
   5  -2 -10    1.26    0.84
   5  -2 -10    0.51    0.66
  -5   2  10    0.79    0.68
  -5   2  10   -0.01    0.75
   5   2 -10    0.22    0.81
   5   2 -10    0.05    0.78
  -4  -2  10    2.38    0.41
  -4  -2  10    1.99    0.69
   4  -2 -10    2.22    0.66
   4  -2 -10    2.84    0.77
   4   2 -10    2.37    0.80
  -4   2  10    2.75    0.66
   4   2 -10    2.33    0.80
  -4   2  10    2.09    0.72
  -3  -2  10   41.82    2.23
   3  -2 -10   42.19    2.05
  -3  -2  10   38.95    2.11
   3  -2 -10   41.96    2.21
  -3   2  10   40.73    2.16
   3   2 -10   40.67    2.27
   3   2 -10   41.71    2.28
   3   2 -10   40.33    1.94
  -2  -2  10   27.83    1.40
   2  -2 -10   28.86    1.44
  -2  -2  10   25.97    1.60
   2  -2 -10   28.83    1.61
  -2  -2  10   28.57    1.33
  -2   2  10   33.23    1.46
   2   2 -10   26.12    1.63
   2   2 -10   28.40    1.39
   2   2 -10   25.70    1.65
  -2   2  10   23.13    1.76
  -1  -2  10   -0.05    0.41
   1  -2 -10    0.15    0.52
   1  -2 -10   -0.28    0.43
  -1  -2  10    0.58    0.32
  -1  -2  10    0.92    0.20
   1   2 -10    0.28    0.45
   1   2 -10   -0.80    0.31
   1   2 -10   -0.11    0.53
  -1   2  10    0.63    0.17
   0  -2 -10    9.76    0.57
   0  -2  10    7.64    0.84
   0  -2 -10    8.92    0.96
   0  -2  10    8.25    0.56
   0  -2  10    8.26    0.82
   0   2 -10    6.79    0.76
   0   2  10    9.83    0.68
   0   2 -10    8.42    0.58
   0   2  10    9.53    0.58
  -1  -2 -10   21.85    1.13
  -1  -2 -10   20.67    1.24
   1  -2  10   20.46    1.34
   1  -2  10   20.76    1.36
   1  -2  10   23.43    1.03
  -1  -2 -10   21.08    1.37
   1   2  10   24.67    1.39
  -1   2 -10   19.85    1.34
  -1   2 -10   20.75    1.05
   1   2  10   21.89    1.13
  -1   2 -10   22.79    1.04
  -1   2 -10   21.08    1.40
  -2  -2 -10   -0.09    0.43
   2  -2  10   -0.32    0.52
   2  -2  10    0.16    0.53
  -2   2 -10    0.63    0.17
  -2   2 -10    0.30    0.53
  -2   2 -10   -0.07    0.59
  -2   2 -10    0.07    0.22
   3  -2  10   16.57    1.43
  -3  -2 -10   17.15    0.94
  -3  -2 -10   19.00    0.93
   3  -2  10   15.29    1.35
  -3  -2 -10   17.20    1.42
   3   2  10   20.45    0.91
  -3   2 -10   14.42    1.37
  -3   2 -10   17.09    1.36
   3   2  10   14.78    1.37
  -3   2 -10   19.04    0.92
  -4  -2 -10   12.22    0.72
  -4  -2 -10    9.35    0.69
   4  -2  10   12.04    1.24
  -4  -2 -10   11.18    0.75
  -4  -2 -10   10.38    1.05
   4  -2  10    9.80    1.06
  -4   2 -10   11.81    1.05
   4   2  10    8.75    1.07
  -4   2 -10    9.17    0.84
  -4   2 -10   10.93    1.12
  -4   2 -10    8.62    0.96
  -4   2 -10   10.87    0.66
  -5  -2 -10   40.92    2.27
  -5  -2 -10   39.60    2.43
   5  -2  10   38.64    2.51
   5   2  10   37.09    2.53
  -5   2 -10   45.08    1.98
  -5   2 -10   38.48    2.36
  -5   2 -10   39.80    2.50
   6  -2  10    2.31    1.22
  -6  -2 -10    2.03    1.03
  -6  -2 -10    3.03    1.15
  -6   2 -10    1.94    1.09
  -6   2 -10    1.85    0.99
   6   2  10    1.69    1.08
  -6   2 -10    1.49    0.94
  -7  -2 -10    7.95    1.62
   7  -2  10    7.24    1.75
  -7  -2 -10    7.42    1.54
   7   2  10    5.98    1.51
  -7   2 -10    8.36    1.59
  -7   2 -10    6.83    1.46
  -7   2 -10    7.71    1.41
  -7  -3  10    1.18    1.15
  -7  -3  10    1.87    1.17
   7  -3 -10   -0.32    1.59
  -7   3  10    1.59    0.99
  -7   3  10    0.96    1.53
   7   3 -10   -0.34    1.28
   7   3 -10    0.93    1.59
   6  -3 -10   26.41    2.39
   6  -3 -10   27.51    2.11
  -6  -3  10   22.64    2.03
  -6  -3  10   24.80    1.97
  -6   3  10   25.07    1.92
  -6   3  10   24.18    2.20
   6   3 -10   24.71    2.16
   6   3 -10   26.05    2.38
  -5  -3  10    2.93    0.86
   5  -3 -10    4.87    1.07
   5  -3 -10    2.82    0.87
  -5  -3  10    2.31    0.75
   5   3 -10    3.20    0.99
   5   3 -10    2.45    1.04
  -5   3  10    2.73    0.79
  -5   3  10    3.59    1.02
   4  -3 -10   42.00    2.30
  -4  -3  10   36.57    2.22
  -4  -3  10   37.34    2.17
   4   3 -10   39.09    2.37
   4   3 -10   39.57    2.33
  -4   3  10   40.26    2.24
  -4   3  10   39.98    2.27
   3  -3 -10    1.28    0.26
  -3  -3  10    0.13    0.58
   3  -3 -10   -0.05    0.56
  -3  -3  10   -0.24    0.60
  -3   3  10    0.27    0.68
   3   3 -10    0.24    0.68
   3   3 -10   -0.03    0.66
   2  -3 -10   38.79    2.15
  -2  -3  10   38.14    2.07
  -2  -3  10   42.58    1.86
  -2  -3  10   35.50    2.13
   2   3 -10   37.57    2.23
   2   3 -10   37.55    2.16
   2   3 -10   40.35    1.92
  -2   3  10   41.65    1.85
  -2   3  10   38.17    2.19
   1  -3 -10    0.32    0.54
  -1  -3  10    1.62    0.43
  -1  -3  10    0.47    0.59
  -1  -3  10   -0.28    0.20
   1   3 -10   -0.27    0.51
   1   3 -10   -0.17    0.59
  -1   3  10    0.02    0.21
  -1   3  10   -0.08    0.61
   1   3 -10    0.01    0.58
   0  -3 -10   26.82    1.62
   0  -3  10   26.50    1.68
   0  -3  10   26.45    1.39
   0   3 -10   28.37    1.51
   0   3 -10   25.54    1.61
   0   3  10   33.09    1.39
   0   3 -10   26.07    1.74
   1  -3  10   12.16    1.17
  -1  -3 -10   12.58    1.23
   1  -3  10   11.21    1.15
  -1  -3 -10   12.20    0.94
  -1  -3 -10   13.28    1.07
   1   3  10   15.83    1.08
  -1   3 -10   12.63    1.12
  -1   3 -10   11.46    0.65
  -1   3 -10    8.31    0.88
  -1   3 -10   12.61    1.23
   1   3  10   12.12    0.79
   2  -3  10   23.81    1.13
  -2  -3 -10   21.60    1.42
   2  -3  10   22.85    1.58
   2  -3  10   23.80    1.60
  -2  -3 -10   22.50    1.63
  -2   3 -10   21.40    1.26
  -2   3 -10   22.93    1.57
  -2   3 -10   22.54    1.17
  -2   3 -10   22.20    1.53
   3  -3  10   20.74    1.63
  -3  -3 -10   22.71    1.41
  -3  -3 -10   22.54    1.65
   3  -3  10   21.68    1.64
  -3  -3 -10   20.31    1.45
  -3   3 -10   20.00    1.54
   3   3  10   20.59    1.65
  -3   3 -10   21.24    1.31
  -3   3 -10   21.35    1.53
  -3   3 -10   23.28    1.65
   4  -3  10   23.05    1.80
  -4  -3 -10   24.23    1.54
  -4  -3 -10   23.47    1.79
   4  -3  10   26.67    1.84
  -4  -3 -10   20.63    1.55
  -4   3 -10   23.30    1.85
  -4   3 -10   22.91    1.75
   4   3  10   23.31    1.91
  -4   3 -10   24.69    1.69
   5  -3  10    7.35    1.18
  -5  -3 -10    9.00    1.22
  -5  -3 -10   10.54    1.13
   5  -3  10    7.72    1.21
  -5   3 -10    9.88    1.19
   5   3  10    7.12    1.26
  -5   3 -10   10.50    1.43
  -5   3 -10    7.68    1.13
   6  -3  10   14.81    1.67
  -6  -3 -10   14.00    1.60
  -6  -3 -10   17.32    1.59
  -6   3 -10   15.13    1.62
  -6   3 -10   16.53    1.49
  -6   3 -10   14.73    1.55
   6   3  10   15.77    1.70
   7  -3  10    6.16    1.73
  -7  -3 -10    8.00    1.71
  -7  -3 -10    5.92    1.62
   7   3  10    5.80    1.62
  -7   3 -10    7.77    1.61
  -7   3 -10    4.81    1.78
  -7   3 -10    5.85    1.60
  -7  -4  10    0.59    1.41
   7  -4 -10    1.23    1.51
  -6  -4  10    0.49    1.09
   6  -4 -10    2.52    1.18
   6  -4 -10    0.84    1.41
  -6  -4  10    0.69    1.13
   6   4 -10    1.28    1.26
  -6   4  10    3.34    1.42
   6   4 -10    2.07    1.46
  -6   4  10   -0.02    0.87
  -5  -4  10   24.14    1.96
   5  -4 -10   24.46    1.97
  -5  -4  10   24.50    2.02
  -5   4  10   22.56    2.17
  -5   4  10   22.35    1.85
   5   4 -10   25.70    2.06
   4  -4 -10   25.64    1.87
  -4  -4  10   25.28    1.85
  -4  -4  10   24.13    1.83
  -4   4  10   24.25    1.79
   4   4 -10   23.90    2.02
  -4   4  10   24.65    1.97
   4   4 -10   25.92    1.96
  -3  -4  10    1.94    0.75
   3  -4 -10    2.28    0.82
  -3  -4  10    1.40    0.79
  -3   4  10    2.95    0.94
   3   4 -10    3.27    0.80
   3   4 -10    0.89    0.82
  -2  -4  10    0.66    0.69
   2  -4 -10   -0.39    0.55
  -2  -4  10   -0.21    0.57
  -2   4  10   -0.66    0.59
   2   4 -10    0.72    0.66
  -2   4  10   -0.06    0.68
   2   4 -10    0.70    0.75
   2   4 -10    0.02    0.67
   1  -4 -10   23.72    1.62
  -1  -4  10   22.40    1.63
  -1  -4  10   23.67    1.61
  -1   4  10   29.22    1.20
  -1   4  10   23.31    1.72
   1   4 -10   23.04    1.64
   1   4 -10   24.69    1.76
   1   4 -10   22.20    1.72
   1   4 -10   22.32    1.53
   0  -4  10   19.93    1.55
   0  -4 -10   21.23    1.52
   0   4 -10   21.59    1.61
   0   4 -10   20.41    1.64
   0   4  10   22.11    1.64
   0   4 -10   21.43    1.51
   0   4  10   24.51    1.12
   1  -4  10    3.66    0.81
   1  -4  10    3.77    0.81
  -1  -4 -10    4.69    0.79
  -1   4 -10    3.41    0.34
  -1   4 -10    2.87    0.77
  -1   4 -10    3.04    0.80
   1   4  10    3.74    0.82
  -2  -4 -10    7.59    0.91
   2  -4  10    6.51    0.96
   2  -4  10   11.08    0.70
   2  -4  10   11.60    1.22
  -2   4 -10    7.98    1.04
  -2   4 -10    6.60    0.96
  -2   4 -10   11.96    0.67
   3  -4  10   18.86    1.73
   3  -4  10   18.80    1.02
   3  -4  10   17.13    1.63
  -3  -4 -10   16.44    1.41
  -3   4 -10   16.55    1.46
   3   4  10   17.26    1.79
  -3   4 -10   17.42    1.72
   4  -4  10    2.14    1.00
  -4  -4 -10    0.95    0.77
  -4  -4 -10    0.82    0.88
   4  -4  10   -0.07    0.92
  -4   4 -10   -0.22    1.00
  -4   4 -10    0.54    0.89
  -5  -4 -10    9.71    1.16
   5  -4  10    8.11    1.36
   5  -4  10    6.43    1.14
  -5  -4 -10   11.09    1.25
  -5   4 -10    4.64    1.06
  -5   4 -10   10.00    1.35
  -5   4 -10    9.56    1.31
   6  -4  10    5.84    1.56
  -6  -4 -10    5.40    1.48
  -6   4 -10    6.52    1.71
  -6   4 -10    5.48    1.49
  -6  -5  10    8.80    1.54
   6  -5 -10    8.69    1.66
  -6  -5  10    6.13    1.52
   6   5 -10    9.07    2.24
  -6   5  10    4.54    1.48
  -6   5  10    8.32    1.90
  -5  -5  10    0.45    1.11
   5  -5 -10    0.19    1.23
  -5  -5  10    2.01    1.17
  -5   5  10    0.35    1.44
  -5   5  10   -0.34    1.03
   5   5 -10    0.48    1.13
   5   5 -10   -1.65    1.30
  -4  -5  10    8.99    1.30
   4  -5 -10    8.98    1.19
  -4  -5  10    9.74    1.26
  -4   5  10    7.84    1.22
   4   5 -10   10.83    1.48
  -4   5  10   11.05    1.29
   4   5 -10   10.89    1.45
  -3  -5  10    1.60    0.98
  -3  -5  10    1.46    0.93
   3  -5 -10    2.00    0.99
  -3   5  10    1.40    0.84
   3   5 -10    1.24    1.03
   3   5 -10    1.10    0.78
  -2  -5  10    0.37    0.75
   2  -5 -10   -0.10    0.77
  -2  -5  10    1.74    0.89
   2   5 -10    0.37    0.98
  -2   5  10    0.60    0.86
   2   5 -10    0.07    0.91
   2   5 -10    1.39    0.88
   2   5 -10    1.05    0.88
   1  -5 -10    3.56    0.84
  -1  -5  10    3.44    0.94
  -1  -5  10    3.38    0.90
   1   5 -10    2.65    0.94
   1   5 -10    2.41    0.83
   1   5 -10    3.25    0.93
  -1   5  10    3.37    0.92
   1   5 -10    3.23    1.03
   0  -5  10    8.19    1.16
   0  -5 -10    7.13    1.03
   0   5  10    7.76    1.15
   0   5 -10    9.30    1.23
   0   5 -10    6.42    1.03
   1  -5  10    8.26    1.13
  -1  -5 -10    5.51    0.95
   1  -5  10    8.23    1.16
   1   5  10    6.57    1.05
  -1   5 -10    6.80    0.64
  -1   5 -10    7.27    1.17
  -1   5 -10    8.25    1.25
  -2  -5 -10    1.02    0.77
   2  -5  10    1.81    0.94
   2  -5  10    2.04    0.97
   2  -5  10    0.79    0.86
  -2   5 -10    0.84    0.84
  -2   5 -10    2.27    1.05
   2   5  10    1.87    0.85
   3  -5  10    6.89    1.21
   3  -5  10    7.83    1.31
  -3  -5 -10    6.49    1.06
   3  -5  10    8.22    1.06
   3   5  10    6.76    1.19
  -3   5 -10    9.92    1.39
  -3   5 -10    4.93    1.04
  -3   5 -10    7.54    1.13
  -4  -5 -10    2.78    1.01
   4  -5  10    1.57    1.23
   4  -5  10    3.01    1.17
  -4   5 -10    3.62    1.41
  -4   5 -10    3.69    1.19
   4   5  10    3.45    1.19
   5  -5  10    4.01    1.29
   5  -5  10    3.26    1.45
  -5  -5 -10    6.35    1.42
  -5  -5 -10    5.23    1.23
  -5   5 -10    4.98    1.51
  -5   5 -10    3.88    1.66
   5   5  10    5.52    1.43
  -4  -6  10    1.13    1.32
  -4  -6  10    0.79    1.18
  -4   6  10    1.57    1.40
   4   6 -10    1.32    1.50
  -3  -6  10    3.42    1.36
  -3  -6  10    3.10    1.20
   3  -6 -10    2.07    1.07
  -3   6  10    2.56    1.24
   3   6 -10    3.62    1.34
   3   6 -10    3.59    1.51
   3   6 -10    3.80    1.34
   3   6 -10    3.75    1.50
  -2  -6  10    1.67    1.07
   2  -6 -10    2.31    1.01
  -2  -6  10    4.64    1.23
   2   6 -10    1.94    1.23
   2   6 -10    2.35    1.40
   2   6 -10    0.87    0.99
  -2   6  10    1.94    1.02
   2   6 -10    2.21    1.13
   1  -6 -10    0.33    0.95
  -1  -6  10    0.46    1.03
  -1   6  10    1.35    1.10
   1   6 -10   -0.77    1.12
   1   6 -10    0.26    1.13
   1   6 -10   -0.44    0.93
   0  -6  10    2.21    1.18
   0  -6  10    2.74    1.02
   0  -6 -10    1.77    1.03
   0   6  10    0.30    1.06
   0   6 -10    2.30    1.25
   0   6 -10    2.51    1.04
  -1  -6 -10   15.84    1.52
   1  -6  10   15.82    1.58
   1  -6  10   12.83    1.41
   1  -6  10   13.37    1.56
  -1   6 -10   14.56    1.66
   1   6  10   13.57    1.67
  -1   6 -10   10.53    1.49
   2  -6  10    0.39    1.15
  -2  -6 -10    0.85    0.97
   2  -6  10    1.12    1.15
   2  -6  10    0.28    1.21
  -2   6 -10    0.73    1.29
   2   6  10   -0.67    1.20
  -2   6 -10    1.37    1.41
  -2   6 -10   -0.59    1.10
  -3  -6 -10    1.81    1.13
   3  -6  10    0.38    1.10
   3  -6  10   -0.59    1.38
   3  -6  10    0.45    1.24
   3   6  10   -0.59    1.20
  -3   6 -10   -1.33    1.19
   3   6  10    0.10    1.17
  -3   6 -10   -0.48    1.28
  -3   6 -10   -0.90    1.59
  -4  -6 -10    1.65    1.27
   4  -6  10    2.50    1.68
   4  -6  10    0.21    1.40
   4   6  10    2.92    1.51
   4   6  10    2.65    1.45
  -4   6 -10    0.65    1.19
  -4   6 -10    2.04    1.53
  -4   6 -10    3.46    1.91
  -1  -7  10    2.81    1.34
   1  -7 -10    3.19    1.21
  -1   7  10    3.21    1.31
   1   7 -10    1.90    1.63
   1   7 -10    2.63    1.46
   1   7 -10    5.43    1.76
   0  -7 -10    7.01    1.48
   0  -7  10    6.31    1.73
   0  -7  10    4.36    1.59
   0  -7  10    6.54    1.71
   0   7  10    4.92    1.46
   0   7 -10    8.79    1.92
   0   7 -10    5.56    1.56
   1  -7  10    1.99    1.68
  -1  -7 -10    2.24    1.33
   1  -7  10    3.65    1.74
   1  -7  10    3.23    1.56
   1   7  10    3.59    1.75
  -1   7 -10    1.62    1.38
  -1   7 -10    2.40    1.80
   8   0 -11    2.74    1.79
  -8   0  11    1.79    2.20
  -8   0  11   -0.56    1.37
  -7   0  11   -1.37    0.84
   7   0 -11   -1.11    1.15
  -7   0  11    0.45    1.05
  -6   0  11    3.34    0.88
  -6   0  11    0.21    0.78
   6   0 -11    1.15    0.98
   6   0 -11   -0.11    1.01
   5   0 -11    0.32    0.78
   5   0 -11   -1.32    0.71
  -5   0  11    1.50    0.70
  -5   0  11   -0.10    0.61
  -5   0  11   -0.81    0.59
   4   0 -11   -0.58    0.62
  -4   0  11   -0.70    0.54
   4   0 -11    0.22    0.66
  -3   0  11    0.41    0.23
   3   0 -11   -0.07    0.60
  -3   0  11   -0.47    0.45
   3   0 -11   -0.20    0.49
   3   0 -11   -0.30    0.30
  -3   0  11    0.02    0.46
  -3   0  11   -0.25    0.24
   2   0 -11   -0.06    0.41
   2   0 -11    0.11    0.44
   2   0 -11    0.20    0.17
  -2   0  11    0.29    0.18
  -2   0  11    0.02    0.19
   1   0 -11    0.07    0.42
  -1   0  11    1.23    0.32
  -1   0  11   -0.10    0.19
   1   0 -11   -0.22    0.45
  -1   0  11   -0.44    0.17
   0   0  11    0.05    0.14
   0   0 -11   -0.05    0.42
   0   0 -11    0.02    0.49
   0   0  11    0.60    0.19
   1   0  11    0.10    0.23
  -1   0 -11    0.44    0.56
  -1   0 -11    0.13    0.47
   1   0  11    0.25    0.22
   1   0  11   -0.49    0.47
  -2   0 -11    0.06    0.53
   2   0  11    0.38    0.51
   2   0  11   -0.70    0.43
  -2   0 -11    0.20    0.49
  -2   0 -11   -0.72    0.33
   2   0  11   -0.04    0.24
   3   0  11    0.31    0.60
  -3   0 -11   -0.46    0.50
  -3   0 -11   -0.18    0.46
   3   0  11    0.69    0.26
  -4   0 -11   -0.38    0.69
   4   0  11   -0.09    0.66
  -4   0 -11   -0.26    0.60
   5   0  11    0.58    0.87
  -5   0 -11    1.30    0.71
  -5   0 -11   -0.32    0.82
  -5   0 -11    0.33    0.33
  -6   0 -11   -0.01    0.96
   6   0  11    1.90    1.03
  -6   0 -11    0.30    0.89
   7   0  11   -0.43    1.29
  -7   0 -11   -0.03    1.38
  -7   0 -11    0.96    1.18
  -7   0 -11    0.41    1.32
  -8  -1  11    2.03    1.33
  -8  -1  11    0.87    1.49
   8  -1 -11    2.55    2.03
   8   1 -11   -0.56    1.99
  -8   1  11    1.42    1.35
  -8   1  11    2.15    1.22
  -7  -1  11    0.09    1.10
  -7  -1  11   -0.87    0.92
   7  -1 -11   -0.73    1.41
   7   1 -11    2.34    1.29
  -7   1  11    0.21    0.93
  -7   1  11   -0.27    1.01
   7   1 -11    0.14    1.27
  -6  -1  11    4.17    0.94
   6  -1 -11    4.60    1.16
  -6  -1  11    3.93    0.91
   6   1 -11    3.02    1.01
   6   1 -11    3.15    0.99
  -6   1  11    3.58    0.91
  -6   1  11    3.68    0.92
  -5  -1  11   12.30    1.01
   5  -1 -11   11.28    1.23
  -5  -1  11   10.03    1.05
  -5   1  11   11.57    1.23
   5   1 -11   10.91    1.13
  -5   1  11   11.78    1.12
   5   1 -11   11.46    1.23
  -4  -1  11    0.25    0.63
  -4  -1  11    0.21    0.30
   4  -1 -11   -0.28    0.60
   4  -1 -11   -0.01    0.58
  -4   1  11   -0.20    0.55
   4   1 -11    0.15    0.63
   4   1 -11   -0.13    0.63
  -4   1  11    0.07    0.28
  -3  -1  11    0.08    0.25
   3  -1 -11    0.43    0.56
   3  -1 -11   -0.16    0.51
   3  -1 -11    0.58    0.60
  -3  -1  11   -0.11    0.50
  -3   1  11   -0.05    0.47
  -3   1  11    0.44    0.22
   3   1 -11    0.03    0.58
   3   1 -11    0.21    0.52
   3   1 -11    0.46    0.25
  -2  -1  11    2.46    0.36
  -2  -1  11    3.28    0.63
   2  -1 -11    2.37    0.56
  -2  -1  11    3.46    0.42
  -2  -1  11    3.03    0.27
   2  -1 -11    3.18    0.68
   2  -1 -11    2.62    0.53
   2  -1 -11    3.65    0.62
   2   1 -11    2.13    0.50
   2   1 -11    2.06    0.59
   2   1 -11    3.15    0.35
   1  -1 -11   48.79    2.25
  -1  -1  11   50.05    2.24
  -1  -1  11   47.87    2.18
   1  -1 -11   46.62    2.40
  -1  -1  11   48.58    2.27
   1  -1 -11   48.14    2.42
  -1  -1  11   49.58    2.23
  -1   1  11   47.61    2.20
   1   1 -11   47.34    2.41
   1   1 -11   46.28    2.29
  -1   1  11   45.91    2.31
   1   1 -11   45.76    2.43
  -1   1  11   44.05    2.22
   0  -1  11    3.01    0.50
   0  -1  11    2.57    0.57
   0  -1 -11    4.85    0.71
   0  -1  11    5.57    0.38
   0  -1  11    5.59    0.34
   0  -1  11    6.05    0.36
   0   1  11    4.57    0.42
   0   1  11    3.38    0.38
   0   1 -11    4.05    0.66
   0   1  11    6.87    0.41
   1  -1  11    9.55    0.56
   1  -1  11    6.08    0.72
  -1  -1 -11    7.50    0.58
  -1  -1 -11    9.43    0.93
  -1   1 -11    7.25    0.75
   1   1  11    9.63    0.83
   1   1  11    8.43    0.48
  -1   1 -11    8.38    0.90
  -1   1 -11    6.29    0.74
   1   1  11    8.97    0.46
   1   1  11    9.99    0.57
  -2  -1 -11    2.79    0.73
   2  -1  11    1.88    0.58
   2  -1  11    1.26    0.33
  -2  -1 -11    2.28    0.28
   2   1  11    2.29    0.60
  -2   1 -11    2.80    0.70
  -2   1 -11    2.13    0.68
  -2   1 -11    2.63    0.69
  -3  -1 -11   18.14    1.47
  -3  -1 -11   20.12    0.93
   3  -1  11   18.94    1.33
   3  -1  11   19.09    1.43
  -3  -1 -11   17.95    0.99
  -3   1 -11   19.28    1.29
  -3   1 -11   18.32    1.40
   3   1  11   18.04    1.46
  -3   1 -11   18.19    1.42
  -4  -1 -11    8.46    0.63
  -4  -1 -11   10.90    0.91
   4  -1  11   11.52    1.18
   4  -1  11    7.01    0.93
  -4  -1 -11   12.03    1.22
  -4   1 -11   11.73    1.22
   4   1  11   11.69    1.22
  -4   1 -11    8.05    0.97
  -5  -1 -11    9.18    1.21
  -5  -1 -11   11.66    0.74
   5  -1  11    8.09    1.28
  -5   1 -11    6.01    1.00
  -5   1 -11    9.26    0.66
  -5   1 -11    7.66    1.07
   5   1  11    8.55    1.26
  -6  -1 -11    1.62    1.17
   6  -1  11    1.36    1.12
  -6  -1 -11    0.96    0.99
  -6   1 -11    1.46    0.91
  -6   1 -11    0.01    0.96
   6   1  11    1.45    1.09
  -6   1 -11    2.01    0.58
   7  -1  11    1.61    1.47
  -7  -1 -11    1.85    1.54
  -7  -1 -11    3.40    1.37
  -7   1 -11    2.27    1.28
   7   1  11    0.82    1.27
  -7   1 -11    1.12    1.29
  -7   1 -11    1.06    1.30
  -7  -2  11    4.69    1.13
  -7  -2  11    4.27    1.26
   7  -2 -11    8.30    1.58
   7   2 -11    6.55    1.45
  -7   2  11    5.18    1.13
   7   2 -11    7.49    1.54
  -7   2  11    2.65    1.07
  -6  -2  11   -0.64    0.86
   6  -2 -11    0.44    1.02
  -6  -2  11    0.34    0.94
   6   2 -11   -0.09    1.09
   6   2 -11   -0.93    0.96
  -6   2  11    0.56    0.81
  -6   2  11   -0.95    0.95
   5  -2 -11    0.37    0.71
   5  -2 -11   -0.47    0.88
  -5  -2  11    1.20    0.38
  -5  -2  11    0.22    0.75
   5   2 -11    0.25    0.89
   5   2 -11    0.32    0.90
  -5   2  11   -0.10    0.81
  -5   2  11    0.64    0.73
   4  -2 -11    3.71    0.77
  -4  -2  11    3.76    0.85
  -4  -2  11    2.82    0.76
   4  -2 -11    3.60    0.80
  -4  -2  11    2.74    0.42
  -4   2  11    3.31    0.73
  -4   2  11    2.17    0.68
   4   2 -11    2.63    0.80
   4   2 -11    2.98    0.76
  -3  -2  11    8.04    0.97
   3  -2 -11    6.77    0.83
   3  -2 -11    9.28    0.91
  -3  -2  11    9.92    0.89
   3   2 -11    7.15    0.88
   3   2 -11    9.27    0.59
  -3   2  11    9.43    0.90
   3   2 -11   10.03    1.05
  -3   2  11    9.52    1.07
   2  -2 -11   23.76    1.45
   2  -2 -11   23.71    1.23
  -2  -2  11   22.86    1.13
  -2  -2  11   19.59    1.05
  -2  -2  11   20.85    1.42
   2   2 -11   22.75    1.53
   2   2 -11   19.90    1.13
   2   2 -11   20.76    1.48
  -2   2  11   21.74    1.40
  -1  -2  11   21.29    1.41
  -1  -2  11   26.54    1.23
   1  -2 -11   22.92    1.42
  -1  -2  11   24.52    1.31
   1  -2 -11   21.99    1.47
  -1  -2  11   24.04    1.18
   1   2 -11   22.65    1.51
   1   2 -11   21.79    1.57
  -1   2  11   23.16    1.18
  -1   2  11   22.29    1.27
   0  -2  11    3.68    0.63
   0  -2  11    4.83    0.38
   0  -2  11    3.86    0.37
   0  -2 -11    4.63    0.73
   0   2 -11    3.75    0.64
   0   2 -11    4.44    0.70
   0   2  11    4.48    0.44
   0   2  11    5.93    1.00
   0   2 -11    4.76    0.42
   1  -2  11    3.68    0.68
   1  -2  11    5.50    0.76
  -1  -2 -11    5.81    0.45
   1  -2  11    6.64    0.39
  -1  -2 -11    7.08    0.92
   1   2  11    6.55    0.40
   1   2  11    6.48    0.52
  -1   2 -11    5.47    0.82
  -1   2 -11    4.27    0.71
   2  -2  11    7.77    0.91
  -2  -2 -11    7.40    0.53
   2  -2  11    7.23    0.85
  -2  -2 -11    4.67    0.67
  -2   2 -11    7.79    0.55
  -2   2 -11    6.61    0.82
   2   2  11    7.87    0.84
   2   2  11    7.27    0.47
  -2   2 -11    7.60    0.88
  -3  -2 -11   27.90    1.35
   3  -2  11   27.08    1.76
  -3  -2 -11   26.88    1.79
   3  -2  11   23.24    1.74
   3   2  11   25.88    1.80
   3   2  11   29.18    1.31
  -3   2 -11   27.14    1.80
  -3   2 -11   27.41    1.81
   4  -2  11    4.90    0.93
  -4  -2 -11    6.32    1.06
   4  -2  11    5.32    0.93
  -4  -2 -11    4.89    0.49
  -4   2 -11    5.61    0.91
  -4   2 -11    5.00    0.87
  -4   2 -11    5.17    0.96
   4   2  11    3.75    0.65
   4   2  11    3.71    0.89
   5  -2  11    3.51    1.02
  -5  -2 -11    3.44    0.86
  -5  -2 -11    2.63    0.46
  -5  -2 -11    2.69    1.00
  -5   2 -11    5.15    0.96
   5   2  11    3.01    1.11
  -5   2 -11    3.77    1.09
  -6  -2 -11    2.01    1.09
   6  -2  11    0.59    1.23
  -6  -2 -11    1.31    1.17
   6   2  11    0.36    1.15
  -6   2 -11    0.56    0.99
  -6   2 -11    1.79    1.07
  -7  -2 -11    2.28    1.43
   7  -2  11    2.21    1.70
  -7  -2 -11    4.22    1.64
  -7   2 -11    0.67    1.51
  -7   2 -11    2.64    1.42
  -7   2 -11   -0.34    1.34
   7   2  11    2.65    1.42
  -7  -3  11    1.56    2.16
  -7  -3  11   -0.69    1.13
   7  -3 -11   -0.19    1.71
   7   3 -11   -0.78    1.59
  -7   3  11   -0.12    1.07
   7   3 -11   -0.14    1.67
  -7   3  11   -0.78    1.60
   6  -3 -11   13.51    1.64
  -6  -3  11   10.17    1.36
   6  -3 -11   13.72    1.48
  -6  -3  11    9.90    1.26
   6   3 -11   10.27    1.36
  -6   3  11    9.66    1.21
   6   3 -11   13.09    1.58
  -6   3  11   10.65    1.48
   5  -3 -11    2.49    1.07
  -5  -3  11    1.07    0.76
  -5  -3  11    1.11    0.79
   5  -3 -11    0.89    0.76
  -5   3  11    2.30    1.01
  -5   3  11    1.07    0.76
   5   3 -11    3.68    1.09
   5   3 -11    2.18    0.97
   4  -3 -11    3.18    0.89
   4  -3 -11    2.13    0.81
  -4  -3  11    3.52    0.86
  -4  -3  11    2.06    0.75
   4   3 -11    2.20    0.82
   4   3 -11    3.67    0.84
  -4   3  11    2.44    0.74
  -4   3  11    2.51    0.80
  -3  -3  11   20.83    1.57
   3  -3 -11   23.18    1.60
  -3  -3  11   19.47    1.53
   3   3 -11   22.08    1.68
  -3   3  11   27.50    1.47
   3   3 -11   20.28    1.62
  -3   3  11   20.87    1.63
   3   3 -11   21.96    1.25
   2  -3 -11   76.78    3.64
  -2  -3  11   71.02    3.53
  -2  -3  11   80.31    3.42
  -2  -3  11   68.40    3.62
   2   3 -11   66.60    3.51
  -2   3  11   71.25    3.65
   2   3 -11   71.03    3.68
  -2   3  11   83.12    3.41
   2   3 -11   71.04    3.72
  -2   3  11   81.08    3.41
  -1  -3  11    2.01    0.31
  -1  -3  11    0.08    0.65
   1  -3 -11    0.91    0.60
   1   3 -11    0.66    0.63
   1   3 -11    0.52    0.62
   1   3 -11    0.36    0.69
  -1   3  11    1.13    0.66
   0  -3 -11    0.31    0.53
   0  -3  11    0.33    0.28
   0  -3  11    0.48    0.66
   0   3 -11    0.45    0.67
   0   3 -11    0.13    0.60
   0   3 -11   -0.94    0.50
   1  -3  11   11.91    1.27
   1  -3  11   12.87    1.23
  -1  -3 -11   13.95    1.15
  -1  -3 -11   13.54    1.30
   1   3  11   15.56    0.86
  -1   3 -11   11.18    1.18
  -1   3 -11   14.10    0.95
  -1   3 -11   12.01    1.36
  -2  -3 -11   39.84    2.12
   2  -3  11   39.21    2.26
   2  -3  11   40.21    1.84
  -2  -3 -11   40.96    2.32
   2  -3  11   39.52    2.27
  -2   3 -11   39.65    2.27
  -2   3 -11   40.32    1.88
   2   3  11   38.04    2.19
  -2   3 -11   37.01    2.18
  -2   3 -11   39.07    1.90
   3  -3  11    4.32    0.88
  -3  -3 -11    5.35    0.99
  -3  -3 -11    4.56    0.74
   3  -3  11    5.98    1.03
  -3   3 -11    5.83    0.80
   3   3  11    5.10    0.94
  -3   3 -11    4.31    0.93
  -3   3 -11    3.60    0.74
  -3   3 -11    6.93    0.59
   4  -3  11    1.84    0.87
  -4  -3 -11    2.31    0.80
  -4  -3 -11    3.13    0.91
   4  -3  11    2.32    0.91
  -4  -3 -11    1.70    0.72
  -4   3 -11    2.80    0.84
  -4   3 -11    3.22    0.97
  -4   3 -11    2.67    0.86
   4   3  11    2.79    1.01
  -5  -3 -11    2.20    1.09
  -5  -3 -11    1.79    0.88
   5  -3  11    2.03    1.16
  -5  -3 -11    3.21    1.04
   5  -3  11    3.51    1.10
  -5   3 -11    2.08    0.99
  -5   3 -11    2.08    1.16
  -5   3 -11    1.93    1.19
   5   3  11    2.57    1.15
   6  -3  11    2.91    1.44
  -6  -3 -11    6.42    1.33
  -6  -3 -11    5.28    1.44
  -6  -3 -11    7.03    1.22
   6   3  11    6.52    1.45
  -6   3 -11    5.93    1.34
  -6   3 -11    7.98    1.35
  -6   3 -11    5.52    1.40
   7  -3  11   -1.12    1.71
  -7  -3 -11    0.72    1.68
  -7  -3 -11    0.92    1.73
   7   3  11   -1.23    1.76
  -7   3 -11   -0.58    1.72
  -7   3 -11   -0.11    1.58
  -6  -4  11   -0.01    0.99
   6  -4 -11   -0.40    1.18
  -6  -4  11    0.61    1.14
  -6   4  11   -0.32    0.94
   6   4 -11    1.44    1.40
  -6   4  11    3.32    1.50
   6   4 -11    0.80    1.15
   5  -4 -11    0.69    0.98
  -5  -4  11    0.12    0.84
  -5  -4  11    0.37    0.98
   5   4 -11    0.30    0.89
  -5   4  11    0.07    1.12
   5   4 -11    0.73    1.14
  -5   4  11   -0.97    0.84
  -4  -4  11    3.15    0.95
   4  -4 -11    2.20    0.96
  -4   4  11    1.13    0.82
   4   4 -11    2.69    1.08
   4   4 -11    2.99    1.12
  -4   4  11    2.14    0.96
  -3  -4  11    0.96    0.71
   3  -4 -11    2.12    0.83
  -3  -4  11    1.73    0.79
   3   4 -11    1.75    0.88
   3   4 -11    1.18    0.48
  -3   4  11    1.21    0.93
   3   4 -11    1.13    0.82
  -2  -4  11    5.48    0.87
   2  -4 -11    6.52    0.97
  -2  -4  11    6.82    1.01
   2   4 -11    5.29    0.96
   2   4 -11    5.55    0.94
   2   4 -11    6.79    0.91
  -2   4  11    6.46    0.98
  -2   4  11    8.04    0.72
   1  -4 -11    8.41    1.01
  -1  -4  11    7.71    0.91
  -1  -4  11    7.25    1.05
   1   4 -11    7.88    0.96
   1   4 -11    7.45    1.06
  -1   4  11    7.05    0.59
  -1   4  11    5.74    0.89
   1   4 -11    6.37    1.06
   0  -4 -11   -0.24    0.65
   0  -4  11    0.34    0.71
   0   4 -11   -0.16    0.70
   0   4  11   -0.27    0.73
   0   4 -11   -0.23    0.77
   1  -4  11   -0.01    0.73
  -1  -4 -11   -0.23    0.64
   1  -4  11    0.12    0.75
   1   4  11    0.36    0.66
  -1   4 -11   -0.52    0.61
  -1   4 -11    0.12    0.73
   2  -4  11    4.13    0.89
   2  -4  11    4.08    0.97
  -2  -4 -11    2.73    0.72
   2  -4  11    5.42    0.48
  -2   4 -11    4.25    0.49
  -2   4 -11    3.21    0.73
   2   4  11    3.14    0.95
  -2   4 -11    5.34    1.02
   3  -4  11    3.11    1.00
   3  -4  11    4.61    1.06
  -3  -4 -11    3.15    0.83
  -3   4 -11    4.33    0.89
  -3   4 -11    3.22    1.07
  -3   4 -11    2.94    0.84
   3   4  11    3.51    1.04
  -4  -4 -11    1.68    0.92
  -4  -4 -11    1.89    0.86
   4  -4  11    2.49    1.03
   4  -4  11    2.21    1.10
  -4   4 -11    1.40    1.13
   4   4  11    1.25    1.14
  -4   4 -11    0.67    1.01
  -4   4 -11    2.05    0.97
  -5  -4 -11    0.11    1.15
   5  -4  11    2.06    1.01
  -5  -4 -11    3.07    1.09
   5  -4  11    1.93    1.34
  -5   4 -11    2.77    1.23
  -5   4 -11    2.80    1.29
  -5   4 -11   -0.16    0.86
   6  -4  11    0.33    1.65
  -6  -4 -11    0.45    1.32
  -6  -4 -11    0.06    1.41
  -6   4 -11   -1.33    1.50
  -6   4 -11    0.70    1.11
   5  -5 -11    1.12    1.14
  -5  -5  11    0.58    1.15
  -5  -5  11    2.01    1.19
   5   5 -11    1.22    1.33
  -5   5  11    1.88    1.19
  -5   5  11    1.82    1.34
   5   5 -11    1.32    1.37
  -4  -5  11    4.58    1.10
  -4  -5  11    6.84    1.19
   4  -5 -11    5.30    1.17
   4   5 -11    4.36    1.25
   4   5 -11    5.74    1.41
  -4   5  11    4.32    0.92
  -4   5  11    7.55    1.41
  -3  -5  11    0.47    0.81
   3  -5 -11   -0.20    0.94
  -3  -5  11   -1.03    0.99
   3   5 -11    0.28    0.95
   3   5 -11    0.01    1.10
   3   5 -11   -0.99    1.05
  -3   5  11   -0.56    0.84
  -2  -5  11    1.04    0.96
  -2  -5  11    1.09    0.92
   2  -5 -11    0.32    0.88
   2   5 -11    1.13    1.09
   2   5 -11   -0.34    0.85
  -2   5  11    1.10    0.90
   2   5 -11    0.79    0.92
  -1  -5  11    6.16    1.08
  -1  -5  11    5.30    1.05
   1  -5 -11    4.20    0.93
   1   5 -11    5.28    1.03
   1   5 -11    4.22    0.96
  -1   5  11    5.50    1.13
   1   5 -11    4.31    0.89
   0  -5 -11   14.82    1.51
   0  -5  11    9.58    1.21
   0  -5  11   15.07    1.47
   0   5 -11   11.72    1.31
   0   5 -11   13.86    1.39
   0   5 -11    8.80    1.08
   0   5  11   11.42    1.21
  -1  -5 -11    0.61    0.82
   1  -5  11    0.20    0.91
   1  -5  11   -0.65    0.89
  -1   5 -11    0.35    0.96
   1   5  11    0.96    0.83
  -1   5 -11   -0.10    0.97
   2  -5  11   -0.73    0.93
   2  -5  11   -0.77    1.01
  -2  -5 -11    1.17    0.83
   2  -5  11    0.65    0.87
  -2   5 -11    0.68    0.46
  -2   5 -11   -0.90    0.79
   2   5  11    0.89    0.88
  -2   5 -11    0.64    1.09
   3  -5  11   14.40    1.62
   3  -5  11   13.89    1.38
  -3  -5 -11   12.57    1.26
   3  -5  11    8.90    1.43
   3   5  11    9.27    1.34
  -3   5 -11   12.91    1.27
  -3   5 -11   12.56    1.57
   4  -5  11    8.87    1.49
   4  -5  11    7.33    1.41
  -4  -5 -11    7.56    1.23
  -4   5 -11    8.47    1.38
  -4   5 -11    6.16    1.60
   4   5  11    6.65    1.29
  -5  -5 -11   -1.18    1.20
   5  -5  11    0.02    1.32
   5  -5  11    0.17    1.55
   5   5  11    0.60    1.38
  -5   5 -11    0.19    1.49
  -5   5 -11   -2.67    1.73
  -4  -6  11    1.02    1.32
  -4  -6  11    0.99    1.30
   4  -6 -11   -0.11    1.22
  -4   6  11   -0.32    1.18
   4   6 -11    0.16    1.66
   4   6 -11    1.12    1.52
  -4   6  11    0.75    1.12
  -3  -6  11    5.88    1.51
  -3  -6  11    5.95    1.39
   3  -6 -11    8.88    1.55
  -3   6  11    7.22    1.39
   3   6 -11    7.46    1.54
   3   6 -11    7.58    1.70
  -2  -6  11    0.41    1.15
   2  -6 -11   -0.27    1.00
  -2  -6  11   -0.76    1.25
   2   6 -11   -0.09    1.18
   2   6 -11    1.01    1.37
   2   6 -11    1.26    1.27
   2   6 -11    1.74    1.41
  -2   6  11    1.24    1.08
   1  -6 -11   10.40    1.44
  -1  -6  11    9.39    1.43
   1   6 -11    9.12    1.31
  -1   6  11   10.82    1.42
   1   6 -11    9.75    1.37
   1   6 -11   10.19    1.49
   0  -6  11    0.72    1.19
   0  -6 -11    1.37    1.05
   0  -6  11   -0.43    0.91
   0   6 -11    0.92    1.22
   0   6  11   -0.06    0.89
   0   6 -11    0.16    0.97
   0   6 -11    1.41    1.28
   1  -6  11    6.28    1.34
   1  -6  11    6.02    1.39
   1  -6  11    5.36    1.24
  -1  -6 -11    5.68    1.18
   1   6  11    7.43    1.36
  -1   6 -11    6.97    1.51
  -1   6 -11    9.91    1.58
   2  -6  11    5.11    1.29
  -2  -6 -11    4.59    1.20
   2  -6  11    3.78    1.32
   2  -6  11    6.02    1.48
  -2   6 -11    4.32    1.65
   2   6  11    3.83    1.29
  -2   6 -11    1.57    1.16
   3  -6  11    2.42    1.31
  -3  -6 -11    3.73    1.19
   3  -6  11    2.69    1.33
   3  -6  11    3.35    1.57
   3   6  11    3.73    1.27
   3   6  11    3.31    1.24
  -3   6 -11    2.42    1.71
  -3   6 -11    8.76    1.72
  -8   0  12   13.52    1.78
   8   0 -12   12.89    3.14
  -8   0  12   13.31    1.74
  -7   0  12   35.34    2.41
   7   0 -12   38.18    2.87
  -7   0  12   34.76    2.53
   6   0 -12   12.82    1.44
  -6   0  12   13.50    1.29
  -6   0  12   12.16    1.22
   6   0 -12   15.39    1.37
   5   0 -12    2.82    0.92
   5   0 -12    2.71    0.88
  -5   0  12    4.20    0.79
  -5   0  12    4.54    0.80
   4   0 -12   92.64    4.29
  -4   0  12   85.94    4.21
   4   0 -12   90.82    4.39
  -3   0  12   84.58    4.04
   3   0 -12   88.76    4.17
   3   0 -12   87.32    4.11
   3   0 -12   88.06    4.21
  -3   0  12   84.70    3.94
  -3   0  12   90.55    3.96
  -2   0  12  214.53    9.78
   2   0 -12  220.30    9.95
   2   0 -12  220.84    9.93
   2   0 -12  223.38    9.90
  -2   0  12  227.91    9.77
  -1   0  12   65.88    2.91
  -1   0  12   61.89    2.85
   1   0 -12   65.13    3.07
  -1   0  12   62.64    2.92
   1   0 -12   61.87    3.10
   1   0 -12   59.81    3.08
   0   0 -12  170.88    8.01
   0   0  12  187.29    7.84
   0   0  12  182.66    7.82
   0   0  12  173.76    7.85
   0   0  12  169.49    7.95
   0   0 -12  178.29    8.00
   1   0  12  178.81    7.49
  -1   0 -12  164.82    7.71
   1   0  12  166.92    7.55
  -1   0 -12  165.22    7.73
   1   0  12  161.10    7.68
   1   0  12  183.83    7.58
  -2   0 -12   44.82    2.46
  -2   0 -12   49.63    2.51
   2   0  12   48.80    2.22
  -2   0 -12   48.30    2.24
   2   0  12   43.57    2.43
   3   0  12    8.85    0.65
  -3   0 -12    5.81    0.89
  -3   0 -12    6.65    0.77
   3   0  12    8.53    0.96
   4   0  12   88.19    4.41
  -4   0 -12   90.08    4.35
  -5   0 -12   19.42    1.68
  -5   0 -12   18.77    1.71
   5   0  12   19.03    1.87
  -6   0 -12    2.17    1.22
  -6   0 -12    4.06    0.54
   6   0  12    1.85    1.04
  -6   0 -12    2.06    1.00
  -7   0 -12    1.75    1.61
  -7   0 -12    0.39    1.19
   7   0  12    2.38    1.52
  -7  -1  12   11.60    1.42
  -7  -1  12   11.32    1.50
   7  -1 -12   15.06    1.73
   7   1 -12   13.54    1.60
  -7   1  12    8.67    1.36
  -7   1  12   11.87    1.29
   7   1 -12   12.12    1.81
  -6  -1  12    2.61    0.96
  -6  -1  12    3.43    0.92
   6  -1 -12    2.96    1.11
   6   1 -12    4.97    1.15
  -6   1  12    2.84    0.93
   6   1 -12    2.64    1.04
  -6   1  12    2.94    0.89
  -5  -1  12   10.03    0.94
  -5  -1  12    7.57    1.02
   5  -1 -12    8.93    1.15
   5   1 -12   10.26    1.14
   5   1 -12    8.01    1.08
  -5   1  12    8.65    1.00
  -5   1  12    9.75    1.04
   4  -1 -12    0.55    0.71
   4  -1 -12   -0.22    0.55
  -4  -1  12    0.17    0.64
  -4  -1  12    0.33    0.31
   4  -1 -12    0.55    0.73
   4   1 -12    0.70    0.68
  -4   1  12   -0.66    0.31
   4   1 -12   -0.59    0.66
  -4   1  12    0.05    0.58
   3  -1 -12   60.87    2.97
  -3  -1  12   62.09    2.75
  -3  -1  12   58.64    2.85
  -3  -1  12   55.22    2.94
   3  -1 -12   59.78    2.93
   3  -1 -12   57.39    2.93
  -3  -1  12   59.76    2.66
  -3   1  12   55.32    2.84
   3   1 -12   58.80    2.97
   3   1 -12   58.67    2.76
  -3   1  12   58.04    2.73
   3   1 -12   54.98    2.99
   2  -1 -12   27.86    1.62
   2  -1 -12   25.74    1.55
   2  -1 -12   26.86    1.63
  -2  -1  12   24.95    1.26
   2  -1 -12   26.43    1.62
  -2  -1  12   23.31    1.51
  -2  -1  12   26.59    1.31
   2   1 -12   26.91    1.65
   2   1 -12   24.93    1.59
  -1  -1  12   83.30    3.78
  -1  -1  12   79.66    3.87
  -1  -1  12   84.12    3.81
  -1  -1  12   82.65    3.72
   1  -1 -12   84.82    3.97
  -1   1  12   82.25    3.78
   1   1 -12   82.40    3.97
   1   1 -12   83.72    3.91
  -1   1  12   83.00    3.75
   1   1 -12   84.36    4.00
   0  -1  12   47.99    2.02
   0  -1  12   42.63    2.31
   0  -1 -12   42.80    2.11
   0  -1  12   41.14    2.15
   0  -1  12   43.93    2.03
   0  -1 -12   43.94    2.34
   0   1  12   47.96    2.09
   0   1  12   45.86    2.13
   0   1  12   44.82    2.05
   0   1 -12   44.39    2.31
   0   1 -12   43.84    2.33
   1  -1  12    2.59    0.59
  -1  -1 -12    2.78    0.33
   1  -1  12    1.59    0.32
  -1  -1 -12    2.67    0.55
  -1   1 -12    3.63    0.83
  -1   1 -12    2.42    0.50
  -1   1 -12    2.20    0.63
   1   1  12    3.77    0.67
  -2  -1 -12   26.01    1.23
   2  -1  12   24.64    1.66
  -2  -1 -12   24.77    1.68
  -2   1 -12   24.99    1.60
   2   1  12   25.72    1.62
  -2   1 -12   24.75    1.65
  -3  -1 -12   25.29    1.79
   3  -1  12   25.82    1.67
   3  -1  12   25.01    1.71
  -3  -1 -12   29.81    1.32
  -3   1 -12   26.59    1.62
  -3   1 -12   25.15    1.74
   3   1  12   27.70    1.78
  -3   1 -12   24.93    1.77
  -4  -1 -12    6.46    0.51
   4  -1  12    6.68    1.00
   4  -1  12    7.26    0.93
  -4  -1 -12    5.77    0.97
  -4  -1 -12    7.93    0.66
   4   1  12    5.39    0.99
  -4   1 -12    7.32    0.92
  -4   1 -12    6.49    1.02
  -5  -1 -12    1.21    0.90
   5  -1  12    2.25    0.98
   5   1  12    1.91    1.01
  -5   1 -12    1.45    0.88
  -5   1 -12    1.49    0.78
  -6  -1 -12    4.84    1.58
   6  -1  12    2.05    1.17
  -6  -1 -12    3.99    1.25
   6   1  12    4.94    1.36
  -6   1 -12    4.96    1.19
  -6   1 -12    3.74    1.31
  -7  -1 -12    2.94    1.57
   7  -1  12    3.60    1.67
  -7  -1 -12    3.02    1.51
   7   1  12    1.19    1.31
  -7   1 -12    1.46    1.25
  -7   1 -12    2.06    1.33
  -7  -2  12    3.57    1.33
  -7  -2  12    3.16    1.18
   7  -2 -12    3.10    1.55
  -7   2  12    1.98    1.15
   7   2 -12    3.71    1.56
  -7   2  12    3.19    1.15
   7   2 -12    2.81    1.44
   6  -2 -12   33.81    2.53
  -6  -2  12   28.00    2.14
  -6  -2  12   30.08    2.14
  -6   2  12   31.38    2.21
   6   2 -12   33.68    2.51
  -6   2  12   31.44    2.16
   6   2 -12   29.57    2.34
   5  -2 -12   18.67    1.78
  -5  -2  12   15.57    1.54
   5  -2 -12   15.59    1.54
  -5  -2  12   17.90    1.57
  -5  -2  12   14.47    1.05
  -5   2  12   17.23    1.55
  -5   2  12   15.55    1.57
   5   2 -12   15.41    1.61
   5   2 -12   17.14    1.75
   4  -2 -12   16.88    1.52
  -4  -2  12   14.94    1.38
   4  -2 -12   16.38    1.44
  -4  -2  12   14.67    1.44
  -4   2  12   15.23    1.37
   4   2 -12   15.23    1.47
  -4   2  12   21.83    1.37
  -4   2  12   15.99    1.40
   4   2 -12   16.96    0.93
   4   2 -12   15.13    1.54
   3  -2 -12   -0.35    0.64
  -3  -2  12   -0.10    0.58
   3  -2 -12    0.37    0.61
  -3  -2  12   -0.41    0.65
  -3   2  12    0.23    0.60
  -3   2  12   -0.15    0.64
   3   2 -12    0.82    0.27
   3   2 -12   -0.04    0.72
   3   2 -12    0.88    0.63
  -2  -2  12  157.56    7.28
   2  -2 -12  163.58    7.36
  -2  -2  12  158.87    7.37
  -2  -2  12  160.94    7.19
   2   2 -12  165.79    7.45
   2   2 -12  164.61    7.42
  -2   2  12  161.99    7.33
   1  -2 -12   67.83    3.23
  -1  -2  12   69.40    3.15
  -1  -2  12   64.39    3.24
   1  -2 -12   68.54    3.32
  -1  -2  12   64.89    3.04
   1   2 -12   65.88    3.23
   1   2 -12   66.46    3.36
  -1   2  12   68.41    3.06
   1   2 -12   64.10    3.30
   0  -2  12   14.42    1.25
   0  -2  12   17.61    0.87
   0  -2  12   14.21    1.19
   0  -2 -12   14.66    1.31
   0  -2  12   16.41    0.87
   0  -2 -12   15.25    1.15
   0   2 -12   16.26    1.25
   0   2  12   17.48    0.93
   0   2 -12   15.79    1.28
  -1  -2 -12    2.26    0.65
   1  -2  12    2.91    0.73
   1  -2  12    2.15    0.65
  -1   2 -12    2.51    0.64
   1   2  12    5.10    0.35
   1   2  12    5.42    0.50
  -1   2 -12    2.23    0.65
   2  -2  12   63.21    3.15
  -2  -2 -12   66.99    2.93
   2  -2  12   66.24    3.24
  -2  -2 -12   63.05    3.21
   2   2  12   61.01    3.14
   2   2  12   65.27    2.86
  -2   2 -12   62.08    3.21
  -2   2 -12   61.66    2.90
  -2   2 -12   59.96    3.18
  -3  -2 -12   15.91    1.51
  -3  -2 -12   15.42    0.88
   3  -2  12   14.06    1.39
   3  -2  12   16.16    1.43
  -3   2 -12   15.08    1.21
  -3   2 -12   16.08    1.50
  -3   2 -12   14.15    1.37
   3   2  12   15.50    1.47
  -4  -2 -12   10.41    0.66
   4  -2  12    8.01    1.07
  -4  -2 -12    8.67    1.22
   4  -2  12    8.63    1.16
  -4   2 -12    8.94    1.00
   4   2  12    8.19    1.18
  -4   2 -12    6.62    1.04
  -4   2 -12   10.14    1.16
  -5  -2 -12    0.20    0.98
  -5  -2 -12    0.18    0.87
   5  -2  12   -0.42    0.95
  -5   2 -12   -1.24    0.85
  -5   2 -12   -0.47    0.87
   5   2  12    0.38    0.99
   6  -2  12   14.23    1.69
  -6  -2 -12   17.81    1.80
  -6  -2 -12   18.32    1.52
  -6  -2 -12   14.14    1.01
  -6   2 -12   14.05    1.59
  -6   2 -12   15.93    1.14
  -6   2 -12   14.45    1.71
   6   2  12   13.08    1.61
  -7  -2 -12   -0.55    1.52
  -7  -2 -12    1.38    1.75
   7  -2  12    1.66    1.73
   7   2  12    0.09    1.44
  -7   2 -12    0.62    1.46
  -7   2 -12    0.79    1.32
   7  -3 -12    3.81    1.88
  -7  -3  12    1.99    1.21
  -7  -3  12    3.15    2.07
   7   3 -12    1.52    1.85
  -7   3  12    1.47    1.09
   7   3 -12    2.69    1.50
   6  -3 -12    8.08    1.60
   6  -3 -12    5.16    1.21
  -6  -3  12    6.67    1.27
  -6  -3  12    5.98    1.19
   6   3 -12    6.76    1.27
   6   3 -12    4.58    1.44
  -6   3  12    6.49    1.15
  -6   3  12    6.53    1.40
   5  -3 -12    5.45    1.19
  -5  -3  12    4.95    1.11
   5  -3 -12    6.57    1.15
  -5  -3  12    6.65    1.10
   5   3 -12    6.31    1.16
  -5   3  12    6.06    1.05
   5   3 -12    7.31    1.34
  -5   3  12    5.84    1.15
  -4  -3  12    5.91    0.90
   4  -3 -12    7.72    1.06
  -4  -3  12    6.07    1.00
   4  -3 -12    6.66    1.06
  -4   3  12    7.95    1.12
   4   3 -12    7.10    1.07
   4   3 -12    6.38    1.09
  -4   3  12    5.24    0.94
  -3  -3  12   13.66    1.34
  -3  -3  12   12.50    1.33
   3  -3 -12   13.49    1.40
   3   3 -12   15.17    1.50
   3   3 -12   13.50    0.89
  -3   3  12   13.53    1.41
   3   3 -12   13.77    1.46
  -2  -3  12    9.03    0.91
   2  -3 -12   12.47    1.21
  -2  -3  12    8.45    1.03
   2   3 -12   12.38    1.21
   2   3 -12   11.83    1.25
   2   3 -12    9.37    0.94
  -2   3  12   11.83    1.12
   1  -3 -12   15.88    1.34
  -1  -3  12   15.76    1.31
  -1  -3  12   15.73    1.02
  -1   3  12   18.48    1.05
   1   3 -12   16.89    1.32
  -1   3  12   13.97    1.35
   1   3 -12   12.98    1.47
   1   3 -12   14.44    1.40
   0  -3  12   24.67    1.65
   0  -3 -12   24.12    1.55
   0  -3  12   26.68    1.26
   0   3 -12   21.25    1.43
   0   3 -12   26.55    1.73
   0   3 -12   21.76    1.60
   1  -3  12    7.57    0.92
   1  -3  12   10.64    1.06
  -1  -3 -12    9.30    0.91
  -1  -3 -12    8.02    1.04
  -1   3 -12    7.98    0.77
   1   3  12    8.89    0.73
  -1   3 -12    9.00    0.98
  -1   3 -12    9.00    1.04
  -2  -3 -12    3.47    0.95
  -2  -3 -12    5.20    0.75
   2  -3  12    4.37    0.93
   2  -3  12    3.06    0.79
   2   3  12    4.10    0.86
  -2   3 -12    5.39    1.00
  -2   3 -12    3.74    0.87
  -2   3 -12    4.04    0.45
  -2   3 -12    3.43    0.48
   3  -3  12    6.26    1.03
   3  -3  12    4.72    0.98
  -3  -3 -12    5.58    0.83
  -3  -3 -12    5.47    1.04
  -3   3 -12    5.93    0.54
  -3   3 -12    6.01    0.98
  -3   3 -12    6.95    1.13
   3   3  12    4.57    1.01
  -3   3 -12    5.75    0.85
   4  -3  12    2.28    0.96
   4  -3  12    3.44    1.01
  -4  -3 -12    2.83    1.10
  -4  -3 -12    2.48    0.82
   4   3  12    3.33    1.10
  -4   3 -12    2.43    0.91
  -4   3 -12    3.66    1.07
  -4   3 -12    3.21    1.05
  -5  -3 -12    5.31    1.02
  -5  -3 -12    6.43    1.41
  -5  -3 -12    7.18    1.14
   5  -3  12    6.23    1.45
   5  -3  12    6.47    1.19
  -5   3 -12    9.58    0.92
  -5   3 -12    5.53    1.17
   5   3  12    3.20    1.29
  -5   3 -12    6.77    1.39
  -6  -3 -12    0.22    1.14
   6  -3  12   -0.89    1.35
  -6  -3 -12    0.60    1.28
  -6  -3 -12    0.24    1.46
   6   3  12   -0.54    1.28
  -6   3 -12   -0.52    1.32
  -6   3 -12    1.33    1.35
  -6  -4  12    1.61    1.44
   6  -4 -12    1.77    1.41
  -6  -4  12    1.58    1.23
   6   4 -12    2.84    1.35
   6   4 -12    2.66    1.66
  -6   4  12    2.03    1.07
  -6   4  12    1.95    1.62
   5  -4 -12    5.21    1.11
  -5  -4  12    6.66    1.26
  -5  -4  12    5.18    1.18
   5   4 -12    8.92    1.41
   5   4 -12    8.20    1.47
  -5   4  12    7.82    1.47
  -5   4  12    6.39    1.11
  -4  -4  12   35.32    2.24
   4  -4 -12   32.02    2.30
  -4  -4  12   33.57    2.26
   4   4 -12   34.80    2.52
  -4   4  12   32.39    2.35
  -4   4  12   30.44    2.16
   4   4 -12   32.60    2.39
  -3  -4  12   21.36    1.72
  -3  -4  12   21.69    1.77
   3  -4 -12   22.98    1.79
   3   4 -12   26.48    1.91
   3   4 -12   23.00    1.93
  -3   4  12   21.65    1.86
  -2  -4  12    7.86    1.07
   2  -4 -12    8.21    1.08
  -2  -4  12    6.59    0.95
   2   4 -12    5.16    0.91
   2   4 -12    4.94    0.97
   2   4 -12    5.42    1.04
  -2   4  12    6.70    1.07
   1  -4 -12    4.39    0.83
  -1  -4  12    4.56    0.84
  -1  -4  12    4.78    0.87
   1   4 -12    4.94    1.04
  -1   4  12    4.26    0.87
   1   4 -12    5.44    0.90
   1   4 -12    4.97    1.02
  -1   4  12    6.65    0.71
   0  -4  12   61.14    3.25
   0  -4 -12   62.50    3.17
   0   4  12   57.55    3.25
   0   4 -12   62.03    3.21
   0   4  12   65.17    3.00
   0   4 -12   64.53    3.34
  -1  -4 -12   24.04    1.66
   1  -4  12   23.64    1.84
   1  -4  12   22.18    1.74
  -1   4 -12   23.02    1.66
  -1   4 -12   23.69    1.90
   1   4  12   20.98    1.68
   2  -4  12    5.49    1.06
   2  -4  12    8.84    1.18
   2  -4  12    7.27    0.67
  -2  -4 -12    5.56    0.90
   2   4  12    7.15    1.08
  -2   4 -12    5.80    0.55
  -2   4 -12    4.15    0.84
  -2   4 -12    5.97    1.07
   3  -4  12   -0.08    0.86
   3  -4  12   -0.65    0.87
  -3  -4 -12    0.37    0.78
  -3   4 -12   -0.14    1.04
  -3   4 -12   -0.03    0.88
  -3   4 -12    0.76    0.95
   3   4  12    0.02    1.02
  -4  -4 -12   21.82    1.88
   4  -4  12   21.16    2.03
   4  -4  12   19.86    2.09
  -4   4 -12   21.73    2.32
  -4   4 -12   21.58    2.01
  -4   4 -12   23.49    1.96
   4   4  12   22.13    2.34
   5  -4  12    2.00    1.40
  -5  -4 -12    2.26    1.14
   5  -4  12    1.73    1.15
  -5  -4 -12    2.42    1.23
   5   4  12    1.88    1.49
  -5   4 -12    2.79    1.48
  -5   4 -12    1.49    0.97
  -5   4 -12    1.36    1.30
   6  -4  12    9.00    1.99
  -6  -4 -12    6.13    1.52
  -6  -4 -12    4.74    1.62
  -6   4 -12    7.05    2.12
  -6   4 -12    5.68    1.83
  -5  -5  12    5.41    2.62
  -5  -5  12    6.02    1.45
   5   5 -12    3.41    1.63
  -5   5  12    5.95    1.59
   5   5 -12    5.37    1.49
  -4  -5  12    2.62    1.17
  -4  -5  12    2.24    1.24
   4  -5 -12    2.23    1.14
  -4   5  12    0.54    0.98
   4   5 -12   -0.59    1.22
  -4   5  12    1.06    1.16
   4   5 -12    1.27    1.32
  -3  -5  12    3.00    1.17
  -3  -5  12    3.63    1.04
   3  -5 -12    1.75    0.92
   3   5 -12    4.29    1.13
   3   5 -12    2.85    1.07
  -3   5  12    1.92    1.16
   3   5 -12    2.87    1.17
  -2  -5  12    0.24    1.01
   2  -5 -12   -0.70    0.79
  -2  -5  12   -0.42    0.88
   2   5 -12    1.00    1.15
  -2   5  12    0.81    0.90
   2   5 -12   -0.96    0.93
   2   5 -12   -0.29    0.89
  -1  -5  12    1.33    0.98
   1  -5 -12    2.11    0.90
  -1  -5  12    2.78    1.03
   1   5 -12    2.47    1.06
   1   5 -12    1.61    0.93
  -1   5  12    1.32    1.04
   0  -5  12    2.33    1.00
   0  -5  12    1.81    1.04
   0  -5 -12    1.24    0.84
   0   5 -12    2.29    1.04
   0   5  12    1.06    0.87
   0   5 -12    1.24    0.82
   1  -5  12    4.75    1.14
   1  -5  12    5.69    1.10
  -1  -5 -12    4.94    1.04
  -1   5 -12    4.90    1.22
  -1   5 -12    5.09    1.11
   1   5  12    5.48    1.08
  -2  -5 -12    0.43    0.90
   2  -5  12    2.00    1.17
   2  -5  12    2.61    1.13
   2  -5  12    0.42    0.89
  -2   5 -12    1.08    1.23
   2   5  12    0.69    1.11
  -2   5 -12    1.83    0.47
  -2   5 -12   -0.20    0.81
   3  -5  12    1.81    0.50
   3  -5  12    0.26    1.23
  -3  -5 -12    0.00    0.94
   3  -5  12   -0.33    1.02
   3   5  12    1.17    1.16
  -3   5 -12   -0.55    1.12
  -3   5 -12    0.73    1.33
  -3   5 -12   -0.30    0.87
  -4  -5 -12    1.51    1.13
   4  -5  12    0.38    1.26
   4  -5  12    1.76    1.22
  -4   5 -12    0.92    1.63
  -4   5 -12    2.16    1.51
  -4   5 -12    1.32    1.35
   4   5  12    0.70    1.26
   5  -5  12    2.34    1.57
   5  -5  12    1.06    1.72
  -5  -5 -12   -0.20    1.25
  -5   5 -12    2.77    1.89
  -5   5 -12    1.26    1.88
   5   5  12    1.95    1.54
  -5   5 -12   -1.43    1.72
  -3  -6  12    0.96    1.36
  -3   6  12    1.75    1.38
   3   6 -12    0.06    1.60
  -2  -6  12   12.75    1.75
  -2  -6  12   17.21    1.78
   2  -6 -12   11.99    1.50
   2   6 -12   14.67    1.69
  -2   6  12   18.65    1.88
   2   6 -12   13.38    1.87
   1  -6 -12    4.69    1.10
  -1  -6  12   10.67    1.51
   1   6 -12    7.47    1.34
   1   6 -12    6.58    1.35
  -1   6  12    7.58    1.34
   0  -6 -12    9.12    1.31
   0  -6  12    8.23    1.39
   0  -6  12    9.71    1.63
   0   6 -12   10.54    1.59
   0   6  12    7.17    1.23
   0   6 -12    8.62    1.31
   0   6 -12    9.40    1.57
   1  -6  12    2.57    1.33
  -1  -6 -12    0.67    1.10
   1  -6  12   -0.13    1.20
   1  -6  12    2.03    1.24
  -1   6 -12    0.64    1.35
  -1   6 -12    1.06    1.50
  -1   6 -12    1.13    1.17
   1   6  12    1.53    1.26
  -2  -6 -12   11.80    1.50
   2  -6  12   12.90    1.60
   2  -6  12   10.45    1.73
   2  -6  12   14.48    1.78
  -2   6 -12    9.10    1.49
   2   6  12   13.09    1.87
  -2   6 -12   15.39    1.95
   3  -6  12    6.97    1.64
  -3  -6 -12    6.34    1.48
   3  -6  12    7.01    1.80
  -3   6 -12    9.24    2.18
   7   0 -13   -1.08    1.20
  -7   0  13    0.48    1.20
  -7   0  13    0.10    1.05
   6   0 -13    0.45    0.98
  -6   0  13   -0.07    0.83
  -6   0  13   -0.44    0.95
   6   0 -13    0.35    1.05
   5   0 -13    0.70    0.84
   5   0 -13    0.66    0.86
  -5   0  13   -0.68    0.69
  -5   0  13   -0.14    0.73
  -4   0  13    0.27    0.60
   4   0 -13    0.29    0.73
  -4   0  13    0.05    0.60
   4   0 -13    0.05    0.74
   3   0 -13    0.37    0.67
  -3   0  13   -0.55    0.27
  -3   0  13   -0.07    0.54
   3   0 -13   -0.39    0.64
  -3   0  13   -0.02    0.26
   3   0 -13    0.16    0.67
  -2   0  13    0.22    0.53
   2   0 -13   -0.14    0.58
  -2   0  13    0.26    0.23
   2   0 -13    0.16    0.50
   2   0 -13   -0.27    0.60
  -2   0  13   -0.67    0.24
   1   0 -13    0.02    0.58
  -1   0  13   -0.26    0.22
  -1   0  13   -0.12    0.55
   1   0 -13   -0.51    0.55
  -1   0  13   -0.02    0.24
   0   0 -13   -0.39    0.50
   0   0  13    0.36    0.23
   0   0  13   -0.10    0.51
   0   0 -13   -0.21    0.52
  -1   0 -13    0.23    0.65
  -1   0 -13    0.11    0.54
   1   0  13    0.12    0.25
   1   0  13   -0.21    0.54
   2   0  13    0.01    0.58
  -2   0 -13   -0.09    0.56
   2   0  13    0.11    0.26
  -2   0 -13   -0.21    0.47
  -2   0 -13   -0.04    0.61
   3   0  13   -0.36    0.68
  -3   0 -13    0.49    0.79
   3   0  13   -0.27    0.32
  -3   0 -13    0.19    0.61
  -4   0 -13    0.11    0.78
   4   0  13   -0.28    0.79
  -5   0 -13   -0.22    0.90
   5   0  13    0.62    0.96
  -6   0 -13   -0.73    1.08
   6   0  13    0.16    1.16
  -6   0 -13    0.41    1.10
  -7   0 -13    2.26    1.60
   7   0  13    0.47    1.51
  -7   0 -13   -0.52    1.37
  -7  -1  13    6.82    1.28
  -7  -1  13    6.67    1.41
   7  -1 -13    9.63    1.67
  -7   1  13    5.87    1.32
   7   1 -13    5.79    1.49
  -7   1  13    6.17    1.20
   7   1 -13    7.55    1.56
  -6  -1  13    0.06    0.96
   6  -1 -13   -0.74    1.03
  -6  -1  13    0.70    0.92
  -6   1  13    0.48    0.88
  -6   1  13    1.26    0.91
   6   1 -13   -0.41    1.15
   6   1 -13    1.79    1.14
   5  -1 -13    2.00    1.03
  -5  -1  13    3.21    0.79
  -5  -1  13    1.84    0.87
   5   1 -13    2.81    1.01
   5   1 -13    2.63    0.90
  -5   1  13    3.22    0.84
  -5   1  13    2.11    0.79
   4  -1 -13    9.38    1.05
  -4  -1  13    8.61    0.73
  -4  -1  13   11.21    1.04
   4  -1 -13    8.30    1.10
  -4   1  13    8.61    0.91
  -4   1  13    8.69    0.72
   4   1 -13    9.69    1.16
   4   1 -13    8.40    1.02
  -4   1  13   10.01    1.01
  -3  -1  13   13.45    0.80
  -3  -1  13   13.32    1.17
  -3  -1  13   14.13    1.32
   3  -1 -13   14.39    1.33
   3  -1 -13   14.02    1.33
   3  -1 -13   13.25    1.22
   3   1 -13   13.78    1.31
  -3   1  13   14.74    0.88
   3   1 -13   15.17    1.33
  -3   1  13   13.45    1.17
   3   1 -13   14.83    1.21
   2  -1 -13    2.01    0.63
   2  -1 -13    1.34    0.68
   2  -1 -13    2.67    0.71
  -2  -1  13    1.67    0.64
  -2  -1  13    1.82    0.33
   2  -1 -13    1.81    0.64
   2   1 -13    2.38    0.72
   2   1 -13    2.48    0.75
   2   1 -13    2.51    0.69
   1  -1 -13    0.88    0.60
  -1  -1  13    0.80    0.24
  -1  -1  13    2.70    0.55
   1  -1 -13    0.50    0.48
  -1  -1  13    0.34    0.54
   1  -1 -13    0.59    0.51
  -1   1  13    0.39    0.25
   1   1 -13    0.18    0.58
   1   1 -13    0.28    0.58
   1   1 -13    0.50    0.59
   0  -1  13    3.70    0.63
   0  -1 -13    3.20    0.36
   0  -1  13    2.55    0.74
   0  -1  13    4.06    0.42
   0  -1 -13    2.56    0.67
   0   1 -13    3.08    0.71
   0   1  13    3.53    0.35
   0   1 -13    2.84    0.72
  -1  -1 -13    4.07    0.42
  -1  -1 -13    3.90    0.73
   1  -1  13    2.48    0.69
   1   1  13    3.50    0.69
  -1   1 -13    3.68    0.71
   1   1  13    4.04    0.35
  -1   1 -13    3.73    0.85
   2  -1  13   10.76    1.10
   2  -1  13    8.43    0.95
  -2  -1 -13    9.67    0.62
  -2  -1 -13   12.44    1.22
  -2   1 -13   10.53    1.04
   2   1  13   11.86    1.23
  -2   1 -13   10.97    1.13
   3  -1  13    1.71    0.72
  -3  -1 -13    1.65    0.82
  -3  -1 -13    2.18    0.33
   3  -1  13    2.20    0.73
   3   1  13    1.69    0.77
  -3   1 -13    0.41    0.83
  -3   1 -13    1.84    0.82
   4  -1  13    4.36    0.92
   4  -1  13    3.19    0.87
  -4  -1 -13    4.17    0.93
  -4   1 -13    3.74    0.84
   4   1  13    2.79    0.92
  -4   1 -13    6.42    1.16
  -5  -1 -13    0.58    0.94
   5  -1  13    0.69    0.93
  -5   1 -13    1.96    0.93
   5   1  13    1.03    0.97
  -5   1 -13    0.17    0.84
  -6  -1 -13    5.62    1.44
   6  -1  13    3.10    1.39
   6   1  13    4.97    1.29
  -6   1 -13    3.61    1.06
  -6   1 -13    4.85    1.23
   7  -1  13    0.63    1.90
  -7  -1 -13   -0.01    1.67
  -7   1 -13    0.32    1.21
   7   1  13    2.63    1.85
  -7   1 -13   -0.34    1.47
   7  -2 -13   -0.82    1.66
  -7  -2  13    0.17    1.26
  -7  -2  13    1.07    1.18
   7   2 -13    2.08    1.61
  -7   2  13    0.30    1.11
  -7   2  13   -0.32    1.12
  -6  -2  13    5.30    1.11
  -6  -2  13    5.50    1.18
  -6  -2  13    6.46    1.12
   6  -2 -13    5.99    1.42
  -6   2  13    5.31    1.11
   6   2 -13    4.45    1.31
  -6   2  13    4.25    1.12
   6   2 -13    5.15    1.23
  -5  -2  13   -0.49    0.86
  -5  -2  13    1.57    0.89
   5  -2 -13   -0.50    0.98
   5  -2 -13    1.08    0.81
  -5   2  13   -0.05    0.83
  -5   2  13    0.53    0.90
   5   2 -13    0.89    0.93
   5   2 -13    1.49    0.95
  -4  -2  13    1.74    0.83
   4  -2 -13    1.18    0.86
  -4  -2  13    1.80    0.77
   4  -2 -13    1.32    0.73
   4   2 -13    2.21    0.97
  -4   2  13    1.24    0.69
   4   2 -13    0.83    0.80
   4   2 -13    2.60    0.42
  -4   2  13    1.42    0.75
  -3  -2  13    0.49    0.65
   3  -2 -13    0.84    0.77
   3  -2 -13    0.66    0.69
  -3  -2  13    0.64    0.67
  -3   2  13   -0.57    0.65
  -3   2  13    0.78    0.66
   3   2 -13   -0.68    0.69
   3   2 -13    0.43    0.73
   2  -2 -13   44.24    2.35
  -2  -2  13   43.15    2.36
  -2  -2  13   45.68    2.07
   2   2 -13   43.34    2.45
   2   2 -13   45.27    2.32
  -2   2  13   41.48    2.30
   2   2 -13   40.17    2.41
   1  -2 -13    1.49    0.74
  -1  -2  13    1.32    0.32
  -1  -2  13    2.07    0.71
   1  -2 -13    2.16    0.64
   1   2 -13    1.63    0.62
  -1   2  13    1.63    0.33
  -1   2  13    1.84    0.31
   1   2 -13    1.31    0.62
   1   2 -13    1.71    0.75
   0  -2 -13    5.94    0.90
   0  -2 -13    4.59    0.71
   0  -2  13    4.60    0.79
   0  -2  13    6.51    0.87
   0  -2  13    7.61    0.53
   0  -2  13    5.47    0.44
   0   2 -13    7.64    0.96
   0   2  13    6.45    0.55
   0   2 -13    4.66    0.74
   1  -2  13   16.16    0.74
  -1  -2 -13   14.32    1.32
   1  -2  13   12.52    1.33
   1  -2  13   13.42    1.28
   1   2  13   12.01    1.24
   1   2  13   16.28    0.77
  -1   2 -13   14.59    1.31
  -1   2 -13   13.10    1.33
  -2  -2 -13    9.64    0.60
   2  -2  13    7.02    1.01
   2  -2  13    6.84    0.99
  -2   2 -13    6.93    0.97
   2   2  13    6.96    0.94
   2   2  13    8.74    0.54
  -2   2 -13    8.34    1.11
  -3  -2 -13    1.01    0.31
   3  -2  13   -0.60    0.71
  -3  -2 -13    0.51    0.65
   3  -2  13    1.17    0.77
  -3   2 -13    0.12    0.70
   3   2  13    0.22    0.74
  -3   2 -13    1.30    0.66
  -3   2 -13    0.23    0.83
   4  -2  13    3.27    0.93
  -4  -2 -13    4.29    1.09
   4  -2  13    3.24    0.98
  -4  -2 -13    5.20    0.48
  -4   2 -13    4.84    0.90
  -4   2 -13    4.03    1.04
   4   2  13    2.89    1.06
  -4   2 -13    3.59    0.97
  -5  -2 -13    0.99    0.71
  -5  -2 -13    1.55    1.17
   5  -2  13    0.52    1.13
  -5  -2 -13    0.49    0.42
  -5   2 -13    0.31    0.94
   5   2  13    0.19    1.00
  -5   2 -13    0.93    1.15
  -6  -2 -13    0.83    1.37
   6  -2  13    1.40    1.32
  -6  -2 -13    1.38    1.12
   6   2  13    2.41    1.25
  -6   2 -13   -0.35    1.23
  -6   2 -13    2.18    1.25
  -7  -2 -13    0.21    1.94
   7  -2  13   -0.58    1.81
  -7   2 -13   -1.01    1.67
  -7   2 -13    1.79    1.52
   7   2  13    2.06    1.76
   6  -3 -13    0.21    1.48
   6  -3 -13    0.44    1.18
  -6  -3  13   -0.68    0.97
  -6  -3  13    0.56    1.01
  -6   3  13   -0.19    0.91
   6   3 -13   -1.32    1.30
   6   3 -13    0.11    1.11
  -6   3  13    0.65    1.42
  -5  -3  13    7.66    1.19
   5  -3 -13    6.41    1.18
   5  -3 -13    9.14    1.40
  -5  -3  13    6.74    1.10
   5   3 -13    7.51    1.37
  -5   3  13    5.70    1.08
  -5   3  13    8.38    1.26
   5   3 -13    5.97    1.32
  -4  -3  13    7.10    1.03
   4  -3 -13    9.64    1.21
   4  -3 -13    7.11    1.10
  -4  -3  13    4.91    0.98
   4   3 -13    6.86    1.11
  -4   3  13    8.30    1.04
   4   3 -13    5.19    1.10
  -4   3  13    7.77    1.10
  -3  -3  13    4.18    0.89
   3  -3 -13    3.21    0.86
  -3  -3  13    2.23    0.78
   3   3 -13    3.31    0.89
  -3   3  13    3.27    0.84
   3   3 -13    3.59    1.02
   2  -3 -13    1.85    0.78
  -2  -3  13    1.65    0.73
  -2  -3  13    1.41    0.71
  -2  -3  13    2.29    0.72
   2   3 -13    1.37    0.71
   2   3 -13    3.28    0.85
   2   3 -13    2.02    0.84
  -2   3  13    2.63    0.85
   1  -3 -13   59.93    2.91
  -1  -3  13   51.78    2.77
  -1  -3  13   54.49    2.92
  -1   3  13   55.07    2.93
   1   3 -13   56.14    3.01
   1   3 -13   56.85    2.90
   1   3 -13   58.87    3.07
   0  -3  13   26.58    1.74
   0  -3 -13   27.24    1.67
   0  -3  13   26.05    1.81
   0   3 -13   26.25    1.47
   0   3 -13   24.93    1.82
   0   3 -13   23.55    1.72
  -1  -3 -13    1.04    0.81
  -1  -3 -13    0.50    0.63
   1  -3  13    0.63    0.70
   1  -3  13    0.33    0.65
  -1   3 -13   -0.20    0.43
   1   3  13    1.11    0.47
  -1   3 -13    0.51    0.81
  -1   3 -13    0.44    0.69
  -2  -3 -13    1.05    0.70
   2  -3  13    2.05    0.81
   2  -3  13    1.23    0.83
  -2  -3 -13    1.52    0.89
  -2   3 -13    1.76    0.86
  -2   3 -13    1.80    0.35
   2   3  13    1.18    0.82
  -2   3 -13    1.93    0.85
  -3  -3 -13   22.88    1.91
  -3  -3 -13   23.16    1.65
   3  -3  13   23.28    1.88
   3  -3  13   22.99    1.96
   3   3  13   21.84    1.91
  -3   3 -13   22.52    1.89
  -3   3 -13   23.03    1.94
  -3   3 -13   23.74    1.64
   4  -3  13    0.49    0.99
  -4  -3 -13    0.65    1.05
   4  -3  13    1.52    0.99
  -4  -3 -13    0.79    0.90
  -4   3 -13    0.55    0.88
   4   3  13    0.58    1.04
  -4   3 -13   -0.93    0.98
  -4   3 -13   -0.30    1.09
   5  -3  13    1.28    1.16
  -5  -3 -13   -0.23    1.27
  -5  -3 -13   -0.27    1.05
   5  -3  13    0.38    1.20
  -5   3 -13    0.43    1.03
  -5   3 -13   -0.54    1.07
   5   3  13    0.17    1.21
   6  -3  13    1.75    1.74
  -6  -3 -13   -0.65    1.39
  -6  -3 -13    1.19    1.60
   6   3  13    1.08    1.40
  -6   3 -13   -0.87    1.20
  -6   3 -13   -1.34    1.43
  -6  -4  13    4.66    1.49
   6  -4 -13    2.36    1.51
  -6  -4  13    1.99    1.38
   6   4 -13    3.58    1.75
  -6   4  13    6.51    1.74
   6   4 -13    4.75    1.58
  -5  -4  13    1.15    1.20
  -5  -4  13   -0.70    0.98
   5  -4 -13   -0.08    1.03
  -5   4  13   -0.11    0.94
  -5   4  13    0.59    1.26
   5   4 -13    0.01    1.11
   5   4 -13    0.12    1.26
   4  -4 -13    0.25    0.84
  -4  -4  13    1.31    0.98
  -4  -4  13   -0.28    1.02
   4   4 -13    1.05    1.04
   4   4 -13    0.30    1.15
  -4   4  13   -0.09    0.71
  -4   4  13    1.42    1.11
  -3  -4  13   -0.36    0.92
   3  -4 -13    0.81    0.80
  -3  -4  13   -0.07    0.77
  -3   4  13    0.95    0.99
   3   4 -13    1.28    0.91
   3   4 -13    1.81    0.93
   3   4 -13    1.89    0.92
  -2  -4  13   12.14    1.20
   2  -4 -13   10.39    1.20
  -2  -4  13    9.92    1.14
   2   4 -13   10.88    1.33
  -2   4  13   11.06    1.24
   2   4 -13   11.33    1.16
   2   4 -13    6.37    1.05
  -1  -4  13    0.06    0.75
  -1  -4  13    0.05    0.74
   1  -4 -13    0.47    0.80
   1   4 -13    0.82    0.76
   1   4 -13    0.02    0.80
  -1   4  13    0.85    0.76
   0  -4  13    0.62    0.84
   0  -4  13    1.01    0.87
   0  -4 -13    1.67    0.75
   0   4  13    1.62    0.83
   0   4 -13    7.42    1.22
   0   4 -13    2.23    0.81
  -1  -4 -13    0.50    0.74
   1  -4  13    0.32    0.85
   1  -4  13    1.43    0.76
  -1   4 -13    0.51    0.96
  -1   4 -13    0.46    0.92
   1   4  13    0.38    0.81
   2  -4  13    1.59    1.13
  -2  -4 -13    0.64    0.73
   2  -4  13    0.70    0.94
  -2   4 -13    0.29    0.90
  -2   4 -13    0.52    0.36
  -2   4 -13    0.95    0.76
   2   4  13    0.54    0.97
   3  -4  13    4.72    1.26
  -3  -4 -13    4.87    1.04
   3  -4  13    3.86    1.13
  -3   4 -13    2.66    0.86
  -3   4 -13    5.27    1.28
   3   4  13    4.22    1.19
  -3   4 -13    4.20    0.97
  -4  -4 -13    4.16    1.10
   4  -4  13    5.18    1.25
   4  -4  13    3.84    1.29
  -4   4 -13    2.48    1.43
  -4   4 -13    1.56    0.90
  -4   4 -13    2.51    1.17
   4   4  13    3.15    1.40
   5  -4  13    1.36    1.53
   5  -4  13    1.24    1.26
  -5  -4 -13   -0.64    1.23
  -5   4 -13   -0.01    1.45
   5   4  13    0.14    1.55
  -5   4 -13    0.01    1.53
  -5   4 -13    2.35    1.53
   5  -5 -13   -0.51    1.40
  -5  -5  13   -0.37    1.29
  -5  -5  13    0.41    1.37
  -5   5  13    1.01    1.10
   5   5 -13    0.69    1.83
  -5   5  13    1.60    1.64
  -4  -5  13    0.41    1.26
  -4  -5  13    1.85    1.24
   4  -5 -13    0.09    1.22
   4   5 -13    0.77    1.36
  -4   5  13    2.56    1.12
   4   5 -13   -0.26    1.34
  -4   5  13   -0.08    1.21
   3  -5 -13    7.76    1.23
  -3  -5  13    9.15    1.40
  -3  -5  13    9.83    1.37
   3   5 -13    7.72    1.51
   3   5 -13    9.15    1.37
  -3   5  13    8.24    1.37
   3   5 -13    8.48    1.51
  -2  -5  13    0.67    1.08
  -2  -5  13    0.15    0.90
   2  -5 -13    0.29    1.02
   2   5 -13    1.16    1.00
  -2   5  13    1.63    0.92
   2   5 -13    1.73    1.28
   2   5 -13    1.26    1.07
  -1  -5  13    1.85    1.04
   1  -5 -13    1.97    1.04
  -1  -5  13    1.35    0.98
  -1   5  13    0.19    0.93
   1   5 -13    0.36    1.01
   1   5 -13    0.86    0.95
   0  -5  13    0.14    0.91
   0  -5  13    0.52    1.07
   0  -5 -13    0.22    0.85
   0   5 -13   -0.28    0.99
   0   5 -13    1.17    0.98
   0   5  13    1.05    0.94
   1  -5  13    6.05    1.29
   1  -5  13    7.11    1.31
  -1  -5 -13    5.20    1.06
  -1   5 -13    5.86    1.12
  -1   5 -13    6.19    1.34
   1   5  13    5.29    1.09
   2  -5  13   -0.04    1.09
   2  -5  13    0.27    1.15
   2  -5  13   -0.18    0.98
  -2  -5 -13   -0.09    0.87
  -2   5 -13   -0.05    0.89
  -2   5 -13   -0.16    1.17
   2   5  13   -0.73    1.04
  -3  -5 -13    0.15    1.08
   3  -5  13    0.49    1.11
   3  -5  13    1.26    1.31
  -3   5 -13   -0.91    1.51
  -3   5 -13    0.13    1.18
  -3   5 -13   -0.56    1.00
   3   5  13    1.09    1.21
  -4  -5 -13    2.78    1.41
   4  -5  13    6.32    1.73
   4  -5  13    4.48    1.49
  -4   5 -13    4.36    1.64
  -4   5 -13    3.63    1.82
   4   5  13    5.66    1.50
  -4   5 -13    4.48    1.48
  -3  -6  13    0.06    1.50
   3  -6 -13   -0.93    1.17
  -3  -6  13   -0.78    1.34
   3   6 -13   -1.37    1.65
   3   6 -13    1.58    1.69
   2  -6 -13    4.85    1.29
  -2  -6  13    6.28    1.57
  -2   6  13    3.97    1.19
   2   6 -13    6.74    1.54
  -1  -6  13    0.51    1.32
   1  -6 -13    1.19    1.14
  -1   6  13    0.57    1.38
   1   6 -13    0.46    1.28
   1   6 -13   -0.22    1.24
   0  -6  13    9.09    1.47
   0  -6  13    8.78    1.59
   0  -6 -13    6.91    1.26
   0   6  13    9.10    1.57
   0   6 -13    9.66    1.56
   0   6 -13   10.04    1.80
   1  -6  13    0.32    1.43
   1  -6  13    0.77    1.26
  -1  -6 -13    0.66    1.13
   1  -6  13    0.38    1.19
   1   6  13    0.92    1.11
  -1   6 -13    0.19    1.12
  -1   6 -13   -0.59    1.50
   2  -6  13    2.80    1.42
  -2  -6 -13    6.33    1.38
   2  -6  13    7.30    1.78
  -2   6 -13    3.98    1.44
  -2   6 -13    5.26    1.92
   7   0 -14    8.39    1.77
   7   0 -14    6.69    1.62
  -7   0  14    4.49    1.36
  -7   0  14    4.91    1.26
   6   0 -14   52.02    3.13
  -6   0  14   46.74    2.88
  -6   0  14   49.02    2.85
   6   0 -14   52.16    3.13
   5   0 -14    3.39    1.10
   5   0 -14    4.44    1.06
  -5   0  14    3.80    0.85
  -5   0  14    4.51    0.89
   4   0 -14    6.22    1.03
  -4   0  14    6.65    0.83
   4   0 -14    4.40    1.04
  -4   0  14    6.81    0.92
  -3   0  14   19.37    1.31
  -3   0  14   18.69    1.05
   3   0 -14   17.69    1.54
   3   0 -14   17.34    1.46
   3   0 -14   19.39    1.59
  -2   0  14   92.29    4.10
  -2   0  14   89.73    4.27
  -2   0  14   88.07    4.11
   2   0 -14   92.37    4.40
   2   0 -14   93.52    4.35
   2   0 -14   89.66    4.40
   1   0 -14    3.95    0.72
  -1   0  14    4.81    0.46
   1   0 -14    5.22    0.87
  -1   0  14    4.42    0.74
   0   0 -14   10.03    1.03
   0   0  14   10.72    1.15
   0   0 -14   10.16    1.15
   0   0  14   11.18    0.71
  -1   0 -14   11.57    1.15
   1   0  14    8.26    0.98
  -1   0 -14   10.44    1.07
   1   0  14   12.46    0.99
   1   0  14   12.10    0.71
  -2   0 -14   45.83    2.48
   2   0  14   44.85    2.12
   2   0  14   42.33    2.45
  -3   0 -14   18.70    1.18
   3   0  14   19.03    1.63
   3   0  14   16.11    1.05
  -3   0 -14   19.29    1.61
  -4   0 -14    3.24    0.93
   4   0  14    2.51    1.01
  -5   0 -14   15.85    1.79
   5   0  14   14.62    1.50
  -6   0 -14   24.25    2.40
   6   0  14   23.36    2.51
   7   0  14   -0.67    1.64
  -7   0 -14    1.07    1.83
  -7  -1  14   24.04    2.35
   7  -1 -14   25.77    2.86
  -7  -1  14   23.88    2.04
   7   1 -14   28.90    2.33
  -7   1  14   22.40    2.47
   7   1 -14   28.30    2.74
  -7   1  14   26.58    2.28
   6  -1 -14    0.98    1.19
  -6  -1  14   -1.01    0.93
  -6  -1  14   -1.24    0.99
   6   1 -14   -0.10    1.03
  -6   1  14   -0.01    0.98
   6   1 -14    0.36    1.25
  -6   1  14   -0.33    0.91
  -5  -1  14   25.49    2.34
   5  -1 -14   28.18    2.12
  -5  -1  14   26.43    1.94
   5   1 -14   30.11    2.15
  -5   1  14   25.97    1.89
  -5   1  14   24.78    1.89
   5   1 -14   27.83    2.16
  -4  -1  14    1.83    0.83
   4  -1 -14    1.95    0.85
  -4  -1  14    1.89    0.37
  -4  -1  14    2.00    0.78
   4  -1 -14    1.99    0.84
  -4   1  14    0.22    0.46
  -4   1  14    1.33    0.76
  -4   1  14    2.77    0.74
   4   1 -14    1.86    0.86
   4   1 -14    2.51    0.98
   3  -1 -14   35.43    2.10
   3  -1 -14   34.80    2.06
  -3  -1  14   33.25    1.63
   3  -1 -14   34.47    2.13
  -3  -1  14   34.16    1.92
  -3  -1  14   33.75    2.06
   3   1 -14   35.63    2.15
   3   1 -14   35.22    2.15
  -3   1  14   32.98    1.93
   3   1 -14   35.01    1.99
  -3   1  14   33.70    1.91
   2  -1 -14   12.73    1.33
   2  -1 -14   13.97    1.37
  -2  -1  14   13.79    1.26
   2  -1 -14   13.37    1.33
  -2  -1  14   15.91    0.85
   2  -1 -14   13.68    1.25
  -2   1  14   12.80    1.24
   2   1 -14   13.69    1.31
   2   1 -14   15.08    1.28
   2   1 -14   14.07    1.34
   1  -1 -14   62.41    3.09
  -1  -1  14   60.36    2.75
   1  -1 -14   60.43    3.09
  -1  -1  14   58.85    2.97
   1  -1 -14   62.55    2.98
   1   1 -14   61.05    3.06
   1   1 -14   61.63    3.11
  -1   1  14   57.64    2.97
  -1   1  14   59.72    2.79
   0  -1 -14    2.43    0.36
   0  -1 -14    1.20    0.62
   0  -1  14    1.29    0.60
   0  -1  14    1.16    0.65
   0   1  14    1.59    0.64
   0   1  14    1.35    0.33
   0   1 -14    1.80    0.65
   0   1 -14    1.53    0.63
   1  -1  14   39.45    2.30
  -1  -1 -14   44.64    1.96
  -1  -1 -14   39.12    2.30
   1  -1  14   38.82    2.18
   1   1  14   40.77    2.25
  -1   1 -14   43.32    2.39
  -1   1 -14   40.21    2.27
   1   1  14   41.99    1.91
  -2  -1 -14   11.34    1.27
   2  -1  14   13.08    1.21
  -2  -1 -14   11.21    0.69
   2  -1  14   12.65    1.37
  -2   1 -14   13.00    1.40
  -2   1 -14   11.65    1.20
   2   1  14   10.03    1.09
   3  -1  14   23.89    1.71
   3  -1  14   23.34    1.76
  -3  -1 -14   26.62    1.84
   3   1  14   22.65    1.84
  -3   1 -14   24.67    1.79
  -3   1 -14   26.27    1.90
   4  -1  14   22.17    1.79
   4  -1  14   20.66    1.92
  -4  -1 -14   22.06    1.90
  -4   1 -14   24.63    1.84
   4   1  14   22.02    1.94
  -5  -1 -14   23.24    2.14
   5  -1  14   24.57    2.23
   5   1  14   27.27    2.31
  -5   1 -14   23.59    2.10
  -5   1 -14   26.73    2.09
   6  -1  14    3.92    1.52
  -6  -1 -14    3.44    1.33
   6   1  14    3.11    1.43
  -6   1 -14    3.60    1.31
  -6   1 -14    3.60    1.31
   7  -1  14   10.23    2.03
  -7  -1 -14   12.89    2.09
   7   1  14    9.10    1.98
  -7   1 -14    9.79    1.90
  -7   1 -14   12.98    2.00
   7  -2 -14    0.99    1.75
  -7  -2  14    1.45    1.46
  -7  -2  14    1.45    1.62
  -7   2  14    0.83    1.70
   7   2 -14    3.79    1.63
   7   2 -14    2.10    1.80
  -7   2  14    1.04    1.34
  -6  -2  14    5.04    1.18
  -6  -2  14    9.74    1.33
   6  -2 -14    6.68    1.53
  -6   2  14    6.56    1.23
   6   2 -14    5.71    1.42
   6   2 -14    4.32    1.40
  -5  -2  14    8.65    1.26
  -5  -2  14    6.41    1.10
   5  -2 -14    6.81    1.24
   5  -2 -14    5.29    1.06
   5   2 -14    7.07    1.27
  -5   2  14    5.59    1.09
   5   2 -14    5.74    1.12
  -5   2  14    6.47    1.07
  -4  -2  14   10.50    1.10
   4  -2 -14   11.64    1.24
   4  -2 -14   11.00    1.20
  -4  -2  14    9.74    1.26
   4   2 -14   10.23    1.27
   4   2 -14    9.45    1.20
  -4   2  14   11.75    1.13
   4   2 -14   11.97    0.94
  -4   2  14   10.25    1.12
   3  -2 -14    1.07    0.80
  -3  -2  14    0.76    0.72
   3  -2 -14    0.94    0.76
  -3  -2  14    0.49    0.72
   3   2 -14    1.03    0.82
   3   2 -14    1.14    0.77
   3   2 -14    0.55    0.67
  -3   2  14    1.17    0.75
  -3   2  14    1.00    0.71
  -2  -2  14    0.25    0.65
   2  -2 -14    1.29    0.69
  -2  -2  14    0.36    0.66
  -2   2  14    0.85    0.73
   2   2 -14    0.03    0.74
   2   2 -14    0.93    0.72
   2   2 -14    1.83    0.77
   1  -2 -14   49.71    2.71
  -1  -2  14   48.30    2.63
   1  -2 -14   51.83    2.61
  -1  -2  14   50.70    2.34
   1   2 -14   47.01    2.69
  -1   2  14   49.32    2.31
   1   2 -14   51.04    2.76
  -1   2  14   50.37    2.37
   1   2 -14   50.59    2.63
   0  -2  14   12.84    1.36
   0  -2 -14   14.83    1.39
   0  -2 -14   16.48    1.26
   0  -2  14   15.13    1.32
   0   2 -14   13.93    1.40
   0   2 -14   15.23    1.33
   1  -2  14    2.43    0.73
  -1  -2 -14    1.57    0.62
  -1  -2 -14    1.92    0.63
   1  -2  14    2.85    0.80
   1   2  14    1.67    0.73
  -1   2 -14    2.11    0.77
  -1   2 -14    2.48    0.83
   2  -2  14    0.85    0.75
   2  -2  14    0.42    0.80
  -2  -2 -14    0.57    0.38
  -2  -2 -14    0.59    0.60
  -2   2 -14    1.31    0.88
  -2   2 -14    2.04    0.78
   2   2  14    0.63    0.80
  -3  -2 -14   52.55    2.93
  -3  -2 -14   56.86    2.48
   3  -2  14   48.86    2.93
   3  -2  14   50.09    2.86
   3   2  14   55.82    2.41
  -3   2 -14   51.18    2.92
  -3   2 -14   52.01    2.95
   3   2  14   50.09    2.92
   4  -2  14   14.65    1.43
  -4  -2 -14   12.99    1.39
   4  -2  14   12.22    1.39
  -4  -2 -14   13.27    0.87
  -4   2 -14   13.79    1.24
  -4   2 -14   14.11    1.45
  -4   2 -14   15.57    1.60
   4   2  14   14.58    1.48
  -5  -2 -14    3.80    1.17
   5  -2  14    1.16    1.11
  -5   2 -14    4.55    1.18
   5   2  14    3.10    1.35
  -5   2 -14    2.65    0.91
  -6  -2 -14    2.50    1.49
   6  -2  14    3.62    1.56
   6   2  14    3.62    1.47
  -6   2 -14    5.45    1.48
  -6   2 -14   -0.66    1.27
  -6  -3  14    2.12    1.24
   6  -3 -14    2.12    1.66
   6  -3 -14    1.14    1.16
  -6  -3  14    2.38    1.21
   6   3 -14    5.20    1.65
  -6   3  14    0.43    1.54
  -6   3  14    0.10    1.07
   6   3 -14    0.82    1.39
   5  -3 -14   23.23    2.30
  -5  -3  14   20.38    1.94
   5  -3 -14   21.10    2.01
  -5  -3  14   21.06    1.94
   5   3 -14   22.91    2.07
  -5   3  14   19.45    1.87
  -5   3  14   20.11    2.12
   5   3 -14   22.09    2.29
  -4  -3  14    0.25    0.87
  -4  -3  14    0.87    0.93
   4  -3 -14   -0.30    0.79
  -4   3  14    0.04    0.92
   4   3 -14    0.82    1.11
  -4   3  14    0.03    0.79
   4   3 -14   -0.69    0.92
  -3  -3  14   15.88    1.48
  -3  -3  14   13.89    1.25
   3  -3 -14   11.71    1.31
   3   3 -14   17.67    1.64
  -3   3  14   14.90    1.39
   3   3 -14   14.47    1.63
   3   3 -14   13.96    1.48
   2  -3 -14    2.42    0.77
  -2  -3  14    2.09    0.78
  -2  -3  14    0.98    0.78
   2   3 -14    1.35    0.78
   2   3 -14    1.73    0.93
  -2   3  14    1.03    0.74
   2   3 -14    1.84    0.81
   1  -3 -14   20.10    1.59
  -1  -3  14   20.81    1.59
  -1   3  14   19.69    1.61
   1   3 -14   20.13    1.72
   1   3 -14   22.44    1.55
   0  -3 -14   14.47    1.36
   0  -3  14   12.83    1.23
   0  -3  14   13.78    1.29
   0   3 -14   13.99    1.44
   0   3 -14   12.54    1.41
  -1  -3 -14   21.61    1.82
   1  -3  14   28.14    1.25
   1  -3  14   20.62    1.73
   1  -3  14   19.77    1.71
  -1  -3 -14   24.95    1.63
   1   3  14   22.38    1.74
  -1   3 -14   22.87    1.73
  -1   3 -14   25.01    1.88
   2  -3  14   19.50    1.78
  -2  -3 -14   22.78    1.60
   2  -3  14   21.57    1.83
  -2  -3 -14   23.10    1.88
  -2   3 -14   21.10    1.89
   2   3  14   20.20    1.82
  -2   3 -14   23.00    1.75
  -3  -3 -14   19.25    1.65
   3  -3  14   22.67    1.86
  -3  -3 -14   17.93    1.88
   3  -3  14   19.65    1.84
   3   3  14   17.46    1.92
  -3   3 -14   18.19    2.01
  -3   3 -14   20.29    1.56
  -3   3 -14   20.72    1.79
  -4  -3 -14   20.67    2.12
  -4  -3 -14   19.69    1.74
   4  -3  14   20.21    2.01
   4  -3  14   18.45    2.03
   4   3  14   19.66    2.20
  -4   3 -14   19.34    1.83
  -4   3 -14   20.87    2.27
  -4   3 -14   19.48    2.01
  -5  -3 -14   22.99    2.20
  -5  -3 -14   23.75    2.14
   5  -3  14   21.31    2.25
   5  -3  14   19.21    2.09
  -5   3 -14   32.06    2.63
   5   3  14   23.15    2.59
  -5   3 -14   27.20    2.43
   6  -3  14   11.37    2.39
  -6  -3 -14   10.74    1.97
   6   3  14    8.88    1.88
  -6   3 -14   11.09    1.85
  -5  -4  14   -1.32    1.25
   5  -4 -14    0.12    1.16
  -5  -4  14    1.19    1.17
  -5   4  14    0.52    1.37
  -5   4  14    1.18    1.04
   5   4 -14    0.14    1.33
   5   4 -14   -0.34    1.20
  -4  -4  14    0.78    1.14
   4  -4 -14    1.61    1.09
  -4  -4  14    1.07    1.07
   4   4 -14    1.32    1.07
   4   4 -14    0.00    1.11
  -4   4  14    0.47    0.87
  -4   4  14    1.29    1.23
   3  -4 -14    6.98    1.19
  -3  -4  14    7.35    1.18
  -3  -4  14    7.51    1.16
   3   4 -14    7.97    1.17
   3   4 -14    6.79    1.21
  -3   4  14    7.76    1.35
   3   4 -14    5.71    1.27
  -2  -4  14    3.47    0.90
   2  -4 -14    2.17    0.85
  -2  -4  14    3.79    1.03
  -2   4  14    3.36    1.09
   2   4 -14    3.63    1.25
   2   4 -14    4.33    1.00
  -1  -4  14    1.93    0.91
  -1  -4  14    1.45    0.85
   1  -4 -14    1.76    0.85
  -1   4  14    1.18    0.84
   1   4 -14    1.27    1.05
   1   4 -14    1.11    0.85
   0  -4  14    0.57    0.93
   0  -4 -14   -0.79    0.81
   0  -4  14   -0.47    0.86
   0   4 -14    0.08    0.91
   0   4 -14    0.07    0.81
   0   4  14   -0.53    0.79
  -1  -4 -14   47.37    2.62
   1  -4  14   44.19    2.69
   1  -4  14   48.24    2.83
  -1   4 -14   45.71    2.81
  -1   4 -14   44.80    2.68
   1   4  14   45.61    2.70
   2  -4  14    7.81    1.28
  -2  -4 -14    8.21    1.10
   2  -4  14    9.63    1.39
   2   4  14    9.28    1.30
  -2   4 -14    8.66    1.32
  -2   4 -14    8.90    1.41
   3  -4  14    3.89    1.34
  -3  -4 -14    4.39    1.00
   3  -4  14    3.74    1.16
  -3   4 -14    4.69    1.32
   3   4  14    6.23    1.41
  -3   4 -14    6.31    1.41
  -4  -4 -14    2.60    1.19
   4  -4  14    1.73    1.15
   4  -4  14    0.64    1.31
   4   4  14    2.04    1.51
  -4   4 -14    2.47    1.55
  -4   4 -14    0.79    1.15
  -4   4 -14    1.28    1.17
   5  -4  14   21.90    2.12
  -5  -4 -14   20.56    1.97
   5  -4  14   18.05    2.19
  -5   4 -14   21.88    3.44
  -5   4 -14   20.71    2.03
   5   4  14   19.58    2.22
  -5   4 -14   20.60    2.18
  -4  -5  14    0.22    1.43
  -4   5  14    0.08    0.93
  -4   5  14    0.07    1.31
   4   5 -14    0.73    1.88
   4   5 -14   -1.58    1.33
  -3  -5  14    3.15    1.42
   3  -5 -14    1.21    1.06
  -3  -5  14    2.68    1.26
   3   5 -14    2.92    1.47
   3   5 -14    1.33    1.28
  -3   5  14    2.05    1.07
   3   5 -14    1.73    1.32
  -2  -5  14    0.26    0.98
   2  -5 -14   -0.58    0.93
  -2  -5  14    0.29    1.14
   2   5 -14    1.24    1.27
   2   5 -14    0.56    1.19
  -2   5  14    0.97    1.12
   2   5 -14   -0.18    1.22
   1  -5 -14    2.34    1.05
  -1  -5  14   -0.41    0.82
   1   5 -14    2.03    1.12
  -1   5  14    2.88    1.10
   1   5 -14    0.06    1.07
   0  -5  14    9.87    1.52
   0  -5  14    8.35    1.34
   0  -5 -14    8.20    1.28
   0   5  14    6.01    1.20
   0   5 -14   10.08    1.35
   0   5 -14    6.21    1.32
   1  -5  14    3.30    1.20
   1  -5  14    4.33    1.07
  -1  -5 -14    3.78    1.11
   1  -5  14    4.46    1.34
   1   5  14    3.05    1.07
  -1   5 -14    3.05    1.28
  -1   5 -14    4.25    1.30
   2  -5  14   10.61    1.56
  -2  -5 -14    8.11    1.27
   2  -5  14    8.68    1.60
   2   5  14    7.33    1.40
  -2   5 -14    8.50    1.50
  -2   5 -14    7.71    1.57
   3  -5  14    7.04    1.49
   3  -5  14    5.33    1.60
  -3  -5 -14    6.63    1.29
  -3   5 -14    5.98    1.74
  -3   5 -14    7.68    1.80
   3   5  14    6.55    1.47
   4  -5  14    4.96    1.90
  -4  -5 -14    2.66    1.37
   4  -5  14    4.89    2.36
   4   5  14    0.71    2.38
  -4   5 -14    4.36    2.06
  -4   5 -14    2.87    1.66
  -2  -6  14    1.81    1.62
  -2  -6  14   -0.51    1.20
   2  -6 -14    0.12    1.33
   2   6 -14    2.30    1.55
  -2   6  14   -0.57    1.39
   2   6 -14   -2.12    1.55
  -1  -6  14    3.34    1.57
   1  -6 -14    7.02    1.56
  -1  -6  14    5.10    1.75
   1   6 -14    4.27    1.47
   0  -6  14    2.63    2.32
   0  -6 -14    3.36    1.29
   0  -6  14    2.35    1.54
   0   6 -14    2.19    1.72
   0   6 -14    1.76    1.42
   1  -6  14    1.71    1.39
  -1  -6 -14    3.43    1.26
   1  -6  14    1.41    1.70
   1  -6  14    0.34    1.48
   1   6  14    1.29    1.43
  -1   6 -14    4.05    1.39
  -1   6 -14    4.29    1.68
   2  -6  14   -0.32    1.51
  -2  -6 -14    0.21    1.29
  -2   6 -14    0.30    1.80
   2   6  14    1.25    1.34
  -7   0  15   -0.36    1.36
  -7   0  15    0.35    1.21
   7   0 -15    1.12    1.59
  -6   0  15   -0.01    1.07
   6   0 -15    0.66    1.29
   6   0 -15    0.20    1.36
  -6   0  15    0.29    1.09
  -5   0  15    1.20    0.86
   5   0 -15    0.82    1.00
  -5   0  15   -0.45    0.84
   5   0 -15    0.07    1.03
  -4   0  15   -0.07    0.71
  -4   0  15    0.28    0.76
   4   0 -15    0.46    0.88
   4   0 -15    0.52    0.90
   3   0 -15    0.17    0.82
  -3   0  15   -0.15    0.66
  -3   0  15    0.14    0.78
   3   0 -15    0.60    0.77
  -3   0  15    0.77    0.33
   3   0 -15   -0.02    0.88
   2   0 -15   -0.64    0.72
   2   0 -15    0.59    0.71
  -2   0  15    0.24    0.32
   2   0 -15   -0.18    0.64
  -2   0  15    0.11    0.62
  -2   0  15    0.90    0.27
  -1   0  15   -0.03    0.74
   1   0 -15    0.38    0.73
  -1   0  15    0.04    0.58
  -1   0  15   -0.26    0.30
   1   0 -15    0.07    0.73
   0   0 -15    0.85    0.75
   0   0 -15   -0.16    0.63
   0   0  15    1.10    0.75
  -1   0 -15   -0.17    0.71
   1   0  15    0.01    0.70
   1   0  15   -0.36    0.29
  -1   0 -15   -0.11    0.68
   2   0  15   -0.62    0.79
   2   0  15    1.04    0.38
  -2   0 -15   -0.48    0.79
   3   0  15   -0.08    0.43
  -3   0 -15   -0.06    0.88
   3   0  15    0.36    0.81
  -4   0 -15   -0.48    0.89
   4   0  15   -0.63    0.85
  -5   0 -15   -0.17    1.00
   5   0  15    0.04    1.07
   6   0  15    1.31    1.49
  -6   0 -15   -0.78    1.39
   7  -1 -15   -0.09    1.70
  -7  -1  15    1.08    1.56
  -7  -1  15    0.18    1.38
   7   1 -15    0.98    1.78
   7   1 -15   -0.80    1.56
  -7   1  15   -0.96    1.41
   6  -1 -15    5.78    1.37
  -6  -1  15    6.21    1.20
  -6  -1  15    5.10    1.19
  -6   1  15    5.68    1.18
   6   1 -15    5.92    1.50
   6   1 -15    5.82    1.47
  -6   1  15    5.57    1.18
  -5  -1  15    2.15    1.00
   5  -1 -15    3.74    1.24
  -5  -1  15    3.13    0.94
   5   1 -15    2.27    1.08
  -5   1  15    2.43    0.92
   5   1 -15    2.27    1.14
  -5   1  15    2.19    0.91
  -4  -1  15    3.82    0.91
   4  -1 -15    4.44    1.06
  -4  -1  15    4.51    0.47
   4  -1 -15    3.69    0.96
  -4  -1  15    3.77    0.92
   4   1 -15    5.14    1.08
   4   1 -15    4.05    1.02
  -4   1  15    3.62    0.87
  -4   1  15    4.27    0.86
   3  -1 -15    3.49    0.91
   3  -1 -15    2.82    0.89
  -3  -1  15    3.04    0.78
  -3  -1  15    1.89    0.76
  -3   1  15    4.36    0.81
   3   1 -15    4.61    1.01
  -3   1  15    2.75    0.73
   3   1 -15    3.48    0.88
  -3   1  15    3.46    0.78
   3   1 -15    3.16    0.83
  -2  -1  15   12.60    1.29
  -2  -1  15   12.40    0.88
   2  -1 -15   13.04    1.38
   2  -1 -15   13.06    1.27
   2  -1 -15   13.52    1.38
  -2   1  15   12.35    1.14
   2   1 -15   14.38    1.34
  -2   1  15   12.29    1.09
   2   1 -15   12.66    1.32
   2   1 -15   12.79    1.40
  -2   1  15   13.93    1.23
  -1  -1  15    5.33    0.83
   1  -1 -15    5.95    0.79
   1  -1 -15    5.65    0.93
  -1  -1  15    6.42    0.96
  -1  -1  15    6.47    0.54
  -1   1  15    5.58    0.53
   1   1 -15    5.69    0.87
  -1   1  15    5.49    0.82
   1   1 -15    5.58    0.87
   0  -1  15   15.46    0.72
   0  -1  15    9.58    1.07
   0  -1  15   12.82    1.19
   0  -1 -15   12.26    1.23
   0   1 -15    9.55    1.07
   0   1  15   12.48    0.71
   0   1  15   12.91    1.31
   0   1  15   12.31    0.81
   0   1 -15   12.56    1.26
  -1  -1 -15    0.58    0.32
   1  -1  15    0.47    0.68
  -1  -1 -15    1.66    0.71
   1  -1  15    0.71    0.67
  -1   1 -15    0.06    0.59
   1   1  15    2.26    0.75
  -1   1 -15    1.19    0.76
  -2  -1 -15    0.66    0.66
  -2  -1 -15    1.85    0.32
   2  -1  15    0.76    0.81
   2  -1  15    2.08    0.80
  -2   1 -15    1.15    0.61
  -2   1 -15    1.26    0.95
   2   1  15    0.70    0.77
   3  -1  15   -0.36    0.84
  -3  -1 -15    0.22    0.94
   3  -1  15    1.32    0.86
   3   1  15    0.13    0.81
  -3   1 -15    1.28    0.86
  -3   1 -15    0.53    0.97
   4  -1  15    4.16    1.08
   4  -1  15    3.58    1.07
  -4  -1 -15    4.06    1.18
  -4   1 -15    2.98    0.95
   4   1  15    3.79    1.12
  -5  -1 -15    1.37    1.29
   5  -1  15    0.26    1.27
   5   1  15    1.84    1.20
  -5   1 -15    0.13    0.77
  -6  -1 -15   -0.71    1.49
   6  -1  15   -0.39    1.60
  -6   1 -15    0.61    1.03
   6   1  15    1.43    1.40
  -6  -2  15    4.41    1.26
  -6  -2  15    3.32    1.26
   6  -2 -15    4.72    1.58
  -6   2  15    3.32    1.21
   6   2 -15    6.14    1.58
   6   2 -15    2.97    1.51
  -6   2  15    4.49    1.17
  -5  -2  15   -0.30    0.93
   5  -2 -15    0.64    1.10
  -5  -2  15   -0.65    1.00
  -5   2  15    0.12    0.93
  -5   2  15    0.07    1.05
   5   2 -15   -0.01    0.95
   5   2 -15    0.21    1.09
   4  -2 -15    7.41    1.23
  -4  -2  15    4.67    0.98
  -4  -2  15    5.95    1.02
   4  -2 -15    5.34    1.06
   4   2 -15    6.87    1.13
   4   2 -15    4.81    1.11
  -4   2  15    5.25    0.93
  -4   2  15    6.62    1.05
   4   2 -15    5.06    1.07
  -3  -2  15    1.28    0.81
  -3  -2  15    0.58    0.77
   3  -2 -15    1.05    0.80
  -3   2  15    1.33    0.80
   3   2 -15    1.25    0.94
   3   2 -15    0.65    0.83
  -3   2  15    0.67    0.73
   3   2 -15    0.46    0.80
   2  -2 -15    5.58    0.94
  -2  -2  15    5.16    0.80
  -2  -2  15    4.04    0.91
   2   2 -15    5.69    0.95
  -2   2  15    5.27    0.86
   2   2 -15    3.16    0.93
   2   2 -15    4.51    0.94
  -2   2  15    6.57    0.60
  -2   2  15    5.01    0.53
   1  -2 -15    5.41    0.95
  -1  -2  15    5.81    0.93
  -1  -2  15    4.90    0.50
   1  -2 -15    5.20    0.90
   1   2 -15    3.52    0.82
  -1   2  15    5.25    0.52
   1   2 -15    4.22    0.88
   0  -2  15   12.71    1.34
   0  -2  15   12.91    1.01
   0  -2  15   11.73    1.23
   0  -2 -15   12.16    1.25
   0  -2 -15   14.36    1.32
   0   2 -15   14.24    1.49
   0   2 -15   12.82    1.33
   0   2  15   12.96    1.31
   1  -2  15    1.96    0.89
  -1  -2 -15    1.61    0.66
  -1  -2 -15    1.60    0.72
   1  -2  15    2.39    0.84
  -1   2 -15    1.25    0.89
   1   2  15    2.80    0.82
  -1   2 -15    2.25    0.87
   2  -2  15    2.96    0.84
   2  -2  15    3.22    1.26
   2  -2  15    4.51    0.95
  -2  -2 -15    2.17    0.84
  -2  -2 -15    2.36    0.55
  -2   2 -15    6.32    1.17
  -2   2 -15    1.86    0.68
   2   2  15    3.80    0.96
  -3  -2 -15    1.07    0.74
   3  -2  15    0.71    0.92
  -3  -2 -15    0.60    0.41
   3  -2  15    1.37    0.92
   3   2  15    0.40    0.98
  -3   2 -15    1.56    0.96
  -3   2 -15    0.30    0.71
   4  -2  15   -1.47    0.89
  -4  -2 -15    0.45    1.00
   4  -2  15   -0.01    1.05
  -4  -2 -15   -0.54    0.45
   4   2  15   -0.53    1.11
  -4   2 -15    0.94    1.22
  -4   2 -15   -0.14    0.91
  -5  -2 -15   -1.52    1.25
   5  -2  15   -0.03    1.30
  -5   2 -15    0.91    1.16
   5   2  15   -0.67    1.11
  -5   2 -15   -0.61    0.90
   6  -2  15    1.42    1.88
  -6  -2 -15   -0.67    1.62
  -6   2 -15   -0.02    1.49
   6   2  15    2.25    1.63
  -6   2 -15    0.84    1.21
   6  -3 -15    1.68    1.46
  -6  -3  15    0.82    1.22
   6  -3 -15   -0.66    1.80
  -6  -3  15   -0.21    1.32
   6   3 -15   -0.05    1.60
  -6   3  15   -0.85    1.55
   6   3 -15    0.29    1.45
  -6   3  15    0.16    1.23
  -5  -3  15    2.64    1.18
   5  -3 -15    0.63    1.49
  -5  -3  15    0.32    1.02
   5  -3 -15    1.42    0.99
   5   3 -15    3.92    1.40
   5   3 -15    1.67    1.20
  -5   3  15    1.34    1.31
  -5   3  15    1.16    0.98
   4  -3 -15    1.24    1.03
  -4  -3  15    0.08    0.92
  -4  -3  15    2.45    1.03
   4   3 -15    0.53    1.16
  -4   3  15    0.97    1.05
   4   3 -15    1.06    1.16
  -4   3  15    0.99    0.86
  -3  -3  15    9.90    1.26
   3  -3 -15   17.07    1.50
  -3  -3  15   13.99    1.29
   3   3 -15   13.38    1.30
  -3   3  15   11.74    1.31
   3   3 -15   12.37    1.47
   3   3 -15   14.74    1.51
  -2  -3  15    2.40    0.85
  -2  -3  15    2.51    0.95
   2  -3 -15    3.06    0.92
   2   3 -15    1.01    0.97
  -2   3  15    2.63    0.89
   2   3 -15    1.97    0.82
   2   3 -15    2.14    0.87
  -1  -3  15    0.09    0.54
  -1  -3  15    1.35    0.86
   1  -3 -15    0.73    0.78
   1   3 -15    0.71    0.78
  -1   3  15    0.43    0.79
   1   3 -15    1.18    0.82
   0  -3 -15   10.55    1.12
   0  -3  15    9.46    1.26
   0  -3 -15   11.08    1.31
   0  -3  15    8.39    1.03
   0   3 -15    7.72    1.13
   0   3 -15   10.81    1.25
   1  -3  15   29.52    2.12
  -1  -3 -15   29.05    1.92
   1  -3  15   29.52    2.02
  -1  -3 -15   29.80    2.08
   1   3  15   30.67    2.02
  -1   3 -15   27.32    2.02
  -1   3 -15   29.29    2.19
   2  -3  15   -0.24    0.95
  -2  -3 -15    1.02    0.84
   2  -3  15    0.10    0.95
  -2  -3 -15    0.59    1.01
   2   3  15    0.51    0.98
  -2   3 -15    1.05    0.95
  -2   3 -15    0.46    0.98
   3  -3  15    1.21    1.03
  -3  -3 -15    1.90    0.94
  -3  -3 -15    2.05    1.08
   3  -3  15    1.81    1.05
  -3   3 -15    2.18    0.99
   3   3  15    1.27    1.15
  -3   3 -15    1.64    1.18
   4  -3  15    8.22    1.46
  -4  -3 -15    8.83    1.21
   4  -3  15    9.87    1.48
  -4  -3 -15    9.09    1.44
  -4   3 -15    8.82    1.55
  -4   3 -15    8.08    1.21
   4   3  15   11.52    1.61
  -4   3 -15    7.51    1.35
   5  -3  15    4.59    1.54
  -5  -3 -15    4.28    1.54
   5  -3  15    4.59    1.51
  -5   3 -15    3.30    1.29
   5   3  15    6.43    1.60
  -5   3 -15    4.45    1.42
   5  -4 -15    0.76    2.32
  -5  -4  15    0.88    1.80
  -5  -4  15    0.36    1.40
   5   4 -15   -0.75    1.49
  -5   4  15   -1.08    1.02
  -5   4  15    0.19    1.55
  -4  -4  15   -0.29    0.99
  -4  -4  15    0.47    1.24
   4  -4 -15    0.76    0.98
   4   4 -15    1.01    1.40
   4   4 -15    0.83    1.21
  -4   4  15   -0.55    0.89
  -4   4  15   -0.40    1.20
   3  -4 -15    1.13    1.12
  -3  -4  15    1.54    1.10
  -3  -4  15    2.36    1.14
  -3   4  15    2.77    1.05
   3   4 -15    2.93    1.35
   3   4 -15    2.16    1.19
   3   4 -15    2.11    1.21
  -2  -4  15   -0.25    0.91
  -2  -4  15    0.05    1.04
   2  -4 -15    0.18    0.89
   2   4 -15    0.05    1.02
   2   4 -15   -0.20    1.13
   2   4 -15    0.44    1.08
  -2   4  15    0.46    0.99
   1  -4 -15    9.10    1.19
  -1  -4  15   11.06    1.18
  -1  -4  15    8.45    1.20
   1   4 -15   11.32    1.45
  -1   4  15   10.66    1.23
   1   4 -15   10.53    1.27
   0  -4  15    2.08    1.07
   0  -4  15    1.47    0.96
   0  -4 -15    1.93    0.87
   0   4 -15    1.10    1.04
   0   4  15    2.28    0.99
   0   4 -15    2.06    0.89
   1  -4  15    1.42    1.04
  -1  -4 -15    0.75    0.89
   1  -4  15    1.72    1.07
  -1   4 -15    1.69    0.85
   1   4  15    2.23    0.95
  -1   4 -15    2.22    0.99
   2  -4  15    0.38    1.06
  -2  -4 -15    0.88    0.94
   2  -4  15    0.49    1.12
  -2   4 -15   -0.51    0.96
   2   4  15    0.70    1.17
  -2   4 -15   -1.17    1.19
   3  -4  15    5.75    1.25
   3  -4  15    3.00    1.37
  -3  -4 -15    3.56    1.13
  -3   4 -15    3.39    1.36
  -3   4 -15    3.89    1.46
   3   4  15    4.30    1.47
  -4  -4 -15    0.45    1.20
   4  -4  15    1.09    1.27
   4  -4  15    1.19    1.54
   4   4  15    2.66    1.60
  -4   4 -15    0.39    1.43
  -4   4 -15   -0.39    1.64
  -4   4 -15    1.16    1.24
  -5  -4 -15    2.53    1.57
   5  -4  15    1.27    1.82
   5  -4  15   -0.46    1.90
  -5   4 -15    3.81    1.66
  -5   4 -15    3.30    1.75
  -5   4 -15    4.26    2.06
   5   4  15    1.97    1.93
  -4  -5  15    1.09    1.60
  -4  -5  15    1.28    1.49
   4  -5 -15   -1.33    1.42
  -4   5  15    0.99    1.19
  -4   5  15   -0.56    1.41
   4   5 -15   -1.11    1.76
  -3  -5  15    3.03    1.27
   3  -5 -15    0.92    1.12
  -3  -5  15    1.47    1.50
   3   5 -15    3.85    1.45
  -3   5  15    3.42    1.43
   3   5 -15    0.71    1.63
   3   5 -15    1.36    1.71
   2  -5 -15   11.98    1.45
  -2  -5  15   12.20    1.48
  -2  -5  15   14.58    1.65
   2   5 -15   17.51    2.00
   2   5 -15   15.18    1.67
  -2   5  15   12.11    1.45
  -1  -5  15    4.03    1.15
   1  -5 -15    2.18    1.03
   1   5 -15    3.05    1.30
   1   5 -15    3.39    1.18
  -1   5  15    2.23    1.13
   0  -5 -15    5.14    1.29
   0  -5  15    4.99    1.58
   0  -5  15    3.99    1.13
   0   5 -15    3.69    1.33
   0   5 -15    8.28    1.41
   0   5  15    3.73    1.17
   1  -5  15   -1.39    1.05
   1  -5  15   -0.45    1.12
   1  -5  15    0.73    1.26
  -1  -5 -15    0.06    1.04
   1   5  15    1.54    1.05
  -1   5 -15    0.77    1.17
  -1   5 -15   -0.75    1.15
  -2  -5 -15   10.88    1.48
   2  -5  15   13.04    1.92
   2  -5  15    9.58    1.64
  -2   5 -15   10.41    1.58
   2   5  15   12.56    1.57
  -2   5 -15   11.64    1.79
   3  -5  15    1.70    1.70
   3  -5  15    2.41    1.39
  -3  -5 -15    1.26    1.33
   3   5  15    3.24    2.25
  -3   5 -15    4.38    2.39
  -3   5 -15    3.30    1.86
   0  -6  15    2.02    1.46
   0   6 -15    2.04    1.66
   0   6  15    4.36    1.59
  -6   0  16    0.70    1.20
   6   0 -16    0.57    1.25
   6   0 -16    1.28    1.50
  -6   0  16    1.24    1.23
  -5   0  16   30.35    2.13
   5   0 -16   33.49    2.39
  -5   0  16   27.77    2.23
   5   0 -16   33.31    2.46
  -4   0  16   49.45    2.78
   4   0 -16   55.84    3.08
   4   0 -16   53.31    3.01
  -4   0  16   52.92    2.74
  -4   0  16   50.46    2.92
   3   0 -16   15.37    1.34
   3   0 -16   13.28    1.32
  -3   0  16   13.23    1.44
  -3   0  16   12.21    1.08
  -3   0  16    9.85    0.90
   3   0 -16   11.64    1.30
  -2   0  16    1.88    0.40
   2   0 -16    1.72    0.77
  -2   0  16    2.38    0.49
  -2   0  16    2.19    0.75
   2   0 -16    0.72    0.74
  -1   0  16   81.71    4.18
  -1   0  16   85.03    3.88
  -1   0  16   90.52    3.98
  -1   0  16   84.17    4.07
   1   0 -16   87.59    4.29
   1   0 -16   89.29    4.26
   0   0  16   75.22    4.01
   0   0 -16   77.92    4.11
   0   0  16   88.72    3.82
   0   0  16   84.54    3.89
   0   0 -16   84.53    4.09
  -1   0 -16    7.40    1.08
  -1   0 -16    6.26    0.97
   1   0  16    6.10    0.68
   1   0  16    6.71    0.98
  -2   0 -16    5.21    1.00
   2   0  16    4.98    0.60
   2   0  16    6.33    1.01
  -3   0 -16   18.24    1.73
   3   0  16   18.86    1.85
   4   0  16    2.23    1.09
  -4   0 -16    2.73    1.16
   5   0  16    3.75    1.25
  -5   0 -16    4.61    1.20
  -6   0 -16    0.58    1.37
   6   0  16   -0.28    1.54
  -6  -1  16   32.02    2.55
   6  -1 -16   36.27    2.82
  -6  -1  16   35.59    2.57
   6   1 -16   34.38    3.04
  -6   1  16   34.05    2.52
   6   1 -16   33.98    2.83
  -6   1  16   30.49    2.51
   5  -1 -16    2.85    1.21
  -5  -1  16    3.12    1.10
  -5  -1  16    1.39    1.00
  -5   1  16    2.12    0.99
   5   1 -16    3.43    1.07
   5   1 -16    1.54    1.19
  -5   1  16    2.25    0.99
  -4  -1  16   29.55    2.09
   4  -1 -16   30.34    2.20
  -4  -1  16   29.51    1.97
  -4   1  16   26.91    1.95
  -4   1  16   27.19    1.98
   4   1 -16   29.20    2.20
   4   1 -16   30.02    2.19
  -4   1  16   27.32    1.93
   3  -1 -16    1.03    0.91
  -3  -1  16   -0.26    0.76
  -3  -1  16    1.19    0.80
   3  -1 -16    0.04    0.81
   3   1 -16    0.67    0.98
  -3   1  16    0.90    0.74
  -3   1  16    0.57    0.73
  -3   1  16    0.56    0.76
   3   1 -16    0.94    0.80
  -3   1  16    0.08    0.82
   3   1 -16    0.99    0.87
   2  -1 -16   57.31    3.07
  -2  -1  16   56.95    2.68
   2  -1 -16   55.48    3.06
  -2  -1  16   58.79    2.99
   2  -1 -16   57.18    2.96
   2   1 -16   60.17    3.15
  -2   1  16   54.33    2.80
   2   1 -16   57.74    3.11
  -2   1  16   54.62    2.99
  -2   1  16   56.24    2.88
   2   1 -16   58.41    3.03
   1  -1 -16   -0.10    0.81
  -1  -1  16    0.03    0.72
  -1  -1  16    0.66    0.72
  -1  -1  16    0.41    0.28
   1  -1 -16    0.14    0.67
  -1   1  16    0.71    0.32
  -1   1  16   -0.85    0.33
   1   1 -16   -0.25    0.63
   1   1 -16    0.36    0.77
  -1   1  16    0.04    0.74
   0  -1  16   40.99    2.49
   0  -1 -16   41.21    2.43
   0  -1 -16   43.41    2.30
   0  -1  16   43.93    2.37
   0  -1  16   46.80    2.08
   0  -1  16   43.03    2.16
   0   1  16   42.02    2.43
   0   1 -16   43.05    2.50
   0   1 -16   43.37    2.49
   0   1  16   41.80    2.05
  -1  -1 -16    9.21    1.09
   1  -1  16   11.77    1.30
  -1  -1 -16    9.86    0.76
   1  -1  16   13.92    1.14
   1  -1  16   11.56    1.09
  -1   1 -16   11.73    1.24
   1   1  16    9.02    1.10
  -1   1 -16   11.67    1.24
   2  -1  16   11.82    1.32
   2  -1  16   14.28    1.27
  -2  -1 -16   14.31    1.46
  -2   1 -16   13.99    1.49
  -2   1 -16   12.96    1.42
   2   1  16   13.97    1.55
   3  -1  16    3.34    1.06
  -3  -1 -16    1.23    0.90
   3  -1  16    3.15    0.98
  -3   1 -16    2.25    0.80
  -3   1 -16    3.22    1.12
   3   1  16    2.76    0.97
   4  -1  16    5.27    1.11
  -4  -1 -16    4.16    1.05
  -4   1 -16    2.91    0.85
   4   1  16    4.44    1.19
   5  -1  16    1.62    1.29
  -5  -1 -16    1.55    1.21
  -5   1 -16    3.86    1.28
   5   1  16    1.93    1.16
  -6  -1 -16    5.71    1.66
  -6   1 -16    5.93    1.50
   6   1  16    7.68    1.82
   6  -2 -16    2.21    1.69
  -6  -2  16    3.14    1.37
  -6  -2  16    2.64    1.42
  -6   2  16    3.33    1.31
   6   2 -16    3.50    1.65
  -6   2  16    2.76    1.35
  -5  -2  16    7.35    1.31
  -5  -2  16    5.34    1.24
   5  -2 -16    7.33    1.58
  -5   2  16    7.00    1.20
  -5   2  16    8.03    1.31
  -5   2  16    6.64    1.26
   5   2 -16    8.39    1.44
   5   2 -16    6.39    1.34
   4  -2 -16   -0.27    0.86
  -4  -2  16    0.60    0.94
   4  -2 -16   -0.02    1.07
  -4  -2  16    0.53    0.96
   4   2 -16    0.08    1.09
  -4   2  16    0.37    0.87
   4   2 -16    0.30    1.04
  -4   2  16    0.04    0.98
   4   2 -16    0.86    0.96
  -3  -2  16   30.88    2.01
   3  -2 -16   33.59    2.15
  -3  -2  16   29.71    2.10
  -3   2  16   31.94    2.12
   3   2 -16   31.68    2.11
   3   2 -16   33.47    2.34
  -3   2  16   32.09    2.05
   3   2 -16   32.09    2.27
   2  -2 -16    6.01    0.97
  -2  -2  16    6.66    0.88
  -2  -2  16    5.21    1.03
   2   2 -16    5.78    1.00
  -2   2  16    5.36    1.00
   2   2 -16    5.22    1.07
   2   2 -16    4.88    0.93
  -2   2  16    6.00    0.96
  -2   2  16    6.75    0.75
  -1  -2  16   19.09    0.96
  -1  -2  16   17.70    1.47
  -1  -2  16   15.81    1.61
   1  -2 -16   15.16    1.56
   1  -2 -16   16.62    1.45
  -1   2  16   13.96    0.92
   1   2 -16   16.89    1.61
  -1   2  16   15.31    1.52
   1   2 -16   16.24    1.51
   0  -2  16    0.76    0.79
   0  -2  16    1.44    0.77
   0  -2 -16    1.32    0.83
   0  -2 -16    0.04    0.75
   0   2 -16    0.30    0.97
   0   2 -16    0.83    0.78
   0   2  16    1.26    0.80
   1  -2  16   39.37    2.38
  -1  -2 -16   41.68    2.31
   1  -2  16   37.90    2.49
  -1  -2 -16   43.14    2.49
   1   2  16   40.93    2.45
   1   2  16   50.38    2.18
  -1   2 -16   41.80    2.54
  -1   2 -16   36.33    2.43
   2  -2  16   18.90    1.71
  -2  -2 -16   16.29    1.64
   2  -2  16   17.70    1.78
   2   2  16   14.88    1.46
  -2   2 -16   16.23    1.80
  -2   2 -16   17.21    1.62
   3  -2  16    1.06    1.04
   3  -2  16    5.16    1.07
  -3  -2 -16    1.11    1.10
  -3  -2 -16    2.28    0.45
  -3   2 -16    1.78    1.06
  -3   2 -16    1.86    0.99
   3   2  16    1.37    1.07
  -4  -2 -16    2.15    1.21
   4  -2  16    0.31    1.21
   4  -2  16    0.15    1.20
  -4   2 -16    0.11    1.31
  -4   2 -16    0.43    0.81
   4   2  16   -0.79    1.13
   5  -2  16   15.15    1.98
  -5  -2 -16   16.51    1.85
  -5   2 -16    9.21    1.40
   5   2  16   12.36    1.78
  -6  -2 -16    0.43    1.86
   6  -2  16    0.45    1.83
  -6   2 -16    0.09    1.28
  -5  -3  16    1.00    1.27
  -5  -3  16    0.57    1.07
   5  -3 -16   -0.45    1.08
   5   3 -16   -2.10    1.25
  -5   3  16    0.47    1.02
   5   3 -16    0.05    1.28
  -5   3  16    1.46    1.39
  -4  -3  16   28.67    2.22
  -4  -3  16   28.69    2.19
   4  -3 -16   31.32    2.28
  -4   3  16   25.59    2.08
   4   3 -16   26.76    2.36
   4   3 -16   25.84    2.37
   4   3 -16   27.15    2.22
  -4   3  16   27.36    2.28
  -3  -3  16    0.84    1.02
   3  -3 -16    0.09    0.90
  -3  -3  16   -0.03    0.88
   3   3 -16    0.22    0.98
   3   3 -16   -0.16    1.01
  -3   3  16   -0.27    1.00
   3   3 -16    4.23    1.26
  -2  -3  16   39.28    2.54
   2  -3 -16   44.75    2.57
  -2  -3  16   39.16    2.39
   2   3 -16   38.94    2.48
  -2   3  16   46.21    2.02
   2   3 -16   38.77    2.57
   2   3 -16   41.38    2.70
  -2   3  16   39.43    2.50
  -1  -3  16    1.02    0.89
  -1  -3  16    0.38    0.42
   1  -3 -16   -0.25    0.80
   1   3 -16   -0.47    0.82
  -1   3  16   -0.99    0.76
   1   3 -16   -0.43    0.79
   0  -3 -16   57.64    3.21
   0  -3 -16   56.79    3.06
   0  -3  16   56.88    3.19
   0  -3  16   58.29    3.14
   0   3 -16   58.68    3.28
   0   3 -16   56.21    3.12
   1  -3  16   -0.96    0.93
  -1  -3 -16    0.24    0.85
  -1  -3 -16    0.20    0.88
   1  -3  16    0.54    0.90
  -1   3 -16   -0.18    0.74
  -1   3 -16    0.90    1.01
   1   3  16    0.37    0.99
   2  -3  16   25.65    2.10
  -2  -3 -16   25.68    2.15
   2  -3  16   28.03    2.22
  -2  -3 -16   26.71    1.98
  -2   3 -16   25.99    2.17
  -2   3 -16   25.77    2.10
   2   3  16   23.42    2.13
  -3  -3 -16   -0.40    1.09
   3  -3  16   -1.16    1.08
  -3  -3 -16    0.47    1.05
   3  -3  16   -1.09    1.24
  -3   3 -16   -0.67    1.25
   3   3  16    0.12    1.19
  -3   3 -16    0.54    0.75
  -4  -3 -16   14.33    1.50
   4  -3  16   11.61    1.65
  -4  -3 -16   14.62    1.84
   4  -3  16   11.42    1.62
  -4   3 -16   13.14    1.62
  -4   3 -16   12.58    1.81
   4   3  16   13.53    1.80
   5  -3  16    0.87    1.58
  -5  -3 -16    0.64    1.60
   5  -3  16    0.87    1.92
  -5   3 -16    0.51    2.55
  -5   3 -16    2.47    1.54
   5   3  16    0.84    1.57
  -4  -4  16    4.00    1.41
   4  -4 -16    1.57    1.15
  -4  -4  16    2.91    1.45
   4   4 -16    5.38    1.51
  -4   4  16    2.75    1.51
  -4   4  16    3.84    1.07
   4   4 -16    3.39    1.60
  -3  -4  16    7.07    1.42
   3  -4 -16    5.92    1.23
  -3  -4  16    6.77    1.27
   3   4 -16    5.32    1.57
   3   4 -16    6.85    1.37
  -3   4  16    4.47    1.26
   3   4 -16    7.51    1.48
  -2  -4  16    1.30    1.02
  -2  -4  16    0.99    1.17
   2  -4 -16    0.21    0.87
   2   4 -16    1.34    1.04
   2   4 -16   -0.31    1.22
   2   4 -16    1.12    1.12
  -2   4  16   -0.04    1.11
   1  -4 -16   42.45    2.57
  -1  -4  16   37.31    2.52
  -1  -4  16   35.37    2.41
   1   4 -16   38.90    2.67
  -1   4  16   35.29    2.49
   1   4 -16   40.49    2.46
   0  -4 -16   10.15    1.26
   0  -4  16    8.44    1.36
   0  -4  16    7.63    1.21
   0   4 -16    7.94    1.34
   0   4 -16    6.76    1.32
   0   4  16    8.03    1.33
  -1  -4 -16   14.84    1.46
   1  -4  16   12.60    1.44
   1  -4  16   14.40    1.60
   1   4  16   14.01    1.58
  -1   4 -16   12.99    1.59
  -1   4 -16   12.81    1.55
   2  -4  16   -0.30    1.22
   2  -4  16    0.36    1.09
  -2  -4 -16    0.31    1.11
  -2   4 -16    1.30    1.37
   2   4  16    0.91    1.33
  -2   4 -16    0.70    1.03
   3  -4  16   22.34    1.94
   3  -4  16   22.47    2.35
  -3  -4 -16   19.21    1.80
   3   4  16   18.21    1.96
  -3   4 -16   18.86    2.06
  -3   4 -16   20.19    2.20
   4  -4  16    6.48    1.80
  -4  -4 -16    6.76    1.55
   4  -4  16    6.14    1.64
  -4   4 -16    6.61    2.00
   4   4  16    7.44    1.92
  -3  -5  16    1.02    1.43
   3  -5 -16    0.22    1.77
  -3  -5  16    0.53    1.64
   3   5 -16    3.10    1.59
   3   5 -16    0.97    1.57
  -3   5  16    1.76    1.57
  -2  -5  16    9.66    1.54
   2  -5 -16    9.27    1.64
  -2  -5  16   11.90    1.71
  -2   5  16    8.97    1.37
   2   5 -16    9.21    1.80
   2   5 -16    8.52    1.64
  -1  -5  16    2.24    1.34
  -1  -5  16    0.63    1.41
   1  -5 -16    0.46    1.20
  -1   5  16   -0.13    1.24
   1   5 -16    0.62    1.21
   1   5 -16   -1.14    1.25
   0  -5  16   13.20    1.70
   0  -5 -16   15.47    1.69
   0  -5  16   16.43    2.05
   0   5 -16   10.51    1.46
   0   5  16   14.89    1.64
   0   5 -16   16.61    1.95
   1  -5  16   -0.79    1.61
   1  -5  16   -0.13    1.25
  -1  -5 -16    2.12    1.18
  -1   5 -16    0.96    1.42
   1   5  16    2.67    1.29
  -1   5 -16    0.63    1.16
  -2  -5 -16    4.62    1.42
   2  -5  16    5.41    1.61
   2  -5  16    7.11    1.78
  -2   5 -16    4.49    1.44
  -2   5 -16    4.97    1.76
   3  -5  16    0.37    1.87
  -3  -5 -16   -0.48    1.51
  -3   5 -16    0.49    2.06
   3   5  16   -0.19    1.45
   6   0 -17    0.11    1.38
  -6   0  17    0.80    1.33
   6   0 -17   -0.17    1.59
  -6   0  17   -0.11    1.31
   5   0 -17   -0.27    1.09
  -5   0  17   -0.05    1.01
   5   0 -17    0.02    1.26
  -5   0  17    0.94    1.09
  -5   0  17   -0.06    1.10
   4   0 -17   -0.12    1.01
  -4   0  17    0.24    0.92
  -4   0  17   -0.24    1.01
   4   0 -17   -0.34    1.00
  -4   0  17   -1.17    0.83
   3   0 -17    0.74    0.92
   3   0 -17   -0.12    0.89
  -3   0  17   -0.09    0.85
  -3   0  17    0.06    0.81
   3   0 -17   -0.43    0.94
   2   0 -17   -0.11    0.82
  -2   0  17    0.46    0.38
  -2   0  17    0.13    0.79
  -2   0  17   -0.30    0.88
   2   0 -17   -0.04    0.93
  -1   0  17    0.13    0.82
   1   0 -17    0.95    0.75
   1   0 -17   -0.08    0.73
  -1   0  17    0.97    0.75
  -1   0  17   -0.53    0.33
   0   0  17    0.18    0.79
   0   0 -17   -0.02    0.74
   0   0 -17    0.67    0.86
   0   0  17    1.09    0.74
  -1   0 -17   -0.23    0.91
  -1   0 -17    0.47    0.80
   1   0  17   -0.65    0.86
  -2   0 -17   -0.34    0.74
   2   0  17   -0.19    0.48
   2   0  17    0.50    0.86
   3   0  17    0.05    0.99
  -3   0 -17   -0.59    0.85
   4   0  17    0.19    1.10
  -4   0 -17   -0.26    1.11
   5   0  17   -0.95    1.27
  -5   0 -17    0.94    1.36
   6   0  17   -1.30    1.73
  -6  -1  17    0.96    1.39
  -6  -1  17    0.06    1.33
   6  -1 -17    0.38    1.47
  -6   1  17    0.29    1.28
  -6   1  17    0.28    1.31
   6   1 -17    0.07    1.67
  -5  -1  17    0.71    1.17
  -5  -1  17    1.68    1.13
   5  -1 -17    1.43    1.28
   5   1 -17    1.53    1.30
  -5   1  17    0.24    1.08
   5   1 -17    0.81    1.21
  -5   1  17    1.48    1.07
   4  -1 -17    3.99    1.16
  -4  -1  17    2.25    1.00
  -4  -1  17    2.18    0.99
  -4   1  17    2.68    0.95
   4   1 -17    2.65    1.21
   4   1 -17    3.64    1.16
  -4   1  17    2.70    0.98
  -4   1  17    3.04    0.97
  -3  -1  17    3.65    0.91
  -3  -1  17    2.75    0.91
   3   1 -17    2.55    0.98
  -3   1  17    3.97    0.90
  -3   1  17    3.51    0.93
  -3   1  17    3.71    1.07
  -3   1  17    2.42    0.85
   3   1 -17    5.73    1.17
  -3   1  17    2.55    0.97
   3   1 -17    3.74    1.04
  -2  -1  17    7.33    0.75
   2  -1 -17    6.68    1.13
  -2  -1  17    7.13    1.04
   2   1 -17    7.14    1.12
  -2   1  17    7.28    0.90
  -2   1  17    7.77    0.98
   2   1 -17    8.61    1.18
  -2   1  17    7.63    1.08
  -1  -1  17    5.52    1.02
   1  -1 -17    5.92    0.93
  -1  -1  17    5.68    0.93
   1  -1 -17    7.05    1.05
   1   1 -17    6.03    1.07
   1   1 -17    4.19    0.95
  -1   1  17    5.22    0.62
  -1   1  17    6.70    0.57
  -1   1  17    5.23    0.99
   0  -1  17    1.07    0.86
   0  -1 -17    1.14    0.76
   0  -1  17    1.05    0.78
   0  -1 -17    0.30    0.64
   0   1 -17    2.06    0.93
   0   1  17    2.89    0.41
   0   1  17    0.60    0.87
   0   1 -17    1.17    0.81
  -1  -1 -17    6.72    1.08
   1  -1  17    7.17    1.06
   1  -1  17    7.89    1.05
   1   1  17    7.78    1.11
  -1   1 -17    5.25    0.96
  -1   1 -17    9.00    1.15
   2  -1  17    6.49    1.12
  -2  -1 -17    7.68    1.10
   2  -1  17    8.56    1.10
   2   1  17    6.75    1.16
  -2   1 -17    9.94    1.32
  -2   1 -17    4.81    1.04
  -3  -1 -17    4.92    1.06
   3  -1  17    5.87    1.17
   3  -1  17    6.19    1.24
   3   1  17    5.25    1.11
  -3   1 -17    5.49    1.08
  -4  -1 -17    0.12    0.90
   4  -1  17   -0.12    1.24
   4   1  17   -0.01    1.13
  -4   1 -17    0.70    1.24
   5  -1  17    4.09    1.57
  -5  -1 -17    0.67    1.16
  -5   1 -17    0.12    1.10
   5   1  17    3.38    1.45
   5  -2 -17    5.53    1.60
  -5  -2  17    4.37    1.19
  -5  -2  17    3.29    1.31
   5   2 -17    1.27    1.40
  -5   2  17    3.82    1.30
   5   2 -17    3.86    1.43
  -5   2  17    3.14    1.28
  -5   2  17    1.88    1.19
  -4  -2  17    5.91    1.20
   4  -2 -17    6.71    1.24
  -4  -2  17    7.70    1.26
   4   2 -17    5.53    1.30
  -4   2  17    6.40    1.24
  -4   2  17    4.76    1.10
  -4   2  17    6.35    1.25
   4   2 -17    7.37    1.33
   4   2 -17    6.53    1.32
  -3  -2  17    2.08    0.93
   3  -2 -17    0.72    0.90
  -3  -2  17    2.03    1.02
   3   2 -17    2.18    1.05
  -3   2  17    2.66    0.95
  -3   2  17    1.67    1.01
   3   2 -17    0.89    1.06
  -3   2  17    1.73    0.91
   3   2 -17    1.31    1.06
  -3   2  17    1.24    0.98
   2  -2 -17    0.45    0.84
  -2  -2  17   -0.20    0.85
  -2  -2  17    0.25    0.83
   2   2 -17    0.01    0.90
   2   2 -17   -1.09    0.94
   2   2 -17    0.07    0.89
  -2   2  17    0.44    0.92
  -2   2  17    0.03    0.87
   1  -2 -17   -0.09    0.82
  -1  -2  17    0.52    0.87
  -1  -2  17   -0.19    0.87
   1  -2 -17    0.95    0.94
   1   2 -17    0.82    0.85
  -1   2  17    0.66    0.40
   1   2 -17    0.33    0.89
  -1   2  17   -0.23    0.86
   0  -2 -17    0.85    0.80
   0  -2  17    1.21    0.91
   0  -2 -17    0.17    0.90
   0  -2  17    0.83    0.84
   0   2 -17    0.39    0.87
   0   2  17    1.71    0.94
   0   2 -17    1.04    0.85
  -1  -2 -17    1.08    0.88
  -1  -2 -17    1.76    0.90
   1  -2  17    1.86    0.95
   1  -2  17    2.01    1.00
  -1   2 -17    2.24    0.87
   1   2  17    2.28    0.98
  -1   2 -17    1.18    0.90
  -2  -2 -17    0.06    1.03
   2  -2  17   -0.68    1.01
  -2  -2 -17    0.09    0.90
   2  -2  17    0.66    0.98
  -2   2 -17   -0.87    0.99
   2   2  17   -0.94    1.03
  -2   2 -17   -0.35    0.69
   3  -2  17   -0.03    0.97
   3  -2  17    0.48    1.12
  -3  -2 -17   -0.90    1.02
   3   2  17    0.26    1.19
  -3   2 -17    0.44    0.80
  -3   2 -17    0.68    1.10
   4  -2  17    2.25    1.38
   4  -2  17    2.33    1.33
  -4  -2 -17    3.09    1.32
  -4   2 -17    0.22    0.89
   4   2  17    3.25    1.35
  -5  -2 -17    0.33    1.54
   5  -2  17    1.31    1.51
   5   2  17   -0.04    1.45
  -5   2 -17   -0.64    1.08
  -5  -3  17    5.65    1.55
  -5   3  17    5.88    1.60
  -5   3  17    3.49    1.23
   5   3 -17    6.27    1.74
   5   3 -17    4.06    1.60
   4  -3 -17    0.34    1.07
  -4  -3  17   -0.02    1.06
  -4  -3  17   -0.06    1.27
   4   3 -17    0.00    1.21
   4   3 -17    0.82    1.38
  -4   3  17   -0.40    1.11
  -4   3  17    0.61    1.25
   4   3 -17    1.22    1.27
  -3  -3  17   -0.36    1.04
  -3  -3  17   -0.62    0.94
   3  -3 -17   -0.20    0.90
   3   3 -17    0.35    1.25
   3   3 -17    0.85    1.21
   3   3 -17   -0.50    1.16
  -3   3  17    0.58    1.09
  -3   3  17    1.44    1.03
  -2  -3  17    8.11    1.24
   2  -3 -17    8.37    1.27
  -2  -3  17    7.50    1.13
  -2   3  17    7.06    1.20
   2   3 -17    6.18    1.37
  -2   3  17    6.83    0.61
   2   3 -17    5.76    1.21
   1  -3 -17   -1.10    0.92
  -1  -3  17    0.43    0.48
  -1  -3  17    0.99    0.95
  -1  -3  17    1.06    0.94
   1   3 -17    1.36    1.07
   1   3 -17    1.12    1.14
  -1   3  17   -0.48    0.81
   0  -3 -17    0.39    0.87
   0  -3  17    1.26    0.94
   0  -3 -17    0.88    1.09
   0  -3  17    1.39    0.97
   0   3 -17   -0.13    1.01
   0   3 -17    1.05    1.15
  -1  -3 -17    1.30    1.04
   1  -3  17    0.55    0.99
  -1  -3 -17   -0.16    0.96
   1  -3  17    0.72    1.03
  -1   3 -17    0.65    0.77
   1   3  17    1.16    1.09
  -1   3 -17    0.46    1.09
  -2  -3 -17    6.84    1.21
   2  -3  17    7.73    1.43
  -2  -3 -17    7.82    1.25
   2  -3  17    5.97    1.30
  -2   3 -17    6.97    1.37
   2   3  17    6.68    1.32
  -2   3 -17    4.44    1.02
   3  -3  17    0.86    1.24
  -3  -3 -17   -1.04    1.19
   3  -3  17    0.18    1.25
  -3  -3 -17   -0.27    1.14
  -3   3 -17   -0.54    1.26
  -3   3 -17   -0.27    1.40
   3   3  17   -0.57    1.35
  -4  -3 -17    0.53    1.46
   4  -3  17    3.09    1.47
   4  -3  17    2.09    1.41
  -4   3 -17    0.21    1.16
   4   3  17   -0.04    1.62
  -4   3 -17    2.08    1.66
  -4  -4  17    1.35    1.36
  -4  -4  17    0.42    1.58
   4  -4 -17   -0.76    2.29
  -4   4  17    0.05    1.49
   4   4 -17   -2.12    2.04
  -4   4  17    0.04    1.06
  -3  -4  17    0.71    1.37
  -3  -4  17    1.15    1.24
   3  -4 -17    1.37    1.26
   3   4 -17    2.78    1.45
  -3   4  17    2.97    1.28
   3   4 -17    1.31    1.30
   3   4 -17    0.74    1.43
  -2  -4  17    4.00    1.19
   2  -4 -17    2.47    1.12
  -2  -4  17    3.02    1.31
  -2   4  17    1.80    1.10
   2   4 -17    0.68    1.28
   2   4 -17    1.99    1.34
   1  -4 -17    3.11    1.17
  -1  -4  17    1.63    1.37
  -1  -4  17    1.31    1.00
   1   4 -17    0.48    1.08
  -1   4  17    1.10    0.98
   1   4 -17    2.65    1.15
   0  -4  17    1.14    1.17
   0  -4  17    1.29    1.35
   0  -4 -17    0.31    1.05
   0   4  17    0.18    1.04
   0   4 -17    0.54    1.12
   0   4 -17   -0.13    1.07
   1  -4  17    3.88    1.53
  -1  -4 -17    4.42    1.24
   1  -4  17    4.18    1.26
  -1   4 -17    5.69    1.51
  -1   4 -17    4.87    1.35
   1   4  17    3.30    1.16
   2  -4  17   -0.41    1.22
  -2  -4 -17    0.91    1.23
   2  -4  17   -0.48    1.32
  -2   4 -17   -0.04    1.37
  -2   4 -17    0.59    1.17
   2   4  17    1.06    1.47
  -3  -4 -17   -1.54    1.39
   3  -4  17   -0.42    1.38
   3  -4  17    0.64    1.57
  -3   4 -17   -0.13    1.70
  -3   4 -17   -0.63    1.19
   3   4  17    0.75    1.67
  -2  -5  17    0.90    1.48
  -2  -5  17   -0.49    1.58
   2  -5 -17    0.70    1.72
   2   5 -17    0.37    1.44
   2   5 -17    0.43    1.63
  -2   5  17    0.22    1.48
   1  -5 -17    6.83    1.42
   1   5 -17    8.64    3.39
   1   5 -17    7.09    1.53
  -1   5  17    9.09    1.45
   0  -5  17   15.58    1.92
   0  -5 -17   14.99    1.72
   0  -5  17   16.06    3.14
   0   5  17   18.57    2.40
   0   5 -17   14.25    2.23
   0   5 -17   14.13    1.75
  -1  -5 -17   -0.79    1.33
  -1   5 -17    0.51    1.66
  -1   5 -17   -0.65    1.18
   1   5  17   -1.01    1.50
   2  -5  17    3.37    1.87
  -2  -5 -17   -1.54    1.42
   2  -5  17    2.04    1.63
   2   5  17    1.45    1.61
  -2   5 -17   -0.47    1.85
  -5   0  18   19.72    1.84
   5   0 -18   19.97    2.00
  -5   0  18   18.99    1.60
  -5   0  18   21.23    1.96
   5   0 -18   18.59    1.90
  -4   0  18    2.60    1.19
   4   0 -18    4.27    1.28
  -4   0  18    1.90    0.92
  -4   0  18    2.43    1.14
   4   0 -18    5.15    1.27
   3   0 -18   33.15    2.48
  -3   0  18   34.59    2.30
   3   0 -18   34.03    2.34
   3   0 -18   33.24    2.41
  -3   0  18   34.75    2.18
  -2   0  18    2.50    0.91
  -2   0  18    1.42    0.47
   2   0 -18    1.75    1.06
   2   0 -18    2.84    1.01
  -2   0  18    1.89    1.10
  -1   0  18    0.79    0.93
  -1   0  18    1.32    0.85
   1   0 -18    0.85    0.91
   1   0 -18    0.22    0.84
   0   0  18   53.11    2.79
   0   0 -18   55.24    3.05
   0   0 -18   53.52    3.10
   0   0  18   52.13    3.01
   1   0  18   29.21    2.01
  -1   0 -18   28.92    2.10
   1   0  18   30.21    2.17
  -1   0 -18   32.32    2.23
   2   0  18   19.06    1.88
  -2   0 -18   22.74    1.96
   3   0  18    1.33    1.07
  -3   0 -18    1.34    1.06
   4   0  18   42.64    2.98
  -4   0 -18   45.70    3.02
  -5   0 -18   10.64    1.74
   5   0  18    9.08    1.72
  -5  -1  18    1.69    1.33
  -5  -1  18    0.90    1.23
   5  -1 -18    1.19    1.48
   5   1 -18    0.50    1.39
  -5   1  18    0.52    1.23
   5   1 -18   -0.30    1.33
  -5   1  18    1.48    1.29
  -4  -1  18   13.14    1.38
   4  -1 -18   11.31    1.59
  -4  -1  18   16.55    1.59
  -4   1  18   10.54    1.30
  -4   1  18   11.98    1.49
  -4   1  18   11.40    1.34
   4   1 -18   10.13    1.52
  -4   1  18   10.56    1.36
   4   1 -18   10.98    1.63
  -3  -1  18    1.05    1.03
  -3  -1  18   -0.50    0.93
  -3   1  18    1.04    0.96
  -3   1  18    0.12    0.87
  -3   1  18    0.33    1.03
  -3   1  18    0.40    0.88
   3   1 -18   -0.41    1.06
   3   1 -18   -0.43    1.06
   3   1 -18   -0.34    0.94
  -3   1  18   -1.66    1.14
  -2  -1  18    0.64    0.96
  -2  -1  18    0.71    0.94
  -2  -1  18   -0.32    0.57
   2  -1 -18   -0.13    0.97
  -2   1  18   -0.43    0.94
  -2   1  18   -0.38    0.81
   2   1 -18   -0.67    0.93
   2   1 -18    0.43    1.09
  -2   1  18   -0.14    0.79
   1  -1 -18    8.78    1.30
  -1  -1  18    9.02    1.26
  -1  -1  18    8.37    1.10
   1   1 -18    8.33    1.13
  -1   1  18    9.17    1.19
  -1   1  18    8.92    0.70
   1   1 -18    8.09    1.27
   0  -1 -18    1.15    0.71
   0  -1  18    0.87    0.93
   0  -1  18    0.62    0.85
   0   1  18   -0.41    0.41
   0   1 -18    1.13    0.88
   0   1  18    1.52    0.94
   0   1 -18    1.32    1.01
   1  -1  18   13.83    1.34
  -1  -1 -18   14.65    1.61
   1  -1  18   13.27    1.39
   1   1  18   16.84    1.47
  -1   1 -18   17.05    1.64
  -1   1 -18   12.76    1.51
  -2  -1 -18    3.87    0.99
   2  -1  18    2.12    1.03
   2  -1  18    1.66    1.04
   2   1  18    3.15    1.17
  -2   1 -18    2.40    1.06
  -2   1 -18    2.02    1.17
   3  -1  18    9.08    1.37
  -3  -1 -18   11.63    1.39
   3  -1  18   13.05    1.45
   3   1  18   13.07    1.52
  -3   1 -18   13.16    1.54
  -4  -1 -18    0.32    1.01
   4  -1  18   -0.52    1.17
  -4   1 -18   -0.44    0.95
   4   1  18   -0.82    1.21
  -5  -1 -18    9.88    1.62
   5   1  18   14.21    2.02
  -5   1 -18    9.32    2.10
   5  -2 -18   24.15    2.35
  -5  -2  18   21.71    2.02
  -5  -2  18   21.10    2.04
  -5   2  18   17.39    1.84
  -5   2  18   20.88    1.91
   5   2 -18   26.61    2.39
  -5   2  18   24.03    2.75
  -4  -2  18    1.26    1.06
  -4  -2  18    1.44    1.18
  -4   2  18    1.07    1.18
   4   2 -18    0.36    1.34
  -4   2  18    1.77    1.21
   4   2 -18    1.35    1.32
   4   2 -18    1.95    1.38
  -4   2  18    1.65    1.11
  -3  -2  18    1.93    1.00
   3  -2 -18    1.09    1.01
  -3  -2  18    0.65    1.07
   3   2 -18    1.53    1.19
  -3   2  18    1.25    1.07
   3   2 -18    2.74    1.30
  -3   2  18    1.04    1.09
   3   2 -18    1.12    1.18
  -3   2  18    2.48    1.11
  -3   2  18    1.14    0.97
  -2  -2  18   29.11    1.89
  -2  -2  18   28.37    2.16
   2  -2 -18   27.91    2.10
   2   2 -18   28.88    2.07
  -2   2  18   25.91    2.07
   2   2 -18   25.73    2.29
  -2   2  18   28.44    2.07
  -2   2  18   25.68    2.16
  -1  -2  18    6.73    1.21
   1  -2 -18    6.32    1.13
   1  -2 -18    5.85    1.04
  -1  -2  18    7.60    1.30
  -1   2  18    5.18    1.13
   1   2 -18    6.24    1.16
   1   2 -18    5.07    1.09
   0  -2  18   20.90    1.77
   0  -2 -18   17.82    1.73
   0  -2 -18   20.98    1.89
   0  -2  18   17.38    1.82
   0   2  18   18.61    1.88
   0   2 -18   17.55    1.94
   0   2 -18   17.96    1.78
   1  -2  18    0.59    1.05
  -1  -2 -18    1.61    0.99
  -1  -2 -18    1.30    0.89
   1  -2  18    0.08    0.97
   1   2  18    1.23    1.11
  -1   2 -18    0.89    1.16
  -1   2 -18    0.75    1.03
  -2  -2 -18   42.48    2.73
   2  -2  18   44.13    2.81
  -2  -2 -18   46.47    2.57
   2  -2  18   43.34    2.87
  -2   2 -18   42.45    2.73
   2   2  18   41.68    2.90
  -2   2 -18   42.89    2.93
  -3  -2 -18    7.56    1.38
   3  -2  18    7.39    1.42
   3  -2  18    7.26    1.34
  -3   2 -18    8.61    1.42
  -3   2 -18    5.75    1.11
   3   2  18    5.07    1.47
  -4  -2 -18   13.31    1.80
   4  -2  18   10.38    1.75
   4  -2  18   11.67    1.77
   4   2  18   10.86    1.70
   5  -2  18    0.01    1.81
  -5  -2 -18    2.92    2.03
   5   2  18    0.52    1.61
  -5   2 -18    1.75    1.49
  -4  -3  18    7.31    1.54
  -4  -3  18    7.27    1.35
   4  -3 -18    3.05    1.31
  -4   3  18    5.49    1.34
   4   3 -18    4.51    1.54
   4   3 -18    6.45    1.80
  -4   3  18    5.91    1.51
  -3  -3  18    2.05    1.22
   3  -3 -18    1.17    1.13
  -3  -3  18    1.44    1.21
   3   3 -18    1.83    1.30
   3   3 -18    1.59    1.37
  -3   3  18    2.37    1.11
  -3   3  18    2.27    1.24
   3   3 -18    2.68    1.25
  -3   3  18    2.68    1.17
  -2  -3  18    3.36    1.13
  -2  -3  18    4.78    1.13
   2  -3 -18    3.04    1.08
  -2   3  18    4.54    1.17
   2   3 -18    3.62    1.21
   2   3 -18    4.83    1.29
   1  -3 -18   11.45    1.43
  -1  -3  18   10.41    1.42
  -1  -3  18    7.57    1.26
   1   3 -18    9.73    1.32
   1   3 -18    8.15    1.43
  -1   3  18    9.46    1.39
   0  -3 -18    6.61    1.21
   0  -3  18    4.61    1.18
   0  -3  18    4.50    1.27
   0   3  18    6.47    1.23
   0   3 -18    6.85    1.55
   0   3 -18    3.55    1.09
  -1  -3 -18   13.39    1.50
  -1  -3 -18   16.50    1.54
   1  -3  18   15.95    1.67
   1  -3  18   16.01    1.71
  -1   3 -18   17.38    1.83
  -1   3 -18   14.44    1.58
   1   3  18   15.81    1.61
   2  -3  18    7.06    1.40
  -2  -3 -18    7.29    1.40
  -2  -3 -18    8.40    1.35
   2  -3  18    9.53    1.58
   2   3  18    8.66    1.57
  -2   3 -18    5.53    1.28
  -2   3 -18    9.58    1.67
  -3  -3 -18    9.27    1.51
  -3  -3 -18    9.12    1.67
   3  -3  18    8.10    1.80
   3  -3  18   11.25    1.63
   3   3  18   11.12    1.72
  -3   3 -18   10.63    1.72
  -3   3 -18    5.98    1.34
   4  -3  18    5.47    2.24
  -4  -3 -18    6.39    1.67
   4  -3  18    6.74    1.83
  -4   3 -18    7.60    1.97
   4   3  18    6.32    1.93
  -4   3 -18    7.63    2.10
  -3  -4  18   19.22    1.93
   3  -4 -18   15.91    1.74
  -3   4  18   12.23    1.54
   3   4 -18   13.05    3.17
  -3   4  18   13.36    1.77
   3   4 -18   16.90    1.87
   2  -4 -18    3.96    1.35
  -2  -4  18    4.34    1.34
  -2  -4  18    3.82    1.38
  -2   4  18    3.11    1.26
   2   4 -18    1.85    1.29
   2   4 -18    3.86    1.51
  -1  -4  18    2.68    1.50
  -1  -4  18    6.34    1.26
   1  -4 -18    5.55    1.33
   1   4 -18    2.57    1.43
  -1   4  18    3.14    1.15
   1   4 -18    4.38    1.33
   0  -4  18   27.17    2.46
   0  -4 -18   30.85    2.47
   0  -4  18   34.31    2.79
   0   4  18   30.60    2.47
   0   4 -18   30.40    2.76
   0   4 -18   31.41    2.48
   1  -4  18   11.19    1.86
   1  -4  18   10.04    1.52
  -1  -4 -18   13.70    1.65
  -1   4 -18   13.15    1.69
  -1   4 -18   14.01    1.82
   1   4  18    6.90    1.40
   2  -4  18    8.94    1.81
   2  -4  18    8.35    1.70
  -2  -4 -18    6.90    1.57
  -2   4 -18    5.15    1.30
   2   4  18    9.09    1.81
  -2   4 -18   10.41    1.72
   3  -4  18    6.07    1.69
   3  -4  18    4.89    2.00
  -3  -4 -18    5.61    1.74
  -3   4 -18    1.98    1.39
   3   4  18    4.05    2.00
  -3   4 -18    4.28    2.00
  -5   0  19    0.77    1.48
   5   0 -19   -1.28    1.48
   5   0 -19    2.41    1.52
  -5   0  19    0.32    1.48
  -4   0  19   -1.47    0.94
  -4   0  19   -0.13    1.18
   4   0 -19   -0.20    1.24
  -4   0  19   -0.05    1.25
   4   0 -19    0.93    1.19
   3   0 -19    0.24    1.15
  -3   0  19    0.57    0.94
   3   0 -19   -0.30    1.16
  -3   0  19   -1.11    1.01
  -3   0  19    0.30    1.09
  -3   0  19    0.51    1.26
   2   0 -19   -0.52    1.15
  -2   0  19   -0.57    1.13
  -2   0  19   -0.40    0.48
  -2   0  19   -0.43    0.97
   2   0 -19   -0.41    1.07
   1   0 -19    1.04    1.04
  -1   0  19   -1.07    0.98
  -1   0  19   -0.28    0.88
   1   0 -19   -0.82    0.90
   0   0  19    0.32    1.06
   0   0 -19   -0.55    0.89
   0   0 -19    0.35    0.96
   0   0  19   -0.09    0.92
   1   0  19   -1.14    1.07
  -1   0 -19   -0.32    0.89
   1   0  19   -0.85    0.94
   2   0  19   -0.42    1.05
  -2   0 -19    0.99    0.92
   2   0  19    1.61    1.08
  -3   0 -19    0.29    1.36
   3   0  19    0.66    1.22
   4   0  19   -0.84    1.28
  -4   0 -19   -0.54    1.29
  -5   0 -19   -0.01    1.45
   5   0  19    0.28    1.75
  -5  -1  19    2.65    1.45
   5  -1 -19    0.24    1.72
  -5  -1  19   -0.09    1.48
   5   1 -19   -0.71    1.57
  -5   1  19    1.67    1.44
  -5   1  19    0.34    1.32
  -5   1  19   -0.89    1.61
  -4  -1  19    0.85    1.20
  -4  -1  19   -0.04    1.27
  -4   1  19    0.46    1.49
   4   1 -19    0.50    1.18
  -4   1  19    0.61    1.15
  -4   1  19    1.68    1.20
  -4   1  19    0.61    1.22
  -4   1  19    1.23    1.38
   4   1 -19    2.81    1.49
  -3  -1  19   -0.68    1.00
  -3  -1  19    0.86    1.15
   3   1 -19    0.83    1.15
  -3   1  19    1.91    1.08
   3   1 -19    0.71    1.24
   3   1 -19    0.06    1.21
  -3   1  19    0.08    1.28
  -3   1  19    1.89    1.12
  -3   1  19   -0.45    0.97
  -3   1  19    1.42    1.02
  -2  -1  19    0.21    0.50
  -2  -1  19    0.16    1.15
  -2  -1  19   -0.14    1.01
   2  -1 -19   -0.02    1.09
   2   1 -19    0.34    0.99
  -2   1  19    0.71    1.15
  -2   1  19    0.99    0.89
  -2   1  19    1.27    0.97
   2   1 -19    0.08    1.01
  -1  -1  19    3.51    1.06
   1  -1 -19    4.40    1.20
  -1  -1  19    4.80    1.17
  -1   1  19    4.59    0.96
  -1   1  19    4.40    1.23
   1   1 -19    4.83    1.17
   1   1 -19    4.22    1.22
   0  -1 -19    5.32    1.02
   0  -1  19    8.67    1.24
   0  -1  19    9.63    1.28
   0   1 -19    9.15    1.34
   0   1 -19   10.53    1.44
   0   1  19    9.28    1.31
   0   1  19    7.02    0.77
   1  -1  19    2.62    1.15
   1  -1  19    3.36    1.11
  -1  -1 -19    4.37    1.10
   1   1  19    3.62    1.16
  -1   1 -19    4.84    1.29
  -1   1 -19    7.09    1.34
  -2  -1 -19   -0.12    1.10
   2  -1  19   -0.27    1.04
   2  -1  19   -0.70    1.06
  -2   1 -19    0.08    0.86
   2   1  19   -0.55    1.10
  -2   1 -19   -0.44    1.09
  -3  -1 -19    1.87    1.06
   3  -1  19    1.34    1.31
   3  -1  19    3.43    1.30
  -3   1 -19    1.86    1.22
   3   1  19    1.41    1.28
  -4  -1 -19    1.34    1.21
   4  -1  19    5.23    1.44
   4   1  19    2.88    1.44
  -4   1 -19    4.19    1.53
  -4  -2  19   -0.04    1.37
  -4  -2  19    0.72    1.23
   4   2 -19    1.41    1.43
   4   2 -19    1.40    1.55
  -4   2  19   -0.36    1.19
   4   2 -19   -0.64    1.44
  -4   2  19    0.66    1.26
  -4   2  19    0.48    1.44
  -4   2  19    0.14    1.33
  -3  -2  19    0.23    1.06
   3  -2 -19    1.02    1.11
  -3  -2  19    1.94    1.18
   3   2 -19    1.90    1.45
  -3   2  19   -0.27    1.08
  -3   2  19   -0.59    1.25
  -3   2  19    0.42    1.18
  -3   2  19    1.51    1.19
   3   2 -19   -0.48    1.34
  -3   2  19    0.26    1.17
   3   2 -19    1.75    1.25
   2  -2 -19   -1.48    0.95
  -2  -2  19   -0.87    1.04
  -2  -2  19    0.53    1.04
  -2   2  19    0.08    1.01
  -2   2  19    0.23    1.10
   2   2 -19   -0.49    1.14
   2   2 -19    0.33    1.11
  -2   2  19    0.53    0.95
  -2   2  19    0.72    1.02
  -1  -2  19    1.85    1.15
   1  -2 -19    1.72    1.09
  -1  -2  19    2.24    1.05
   1  -2 -19    1.96    1.08
   1   2 -19    2.68    1.16
  -1   2  19    2.91    0.92
   1   2 -19    0.47    1.05
  -1   2  19    0.96    1.11
   0  -2 -19    2.70    1.11
   0  -2  19    1.41    1.13
   0  -2  19    1.02    1.02
   0  -2 -19    1.85    1.09
   0   2  19    2.95    1.19
   0   2 -19    2.32    1.04
   0   2 -19    2.77    1.25
   1  -2  19   -1.18    1.12
  -1  -2 -19    0.01    1.10
   1  -2  19   -0.32    1.06
  -1  -2 -19   -0.10    1.14
  -1   2 -19    2.76    1.13
   1   2  19    0.05    1.20
  -1   2 -19    0.23    1.31
  -2  -2 -19    2.74    1.19
   2  -2  19    3.25    1.34
  -2  -2 -19    0.88    0.94
   2  -2  19    1.58    1.14
  -2   2 -19    2.16    1.43
   2   2  19    2.52    1.38
  -2   2 -19    1.93    1.00
   3  -2  19   -0.58    1.40
   3  -2  19    0.19    1.33
  -3  -2 -19    2.78    1.39
  -3   2 -19   -0.77    1.36
  -3   2 -19    1.22    1.01
   3   2  19    1.74    1.50
  -4  -2 -19    0.19    1.44
   4  -2  19   -0.61    1.69
   4   2  19    0.35    1.59
  -4  -3  19    9.98    1.80
   4   3 -19   11.53    2.71
  -4   3  19    7.85    1.74
  -4   3  19    9.82    1.55
   4   3 -19   10.99    1.88
  -4   3  19   12.31    1.81
  -3  -3  19    2.51    1.37
  -3  -3  19    0.04    1.23
   3  -3 -19    0.92    1.30
   3   3 -19    1.41    1.75
  -3   3  19    0.47    1.36
   3   3 -19    1.80    1.60
   3   3 -19   -0.32    1.47
  -3   3  19   -0.27    1.19
  -2  -3  19    3.79    1.18
  -2  -3  19    3.42    1.17
  -2  -3  19    1.91    1.28
   2  -3 -19    3.21    1.18
  -2   3  19    3.10    1.27
   2   3 -19    4.03    1.47
   2   3 -19    1.88    1.47
   1  -3 -19    7.46    1.32
  -1  -3  19    5.55    1.35
  -1  -3  19    5.04    1.53
  -1   3  19    6.08    1.30
   1   3 -19    5.29    1.30
   1   3 -19    9.04    1.47
   0  -3  19    1.39    1.21
   0  -3 -19    3.34    1.26
   0  -3  19    1.69    1.24
   0   3  19    1.17    1.31
   0   3 -19    1.18    1.47
   0   3 -19    3.37    1.30
  -1  -3 -19    4.43    1.21
   1  -3  19    2.48    1.38
  -1  -3 -19    2.58    1.35
   1  -3  19    1.93    1.37
   1   3  19    4.57    1.46
  -1   3 -19    2.54    1.16
  -1   3 -19    5.74    1.54
   2  -3  19    1.51    1.39
  -2  -3 -19   -0.13    1.19
   2  -3  19    4.11    1.47
  -2  -3 -19    0.62    1.38
   2   3  19    0.03    1.50
  -2   3 -19   -0.10    1.43
  -2   3 -19    0.57    1.20
   3  -3  19    2.40    1.63
  -3  -3 -19    5.32    1.65
   3   3  19    4.91    1.83
  -3   3 -19    4.48    1.68
  -2  -4  19    1.73    1.58
   2  -4 -19    1.72    1.41
   2   4 -19    4.41    1.80
   2   4 -19    1.99    1.62
  -2   4  19    0.00    1.31
   1  -4 -19    1.00    1.39
  -1  -4  19    2.69    1.36
   1   4 -19    1.46    1.41
  -1   4  19    1.86    1.38
   0  -4  19    9.18    2.85
   0  -4 -19    6.39    1.56
   0  -4  19    6.44    1.58
   0   4 -19    9.67    1.78
   0   4 -19    9.58    2.02
   0   4  19    6.88    1.36
  -1  -4 -19    1.21    1.54
   1  -4  19    0.46    1.45
   1  -4  19    1.73    2.06
  -1   4 -19    1.48    1.56
  -1   4 -19    3.33    1.91
   2  -4  19    4.80    1.88
  -2  -4 -19    3.51    1.72
   2  -4  19    4.40    1.71
   2   4  19    6.77    3.20
  -2   4 -19    3.32    1.36
  -4   0  20   13.28    1.72
  -4   0  20   12.54    1.61
   4   0 -20   11.35    1.68
   4   0 -20   15.86    1.96
   3   0 -20    1.82    1.26
  -3   0  20    1.29    1.55
  -3   0  20    0.80    1.09
  -3   0  20    2.46    1.14
  -3   0  20    1.76    1.21
   3   0 -20    0.62    1.16
  -2   0  20   18.36    1.21
  -2   0  20   21.01    1.20
   2   0 -20   21.46    2.17
  -2   0  20   23.26    2.00
   2   0 -20   18.35    1.79
  -2   0  20   18.94    1.99
  -1   0  20    0.43    1.08
   1   0 -20    0.16    1.01
  -1   0  20    0.74    1.20
   1   0 -20   -0.96    1.15
   0   0  20   10.98    1.55
   0   0 -20    8.84    1.41
   0   0 -20    9.74    1.39
   0   0  20   10.66    1.26
   1   0  20    9.45    1.46
   1   0  20    9.27    1.23
  -1   0 -20    8.65    1.39
   2   0  20   26.56    2.37
  -2   0 -20   30.94    2.47
   2   0  20   28.65    2.17
  -3   0 -20   -0.02    1.16
   3   0  20   -0.90    1.23
  -4   0 -20    4.92    2.31
   4   0  20   -1.22    1.52
  -4  -1  20   -0.66    1.32
  -4  -1  20    1.17    1.39
  -4   1  20    0.07    1.72
   4   1 -20    0.51    1.38
  -4   1  20   -0.21    1.27
   4   1 -20   -0.05    1.46
  -4   1  20   -0.06    1.32
  -4   1  20    0.41    1.26
  -4   1  20    0.26    1.48
  -3  -1  20   21.74    2.25
  -3  -1  20   23.93    2.66
  -3  -1  20   23.33    2.04
   3   1 -20   21.91    2.36
   3   1 -20   23.39    2.53
  -3   1  20   20.35    2.23
  -3   1  20   21.62    2.08
  -3   1  20   24.38    2.72
  -3   1  20   24.69    2.14
  -3   1  20   24.05    2.15
  -2  -1  20    0.36    1.20
   2  -1 -20    0.39    1.22
  -2  -1  20    0.16    1.31
  -2   1  20    0.23    1.02
  -2   1  20    0.11    1.31
  -2   1  20    2.28    1.12
   2   1 -20    1.11    1.20
   2   1 -20    0.78    1.12
  -2   1  20    0.68    1.04
  -1  -1  20   18.12    1.96
   1  -1 -20   18.67    1.79
  -1  -1  20   18.30    1.74
  -1   1  20   17.28    1.74
   1   1 -20   20.30    2.01
  -1   1  20   21.15    1.84
   1   1 -20   18.10    2.02
   0  -1  20    0.36    1.12
   0  -1  20    0.82    1.16
   0  -1 -20    3.80    1.30
   0   1  20    0.83    1.24
   0   1 -20    1.80    1.21
   0   1 -20    0.00    1.17
   1  -1  20   36.71    2.74
   1  -1  20   33.08    2.50
  -1  -1 -20   35.95    2.61
   1   1  20   35.34    2.74
  -1   1 -20   41.67    2.87
  -1   1 -20   39.10    2.68
   2  -1  20    0.77    1.26
   2  -1  20   -0.98    1.17
  -2  -1 -20    1.89    1.25
  -2   1 -20    0.78    1.27
  -2   1 -20    0.33    1.25
   2   1  20    0.18    1.30
   3  -1  20    9.63    1.60
   3  -1  20    7.78    1.45
  -3  -1 -20   10.53    1.56
   3   1  20    7.66    1.64
  -3   1 -20    7.50    1.38
   4  -1  20   -1.30    1.75
  -4  -1 -20    0.20    1.52
   4   1  20    0.25    1.46
  -4   1 -20   -1.92    1.64
  -4  -2  20   26.82    2.24
  -4  -2  20   28.66    2.24
  -4   2  20   28.25    2.85
   4   2 -20   30.34    3.17
   4   2 -20   29.30    3.02
   4   2 -20   25.56    2.98
  -4   2  20   25.18    2.68
  -4   2  20   24.65    2.56
  -4   2  20   26.95    2.75
  -3  -2  20    0.65    1.31
  -3  -2  20   -1.44    1.24
  -3   2  20    0.66    1.29
  -3   2  20    1.08    1.34
   3   2 -20   -0.19    1.51
   3   2 -20    0.51    1.45
  -3   2  20   -0.50    1.18
  -3   2  20    1.39    1.29
  -3   2  20   -1.53    1.42
   2  -2 -20    1.89    1.21
  -2  -2  20    2.94    1.33
  -2  -2  20    4.24    1.37
   2   2 -20    5.53    1.43
  -2   2  20    4.48    1.42
  -2   2  20    4.14    1.31
   2   2 -20    5.55    1.43
  -2   2  20    4.89    1.18
  -1  -2  20    9.95    1.58
  -1  -2  20    7.77    1.44
   1  -2 -20    9.44    1.44
   1  -2 -20    8.57    1.54
   1   2 -20    7.49    1.34
   1   2 -20    9.77    1.68
  -1   2  20    8.41    1.45
   0  -2 -20   22.78    2.27
   0  -2  20   29.02    2.35
   0  -2 -20   21.47    2.31
   0  -2  20   22.13    2.24
   0   2 -20   22.49    2.21
   0   2  20   21.75    1.90
   0   2 -20   22.32    2.52
   1  -2  20   -1.68    1.32
  -1  -2 -20   -0.31    1.27
   1  -2  20    1.45    1.20
  -1  -2 -20    0.94    1.34
   1   2  20   -0.65    1.35
  -1   2 -20   -0.80    1.34
  -1   2 -20   -0.01    1.03
   2  -2  20    2.08    1.40
   2  -2  20    2.99    1.47
  -2  -2 -20    3.06    1.15
   2   2  20    2.30    1.51
  -2   2 -20    2.99    1.38
  -2   2 -20    2.25    1.12
   3  -2  20    1.70    1.82
   3  -2  20    1.82    1.63
  -3  -2 -20    3.13    1.50
  -3   2 -20   -2.18    1.74
  -3   2 -20   -0.89    1.39
   3   2  20    2.80    1.64
   3  -3 -20   28.09    2.75
  -3  -3  20   31.61    2.82
   3   3 -20   27.16    3.00
   3   3 -20   35.72    3.40
  -3   3  20   27.03    2.89
  -3   3  20   25.93    2.61
  -2  -3  20    0.80    1.59
   2  -3 -20    1.98    1.41
  -2  -3  20    2.86    1.37
   2   3 -20    1.51    2.12
   2   3 -20    0.89    1.50
  -2   3  20    1.09    1.34
   1  -3 -20   30.00    2.57
  -1  -3  20   31.31    2.59
  -1  -3  20   30.64    2.92
   1   3 -20   28.11    2.62
   1   3 -20   30.45    3.05
  -1   3  20   27.46    2.58
   0  -3  20    0.45    1.40
   0  -3  20    1.13    1.43
   0  -3 -20   -0.60    1.34
   0   3 -20    0.94    1.13
   0   3 -20    3.35    1.46
   1  -3  20   24.90    2.44
  -1  -3 -20   21.68    2.49
   1  -3  20   20.62    2.18
  -1  -3 -20   24.90    2.52
  -1   3 -20   24.99    2.36
  -1   3 -20   26.09    2.40
   1   3  20   26.07    2.75
   2  -3  20    2.68    1.63
   2  -3  20    0.18    1.84
   2   3  20    2.81    1.83
  -2   3 -20    0.79    1.85
  -2   3 -20    0.02    1.54
  -4   0  21   -0.62    1.56
   4   0 -21    1.36    1.63
  -4   0  21   -1.90    1.48
  -4   0  21   -0.77    2.02
   3   0 -21    0.04    1.51
   3   0 -21   -1.55    1.42
  -3   0  21    0.07    1.35
  -3   0  21    0.04    1.21
  -3   0  21    0.22    1.80
  -3   0  21   -0.72    1.32
   2   0 -21   -0.59    1.28
  -2   0  21    0.09    1.45
   2   0 -21    1.25    1.27
  -2   0  21    0.69    1.26
  -1   0  21   -0.61    1.20
   1   0 -21    1.46    1.11
   1   0 -21    0.25    1.18
  -1   0  21    1.17    1.50
   0   0  21   -0.10    1.31
   0   0  21    0.46    1.16
   0   0 -21    0.91    1.07
  -1   0 -21    0.58    1.22
   1   0  21   -0.32    1.13
   1   0  21   -0.20    1.24
  -2   0 -21   -1.15    1.26
   2   0  21    0.11    1.29
   3   0  21   -0.85    1.45
  -3   0 -21    0.54    2.66
  -3  -1  21    3.19    1.75
  -3  -1  21    0.96    1.44
  -3   1  21    2.00    1.62
   3   1 -21    1.99    1.60
  -3   1  21    2.32    1.26
  -3   1  21    1.40    1.44
  -3   1  21    1.13    1.37
   3   1 -21    2.51    1.50
  -3   1  21    2.14    1.41
  -2  -1  21    4.28    1.56
  -2  -1  21    4.57    1.44
   2  -1 -21    3.18    1.45
   2   1 -21    5.93    1.61
   2   1 -21    4.77    1.37
  -2   1  21    3.43    1.62
  -2   1  21    3.92    1.24
  -2   1  21    5.50    1.28
  -1  -1  21   -1.16    1.27
   1  -1 -21    0.67    1.18
  -1  -1  21   -0.37    1.23
   1   1 -21    0.48    1.31
  -1   1  21   -0.92    1.35
  -1   1  21   -0.53    1.12
   1   1 -21   -0.15    1.28
   0  -1  21    0.20    1.31
   0  -1  21    2.26    1.25
   0  -1 -21   -0.78    1.14
   0   1 -21    0.77    1.31
   0   1 -21   -0.66    1.20
   0   1  21   -0.11    1.39
   1  -1  21    0.55    1.35
   1  -1  21    0.26    1.24
  -1  -1 -21    1.37    1.32
   1   1  21   -0.73    1.37
  -1   1 -21    1.80    1.19
  -1   1 -21    1.28    1.44
   2  -1  21    4.03    1.44
  -2  -1 -21    5.58    1.55
   2  -1  21    5.93    1.50
  -2   1 -21    6.46    1.59
   2   1  21    6.74    1.57
   3  -1  21   -0.41    1.61
  -3  -1 -21   -0.89    1.29
  -3   1 -21    2.60    1.63
   3   1  21    0.90    1.70
  -3  -2  21    1.28    1.54
  -3   2  21   -0.51    1.49
   3   2 -21    0.59    1.72
  -3   2  21    0.51    1.37
  -3   2  21    0.45    1.44
   3   2 -21   -0.48    2.81
  -2  -2  21    0.43    1.52
  -2  -2  21   -0.05    1.44
   2   2 -21    1.04    1.65
  -2   2  21   -1.02    1.47
   2   2 -21    0.18    1.53
  -2   2  21    0.32    1.50
  -1  -2  21    1.44    1.44
  -1  -2  21    0.59    1.32
   1  -2 -21    0.97    1.34
   1   2 -21   -0.58    1.40
  -1   2  21   -0.28    1.42
   1   2 -21    2.06    1.48
   0  -2 -21   -0.84    1.44
   0  -2  21    0.66    1.47
   0  -2  21   -0.13    1.30
   0   2 -21    0.38    1.32
   0   2 -21    0.53    1.32
   0   2  21   -0.34    1.42
  -1  -2 -21    6.60    1.65
   1  -2  21    8.16    1.63
   1  -2  21    6.58    1.65
  -1   2 -21    3.30    1.34
  -1   2 -21    7.28    1.88
   1   2  21    4.45    1.66
   2  -2  21    0.68    1.58
  -2  -2 -21    1.81    1.99
   2  -2  21    3.00    2.70
  -2   2 -21    1.66    1.61
   2   2  21    1.53    1.74
  -1  -3  21    1.15    1.61
  -1  -3  21    1.12    1.50
   1  -3 -21    0.71    1.59
   1   3 -21    0.51    1.48
  -1   3  21   -0.19    1.51
   1   3 -21    2.76    1.75
   0  -3  21   10.33    1.98
   0  -3 -21    8.28    1.79
   0  -3  21    7.11    1.73
   0   3 -21    8.30    1.64
   0   3 -21    9.56    1.98
   1  -3  21   10.10    1.92
  -1  -3 -21   11.19    1.86
   1  -3  21   12.69    2.26
  -1  -3 -21   12.71    2.07
   1   3  21    9.26    1.89
  -1   3 -21   11.97    2.25
   3   0 -22    3.42    1.78
  -3   0  22    2.11    1.60
  -3   0  22    5.44    2.21
   2   0 -22    1.65    1.46
  -2   0  22    0.50    1.39
  -2   0  22    1.74    1.73
   2   0 -22   -1.09    1.51
   1   0 -22   19.81    2.03
  -1   0  22   17.53    2.12
  -1   0  22   17.26    1.81
   0   0  22    2.28    1.35
   0   0  22    4.41    1.62
   0   0 -22    3.42    1.48
  -1   0 -22   29.15    2.76
   1   0  22   26.19    2.90
   2   0  22    0.46    1.56
  -2   0 -22    0.45    1.32
   2  -1 -22   11.67    1.83
  -2  -1  22   12.34    1.86
  -2  -1  22   12.43    1.81
   2   1 -22   11.36    1.90
  -2   1  22   12.55    2.02
  -2   1  22   11.71    1.55
   1  -1 -22   -0.63    1.47
  -1  -1  22    1.00    1.54
  -1  -1  22    1.00    1.49
  -1   1  22    1.56    1.61
   1   1 -22    0.89    1.91
   1   1 -22   -0.05    1.29
   0  -1 -22   23.78    2.71
   0  -1  22   26.74    2.79
   0  -1  22   26.60    2.53
   0   1 -22   23.35    2.40
   0   1  22   28.78    2.40
   0   1 -22   26.86    2.68
   1  -1  22    0.73    1.50
   1  -1  22    0.77    1.58
   1   1  22    0.77    1.59
  -1   1 -22   -0.89    1.25
  -2  -1 -22   31.70    2.96
   2  -1  22   32.87    2.84
   2   1  22   32.23    3.26
  -2   1 -22   31.41    3.10
  -1  -2  22    0.79    1.69
   1  -2 -22    2.64    1.90
  -1   2  22    2.18    1.68
   1   2 -22   -0.02    1.82
   1   2 -22    0.84    1.56
   0  -2  22    0.68    1.67
   0  -2 -22    0.95    1.49
   0  -2  22    2.61    3.15
   0   2 -22    2.65    1.42
   0   2 -22    1.81    1.74
   0   2  22    1.46    1.65
   1  -2  22   26.87    2.44
  -1  -2 -22   30.19    2.75
   1  -2  22   25.39    2.54
  -1   2 -22   27.85    2.84
   1   2  22   24.37    2.46
  -1   2 -22   28.69    3.21
   0   0  23    1.32    1.76
   0   0 -23   -0.34    1.72
   0   0   0    0.00    0.00
;
_shelx_hkl_checksum              64270
loop_
_space_group_symop_operation_xyz
'x, y, z'
'-x, y+1/2, -z+1/2'
'-x, -y, -z'
'x, -y-1/2, z-1/2'
loop_
_atom_site_label
_atom_site_type_symbol
_atom_site_fract_x
_atom_site_fract_y
_atom_site_fract_z
_atom_site_U_iso_or_equiv
_atom_site_adp_type
_atom_site_occupancy
_atom_site_site_symmetry_order
_atom_site_calc_flag
_atom_site_refinement_flags_posn
_atom_site_refinement_flags_adp
_atom_site_refinement_flags_occupancy
_atom_site_disorder_assembly
_atom_site_disorder_group
S1 S 0.25633(6) 0.27259(7) 0.32710(2) 0.01546(11) Uani 1 1 d . . . . .
Mg2 Mg 0.000000 0.500000 0.500000 0.01458(17) Uani 1 2 d S . P . .
N1 N 0.2702(3) -0.0409(3) 0.32022(10) 0.0258(3) Uani 1 1 d D . . . .
HN11 H 0.391(3) -0.078(4) 0.2825(12) 0.031 Uiso 1 1 d D U . . .
HN12 H 0.142(3) -0.103(4) 0.2898(14) 0.031 Uiso 1 1 d D U . . .
OW1 O -0.1915(2) 0.7594(2) 0.43372(8) 0.0239(3) Uani 1 1 d D . . . .
HW11 H -0.198(4) 0.910(5) 0.4499(16) 0.036 Uiso 1 1 d D U . . .
HW12 H -0.211(4) 0.764(5) 0.3823(16) 0.036 Uiso 1 1 d D U . . .
OW2 O 0.2648(2) 0.7512(2) 0.49587(9) 0.0227(3) Uani 1 1 d D . . . .
HW21 H 0.361(4) 0.712(5) 0.5212(17) 0.034 Uiso 1 1 d D U . . .
HW22 H 0.292(4) 0.784(5) 0.4443(16) 0.034 Uiso 1 1 d D U . . .
O1 O 0.0765(2) 0.3194(3) 0.38517(8) 0.0240(3) Uani 1 1 d . . . . .
O2 O 0.2116(2) 0.3797(3) 0.24122(8) 0.0314(3) Uani 1 1 d . . . . .
O3 O 0.4660(2) 0.3531(3) 0.36227(10) 0.0339(3) Uani 1 1 d . . . . .
loop_
_atom_site_aniso_label
_atom_site_aniso_U_11
_atom_site_aniso_U_22
_atom_site_aniso_U_33
_atom_site_aniso_U_23
_atom_site_aniso_U_13
_atom_site_aniso_U_12
S1 0.01828(18) 0.01737(18) 0.01083(17) -0.00049(13) 0.00199(12) 0.00051(13)
Mg2 0.0173(3) 0.0147(3) 0.0119(3) -0.0013(3) 0.0020(3) 0.0004(3)
N1 0.0325(8) 0.0182(6) 0.0271(7) -0.0006(6) 0.0098(6) 0.0029(6)
OW1 0.0370(7) 0.0186(6) 0.0159(6) -0.0007(5) -0.0048(5) 0.0053(5)
OW2 0.0234(6) 0.0213(6) 0.0235(6) -0.0015(5) 0.0024(5) -0.0031(5)
O1 0.0236(6) 0.0296(6) 0.0193(6) -0.0091(5) 0.0073(5) 0.0008(5)
O2 0.0538(9) 0.0281(7) 0.0121(5) 0.0037(5) 0.0006(5) 0.0038(6)
O3 0.0214(6) 0.0397(8) 0.0403(8) -0.0034(7) -0.0034(5) -0.0058(6)
loop_
_atom_type_symbol
_atom_type_description
_atom_type_scat_dispersion_real
_atom_type_scat_dispersion_imag
_atom_type_scat_source
N N 0.0061 0.0033 'International Tables Vol C Tables 4.2.6.8 and 6.1.1.4'
H H 0.0000 0.0000 'International Tables Vol C Tables 4.2.6.8 and 6.1.1.4'
O O 0.0106 0.0060 'International Tables Vol C Tables 4.2.6.8 and 6.1.1.4'
Mg Mg 0.0486 0.0363 'International Tables Vol C Tables 4.2.6.8 and 6.1.1.4'
S S 0.1246 0.1234 'International Tables Vol C Tables 4.2.6.8 and 6.1.1.4'
loop_
_geom_angle_atom_site_label_1
_geom_angle_atom_site_label_2
_geom_angle_atom_site_label_3
_geom_angle
_geom_angle_site_symmetry_1
_geom_angle_site_symmetry_3
_geom_angle_publ_flag
O3 S1 O2 111.71(9) . . ?
O3 S1 O1 113.77(8) . . ?
O2 S1 O1 111.23(8) . . ?
O3 S1 N1 105.60(9) . . ?
O2 S1 N1 109.68(8) . . ?
O1 S1 N1 104.37(8) . . ?
OW1 Mg2 OW1 180.00(7) 3_566 . ?
OW1 Mg2 O1 88.71(5) 3_566 . ?
OW1 Mg2 O1 91.29(5) . . ?
OW1 Mg2 O1 91.29(5) 3_566 3_566 ?
OW1 Mg2 O1 88.71(5) . 3_566 ?
O1 Mg2 O1 180.0 . 3_566 ?
OW1 Mg2 OW2 89.99(6) 3_566 . ?
OW1 Mg2 OW2 90.01(6) . . ?
O1 Mg2 OW2 93.96(5) . . ?
O1 Mg2 OW2 86.04(5) 3_566 . ?
OW1 Mg2 OW2 90.01(6) 3_566 3_566 ?
OW1 Mg2 OW2 89.99(6) . 3_566 ?
O1 Mg2 OW2 86.04(5) . 3_566 ?
O1 Mg2 OW2 93.96(5) 3_566 3_566 ?
OW2 Mg2 OW2 180.0 . 3_566 ?
S1 O1 Mg2 142.38(8) . . ?
loop_
_geom_bond_atom_site_label_1
_geom_bond_atom_site_label_2
_geom_bond_distance
_geom_bond_site_symmetry_2
_geom_bond_publ_flag
S1 O3 1.4401(13) . ?
S1 O2 1.4478(13) . ?
S1 O1 1.4532(12) . ?
S1 N1 1.6477(16) . ?
Mg2 OW1 2.0444(12) 3_566 ?
Mg2 OW1 2.0444(12) . ?
Mg2 O1 2.0606(11) . ?
Mg2 O1 2.0606(11) 3_566 ?
Mg2 OW2 2.0886(13) . ?
Mg2 OW2 2.0886(13) 3_566 ?
