#------------------------------------------------------------------------------
#$Date: 2022-08-09 02:11:49 +0300 (Tue, 09 Aug 2022) $
#$Revision: 277157 $
#$URL: file:///home/coder/svn-repositories/cod/cif/7/71/09/7710915.cif $
#------------------------------------------------------------------------------
#
# This file is available in the Crystallography Open Database (COD),
# http://www.crystallography.net/
#
# All data on this site have been placed in the public domain by the
# contributors.
#
data_7710915
loop_
_publ_author_name
'Mitzel, Norbert Werner'
'Aders, Niklas'
'Lamm, Jan-Hendrik'
'Beckmann, Jean Louis'
'Neumann, Beate'
'Stammler, Georg'
_publ_section_title
;
 Synthesis of bi- and tetradentate poly-Lewis acids by hydroalumination of
 poly-alkynyl-anthracene derivatives
;
_journal_name_full               'Dalton Transactions'
_journal_paper_doi               10.1039/D2DT02118H
_journal_year                    2022
_chemical_formula_moiety         'C16 H8 F6 O6 S2'
_chemical_formula_sum            'C16 H8 F6 O6 S2'
_chemical_formula_weight         474.361
_space_group_crystal_system      triclinic
_space_group_IT_number           2
_space_group_name_Hall           '-P 1'
_space_group_name_H-M_alt        'P -1'
_symmetry_Int_Tables_number      2
_atom_sites_solution_primary     dual
_audit_creation_date             2021-11-03
_audit_creation_method
;
Olex2 1.5-alpha
(compiled 2021.10.07 svn.r9718050b for OlexSys, GUI svn.r6410)
;
_audit_update_record
;
2022-04-01 deposited with the CCDC.	2022-08-08 downloaded from the CCDC.
;
_cell_angle_alpha                69.951(2)
_cell_angle_beta                 73.313(2)
_cell_angle_gamma                76.994(2)
_cell_formula_units_Z            1
_cell_length_a                   5.8009(2)
_cell_length_b                   8.5919(2)
_cell_length_c                   9.7054(2)
_cell_measurement_reflns_used    24062
_cell_measurement_temperature    100.0(1)
_cell_measurement_theta_max      36.5080
_cell_measurement_theta_min      2.2840
_cell_volume                     430.94(2)
_computing_cell_refinement       'CrysAlisPro 1.171.41.119a (Rigaku OD, 2021)'
_computing_data_collection       'CrysAlisPro 1.171.41.119a (Rigaku OD, 2021)'
_computing_data_reduction        'CrysAlisPro 1.171.41.119a (Rigaku OD, 2021)'
_computing_molecular_graphics    'Olex2 1.5-alpha (Dolomanov et al., 2009)'
_computing_publication_material  'Olex2 1.5-alpha (Dolomanov et al., 2009)'
_computing_structure_refinement  'olex2.refine 1.5-alpha (Bourhis et al., 2015)'
_computing_structure_solution    'SHELXT 2018/2 (Sheldrick, 2018)'
_diffrn_ambient_environment      N~2~
_diffrn_ambient_temperature      100.0(1)
_diffrn_detector                 'CCD plate'
_diffrn_detector_area_resol_mean 8.0951
_diffrn_detector_type            Eos
_diffrn_measured_fraction_theta_full 0.9942
_diffrn_measured_fraction_theta_max 0.9600
_diffrn_measurement_details
;
List of Runs (angles in degrees, time in seconds):

  # Type    Start    End  Width  t~exp~   \w     \q     \k     \f   Frames
#--------------------------------------------------------------------------
  1  \w    -35.00 107.00   1.00   10.00    --   35.84   0.00-150.00  142
  2  \w    -35.00 107.00   1.00   10.00    --   35.84   0.00  30.00  142
  3  \w    -15.00  76.00   1.00   10.00    --   35.84 -99.00  30.00   91
  4  \w     14.00 106.00   1.00   10.00    --   35.84  38.00-120.00   92
  5  \w     14.00 106.00   1.00   10.00    --   35.84  38.00  30.00   92
  6  \w      0.00  29.00   1.00   10.00    --   35.84  90.00 -68.83   29
  7  \w      3.00  32.00   1.00   10.00    --   35.84  85.00  91.82   29
  8  \w    -15.00  76.00   1.00   10.00    --   35.84 -99.00-150.00   91
  9  \w      2.00  31.00   1.00   10.00    --   35.84  86.00 156.62   29
 10  \w      5.00  42.00   1.00   10.00    --   35.84  81.00-173.16   37
 11  \w    -33.00  64.00   1.00   10.00    --   35.84 -77.00 -90.00   97
 12  \w    -33.00  64.00   1.00   10.00    --   35.84 -77.00  90.00   97
 13  \w      6.00  42.00   1.00   10.00    --   35.84  79.00  29.87   36
 14  \w     10.00 104.00   1.00   10.00    --   35.84  71.00 -88.62   94
 15  \w      5.00 108.00   1.00   10.00    --   35.84  24.00 132.47  103
 16  \w      1.00  30.00   1.00   10.00    --   35.84  88.00 -17.63   29
 17  \w     54.00 105.00   1.00   10.00    --   35.84 160.00 140.00   51
 18  \w     10.00  36.00   1.00   10.00    --   35.84  72.00 -96.69   26
 19  \w     39.00 110.00   1.00   10.00    --   35.84 178.00 -60.00   71
 20  \w     10.00  36.00   1.00   10.00    --   35.84  72.00  70.23   26
 21  \w     17.00 104.00   1.00   10.00    --   35.84  57.00   0.00   87
 22  \w     17.00 104.00   1.00   10.00    --   35.84  57.00 -90.00   87
 23  \w     17.00 104.00   1.00   10.00    --   35.84  57.00 120.00   87
 24  \w    -35.00 107.00   1.00   10.00    --   35.84   0.00-180.00  142
 25  \w    -35.00 107.00   1.00   10.00    --   35.84   0.00-150.00  142
 26  \w    -35.00 107.00   1.00   10.00    --   35.84   0.00-120.00  142
 27  \w    -35.00 107.00   1.00   10.00    --   35.84   0.00 -90.00  142
 28  \w    -35.00 107.00   1.00   10.00    --   35.84   0.00 -60.00  142
 29  \w      3.00  32.00   1.00   10.00    --   35.84  85.00 117.91   29
 30  \w    -35.00 107.00   1.00   10.00    --   35.84   0.00   0.00  142
 31  \w    -35.00  88.00   1.00   10.00    --   35.84   0.00  30.00  123
 32  \w    -35.00 107.00   1.00   10.00    --   35.84   0.00 -30.00  142
;
_diffrn_measurement_device       'four-circle diffractometer'
_diffrn_measurement_device_type  'SuperNova, Single source at offset/far, Eos'
_diffrn_measurement_method       '\w scans'
_diffrn_orient_matrix_type
'CrysAlisPro convention (1999,Acta A55,543-557)'
_diffrn_orient_matrix_UB_11      -0.0023557000
_diffrn_orient_matrix_UB_12      -0.0496145000
_diffrn_orient_matrix_UB_13      -0.0447145000
_diffrn_orient_matrix_UB_21      -0.0157419000
_diffrn_orient_matrix_UB_22      -0.0701953000
_diffrn_orient_matrix_UB_23      0.0652869000
_diffrn_orient_matrix_UB_31      -0.1279460000
_diffrn_orient_matrix_UB_32      0.0221360000
_diffrn_orient_matrix_UB_33      0.0112695000
_diffrn_radiation_monochromator  mirror
_diffrn_radiation_probe          x-ray
_diffrn_radiation_type           'Mo K\a'
_diffrn_radiation_wavelength     0.71073
_diffrn_reflns_av_R_equivalents  0.0351
_diffrn_reflns_av_unetI/netI     0.0165
_diffrn_reflns_Laue_measured_fraction_full 0.9942
_diffrn_reflns_Laue_measured_fraction_max 0.9600
_diffrn_reflns_limit_h_max       9
_diffrn_reflns_limit_h_min       -9
_diffrn_reflns_limit_k_max       14
_diffrn_reflns_limit_k_min       -14
_diffrn_reflns_limit_l_max       16
_diffrn_reflns_limit_l_min       -16
_diffrn_reflns_number            40075
_diffrn_reflns_point_group_measured_fraction_full 0.9942
_diffrn_reflns_point_group_measured_fraction_max 0.9600
_diffrn_reflns_theta_full        25.2417
_diffrn_reflns_theta_max         36.92
_diffrn_reflns_theta_min         2.55
_diffrn_source                   'micro-focus sealed X-ray tube'
_diffrn_source_type              'SuperNova (Mo) X-ray Source'
_exptl_absorpt_coefficient_mu    0.408
_exptl_absorpt_correction_T_max  1.000
_exptl_absorpt_correction_T_min  0.501
_exptl_absorpt_correction_type   gaussian
_exptl_absorpt_process_details
;
CrysAlisPro 1.171.41.119a (Rigaku Oxford Diffraction, 2021)
Numerical absorption correction based on gaussian integration over
a multifaceted crystal model
Empirical absorption correction using spherical harmonics,
implemented in SCALE3 ABSPACK scaling algorithm.
;
_exptl_crystal_colour            'clear colourless'
_exptl_crystal_colour_lustre     clear
_exptl_crystal_colour_primary    colourless
_exptl_crystal_density_diffrn    1.828
_exptl_crystal_description       block
_exptl_crystal_F_000             238.364
_exptl_crystal_size_max          0.36
_exptl_crystal_size_mid          0.14
_exptl_crystal_size_min          0.09
_refine_diff_density_max         0.4423
_refine_diff_density_min         -0.3936
_refine_diff_density_rms         0.0531
_refine_ls_d_res_high            0.5916
_refine_ls_d_res_low             7.9909
_refine_ls_goodness_of_fit_ref   1.1747
_refine_ls_hydrogen_treatment    refall
_refine_ls_matrix_type           full
_refine_ls_number_constraints    0
_refine_ls_number_parameters     172
_refine_ls_number_reflns         4198
_refine_ls_number_restraints     0
_refine_ls_restrained_S_all      1.1747
_refine_ls_R_factor_all          0.0237
_refine_ls_R_factor_gt           0.0217
_refine_ls_shift/su_max          -0.0006
_refine_ls_shift/su_mean         0.0001
_refine_ls_structure_factor_coef Fsqd
_refine_ls_weighting_details
'w=1/[\s^2^(Fo^2^)+(0.0246P)^2^+0.0247P] where P=(Fo^2^+2Fc^2^)/3'
_refine_ls_weighting_scheme      calc
_refine_ls_wR_factor_gt          0.0528
_refine_ls_wR_factor_ref         0.0539
_reflns_Friedel_coverage         0.0
_reflns_limit_h_max              9
_reflns_limit_h_min              -9
_reflns_limit_k_max              14
_reflns_limit_k_min              -13
_reflns_limit_l_max              16
_reflns_limit_l_min              0
_reflns_number_gt                3936
_reflns_number_total             4198
_reflns_threshold_expression     I>=2u(I)
_iucr_refine_instructions_details
;
TITL aders31_a.res in P-1
REM Old TITL Aders31 in P-1
REM SHELXT solution in P-1: R1 0.662, Rweak 0.155, Alpha 0.035
REM <I/s> 0.000 for 0 systematic absences, Orientation as input
REM Formula found by SHELXT: C9 O3 F3
CELL 0.71073 5.8009 8.5919 9.7054 69.951 73.313 76.994
ZERR 1 0.0002 0.0002 0.0002 0.002 0.002 0.002
LATT 1
SFAC C H O F S
DISP C 0.0021 0.0016 11.5003
DISP F 0.0136 0.0103 51.4857
DISP H 0 0 0.624
DISP O 0.0079 0.0061 32.4922
DISP S 0.111 0.124 532.097
UNIT 16 8 6 6 2

L.S. 4 0 0
PLAN  5
SIZE 0.09 0.14 0.36
TEMP -173
CONF
list 4
fmap 2 53
MORE -1
BOND $H
ACTA 
OMIT 0 3 6
OMIT 3 3 3
OMIT 6 3 3
OMIT 0 6 0
OMIT 3 -3 0
OMIT 0 0 1
WGHT 0.024642 0.024674
FVAR 1.341436
REM <olex2.extras>
REM <HklSrc "%.\\Aders31.hkl">
REM </olex2.extras>

S1    5     0.63943  0.80230  0.80619  11.00000  0.01480  0.01923  0.01259 =
 -0.00894 -0.00167 -0.00439 
F1    4     0.20096  0.89667  0.93622  11.00000  0.02132  0.02281  0.01922 =
 -0.01136  0.00083 -0.00030 
F2    4     0.27704  0.63395  0.95449  11.00000  0.02095  0.01945  0.02149 =
 -0.00418  0.00139 -0.00508 
F3    4     0.22665  0.81628  0.74374  11.00000  0.01720  0.02806  0.02031 =
 -0.01047 -0.00601 -0.00160 
O1    3     0.74439  0.65265  0.73797  11.00000  0.01611  0.01706  0.01096 =
 -0.00623 -0.00307 -0.00249 
O2    3     0.66617  0.95922  0.69522  11.00000  0.02483  0.01777  0.02120 =
 -0.00903  0.00231 -0.00805 
O3    3     0.71879  0.75636  0.94163  11.00000  0.02251  0.03879  0.01793 =
 -0.01685 -0.00681 -0.00333 
C1    1     0.77408  0.67409  0.58210  11.00000  0.01388  0.01499  0.01076 =
 -0.00589 -0.00199 -0.00278 
C2    1     0.94404  0.76620  0.47800  11.00000  0.01517  0.01774  0.01214 =
 -0.00618 -0.00181 -0.00473 
H2    2     1.05444  0.82623  0.51080  11.00000  0.02712  0.04933  0.02644 =
 -0.01745 -0.00549 -0.01613 
C3    1     0.97626  0.78063  0.32323  11.00000  0.01670  0.01835  0.01178 =
 -0.00540 -0.00112 -0.00601 
H3    2     1.10877  0.85497  0.24095  11.00000  0.03655  0.04284  0.02597 =
 -0.01575  0.00128 -0.02180 
C4    1     0.83977  0.70336  0.28001  11.00000  0.01753  0.01742  0.01004 =
 -0.00517 -0.00117 -0.00549 
H4    2     0.85544  0.71551  0.16290  11.00000  0.04339  0.04309  0.01974 =
 -0.01063 -0.00470 -0.01681 
C5    1     0.66586  0.60270  0.38928  11.00000  0.01510  0.01425  0.00963 =
 -0.00523 -0.00155 -0.00327 
C6    1     0.63096  0.58532  0.54609  11.00000  0.01430  0.01399  0.00962 =
 -0.00535 -0.00191 -0.00276 
C7    1     0.53280  0.51770  0.34625  11.00000  0.01631  0.01542  0.00961 =
 -0.00559 -0.00170 -0.00415 
H7    2     0.55968  0.53384  0.22731  11.00000  0.03470  0.03839  0.01721 =
 -0.01043 -0.00586 -0.00855 
C8    1     0.31324  0.78550  0.86391  11.00000  0.01447  0.01764  0.01400 =
 -0.00644 -0.00091 -0.00238 
HKLF 4

END
Q4 1 0.6 0.55 0.377778 11 0.05 0.23
Q1 1 0.64 0.875 0.777778 11 0.05 0.44
Q3 1 0.56 0.75 0.822222 11 0.05 0.28
Q5 1 0.72 0.825 0.888889 11 0.05 0.23
Q2 1 0.76 0.75 0.8 11 0.05 0.29

  REM The information below was added by Olex2.
  REM
  REM R1 = 0.0217 for 3936 Fo > 4sig(Fo) and 0.0237 for all 4198 data
  REM 172 parameters refined using 0 restraints
  REM Highest difference peak 0.4423, deepest hole -0.3936
  REM Mean Shift 0.0001, Max Shift -0.0006.

  REM +++ Tabular Listing of Refinement Information +++
  REM R1_all = 0.0237
  REM R1_gt = 0.0217
  REM wR_ref = 0.0539
  REM GOOF = 1.1747
  REM Shift_max = -0.0006
  REM Shift_mean = 0.0001
  REM Reflections_all = 4198
  REM Reflections_gt = 3936
  REM Parameters = 172
  REM Hole = -0.3936
  REM Peak = 0.4423
  REM Flack = n/a

  
;
_cod_data_source_file            d2dt02118h2.cif
_cod_data_source_block           A
_cod_database_code               7710915
_chemical_oxdiff_formula         C16H8F6O6S2
_olex2_refinement_description
;
;
_iucr_refine_fcf_details
;
data_Aders31
_computing_structure_refinement   'olex2.refine 1.5-alpha (Bourhis et al., 2015)'
_shelx_refln_list_code            4
loop_
  _space_group_symop_id
  _space_group_symop_operation_xyz
  1  x,y,z
  2  -x,-y,-z

_space_group_crystal_system       triclinic
_space_group_IT_number            2
_space_group_name_H-M_alt         'P -1'
_space_group_name_Hall            '-P 1'
_symmetry_space_group_name_H-M    'P -1'
_symmetry_space_group_name_Hall   '-P 1'
_symmetry_Int_Tables_number       2
_cell_length_a                    5.8009(2)
_cell_length_b                    8.5919(2)
_cell_length_c                    9.7054(2)
_cell_angle_alpha                 69.951(2)
_cell_angle_beta                  73.313(2)
_cell_angle_gamma                 76.994(2)
_cell_volume                      430.94(2)
loop_
  _refln_index_h
  _refln_index_k
  _refln_index_l
  _refln_F_squared_calc
  _refln_F_squared_meas
  _refln_F_squared_sigma
  _refln_F_squared_weight
  _refln_observed_status
-9 -1 1 16.197 13.760 2.295 4.461 o
-9 0 1 5.845 4.407 1.262 14.837 o
-8 -7 1 7.433 7.839 0.748 33.068 o
-8 -6 1 33.030 33.010 1.489 6.993 o
-8 -6 2 7.865 7.779 0.757 32.141 o
-8 -5 1 28.534 28.416 1.356 8.510 o
-8 -5 2 87.745 90.543 3.056 1.585 o
-8 -5 3 0.431 0.022 0.588 73.140 o
-8 -4 1 24.948 24.306 1.393 8.841 o
-8 -4 2 1.944 1.680 0.701 47.955 o
-8 -4 3 60.354 60.648 2.051 3.262 o
-8 -3 1 27.394 26.152 1.491 7.753 o
-8 -3 2 29.906 30.133 1.711 6.131 o
-8 -3 3 36.654 35.812 1.983 4.587 o
-8 -3 4 19.690 19.691 2.323 4.223 o
-8 -2 1 6.586 4.959 0.485 63.490 o
-8 -2 2 1.017 1.158 0.353 170.317 o
-8 -2 3 59.403 59.708 1.995 3.400 o
-8 -2 4 15.306 13.416 1.064 15.898 o
-8 -1 1 8.800 8.706 0.831 27.102 o
-8 -1 2 0.588 1.433 0.451 114.812 o
-8 -1 3 30.749 29.800 1.968 4.983 o
-8 -1 4 71.571 78.570 5.485 0.733 o
-8 0 1 13.866 13.574 0.943 19.210 o
-8 0 2 32.900 30.136 1.850 5.346 o
-8 0 3 0.081 0.430 0.441 129.480 o
-8 0 4 41.934 39.558 3.476 1.829 o
-8 1 1 39.252 34.772 1.458 6.587 o
-8 1 2 0.050 -0.015 0.345 215.187 o
-8 1 3 55.556 53.141 4.907 0.948 o
-8 1 4 46.019 47.179 2.087 3.794 o
-8 2 1 6.231 7.186 0.856 28.076 o
-8 2 2 29.669 29.044 2.222 4.173 o
-8 2 3 24.054 20.961 1.305 9.961 o
-8 2 4 2.722 2.747 0.795 36.669 o
-8 3 1 1.600 1.228 0.358 155.779 o
-8 3 2 42.336 42.176 3.310 1.975 o
-8 3 3 33.559 32.299 1.956 4.864 o
-8 3 4 18.134 15.338 2.434 3.957 o
-8 4 1 15.040 16.260 1.267 12.128 o
-8 4 2 0.044 0.018 0.433 137.322 o
-7 -9 1 14.911 15.141 0.994 17.286 o
-7 -8 1 1.569 2.048 0.341 160.733 o
-7 -8 2 9.928 8.495 0.818 26.988 o
-7 -8 3 1.984 1.140 0.920 29.038 o
-7 -7 1 22.535 23.287 1.006 13.670 o
-7 -7 2 9.950 10.057 0.724 31.082 o
-7 -7 3 23.860 23.256 1.201 10.918 o
-7 -7 4 11.499 11.766 1.340 11.944 o
-7 -6 1 27.399 26.824 1.035 11.783 o
-7 -6 2 1.267 1.288 0.324 188.483 o
-7 -6 3 30.891 29.524 1.920 5.169 o
-7 -6 4 24.863 25.031 1.438 8.447 o
-7 -5 1 37.095 35.692 1.423 6.900 o
-7 -5 2 95.093 97.187 2.753 1.665 o
-7 -5 3 9.349 9.026 0.764 29.906 o
-7 -5 4 13.489 13.690 1.038 16.952 o
-7 -5 5 0.630 0.161 0.387 159.886 o
-7 -4 1 4.636 5.162 0.608 51.384 o
-7 -4 2 28.667 27.936 1.265 9.251 o
-7 -4 3 1.377 1.490 0.392 136.198 o
-7 -4 4 90.522 89.995 4.010 1.110 o
-7 -4 5 7.952 8.793 1.015 20.273 o
-7 -4 6 0.028 1.706 1.111 20.667 o
-7 -3 1 68.161 68.761 2.505 2.392 o
-7 -3 2 9.131 8.834 0.706 33.505 o
-7 -3 3 43.202 42.709 1.568 5.562 o
-7 -3 4 75.788 75.421 2.182 2.556 o
-7 -3 5 54.403 50.201 2.309 3.096 o
-7 -3 6 32.646 33.336 2.508 3.330 o
-7 -2 1 0.028 0.232 0.219 512.074 o
-7 -2 2 25.306 24.772 1.143 11.189 o
-7 -2 3 44.504 43.681 1.558 5.490 o
-7 -2 4 8.323 7.472 0.767 31.258 o
-7 -2 5 59.002 55.829 2.662 2.448 o
-7 -2 6 63.296 56.477 2.471 2.616 o
-7 -1 1 46.376 44.485 1.795 4.596 o
-7 -1 2 9.555 8.749 0.608 39.684 o
-7 -1 3 0.188 0.153 0.229 453.512 o
-7 -1 4 5.796 5.086 0.634 46.256 o
-7 -1 5 6.079 5.412 0.651 43.835 o
-7 -1 6 27.470 27.418 1.883 5.521 o
-7 -1 7 0.050 -0.567 0.550 85.120 o
-7 0 1 10.684 10.390 0.559 40.264 o
-7 0 2 38.034 36.905 2.022 4.396 o
-7 0 3 27.425 25.906 1.312 9.143 o
-7 0 4 0.066 -0.230 0.398 162.107 o
-7 0 5 38.472 40.519 3.142 2.195 o
-7 0 6 0.045 -0.248 0.418 147.319 o
-7 1 1 20.653 20.663 1.177 11.996 o
-7 1 2 7.277 7.055 0.584 46.988 o
-7 1 3 14.410 14.332 1.011 17.198 o
-7 1 4 51.595 47.173 2.736 2.521 o
-7 1 5 4.250 4.915 0.783 35.099 o
-7 1 6 3.076 3.352 0.826 33.667 o
-7 2 1 28.245 26.907 1.072 11.216 o
-7 2 2 0.001 0.071 0.221 521.477 o
-7 2 3 115.919 120.782 5.751 0.582 o
-7 2 4 56.326 56.244 2.950 2.150 o
-7 2 5 26.878 26.140 1.463 8.000 o
-7 2 6 12.967 15.430 1.375 11.015 o
-7 3 1 5.604 4.308 0.799 33.018 o
-7 3 2 18.206 17.114 1.057 14.753 o
-7 3 3 21.990 22.410 1.296 10.243 o
-7 3 4 26.445 29.572 1.580 7.109 o
-7 3 5 16.518 16.574 1.328 11.053 o
-7 3 6 0.835 1.375 0.547 79.597 o
-7 4 1 9.177 9.550 0.753 30.443 o
-7 4 2 9.309 9.274 0.861 25.235 o
-7 4 3 16.222 17.304 1.351 10.755 o
-7 4 4 3.847 4.550 0.731 40.071 o
-7 4 5 1.296 2.037 0.649 56.085 o
-7 4 6 13.135 12.232 2.067 5.508 o
-7 5 1 1.238 1.750 0.310 195.823 o
-7 5 2 6.742 7.410 0.697 37.562 o
-7 5 3 21.006 21.749 1.799 6.401 o
-7 5 4 10.905 11.534 1.026 18.429 o
-7 5 5 13.657 16.037 1.746 7.314 o
-7 6 1 0.006 0.151 0.288 307.079 o
-7 6 2 51.571 54.057 2.449 2.885 o
-7 6 3 0.001 -0.300 0.565 81.013 o
-7 6 4 12.142 13.104 1.604 8.689 o
-7 7 1 69.257 70.439 5.396 0.765 o
-7 7 2 14.807 12.850 1.579 8.714 o
-6 -10 1 120.113 138.070 3.613 1.000 o
-6 -10 2 0.150 0.159 1.056 23.094 o
-6 -9 1 2.084 2.071 0.400 120.657 o
-6 -9 2 37.530 38.477 2.043 4.323 o
-6 -9 3 37.802 39.612 2.126 4.061 o
-6 -8 1 28.797 28.098 1.051 11.207 o
-6 -8 2 35.928 35.190 1.418 7.050 o
-6 -8 3 7.510 7.550 0.766 32.052 o
-6 -8 4 46.352 50.978 2.344 3.202 o
-6 -7 1 67.248 67.733 1.629 3.651 o
-6 -7 2 3.545 2.837 0.338 127.422 o
-6 -7 3 30.290 29.943 1.284 8.766 o
-6 -7 4 58.589 56.378 2.090 3.300 o
-6 -7 5 35.565 36.881 1.721 5.573 o
-6 -6 1 43.607 43.113 1.511 5.739 o
-6 -6 2 31.489 29.044 1.023 10.876 o
-6 -6 3 0.022 2.881 0.438 119.499 o
-6 -6 4 0.563 0.565 0.283 274.427 o
-6 -6 5 24.544 21.584 1.364 9.293 o
-6 -6 6 0.498 0.560 0.489 102.368 o
-6 -5 1 136.661 132.105 2.672 1.198 o
-6 -5 2 78.420 73.967 1.830 2.922 o
-6 -5 3 0.130 0.576 0.259 349.656 o
-6 -5 4 136.479 133.923 2.870 1.136 o
-6 -5 5 166.263 166.441 3.744 0.740 o
-6 -5 6 5.302 4.599 0.612 50.115 o
-6 -5 7 3.072 2.369 0.948 26.560 o
-6 -4 1 10.110 9.960 0.606 38.191 o
-6 -4 2 150.274 149.204 3.493 0.874 o
-6 -4 3 59.865 56.455 1.528 4.395 o
-6 -4 4 65.499 64.211 1.933 3.265 o
-6 -4 5 39.995 38.817 1.613 5.701 o
-6 -4 6 42.205 39.848 1.689 5.253 o
-6 -4 7 10.578 9.601 1.485 10.248 o
-6 -4 8 49.871 45.437 3.723 1.568 o
-6 -3 1 50.043 47.275 1.539 5.119 o
-6 -3 2 110.317 105.722 2.198 1.757 o
-6 -3 3 3.650 10.495 0.812 31.266 o
-6 -3 4 136.030 136.066 2.865 1.133 o
-6 -3 5 26.012 27.003 1.580 7.243 o
-6 -3 6 11.961 10.733 1.291 12.709 o
-6 -3 7 3.951 3.160 0.784 36.170 o
-6 -3 8 18.085 17.096 2.131 4.995 o
-6 -2 1 12.934 13.442 0.568 34.426 o
-6 -2 2 28.831 29.515 0.952 12.092 o
-6 -2 3 152.142 152.894 6.679 0.414 o
-6 -2 4 108.095 106.772 2.545 1.598 o
-6 -2 5 0.374 1.003 0.470 109.854 o
-6 -2 6 111.332 110.148 3.699 1.081 o
-6 -2 7 1.268 1.083 0.455 108.509 o
-6 -2 8 0.912 0.709 0.655 57.293 o
-6 -1 1 0.619 0.704 0.162 606.744 o
-6 -1 2 91.460 86.746 1.638 2.634 o
-6 -1 3 16.697 14.607 0.810 21.402 o
-6 -1 4 74.809 72.292 2.144 2.651 o
-6 -1 5 282.556 280.952 5.764 0.292 o
-6 -1 6 22.279 22.846 1.241 10.755 o
-6 -1 7 22.513 22.416 1.498 8.321 o
-6 -1 8 4.851 4.389 0.833 31.405 o
-6 0 1 33.849 33.610 0.973 10.446 o
-6 0 2 16.652 16.516 0.640 26.189 o
-6 0 3 0.273 11.807 1.729 8.327 o
-6 0 4 307.274 301.594 6.317 0.248 o
-6 0 5 12.166 12.912 0.904 21.235 o
-6 0 6 100.607 104.183 3.130 1.389 o
-6 0 7 18.759 19.149 1.692 7.287 o
-6 0 8 17.298 15.512 1.332 10.970 o
-6 0 9 5.785 2.280 1.956 6.535 o
-6 1 1 0.433 0.581 0.219 431.771 o
-6 1 2 53.880 50.646 1.299 5.516 o
-6 1 3 235.530 233.671 8.548 0.230 o
-6 1 4 10.638 10.589 0.627 35.719 o
-6 1 5 29.921 25.700 1.438 7.915 o
-6 1 6 42.580 47.538 2.137 3.773 o
-6 1 7 46.273 39.583 3.846 1.515 o
-6 1 8 5.862 6.461 1.115 18.242 o
-6 1 9 4.417 5.240 1.392 12.498 o
-6 2 1 199.769 192.310 6.789 0.346 o
-6 2 2 144.291 135.567 3.580 0.908 o
-6 2 3 0.476 0.680 0.298 252.229 o
-6 2 4 65.206 63.214 2.550 2.432 o
-6 2 5 0.892 1.453 0.367 159.759 o
-6 2 6 7.724 8.862 0.970 21.865 o
-6 2 7 0.102 0.248 0.462 118.841 o
-6 2 8 19.569 20.001 2.012 5.416 o
-6 3 1 32.214 31.711 1.821 5.462 o
-6 3 2 6.955 6.917 0.478 60.170 o
-6 3 3 153.147 155.753 6.071 0.469 o
-6 3 4 10.306 10.541 0.686 32.635 o
-6 3 5 0.041 0.146 0.271 342.225 o
-6 3 6 20.866 23.099 1.593 7.701 o
-6 3 7 0.943 1.204 0.612 64.461 o
-6 3 8 49.373 55.305 2.632 2.637 o
-6 4 1 22.468 22.762 1.184 11.394 o
-6 4 2 6.153 5.692 0.690 40.007 o
-6 4 3 19.165 18.800 0.967 15.896 o
-6 4 4 25.012 24.534 1.142 11.269 o
-6 4 5 46.464 49.276 1.765 4.574 o
-6 4 6 3.468 3.795 0.553 64.226 o
-6 4 7 16.497 15.773 1.182 13.190 o
-6 4 8 25.008 28.275 1.892 5.572 o
-6 5 1 25.493 25.185 1.158 10.948 o
-6 5 2 46.952 51.762 1.904 4.129 o
-6 5 3 14.194 14.706 1.032 16.729 o
-6 5 4 62.284 68.880 2.349 2.681 o
-6 5 5 0.650 0.756 0.578 73.462 o
-6 5 6 109.088 120.103 5.390 0.653 o
-6 5 7 55.292 59.417 3.440 1.701 o
-6 5 8 6.064 5.953 1.495 10.740 o
-6 6 1 19.162 19.438 1.063 14.118 o
-6 6 2 1.754 1.567 0.378 138.565 o
-6 6 3 1.510 1.889 0.506 86.540 o
-6 6 4 16.683 16.804 1.359 10.632 o
-6 6 5 13.277 13.548 1.276 12.501 o
-6 6 6 244.030 288.630 8.170 0.227 o
-6 6 7 39.323 41.103 2.269 3.639 o
-6 7 1 0.340 0.292 0.307 252.885 o
-6 7 2 10.063 10.549 0.784 27.785 o
-6 7 3 0.225 0.948 0.693 52.456 o
-6 7 4 20.708 24.278 1.712 6.869 o
-6 7 5 69.720 78.525 3.162 1.723 o
-6 7 6 175.185 198.038 7.110 0.343 o
-6 8 1 20.312 20.709 1.271 10.889 o
-6 8 2 13.337 14.475 1.055 16.491 o
-6 8 3 19.388 21.306 1.298 10.659 o
-6 8 4 0.002 -0.645 0.355 204.968 o
-5 -12 1 20.405 17.345 2.267 4.418 o
-5 -11 1 2.431 2.715 0.322 152.284 o
-5 -11 2 63.239 68.522 2.483 2.500 o
-5 -10 1 25.110 25.727 0.754 16.325 o
-5 -10 2 22.342 21.389 0.733 18.789 o
-5 -10 3 46.187 48.715 1.183 6.619 o
-5 -10 4 18.274 18.453 0.849 18.758 o
-5 -9 1 3.611 3.554 0.272 151.344 o
-5 -9 2 25.138 26.777 0.739 16.352 o
-5 -9 3 44.393 44.949 1.094 7.375 o
-5 -9 4 3.859 3.440 0.309 131.971 o
-5 -9 5 18.025 18.314 0.751 21.334 o
-5 -8 1 6.627 6.226 0.299 93.942 o
-5 -8 2 10.275 9.913 0.405 54.149 o
-5 -8 3 2.175 2.075 0.227 240.592 o
-5 -8 4 37.286 37.951 0.977 9.449 o
-5 -8 5 81.999 80.829 1.452 3.164 o
-5 -7 1 221.278 224.475 2.071 0.649 o
-5 -7 2 1.922 2.316 0.189 290.132 o
-5 -7 3 52.314 49.461 0.947 6.859 o
-5 -7 4 11.546 10.896 0.473 44.434 o
-5 -7 5 32.657 31.120 0.828 12.264 o
-5 -7 6 76.934 78.490 2.985 1.786 o
-5 -6 1 4.852 5.025 0.253 129.166 o
-5 -6 2 104.975 103.118 1.193 2.435 o
-5 -6 3 70.821 67.090 1.024 4.529 o
-5 -6 4 91.344 86.629 1.276 2.957 o
-5 -6 5 237.762 230.008 3.344 0.511 o
-5 -6 6 26.102 27.465 1.660 6.732 o
-5 -6 7 25.530 25.797 1.668 6.774 o
-5 -5 1 623.021 613.549 5.014 0.094 o
-5 -5 2 243.851 236.193 2.097 0.565 o
-5 -5 3 38.896 36.496 0.672 11.365 o
-5 -5 4 82.406 79.231 1.429 3.203 o
-5 -5 5 10.148 10.107 0.814 26.510 o
-5 -5 6 4.477 3.519 0.515 68.261 o
-5 -5 7 6.324 6.823 0.866 27.618 o
-5 -5 8 3.045 3.865 0.753 39.409 o
-5 -4 1 222.140 213.628 2.624 0.623 o
-5 -4 2 117.828 115.547 2.025 1.687 o
-5 -4 3 484.692 485.477 8.970 0.110 o
-5 -4 4 17.078 15.318 0.815 20.894 o
-5 -4 5 63.126 59.905 1.926 3.409 o
-5 -4 6 8.050 7.433 0.711 35.060 o
-5 -4 7 3.546 4.021 0.574 60.267 o
-5 -4 8 38.125 36.251 1.645 5.762 o
-5 -4 9 0.030 1.156 0.845 35.702 o
-5 -3 1 96.962 95.305 2.019 2.135 o
-5 -3 2 219.697 219.799 5.420 0.403 o
-5 -3 3 2.449 2.897 0.329 146.282 o
-5 -3 4 121.520 121.655 3.681 1.012 o
-5 -3 5 18.920 19.166 1.786 6.660 o
-5 -3 6 5.025 5.151 0.583 53.815 o
-5 -3 7 13.864 11.853 0.890 21.107 o
-5 -3 8 2.559 2.769 0.470 88.983 o
-5 -3 9 0.423 0.250 0.378 170.322 o
-5 -2 1 201.433 198.384 3.797 0.590 o
-5 -2 2 116.035 112.301 2.608 1.465 o
-5 -2 3 183.486 184.516 4.495 0.571 o
-5 -2 4 8.481 9.108 0.543 46.542 o
-5 -2 5 44.705 43.517 1.763 4.790 o
-5 -2 6 92.323 93.725 3.086 1.516 o
-5 -2 7 27.222 26.451 1.810 5.896 o
-5 -2 8 10.775 8.546 0.771 28.593 o
-5 -2 9 10.325 8.569 0.799 27.584 o
-5 -2 10 26.302 19.501 2.395 3.867 o
-5 -1 1 21.318 21.114 0.705 19.939 o
-5 -1 2 106.658 106.482 1.979 1.921 o
-5 -1 3 6.745 5.835 0.338 86.552 o
-5 -1 4 11.658 11.793 0.592 35.774 o
-5 -1 5 167.930 181.330 4.395 0.621 o
-5 -1 6 11.953 12.546 1.024 17.953 o
-5 -1 7 47.527 45.569 1.666 4.906 o
-5 -1 8 136.898 135.000 5.323 0.601 o
-5 -1 9 9.884 8.760 1.096 17.332 o
-5 -1 10 4.661 3.095 0.609 53.445 o
-5 0 1 236.038 243.260 6.910 0.293 o
-5 0 2 76.856 75.943 1.321 3.592 o
-5 0 3 1.030 1.274 0.204 370.315 o
-5 0 4 91.862 94.689 2.728 1.727 o
-5 0 5 17.452 18.423 0.986 16.120 o
-5 0 6 57.828 64.332 2.304 2.879 o
-5 0 7 284.665 314.525 7.613 0.219 o
-5 0 8 26.252 27.427 1.639 6.844 o
-5 0 9 24.933 24.449 1.559 7.570 o
-5 0 10 3.724 4.381 0.746 38.922 o
-5 1 1 99.959 99.225 2.057 2.030 o
-5 1 2 214.763 217.677 3.215 0.588 o
-5 1 3 307.544 307.929 4.954 0.288 o
-5 1 4 51.339 51.023 1.293 5.705 o
-5 1 5 138.829 140.618 5.381 0.585 o
-5 1 6 32.889 31.933 1.927 5.004 o
-5 1 7 3.561 3.261 0.709 43.410 o
-5 1 8 9.101 9.658 1.248 14.039 o
-5 1 9 49.356 52.753 2.889 2.319 o
-5 1 10 3.524 3.899 0.771 37.316 o
-5 2 1 16.549 15.884 0.518 30.992 o
-5 2 2 394.773 389.957 5.485 0.193 o
-5 2 3 0.834 0.769 0.193 446.632 o
-5 2 4 441.629 451.430 11.615 0.097 o
-5 2 5 186.161 198.637 3.754 0.633 o
-5 2 6 0.849 0.440 0.264 295.118 o
-5 2 7 10.272 10.537 1.390 11.473 o
-5 2 8 0.899 0.639 0.291 245.085 o
-5 2 9 30.787 31.358 1.615 6.531 o
-5 2 10 27.807 27.138 1.503 7.595 o
-5 3 1 194.597 197.929 4.407 0.544 o
-5 3 2 118.523 120.535 3.426 1.109 o
-5 3 3 434.364 467.721 7.018 0.143 o
-5 3 4 235.095 254.315 3.625 0.474 o
-5 3 5 28.737 31.715 1.104 10.377 o
-5 3 6 21.627 24.279 1.436 8.828 o
-5 3 7 2.579 2.361 0.541 72.050 o
-5 3 8 3.470 3.578 0.683 46.043 o
-5 3 9 2.027 1.406 0.476 94.302 o
-5 3 10 1.665 1.333 0.831 35.387 o
-5 4 1 14.080 13.274 0.569 33.125 o
-5 4 2 12.861 13.405 0.650 30.501 o
-5 4 3 148.244 161.049 2.912 0.980 o
-5 4 4 17.357 17.875 0.767 21.385 o
-5 4 5 446.654 491.624 6.125 0.145 o
-5 4 6 0.520 0.636 0.251 334.678 o
-5 4 7 0.073 0.175 0.433 135.767 o
-5 4 8 0.070 0.192 0.265 355.189 o
-5 4 9 1.661 1.685 1.045 22.774 o
-5 4 10 12.525 16.601 1.777 7.145 o
-5 5 1 79.221 81.470 2.620 2.031 o
-5 5 2 37.103 37.444 1.298 7.501 o
-5 5 3 15.319 15.437 0.847 20.852 o
-5 5 4 103.454 112.273 2.525 1.627 o
-5 5 5 17.035 17.600 0.980 16.509 o
-5 5 6 41.366 43.146 1.602 5.530 o
-5 5 7 222.579 241.573 5.148 0.404 o
-5 5 8 2.449 2.471 0.620 57.523 o
-5 5 9 59.163 62.696 2.124 3.146 o
-5 5 10 9.183 8.803 1.064 18.380 o
-5 6 1 15.717 16.188 0.748 23.411 o
-5 6 2 0.361 0.350 0.255 349.623 o
-5 6 3 45.594 49.342 2.096 3.754 o
-5 6 4 40.700 42.966 1.751 5.032 o
-5 6 5 2.283 2.467 0.460 94.849 o
-5 6 6 156.846 173.013 5.321 0.535 o
-5 6 7 74.675 80.751 2.633 2.084 o
-5 6 8 75.496 82.537 3.287 1.575 o
-5 6 9 2.111 1.976 0.499 85.404 o
-5 6 10 1.734 3.144 0.733 43.458 o
-5 7 1 1.671 0.878 0.342 168.704 o
-5 7 2 72.797 77.628 2.007 2.801 o
-5 7 3 14.250 16.652 1.093 15.162 o
-5 7 4 11.392 11.865 0.944 20.546 o
-5 7 5 7.495 7.614 0.778 31.316 o
-5 7 6 0.305 0.552 0.373 173.793 o
-5 7 7 98.688 101.832 3.085 1.434 o
-5 7 8 13.776 16.402 1.370 10.906 o
-5 7 9 13.099 12.198 1.258 12.938 o
-5 8 1 107.202 112.776 3.595 1.131 o
-5 8 2 19.054 20.168 1.158 12.613 o
-5 8 3 62.652 63.806 2.092 3.096 o
-5 8 4 27.078 27.066 1.496 7.710 o
-5 8 5 13.344 12.592 1.061 16.628 o
-5 8 6 75.993 83.740 5.135 0.806 o
-5 8 7 0.471 0.992 0.378 162.532 o
-5 8 8 10.905 12.182 2.234 4.830 o
-5 9 1 1.628 2.261 0.603 62.813 o
-5 9 2 2.510 2.027 0.388 122.056 o
-5 9 3 0.049 0.180 0.334 226.416 o
-5 9 4 8.238 7.858 0.865 26.122 o
-5 9 5 89.610 90.108 3.606 1.284 o
-5 9 6 1.250 0.662 0.517 87.791 o
-5 9 7 21.037 18.406 2.806 2.997 o
-5 10 1 0.793 0.171 0.485 103.508 o
-5 10 2 5.672 6.506 1.115 18.308 o
-4 -12 1 9.604 10.000 0.549 43.133 o
-4 -11 1 11.699 11.535 0.543 38.899 o
-4 -11 2 0.439 0.252 0.188 577.861 o
-4 -11 3 28.833 32.891 0.956 11.675 o
-4 -10 1 0.010 0.046 0.180 784.385 o
-4 -10 2 17.833 17.475 0.628 25.267 o
-4 -10 3 0.359 0.257 0.191 579.389 o
-4 -10 4 47.980 52.461 1.251 6.048 o
-4 -10 5 0.209 0.293 0.307 258.229 o
-4 -9 1 0.021 -0.016 0.158 1022.250 o
-4 -9 2 73.823 75.893 1.355 3.667 o
-4 -9 3 17.885 18.609 0.646 24.291 o
-4 -9 4 42.171 43.722 1.093 7.700 o
-4 -9 5 44.353 45.502 1.147 7.108 o
-4 -9 6 45.415 46.297 1.397 5.941 o
-4 -8 1 29.508 28.194 0.635 15.818 o
-4 -8 2 2.078 2.643 0.212 248.290 o
-4 -8 3 14.596 15.334 0.531 33.020 o
-4 -8 4 44.941 44.185 1.035 7.627 o
-4 -8 5 58.410 57.988 1.241 5.126 o
-4 -8 6 45.316 47.881 1.116 7.020 o
-4 -8 7 33.238 32.547 0.992 10.499 o
-4 -7 1 5.709 5.458 0.271 111.512 o
-4 -7 2 0.532 0.404 0.115 1015.560 o
-4 -7 3 30.707 28.088 0.654 15.156 o
-4 -7 4 13.081 11.652 0.466 41.345 o
-4 -7 5 137.127 138.023 1.845 1.415 o
-4 -7 6 96.537 96.066 1.560 2.471 o
-4 -7 7 59.412 59.051 1.246 5.017 o
-4 -7 8 6.387 5.094 0.413 76.198 o
-4 -6 1 2.303 2.187 0.170 293.682 o
-4 -6 2 9.495 10.331 0.336 62.746 o
-4 -6 3 1.367 1.131 0.145 481.215 o
-4 -6 4 6.053 4.895 0.279 108.862 o
-4 -6 5 0.006 0.198 0.162 927.267 o
-4 -6 6 71.496 68.195 1.238 4.115 o
-4 -6 7 4.478 4.158 0.324 115.003 o
-4 -6 8 23.358 20.973 0.735 18.368 o
-4 -6 9 91.160 85.581 1.814 2.499 o
-4 -5 1 94.330 90.996 1.012 3.003 o
-4 -5 2 8.911 8.514 0.287 74.776 o
-4 -5 3 0.992 0.907 0.127 638.065 o
-4 -5 4 98.809 98.256 1.217 2.630 o
-4 -5 5 128.663 122.391 1.616 1.671 o
-4 -5 6 0.173 0.167 0.140 1082.200 o
-4 -5 7 19.659 18.329 0.623 23.791 o
-4 -5 8 45.127 41.864 1.008 7.876 o
-4 -5 9 30.355 26.566 0.860 13.103 o
-4 -4 1 29.145 28.462 0.446 18.186 o
-4 -4 2 1.561 1.532 0.125 467.242 o
-4 -4 3 7.016 6.870 0.263 95.575 o
-4 -4 4 66.480 62.287 0.895 5.190 o
-4 -4 5 19.480 17.625 0.500 27.724 o
-4 -4 6 109.582 104.454 1.394 2.214 o
-4 -4 7 24.250 22.980 0.668 18.734 o
-4 -4 8 0.824 0.820 0.186 468.097 o
-4 -4 9 23.022 20.852 0.740 18.459 o
-4 -4 10 0.720 0.386 0.390 154.379 o
-4 -3 1 52.919 49.404 0.632 7.824 o
-4 -3 2 13.943 12.067 0.345 46.536 o
-4 -3 3 337.140 327.610 3.382 0.296 o
-4 -3 4 53.664 51.487 0.718 7.332 o
-4 -3 5 42.045 40.642 0.736 9.871 o
-4 -3 6 3.418 2.931 0.212 195.984 o
-4 -3 7 31.625 30.359 0.742 13.510 o
-4 -3 8 34.493 31.603 0.804 11.979 o
-4 -3 9 3.084 2.216 0.331 141.128 o
-4 -3 10 5.712 5.960 0.831 30.262 o
-4 -2 1 225.763 220.265 2.299 0.626 o
-4 -2 2 240.133 233.897 1.996 0.584 o
-4 -2 3 25.415 23.610 0.409 22.392 o
-4 -2 4 5.485 5.033 0.212 133.383 o
-4 -2 5 39.761 37.469 0.670 11.066 o
-4 -2 6 31.300 30.058 0.667 14.464 o
-4 -2 7 0.883 0.667 0.143 633.771 o
-4 -2 8 11.016 10.569 0.451 47.534 o
-4 -2 9 90.144 88.108 2.537 1.913 o
-4 -2 10 80.557 75.586 2.872 1.849 o
-4 -2 11 2.259 1.935 0.722 44.815 o
-4 -1 1 25.079 24.346 0.427 22.090 o
-4 -1 2 40.958 43.672 0.613 10.445 o
-4 -1 3 50.593 49.507 0.740 7.783 o
-4 -1 4 185.963 178.797 2.876 0.777 o
-4 -1 5 261.413 249.315 4.232 0.401 o
-4 -1 6 11.876 11.032 0.374 50.914 o
-4 -1 7 0.695 0.620 0.151 652.889 o
-4 -1 8 399.132 413.992 13.234 0.091 o
-4 -1 9 27.720 27.078 1.338 8.821 o
-4 -1 10 31.441 29.983 1.480 7.306 o
-4 -1 11 19.650 17.754 1.405 9.705 o
-4 0 1 342.382 348.921 9.767 0.147 o
-4 0 2 162.321 153.320 4.045 0.723 o
-4 0 3 59.347 53.662 1.274 5.120 o
-4 0 4 140.552 128.840 2.735 1.164 o
-4 0 5 26.660 25.694 0.571 18.497 o
-4 0 6 41.422 40.593 1.311 6.868 o
-4 0 7 16.752 17.705 0.955 17.113 o
-4 0 8 27.234 27.178 1.249 9.631 o
-4 0 9 58.184 59.626 1.988 3.450 o
-4 0 10 247.041 249.757 8.982 0.208 o
-4 0 11 107.063 104.716 4.274 0.931 o
-4 1 1 1.014 1.017 0.123 633.437 o
-4 1 2 135.219 132.372 1.608 1.534 o
-4 1 3 12.566 13.342 0.429 43.055 o
-4 1 4 39.101 39.773 0.909 9.444 o
-4 1 5 104.286 108.673 1.740 2.079 o
-4 1 6 27.705 27.805 0.898 13.200 o
-4 1 7 39.502 39.832 1.547 5.978 o
-4 1 8 70.947 74.291 2.930 1.911 o
-4 1 9 195.879 203.952 8.166 0.270 o
-4 1 10 0.009 -0.325 0.448 128.638 o
-4 1 11 103.413 98.119 4.075 1.018 o
-4 1 12 0.944 1.187 0.551 78.330 o
-4 2 1 645.400 641.458 11.672 0.064 o
-4 2 2 118.336 117.884 1.790 1.769 o
-4 2 3 5.161 5.751 0.312 104.709 o
-4 2 4 18.721 19.828 0.654 23.062 o
-4 2 5 2.162 2.442 0.284 185.282 o
-4 2 6 27.407 29.989 1.141 10.395 o
-4 2 7 10.828 10.316 0.657 33.843 o
-4 2 8 92.552 92.519 3.307 1.402 o
-4 2 9 22.584 22.253 1.197 11.265 o
-4 2 10 64.264 66.265 2.238 2.818 o
-4 2 11 61.588 60.827 3.285 1.771 o
-4 2 12 14.617 13.725 1.266 12.412 o
-4 3 1 2.926 2.852 0.231 198.304 o
-4 3 2 82.299 82.878 1.169 3.429 o
-4 3 3 83.687 84.335 1.219 3.299 o
-4 3 4 4.294 4.075 0.292 128.936 o
-4 3 5 112.038 113.582 1.893 1.838 o
-4 3 6 599.514 636.110 7.041 0.089 o
-4 3 7 0.032 0.207 0.185 705.132 o
-4 3 8 10.011 9.522 0.615 38.020 o
-4 3 9 1.752 1.333 0.356 153.861 o
-4 3 10 33.660 34.101 1.857 5.193 o
-4 3 11 0.535 -0.055 0.412 144.455 o
-4 3 12 33.292 31.733 2.278 3.885 o
-4 4 1 114.322 115.701 2.844 1.365 o
-4 4 2 0.033 0.222 0.132 1305.430 o
-4 4 3 18.595 17.762 0.599 25.477 o
-4 4 4 3.801 3.843 0.366 109.173 o
-4 4 5 96.116 95.711 1.969 2.182 o
-4 4 6 41.863 43.108 1.406 6.293 o
-4 4 7 113.973 121.222 2.588 1.452 o
-4 4 8 55.561 58.879 1.773 3.981 o
-4 4 9 105.634 110.521 3.938 1.027 o
-4 4 10 5.906 6.907 1.132 17.714 o
-4 4 11 23.448 26.427 2.161 4.584 o
-4 4 12 12.463 11.698 2.062 5.565 o
-4 5 1 34.435 34.491 1.159 8.864 o
-4 5 2 3.168 3.531 0.288 151.345 o
-4 5 3 4.055 4.982 0.459 78.351 o
-4 5 4 0.107 0.032 0.215 535.729 o
-4 5 5 83.293 88.156 2.091 2.382 o
-4 5 6 27.585 28.653 1.286 9.174 o
-4 5 7 21.090 21.591 1.063 13.397 o
-4 5 8 15.604 15.295 0.921 18.760 o
-4 5 9 29.952 31.009 1.490 7.328 o
-4 5 10 0.853 0.883 0.366 165.646 o
-4 5 11 68.961 77.115 3.809 1.332 o
-4 6 1 25.082 24.897 0.991 13.053 o
-4 6 2 84.653 88.278 2.575 1.954 o
-4 6 3 28.554 29.714 1.294 8.915 o
-4 6 4 33.241 34.928 1.453 7.100 o
-4 6 5 80.455 84.696 2.396 2.183 o
-4 6 6 15.391 16.666 1.063 15.457 o
-4 6 7 152.632 161.402 3.679 0.806 o
-4 6 8 1.104 1.039 0.302 218.089 o
-4 6 9 29.521 30.434 1.542 7.071 o
-4 6 10 1.108 1.377 0.437 116.644 o
-4 6 11 175.036 197.967 6.760 0.367 o
-4 7 1 67.496 68.440 1.581 3.710 o
-4 7 2 22.841 22.886 1.165 11.541 o
-4 7 3 40.533 42.131 1.743 5.090 o
-4 7 4 7.531 6.854 0.692 37.366 o
-4 7 5 19.574 19.546 1.384 9.816 o
-4 7 6 119.490 127.993 3.227 1.147 o
-4 7 7 41.024 43.514 1.805 4.825 o
-4 7 8 8.182 7.087 0.762 31.864 o
-4 7 9 5.225 5.472 0.699 40.575 o
-4 7 10 88.345 89.672 2.899 1.680 o
-4 7 11 51.196 45.226 3.851 1.475 o
-4 8 1 10.025 9.489 0.603 38.819 o
-4 8 2 8.618 8.611 0.686 35.479 o
-4 8 3 30.541 29.723 1.634 6.504 o
-4 8 4 0.348 2.022 0.727 46.843 o
-4 8 5 102.418 112.485 3.054 1.379 o
-4 8 6 3.023 4.060 0.601 57.286 o
-4 8 7 17.144 19.267 1.259 11.644 o
-4 8 8 3.475 3.084 0.593 58.516 o
-4 8 9 12.213 12.828 1.102 16.003 o
-4 8 10 12.910 14.136 1.301 12.139 o
-4 9 1 95.917 100.803 2.400 1.853 o
-4 9 2 5.600 5.282 0.548 56.895 o
-4 9 3 21.499 22.707 1.201 11.356 o
-4 9 4 50.235 50.704 2.035 3.729 o
-4 9 5 37.243 37.572 1.986 4.521 o
-4 9 6 0.466 0.440 0.338 205.910 o
-4 9 7 0.890 1.704 0.531 82.913 o
-4 9 8 8.864 9.443 1.066 18.316 o
-4 9 9 1.011 0.459 0.462 110.494 o
-4 10 1 0.071 0.536 0.284 299.385 o
-4 10 2 34.291 34.633 1.429 7.159 o
-4 10 3 26.721 27.039 1.261 9.609 o
-4 10 4 0.710 0.654 0.317 219.361 o
-4 10 5 4.285 4.221 0.657 47.144 o
-4 10 6 5.645 5.084 0.803 32.403 o
-4 10 7 6.269 6.023 0.852 28.662 o
-4 11 1 38.681 41.941 1.518 6.085 o
-4 11 2 6.640 6.201 0.626 44.685 o
-4 11 3 0.095 0.080 0.380 175.879 o
-4 11 4 6.716 5.530 0.767 33.588 o
-4 11 5 0.064 -0.178 0.767 43.847 o
-3 -12 1 30.637 33.176 0.949 11.339 o
-3 -12 2 0.252 0.136 0.214 507.289 o
-3 -11 1 101.957 109.386 1.725 2.122 o
-3 -11 2 26.516 29.513 0.891 13.371 o
-3 -11 3 17.107 19.657 0.774 20.876 o
-3 -11 4 0.489 0.284 0.221 434.405 o
-3 -10 1 36.327 37.440 0.884 10.315 o
-3 -10 2 1.300 1.079 0.210 342.709 o
-3 -10 3 38.879 41.882 1.012 8.686 o
-3 -10 4 56.707 64.042 1.698 3.994 o
-3 -10 5 146.503 159.916 2.371 1.114 o
-3 -9 1 14.945 13.672 0.498 35.181 o
-3 -9 2 150.021 156.616 1.911 1.203 o
-3 -9 3 3.150 10.770 0.826 30.644 o
-3 -9 4 157.233 168.270 2.184 1.056 o
-3 -9 5 24.609 23.378 0.808 16.096 o
-3 -9 6 19.403 22.506 0.778 18.949 o
-3 -9 7 0.806 1.270 0.561 76.230 o
-3 -8 1 26.081 24.937 0.585 18.760 o
-3 -8 2 0.498 0.725 0.145 729.440 o
-3 -8 3 81.493 81.740 1.222 3.423 o
-3 -8 4 77.094 79.855 1.285 3.552 o
-3 -8 5 4.346 3.952 0.311 122.317 o
-3 -8 6 30.395 30.372 0.830 12.922 o
-3 -8 7 0.585 0.079 0.180 601.837 o
-3 -8 8 21.210 21.358 0.959 15.039 o
-3 -7 1 2.662 2.453 0.197 242.102 o
-3 -7 2 50.780 48.825 0.799 7.597 o
-3 -7 3 0.836 0.677 0.128 715.426 o
-3 -7 4 0.199 0.456 0.132 1049.310 o
-3 -7 5 23.866 25.255 0.715 17.561 o
-3 -7 6 60.984 60.675 1.187 5.005 o
-3 -7 7 8.001 7.067 0.390 68.347 o
-3 -7 8 0.029 0.409 0.196 610.594 o
-3 -7 9 0.012 0.486 0.305 266.195 o
-3 -6 1 241.196 238.187 2.777 0.531 o
-3 -6 2 267.886 262.516 2.144 0.477 o
-3 -6 3 0.547 0.677 0.109 969.671 o
-3 -6 4 18.408 18.172 0.465 29.609 o
-3 -6 5 1.959 1.803 0.193 299.165 o
-3 -6 6 25.459 25.142 0.668 17.676 o
-3 -6 7 56.255 57.497 1.216 5.353 o
-3 -6 8 0.353 0.436 0.195 542.367 o
-3 -6 9 23.196 21.509 0.765 17.750 o
-3 -5 1 1137.690 1125.570 10.453 0.028 o
-3 -5 2 2.885 3.072 0.161 248.505 o
-3 -5 3 13.923 13.480 0.348 44.831 o
-3 -5 4 60.746 59.626 0.826 5.891 o
-3 -5 5 44.883 44.291 0.798 8.753 o
-3 -5 6 9.130 9.261 0.402 58.825 o
-3 -5 7 32.838 31.203 0.803 12.454 o
-3 -5 8 59.390 57.359 1.157 5.292 o
-3 -5 9 27.684 24.105 0.781 15.293 o
-3 -5 10 9.359 8.763 0.518 47.356 o
-3 -4 1 23.930 25.230 0.419 22.726 o
-3 -4 2 1020.440 1016.830 8.418 0.036 o
-3 -4 3 742.399 736.684 5.380 0.068 o
-3 -4 4 134.373 133.431 1.484 1.573 o
-3 -4 5 11.040 10.221 0.369 54.716 o
-3 -4 6 110.925 107.473 1.440 2.135 o
-3 -4 7 158.468 154.758 2.018 1.125 o
-3 -4 8 4.074 4.301 0.308 124.342 o
-3 -4 9 6.822 6.316 0.388 75.587 o
-3 -4 10 7.723 5.772 0.422 67.459 o
-3 -4 11 0.001 0.432 0.231 453.062 o
-3 -3 1 1299.530 1312.120 8.575 0.023 o
-3 -3 2 619.022 635.538 6.230 0.089 o
-3 -3 3 257.086 265.489 2.873 0.464 o
-3 -3 4 279.389 282.938 2.500 0.424 o
-3 -3 5 126.780 124.189 1.313 1.787 o
-3 -3 6 51.943 51.454 0.869 7.058 o
-3 -3 7 137.830 134.284 1.589 1.499 o
-3 -3 8 0.833 0.677 0.156 586.150 o
-3 -3 9 50.940 49.170 1.100 6.472 o
-3 -3 10 23.814 20.623 0.754 17.895 o
-3 -3 11 4.272 3.068 0.313 127.584 o
-3 -2 1 121.701 118.151 1.136 1.975 o
-3 -2 2 81.304 83.654 0.938 3.693 o
-3 -2 3 419.782 428.534 3.442 0.198 o
-3 -2 4 55.525 56.479 0.707 6.851 o
-3 -2 5 164.567 166.124 1.615 1.112 o
-3 -2 6 16.270 14.855 0.433 35.457 o
-3 -2 7 92.197 91.920 1.228 2.893 o
-3 -2 8 29.553 27.827 0.703 15.023 o
-3 -2 9 38.061 36.688 0.868 10.169 o
-3 -2 10 3.311 2.964 0.287 154.129 o
-3 -2 11 16.594 14.527 0.620 27.767 o
-3 -2 12 66.148 57.777 1.366 4.403 o
-3 -1 1 362.288 367.175 3.470 0.255 o
-3 -1 2 3.065 2.946 0.110 280.027 o
-3 -1 3 38.611 39.210 0.529 12.004 o
-3 -1 4 210.504 211.039 2.631 0.661 o
-3 -1 5 18.001 17.565 0.392 32.801 o
-3 -1 6 54.274 54.907 0.896 6.540 o
-3 -1 7 115.085 111.065 1.409 2.043 o
-3 -1 8 4.109 3.817 0.255 148.438 o
-3 -1 9 3.541 3.457 0.257 161.462 o
-3 -1 10 0.881 0.747 0.180 484.360 o
-3 -1 11 0.361 0.034 0.186 633.190 o
-3 -1 12 161.273 148.942 2.204 1.089 o
-3 0 1 19.331 17.483 0.501 27.909 o
-3 0 2 213.459 205.300 3.659 0.567 o
-3 0 3 159.603 160.780 1.852 1.127 o
-3 0 4 21.456 21.066 0.392 27.031 o
-3 0 5 140.220 143.001 1.566 1.433 o
-3 0 6 432.060 438.061 3.888 0.184 o
-3 0 7 4.907 4.525 0.261 129.189 o
-3 0 8 86.704 83.809 1.315 3.110 o
-3 0 9 0.794 1.001 0.177 485.393 o
-3 0 10 44.995 44.699 0.954 7.969 o
-3 0 11 1.292 1.252 0.218 323.275 o
-3 0 12 23.767 21.367 0.765 17.551 o
-3 0 13 4.570 4.257 1.378 12.778 o
-3 1 1 7.715 7.468 0.385 69.446 o
-3 1 2 1538.920 1475.240 19.920 0.014 o
-3 1 3 35.742 34.685 0.507 13.662 o
-3 1 4 180.577 184.905 1.322 0.980 o
-3 1 5 0.176 0.106 0.078 2628.870 o
-3 1 6 217.616 225.535 1.847 0.674 o
-3 1 7 295.087 310.098 2.520 0.377 o
-3 1 8 60.163 59.522 0.973 5.607 o
-3 1 9 55.618 54.327 0.989 6.168 o
-3 1 10 49.927 47.095 0.974 7.148 o
-3 1 11 36.970 36.488 0.907 10.114 o
-3 1 12 55.481 54.197 1.588 4.516 o
-3 1 13 8.840 7.849 1.221 14.816 o
-3 2 1 498.646 498.500 3.192 0.149 o
-3 2 2 381.342 391.976 3.271 0.235 o
-3 2 3 532.381 544.435 3.010 0.131 o
-3 2 4 987.381 1010.270 6.271 0.039 o
-3 2 5 216.946 222.948 1.764 0.687 o
-3 2 6 670.560 700.451 4.712 0.081 o
-3 2 7 268.715 283.155 2.367 0.447 o
-3 2 8 51.245 53.709 0.874 6.993 o
-3 2 9 9.448 9.548 0.405 57.119 o
-3 2 10 0.010 0.279 0.165 872.211 o
-3 2 11 31.846 29.873 0.976 11.168 o
-3 2 12 2.592 2.660 0.520 76.152 o
-3 2 13 0.888 0.389 0.714 48.943 o
-3 3 1 1.591 1.872 0.093 496.902 o
-3 3 2 1256.620 1289.850 8.087 0.024 o
-3 3 3 1857.410 1921.230 13.468 0.011 o
-3 3 4 10.582 11.032 0.295 61.277 o
-3 3 5 279.233 295.123 2.137 0.425 o
-3 3 6 5.278 5.766 0.234 124.720 o
-3 3 7 0.017 0.134 0.094 2541.570 o
-3 3 8 0.770 0.725 0.121 770.207 o
-3 3 9 14.875 15.161 0.469 35.600 o
-3 3 10 268.904 283.560 3.206 0.413 o
-3 3 11 2.468 2.284 0.511 79.714 o
-3 3 12 9.189 9.393 1.030 19.267 o
-3 3 13 1.021 1.088 0.519 87.489 o
-3 4 1 246.536 239.511 3.626 0.466 o
-3 4 2 523.071 524.798 6.010 0.120 o
-3 4 3 12.461 12.698 0.275 53.750 o
-3 4 4 1046.340 1087.530 6.846 0.034 o
-3 4 5 369.315 389.710 3.010 0.248 o
-3 4 6 75.902 78.115 0.970 4.038 o
-3 4 7 35.828 37.716 0.673 11.966 o
-3 4 8 95.154 98.726 1.273 2.681 o
-3 4 9 88.352 89.416 1.423 2.873 o
-3 4 10 5.229 6.211 0.625 47.255 o
-3 4 11 31.757 30.555 1.719 5.972 o
-3 4 12 77.612 76.195 2.906 1.850 o
-3 4 13 14.655 13.956 1.581 8.664 o
-3 5 1 24.219 23.043 0.484 22.131 o
-3 5 2 33.936 34.356 0.610 13.467 o
-3 5 3 171.590 177.801 1.961 0.977 o
-3 5 4 211.312 223.282 2.146 0.679 o
-3 5 5 21.161 21.457 0.548 23.506 o
-3 5 6 118.995 122.959 1.500 1.844 o
-3 5 7 0.712 0.782 0.159 591.830 o
-3 5 8 59.100 60.045 1.898 3.582 o
-3 5 9 0.095 0.680 0.318 238.032 o
-3 5 10 33.277 31.818 1.431 7.364 o
-3 5 11 42.392 41.143 3.175 2.120 o
-3 5 12 24.749 22.723 2.184 4.520 o
-3 5 13 2.912 2.877 0.825 34.095 o
-3 6 1 18.043 17.650 0.477 29.904 o
-3 6 2 150.695 149.179 2.734 1.039 o
-3 6 3 154.470 169.207 3.037 0.904 o
-3 6 4 114.705 115.282 1.698 1.881 o
-3 6 5 42.070 43.657 0.886 8.791 o
-3 6 6 4.095 4.967 0.538 63.151 o
-3 6 7 93.513 97.875 2.550 1.804 o
-3 6 8 78.110 83.232 2.392 2.235 o
-3 6 9 43.087 50.305 1.875 4.383 o
-3 6 10 19.582 18.259 1.136 13.010 o
-3 6 11 0.641 1.226 0.489 99.296 o
-3 6 12 33.341 30.154 2.193 4.140 o
-3 7 1 139.153 139.364 1.804 1.399 o
-3 7 2 71.365 69.383 1.350 3.913 o
-3 7 3 20.744 20.053 0.572 23.720 o
-3 7 4 0.689 0.793 0.297 243.166 o
-3 7 5 53.661 55.615 1.854 3.934 o
-3 7 6 187.516 195.801 3.947 0.611 o
-3 7 7 100.756 102.688 2.723 1.599 o
-3 7 8 16.249 16.163 1.060 15.338 o
-3 7 9 169.639 174.415 3.918 0.691 o
-3 7 10 1.252 0.733 0.342 179.173 o
-3 7 11 23.035 21.535 1.326 9.853 o
-3 7 12 2.820 3.256 0.716 43.657 o
-3 8 1 90.854 90.561 1.371 2.833 o
-3 8 2 36.605 36.543 1.175 8.347 o
-3 8 3 134.693 144.426 4.128 0.807 o
-3 8 4 0.408 0.532 0.325 220.881 o
-3 8 5 116.009 118.980 3.369 1.146 o
-3 8 6 24.891 26.075 1.325 9.331 o
-3 8 7 26.805 26.852 1.377 8.624 o
-3 8 8 206.507 214.671 4.503 0.497 o
-3 8 9 7.895 6.956 0.725 34.534 o
-3 8 10 1.520 1.491 0.568 71.474 o
-3 8 11 0.030 -0.197 0.343 218.641 o
-3 9 1 0.542 0.639 0.226 394.947 o
-3 9 2 94.151 95.855 1.983 2.205 o
-3 9 3 4.898 7.079 0.655 44.035 o
-3 9 4 147.910 157.633 4.099 0.751 o
-3 9 5 71.876 75.814 2.867 1.946 o
-3 9 6 85.216 88.456 3.030 1.632 o
-3 9 7 41.557 42.236 2.390 3.310 o
-3 9 8 0.000 0.360 0.349 206.765 o
-3 9 9 0.015 1.772 0.526 88.687 o
-3 9 10 19.217 20.626 1.956 5.680 o
-3 9 11 7.583 5.985 1.384 12.192 o
-3 10 1 13.078 12.821 0.722 27.377 o
-3 10 2 0.110 0.389 0.235 429.462 o
-3 10 3 128.952 129.066 2.762 1.235 o
-3 10 4 17.297 17.242 1.045 15.193 o
-3 10 5 97.330 97.278 2.873 1.575 o
-3 10 6 121.365 123.093 3.780 0.981 o
-3 10 7 2.271 2.691 0.706 45.987 o
-3 10 8 5.289 5.335 0.798 32.946 o
-3 10 9 4.111 3.202 1.070 20.706 o
-3 11 1 4.607 4.745 0.488 70.602 o
-3 11 2 31.023 31.525 1.337 8.210 o
-3 11 3 18.110 17.444 0.986 16.066 o
-3 11 4 25.878 26.016 1.234 10.053 o
-3 11 5 124.702 125.678 3.043 1.183 o
-3 11 6 5.530 6.598 0.787 32.906 o
-3 11 7 16.960 16.579 1.371 10.474 o
-3 11 8 3.948 3.957 1.389 12.681 o
-3 12 1 7.683 7.562 0.953 22.807 o
-3 12 2 6.220 5.270 0.642 44.648 o
-3 12 3 0.005 0.662 0.311 252.106 o
-3 12 4 40.993 42.520 2.066 4.077 o
-3 12 5 1.998 2.019 0.998 24.675 o
-2 -13 1 6.628 7.263 1.628 9.070 o
-2 -12 1 47.102 52.783 1.183 6.354 o
-2 -12 2 25.871 29.186 0.884 13.681 o
-2 -12 3 35.182 37.957 3.479 1.874 o
-2 -11 1 18.298 18.236 0.674 23.302 o
-2 -11 2 34.432 36.280 0.943 10.331 o
-2 -11 3 16.284 18.047 0.671 24.855 o
-2 -11 4 10.390 11.146 0.570 39.399 o
-2 -10 1 33.609 33.996 0.868 11.341 o
-2 -10 2 9.351 8.868 0.441 54.665 o
-2 -10 3 51.742 54.473 1.165 5.951 o
-2 -10 4 78.675 87.628 1.495 3.113 o
-2 -10 5 16.725 15.748 0.664 25.609 o
-2 -10 6 0.064 0.305 0.213 528.086 o
-2 -9 1 42.072 42.507 1.028 8.120 o
-2 -9 2 0.174 0.346 0.167 767.637 o
-2 -9 3 42.442 43.444 0.931 8.517 o
-2 -9 4 17.157 16.346 0.585 27.708 o
-2 -9 5 118.525 125.587 1.841 1.695 o
-2 -9 6 10.514 12.127 0.563 38.908 o
-2 -9 7 0.721 0.473 0.184 516.641 o
-2 -8 1 29.960 29.099 0.743 14.200 o
-2 -8 2 1.052 1.038 0.142 555.124 o
-2 -8 3 8.864 9.067 0.378 62.765 o
-2 -8 4 10.394 10.652 0.428 50.767 o
-2 -8 5 3.986 4.130 0.287 134.620 o
-2 -8 6 26.596 24.594 0.709 16.654 o
-2 -8 7 82.619 86.180 1.382 3.134 o
-2 -8 8 13.284 13.356 0.558 34.559 o
-2 -8 9 2.922 1.984 0.789 37.373 o
-2 -7 1 62.502 58.447 1.059 5.270 o
-2 -7 2 5.169 4.472 0.222 139.068 o
-2 -7 3 17.873 17.725 0.497 29.381 o
-2 -7 4 31.719 30.553 0.687 14.030 o
-2 -7 5 17.791 17.749 0.564 27.250 o
-2 -7 6 82.040 83.056 1.287 3.308 o
-2 -7 7 39.888 41.512 0.893 9.269 o
-2 -7 8 38.291 35.149 0.855 10.367 o
-2 -7 9 27.989 27.049 0.812 14.291 o
-2 -6 1 138.376 134.421 1.564 1.499 o
-2 -6 2 171.139 163.583 1.474 1.095 o
-2 -6 3 121.037 118.809 1.271 1.932 o
-2 -6 4 19.749 18.665 0.478 27.636 o
-2 -6 5 60.664 61.469 1.021 5.382 o
-2 -6 6 10.348 10.835 0.424 51.076 o
-2 -6 7 26.061 24.505 0.649 17.843 o
-2 -6 8 144.408 143.122 1.845 1.322 o
-2 -6 9 0.440 0.548 0.218 434.153 o
-2 -6 10 37.766 35.317 0.979 9.568 o
-2 -5 1 80.801 76.755 0.870 3.943 o
-2 -5 2 71.564 70.514 0.782 4.742 o
-2 -5 3 142.255 140.082 1.288 1.492 o
-2 -5 4 154.402 151.780 1.367 1.294 o
-2 -5 5 22.466 22.196 0.562 22.049 o
-2 -5 6 11.089 10.399 0.408 51.034 o
-2 -5 7 192.123 189.403 2.057 0.829 o
-2 -5 8 38.175 36.923 0.801 10.596 o
-2 -5 9 46.396 44.132 1.003 7.607 o
-2 -5 10 1.039 0.768 0.206 388.578 o
-2 -5 11 22.451 20.381 0.807 17.514 o
-2 -4 1 4.720 5.108 0.194 150.757 o
-2 -4 2 361.031 357.159 2.320 0.278 o
-2 -4 3 210.292 207.745 1.786 0.738 o
-2 -4 4 5.941 5.991 0.227 117.308 o
-2 -4 5 408.540 407.657 3.950 0.204 o
-2 -4 6 43.898 43.397 0.779 9.076 o
-2 -4 7 0.014 -0.118 0.122 1716.240 o
-2 -4 8 0.393 0.578 0.156 724.043 o
-2 -4 9 34.863 33.680 0.838 11.361 o
-2 -4 10 29.512 27.878 0.870 13.041 o
-2 -4 11 129.801 122.299 2.034 1.509 o
-2 -4 12 41.788 35.600 3.540 1.785 o
-2 -3 1 9.284 9.699 0.240 75.107 o
-2 -3 2 131.663 134.382 1.042 1.719 o
-2 -3 3 17.745 18.625 0.342 34.017 o
-2 -3 4 572.909 579.472 4.463 0.110 o
-2 -3 5 128.015 128.514 1.282 1.748 o
-2 -3 6 69.421 68.530 0.986 4.630 o
-2 -3 7 90.053 88.321 1.196 3.040 o
-2 -3 8 0.720 0.445 0.148 685.838 o
-2 -3 9 29.847 29.969 0.786 13.613 o
-2 -3 10 7.421 7.036 0.431 64.878 o
-2 -3 11 24.072 23.100 0.822 16.099 o
-2 -3 12 14.912 13.317 0.630 29.436 o
-2 -2 1 1781.630 1827.940 19.748 0.011 o
-2 -2 2 291.450 305.438 2.148 0.396 o
-2 -2 3 27.102 27.825 0.374 20.369 o
-2 -2 4 4.066 4.090 0.151 193.720 o
-2 -2 5 178.086 185.607 1.564 0.967 o
-2 -2 6 34.115 33.980 0.647 13.150 o
-2 -2 7 2.133 1.910 0.163 323.287 o
-2 -2 8 44.200 43.664 0.831 8.749 o
-2 -2 9 61.259 59.712 1.085 5.255 o
-2 -2 10 15.050 14.031 0.586 30.825 o
-2 -2 11 21.210 19.009 0.687 20.979 o
-2 -2 12 70.210 63.409 1.368 4.068 o
-2 -1 1 3248.610 3338.930 25.959 0.004 o
-2 -1 2 108.025 115.589 0.997 2.319 o
-2 -1 3 342.158 365.657 2.432 0.291 o
-2 -1 4 223.914 235.941 1.793 0.640 o
-2 -1 5 12.104 12.839 0.315 52.003 o
-2 -1 6 218.691 229.749 1.918 0.659 o
-2 -1 7 208.936 212.653 2.088 0.710 o
-2 -1 8 151.564 152.383 1.760 1.240 o
-2 -1 9 0.062 0.035 0.153 1044.550 o
-2 -1 10 46.167 42.714 0.915 8.129 o
-2 -1 11 52.031 47.170 1.077 6.547 o
-2 -1 12 1.182 1.171 0.223 323.655 o
-2 -1 13 25.073 22.862 0.879 14.911 o
-2 0 1 4907.180 4738.730 74.158 0.001 o
-2 0 2 47.956 49.529 0.431 9.195 o
-2 0 3 38.154 41.081 0.476 12.177 o
-2 0 4 109.523 115.278 1.042 2.271 o
-2 0 5 176.069 184.920 1.547 0.983 o
-2 0 6 569.584 604.053 4.028 0.110 o
-2 0 7 483.420 505.030 3.770 0.150 o
-2 0 8 89.719 91.764 1.226 2.971 o
-2 0 9 673.552 689.202 5.174 0.080 o
-2 0 10 167.732 165.032 1.952 1.041 o
-2 0 11 14.077 13.323 0.563 33.354 o
-2 0 12 9.377 8.075 0.474 52.269 o
-2 0 13 24.016 22.642 0.865 15.501 o
-2 1 1 88.906 86.923 1.102 3.181 o
-2 1 2 787.115 780.500 9.137 0.054 o
-2 1 3 144.957 147.424 1.021 1.473 o
-2 1 4 45.617 45.832 0.499 9.772 o
-2 1 5 147.958 149.632 1.214 1.394 o
-2 1 6 108.841 111.101 1.049 2.328 o
-2 1 7 348.147 365.729 2.700 0.280 o
-2 1 8 258.472 272.045 2.338 0.479 o
-2 1 9 49.857 49.573 0.909 7.260 o
-2 1 10 10.623 10.031 0.462 48.159 o
-2 1 11 235.704 237.872 2.564 0.557 o
-2 1 12 0.537 0.468 0.165 644.385 o
-2 1 13 6.589 6.219 0.460 65.224 o
-2 1 14 15.617 12.885 1.335 11.354 o
-2 2 1 256.043 254.512 1.832 0.524 o
-2 2 2 192.563 199.384 1.360 0.870 o
-2 2 3 137.823 136.577 0.975 1.635 o
-2 2 4 220.230 222.999 1.506 0.690 o
-2 2 5 0.054 0.190 0.063 4026.090 o
-2 2 6 2.841 2.799 0.157 259.998 o
-2 2 7 147.484 152.901 1.445 1.338 o
-2 2 8 38.033 39.493 0.660 11.293 o
-2 2 9 48.423 50.486 0.868 7.531 o
-2 2 10 507.134 533.294 4.340 0.134 o
-2 2 11 53.391 56.923 1.102 5.912 o
-2 2 12 8.379 7.806 0.473 55.376 o
-2 2 13 0.350 0.685 0.226 412.346 o
-2 2 14 19.286 16.954 0.855 18.500 o
-2 3 1 895.269 898.161 6.039 0.047 o
-2 3 2 18.513 18.747 0.283 34.504 o
-2 3 3 417.515 423.721 2.646 0.208 o
-2 3 4 12.890 13.076 0.251 53.344 o
-2 3 5 652.880 686.433 4.070 0.086 o
-2 3 6 432.215 446.319 3.107 0.189 o
-2 3 7 7.603 8.406 0.291 81.554 o
-2 3 8 10.697 11.410 0.375 53.484 o
-2 3 9 60.980 63.261 0.982 5.380 o
-2 3 10 0.809 1.253 0.177 465.504 o
-2 3 11 29.099 30.275 0.822 13.374 o
-2 3 12 40.564 38.973 1.000 8.727 o
-2 3 13 21.050 20.727 0.840 17.361 o
-2 3 14 8.668 7.936 0.575 44.431 o
-2 4 1 365.344 361.145 2.670 0.268 o
-2 4 2 26.125 26.563 0.429 20.647 o
-2 4 3 94.516 95.742 0.957 2.959 o
-2 4 4 159.354 160.966 1.299 1.221 o
-2 4 5 439.565 457.099 3.110 0.183 o
-2 4 6 10.593 11.461 0.339 56.695 o
-2 4 7 217.360 225.686 2.020 0.663 o
-2 4 8 29.007 30.175 0.635 15.628 o
-2 4 9 10.952 11.078 0.399 51.255 o
-2 4 10 23.217 24.471 0.668 18.875 o
-2 4 11 7.557 7.968 0.409 65.787 o
-2 4 12 1.465 1.637 0.227 285.735 o
-2 4 13 154.372 156.463 2.378 1.073 o
-2 4 14 2.791 2.997 0.359 126.303 o
-2 5 1 234.232 231.626 2.706 0.560 o
-2 5 2 7.533 6.872 0.293 86.454 o
-2 5 3 76.041 75.689 0.988 4.069 o
-2 5 4 442.041 444.191 3.259 0.184 o
-2 5 5 176.105 180.097 1.692 0.980 o
-2 5 6 71.355 74.850 1.026 4.280 o
-2 5 7 39.659 40.182 0.724 10.457 o
-2 5 8 4.150 4.029 0.241 152.074 o
-2 5 9 27.453 28.088 0.662 16.299 o
-2 5 10 17.119 18.009 0.555 28.017 o
-2 5 11 4.429 5.019 0.328 110.089 o
-2 5 12 105.225 107.751 1.663 2.115 o
-2 5 13 8.132 8.726 0.512 50.633 o
-2 5 14 41.463 41.541 3.990 1.436 o
-2 6 1 306.489 292.161 2.441 0.376 o
-2 6 2 611.628 604.495 7.426 0.087 o
-2 6 3 105.484 105.935 1.699 2.106 o
-2 6 4 24.052 23.317 0.531 21.291 o
-2 6 5 5.531 6.825 0.321 95.056 o
-2 6 6 75.337 77.430 1.194 3.792 o
-2 6 7 0.627 0.518 0.139 756.846 o
-2 6 8 16.777 17.795 0.557 28.367 o
-2 6 9 73.480 74.931 1.259 3.837 o
-2 6 10 171.000 174.588 2.065 0.974 o
-2 6 11 128.796 132.265 1.902 1.513 o
-2 6 12 7.900 7.989 0.453 58.895 o
-2 6 13 64.100 58.305 3.025 1.982 o
-2 7 1 371.029 368.822 2.995 0.255 o
-2 7 2 27.995 27.140 0.647 16.474 o
-2 7 3 115.953 112.228 1.686 1.891 o
-2 7 4 200.343 198.131 4.029 0.570 o
-2 7 5 37.402 37.321 0.912 9.927 o
-2 7 6 106.867 106.020 1.512 2.187 o
-2 7 7 3.066 2.828 0.252 180.881 o
-2 7 8 11.142 10.784 0.484 44.514 o
-2 7 9 309.672 315.200 3.300 0.333 o
-2 7 10 74.134 74.747 1.411 3.597 o
-2 7 11 2.119 2.411 0.270 197.831 o
-2 7 12 38.715 38.506 2.324 3.559 o
-2 7 13 102.205 90.532 3.976 1.072 o
-2 8 1 0.139 0.278 0.117 1417.750 o
-2 8 2 101.303 98.191 1.327 2.499 o
-2 8 3 263.734 261.132 4.376 0.382 o
-2 8 4 48.674 49.302 1.208 6.276 o
-2 8 5 0.011 0.097 0.174 823.582 o
-2 8 6 19.988 18.553 0.631 23.265 o
-2 8 7 2.532 2.441 0.255 197.841 o
-2 8 8 8.098 8.026 0.448 58.825 o
-2 8 9 43.261 43.803 1.103 7.523 o
-2 8 10 10.685 10.877 0.563 39.632 o
-2 8 11 260.136 264.809 5.960 0.309 o
-2 8 12 159.758 158.667 5.692 0.499 o
-2 8 13 112.910 107.313 6.085 0.547 o
-2 9 1 0.765 0.324 0.139 739.428 o
-2 9 2 11.503 10.870 0.422 48.395 o
-2 9 3 100.194 100.057 1.424 2.439 o
-2 9 4 141.910 134.718 1.992 1.343 o
-2 9 5 83.691 79.062 2.036 2.516 o
-2 9 6 0.899 1.416 0.254 281.444 o
-2 9 7 38.753 38.326 1.101 8.417 o
-2 9 8 3.187 3.053 0.290 154.044 o
-2 9 9 34.034 31.365 1.005 10.352 o
-2 9 10 71.464 70.694 2.759 2.076 o
-2 9 11 24.229 25.500 1.672 6.848 o
-2 9 12 17.280 15.286 1.704 7.423 o
-2 10 1 19.352 18.900 0.624 23.768 o
-2 10 2 100.506 100.618 1.715 2.235 o
-2 10 3 77.221 75.213 1.237 3.703 o
-2 10 4 8.076 7.518 0.424 62.642 o
-2 10 5 17.001 15.074 0.623 27.066 o
-2 10 6 47.071 45.968 1.446 5.656 o
-2 10 7 29.615 27.061 1.039 11.276 o
-2 10 8 34.475 33.087 1.895 5.033 o
-2 10 9 16.270 16.508 1.340 10.941 o
-2 10 10 12.556 11.896 1.150 15.017 o
-2 10 11 3.907 4.600 0.815 33.239 o
-2 11 1 12.158 12.850 0.555 36.545 o
-2 11 2 2.648 2.562 0.259 190.458 o
-2 11 3 7.295 7.216 0.432 64.958 o
-2 11 4 0.779 0.423 0.171 563.430 o
-2 11 5 33.398 31.820 0.975 10.684 o
-2 11 6 48.906 49.355 2.013 3.843 o
-2 11 7 296.523 298.492 10.720 0.147 o
-2 11 8 0.046 -0.629 0.512 98.336 o
-2 11 9 11.127 11.234 1.154 15.352 o
-2 11 10 1.904 1.078 0.689 50.002 o
-2 12 1 25.943 25.519 0.889 14.109 o
-2 12 2 21.058 20.791 1.338 10.034 o
-2 12 3 10.458 10.268 0.762 28.616 o
-2 12 4 2.339 2.359 0.390 121.025 o
-2 12 5 2.043 1.205 0.499 87.708 o
-2 12 6 40.641 39.254 2.293 3.574 o
-2 12 7 0.131 -0.200 0.286 306.837 o
-2 12 8 73.642 63.782 5.024 0.862 o
-2 13 2 12.465 8.786 1.956 6.180 o
-2 13 3 3.970 3.101 1.123 19.007 o
-2 13 4 0.654 1.072 0.419 131.862 o
-2 13 5 4.785 3.592 1.006 22.828 o
-1 -12 1 1.167 1.246 0.215 337.890 o
-1 -12 2 7.555 7.540 0.449 61.091 o
-1 -12 3 23.657 24.484 0.820 16.033 o
-1 -11 1 5.640 5.640 0.364 88.830 o
-1 -11 2 11.544 12.179 0.535 39.124 o
-1 -11 3 6.824 8.054 0.556 49.774 o
-1 -11 4 6.738 6.895 0.441 66.298 o
-1 -11 5 46.215 50.326 2.512 2.917 o
-1 -10 1 13.882 13.487 0.521 35.619 o
-1 -10 2 32.198 35.955 0.832 11.759 o
-1 -10 3 3.430 4.012 0.298 138.780 o
-1 -10 4 111.374 118.662 1.713 1.899 o
-1 -10 5 19.348 22.011 0.774 19.178 o
-1 -10 6 36.637 37.278 1.047 9.132 o
-1 -9 1 30.122 30.427 0.866 12.597 o
-1 -9 2 0.177 0.241 0.155 889.264 o
-1 -9 3 21.421 21.618 0.621 21.593 o
-1 -9 4 55.617 60.755 1.107 5.574 o
-1 -9 5 35.289 34.504 0.886 10.789 o
-1 -9 6 54.849 57.673 1.222 5.429 o
-1 -9 7 12.099 11.193 0.524 39.749 o
-1 -9 8 18.584 20.801 1.348 10.253 o
-1 -8 1 14.419 13.803 0.500 35.719 o
-1 -8 2 38.111 39.145 0.760 10.658 o
-1 -8 3 291.005 293.408 2.640 0.392 o
-1 -8 4 53.474 52.977 0.927 6.624 o
-1 -8 5 19.204 20.385 0.602 23.943 o
-1 -8 6 2.679 2.276 0.226 219.437 o
-1 -8 7 65.900 66.672 1.405 4.125 o
-1 -8 8 3.103 2.936 0.290 156.556 o
-1 -8 9 20.404 21.448 1.241 11.161 o
-1 -7 1 106.903 102.446 1.403 2.283 o
-1 -7 2 36.931 35.243 0.675 11.984 o
-1 -7 3 134.321 132.882 1.839 1.471 o
-1 -7 4 21.336 23.084 0.582 22.061 o
-1 -7 5 20.829 21.178 0.579 23.091 o
-1 -7 6 32.094 31.128 0.743 13.256 o
-1 -7 7 2.423 2.545 0.245 207.138 o
-1 -7 8 4.681 4.085 0.292 124.079 o
-1 -7 9 66.038 65.868 1.291 4.351 o
-1 -7 10 7.489 8.546 0.943 23.069 o
-1 -6 1 33.654 33.391 0.655 13.305 o
-1 -6 2 32.987 29.909 0.579 14.812 o
-1 -6 3 31.008 30.269 0.596 15.303 o
-1 -6 4 12.710 11.485 0.386 47.466 o
-1 -6 5 7.301 6.471 0.306 86.971 o
-1 -6 6 73.136 75.066 1.129 4.036 o
-1 -6 7 0.527 0.695 0.151 691.483 o
-1 -6 8 185.359 181.401 2.210 0.861 o
-1 -6 9 3.648 3.954 0.309 131.282 o
-1 -6 10 65.354 64.209 1.273 4.464 o
-1 -6 11 3.067 3.084 1.123 19.255 o
-1 -5 1 234.827 231.215 1.979 0.603 o
-1 -5 2 55.105 52.377 0.885 6.616 o
-1 -5 3 12.639 12.684 0.325 50.164 o
-1 -5 4 67.368 67.179 0.918 4.917 o
-1 -5 5 20.137 20.638 0.530 25.028 o
-1 -5 6 79.461 75.697 1.086 3.786 o
-1 -5 7 124.628 122.086 1.805 1.654 o
-1 -5 8 24.150 23.105 0.622 19.595 o
-1 -5 9 4.763 3.700 0.272 132.850 o
-1 -5 10 42.154 40.594 0.963 8.589 o
-1 -5 11 1.391 1.383 0.246 269.205 o
-1 -4 1 125.904 129.939 1.228 1.784 o
-1 -4 2 2072.730 2078.840 16.009 0.009 o
-1 -4 3 27.211 26.375 0.419 20.168 o
-1 -4 4 0.083 0.205 0.084 2548.650 o
-1 -4 5 280.996 279.270 2.409 0.427 o
-1 -4 6 730.000 744.989 5.187 0.069 o
-1 -4 7 3.560 3.850 0.234 168.831 o
-1 -4 8 116.837 113.045 1.407 1.996 o
-1 -4 9 60.032 59.184 1.021 5.515 o
-1 -4 10 11.150 10.659 0.494 43.912 o
-1 -4 11 28.501 27.023 0.862 13.527 o
-1 -4 12 51.593 48.707 1.336 5.628 o
-1 -3 1 4485.580 4604.530 30.503 0.002 o
-1 -3 2 45.234 48.367 0.522 9.516 o
-1 -3 3 162.060 165.612 1.524 1.147 o
-1 -3 4 60.802 62.237 0.812 5.803 o
-1 -3 5 210.568 215.911 1.828 0.718 o
-1 -3 6 55.058 54.167 0.750 6.918 o
-1 -3 7 543.832 552.336 4.251 0.121 o
-1 -3 8 183.890 183.018 2.472 0.830 o
-1 -3 9 0.138 0.300 0.137 1100.450 o
-1 -3 10 9.244 8.873 0.457 53.379 o
-1 -3 11 1.065 0.891 0.201 392.316 o
-1 -3 12 22.736 21.598 0.860 16.198 o
-1 -2 1 4.914 4.780 0.144 166.421 o
-1 -2 2 318.140 334.787 2.158 0.339 o
-1 -2 3 524.687 537.226 3.368 0.133 o
-1 -2 4 233.116 246.909 1.839 0.593 o
-1 -2 5 223.840 231.282 1.811 0.646 o
-1 -2 6 2216.020 2327.680 13.102 0.008 o
-1 -2 7 0.521 1.242 0.186 481.737 o
-1 -2 8 126.240 127.131 1.378 1.752 o
-1 -2 9 53.113 50.644 1.001 6.535 o
-1 -2 10 1.333 1.429 0.197 350.033 o
-1 -2 11 0.821 0.932 0.202 413.842 o
-1 -2 12 2.236 2.202 0.277 192.048 o
-1 -2 13 4.404 4.096 0.395 94.433 o
-1 -1 1 94.505 100.754 0.940 2.892 o
-1 -1 2 207.456 219.390 1.853 0.722 o
-1 -1 3 324.087 350.459 2.315 0.320 o
-1 -1 4 25.720 28.020 0.384 21.059 o
-1 -1 5 501.812 536.312 3.362 0.140 o
-1 -1 6 14.527 15.575 0.338 41.968 o
-1 -1 7 78.292 79.948 0.909 3.947 o
-1 -1 8 366.174 382.638 2.995 0.253 o
-1 -1 9 9.859 9.823 0.395 56.441 o
-1 -1 10 185.214 186.916 2.291 0.839 o
-1 -1 11 14.533 14.278 0.576 31.696 o
-1 -1 12 0.094 0.377 0.185 666.850 o
-1 -1 13 19.720 17.804 0.773 20.039 o
-1 0 1 2.716 2.847 0.065 335.483 o
-1 0 2 1.959 2.487 0.078 419.828 o
-1 0 3 138.982 147.425 1.037 1.539 o
-1 0 4 239.553 257.394 2.002 0.554 o
-1 0 5 438.999 459.772 2.980 0.184 o
-1 0 6 47.666 49.056 0.628 8.644 o
-1 0 7 209.664 218.153 1.876 0.714 o
-1 0 8 0.375 0.349 0.112 1186.530 o
-1 0 9 325.561 337.083 3.092 0.309 o
-1 0 10 0.618 0.765 0.163 597.279 o
-1 0 11 6.712 7.233 0.410 70.476 o
-1 0 12 163.163 157.691 2.438 1.004 o
-1 0 13 17.990 15.705 0.711 23.258 o
-1 0 14 2.632 2.516 0.321 150.807 o
-1 1 1 0.205 0.394 0.037 3216.590 o
-1 1 2 9.812 9.837 0.174 78.042 o
-1 1 3 139.598 145.383 0.965 1.558 o
-1 1 4 7.253 7.377 0.172 106.846 o
-1 1 5 10.284 11.181 0.252 65.826 o
-1 1 6 48.763 50.432 0.667 8.231 o
-1 1 7 296.042 311.567 2.322 0.380 o
-1 1 8 125.739 134.123 1.571 1.649 o
-1 1 9 118.512 123.452 1.415 1.881 o
-1 1 10 12.128 11.744 0.453 43.906 o
-1 1 11 500.423 518.318 4.536 0.137 o
-1 1 12 0.386 0.591 0.188 552.616 o
-1 1 13 22.213 20.110 0.797 17.863 o
-1 1 14 28.470 25.417 0.950 12.679 o
-1 2 1 4506.470 4578.330 40.799 0.002 o
-1 2 2 118.163 122.298 0.820 2.101 o
-1 2 3 2063.460 2119.830 11.239 0.009 o
-1 2 4 35.721 35.137 0.421 14.194 o
-1 2 5 109.622 113.862 0.926 2.331 o
-1 2 6 0.014 0.170 0.058 5159.010 o
-1 2 7 242.096 249.460 1.842 0.565 o
-1 2 8 219.035 223.323 1.770 0.678 o
-1 2 9 45.117 47.361 0.774 8.586 o
-1 2 10 272.416 286.460 2.586 0.430 o
-1 2 11 31.376 31.659 0.785 12.950 o
-1 2 12 135.580 140.610 1.987 1.376 o
-1 2 13 10.518 9.907 0.588 38.863 o
-1 2 14 8.845 8.276 0.571 44.165 o
-1 3 1 974.382 987.031 7.411 0.039 o
-1 3 2 2555.050 2603.600 15.100 0.006 o
-1 3 3 587.015 600.824 3.458 0.108 o
-1 3 4 7.650 8.225 0.211 93.854 o
-1 3 5 530.463 551.729 3.434 0.129 o
-1 3 6 386.990 402.098 2.691 0.234 o
-1 3 7 73.612 76.651 0.869 4.321 o
-1 3 8 400.746 415.141 2.918 0.218 o
-1 3 9 460.589 471.572 3.595 0.166 o
-1 3 10 83.796 85.100 1.255 3.245 o
-1 3 11 54.841 58.947 1.078 5.783 o
-1 3 12 10.688 9.871 0.510 44.344 o
-1 3 13 1.278 1.153 0.251 274.219 o
-1 3 14 42.475 38.812 1.308 6.865 o
-1 4 1 552.692 555.110 5.523 0.112 o
-1 4 2 86.802 91.086 0.917 3.335 o
-1 4 3 803.241 819.247 5.365 0.058 o
-1 4 4 2503.780 2560.920 14.508 0.006 o
-1 4 5 90.362 91.482 0.899 3.210 o
-1 4 6 23.121 23.725 0.440 23.506 o
-1 4 7 641.025 659.390 4.217 0.090 o
-1 4 8 773.908 795.238 5.703 0.061 o
-1 4 9 12.183 12.383 0.422 45.241 o
-1 4 10 51.287 53.811 1.019 6.501 o
-1 4 11 62.950 65.719 1.202 4.698 o
-1 4 12 4.444 4.368 0.333 111.326 o
-1 4 13 0.211 0.510 0.237 402.938 o
-1 4 14 4.114 3.527 0.392 99.358 o
-1 5 1 133.242 133.287 1.431 1.603 o
-1 5 2 429.558 430.008 3.879 0.188 o
-1 5 3 484.219 497.011 3.537 0.152 o
-1 5 4 22.681 23.047 0.458 23.745 o
-1 5 5 204.121 202.996 1.662 0.783 o
-1 5 6 32.075 32.203 0.567 14.843 o
-1 5 7 199.847 203.813 1.803 0.788 o
-1 5 8 88.187 90.063 1.072 3.178 o
-1 5 9 166.559 167.844 1.711 1.077 o
-1 5 10 342.160 344.134 3.007 0.291 o
-1 5 11 6.802 6.046 0.351 83.066 o
-1 5 12 20.601 21.649 0.689 20.524 o
-1 5 13 0.421 0.585 0.209 464.737 o
-1 5 14 14.889 13.909 0.734 25.147 o
-1 6 1 243.681 237.907 2.167 0.560 o
-1 6 2 3.964 3.752 0.251 153.707 o
-1 6 3 12.949 12.939 0.374 46.054 o
-1 6 4 83.421 82.511 1.140 3.424 o
-1 6 5 2.627 3.245 0.188 234.508 o
-1 6 6 19.636 18.785 0.511 26.744 o
-1 6 7 52.651 51.751 0.875 6.943 o
-1 6 8 180.763 180.391 1.728 0.948 o
-1 6 9 215.530 214.412 2.141 0.680 o
-1 6 10 76.004 75.627 1.235 3.748 o
-1 6 11 87.888 87.807 1.487 2.849 o
-1 6 12 3.414 3.672 0.301 140.108 o
-1 6 13 57.798 56.288 1.342 4.962 o
-1 6 14 159.396 163.607 2.525 0.992 o
-1 7 1 77.273 73.207 0.942 4.127 o
-1 7 2 31.801 30.361 0.652 14.403 o
-1 7 3 50.080 46.542 0.970 7.176 o
-1 7 4 4.131 3.539 0.224 165.090 o
-1 7 5 55.252 52.451 0.879 6.616 o
-1 7 6 49.644 48.617 0.942 7.218 o
-1 7 7 0.317 0.427 0.153 800.946 o
-1 7 8 159.548 161.215 2.037 1.092 o
-1 7 9 4.711 5.079 0.340 103.598 o
-1 7 10 177.347 176.677 2.284 0.902 o
-1 7 11 24.153 24.404 0.825 15.790 o
-1 7 12 68.058 68.237 1.461 3.895 o
-1 7 13 255.615 261.531 3.306 0.449 o
-1 7 14 125.658 123.168 2.183 1.493 o
-1 8 1 10.850 9.499 0.344 58.615 o
-1 8 2 0.341 0.336 0.119 1142.890 o
-1 8 3 99.022 96.042 1.344 2.568 o
-1 8 4 103.100 97.445 1.595 2.294 o
-1 8 5 3.841 3.613 0.265 150.215 o
-1 8 6 60.919 59.539 1.092 5.269 o
-1 8 7 164.476 162.010 2.024 1.059 o
-1 8 8 21.803 21.801 0.724 19.131 o
-1 8 9 88.895 89.725 1.606 2.689 o
-1 8 10 4.404 4.580 0.370 99.634 o
-1 8 11 146.427 147.169 2.269 1.183 o
-1 8 12 71.836 70.040 1.674 3.382 o
-1 8 13 16.852 17.632 0.850 19.522 o
-1 8 14 26.190 25.521 1.121 11.198 o
-1 9 1 41.661 40.473 0.774 9.745 o
-1 9 2 31.674 30.031 0.656 14.457 o
-1 9 3 123.877 119.010 1.432 1.827 o
-1 9 4 3.750 3.982 0.286 139.500 o
-1 9 5 52.922 51.795 1.311 5.507 o
-1 9 6 4.457 4.123 0.348 107.860 o
-1 9 7 128.737 124.222 1.841 1.579 o
-1 9 8 199.752 194.846 2.554 0.733 o
-1 9 9 5.990 5.992 0.412 76.168 o
-1 9 10 78.764 74.775 1.585 3.204 o
-1 9 11 67.815 64.270 1.476 3.963 o
-1 9 12 25.879 24.657 0.996 12.822 o
-1 9 13 141.017 136.424 2.409 1.227 o
-1 10 1 1.830 1.698 0.194 308.572 o
-1 10 2 9.743 9.397 0.413 55.672 o
-1 10 3 95.379 95.840 1.390 2.628 o
-1 10 4 19.616 19.210 0.591 24.366 o
-1 10 5 194.279 190.979 3.049 0.704 o
-1 10 6 38.612 37.983 1.192 7.917 o
-1 10 7 332.919 328.689 6.825 0.213 o
-1 10 8 157.756 148.539 2.251 1.103 o
-1 10 9 15.604 15.655 0.687 25.707 o
-1 10 10 2.530 2.423 0.312 158.970 o
-1 10 11 0.113 0.143 0.224 486.230 o
-1 10 12 71.701 63.815 1.548 3.692 o
-1 11 1 0.356 0.439 0.174 646.620 o
-1 11 2 0.039 0.000 0.163 945.871 o
-1 11 3 53.724 53.311 1.064 6.155 o
-1 11 4 107.187 105.978 1.655 2.101 o
-1 11 5 17.707 17.152 0.637 25.201 o
-1 11 6 21.970 20.733 0.772 18.322 o
-1 11 7 0.230 0.707 0.251 356.091 o
-1 11 8 2.509 1.558 0.321 161.667 o
-1 11 9 14.619 11.948 0.749 25.468 o
-1 11 10 24.135 20.736 0.847 16.091 o
-1 11 11 158.891 148.465 3.150 0.909 o
-1 11 12 0.252 0.412 0.456 119.778 o
-1 12 1 26.099 26.581 0.896 13.820 o
-1 12 2 51.809 51.998 1.271 5.703 o
-1 12 3 12.390 11.581 0.539 38.080 o
-1 12 4 0.067 0.175 0.184 707.004 o
-1 12 5 30.313 29.502 0.881 12.511 o
-1 12 6 53.573 51.413 1.189 5.854 o
-1 12 7 6.413 5.359 0.416 74.935 o
-1 12 8 3.993 3.537 0.397 98.968 o
-1 12 9 19.503 18.120 1.102 13.559 o
-1 12 10 59.092 52.731 2.956 2.133 o
-1 13 1 131.620 147.053 2.099 1.350 o
-1 13 2 19.098 20.368 0.851 17.981 o
-1 13 3 1.123 1.128 0.280 241.642 o
-1 13 4 0.013 0.200 0.257 379.089 o
-1 13 5 17.558 16.233 0.743 22.419 o
-1 13 6 2.097 1.127 0.263 225.154 o
-1 13 7 6.224 5.674 0.493 62.376 o
-1 13 8 6.060 4.664 0.613 48.505 o
0 -13 1 6.750 8.108 1.895 6.798 o
0 -12 1 14.258 14.864 0.689 26.944 o
0 -12 2 17.087 20.035 0.762 21.090 o
0 -12 3 3.822 3.629 0.351 114.992 o
0 -11 1 76.745 84.315 1.308 3.453 o
0 -11 2 33.805 36.603 0.893 10.821 o
0 -11 3 1.882 1.793 0.227 259.719 o
0 -11 4 0.395 0.433 0.198 524.152 o
0 -11 5 1.457 1.140 0.266 244.994 o
0 -10 1 5.109 4.730 0.280 119.456 o
0 -10 2 51.400 54.944 0.995 6.515 o
0 -10 3 1.580 1.997 0.224 274.102 o
0 -10 4 23.140 26.049 0.751 17.088 o
0 -10 5 10.925 10.949 0.533 41.222 o
0 -10 6 0.659 0.372 0.197 490.134 o
0 -10 7 11.127 10.696 1.371 11.617 o
0 -9 1 8.686 8.597 0.436 57.553 o
0 -9 2 0.721 0.910 0.168 538.763 o
0 -9 3 19.870 20.010 0.596 23.748 o
0 -9 4 147.501 157.066 1.896 1.224 o
0 -9 5 2.762 3.485 0.304 150.435 o
0 -9 6 2.458 1.316 0.223 248.893 o
0 -9 7 12.907 13.348 0.570 34.440 o
0 -9 8 18.778 17.949 1.248 11.621 o
0 -8 1 13.087 13.055 0.491 38.674 o
0 -8 2 15.421 15.204 0.464 35.059 o
0 -8 3 52.520 53.515 0.929 6.687 o
0 -8 4 0.697 0.960 0.166 545.323 o
0 -8 5 67.361 68.294 1.231 4.331 o
0 -8 6 38.301 39.724 0.922 9.500 o
0 -8 7 3.104 2.496 0.251 184.741 o
0 -8 8 17.129 17.960 0.652 24.889 o
0 -8 9 0.043 0.146 0.197 632.950 o
0 -7 1 23.056 22.391 0.508 22.692 o
0 -7 2 0.025 0.080 0.089 2895.120 o
0 -7 3 68.138 65.659 0.925 4.904 o
0 -7 4 149.929 150.288 1.611 1.294 o
0 -7 5 22.824 23.603 0.626 20.109 o
0 -7 6 28.299 30.087 0.721 14.848 o
0 -7 7 7.006 7.513 0.391 71.486 o
0 -7 8 23.110 22.517 0.696 18.872 o
0 -7 9 12.983 13.124 0.549 35.564 o
0 -7 10 0.033 -0.225 0.199 641.971 o
0 -6 1 579.594 563.502 5.445 0.106 o
0 -6 2 75.266 71.823 0.830 4.414 o
0 -6 3 143.278 141.069 1.397 1.451 o
0 -6 4 5.859 5.033 0.245 119.342 o
0 -6 5 53.439 51.030 0.886 6.860 o
0 -6 6 0.484 1.691 0.185 456.188 o
0 -6 7 56.910 55.949 0.970 6.034 o
0 -6 8 22.637 23.009 0.643 20.034 o
0 -6 9 0.567 0.722 0.177 549.786 o
0 -6 10 0.950 1.040 0.192 419.121 o
0 -6 11 11.025 10.350 0.618 35.891 o
0 -5 1 120.107 122.922 1.189 1.943 o
0 -5 2 49.660 48.001 0.608 8.483 o
0 -5 3 147.934 146.091 1.281 1.400 o
0 -5 4 14.319 13.555 0.368 42.850 o
0 -5 5 5.583 6.400 0.282 105.573 o
0 -5 6 20.459 21.225 0.536 24.398 o
0 -5 7 2.491 2.058 0.205 250.504 o
0 -5 8 18.104 16.757 0.522 28.777 o
0 -5 9 7.373 6.905 0.354 77.066 o
0 -5 10 22.190 21.136 0.651 20.634 o
0 -5 11 7.959 8.184 0.502 52.760 o
0 -5 12 43.169 41.802 3.935 1.464 o
0 -4 1 353.053 356.012 3.434 0.267 o
0 -4 2 1191.370 1203.400 10.331 0.026 o
0 -4 3 104.194 104.014 0.997 2.546 o
0 -4 4 262.288 270.181 2.145 0.481 o
0 -4 5 37.579 35.617 0.628 12.110 o
0 -4 6 151.971 154.938 1.582 1.261 o
0 -4 7 28.135 28.884 0.615 16.479 o
0 -4 8 0.009 0.449 0.149 986.549 o
0 -4 9 41.754 41.479 0.837 9.283 o
0 -4 10 63.046 61.445 1.091 5.060 o
0 -4 11 21.471 20.181 0.743 19.270 o
0 -4 12 39.999 40.172 1.151 7.858 o
0 -3 1 50.679 52.305 0.534 8.221 o
0 -3 2 5.837 5.910 0.164 134.376 o
0 -3 3 590.142 647.497 4.169 0.100 o
0 -3 4 519.457 536.628 3.869 0.132 o
0 -3 5 38.860 37.565 0.561 11.961 o
0 -3 6 647.408 662.520 4.935 0.086 o
0 -3 7 485.455 496.459 5.126 0.141 o
0 -3 8 2.730 2.650 0.200 232.226 o
0 -3 9 9.089 8.606 0.361 64.787 o
0 -3 10 3.740 3.517 0.266 152.739 o
0 -3 11 25.401 23.857 0.837 15.280 o
0 -3 12 8.073 7.794 0.483 55.051 o
0 -3 13 8.028 7.418 0.494 54.452 o
0 -2 1 75.790 78.766 0.682 4.350 o
0 -2 2 630.785 655.580 3.931 0.093 o
0 -2 3 155.215 161.111 1.287 1.258 o
0 -2 4 225.764 240.173 1.828 0.625 o
0 -2 5 279.229 292.895 1.978 0.432 o
0 -2 6 99.977 104.495 1.166 2.553 o
0 -2 7 0.062 0.246 0.106 1798.430 o
0 -2 8 6.060 6.114 0.278 103.509 o
0 -2 9 3.584 3.557 0.233 171.922 o
0 -2 10 105.790 105.313 1.510 2.215 o
0 -2 11 22.729 22.065 0.764 17.851 o
0 -2 12 0.108 0.420 0.198 581.770 o
0 -2 13 16.795 15.466 0.711 24.109 o
0 -1 2 909.620 989.963 6.344 0.043 o
0 -1 3 0.059 0.121 0.037 7664.390 o
0 -1 4 2.366 2.393 0.102 357.049 o
0 -1 5 333.462 356.615 2.266 0.307 o
0 -1 6 513.128 547.754 3.486 0.134 o
0 -1 7 5.854 5.752 0.239 116.732 o
0 -1 8 6.576 7.250 0.284 93.337 o
0 -1 9 36.373 35.649 0.699 11.887 o
0 -1 10 35.668 35.082 0.839 11.024 o
0 -1 11 43.705 42.307 0.999 8.075 o
0 -1 12 39.555 40.023 1.021 8.670 o
0 -1 13 9.159 8.593 0.522 47.594 o
0 -1 14 37.968 36.484 1.138 8.410 o
0 0 2 568.420 616.603 3.441 0.111 o
0 0 3 269.309 285.265 1.772 0.464 o
0 0 4 662.409 700.735 3.945 0.084 o
0 0 5 37.572 39.811 0.483 12.479 o
0 0 6 104.877 115.494 1.151 2.319 o
0 0 7 66.947 73.429 0.901 4.770 o
0 0 8 318.046 334.995 3.011 0.320 o
0 0 9 165.951 170.181 1.824 1.056 o
0 0 10 8.234 9.436 0.408 60.800 o
0 0 11 2.651 4.303 0.308 143.578 o
0 0 12 17.318 18.535 0.715 22.690 o
0 0 13 68.890 69.363 1.495 3.780 o
0 0 14 7.610 7.315 0.520 52.685 o
0 1 0 51.239 18.035 10.234 0.242 o
0 1 1 835.646 878.485 5.987 0.052 o
0 1 3 260.572 276.369 1.709 0.493 o
0 1 4 64.794 68.995 0.620 5.522 o
0 1 5 2071.430 2177.140 16.094 0.009 o
0 1 6 261.083 274.201 2.612 0.460 o
0 1 7 91.310 93.680 0.935 3.114 o
0 1 8 248.759 259.954 2.631 0.498 o
0 1 9 18.430 18.878 0.489 28.491 o
0 1 10 99.763 103.245 1.459 2.391 o
0 1 11 10.120 9.723 0.435 52.097 o
0 1 12 50.695 52.709 1.215 5.944 o
0 1 13 56.863 57.311 1.345 4.978 o
0 1 14 104.487 105.592 1.968 1.967 o
0 2 0 3428.270 3434.390 21.826 0.003 o
0 2 1 2153.500 2206.850 15.078 0.008 o
0 2 2 1.742 2.363 0.101 427.008 o
0 2 3 1531.790 1603.130 9.418 0.016 o
0 2 4 459.674 482.859 2.825 0.170 o
0 2 5 61.561 63.389 0.580 6.125 o
0 2 6 55.877 57.644 0.614 6.971 o
0 2 7 14.105 14.827 0.305 45.174 o
0 2 8 61.579 66.377 0.813 5.564 o
0 2 9 354.150 361.758 2.801 0.275 o
0 2 10 20.195 20.305 0.517 25.450 o
0 2 11 46.386 48.629 0.964 7.506 o
0 2 12 1.779 1.890 0.248 238.641 o
0 2 13 150.562 158.654 2.350 1.096 o
0 2 14 12.636 12.378 0.765 26.083 o
0 2 15 42.659 39.186 1.343 6.669 o
0 3 0 106.071 109.725 0.936 2.457 o
0 3 1 78.886 77.872 0.810 4.074 o
0 3 2 1018.620 1041.220 7.013 0.036 o
0 3 3 519.258 541.287 3.630 0.133 o
0 3 4 432.477 446.018 2.884 0.191 o
0 3 5 840.947 861.557 5.418 0.053 o
0 3 7 69.570 71.779 0.847 4.737 o
0 3 8 30.833 31.031 0.555 15.653 o
0 3 9 104.764 109.397 1.213 2.358 o
0 3 10 1.642 1.663 0.172 359.370 o
0 3 11 11.691 11.710 0.480 42.936 o
0 3 12 23.071 25.050 0.856 15.568 o
0 3 13 7.685 7.295 0.536 50.840 o
0 3 14 11.738 12.415 0.750 27.329 o
0 3 15 60.430 63.739 1.731 3.792 o
0 4 0 0.023 0.477 0.069 2828.630 o
0 4 1 0.280 0.343 0.075 1962.810 o
0 4 2 139.065 141.454 1.372 1.501 o
0 4 3 762.436 772.134 5.808 0.063 o
0 4 4 1429.490 1459.300 9.165 0.019 o
0 4 5 101.581 103.009 1.052 2.597 o
0 4 6 748.719 767.249 4.861 0.067 o
0 4 7 3.883 4.296 0.201 172.879 o
0 4 8 57.405 64.777 0.896 5.798 o
0 4 9 26.980 27.072 0.580 17.871 o
0 4 10 3.157 3.541 0.233 182.264 o
0 4 11 35.253 36.288 0.842 10.959 o
0 4 12 152.184 160.029 2.495 1.050 o
0 4 13 63.780 65.643 1.469 4.124 o
0 4 14 1.161 1.314 0.300 213.786 o
0 4 15 5.955 6.096 0.521 58.500 o
0 5 0 763.429 767.992 5.298 0.064 o
0 5 1 84.838 84.749 0.965 3.495 o
0 5 2 330.868 328.894 3.400 0.301 o
0 5 3 683.994 699.737 5.183 0.078 o
0 5 4 18.859 19.081 0.469 28.560 o
0 5 5 675.168 696.911 5.026 0.080 o
0 5 6 245.122 249.217 2.096 0.545 o
0 5 7 53.004 54.411 0.817 6.940 o
0 5 8 12.946 13.583 0.404 43.580 o
0 5 9 85.646 87.229 1.166 3.231 o
0 5 10 48.098 48.092 0.871 7.713 o
0 5 11 0.070 0.401 0.160 856.360 o
0 5 12 6.277 7.012 0.430 69.508 o
0 5 13 44.913 43.657 1.149 7.136 o
0 5 14 323.069 334.366 3.875 0.294 o
0 5 15 80.983 85.886 1.936 2.601 o
0 6 1 877.003 863.102 6.019 0.050 o
0 6 2 1416.400 1424.930 11.713 0.019 o
0 6 3 398.005 416.116 3.614 0.211 o
0 6 4 109.556 111.488 1.374 2.156 o
0 6 5 37.280 39.098 0.720 11.112 o
0 6 6 31.528 32.167 0.667 14.043 o
0 6 7 3.599 3.960 0.256 156.086 o
0 6 8 0.059 0.066 0.119 1654.070 o
0 6 9 36.099 44.252 0.896 9.656 o
0 6 10 38.164 38.785 0.864 9.983 o
0 6 11 0.064 0.043 0.158 984.990 o
0 6 12 32.356 34.989 1.033 10.101 o
0 6 13 61.699 60.505 1.453 4.375 o
0 6 14 72.869 76.408 1.811 3.063 o
0 6 15 2.124 2.792 0.387 122.558 o
0 7 0 621.575 623.645 4.782 0.095 o
0 7 1 561.392 552.036 4.201 0.117 o
0 7 2 275.370 272.780 2.439 0.442 o
0 7 3 318.875 311.973 3.565 0.317 o
0 7 4 281.587 281.592 2.814 0.410 o
0 7 5 2.038 2.029 0.183 300.042 o
0 7 6 14.255 13.787 0.459 38.009 o
0 7 7 175.826 169.707 1.922 0.981 o
0 7 8 15.595 15.437 0.519 32.326 o
0 7 9 94.254 95.465 1.417 2.641 o
0 7 10 0.118 0.105 0.150 1023.220 o
0 7 11 63.454 63.251 1.170 4.808 o
0 7 12 30.135 30.640 0.946 11.743 o
0 7 13 0.110 0.311 0.199 585.876 o
0 7 14 26.246 28.462 0.991 12.365 o
0 7 15 25.734 25.334 1.577 7.346 o
0 8 0 36.120 37.772 0.767 11.187 o
0 8 1 146.774 144.183 1.637 1.345 o
0 8 2 1006.990 984.010 7.446 0.038 o
0 8 3 228.016 221.245 2.551 0.600 o
0 8 4 64.211 63.287 1.361 4.373 o
0 8 5 4.211 3.972 0.283 134.452 o
0 8 6 114.830 108.135 1.545 2.008 o
0 8 7 243.466 236.945 2.473 0.545 o
0 8 8 278.272 279.851 2.824 0.416 o
0 8 9 66.791 64.248 1.180 4.564 o
0 8 10 323.589 323.336 3.252 0.315 o
0 8 11 68.878 68.160 1.370 4.017 o
0 8 12 10.609 11.615 0.658 33.306 o
0 8 13 3.872 4.158 0.422 90.494 o
0 8 14 52.940 52.181 1.522 4.873 o
0 9 0 28.625 27.703 0.765 14.586 o
0 9 1 77.614 77.529 1.247 3.626 o
0 9 2 60.663 58.544 1.016 5.502 o
0 9 3 50.703 49.267 0.930 7.104 o
0 9 4 376.398 365.056 4.077 0.235 o
0 9 5 30.659 29.447 0.894 12.295 o
0 9 6 17.064 20.398 0.655 23.951 o
0 9 7 29.430 28.166 0.792 13.940 o
0 9 8 290.121 278.246 3.524 0.373 o
0 9 9 16.332 18.757 0.673 24.504 o
0 9 10 11.676 11.605 0.549 38.506 o
0 9 11 3.872 3.389 0.319 127.987 o
0 9 12 122.323 120.851 2.308 1.489 o
0 9 13 1.791 1.597 0.292 198.994 o
0 9 14 12.108 11.756 0.741 27.693 o
0 10 0 98.519 99.266 1.557 2.395 o
0 10 1 0.264 0.355 0.155 820.619 o
0 10 2 3.244 3.747 0.255 165.252 o
0 10 3 140.035 136.862 1.620 1.453 o
0 10 4 5.227 5.092 0.316 105.836 o
0 10 5 157.234 154.331 2.370 1.063 o
0 10 6 40.948 38.783 1.103 8.093 o
0 10 7 10.108 8.489 0.455 51.781 o
0 10 8 64.772 62.968 1.290 4.494 o
0 10 9 2.294 1.358 0.220 258.990 o
0 10 10 13.674 13.602 0.664 29.005 o
0 10 11 87.179 82.104 1.718 2.720 o
0 10 12 23.769 21.782 0.886 15.384 o
0 10 13 1.661 0.979 0.280 224.644 o
0 11 0 6.578 6.295 0.398 75.175 o
0 11 1 85.260 87.039 1.505 2.916 o
0 11 2 191.460 193.418 2.299 0.797 o
0 11 3 0.061 0.466 0.163 818.599 o
0 11 4 143.913 145.074 1.896 1.305 o
0 11 5 47.768 47.668 1.052 7.043 o
0 11 6 73.026 69.274 1.414 3.745 o
0 11 7 166.326 158.666 2.570 0.959 o
0 11 8 9.666 7.748 0.536 46.217 o
0 11 9 2.924 2.233 0.271 178.844 o
0 11 10 1.147 0.732 0.216 358.692 o
0 11 11 2.504 3.762 0.388 113.534 o
0 11 12 0.187 -0.107 0.216 517.980 o
0 12 0 14.695 15.554 0.616 29.183 o
0 12 1 200.512 221.205 3.066 0.636 o
0 12 2 51.137 52.470 1.325 5.564 o
0 12 3 5.044 5.086 0.392 87.757 o
0 12 4 1.309 1.223 0.216 326.618 o
0 12 5 6.568 6.757 0.454 65.148 o
0 12 6 144.048 142.951 2.257 1.220 o
0 12 7 9.205 8.363 0.519 48.049 o
0 12 8 40.277 36.717 1.225 7.612 o
0 12 9 2.215 3.696 0.446 95.614 o
0 12 10 0.207 0.326 0.256 360.238 o
0 12 11 0.663 0.815 0.286 258.441 o
0 13 0 19.548 22.174 0.901 16.475 o
0 13 1 0.162 0.332 0.195 594.562 o
0 13 2 49.962 53.346 1.413 5.336 o
0 13 3 5.394 5.250 0.443 74.758 o
0 13 4 22.464 23.775 0.939 14.635 o
0 13 5 72.194 74.840 2.064 2.776 o
0 13 6 19.619 16.556 0.739 21.269 o
0 13 7 4.444 4.163 0.375 99.438 o
0 13 8 18.931 18.319 0.807 19.472 o
0 13 9 2.900 2.402 0.426 101.938 o
0 14 3 31.208 28.909 3.418 1.988 o
0 14 4 20.909 17.667 2.629 3.383 o
0 14 5 1.593 0.973 0.861 33.234 o
0 14 6 0.128 1.734 0.939 28.746 o
1 -13 0 36.703 39.539 1.158 8.251 o
1 -12 0 1.808 1.334 0.207 302.827 o
1 -12 1 0.826 0.933 0.212 386.373 o
1 -12 2 16.856 17.635 0.679 24.331 o
1 -12 3 58.678 62.456 2.162 3.100 o
1 -11 0 0.160 0.370 0.158 845.836 o
1 -11 1 14.407 13.962 0.541 33.644 o
1 -11 2 55.927 61.509 1.240 5.176 o
1 -11 3 35.951 36.643 0.964 9.871 o
1 -11 4 6.213 6.297 0.439 69.778 o
1 -11 5 44.204 47.861 1.388 6.007 o
1 -10 0 1.369 1.301 0.194 358.035 o
1 -10 1 0.594 0.679 0.156 649.211 o
1 -10 2 6.622 6.264 0.348 84.010 o
1 -10 3 34.060 36.578 0.907 10.661 o
1 -10 4 88.211 97.545 1.578 2.634 o
1 -10 5 1.157 0.682 0.245 303.351 o
1 -10 6 24.714 25.777 0.871 14.694 o
1 -9 0 1.023 0.904 0.131 613.366 o
1 -9 1 4.510 4.158 0.250 141.352 o
1 -9 2 30.475 32.235 0.699 14.033 o
1 -9 3 47.301 51.286 0.971 7.220 o
1 -9 4 2.418 2.407 0.219 232.824 o
1 -9 5 164.028 179.995 3.241 0.805 o
1 -9 6 1.156 1.168 0.222 328.930 o
1 -9 7 26.532 26.965 0.841 14.373 o
1 -9 8 0.762 1.077 0.324 203.487 o
1 -8 0 53.304 51.892 0.867 6.887 o
1 -8 1 74.437 74.624 1.064 4.075 o
1 -8 2 71.817 72.797 0.988 4.366 o
1 -8 3 1.985 1.680 0.165 340.603 o
1 -8 4 85.372 89.775 1.281 3.089 o
1 -8 5 15.562 17.281 0.582 28.875 o
1 -8 6 93.189 94.941 1.535 2.581 o
1 -8 7 39.979 41.043 0.944 8.989 o
1 -8 8 13.340 12.277 0.543 35.975 o
1 -8 9 27.284 28.102 0.878 13.508 o
1 -7 0 185.878 179.277 1.680 0.928 o
1 -7 1 187.820 183.507 1.775 0.896 o
1 -7 2 224.707 221.324 1.806 0.660 o
1 -7 3 76.710 77.344 0.986 3.997 o
1 -7 4 11.568 12.343 0.423 46.523 o
1 -7 5 43.256 42.497 0.864 8.814 o
1 -7 6 0.590 0.748 0.171 570.501 o
1 -7 7 5.815 5.507 0.336 94.491 o
1 -7 8 74.051 76.280 1.682 3.201 o
1 -7 9 5.784 6.445 0.417 75.167 o
1 -7 10 1.319 1.546 0.243 272.660 o
1 -6 0 5.618 5.624 0.229 122.968 o
1 -6 1 421.823 409.418 3.096 0.205 o
1 -6 2 25.183 23.911 0.420 22.281 o
1 -6 3 24.023 23.490 0.433 23.052 o
1 -6 4 32.012 31.478 0.571 14.956 o
1 -6 5 122.006 123.637 1.423 1.824 o
1 -6 6 48.914 46.134 0.878 7.703 o
1 -6 7 50.647 49.808 0.947 7.021 o
1 -6 8 5.543 4.727 0.313 105.541 o
1 -6 9 30.180 30.122 0.803 13.304 o
1 -6 10 17.029 16.567 0.661 25.178 o
1 -6 11 1.101 0.873 0.213 362.728 o
1 -5 0 1.237 1.222 0.089 659.062 o
1 -5 1 64.296 61.471 0.800 5.566 o
1 -5 2 16.842 16.618 0.318 37.671 o
1 -5 3 394.857 374.584 3.400 0.229 o
1 -5 4 22.233 21.940 0.419 25.356 o
1 -5 5 245.078 237.426 2.173 0.557 o
1 -5 6 40.138 39.703 0.763 10.168 o
1 -5 7 350.126 351.165 3.547 0.270 o
1 -5 8 29.866 29.333 0.689 14.824 o
1 -5 9 96.865 96.852 1.702 2.352 o
1 -5 10 0.193 0.188 0.164 813.645 o
1 -5 11 67.121 67.300 1.337 4.176 o
1 -5 12 0.090 0.205 0.242 418.304 o
1 -4 0 22.677 20.824 0.403 25.773 o
1 -4 1 317.593 305.333 3.367 0.328 o
1 -4 2 176.168 171.151 1.316 1.053 o
1 -4 3 19.340 18.506 0.327 32.378 o
1 -4 4 217.790 211.073 1.583 0.717 o
1 -4 5 493.143 485.115 4.550 0.144 o
1 -4 6 462.140 467.622 3.365 0.168 o
1 -4 7 335.753 332.825 2.684 0.309 o
1 -4 8 32.015 31.031 0.673 14.006 o
1 -4 9 3.183 3.137 0.236 184.593 o
1 -4 10 1.192 1.075 0.199 375.477 o
1 -4 11 11.173 11.661 0.534 40.154 o
1 -4 12 59.070 55.996 1.304 4.988 o
1 -4 13 15.315 18.200 2.656 3.391 o
1 -3 0 79.023 77.387 0.795 4.095 o
1 -3 1 626.731 606.573 3.953 0.098 o
1 -3 2 44.959 43.173 0.456 10.345 o
1 -3 3 0.061 0.268 0.053 4314.270 o
1 -3 4 264.919 267.095 3.756 0.407 o
1 -3 5 14.240 14.286 0.326 44.414 o
1 -3 6 631.189 633.437 4.216 0.094 o
1 -3 7 647.882 650.218 4.252 0.089 o
1 -3 8 20.310 20.413 0.517 25.324 o
1 -3 9 2.851 2.812 0.211 216.179 o
1 -3 10 21.826 21.943 0.662 20.383 o
1 -3 11 220.309 223.830 2.674 0.609 o
1 -3 12 0.051 0.337 0.219 502.472 o
1 -3 13 3.140 2.091 0.296 160.245 o
1 -2 0 2774.570 2772.640 17.720 0.005 o
1 -2 1 1098.800 1093.520 11.949 0.029 o
1 -2 2 639.376 644.646 3.641 0.093 o
1 -2 3 0.047 0.142 0.037 7703.530 o
1 -2 4 66.617 67.736 0.670 5.352 o
1 -2 5 1257.310 1315.110 7.997 0.024 o
1 -2 6 1131.830 1197.100 7.256 0.029 o
1 -2 7 68.753 69.439 0.864 4.840 o
1 -2 8 254.467 259.465 2.212 0.506 o
1 -2 9 13.177 11.825 0.421 43.843 o
1 -2 10 55.717 56.070 1.039 5.939 o
1 -2 11 17.966 16.657 0.630 25.421 o
1 -2 12 16.190 15.279 0.642 26.992 o
1 -2 13 34.917 32.674 0.983 10.258 o
1 -2 14 2.930 5.491 1.834 7.455 o
1 -1 0 2505.620 2435.930 36.485 0.005 o
1 -1 2 0.164 0.264 0.033 4308.710 o
1 -1 3 71.319 72.351 0.818 4.650 o
1 -1 4 0.203 0.331 0.057 2781.970 o
1 -1 5 633.096 679.465 4.087 0.090 o
1 -1 6 31.052 33.295 0.507 15.598 o
1 -1 7 843.836 890.406 5.417 0.052 o
1 -1 8 45.519 47.261 0.773 8.540 o
1 -1 9 80.053 81.567 1.079 3.642 o
1 -1 10 28.684 28.271 0.676 15.603 o
1 -1 11 35.242 34.392 0.887 10.805 o
1 -1 12 1.591 1.467 0.212 305.842 o
1 -1 13 15.255 14.856 0.661 27.237 o
1 -1 14 6.140 5.414 0.462 68.049 o
1 0 0 445.398 449.619 12.621 0.089 o
1 0 1 206.650 195.790 3.592 0.602 o
1 0 2 556.630 558.248 5.024 0.114 o
1 0 3 457.534 479.093 2.996 0.170 o
1 0 4 1592.320 1660.820 14.188 0.014 o
1 0 5 250.948 267.796 1.896 0.518 o
1 0 6 10.445 10.637 0.256 65.939 o
1 0 7 38.706 38.563 0.560 11.876 o
1 0 8 175.578 182.851 1.663 0.979 o
1 0 9 215.188 224.089 2.004 0.675 o
1 0 10 8.902 9.139 0.379 62.417 o
1 0 11 60.467 58.911 1.107 5.286 o
1 0 12 7.362 6.654 0.411 68.752 o
1 0 13 9.498 8.319 0.495 49.662 o
1 0 14 6.042 6.469 0.476 64.271 o
1 1 0 372.876 372.585 4.402 0.229 o
1 1 1 1976.070 1950.080 19.616 0.009 o
1 1 2 1838.020 1859.500 13.422 0.011 o
1 1 3 163.420 167.752 1.564 1.122 o
1 1 4 439.130 452.085 2.588 0.189 o
1 1 5 11.584 12.309 0.225 60.457 o
1 1 6 247.967 254.416 1.730 0.548 o
1 1 7 7.076 7.691 0.201 102.448 o
1 1 8 117.946 125.065 1.208 1.954 o
1 1 9 25.771 25.390 0.541 19.494 o
1 1 10 546.293 576.008 4.617 0.116 o
1 1 11 101.941 105.462 1.521 2.283 o
1 1 12 31.502 31.873 0.875 12.001 o
1 1 13 58.898 59.616 1.291 4.922 o
1 1 14 35.388 33.615 1.073 9.411 o
1 1 15 16.649 16.186 0.781 21.858 o
1 2 0 61.931 61.096 0.783 5.814 o
1 2 1 572.322 581.756 3.770 0.113 o
1 2 2 13.056 14.321 0.248 51.243 o
1 2 3 37.337 39.732 0.481 12.567 o
1 2 4 291.401 301.727 2.193 0.398 o
1 2 5 5.422 5.967 0.162 140.727 o
1 2 6 2.527 2.600 0.110 326.733 o
1 2 7 280.377 289.863 2.090 0.429 o
1 2 8 11.525 11.104 0.276 59.297 o
1 2 9 689.177 716.645 4.639 0.077 o
1 2 10 54.854 56.919 0.995 6.101 o
1 2 11 72.930 77.855 1.260 3.797 o
1 2 12 45.419 45.375 1.048 7.443 o
1 2 13 1.209 1.384 0.241 285.457 o
1 2 14 57.906 57.314 1.407 4.761 o
1 2 15 2.492 2.175 0.362 133.410 o
1 3 0 544.407 547.820 3.434 0.125 o
1 3 1 38.100 37.685 0.458 12.779 o
1 3 2 712.887 705.106 5.219 0.074 o
1 3 3 1.017 1.073 0.086 768.605 o
1 3 4 89.990 88.467 0.952 3.239 o
1 3 5 110.606 114.390 1.132 2.219 o
1 3 6 334.787 344.768 2.616 0.305 o
1 3 7 125.545 129.388 1.141 1.820 o
1 3 8 683.169 706.367 4.398 0.079 o
1 3 9 262.967 270.874 2.421 0.468 o
1 3 10 8.297 9.032 0.398 62.436 o
1 3 11 217.899 224.598 2.591 0.621 o
1 3 12 6.802 6.849 0.413 70.354 o
1 3 13 462.710 480.348 4.978 0.152 o
1 3 14 155.111 163.590 2.761 0.969 o
1 3 15 7.801 7.822 0.608 43.108 o
1 4 0 50.026 47.332 0.532 8.726 o
1 4 1 102.051 97.875 0.999 2.682 o
1 4 2 25.138 25.331 0.464 21.122 o
1 4 3 2518.970 2521.210 19.285 0.006 o
1 4 4 179.469 177.568 1.788 0.956 o
1 4 5 18.118 18.330 0.403 31.803 o
1 4 6 298.148 309.240 2.578 0.372 o
1 4 7 2207.090 2256.990 14.141 0.008 o
1 4 8 149.577 150.707 1.547 1.308 o
1 4 9 270.991 278.685 2.613 0.438 o
1 4 10 176.774 183.047 2.189 0.902 o
1 4 11 0.305 0.540 0.168 681.842 o
1 4 12 16.094 16.244 0.639 26.775 o
1 4 13 72.717 76.306 1.699 3.218 o
1 4 14 3.989 4.708 0.459 79.239 o
1 4 15 148.060 149.375 2.615 1.081 o
1 5 0 836.097 835.803 5.435 0.054 o
1 5 1 429.627 431.019 3.013 0.196 o
1 5 2 632.133 646.159 5.583 0.088 o
1 5 3 31.708 30.308 0.571 15.291 o
1 5 4 33.047 33.627 0.598 13.976 o
1 5 5 1.796 2.307 0.185 303.465 o
1 5 6 263.871 274.171 2.454 0.461 o
1 5 7 44.446 45.346 0.814 8.664 o
1 5 8 914.127 937.727 6.757 0.044 o
1 5 9 694.891 712.297 5.461 0.075 o
1 5 10 23.657 22.823 0.628 19.830 o
1 5 11 14.938 15.367 0.567 31.042 o
1 5 12 1.460 1.755 0.221 291.068 o
1 5 13 45.400 45.139 1.215 6.725 o
1 5 14 22.387 20.672 0.921 15.412 o
1 5 15 2.251 2.150 0.422 109.756 o
1 6 0 177.359 172.420 1.537 1.015 o
1 6 1 111.601 110.050 1.205 2.211 o
1 6 2 264.046 259.498 2.261 0.483 o
1 6 3 6.475 6.580 0.282 97.125 o
1 6 4 73.917 74.836 1.053 4.111 o
1 6 5 21.920 21.321 0.527 23.476 o
1 6 6 150.385 150.731 1.841 1.239 o
1 6 7 1456.040 1476.370 11.098 0.018 o
1 6 8 63.270 64.279 1.014 5.110 o
1 6 9 2.513 2.538 0.217 228.350 o
1 6 10 141.892 145.781 1.836 1.335 o
1 6 11 41.419 41.235 1.010 8.392 o
1 6 12 0.014 0.204 0.163 905.130 o
1 6 13 2.846 2.665 0.432 99.218 o
1 6 14 1.001 1.768 0.317 194.745 o
1 6 15 103.882 101.793 2.073 1.941 o
1 7 0 26.807 25.243 0.535 19.070 o
1 7 1 228.318 222.674 1.985 0.635 o
1 7 2 0.765 0.652 0.112 836.613 o
1 7 3 536.557 530.571 4.464 0.125 o
1 7 4 91.192 89.676 1.341 2.861 o
1 7 5 5.428 4.738 0.295 111.390 o
1 7 6 47.560 47.801 0.983 7.338 o
1 7 7 15.760 14.293 0.540 31.909 o
1 7 8 342.307 338.086 3.277 0.288 o
1 7 9 553.494 558.164 4.847 0.115 o
1 7 10 217.388 214.631 2.327 0.659 o
1 7 11 173.289 176.033 2.110 0.951 o
1 7 12 58.914 61.509 1.280 4.889 o
1 7 13 1.478 1.726 0.291 207.502 o
1 7 14 33.287 32.256 1.052 10.020 o
1 7 15 6.659 6.943 0.513 56.414 o
1 8 0 0.909 0.764 0.141 623.217 o
1 8 1 2.006 1.750 0.169 330.220 o
1 8 2 117.478 117.323 1.371 1.965 o
1 8 3 56.592 54.588 0.989 6.068 o
1 8 4 33.150 32.521 0.816 12.082 o
1 8 5 158.828 156.080 1.909 1.139 o
1 8 6 126.856 123.892 1.783 1.625 o
1 8 7 20.994 21.404 0.691 20.334 o
1 8 8 50.676 51.434 1.060 6.530 o
1 8 9 33.050 34.088 0.879 11.358 o
1 8 10 101.443 96.850 1.605 2.327 o
1 8 11 101.798 96.069 1.646 2.300 o
1 8 12 78.394 74.658 1.590 3.211 o
1 8 13 215.976 218.175 3.059 0.598 o
1 8 14 10.981 10.857 0.619 35.620 o
1 8 15 31.686 30.581 1.073 10.251 o
1 9 0 93.769 92.238 1.563 2.577 o
1 9 1 231.276 230.387 2.604 0.576 o
1 9 2 46.572 44.451 0.906 7.997 o
1 9 3 18.119 18.234 0.544 27.359 o
1 9 4 84.079 82.999 1.353 3.169 o
1 9 5 84.318 83.013 1.550 2.954 o
1 9 6 0.582 0.554 0.157 660.486 o
1 9 7 20.651 18.971 0.651 22.171 o
1 9 8 139.469 137.717 1.856 1.390 o
1 9 9 55.692 54.970 1.123 5.746 o
1 9 10 148.052 143.167 1.983 1.256 o
1 9 11 3.970 3.618 0.311 128.673 o
1 9 12 378.069 366.600 4.237 0.230 o
1 9 13 18.012 17.134 0.797 20.454 o
1 9 14 11.139 11.354 0.725 29.410 o
1 10 0 115.448 117.730 1.913 1.754 o
1 10 1 140.710 143.249 2.025 1.307 o
1 10 2 128.338 125.310 1.859 1.571 o
1 10 3 49.525 49.244 0.976 7.065 o
1 10 4 141.297 137.339 1.770 1.398 o
1 10 5 15.113 13.938 0.561 31.917 o
1 10 6 102.861 99.874 2.018 2.005 o
1 10 7 9.853 9.022 0.463 51.037 o
1 10 8 64.438 61.407 1.219 4.703 o
1 10 9 74.589 71.526 1.353 3.727 o
1 10 10 9.906 8.557 0.469 50.908 o
1 10 11 110.240 104.738 1.760 2.001 o
1 10 12 83.783 78.368 1.610 2.971 o
1 10 13 20.653 19.179 0.869 17.232 o
1 10 14 16.700 16.405 1.696 7.479 o
1 11 0 1.843 1.605 0.258 231.091 o
1 11 1 27.949 28.523 0.993 11.952 o
1 11 2 88.017 87.620 1.697 2.653 o
1 11 3 10.295 10.506 0.555 41.099 o
1 11 4 2.643 2.718 0.281 173.215 o
1 11 5 0.046 0.046 0.195 661.874 o
1 11 6 101.799 99.418 2.118 1.961 o
1 11 7 97.584 93.273 1.899 2.229 o
1 11 8 90.258 85.537 1.846 2.491 o
1 11 9 68.273 64.713 1.387 4.092 o
1 11 10 136.592 131.635 2.132 1.364 o
1 11 11 33.557 30.963 0.994 10.572 o
1 11 12 7.750 5.908 0.488 58.036 o
1 11 13 10.302 8.933 0.700 32.606 o
1 12 0 12.909 13.762 0.552 35.123 o
1 12 1 9.984 9.898 0.579 40.329 o
1 12 2 24.427 24.140 0.953 13.835 o
1 12 3 14.801 14.734 0.702 26.087 o
1 12 4 31.685 31.210 0.969 11.134 o
1 12 5 54.236 52.757 1.200 5.717 o
1 12 6 35.285 32.979 0.957 10.375 o
1 12 7 0.065 0.339 0.219 497.413 o
1 12 8 27.626 24.901 0.993 12.426 o
1 12 9 181.926 176.572 3.467 0.714 o
1 12 10 0.982 0.938 0.258 283.745 o
1 12 11 1.697 1.464 0.264 231.908 o
1 12 12 43.997 38.519 1.609 5.488 o
1 13 0 8.672 9.386 0.477 52.132 o
1 13 1 1.082 1.425 0.262 260.688 o
1 13 2 41.796 42.686 1.182 7.357 o
1 13 3 31.166 29.997 0.977 11.283 o
1 13 4 0.951 1.000 0.242 311.745 o
1 13 5 0.715 0.664 0.265 293.859 o
1 13 6 2.025 1.702 0.288 194.982 o
1 13 7 1.295 1.033 0.283 232.740 o
1 13 8 31.595 28.253 0.992 11.234 o
1 13 9 0.498 0.314 0.266 316.179 o
1 13 10 5.176 4.171 0.461 74.574 o
1 14 3 11.223 12.182 1.839 6.890 o
1 14 4 21.855 20.329 1.760 6.620 o
1 14 5 0.258 0.039 0.305 264.384 o
1 14 6 7.138 6.075 0.635 43.117 o
1 14 8 8.991 9.753 1.739 7.815 o
2 -12 0 8.348 9.592 0.526 47.880 o
2 -12 1 18.622 20.334 0.839 18.445 o
2 -12 2 0.036 0.246 0.236 444.528 o
2 -11 0 57.453 61.110 1.135 5.352 o
2 -11 1 0.743 0.708 0.170 545.718 o
2 -11 2 8.171 8.222 0.436 59.686 o
2 -11 3 0.639 0.632 0.209 432.608 o
2 -11 4 26.344 25.964 0.889 13.930 o
2 -10 0 0.398 0.404 0.137 896.194 o
2 -10 1 8.569 8.984 0.410 60.244 o
2 -10 2 12.517 13.039 0.528 37.465 o
2 -10 3 7.362 6.330 0.380 74.405 o
2 -10 4 3.649 2.534 0.344 125.782 o
2 -10 5 5.053 5.109 0.400 85.872 o
2 -10 6 31.152 31.887 1.378 7.897 o
2 -9 0 34.223 34.925 0.802 11.670 o
2 -9 1 8.689 7.951 0.336 70.926 o
2 -9 2 0.916 0.808 0.147 591.003 o
2 -9 3 23.491 23.442 0.680 18.773 o
2 -9 4 1.937 1.871 0.231 250.637 o
2 -9 5 11.251 10.780 0.525 41.394 o
2 -9 6 42.641 44.815 1.143 7.343 o
2 -9 7 22.491 22.346 0.763 17.928 o
2 -9 8 23.329 23.718 2.058 5.020 o
2 -8 0 1.451 1.552 0.171 384.173 o
2 -8 1 1.383 1.129 0.126 526.967 o
2 -8 2 160.575 164.101 1.637 1.145 o
2 -8 3 18.941 17.709 0.502 28.160 o
2 -8 4 76.489 75.286 1.181 3.806 o
2 -8 5 20.212 20.534 0.670 21.515 o
2 -8 6 2.096 1.949 0.252 221.740 o
2 -8 7 12.302 12.335 0.541 37.530 o
2 -8 8 0.051 0.223 0.189 670.571 o
2 -8 9 20.883 20.362 0.807 18.150 o
2 -7 0 2.226 2.321 0.187 276.015 o
2 -7 1 12.303 12.081 0.377 48.343 o
2 -7 2 173.287 169.680 1.522 1.053 o
2 -7 3 150.099 149.047 1.428 1.335 o
2 -7 4 76.902 78.548 1.211 3.680 o
2 -7 5 28.128 29.151 0.709 15.218 o
2 -7 6 247.046 253.538 2.818 0.499 o
2 -7 7 38.372 39.630 0.911 9.563 o
2 -7 8 14.211 14.962 0.582 31.418 o
2 -7 9 0.184 0.150 0.197 600.576 o
2 -7 10 17.549 15.388 0.685 24.468 o
2 -6 0 283.319 277.229 2.287 0.429 o
2 -6 1 1.354 1.571 0.145 449.366 o
2 -6 2 394.443 380.128 2.544 0.239 o
2 -6 3 23.258 22.987 0.456 23.359 o
2 -6 4 303.229 296.706 2.243 0.383 o
2 -6 5 239.956 238.566 2.363 0.558 o
2 -6 6 83.570 83.980 1.290 3.236 o
2 -6 7 116.250 120.185 1.792 1.781 o
2 -6 8 10.446 10.045 0.440 50.361 o
2 -6 9 2.281 1.828 0.220 248.602 o
2 -6 10 62.534 65.026 1.306 4.526 o
2 -6 11 7.795 9.001 0.521 50.235 o
2 -5 0 72.559 67.758 0.814 4.723 o
2 -5 1 87.587 86.506 0.976 3.344 o
2 -5 2 79.564 76.577 0.792 4.092 o
2 -5 3 275.371 266.147 2.002 0.463 o
2 -5 4 220.538 211.975 1.740 0.695 o
2 -5 5 23.518 21.172 0.509 22.778 o
2 -5 6 27.597 25.161 0.613 17.546 o
2 -5 7 21.262 19.830 0.571 23.471 o
2 -5 8 5.425 4.945 0.300 109.109 o
2 -5 9 21.401 21.631 0.687 20.155 o
2 -5 10 7.660 7.115 0.413 66.392 o
2 -5 11 2.146 2.133 0.282 191.527 o
2 -5 12 100.322 107.268 2.031 1.979 o
2 -4 0 1532.490 1496.550 17.578 0.015 o
2 -4 1 70.951 69.535 0.769 4.832 o
2 -4 2 45.006 43.981 0.535 9.939 o
2 -4 3 204.167 195.042 1.551 0.809 o
2 -4 4 51.038 47.544 0.609 8.301 o
2 -4 5 96.089 91.301 1.037 2.926 o
2 -4 6 0.044 0.249 0.112 1696.460 o
2 -4 7 11.023 10.128 0.370 54.774 o
2 -4 8 51.900 50.501 0.871 7.109 o
2 -4 9 5.275 5.061 0.299 110.340 o
2 -4 10 2.746 2.597 0.248 194.957 o
2 -4 11 133.392 136.631 1.932 1.433 o
2 -4 12 1.031 0.983 0.245 301.627 o
2 -4 13 21.006 17.389 2.590 3.476 o
2 -3 0 1197.130 1193.580 7.730 0.027 o
2 -3 1 425.576 418.493 4.601 0.184 o
2 -3 2 570.085 565.413 3.809 0.115 o
2 -3 3 449.570 428.082 4.667 0.170 o
2 -3 4 67.238 63.559 0.873 5.129 o
2 -3 5 31.917 30.032 0.495 16.027 o
2 -3 6 212.731 210.112 2.580 0.660 o
2 -3 7 186.964 185.627 1.779 0.894 o
2 -3 8 0.713 0.863 0.130 716.818 o
2 -3 9 62.272 60.967 1.220 4.842 o
2 -3 10 50.437 49.840 1.009 6.816 o
2 -3 11 3.505 4.098 0.315 129.718 o
2 -3 12 31.592 31.211 0.933 11.489 o
2 -3 13 2.956 3.267 0.337 132.484 o
2 -2 0 2.004 2.350 0.091 407.955 o
2 -2 1 885.939 853.563 7.721 0.047 o
2 -2 2 23.292 22.361 0.278 26.775 o
2 -2 3 188.644 181.252 1.463 0.930 o
2 -2 4 0.142 0.319 0.052 3386.990 o
2 -2 5 45.649 45.467 0.560 9.568 o
2 -2 6 433.386 442.543 4.575 0.175 o
2 -2 7 0.963 1.269 0.128 594.765 o
2 -2 8 381.690 380.797 3.675 0.232 o
2 -2 9 67.133 67.871 1.094 4.600 o
2 -2 10 1.103 1.205 0.172 443.036 o
2 -2 11 29.498 30.320 0.770 13.841 o
2 -2 12 1.175 1.059 0.195 387.279 o
2 -2 13 0.112 0.195 0.217 510.735 o
2 -2 14 28.840 26.392 0.942 12.562 o
2 -1 0 608.012 583.634 16.990 0.049 o
2 -1 1 1115.720 1033.110 14.117 0.027 o
2 -1 2 73.520 67.740 0.898 4.544 o
2 -1 3 0.109 0.235 0.039 4923.190 o
2 -1 4 24.530 24.565 0.368 23.348 o
2 -1 5 1441.270 1467.130 14.912 0.017 o
2 -1 6 17.434 17.725 0.357 34.604 o
2 -1 7 294.936 304.891 2.248 0.389 o
2 -1 8 153.124 155.490 1.514 1.262 o
2 -1 9 143.131 139.906 1.629 1.403 o
2 -1 10 30.344 29.580 0.702 14.478 o
2 -1 11 0.263 0.289 0.145 933.502 o
2 -1 12 8.973 7.769 0.430 58.584 o
2 -1 13 1.540 1.138 0.227 294.811 o
2 -1 14 32.597 32.902 1.032 10.246 o
2 0 0 4411.150 4338.900 127.990 0.001 o
2 0 1 0.089 0.421 0.058 3093.230 o
2 0 2 185.495 169.306 3.372 0.728 o
2 0 3 942.492 914.104 20.196 0.027 o
2 0 4 474.720 465.112 9.247 0.111 o
2 0 5 233.158 238.511 1.686 0.613 o
2 0 6 987.269 1039.440 11.008 0.034 o
2 0 7 242.402 251.240 1.975 0.555 o
2 0 8 6.887 7.313 0.263 94.759 o
2 0 9 10.658 9.551 0.354 58.250 o
2 0 10 9.637 9.379 0.375 59.861 o
2 0 11 54.779 54.787 1.014 6.147 o
2 0 12 69.470 71.844 1.541 3.635 o
2 0 13 2.666 3.094 0.322 145.344 o
2 0 14 27.458 27.301 0.886 13.481 o
2 0 15 45.187 37.372 4.424 1.189 o
2 1 0 275.795 272.030 3.821 0.385 o
2 1 1 5705.670 5351.960 99.473 0.001 o
2 1 2 41.059 38.895 0.513 11.500 o
2 1 3 20.279 19.844 0.274 31.584 o
2 1 4 1660.430 1639.010 12.898 0.014 o
2 1 5 3153.040 3136.230 47.917 0.003 o
2 1 6 109.226 112.600 1.278 2.199 o
2 1 7 0.102 0.313 0.070 2827.820 o
2 1 8 32.733 33.550 0.562 14.421 o
2 1 9 44.468 45.668 0.776 8.813 o
2 1 10 38.164 37.914 0.776 10.666 o
2 1 11 1.792 1.590 0.208 294.363 o
2 1 12 73.340 73.773 1.272 3.850 o
2 1 13 0.565 0.708 0.204 452.024 o
2 1 14 334.168 339.987 3.756 0.284 o
2 1 15 0.011 -0.035 0.245 429.274 o
2 2 0 1858.400 1860.990 21.772 0.010 o
2 2 1 761.213 728.262 5.773 0.066 o
2 2 2 903.921 890.979 7.435 0.045 o
2 2 3 141.558 142.868 1.421 1.454 o
2 2 4 953.108 944.847 8.723 0.040 o
2 2 5 1.112 1.392 0.112 599.408 o
2 2 6 1140.340 1194.630 7.470 0.029 o
2 2 7 224.512 234.237 2.641 0.586 o
2 2 8 112.224 115.403 1.246 2.128 o
2 2 9 50.419 48.902 0.807 7.610 o
2 2 10 2.307 2.579 0.205 246.673 o
2 2 11 0.966 1.031 0.172 475.069 o
2 2 12 119.167 121.853 1.676 1.779 o
2 2 13 336.610 349.147 3.653 0.280 o
2 2 14 272.019 285.248 3.479 0.395 o
2 2 15 8.627 9.119 0.615 40.204 o
2 3 0 1.937 1.729 0.090 458.899 o
2 3 1 283.052 278.128 3.181 0.397 o
2 3 2 39.851 40.536 0.482 11.761 o
2 3 3 308.455 306.953 2.256 0.368 o
2 3 4 754.819 754.149 7.571 0.061 o
2 3 5 243.961 251.347 1.870 0.556 o
2 3 6 587.912 602.709 4.195 0.105 o
2 3 7 1.063 1.146 0.117 624.009 o
2 3 8 253.295 266.760 2.411 0.492 o
2 3 9 62.631 64.571 1.000 5.174 o
2 3 10 0.291 0.288 0.146 902.718 o
2 3 11 41.057 42.756 1.004 8.369 o
2 3 12 18.176 19.340 0.703 22.244 o
2 3 13 62.499 64.415 1.384 4.382 o
2 3 14 74.445 76.182 1.770 3.075 o
2 3 15 48.907 48.395 1.473 5.366 o
2 4 0 20.843 19.520 0.339 29.647 o
2 4 1 0.386 0.308 0.062 2010.480 o
2 4 2 66.033 63.441 0.653 5.600 o
2 4 3 1667.780 1677.900 10.397 0.014 o
2 4 4 1.347 1.385 0.123 518.857 o
2 4 5 309.010 316.829 2.490 0.355 o
2 4 6 31.220 31.005 0.551 15.555 o
2 4 7 23.067 24.714 0.536 21.378 o
2 4 8 437.088 452.566 3.646 0.181 o
2 4 9 146.740 153.888 1.850 1.254 o
2 4 10 217.853 226.841 2.658 0.613 o
2 4 11 34.244 35.636 0.954 10.344 o
2 4 12 32.909 34.402 0.992 10.390 o
2 4 13 66.810 68.486 1.502 3.871 o
2 4 14 2.466 2.526 0.358 133.683 o
2 4 15 14.736 14.984 0.775 23.492 o
2 5 0 1.957 1.923 0.129 386.394 o
2 5 1 25.296 25.016 0.426 21.730 o
2 5 2 127.837 126.836 1.460 1.705 o
2 5 3 45.864 47.257 0.660 8.965 o
2 5 4 403.801 407.136 3.510 0.212 o
2 5 5 652.237 662.642 5.063 0.085 o
2 5 6 1.669 1.713 0.144 403.330 o
2 5 7 966.442 991.292 6.746 0.040 o
2 5 8 1552.880 1605.080 10.293 0.016 o
2 5 9 200.118 201.530 2.136 0.761 o
2 5 10 7.567 7.570 0.397 68.093 o
2 5 11 15.947 17.306 0.635 26.585 o
2 5 12 19.987 21.503 0.751 19.506 o
2 5 13 12.193 12.970 0.615 33.118 o
2 5 14 3.259 2.588 0.308 147.371 o
2 5 15 47.827 49.168 1.503 5.311 o
2 6 0 52.199 50.011 0.676 7.745 o
2 6 1 549.632 529.111 5.222 0.118 o
2 6 2 10.504 10.493 0.332 59.175 o
2 6 3 515.156 516.236 3.545 0.138 o
2 6 4 61.426 62.461 0.885 5.587 o
2 6 5 75.388 77.107 1.186 3.808 o
2 6 6 80.399 83.860 1.288 3.351 o
2 6 7 168.000 172.986 2.077 0.994 o
2 6 8 93.600 96.342 1.362 2.688 o
2 6 9 41.251 39.657 0.821 9.622 o
2 6 10 159.570 158.381 1.870 1.133 o
2 6 11 259.098 264.668 2.863 0.461 o
2 6 12 48.138 49.802 1.182 6.398 o
2 6 13 3.190 3.309 0.332 131.777 o
2 6 14 8.325 9.006 0.546 46.672 o
2 6 15 3.018 3.106 0.395 109.156 o
2 7 0 169.739 168.504 1.810 1.039 o
2 7 1 238.794 226.832 2.104 0.591 o
2 7 2 870.054 843.284 5.925 0.051 o
2 7 3 197.163 195.241 2.083 0.792 o
2 7 4 110.715 108.558 1.319 2.189 o
2 7 5 11.040 10.591 0.401 51.489 o
2 7 6 191.079 189.765 2.094 0.829 o
2 7 7 309.499 310.413 3.209 0.339 o
2 7 8 13.637 12.307 0.522 36.697 o
2 7 9 69.258 69.409 1.330 4.039 o
2 7 10 126.889 125.262 1.669 1.656 o
2 7 11 13.092 12.914 0.554 35.334 o
2 7 12 9.702 9.332 0.491 48.427 o
2 7 13 68.582 67.797 1.413 3.964 o
2 7 14 13.087 13.175 0.629 31.357 o
2 7 15 48.922 48.276 1.427 5.522 o
2 7 16 51.761 46.665 4.351 1.191 o
2 8 0 27.800 27.805 0.755 14.977 o
2 8 1 1747.100 1722.950 11.574 0.013 o
2 8 2 31.528 30.831 0.654 14.393 o
2 8 3 0.751 0.648 0.116 818.851 o
2 8 4 2.101 2.101 0.234 235.932 o
2 8 5 73.833 68.040 1.065 4.272 o
2 8 6 47.661 44.638 0.916 7.801 o
2 8 7 26.891 27.415 0.791 14.858 o
2 8 8 99.612 97.999 1.636 2.332 o
2 8 9 204.574 206.111 2.632 0.688 o
2 8 10 46.137 45.027 1.051 7.370 o
2 8 11 23.892 22.271 0.750 17.581 o
2 8 12 23.936 22.726 0.858 15.633 o
2 8 13 30.529 28.477 1.000 11.347 o
2 8 14 70.875 72.815 1.551 3.550 o
2 8 15 4.088 4.042 0.405 94.159 o
2 9 0 83.399 82.524 1.459 3.085 o
2 9 1 6.764 6.286 0.384 76.602 o
2 9 2 18.905 17.492 0.541 27.078 o
2 9 3 438.990 438.557 3.910 0.181 o
2 9 4 64.235 61.960 1.163 4.814 o
2 9 5 128.797 122.171 1.989 1.537 o
2 9 6 129.975 121.722 1.847 1.577 o
2 9 7 230.066 224.917 2.752 0.576 o
2 9 8 53.869 51.515 1.190 5.823 o
2 9 9 15.789 14.448 0.631 28.090 o
2 9 10 56.681 54.150 1.296 5.217 o
2 9 11 45.105 43.442 1.109 7.310 o
2 9 12 0.105 0.128 0.213 537.774 o
2 9 13 78.627 75.702 1.712 3.036 o
2 9 14 20.483 19.846 0.941 15.805 o
2 9 15 86.771 83.805 5.996 0.607 o
2 10 0 2.293 2.266 0.278 188.490 o
2 10 1 60.252 61.641 1.399 4.538 o
2 10 2 30.312 29.828 0.888 12.398 o
2 10 3 33.803 33.134 0.850 11.553 o
2 10 4 41.900 41.614 0.951 8.621 o
2 10 5 4.141 4.844 0.363 102.845 o
2 10 6 0.175 0.250 0.171 756.339 o
2 10 7 147.325 143.610 2.042 1.246 o
2 10 8 45.187 42.370 1.125 7.286 o
2 10 9 139.188 132.304 2.151 1.333 o
2 10 10 63.430 60.742 1.330 4.543 o
2 10 11 18.653 17.284 0.716 22.233 o
2 10 12 17.462 17.139 0.736 22.398 o
2 10 13 0.776 0.495 0.236 353.984 o
2 10 14 71.117 66.951 1.621 3.539 o
2 11 0 0.811 0.862 0.251 307.234 o
2 11 1 1.657 1.198 0.240 269.012 o
2 11 2 9.819 9.599 0.542 43.633 o
2 11 3 27.945 28.213 0.924 12.777 o
2 11 4 78.537 76.618 1.935 2.762 o
2 11 5 5.267 5.252 0.385 87.676 o
2 11 6 159.490 151.847 2.531 1.024 o
2 11 7 3.840 3.475 0.393 101.494 o
2 11 8 93.862 89.338 1.817 2.401 o
2 11 9 12.507 12.103 0.564 36.049 o
2 11 10 217.533 204.724 2.769 0.637 o
2 11 11 0.056 0.049 0.197 640.944 o
2 11 12 0.537 0.519 0.216 429.585 o
2 11 13 9.823 8.444 0.564 42.897 o
2 11 14 9.439 8.770 1.839 7.054 o
2 12 0 26.284 26.872 0.887 13.847 o
2 12 1 0.842 1.211 0.322 201.439 o
2 12 2 0.016 0.022 0.240 445.928 o
2 12 3 7.912 7.885 0.555 47.752 o
2 12 4 26.743 27.194 1.037 11.857 o
2 12 5 71.534 71.038 1.605 3.477 o
2 12 6 30.012 29.915 1.016 11.148 o
2 12 7 77.581 76.325 1.799 2.951 o
2 12 8 3.384 3.525 0.412 98.865 o
2 12 9 72.864 66.226 1.687 3.390 o
2 12 10 3.001 2.194 0.285 168.505 o
2 12 11 3.554 3.222 0.306 138.992 o
2 12 12 57.667 51.924 1.319 5.165 o
2 13 0 46.487 51.879 1.247 6.207 o
2 13 1 36.861 39.851 1.265 7.588 o
2 13 2 18.348 18.360 0.956 16.452 o
2 13 3 19.051 19.959 0.987 15.388 o
2 13 4 41.247 42.516 1.365 6.546 o
2 13 5 6.374 6.026 0.519 57.787 o
2 13 6 28.709 28.613 1.052 11.165 o
2 13 7 18.653 18.201 0.779 20.321 o
2 13 8 4.172 4.305 0.478 75.177 o
2 13 9 9.437 9.767 0.628 37.707 o
2 13 10 32.487 28.162 1.154 9.625 o
2 13 11 55.404 44.744 2.909 2.271 o
2 14 2 3.512 4.974 1.350 13.372 o
2 14 3 65.493 65.660 2.625 2.324 o
2 14 4 28.407 29.226 1.600 6.857 o
2 14 5 1.091 1.263 0.266 258.082 o
2 14 6 5.495 5.421 0.488 65.963 o
2 14 7 2.075 1.611 0.753 41.851 o
2 14 8 0.567 -0.017 0.628 63.983 o
3 -12 0 5.502 4.974 1.228 15.591 o
3 -11 0 6.744 6.436 0.644 42.656 o
3 -11 1 25.844 28.051 1.596 7.116 o
3 -11 2 2.789 3.086 0.698 45.862 o
3 -11 3 17.642 17.741 1.480 9.174 o
3 -10 0 0.318 0.230 0.199 551.041 o
3 -10 1 55.691 57.931 1.874 3.778 o
3 -10 2 0.737 0.922 0.369 165.593 o
3 -10 3 41.984 45.285 2.013 4.138 o
3 -10 4 3.240 3.222 0.563 64.105 o
3 -10 5 2.090 2.538 0.631 56.560 o
3 -9 0 12.420 12.447 0.679 29.969 o
3 -9 1 1.641 1.896 0.267 222.980 o
3 -9 2 25.930 27.746 0.716 16.198 o
3 -9 3 11.985 12.885 0.500 40.071 o
3 -9 4 26.305 26.856 0.788 15.192 o
3 -9 5 0.034 0.875 0.192 577.206 o
3 -9 6 17.686 16.891 0.666 24.436 o
3 -9 7 9.742 11.268 0.857 24.585 o
3 -8 0 24.332 23.447 0.533 21.045 o
3 -8 1 1.165 0.985 0.132 570.158 o
3 -8 2 0.075 0.006 0.115 1772.080 o
3 -8 3 0.042 0.123 0.133 1334.840 o
3 -8 4 28.057 30.093 0.755 14.510 o
3 -8 5 2.771 2.536 0.267 181.635 o
3 -8 6 202.714 213.795 3.571 0.591 o
3 -8 7 92.659 96.890 2.214 2.051 o
3 -8 8 2.766 3.301 0.330 138.314 o
3 -8 9 8.335 5.503 0.731 34.451 o
3 -7 0 116.568 113.933 1.465 1.968 o
3 -7 1 52.410 51.025 0.765 7.368 o
3 -7 2 27.337 27.525 0.547 18.050 o
3 -7 3 3.291 3.680 0.215 187.625 o
3 -7 4 3.010 2.915 0.218 204.290 o
3 -7 5 12.106 12.392 0.476 41.792 o
3 -7 6 41.450 40.340 0.944 8.820 o
3 -7 7 1.971 1.801 0.237 244.138 o
3 -7 8 14.869 14.592 0.616 29.456 o
3 -7 9 8.055 8.004 0.485 54.685 o
3 -7 10 15.435 15.922 0.787 22.425 o
3 -6 0 7.411 15.579 0.782 27.975 o
3 -6 1 263.631 253.929 2.068 0.498 o
3 -6 2 19.989 19.832 0.427 28.203 o
3 -6 3 13.311 15.441 0.397 41.494 o
3 -6 4 6.574 6.586 0.280 96.781 o
3 -6 5 30.039 28.422 0.639 15.521 o
3 -6 6 27.636 28.160 0.728 15.325 o
3 -6 7 0.000 -0.049 0.154 1088.410 o
3 -6 8 13.924 14.205 0.576 32.433 o
3 -6 9 25.968 26.520 0.823 14.860 o
3 -6 10 29.948 30.488 0.923 12.037 o
3 -6 11 3.172 2.458 0.450 92.117 o
3 -5 0 1112.260 1077.830 8.538 0.031 o
3 -5 1 270.710 260.616 1.934 0.481 o
3 -5 2 97.474 94.041 0.974 2.883 o
3 -5 3 1.143 1.090 0.115 617.190 o
3 -5 4 35.346 34.277 0.607 13.079 o
3 -5 5 0.541 0.760 0.123 846.723 o
3 -5 6 0.107 0.061 0.122 1499.530 o
3 -5 7 1.975 1.965 0.201 282.977 o
3 -5 8 18.757 18.365 0.620 24.494 o
3 -5 9 0.008 -0.013 0.156 1052.570 o
3 -5 10 10.808 10.872 0.569 39.024 o
3 -5 11 4.485 4.424 0.377 97.651 o
3 -5 12 25.063 23.652 1.697 6.706 o
3 -4 0 162.827 152.602 2.486 1.011 o
3 -4 1 172.590 167.151 2.033 0.992 o
3 -4 2 0.249 0.354 0.066 2260.110 o
3 -4 3 59.340 54.832 0.658 6.639 o
3 -4 4 410.383 388.906 2.779 0.222 o
3 -4 5 0.298 0.325 0.107 1361.630 o
3 -4 6 0.199 0.179 0.102 1691.290 o
3 -4 7 3.133 3.721 0.242 175.266 o
3 -4 8 6.862 6.412 0.335 84.587 o
3 -4 9 23.407 23.334 0.671 19.016 o
3 -4 10 0.184 0.341 0.168 756.372 o
3 -4 11 32.599 30.752 0.909 11.552 o
3 -4 12 54.367 55.194 1.239 5.501 o
3 -3 1 317.040 300.124 3.276 0.334 o
3 -3 2 58.898 54.023 0.793 6.404 o
3 -3 3 55.250 64.823 1.765 3.897 o
3 -3 4 67.192 61.227 0.660 5.585 o
3 -3 5 0.124 0.150 0.078 2741.330 o
3 -3 6 498.151 483.815 4.146 0.146 o
3 -3 7 40.633 38.781 0.714 10.464 o
3 -3 8 0.024 0.111 0.121 1617.680 o
3 -3 9 0.155 0.209 0.129 1242.530 o
3 -3 10 84.797 86.097 1.375 3.074 o
3 -3 11 51.582 53.159 1.123 6.157 o
3 -3 12 13.957 12.655 0.554 34.394 o
3 -3 13 85.839 82.155 1.652 2.819 o
3 -2 0 1.311 1.267 0.069 683.348 o
3 -2 1 23.883 21.413 0.535 21.925 o
3 -2 2 286.592 262.093 2.964 0.412 o
3 -2 3 126.017 115.745 1.197 1.902 o
3 -2 4 102.302 90.046 1.328 2.572 o
3 -2 5 753.727 706.193 6.950 0.065 o
3 -2 6 60.054 56.859 0.820 6.091 o
3 -2 7 105.136 102.487 1.203 2.433 o
3 -2 8 64.959 61.923 0.958 5.189 o
3 -2 9 158.278 157.075 1.764 1.167 o
3 -2 10 10.416 9.567 0.432 51.748 o
3 -2 11 100.351 97.905 1.424 2.461 o
3 -2 12 99.882 98.926 1.954 2.101 o
3 -2 13 0.914 0.546 0.227 362.781 o
3 -2 14 0.918 0.319 0.316 218.697 o
3 -1 0 438.572 440.237 5.445 0.164 o
3 -1 1 2.422 2.205 0.206 248.850 o
3 -1 2 5.026 4.674 0.123 171.234 o
3 -1 3 19.729 18.237 0.269 33.491 o
3 -1 4 14.343 12.314 0.249 50.392 o
3 -1 5 16.897 14.427 0.335 38.814 o
3 -1 6 522.405 499.936 6.333 0.121 o
3 -1 7 134.171 132.630 1.365 1.614 o
3 -1 8 23.538 22.439 0.541 21.700 o
3 -1 9 0.655 0.620 0.137 740.376 o
3 -1 10 23.361 23.887 0.594 20.340 o
3 -1 11 115.280 118.404 1.552 1.914 o
3 -1 12 5.523 5.909 0.359 89.812 o
3 -1 13 171.412 169.924 2.375 0.936 o
3 -1 14 0.352 0.281 0.220 455.571 o
3 0 0 929.985 941.954 22.602 0.024 o
3 0 1 35.537 32.975 1.335 7.669 o
3 0 2 492.259 442.125 6.621 0.134 o
3 0 3 93.950 84.970 1.619 2.612 o
3 0 4 1.987 1.917 0.143 362.498 o
3 0 5 15.545 14.825 0.322 41.421 o
3 0 6 31.947 31.298 0.507 15.640 o
3 0 7 84.236 84.582 0.982 3.507 o
3 0 8 141.720 140.164 1.713 1.395 o
3 0 9 11.680 12.647 0.385 48.552 o
3 0 10 107.368 103.092 1.485 2.221 o
3 0 11 28.955 27.633 0.692 15.413 o
3 0 12 136.901 144.570 1.876 1.376 o
3 0 13 29.701 27.890 0.884 12.825 o
3 0 14 79.815 77.398 1.661 3.040 o
3 0 15 88.269 69.689 5.435 0.725 o
3 1 0 275.211 277.456 3.038 0.415 o
3 1 1 1810.650 1779.800 23.762 0.010 o
3 1 2 1421.540 1367.280 13.738 0.018 o
3 1 3 835.104 795.400 9.453 0.050 o
3 1 4 0.765 1.083 0.079 914.158 o
3 1 5 31.322 29.997 0.528 15.950 o
3 1 6 9.124 9.080 0.277 73.369 o
3 1 7 22.689 22.406 0.466 23.823 o
3 1 8 9.026 8.750 0.313 70.402 o
3 1 9 119.914 123.222 1.608 1.786 o
3 1 10 83.666 83.499 1.164 3.371 o
3 1 11 24.387 25.132 0.697 17.663 o
3 1 12 38.133 38.990 0.925 9.569 o
3 1 13 5.557 5.199 0.392 84.422 o
3 1 14 228.205 231.695 4.194 0.468 o
3 1 15 8.819 8.322 0.567 44.517 o
3 2 0 982.171 970.677 14.688 0.031 o
3 2 1 73.581 74.635 1.035 4.157 o
3 2 2 662.167 634.753 8.027 0.076 o
3 2 3 24.203 22.978 0.345 24.604 o
3 2 4 167.719 158.364 2.553 0.956 o
3 2 5 6.941 7.138 0.218 103.334 o
3 2 6 2.224 2.129 0.136 342.361 o
3 2 7 169.907 167.954 2.189 0.980 o
3 2 8 9.917 10.348 0.368 58.025 o
3 2 9 91.660 92.542 1.256 2.877 o
3 2 10 5.430 6.520 0.339 92.922 o
3 2 11 80.714 81.734 1.300 3.364 o
3 2 12 0.440 0.428 0.177 611.541 o
3 2 13 93.404 95.934 1.705 2.431 o
3 2 14 3.805 3.631 0.391 101.634 o
3 2 15 108.179 107.408 2.264 1.738 o
3 3 0 37.330 38.840 0.535 12.365 o
3 3 1 163.265 157.007 1.820 1.120 o
3 3 2 69.640 67.265 0.846 4.881 o
3 3 4 148.603 149.643 1.175 1.394 o
3 3 5 1.689 1.919 0.117 437.016 o
3 3 6 209.053 231.633 2.174 0.670 o
3 3 7 155.263 156.288 1.893 1.168 o
3 3 8 827.624 862.185 6.176 0.053 o
3 3 9 53.126 55.205 0.955 6.460 o
3 3 10 197.190 200.642 2.218 0.767 o
3 3 11 0.094 -0.016 0.132 1365.890 o
3 3 12 173.767 184.560 2.429 0.879 o
3 3 13 0.035 0.110 0.204 599.689 o
3 3 14 207.731 218.760 3.082 0.617 o
3 3 15 33.136 31.688 1.171 9.148 o
3 3 16 13.812 14.788 2.556 3.688 o
3 4 0 876.695 858.254 9.146 0.046 o
3 4 1 17.383 16.491 0.321 36.802 o
3 4 2 33.759 32.669 0.574 14.113 o
3 4 3 295.004 284.892 2.155 0.407 o
3 4 4 13.553 12.799 0.318 48.129 o
3 4 5 47.512 47.155 0.660 8.704 o
3 4 6 452.381 467.397 3.139 0.174 o
3 4 7 630.911 637.939 4.779 0.092 o
3 4 8 454.504 477.453 3.598 0.168 o
3 4 9 10.063 10.287 0.370 57.447 o
3 4 10 0.079 0.127 0.129 1357.300 o
3 4 11 0.461 0.553 0.160 683.144 o
3 4 12 17.424 18.343 0.739 21.992 o
3 4 13 198.219 205.208 2.869 0.687 o
3 4 14 106.882 110.836 1.978 1.887 o
3 4 15 27.496 29.323 1.027 11.601 o
3 4 16 42.070 36.751 3.962 1.461 o
3 5 0 1177.340 1157.590 7.211 0.028 o
3 5 1 11.027 10.708 0.291 60.597 o
3 5 2 29.909 29.313 0.522 16.757 o
3 5 3 102.999 100.896 1.046 2.591 o
3 5 4 1.640 1.948 0.161 365.152 o
3 5 5 35.748 36.700 0.659 12.222 o
3 5 6 49.253 48.708 0.793 7.823 o
3 5 7 201.651 213.924 1.961 0.746 o
3 5 8 802.951 832.117 5.685 0.057 o
3 5 9 47.382 46.836 0.840 8.017 o
3 5 10 11.333 11.254 0.444 46.650 o
3 5 11 4.196 4.413 0.333 113.607 o
3 5 12 421.788 442.900 4.382 0.183 o
3 5 13 0.054 0.055 0.220 520.865 o
3 5 14 16.857 17.779 0.763 21.795 o
3 5 15 88.632 89.853 1.852 2.475 o
3 5 16 13.322 10.826 2.145 5.162 o
3 6 0 275.060 267.148 2.160 0.458 o
3 6 1 1.939 1.815 0.131 391.107 o
3 6 2 650.279 635.639 4.639 0.089 o
3 6 3 7.270 9.603 0.469 56.379 o
3 6 4 4.848 5.123 0.231 135.911 o
3 6 5 35.603 34.031 0.668 12.548 o
3 6 6 281.526 280.115 2.411 0.426 o
3 6 7 441.165 454.391 3.765 0.177 o
3 6 8 0.161 0.563 0.170 711.652 o
3 6 9 75.775 76.924 1.151 3.841 o
3 6 10 21.748 22.541 0.610 21.364 o
3 6 11 43.169 44.036 1.009 7.979 o
3 6 12 10.204 11.134 0.530 42.499 o
3 6 13 36.498 38.478 1.033 9.152 o
3 6 14 126.541 130.836 2.206 1.438 o
3 6 15 18.737 17.997 0.807 19.654 o
3 6 16 1.127 1.473 0.817 36.962 o
3 7 0 174.606 171.750 1.802 1.000 o
3 7 1 534.554 522.270 4.048 0.129 o
3 7 2 963.432 942.174 6.578 0.042 o
3 7 3 99.494 95.862 1.330 2.568 o
3 7 4 42.184 40.472 0.811 9.441 o
3 7 5 1.738 1.852 0.154 372.357 o
3 7 6 20.836 20.771 0.610 22.498 o
3 7 7 1.163 1.029 0.166 460.946 o
3 7 8 170.326 170.826 2.103 0.983 o
3 7 9 64.837 64.794 1.225 4.571 o
3 7 10 1.226 1.355 0.206 345.916 o
3 7 11 50.912 52.666 1.143 6.171 o
3 7 12 37.538 37.531 0.999 9.292 o
3 7 13 32.602 31.951 0.959 10.964 o
3 7 14 14.367 14.237 0.696 26.826 o
3 7 15 51.864 53.350 1.427 5.173 o
3 7 16 102.112 99.165 6.535 0.502 o
3 8 0 1.076 0.939 0.158 505.545 o
3 8 1 96.841 94.447 1.289 2.682 o
3 8 2 293.839 290.622 3.136 0.374 o
3 8 3 0.193 0.683 0.166 706.481 o
3 8 4 260.241 263.351 3.130 0.448 o
3 8 5 165.880 160.279 1.868 1.082 o
3 8 6 112.561 106.016 1.474 2.102 o
3 8 7 23.299 22.122 0.667 19.451 o
3 8 8 0.042 0.337 0.160 883.790 o
3 8 9 1.050 1.004 0.182 436.808 o
3 8 10 106.554 101.204 1.686 2.137 o
3 8 11 23.086 21.229 0.807 17.088 o
3 8 12 60.564 62.548 1.460 4.364 o
3 8 13 18.176 18.793 0.819 19.424 o
3 8 14 68.634 66.034 1.717 3.487 o
3 8 15 45.370 43.042 1.293 6.491 o
3 9 0 53.708 55.697 1.294 5.371 o
3 9 1 72.610 70.492 1.276 3.949 o
3 9 2 113.870 111.009 1.673 1.939 o
3 9 3 245.609 245.857 2.773 0.513 o
3 9 4 112.657 112.888 1.708 1.926 o
3 9 5 20.436 18.836 0.776 19.370 o
3 9 6 0.455 2.632 0.250 278.992 o
3 9 7 12.318 12.437 0.505 39.587 o
3 9 8 5.698 5.048 0.377 87.314 o
3 9 9 2.282 1.904 0.240 227.031 o
3 9 10 64.626 61.780 1.321 4.470 o
3 9 11 225.792 223.178 2.876 0.580 o
3 9 12 68.274 68.051 1.569 3.708 o
3 9 13 16.346 15.975 0.780 22.097 o
3 9 14 65.966 64.666 1.734 3.573 o
3 9 15 59.893 57.546 3.413 1.696 o
3 10 0 31.267 29.258 0.914 11.969 o
3 10 1 13.169 13.623 0.702 27.796 o
3 10 2 98.612 99.962 1.757 2.249 o
3 10 3 12.843 12.619 0.550 36.042 o
3 10 4 2.434 2.517 0.264 192.499 o
3 10 5 117.414 119.275 2.253 1.571 o
3 10 6 12.763 12.102 0.636 31.927 o
3 10 7 1.357 1.046 0.253 269.764 o
3 10 8 20.722 20.241 0.734 19.829 o
3 10 9 0.097 0.376 0.204 559.662 o
3 10 10 174.225 167.425 2.409 0.923 o
3 10 11 5.726 4.466 0.405 82.709 o
3 10 12 0.119 0.310 0.239 420.226 o
3 10 13 25.141 24.218 0.978 13.292 o
3 10 14 3.536 3.472 0.427 93.495 o
3 10 15 117.588 105.345 6.663 0.470 o
3 11 0 130.968 140.827 2.023 1.408 o
3 11 1 81.414 83.192 1.909 2.649 o
3 11 2 0.073 0.323 0.265 349.002 o
3 11 3 0.062 0.115 0.202 605.304 o
3 11 4 15.005 14.919 0.686 26.445 o
3 11 5 26.042 25.197 0.905 13.911 o
3 11 6 10.033 9.198 0.544 43.442 o
3 11 7 75.567 73.990 1.737 3.117 o
3 11 8 8.609 6.718 0.534 49.669 o
3 11 9 80.234 77.665 1.597 3.100 o
3 11 10 20.624 18.319 0.767 19.611 o
3 11 11 4.232 2.958 0.337 119.513 o
3 11 12 48.937 42.810 1.217 6.502 o
3 11 13 4.891 3.588 0.412 88.463 o
3 11 14 160.819 148.459 8.097 0.306 o
3 12 0 32.554 34.104 0.976 10.619 o
3 12 1 33.566 33.970 1.178 8.882 o
3 12 2 41.631 46.415 1.455 5.982 o
3 12 3 11.900 13.299 0.723 28.072 o
3 12 4 54.013 55.168 1.416 5.022 o
3 12 5 20.255 19.922 0.827 18.092 o
3 12 6 4.724 4.548 0.409 87.367 o
3 12 7 2.173 2.452 0.335 150.725 o
3 12 8 152.876 147.504 2.525 1.078 o
3 12 9 16.708 21.290 0.907 17.514 o
3 12 10 42.747 40.594 1.091 7.827 o
3 12 11 10.229 9.862 0.525 43.990 o
3 12 12 0.598 0.859 0.248 327.902 o
3 12 13 0.664 -0.923 1.067 22.474 o
3 13 0 1.762 2.525 0.681 50.067 o
3 13 1 37.847 42.048 1.137 8.079 o
3 13 2 72.475 79.392 2.051 2.734 o
3 13 3 16.956 17.355 0.922 17.828 o
3 13 4 69.465 74.171 1.846 3.142 o
3 13 5 8.043 8.116 0.565 46.278 o
3 13 6 0.412 0.262 0.236 399.715 o
3 13 7 7.756 7.417 0.577 46.413 o
3 13 8 26.960 24.630 0.943 13.235 o
3 13 9 46.842 45.424 1.471 5.601 o
3 13 10 50.033 46.762 1.344 5.780 o
3 13 11 3.523 2.511 0.421 98.708 o
3 14 4 10.969 11.353 2.440 4.100 o
3 14 5 2.093 1.982 0.683 49.644 o
3 14 6 9.745 8.907 2.387 4.317 o
3 14 7 5.860 4.675 0.770 34.603 o
3 14 8 101.486 88.473 6.302 0.540 o
4 -11 0 1.486 1.572 0.399 130.758 o
4 -11 1 26.650 27.209 2.945 2.643 o
4 -10 0 23.113 25.892 1.042 12.732 o
4 -10 1 9.029 9.490 0.676 35.167 o
4 -10 2 2.460 1.980 0.498 83.962 o
4 -10 3 39.198 42.486 2.353 3.437 o
4 -9 0 3.142 3.031 0.400 106.608 o
4 -9 1 2.569 2.920 0.352 132.614 o
4 -9 2 12.246 11.210 0.769 26.608 o
4 -9 3 0.062 -0.139 0.316 256.251 o
4 -9 4 14.748 15.261 1.234 12.755 o
4 -9 5 9.717 9.615 0.967 20.999 o
4 -8 0 64.219 67.094 1.668 3.706 o
4 -8 1 47.772 48.757 1.303 6.024 o
4 -8 2 2.971 2.903 0.373 118.868 o
4 -8 3 37.649 37.941 1.365 7.061 o
4 -8 4 21.871 21.016 1.137 12.248 o
4 -8 5 0.540 0.223 0.328 217.685 o
4 -8 6 33.278 37.705 2.159 4.132 o
4 -8 7 1.399 0.817 0.501 91.821 o
4 -7 0 94.088 95.877 1.902 2.266 o
4 -7 1 6.847 6.817 0.484 59.956 o
4 -7 2 195.449 198.941 2.858 0.708 o
4 -7 3 127.640 129.323 2.928 1.190 o
4 -7 4 1.402 1.132 0.278 233.790 o
4 -7 5 75.256 74.630 2.768 1.997 o
4 -7 6 4.330 5.156 0.785 34.800 o
4 -7 7 29.092 31.562 2.744 2.933 o
4 -7 8 4.619 5.955 0.935 25.453 o
4 -7 9 6.449 4.629 1.223 15.566 o
4 -6 0 133.843 135.755 2.726 1.189 o
4 -6 1 598.702 592.085 6.927 0.093 o
4 -6 2 36.261 36.461 1.000 9.576 o
4 -6 3 134.976 138.886 2.158 1.339 o
4 -6 4 146.727 144.456 2.635 1.100 o
4 -6 5 43.560 43.843 1.594 5.410 o
4 -6 6 6.345 6.222 0.688 39.575 o
4 -6 7 1.607 1.297 0.421 119.636 o
4 -6 8 34.274 33.394 1.165 8.917 o
4 -6 9 18.917 20.691 1.645 7.557 o
4 -6 10 1.355 2.074 0.601 64.180 o
4 -5 0 17.298 16.886 0.658 24.958 o
4 -5 1 24.741 25.149 0.763 16.438 o
4 -5 2 96.006 95.103 1.718 2.376 o
4 -5 3 367.893 357.917 4.275 0.239 o
4 -5 4 127.132 125.056 1.635 1.667 o
4 -5 5 305.201 292.941 2.512 0.376 o
4 -5 6 0.362 0.177 0.129 1070.460 o
4 -5 7 10.793 11.017 0.456 47.173 o
4 -5 8 3.684 3.511 0.281 146.649 o
4 -5 9 2.096 2.321 0.262 206.709 o
4 -5 10 14.569 14.065 0.626 29.578 o
4 -5 11 9.652 9.636 0.555 42.905 o
4 -4 0 101.735 107.582 1.771 2.114 o
4 -4 1 44.489 44.250 0.887 8.387 o
4 -4 2 200.219 189.482 2.446 0.753 o
4 -4 3 13.581 12.908 0.362 45.411 o
4 -4 4 451.080 432.766 4.010 0.175 o
4 -4 5 25.345 23.671 0.504 20.863 o
4 -4 6 9.186 8.170 0.330 68.915 o
4 -4 7 45.836 41.707 0.866 8.476 o
4 -4 8 12.191 11.632 0.502 40.628 o
4 -4 9 2.061 2.110 0.239 232.659 o
4 -4 10 24.858 23.831 0.794 16.146 o
4 -4 11 2.052 2.144 0.341 151.921 o
4 -4 12 5.850 4.636 0.376 87.900 o
4 -3 0 66.716 64.831 1.375 4.185 o
4 -3 1 248.593 239.566 3.922 0.445 o
4 -3 2 20.210 19.816 0.500 26.078 o
4 -3 3 32.358 27.876 0.383 17.377 o
4 -3 4 82.379 74.487 0.789 4.004 o
4 -3 5 96.187 91.172 1.084 2.892 o
4 -3 6 180.033 171.233 1.821 0.966 o
4 -3 7 32.403 31.225 0.728 13.304 o
4 -3 8 24.271 23.118 0.668 18.698 o
4 -3 9 77.657 76.142 1.293 3.593 o
4 -3 10 21.742 21.018 0.722 19.382 o
4 -3 11 3.621 3.672 0.317 130.488 o
4 -3 12 0.106 0.155 0.200 600.002 o
4 -3 13 0.597 0.884 0.236 352.474 o
4 -2 0 156.806 155.685 2.226 1.091 o
4 -2 1 0.013 0.053 0.102 2334.660 o
4 -2 2 7.418 5.837 0.354 79.710 o
4 -2 3 78.208 68.513 0.986 4.143 o
4 -2 4 8.027 7.418 0.205 94.915 o
4 -2 5 190.993 177.042 1.629 0.912 o
4 -2 6 36.661 34.289 0.629 12.527 o
4 -2 7 232.149 223.597 2.182 0.610 o
4 -2 8 153.001 150.631 1.998 1.184 o
4 -2 9 1.298 1.342 0.181 389.283 o
4 -2 10 2.023 2.323 0.228 241.219 o
4 -2 11 3.573 4.006 0.299 136.215 o
4 -2 12 0.264 0.208 0.185 639.196 o
4 -2 13 106.537 103.552 1.752 2.077 o
4 -2 14 62.265 46.949 4.351 1.157 o
4 -1 0 41.000 40.731 0.928 8.951 o
4 -1 1 104.258 98.393 1.683 2.206 o
4 -1 2 0.125 0.175 0.076 2764.460 o
4 -1 3 18.733 16.681 0.260 36.354 o
4 -1 4 328.718 295.941 3.500 0.317 o
4 -1 5 62.715 57.208 0.726 6.037 o
4 -1 6 154.465 146.040 1.405 1.313 o
4 -1 7 582.278 559.481 3.979 0.112 o
4 -1 8 35.682 33.148 0.692 12.446 o
4 -1 9 156.995 151.373 1.708 1.210 o
4 -1 10 0.134 0.219 0.157 897.758 o
4 -1 11 53.278 52.605 1.030 6.332 o
4 -1 12 0.229 0.145 0.181 684.437 o
4 -1 13 50.282 47.292 1.126 6.525 o
4 -1 14 37.907 36.178 1.129 8.492 o
4 0 0 56.744 55.045 1.165 5.545 o
4 0 1 82.012 76.138 1.944 2.678 o
4 0 2 4.492 5.093 0.370 97.121 o
4 0 3 1262.570 1142.630 6.587 0.026 o
4 0 4 42.441 39.556 0.555 10.874 o
4 0 5 499.665 452.728 4.226 0.150 o
4 0 6 359.088 344.263 3.469 0.267 o
4 0 7 3.375 3.103 0.191 208.295 o
4 0 8 128.838 128.298 1.829 1.559 o
4 0 9 4.815 5.004 0.273 123.550 o
4 0 10 86.100 86.076 1.261 3.145 o
4 0 11 20.388 18.535 0.591 24.052 o
4 0 12 17.749 15.452 0.605 26.913 o
4 0 13 6.623 6.600 0.426 69.598 o
4 0 14 4.371 3.909 0.355 107.116 o
4 0 15 0.199 -0.495 0.611 68.530 o
4 1 0 451.911 363.984 11.325 0.105 o
4 1 1 176.352 169.949 4.056 0.659 o
4 1 2 80.350 75.384 0.739 4.134 o
4 1 3 165.148 157.339 1.136 1.210 o
4 1 4 1121.040 1084.080 8.512 0.031 o
4 1 5 1049.070 1020.230 11.046 0.032 o
4 1 6 25.741 24.888 0.482 20.599 o
4 1 7 957.615 951.853 12.868 0.035 o
4 1 8 104.902 106.078 1.286 2.352 o
4 1 9 8.679 8.021 0.325 72.172 o
4 1 10 0.020 0.038 0.126 1571.570 o
4 1 11 44.979 44.507 0.962 7.948 o
4 1 12 24.671 24.207 0.747 16.915 o
4 1 13 25.047 25.020 0.838 15.193 o
4 1 14 11.639 10.550 0.610 35.485 o
4 1 15 9.312 9.235 0.573 42.333 o
4 2 0 471.674 459.538 5.523 0.148 o
4 2 1 74.007 71.550 1.003 4.260 o
4 2 2 5.746 5.591 0.163 138.234 o
4 2 3 895.568 849.077 6.364 0.049 o
4 2 4 378.264 371.925 4.060 0.231 o
4 2 5 596.825 586.489 5.403 0.100 o
4 2 6 1192.650 1194.540 12.370 0.025 o
4 2 7 15.177 15.315 0.393 38.528 o
4 2 8 286.427 283.290 2.342 0.417 o
4 2 9 57.612 57.966 0.909 6.044 o
4 2 10 15.778 16.262 0.532 31.113 o
4 2 11 180.926 184.737 2.287 0.865 o
4 2 12 10.932 10.224 0.498 44.411 o
4 2 13 10.431 11.304 0.590 37.827 o
4 2 14 33.335 32.151 1.038 10.132 o
4 2 15 11.724 11.457 0.671 31.501 o
4 3 0 55.770 54.334 0.651 7.089 o
4 3 1 58.045 58.045 0.632 6.663 o
4 3 2 0.051 0.076 0.047 7039.110 o
4 3 3 99.095 95.922 1.036 2.769 o
4 3 4 154.026 147.478 1.560 1.280 o
4 3 5 1091.540 1095.450 8.109 0.032 o
4 3 6 89.589 91.934 0.988 3.164 o
4 3 7 221.453 219.565 2.071 0.657 o
4 3 8 166.294 169.452 2.215 0.992 o
4 3 9 23.329 22.936 0.604 20.445 o
4 3 10 21.475 21.520 0.618 21.657 o
4 3 11 32.251 33.348 0.823 12.137 o
4 3 12 3.785 3.815 0.302 133.444 o
4 3 13 225.900 226.200 2.837 0.579 o
4 3 14 10.211 11.153 0.650 34.460 o
4 3 15 15.329 15.718 0.801 22.107 o
4 4 0 0.860 1.527 0.110 652.354 o
4 4 1 915.466 887.329 11.212 0.040 o
4 4 2 2.634 2.879 0.167 260.011 o
4 4 3 14.189 12.974 0.360 44.153 o
4 4 4 55.864 56.758 0.734 6.728 o
4 4 5 49.730 48.899 0.679 8.160 o
4 4 6 240.115 246.426 2.509 0.539 o
4 4 7 374.553 376.411 3.876 0.235 o
4 4 8 4.856 5.806 0.263 121.379 o
4 4 9 296.079 305.576 3.190 0.359 o
4 4 10 10.208 10.164 0.402 54.263 o
4 4 11 7.413 7.688 0.383 70.634 o
4 4 12 138.391 135.451 1.903 1.398 o
4 4 13 27.491 26.508 0.867 13.812 o
4 4 14 23.857 23.448 0.872 15.315 o
4 4 15 26.257 26.123 0.990 12.634 o
4 4 16 14.128 13.032 2.317 4.435 o
4 5 0 355.839 351.475 3.265 0.270 o
4 5 1 259.601 252.032 2.235 0.502 o
4 5 2 196.071 190.821 1.685 0.845 o
4 5 3 285.052 271.811 2.467 0.425 o
4 5 4 325.804 322.318 3.533 0.306 o
4 5 5 31.049 29.219 0.552 15.964 o
4 5 6 234.560 237.849 2.175 0.584 o
4 5 7 72.104 73.821 1.055 4.225 o
4 5 8 695.643 716.542 5.699 0.074 o
4 5 9 120.059 121.485 1.502 1.838 o
4 5 10 130.688 136.683 1.723 1.526 o
4 5 11 32.770 35.109 0.857 11.507 o
4 5 12 7.380 7.731 0.455 60.666 o
4 5 13 31.667 33.397 0.979 10.827 o
4 5 14 0.556 0.782 0.248 333.851 o
4 5 15 4.728 4.306 0.408 88.358 o
4 5 16 0.514 0.582 0.900 31.356 o
4 6 0 16.784 16.269 0.481 31.944 o
4 6 1 34.373 34.001 0.597 13.495 o
4 6 2 454.144 447.222 4.106 0.170 o
4 6 3 11.283 11.159 0.380 51.818 o
4 6 4 31.570 28.741 0.622 15.091 o
4 6 5 14.005 14.200 0.407 40.834 o
4 6 6 33.080 32.161 0.675 13.480 o
4 6 7 571.250 580.431 4.828 0.109 o
4 6 8 138.567 137.905 1.650 1.455 o
4 6 9 407.901 423.712 3.800 0.201 o
4 6 10 220.974 224.734 2.333 0.631 o
4 6 11 2.548 2.623 0.245 202.499 o
4 6 12 29.421 30.213 0.907 12.359 o
4 6 13 24.191 23.284 0.841 15.729 o
4 6 14 5.289 5.246 0.414 81.113 o
4 6 15 15.573 15.198 0.724 24.585 o
4 6 16 9.027 5.597 1.110 17.643 o
4 7 0 5.277 5.312 0.295 110.187 o
4 7 1 31.983 31.087 0.629 14.453 o
4 7 2 168.519 163.245 1.843 1.059 o
4 7 3 114.374 112.024 1.448 2.029 o
4 7 4 113.337 111.367 1.669 1.946 o
4 7 5 6.060 5.731 0.279 104.968 o
4 7 6 569.518 566.079 5.541 0.107 o
4 7 7 0.042 0.164 0.129 1389.440 o
4 7 8 164.502 168.601 1.866 1.064 o
4 7 9 343.585 352.551 3.397 0.278 o
4 7 10 19.226 19.607 0.664 22.550 o
4 7 11 17.422 18.105 0.699 23.213 o
4 7 12 1.528 1.463 0.231 281.341 o
4 7 13 27.065 27.575 0.916 13.168 o
4 7 14 0.046 0.075 0.192 672.520 o
4 7 15 6.213 6.526 0.480 62.973 o
4 8 0 103.405 102.383 2.079 1.940 o
4 8 1 103.639 100.979 1.482 2.319 o
4 8 2 5.141 5.118 0.272 119.277 o
4 8 3 74.008 72.488 1.061 4.154 o
4 8 4 91.004 89.443 1.363 2.851 o
4 8 5 242.193 238.205 2.852 0.524 o
4 8 6 0.218 0.379 0.145 928.976 o
4 8 7 270.072 273.352 4.144 0.377 o
4 8 8 187.149 190.628 2.264 0.825 o
4 8 9 0.054 0.152 0.155 981.933 o
4 8 10 0.031 0.059 0.182 759.963 o
4 8 11 115.684 116.231 2.046 1.700 o
4 8 12 42.066 41.873 1.216 7.202 o
4 8 13 39.821 39.287 1.231 7.490 o
4 8 14 7.034 6.599 0.526 54.346 o
4 8 15 26.981 26.980 1.095 11.203 o
4 9 0 46.079 45.557 1.127 7.015 o
4 9 1 5.178 5.521 0.321 102.955 o
4 9 2 156.577 160.869 2.214 1.078 o
4 9 3 0.329 0.375 0.128 1038.340 o
4 9 4 43.028 41.405 0.859 8.965 o
4 9 5 5.012 4.870 0.356 97.801 o
4 9 6 430.862 424.560 5.666 0.167 o
4 9 7 139.917 139.107 1.804 1.393 o
4 9 8 0.609 0.695 0.167 590.612 o
4 9 9 67.768 65.172 1.288 4.287 o
4 9 10 61.958 63.087 1.376 4.461 o
4 9 11 15.751 15.556 0.689 25.557 o
4 9 12 6.382 5.697 0.458 67.183 o
4 9 13 15.457 15.320 0.777 22.907 o
4 9 14 0.230 0.393 0.249 373.270 o
4 9 15 209.847 215.588 7.352 0.299 o
4 10 0 166.252 175.308 2.074 0.998 o
4 10 1 0.322 0.401 0.196 547.422 o
4 10 2 1.980 1.745 0.245 236.985 o
4 10 3 11.126 12.180 0.502 42.026 o
4 10 4 2.183 2.142 0.244 222.477 o
4 10 5 21.459 20.118 0.701 20.224 o
4 10 6 119.073 116.601 1.960 1.694 o
4 10 7 38.093 36.811 1.017 9.144 o
4 10 8 162.140 161.561 2.373 1.011 o
4 10 9 86.307 82.840 1.537 2.914 o
4 10 10 0.062 0.279 0.194 630.896 o
4 10 11 34.030 32.798 1.038 9.962 o
4 10 12 1.371 1.304 0.294 213.740 o
4 10 13 52.187 49.396 1.440 5.236 o
4 10 14 120.280 116.264 2.353 1.514 o
4 11 0 1.024 1.033 0.199 393.738 o
4 11 1 18.624 21.380 0.793 19.239 o
4 11 2 19.162 18.532 0.784 19.878 o
4 11 3 5.663 5.169 0.373 88.064 o
4 11 4 29.141 29.549 0.881 12.794 o
4 11 5 129.933 134.140 2.095 1.427 o
4 11 6 3.300 3.101 0.317 138.272 o
4 11 7 158.778 162.162 2.886 0.929 o
4 11 8 49.270 49.754 1.363 5.666 o
4 11 9 79.708 76.976 1.528 3.209 o
4 11 10 101.685 97.677 1.881 2.130 o
4 11 11 1.358 1.345 0.284 224.662 o
4 11 12 21.552 19.685 0.901 16.210 o
4 11 13 1.667 0.980 0.268 237.989 o
4 12 0 5.526 5.092 0.406 81.972 o
4 12 1 0.111 0.052 0.196 635.936 o
4 12 2 6.515 6.587 0.510 57.697 o
4 12 3 16.999 17.760 0.803 20.638 o
4 12 4 56.007 59.168 1.354 4.952 o
4 12 5 0.548 0.672 0.309 234.377 o
4 12 6 13.778 13.850 0.685 27.912 o
4 12 7 4.245 4.249 0.368 102.823 o
4 12 8 0.620 0.996 0.272 278.270 o
4 12 9 326.848 334.045 5.504 0.248 o
4 12 10 17.813 18.510 0.945 16.829 o
4 12 11 115.671 112.149 2.258 1.627 o
4 12 12 7.219 7.261 0.566 48.734 o
4 13 1 0.239 0.101 0.259 359.768 o
4 13 2 9.567 9.962 0.647 36.106 o
4 13 3 7.497 8.092 0.596 44.426 o
4 13 4 0.371 0.354 0.226 428.937 o
4 13 5 36.507 39.698 1.202 8.002 o
4 13 6 33.996 35.514 1.150 8.921 o
4 13 7 0.103 0.478 0.248 385.825 o
4 13 8 183.492 180.587 2.854 0.786 o
4 13 9 157.204 154.456 2.742 0.986 o
4 13 10 30.857 31.003 1.171 9.522 o
4 13 11 16.359 14.768 1.706 7.484 o
4 14 4 51.538 54.201 4.940 0.944 o
4 14 5 0.415 0.651 0.635 62.180 o
4 14 6 13.718 12.687 2.223 4.802 o
4 14 7 4.887 3.045 1.200 16.588 o
5 -10 0 41.687 46.899 2.819 2.542 o
5 -10 1 9.970 10.914 1.433 10.899 o
5 -10 2 3.318 5.480 1.373 12.958 o
5 -9 0 105.101 116.459 4.057 0.981 o
5 -9 1 31.242 32.114 1.264 8.670 o
5 -9 2 15.359 16.179 1.084 15.122 o
5 -9 3 1.101 0.986 0.357 167.481 o
5 -9 4 0.974 -0.315 0.664 56.493 o
5 -8 0 160.343 174.663 3.287 0.822 o
5 -8 1 5.783 5.797 0.517 59.994 o
5 -8 2 5.097 4.579 0.475 71.423 o
5 -8 3 0.355 0.675 0.325 220.092 o
5 -8 4 1.698 0.982 0.359 155.725 o
5 -8 5 1.161 1.481 0.407 130.763 o
5 -8 6 2.311 2.525 0.646 53.847 o
5 -7 0 1.616 1.938 0.347 157.154 o
5 -7 1 29.649 33.320 1.613 6.555 o
5 -7 2 43.188 44.962 1.384 6.209 o
5 -7 3 13.061 12.362 0.776 25.380 o
5 -7 4 31.834 32.704 1.446 7.359 o
5 -7 5 2.453 2.259 0.394 118.597 o
5 -7 6 28.093 27.314 1.574 7.105 o
5 -7 7 1.313 0.937 0.389 142.312 o
5 -7 8 22.947 25.614 3.190 2.326 o
5 -6 0 32.919 33.415 1.103 9.573 o
5 -6 1 2.464 2.761 0.441 98.667 o
5 -6 2 11.042 11.411 0.666 32.488 o
5 -6 3 25.358 23.867 0.956 13.573 o
5 -6 4 8.594 8.731 0.723 33.086 o
5 -6 5 75.204 78.914 2.305 2.404 o
5 -6 6 14.086 13.794 1.343 11.396 o
5 -6 7 9.774 8.614 1.018 19.539 o
5 -6 8 20.570 21.775 1.647 7.390 o
5 -6 9 14.506 12.650 1.623 8.354 o
5 -5 0 0.113 0.337 0.238 422.479 o
5 -5 1 34.095 33.858 1.051 9.761 o
5 -5 2 1.409 1.110 0.248 272.001 o
5 -5 3 69.793 69.624 1.604 3.565 o
5 -5 4 17.186 16.931 0.828 20.092 o
5 -5 5 50.511 50.486 1.685 4.586 o
5 -5 6 50.757 53.570 2.832 2.367 o
5 -5 7 0.589 0.789 0.396 149.053 o
5 -5 8 8.789 9.133 1.617 8.964 o
5 -5 9 1.139 1.277 0.452 110.051 o
5 -5 10 12.562 14.257 1.444 10.278 o
5 -4 0 29.361 28.663 1.028 11.276 o
5 -4 1 0.508 0.370 0.147 782.059 o
5 -4 2 165.236 168.914 3.726 0.742 o
5 -4 3 25.266 23.702 0.863 14.959 o
5 -4 4 16.447 16.158 0.780 22.003 o
5 -4 5 66.147 65.059 1.852 3.363 o
5 -4 6 7.616 7.527 0.717 35.074 o
5 -4 7 6.564 6.393 0.686 39.316 o
5 -4 8 7.067 7.682 0.905 25.077 o
5 -4 9 2.918 3.663 0.596 58.810 o
5 -4 10 38.925 44.199 2.332 3.470 o
5 -4 11 11.904 13.536 1.330 11.905 o
5 -3 0 101.709 98.912 3.029 1.449 o
5 -3 1 160.199 157.579 3.591 0.801 o
5 -3 2 29.405 27.711 0.722 14.862 o
5 -3 3 121.350 122.444 2.867 1.278 o
5 -3 4 73.972 72.208 1.508 3.512 o
5 -3 5 10.304 9.680 0.656 34.862 o
5 -3 6 8.700 8.660 0.726 32.825 o
5 -3 7 12.932 11.848 0.883 21.784 o
5 -3 8 3.763 4.305 0.667 46.880 o
5 -3 9 26.758 26.352 1.474 7.928 o
5 -3 10 29.052 30.195 1.564 6.983 o
5 -3 11 2.046 2.529 0.599 62.123 o
5 -3 12 42.339 45.691 2.141 3.798 o
5 -2 0 78.765 81.237 2.291 2.336 o
5 -2 1 30.636 28.556 0.895 12.398 o
5 -2 2 646.534 629.672 7.624 0.080 o
5 -2 3 14.853 13.903 0.502 34.968 o
5 -2 4 109.380 100.653 1.747 2.056 o
5 -2 5 2.310 2.053 0.271 196.557 o
5 -2 6 3.990 3.427 0.508 71.680 o
5 -2 7 5.452 4.466 0.522 62.279 o
5 -2 8 58.937 58.209 1.969 3.482 o
5 -2 9 2.184 2.766 0.503 82.063 o
5 -2 10 45.387 46.738 1.972 4.105 o
5 -2 11 111.982 117.597 2.926 1.343 o
5 -2 12 29.535 30.316 1.687 6.268 o
5 -2 13 15.747 13.748 1.181 13.568 o
5 -1 0 7.433 7.297 0.427 64.996 o
5 -1 1 134.238 131.727 2.587 1.243 o
5 -1 2 69.760 65.863 1.375 4.020 o
5 -1 3 0.822 1.020 0.181 469.985 o
5 -1 4 233.842 218.379 2.555 0.588 o
5 -1 5 24.626 22.478 0.880 15.092 o
5 -1 6 0.128 0.167 0.191 646.190 o
5 -1 7 92.161 90.809 3.424 1.353 o
5 -1 8 69.056 66.030 1.341 4.108 o
5 -1 9 77.394 69.154 1.225 3.841 o
5 -1 10 174.163 168.367 2.021 0.981 o
5 -1 11 10.341 11.534 0.484 45.421 o
5 -1 12 90.202 89.039 1.522 2.740 o
5 -1 13 33.491 32.340 0.941 10.907 o
5 -1 14 1.324 0.985 0.384 144.872 o
5 0 0 9.980 11.798 0.691 32.025 o
5 0 1 70.815 68.557 1.626 3.513 o
5 0 2 2.343 2.156 0.214 245.444 o
5 0 3 109.740 100.535 1.462 2.212 o
5 0 4 3.677 3.465 0.270 152.307 o
5 0 5 0.941 1.343 0.211 359.660 o
5 0 6 2.474 2.486 0.281 179.376 o
5 0 7 371.392 350.493 2.837 0.264 o
5 0 8 337.355 321.875 2.899 0.309 o
5 0 9 1.835 1.540 0.173 346.598 o
5 0 10 7.159 6.538 0.342 81.328 o
5 0 11 79.689 75.902 1.264 3.554 o
5 0 12 51.281 51.561 1.078 6.405 o
5 0 13 0.025 -0.241 0.246 423.596 o
5 0 14 13.518 12.291 0.650 30.370 o
5 1 0 278.983 271.788 5.220 0.321 o
5 1 1 406.810 389.245 3.779 0.212 o
5 1 2 92.453 89.081 1.329 2.844 o
5 1 3 55.080 50.879 0.840 6.836 o
5 1 4 179.010 169.335 2.254 0.917 o
5 1 5 138.021 135.834 1.692 1.460 o
5 1 6 7.007 6.584 0.232 102.508 o
5 1 7 132.590 131.824 1.575 1.577 o
5 1 8 0.250 0.294 0.107 1436.140 o
5 1 9 65.227 62.763 0.977 5.104 o
5 1 10 32.396 30.111 0.767 13.066 o
5 1 11 128.425 125.679 1.747 1.608 o
5 1 12 94.384 91.353 1.597 2.546 o
5 1 13 34.237 32.914 0.960 10.552 o
5 1 14 14.139 13.570 0.693 27.404 o
5 2 0 8.838 9.566 0.394 60.114 o
5 2 1 3.208 3.277 0.226 188.079 o
5 2 2 481.724 468.865 6.504 0.134 o
5 2 3 0.805 0.910 0.122 715.113 o
5 2 4 136.143 130.155 1.611 1.535 o
5 2 5 44.906 45.819 0.664 9.234 o
5 2 6 428.605 428.334 5.999 0.163 o
5 2 7 82.588 80.208 1.012 3.636 o
5 2 8 22.058 22.399 0.540 22.729 o
5 2 9 1.451 1.368 0.165 405.613 o
5 2 10 30.840 29.744 0.724 14.036 o
5 2 11 20.380 19.478 0.634 22.608 o
5 2 12 2.937 2.633 0.283 166.945 o
5 2 13 85.056 86.371 1.601 2.836 o
5 2 14 68.347 71.271 1.664 3.493 o
5 2 15 54.926 54.447 1.585 4.544 o
5 3 0 9.506 9.370 0.413 56.372 o
5 3 1 1078.870 1074.720 15.616 0.026 o
5 3 2 356.183 343.203 4.806 0.242 o
5 3 3 27.843 28.483 0.532 17.771 o
5 3 4 38.515 35.705 0.533 12.485 o
5 3 5 193.358 199.257 2.140 0.793 o
5 3 6 14.578 15.021 0.426 38.185 o
5 3 7 33.750 34.998 0.653 13.056 o
5 3 8 27.402 27.456 0.634 16.830 o
5 3 9 27.184 26.272 0.676 16.575 o
5 3 10 4.146 3.928 0.284 135.070 o
5 3 11 28.477 26.638 0.938 12.667 o
5 3 12 31.937 32.298 0.876 11.842 o
5 3 13 83.555 84.049 1.591 2.918 o
5 3 14 145.593 154.490 2.433 1.124 o
5 3 15 0.079 0.205 0.241 422.762 o
5 4 0 208.308 201.632 1.660 0.768 o
5 4 1 126.802 122.811 1.610 1.694 o
5 4 2 48.279 44.752 0.619 8.931 o
5 4 3 0.005 0.189 0.078 3332.080 o
5 4 4 118.276 117.183 1.446 1.922 o
5 4 5 213.414 216.785 2.530 0.652 o
5 4 6 58.932 59.827 0.961 5.722 o
5 4 7 48.757 48.515 0.865 7.627 o
5 4 8 2.842 2.766 0.202 224.314 o
5 4 9 2.924 2.885 0.210 213.295 o
5 4 10 42.172 43.425 0.892 8.762 o
5 4 11 0.574 0.689 0.167 599.328 o
5 4 12 48.546 49.828 1.048 6.864 o
5 4 13 190.783 196.863 2.485 0.771 o
5 4 14 8.643 8.836 0.559 45.025 o
5 4 15 81.135 82.394 1.833 2.745 o
5 5 0 15.004 14.941 0.361 40.620 o
5 5 1 101.580 97.993 1.156 2.601 o
5 5 2 119.145 115.223 1.230 2.010 o
5 5 3 158.489 153.628 1.832 1.165 o
5 5 4 5.200 5.345 0.285 113.537 o
5 5 5 119.984 117.550 1.432 1.897 o
5 5 6 2.170 2.930 0.216 234.490 o
5 5 7 300.588 295.206 4.317 0.322 o
5 5 8 0.987 0.797 0.149 568.237 o
5 5 9 23.210 22.088 0.621 20.410 o
5 5 10 0.009 0.441 0.147 1021.240 o
5 5 11 165.950 178.832 2.280 0.957 o
5 5 12 67.511 70.807 1.342 4.068 o
5 5 13 11.152 13.174 0.617 34.109 o
5 5 14 162.401 169.312 2.545 0.956 o
5 5 15 24.570 24.881 0.985 13.255 o
5 6 0 132.857 129.335 1.443 1.629 o
5 6 1 68.383 67.315 0.972 4.754 o
5 6 2 3.073 3.091 0.205 208.756 o
5 6 3 0.083 0.206 0.108 1742.680 o
5 6 4 147.646 146.396 1.890 1.268 o
5 6 5 148.838 151.984 2.041 1.201 o
5 6 6 128.195 128.470 1.616 1.638 o
5 6 7 1.102 0.972 0.163 483.340 o
5 6 8 50.955 54.091 1.051 6.412 o
5 6 9 28.532 29.361 0.792 14.027 o
5 6 10 216.970 225.458 3.859 0.520 o
5 6 11 6.783 6.995 0.409 70.780 o
5 6 12 52.532 54.955 1.197 5.771 o
5 6 13 153.230 162.582 2.363 1.064 o
5 6 14 23.386 22.670 0.864 15.721 o
5 6 15 0.234 0.434 0.234 415.563 o
5 7 0 67.790 67.665 0.962 4.799 o
5 7 1 30.565 30.196 0.665 14.711 o
5 7 2 46.724 46.217 0.803 8.308 o
5 7 3 0.045 0.054 0.113 1844.120 o
5 7 4 141.324 141.758 1.635 1.410 o
5 7 5 8.369 7.928 0.409 62.819 o
5 7 6 62.801 62.130 1.098 5.038 o
5 7 7 137.772 140.364 1.817 1.405 o
5 7 8 1.877 1.983 0.216 268.366 o
5 7 9 16.612 15.976 0.598 27.896 o
5 7 10 0.066 0.064 0.154 1024.240 o
5 7 11 3.354 3.306 0.316 136.600 o
5 7 12 173.485 182.953 2.586 0.861 o
5 7 13 19.781 19.062 0.872 17.519 o
5 7 14 167.617 181.616 2.645 0.883 o
5 7 15 5.379 5.701 0.466 69.735 o
5 8 0 6.341 6.241 0.315 92.495 o
5 8 1 251.879 253.947 3.025 0.477 o
5 8 2 29.099 29.050 0.665 15.441 o
5 8 3 157.479 156.062 1.793 1.171 o
5 8 4 40.507 41.995 0.881 9.197 o
5 8 5 137.905 138.544 2.182 1.308 o
5 8 6 18.669 19.038 0.713 21.777 o
5 8 7 51.121 49.050 1.039 6.679 o
5 8 8 76.083 74.183 1.331 3.643 o
5 8 9 11.286 11.176 0.516 41.627 o
5 8 10 4.269 4.053 0.343 111.569 o
5 8 11 32.341 32.459 0.900 11.502 o
5 8 12 0.162 -0.092 0.224 488.441 o
5 8 13 69.065 70.109 1.680 3.463 o
5 8 14 0.754 1.228 0.310 216.650 o
5 8 15 131.065 131.761 2.529 1.285 o
5 9 0 61.645 63.821 1.128 4.994 o
5 9 1 14.307 14.168 0.545 33.433 o
5 9 2 108.774 109.579 1.622 2.060 o
5 9 3 213.353 219.375 2.826 0.623 o
5 9 4 107.956 109.627 1.747 2.006 o
5 9 5 0.050 0.073 0.143 1183.320 o
5 9 6 32.246 30.681 0.950 11.247 o
5 9 7 90.612 87.560 1.699 2.591 o
5 9 8 17.470 17.355 0.642 25.159 o
5 9 9 7.419 6.927 0.449 62.654 o
5 9 10 22.934 23.500 0.833 16.251 o
5 9 11 49.118 48.086 1.241 6.168 o
5 9 12 4.118 4.221 0.404 93.668 o
5 9 13 62.572 63.725 1.630 3.905 o
5 9 14 0.116 0.280 0.242 412.362 o
5 10 0 1.548 1.556 0.262 237.984 o
5 10 1 84.499 88.282 1.813 2.617 o
5 10 2 13.262 13.862 0.578 33.301 o
5 10 3 36.843 39.573 0.939 9.643 o
5 10 4 5.979 6.057 0.378 82.478 o
5 10 5 37.034 39.903 1.010 9.119 o
5 10 6 40.437 38.909 1.019 8.638 o
5 10 7 0.772 0.529 0.215 407.255 o
5 10 8 220.123 217.518 4.192 0.495 o
5 10 9 4.471 3.502 0.308 124.522 o
5 10 10 10.392 9.587 0.554 41.762 o
5 10 11 0.789 1.055 0.241 323.007 o
5 10 12 28.691 27.993 1.056 11.192 o
5 10 13 2.249 2.020 0.296 179.283 o
5 10 14 55.480 52.898 1.978 3.654 o
5 11 0 68.628 75.246 1.442 3.758 o
5 11 1 5.719 5.189 0.352 92.460 o
5 11 2 23.853 26.408 0.937 13.903 o
5 11 3 16.724 17.912 0.719 23.125 o
5 11 4 0.186 0.507 0.180 649.607 o
5 11 5 11.721 11.277 0.562 37.839 o
5 11 6 0.008 -0.036 0.182 775.630 o
5 11 7 51.090 49.280 1.200 6.103 o
5 11 8 14.891 13.442 0.755 24.552 o
5 11 9 130.585 133.494 2.600 1.259 o
5 11 10 130.103 130.732 2.338 1.360 o
5 11 11 41.229 39.005 1.179 7.633 o
5 11 12 3.588 2.995 0.365 115.557 o
5 11 13 28.322 27.370 1.216 9.764 o
5 12 0 38.231 41.506 1.094 8.318 o
5 12 1 23.349 27.023 0.837 15.434 o
5 12 2 7.800 8.595 0.572 45.650 o
5 12 3 0.000 -0.027 0.245 429.558 o
5 12 4 0.065 0.185 0.214 536.079 o
5 12 5 2.068 1.648 0.290 192.907 o
5 12 6 3.005 3.001 0.326 139.094 o
5 12 7 38.281 37.787 1.164 8.130 o
5 12 8 27.117 26.323 0.972 12.633 o
5 12 9 173.377 175.056 3.120 0.797 o
5 12 10 0.332 0.163 0.309 252.421 o
5 12 11 5.384 5.390 0.537 58.895 o
5 13 2 0.023 -0.600 1.156 19.330 o
5 13 3 0.673 0.957 0.303 232.845 o
5 13 4 0.007 -0.194 0.265 367.065 o
5 13 5 10.230 10.676 0.673 33.385 o
5 13 6 5.421 5.807 0.493 64.723 o
5 13 7 0.104 0.299 0.236 431.685 o
5 13 8 9.471 9.622 0.626 37.881 o
5 13 9 54.320 57.979 1.557 4.558 o
5 13 10 1.452 2.490 1.400 12.869 o
6 -8 0 15.006 14.012 1.027 16.687 o
6 -8 1 0.142 0.539 0.318 239.530 o
6 -8 2 7.770 7.518 0.758 32.319 o
6 -8 3 9.013 9.056 0.844 26.224 o
6 -8 4 9.749 9.470 1.094 17.326 o
6 -7 0 3.865 4.760 0.802 34.142 o
6 -7 1 29.608 31.464 1.233 9.158 o
6 -7 2 26.268 29.807 1.208 9.955 o
6 -7 3 0.541 0.346 0.321 224.193 o
6 -7 4 0.172 -0.415 0.269 342.859 o
6 -7 5 12.385 13.838 1.005 18.083 o
6 -7 6 4.770 4.752 0.796 33.799 o
6 -6 0 34.778 35.962 1.368 7.401 o
6 -6 1 17.887 18.177 0.961 16.532 o
6 -6 2 0.311 0.445 0.246 372.722 o
6 -6 3 75.894 82.176 1.987 2.701 o
6 -6 4 22.070 23.305 1.247 10.686 o
6 -6 5 0.083 0.374 0.276 321.278 o
6 -6 6 4.055 4.496 0.634 50.028 o
6 -6 7 28.270 31.818 2.327 3.875 o
6 -6 8 27.453 28.587 3.390 2.042 o
6 -5 0 12.286 12.083 0.684 30.034 o
6 -5 1 10.184 10.464 0.643 35.336 o
6 -5 2 141.566 143.526 2.604 1.144 o
6 -5 3 73.636 76.031 1.821 3.034 o
6 -5 4 7.952 8.124 0.748 32.472 o
6 -5 5 20.141 19.522 1.115 13.078 o
6 -5 6 6.222 5.363 0.695 39.682 o
6 -5 7 22.189 23.575 1.443 8.749 o
6 -5 8 10.284 11.872 1.770 7.444 o
6 -5 9 38.158 41.296 2.122 4.035 o
6 -4 0 10.072 9.641 0.578 40.404 o
6 -4 1 37.714 37.003 1.146 8.361 o
6 -4 2 76.520 75.704 1.735 3.067 o
6 -4 3 151.859 154.518 2.873 0.986 o
6 -4 4 51.740 53.607 1.767 4.251 o
6 -4 5 0.337 0.435 0.264 327.221 o
6 -4 6 29.831 28.743 1.481 7.493 o
6 -4 7 39.075 34.337 1.944 4.649 o
6 -4 8 12.663 12.829 1.171 14.486 o
6 -4 9 3.954 4.572 0.625 51.335 o
6 -4 10 5.455 6.025 0.822 30.954 o
6 -3 0 94.796 94.249 2.838 1.632 o
6 -3 1 1.564 1.472 0.218 297.784 o
6 -3 2 34.798 33.688 1.019 9.908 o
6 -3 3 0.760 2.776 0.347 164.367 o
6 -3 4 11.483 10.658 0.669 32.299 o
6 -3 5 104.679 102.650 2.734 1.555 o
6 -3 6 34.530 34.424 2.055 4.457 o
6 -3 7 80.726 81.948 2.748 1.907 o
6 -3 8 0.035 0.100 0.295 293.111 o
6 -3 9 26.063 27.455 1.531 7.542 o
6 -3 10 11.073 10.918 1.169 15.089 o
6 -3 11 0.800 1.134 0.411 134.394 o
6 -2 0 4.492 4.306 0.401 91.697 o
6 -2 1 32.568 30.179 1.235 8.844 o
6 -2 2 6.645 5.385 0.399 76.861 o
6 -2 3 2.313 2.363 0.281 185.102 o
6 -2 4 84.632 78.838 1.769 2.771 o
6 -2 5 2.602 2.267 0.336 145.281 o
6 -2 6 101.226 98.920 3.020 1.458 o
6 -2 7 8.889 8.172 0.742 31.907 o
6 -2 8 93.534 97.783 2.972 1.552 o
6 -2 9 67.438 67.750 2.758 2.145 o
6 -2 10 0.729 1.080 0.404 140.261 o
6 -2 11 42.515 45.297 2.078 3.953 o
6 -2 12 23.188 21.523 1.915 5.695 o
6 -1 0 175.234 183.070 4.790 0.555 o
6 -1 1 0.081 -0.108 0.193 670.324 o
6 -1 2 0.596 0.283 0.148 755.591 o
6 -1 3 5.477 4.919 0.350 95.672 o
6 -1 4 7.950 5.933 0.447 62.733 o
6 -1 5 15.082 13.558 0.856 21.162 o
6 -1 6 116.125 112.123 3.838 1.011 o
6 -1 7 73.953 71.145 2.612 2.178 o
6 -1 8 290.165 288.645 7.966 0.213 o
6 -1 9 21.814 18.799 1.207 11.567 o
6 -1 10 63.427 62.134 2.667 2.332 o
6 -1 11 0.281 0.344 0.318 238.163 o
6 -1 12 7.641 7.248 0.824 28.741 o
6 -1 13 41.115 35.417 3.801 1.580 o
6 0 0 43.615 61.273 4.510 1.121 o
6 0 1 50.879 52.184 1.980 3.807 o
6 0 2 67.529 65.971 1.527 3.850 o
6 0 3 1.504 0.894 0.250 270.717 o
6 0 4 44.806 42.414 1.173 7.101 o
6 0 5 91.879 89.722 1.895 2.373 o
6 0 6 17.991 17.890 0.756 21.350 o
6 0 7 57.480 53.209 1.634 4.333 o
6 0 8 25.509 24.071 1.277 9.825 o
6 0 9 50.232 51.486 2.062 3.661 o
6 0 10 20.666 19.320 1.120 12.911 o
6 0 11 13.249 12.789 0.935 19.850 o
6 0 12 187.769 183.629 4.515 0.561 o
6 0 13 25.998 25.958 1.911 5.495 o
6 1 0 36.471 38.368 1.715 5.506 o
6 1 1 157.787 149.764 2.549 1.036 o
6 1 2 154.413 151.114 2.191 1.130 o
6 1 3 262.825 246.730 2.866 0.471 o
6 1 4 411.953 389.396 5.383 0.187 o
6 1 5 11.099 10.459 0.557 39.681 o
6 1 6 150.211 143.014 3.100 0.974 o
6 1 7 16.523 16.405 0.801 21.297 o
6 1 8 69.844 66.002 2.308 2.616 o
6 1 9 4.652 3.805 0.422 86.882 o
6 1 10 58.869 57.179 1.956 3.526 o
6 1 11 130.750 128.331 4.391 0.789 o
6 1 12 8.032 7.645 1.016 20.404 o
6 1 13 8.155 7.032 1.010 20.675 o
6 1 14 2.891 2.584 1.145 18.665 o
6 2 0 14.633 13.765 0.667 27.958 o
6 2 1 114.208 113.713 3.992 0.969 o
6 2 2 562.637 542.260 8.859 0.092 o
6 2 3 60.368 60.792 1.229 4.943 o
6 2 4 26.003 26.418 0.955 13.102 o
6 2 5 219.952 211.010 3.624 0.549 o
6 2 6 166.132 155.911 3.427 0.811 o
6 2 7 4.948 4.600 0.500 67.308 o
6 2 8 4.758 4.900 0.526 63.194 o
6 2 9 113.125 109.425 3.791 1.044 o
6 2 10 61.841 59.717 2.168 3.048 o
6 2 11 1.613 1.103 0.590 67.099 o
6 2 12 57.761 58.211 2.704 2.398 o
6 2 13 10.105 11.127 1.244 13.800 o
6 2 14 2.112 0.478 0.591 66.257 o
6 3 0 0.015 0.650 0.208 527.922 o
6 3 1 1.481 1.496 0.224 292.789 o
6 3 2 5.046 5.153 0.307 109.684 o
6 3 4 346.031 337.863 6.535 0.210 o
6 3 5 341.386 329.708 4.447 0.266 o
6 3 6 225.007 221.123 7.741 0.270 o
6 3 7 8.333 10.426 0.727 32.265 o
6 3 8 15.188 14.259 0.880 20.253 o
6 3 9 9.403 8.682 0.712 32.924 o
6 3 10 12.902 14.335 1.041 16.971 o
6 3 11 77.609 79.269 3.391 1.508 o
6 3 12 49.785 54.928 3.073 2.097 o
6 3 13 1.769 1.669 0.537 77.669 o
6 3 14 14.291 14.777 1.406 10.499 o
6 4 0 217.319 220.886 4.350 0.485 o
6 4 1 39.657 39.378 1.326 7.011 o
6 4 2 50.733 49.871 1.125 6.371 o
6 4 3 17.624 17.069 0.632 25.480 o
6 4 4 15.818 15.806 0.748 23.446 o
6 4 5 109.018 107.162 3.446 1.191 o
6 4 6 88.560 87.624 2.003 2.367 o
6 4 7 34.668 34.334 1.330 7.718 o
6 4 8 77.565 79.425 2.745 1.961 o
6 4 9 4.448 4.125 0.468 76.578 o
6 4 10 8.027 7.171 0.410 65.370 o
6 4 11 86.826 89.964 1.432 2.901 o
6 4 12 21.767 23.369 0.732 18.611 o
6 4 13 56.915 58.781 1.232 5.221 o
6 4 14 34.479 34.810 1.530 6.590 o
6 4 15 32.840 33.518 2.160 4.204 o
6 5 0 36.595 36.741 1.174 8.337 o
6 5 1 37.801 37.053 1.149 8.329 o
6 5 2 96.464 99.456 1.923 2.176 o
6 5 3 0.213 0.190 0.140 1040.870 o
6 5 4 1.531 1.099 0.258 253.708 o
6 5 5 47.572 47.266 1.531 5.289 o
6 5 6 0.204 0.356 0.211 508.998 o
6 5 7 126.220 124.948 3.925 0.919 o
6 5 8 151.662 154.570 1.912 1.198 o
6 5 9 18.944 19.520 0.633 23.593 o
6 5 10 125.167 132.244 2.706 1.270 o
6 5 11 130.347 143.145 1.947 1.426 o
6 5 12 43.292 43.948 1.065 7.693 o
6 5 13 0.915 1.605 0.242 295.200 o
6 5 14 9.431 9.925 0.594 40.031 o
6 5 15 45.900 47.575 1.476 5.575 o
6 6 0 303.965 308.078 4.699 0.300 o
6 6 1 127.469 128.611 2.423 1.363 o
6 6 2 0.463 0.734 0.201 475.777 o
6 6 3 0.246 2.410 0.295 232.291 o
6 6 4 7.902 8.418 0.594 43.700 o
6 6 5 0.194 0.271 0.221 477.589 o
6 6 6 50.656 52.801 1.147 6.174 o
6 6 7 113.165 111.698 1.554 2.002 o
6 6 8 47.091 49.622 1.018 7.146 o
6 6 9 193.374 202.789 3.195 0.671 o
6 6 10 0.008 0.102 0.167 899.244 o
6 6 11 40.807 40.441 1.020 8.473 o
6 6 12 0.035 1.466 0.262 317.826 o
6 6 13 88.939 92.345 1.805 2.483 o
6 6 14 164.608 172.677 2.666 0.915 o
6 6 15 134.930 147.989 2.746 1.135 o
6 7 0 2.672 3.123 0.442 95.762 o
6 7 1 30.645 30.465 1.029 10.849 o
6 7 2 66.904 66.355 1.556 3.815 o
6 7 3 27.417 27.612 0.870 13.649 o
6 7 4 26.598 26.832 0.678 16.673 o
6 7 5 117.129 118.628 1.769 1.790 o
6 7 6 6.330 7.295 0.433 68.216 o
6 7 7 28.539 28.587 0.760 14.540 o
6 7 8 296.534 303.978 3.097 0.363 o
6 7 9 0.066 -0.056 0.173 836.434 o
6 7 10 87.684 92.453 1.587 2.702 o
6 7 11 0.619 0.295 0.169 625.831 o
6 7 12 111.174 113.156 1.998 1.801 o
6 7 13 7.794 7.875 0.550 48.486 o
6 7 14 91.107 94.174 2.021 2.244 o
6 7 15 3.284 3.151 0.555 65.455 o
6 8 0 1.193 0.876 0.408 133.302 o
6 8 1 4.450 4.961 0.475 73.235 o
6 8 2 36.661 35.840 1.124 8.710 o
6 8 3 3.228 3.360 0.246 174.967 o
6 8 4 294.184 302.398 4.744 0.310 o
6 8 5 4.720 4.776 0.330 107.743 o
6 8 6 43.600 45.237 1.117 7.337 o
6 8 7 73.955 77.300 1.726 3.131 o
6 8 8 11.307 11.471 0.529 40.433 o
6 8 9 56.567 58.395 1.223 5.280 o
6 8 10 13.661 12.816 0.586 33.029 o
6 8 11 30.124 31.135 0.931 11.838 o
6 8 12 23.115 22.978 0.874 15.604 o
6 8 13 38.544 37.167 1.161 8.151 o
6 8 14 75.039 76.616 1.828 2.978 o
6 9 0 8.583 7.630 0.569 45.406 o
6 9 1 22.544 22.670 0.816 16.847 o
6 9 2 0.087 0.346 0.167 801.692 o
6 9 3 30.181 29.610 0.793 13.492 o
6 9 4 1.591 1.722 0.210 300.660 o
6 9 5 62.293 63.433 1.248 4.706 o
6 9 6 202.446 209.897 3.416 0.612 o
6 9 7 11.431 11.523 0.605 35.465 o
6 9 8 283.021 292.633 3.885 0.359 o
6 9 9 61.179 61.719 1.296 4.715 o
6 9 10 3.351 3.347 0.350 121.711 o
6 9 11 1.211 0.366 0.205 395.023 o
6 9 12 5.818 6.404 0.509 60.166 o
6 9 13 42.806 44.492 1.358 6.368 o
6 9 14 17.564 17.229 1.014 15.721 o
6 10 0 9.181 9.887 0.798 27.985 o
6 10 1 0.018 0.269 0.171 812.718 o
6 10 2 21.781 21.792 0.735 18.912 o
6 10 3 0.248 0.415 0.193 576.464 o
6 10 4 57.149 55.620 1.166 5.490 o
6 10 5 45.386 45.987 1.087 7.241 o
6 10 6 7.444 8.382 0.489 55.260 o
6 10 7 108.209 112.749 2.126 1.777 o
6 10 8 0.247 0.360 0.216 482.176 o
6 10 9 88.435 88.893 1.888 2.457 o
6 10 10 78.533 77.141 1.947 2.744 o
6 10 11 5.913 5.774 0.452 69.820 o
6 10 12 85.975 84.690 1.900 2.541 o
6 10 13 0.706 0.812 0.343 189.218 o
6 11 0 24.405 26.187 1.223 10.370 o
6 11 1 29.240 30.849 0.854 12.906 o
6 11 2 0.017 0.266 0.179 751.391 o
6 11 3 6.458 6.199 0.488 61.516 o
6 11 4 3.172 3.585 0.363 117.308 o
6 11 5 0.002 0.413 0.246 403.853 o
6 11 6 56.206 58.115 1.271 5.188 o
6 11 7 56.676 57.460 1.340 4.997 o
6 11 8 14.120 14.538 0.670 27.953 o
6 11 9 53.462 55.183 1.606 4.544 o
6 11 10 3.826 3.360 0.418 94.563 o
6 11 11 11.340 10.126 0.635 34.673 o
6 11 12 5.133 4.657 0.546 59.217 o
6 12 1 0.801 0.351 0.378 162.453 o
6 12 2 178.506 198.846 3.398 0.699 o
6 12 3 9.767 10.550 0.708 31.907 o
6 12 4 0.899 0.839 0.282 253.682 o
6 12 5 0.012 -0.004 0.222 520.639 o
6 12 6 12.295 12.320 0.630 32.588 o
6 12 7 0.427 0.111 0.214 479.324 o
6 12 8 54.974 56.945 1.471 4.770 o
6 12 9 27.810 29.895 1.080 10.933 o
6 12 10 77.920 83.222 2.104 2.520 o
6 12 11 9.714 7.958 1.756 7.689 o
6 13 6 5.656 5.218 0.659 43.930 o
6 13 7 6.175 3.451 1.139 17.883 o
7 -7 0 2.592 2.278 0.521 76.754 o
7 -7 1 30.178 31.574 1.863 5.387 o
7 -7 2 16.955 17.833 1.831 6.527 o
7 -7 3 0.152 0.201 0.474 113.122 o
7 -6 0 0.470 -0.107 0.350 197.997 o
7 -6 1 25.138 25.794 1.266 9.867 o
7 -6 2 12.001 11.953 0.790 25.665 o
7 -6 3 18.632 17.720 1.146 13.121 o
7 -6 4 23.654 23.113 1.320 9.725 o
7 -6 5 0.518 0.629 0.452 118.557 o
7 -5 0 5.691 6.225 0.671 41.975 o
7 -5 1 0.159 0.310 0.285 299.073 o
7 -5 2 20.902 20.594 0.997 14.589 o
7 -5 3 89.441 95.339 2.413 1.964 o
7 -5 4 47.951 53.006 2.218 3.382 o
7 -5 5 38.486 40.681 2.155 3.946 o
7 -5 6 1.478 1.002 0.565 73.215 o
7 -5 7 0.791 0.772 0.695 51.434 o
7 -4 0 0.052 0.364 0.277 321.570 o
7 -4 1 48.101 51.498 2.477 2.928 o
7 -4 2 34.083 35.824 2.305 3.745 o
7 -4 3 30.170 30.993 1.412 7.807 o
7 -4 4 41.507 45.323 1.969 4.274 o
7 -4 5 14.373 16.229 1.198 13.303 o
7 -4 6 3.425 5.046 0.847 31.340 o
7 -4 7 76.578 76.197 6.135 0.600 o
7 -4 8 51.513 59.694 2.862 2.283 o
7 -3 0 48.640 50.594 1.678 4.691 o
7 -3 1 85.208 88.461 2.838 1.757 o
7 -3 2 55.913 57.403 1.755 4.033 o
7 -3 3 129.679 131.432 3.363 1.040 o
7 -3 4 10.314 10.275 0.787 27.525 o
7 -3 5 50.063 50.171 2.873 2.345 o
7 -3 6 15.479 15.871 1.398 10.388 o
7 -3 7 98.766 104.230 4.152 0.999 o
7 -3 8 24.348 25.670 1.812 6.055 o
7 -3 9 26.414 30.502 2.849 2.788 o
7 -3 10 0.008 0.259 0.447 128.024 o
7 -2 0 5.370 5.297 0.440 75.332 o
7 -2 1 185.323 189.651 4.023 0.616 o
7 -2 2 161.390 160.983 3.826 0.751 o
7 -2 3 16.167 15.180 0.817 21.333 o
7 -2 4 23.195 21.576 0.983 14.061 o
7 -2 5 12.749 12.201 1.148 14.983 o
7 -2 6 9.709 9.550 0.877 24.270 o
7 -2 7 7.679 7.640 0.807 29.482 o
7 -2 8 4.816 4.533 0.765 36.144 o
7 -2 9 27.189 28.052 1.619 6.873 o
7 -2 10 17.152 16.560 1.284 11.531 o
7 -2 11 0.369 -0.028 0.706 51.236 o
7 -1 0 14.662 14.190 0.764 24.156 o
7 -1 1 515.338 541.742 14.653 0.065 o
7 -1 2 66.238 66.270 1.708 3.580 o
7 -1 3 148.896 144.302 2.924 1.018 o
7 -1 4 31.511 30.242 1.219 9.093 o
7 -1 5 2.101 2.091 0.515 80.803 o
7 -1 6 1.597 1.644 0.311 187.150 o
7 -1 7 0.817 1.207 0.302 224.260 o
7 -1 8 7.381 7.555 0.739 33.872 o
7 -1 9 58.901 60.926 2.752 2.307 o
7 -1 10 4.572 4.831 0.737 38.487 o
7 -1 11 0.710 1.137 0.461 110.519 o
7 0 0 122.979 132.530 5.153 0.657 o
7 0 1 175.505 185.714 10.111 0.205 o
7 0 2 2.824 3.567 0.409 103.739 o
7 0 3 192.328 184.350 3.465 0.671 o
7 0 4 9.609 9.092 0.698 33.402 o
7 0 5 82.281 77.842 2.391 2.213 o
7 0 6 3.342 2.619 0.380 113.807 o
7 0 7 14.222 13.561 0.816 22.852 o
7 0 8 11.634 9.747 1.191 14.655 o
7 0 9 0.039 0.090 0.332 232.157 o
7 0 10 50.760 51.985 2.251 3.262 o
7 0 11 31.534 32.872 1.856 5.320 o
7 0 12 0.008 -0.136 0.491 107.252 o
7 1 0 21.332 22.119 0.805 17.656 o
7 1 1 10.434 10.294 0.799 26.894 o
7 1 2 133.558 128.654 3.968 0.874 o
7 1 3 132.035 127.460 3.029 1.136 o
7 1 4 215.002 211.711 5.252 0.426 o
7 1 5 5.912 5.831 0.514 60.040 o
7 1 6 2.171 2.539 0.389 122.451 o
7 1 7 69.274 67.553 2.047 2.952 o
7 1 8 0.113 -0.013 0.276 330.938 o
7 1 9 41.625 41.946 2.065 4.067 o
7 1 10 4.972 5.357 0.832 30.993 o
7 1 11 3.622 3.010 0.685 46.091 o
7 1 12 31.202 31.445 1.819 5.525 o
7 2 0 6.953 6.393 0.508 57.042 o
7 2 1 32.926 32.318 1.405 7.528 o
7 2 2 8.416 8.605 0.620 40.574 o
7 2 3 133.538 130.233 2.966 1.137 o
7 2 4 0.240 0.625 0.236 397.776 o
7 2 5 155.053 157.807 4.036 0.740 o
7 2 6 330.564 337.769 13.367 0.102 o
7 2 7 43.055 44.808 1.626 5.299 o
7 2 8 13.577 13.673 0.925 19.810 o
7 2 9 2.311 1.845 0.446 101.454 o
7 2 10 25.525 28.169 1.593 7.150 o
7 2 11 0.832 0.524 0.377 161.368 o
7 2 12 3.692 3.292 0.733 40.864 o
7 2 13 7.787 6.593 1.118 17.627 o
7 3 0 82.522 81.387 2.701 1.925 o
7 3 1 2.284 2.369 0.384 124.285 o
7 3 2 57.298 57.680 2.646 2.479 o
7 3 3 3.371 3.708 0.495 76.416 o
7 3 4 215.949 208.688 3.697 0.554 o
7 3 5 141.604 141.117 3.275 0.980 o
7 3 6 44.441 43.770 1.455 5.879 o
7 3 7 153.100 166.132 6.342 0.437 o
7 3 8 2.464 2.794 0.453 94.619 o
7 3 9 13.289 14.061 0.977 18.460 o
7 3 10 23.938 22.674 1.417 8.837 o
7 3 11 17.614 15.660 1.196 12.759 o
7 3 12 21.191 21.718 1.708 6.943 o
7 3 13 40.201 40.476 2.408 3.320 o
7 3 14 2.331 1.956 1.067 21.603 o
7 4 0 3.131 2.981 0.432 96.371 o
7 4 1 73.831 75.170 2.052 2.750 o
7 4 2 7.799 8.476 0.720 34.190 o
7 4 3 214.485 216.007 6.257 0.356 o
7 4 4 55.737 54.160 2.103 3.383 o
7 4 5 23.966 23.912 1.117 11.816 o
7 4 6 221.509 230.894 10.725 0.171 o
7 4 7 4.952 4.726 0.609 51.137 o
7 4 8 11.619 12.163 0.987 19.149 o
7 4 9 7.712 7.756 0.834 27.991 o
7 4 10 0.151 0.111 0.303 270.518 o
7 4 11 30.515 30.341 1.633 6.491 o
7 4 12 2.341 1.254 0.366 139.519 o
7 4 13 0.018 0.170 0.468 117.228 o
7 5 0 155.443 157.002 3.207 0.894 o
7 5 1 33.895 33.874 1.240 8.413 o
7 5 2 158.908 163.350 4.946 0.587 o
7 5 3 50.268 53.153 1.993 3.783 o
7 5 4 106.382 109.268 3.411 1.214 o
7 5 5 89.278 90.876 2.557 1.893 o
7 5 6 36.516 36.768 1.482 6.605 o
7 5 7 23.200 22.493 1.160 11.574 o
7 5 8 3.804 3.961 0.645 49.657 o
7 5 9 0.197 0.308 0.273 322.200 o
7 5 10 21.198 21.810 1.415 9.199 o
7 5 11 18.348 19.413 1.433 9.468 o
7 5 12 0.035 -0.000 0.365 193.127 o
7 5 13 40.758 40.574 2.379 3.368 o
7 6 0 6.753 6.089 0.597 47.510 o
7 6 1 28.529 27.596 1.103 10.782 o
7 6 2 15.061 14.731 0.748 24.276 o
7 6 3 216.907 226.782 8.909 0.226 o
7 6 4 56.027 56.425 1.717 4.135 o
7 6 5 103.498 105.493 2.876 1.482 o
7 6 6 34.060 35.181 1.551 6.500 o
7 6 7 33.493 34.055 1.449 7.139 o
7 6 8 4.230 4.388 0.553 61.143 o
7 6 9 54.763 53.986 2.538 2.694 o
7 6 10 6.566 5.284 0.628 45.422 o
7 6 11 34.838 36.963 1.891 4.950 o
7 6 12 58.691 62.312 3.055 1.989 o
7 6 13 11.282 11.574 1.098 16.496 o
7 6 14 4.043 3.590 1.462 11.526 o
7 7 0 4.789 6.896 0.592 51.214 o
7 7 1 5.172 5.026 0.540 59.573 o
7 7 2 11.123 10.858 0.759 28.019 o
7 7 3 100.963 101.209 2.838 1.543 o
7 7 4 16.058 16.130 0.883 19.375 o
7 7 5 229.327 247.395 7.297 0.279 o
7 7 6 52.238 55.649 1.718 4.306 o
7 7 7 2.939 4.426 0.569 62.200 o
7 7 8 12.998 14.646 0.997 17.943 o
7 7 9 93.755 97.408 3.714 1.195 o
7 7 10 51.883 50.933 1.943 3.878 o
7 7 11 86.323 86.752 3.923 1.171 o
7 7 12 1.679 1.832 0.458 101.714 o
7 7 13 44.279 45.333 2.217 3.576 o
7 8 0 17.886 18.095 0.944 16.877 o
7 8 1 0.491 0.998 0.394 150.577 o
7 8 2 11.248 11.281 0.756 27.887 o
7 8 3 11.435 11.623 0.838 24.222 o
7 8 4 59.858 62.055 1.955 3.424 o
7 8 5 98.332 100.878 2.352 1.851 o
7 8 6 4.235 4.146 0.499 71.018 o
7 8 7 80.585 82.993 2.622 2.002 o
7 8 8 152.204 160.391 5.762 0.501 o
7 8 9 237.917 251.536 9.346 0.200 o
7 8 10 8.209 7.625 0.759 31.797 o
7 8 11 0.608 0.303 0.398 150.885 o
7 8 12 9.255 10.336 1.050 18.497 o
7 8 13 28.635 32.701 1.904 5.262 o
7 9 0 11.943 12.422 0.761 26.706 o
7 9 1 18.196 19.300 1.113 13.554 o
7 9 2 53.955 58.103 2.376 2.912 o
7 9 3 14.002 14.163 1.056 16.342 o
7 9 4 51.503 55.272 1.725 4.330 o
7 9 5 34.107 32.533 1.443 7.187 o
7 9 6 165.982 177.622 7.949 0.304 o
7 9 7 4.212 4.699 0.670 45.458 o
7 9 8 77.971 81.331 2.839 1.871 o
7 9 9 1.573 1.757 0.360 150.673 o
7 9 10 22.095 23.491 1.361 9.509 o
7 9 11 8.064 8.488 0.843 27.101 o
7 9 12 28.836 30.433 1.805 5.734 o
7 10 0 12.412 9.923 1.314 12.334 o
7 10 1 0.921 1.404 0.363 162.088 o
7 10 2 3.889 2.984 0.612 54.875 o
7 10 3 87.137 96.876 3.444 1.356 o
7 10 4 0.015 -0.387 0.375 183.290 o
7 10 5 64.212 64.809 2.064 3.087 o
7 10 6 2.258 2.159 0.397 119.904 o
7 10 7 136.707 144.208 3.579 0.922 o
7 10 8 105.011 108.730 2.963 1.415 o
7 10 9 11.966 12.283 0.964 19.650 o
7 10 10 1.237 1.264 0.439 114.999 o
7 10 11 0.649 1.116 0.441 120.223 o
7 11 3 103.645 125.218 5.069 0.720 o
7 11 4 0.023 -0.337 0.345 216.974 o
7 11 5 0.685 1.155 0.474 104.985 o
7 11 6 16.256 15.729 1.079 15.036 o
7 11 7 39.850 39.588 1.702 5.338 o
7 11 8 0.157 0.166 0.326 234.978 o
7 11 9 41.287 45.003 1.915 4.442 o
7 11 10 23.860 19.309 2.381 3.959 o
7 12 5 18.830 18.217 2.679 3.293 o
7 12 6 48.616 50.733 4.618 1.075 o
7 12 7 14.565 19.834 2.679 3.338 o
7 12 8 25.962 18.873 2.612 3.337 o
8 -5 0 20.526 17.875 1.859 6.189 o
8 -5 1 1.308 1.753 0.706 48.257 o
8 -5 2 9.990 11.268 1.504 9.989 o
8 -5 3 0.235 -0.233 0.650 60.552 o
8 -4 0 0.170 0.260 0.409 149.985 o
8 -4 1 5.853 4.637 0.667 43.270 o
8 -4 2 13.072 12.020 1.076 16.445 o
8 -4 3 7.402 7.446 0.751 33.083 o
8 -4 4 0.010 0.471 0.425 139.842 o
8 -4 5 5.742 5.622 1.124 18.158 o
8 -4 6 2.446 1.106 0.834 34.601 o
8 -3 0 19.552 20.684 1.519 8.496 o
8 -3 1 3.731 2.556 0.796 35.766 o
8 -3 2 7.298 6.570 0.810 30.036 o
8 -3 3 0.391 0.310 0.294 270.147 o
8 -3 4 14.341 13.343 1.394 10.734 o
8 -3 5 2.774 2.531 0.834 33.738 o
8 -3 6 33.696 36.239 2.794 2.753 o
8 -3 7 3.976 2.856 1.362 13.245 o
8 -2 0 0.831 0.869 0.468 107.539 o
8 -2 1 58.041 56.622 2.538 2.616 o
8 -2 2 165.608 174.979 4.797 0.581 o
8 -2 3 0.823 0.797 0.366 167.000 o
8 -2 4 3.352 3.089 0.626 53.969 o
8 -2 5 8.902 7.231 0.941 22.791 o
8 -2 6 3.051 2.498 0.667 49.678 o
8 -2 7 0.813 0.900 0.418 131.801 o
8 -2 8 15.986 16.115 1.534 8.891 o
8 -1 0 7.173 6.488 0.498 57.629 o
8 -1 1 62.191 60.225 1.522 4.212 o
8 -1 2 39.528 40.538 1.627 5.623 o
8 -1 3 0.601 0.724 0.479 105.274 o
8 -1 4 16.848 16.104 1.151 13.583 o
8 -1 5 35.707 35.598 1.783 5.346 o
8 -1 6 7.408 7.164 0.830 28.624 o
8 -1 7 4.514 6.138 0.800 33.077 o
8 -1 8 0.105 -0.072 0.417 147.106 o
8 -1 9 13.371 15.964 1.295 12.012 o
8 -1 10 34.075 29.337 3.534 1.854 o
8 0 0 14.123 15.504 1.094 15.318 o
8 0 1 9.494 9.755 0.698 33.148 o
8 0 2 24.349 22.294 1.562 7.682 o
8 0 3 21.619 21.269 1.288 10.458 o
8 0 4 0.646 0.292 0.445 122.219 o
8 0 5 23.323 23.397 1.237 10.602 o
8 0 6 6.417 6.044 0.646 43.301 o
8 0 7 41.077 42.980 2.351 3.393 o
8 0 8 15.498 14.668 1.416 10.247 o
8 0 9 25.182 28.034 1.690 6.596 o
8 0 10 6.389 6.475 0.898 26.110 o
8 1 0 1.891 1.535 0.340 160.237 o
8 1 1 6.854 6.805 0.615 44.893 o
8 1 2 12.311 11.348 0.831 24.077 o
8 1 3 12.527 12.560 0.991 18.615 o
8 1 4 0.811 1.233 0.440 118.764 o
8 1 5 5.561 5.511 0.582 52.295 o
8 1 6 11.297 9.619 0.803 26.364 o
8 1 7 19.181 16.656 1.363 10.277 o
8 1 8 14.599 13.769 1.142 14.506 o
8 1 9 3.993 3.007 0.742 39.802 o
8 1 10 167.078 175.915 6.017 0.446 o
8 1 11 0.155 0.539 0.593 71.939 o
8 2 0 41.475 40.704 1.718 5.166 o
8 2 1 20.406 21.176 1.131 12.609 o
8 2 2 0.005 0.137 0.277 330.619 o
8 2 3 0.796 0.371 0.411 139.174 o
8 2 4 60.754 62.450 3.352 1.719 o
8 2 5 7.524 7.449 0.690 37.155 o
8 2 6 1.701 0.984 0.371 147.478 o
8 2 7 11.386 11.207 0.980 19.601 o
8 2 8 52.218 54.019 1.964 3.770 o
8 2 9 74.812 76.270 3.911 1.254 o
8 2 10 0.016 0.778 0.644 61.234 o
8 2 11 13.297 13.698 1.214 13.490 o
8 3 0 13.391 13.760 0.818 23.211 o
8 3 1 0.544 0.436 0.294 260.807 o
8 3 2 15.280 15.821 1.190 13.305 o
8 3 3 60.083 65.775 2.342 2.763 o
8 3 4 28.243 30.769 2.126 4.494 o
8 3 5 10.330 10.248 1.095 17.011 o
8 3 6 13.182 12.502 1.014 17.812 o
8 3 7 15.185 14.541 1.149 14.150 o
8 3 8 54.505 55.612 2.261 3.115 o
8 3 9 7.145 9.023 0.769 31.516 o
8 3 10 87.662 90.785 4.394 0.983 o
8 3 11 56.908 63.971 2.664 2.416 o
8 3 12 2.752 2.590 0.875 30.909 o
8 4 0 19.097 19.683 0.989 15.370 o
8 4 1 39.424 40.527 1.834 4.867 o
8 4 2 2.573 1.978 0.567 67.330 o
8 4 3 1.317 1.493 0.725 46.098 o
8 4 4 94.688 118.306 4.796 0.809 o
8 4 5 0.845 1.123 1.014 24.551 o
8 4 6 1.355 0.614 0.459 108.316 o
8 4 7 26.511 27.303 1.955 5.254 o
8 4 8 18.452 17.722 1.562 8.362 o
8 4 9 28.679 29.457 1.661 6.491 o
8 4 10 36.043 38.259 3.443 1.902 o
8 4 11 2.902 2.477 0.742 41.498 o
8 4 12 46.519 54.217 2.898 2.333 o
8 5 0 7.822 7.652 0.768 31.583 o
8 5 1 38.659 42.414 2.400 3.350 o
8 5 2 13.549 11.332 0.986 18.610 o
8 5 3 27.675 31.768 2.517 3.414 o
8 5 4 25.533 24.653 1.687 6.703 o
8 5 5 3.063 3.645 0.831 33.226 o
8 5 6 44.407 46.957 3.249 2.000 o
8 5 7 23.469 24.482 1.554 7.722 o
8 5 8 54.920 57.405 2.300 3.020 o
8 5 9 1.744 2.211 0.529 78.639 o
8 5 10 13.302 13.455 1.171 14.280 o
8 5 11 66.073 67.981 3.150 1.810 o
8 5 12 9.384 8.784 1.004 20.079 o
8 6 0 84.802 88.293 2.798 1.789 o
8 6 1 2.709 3.223 0.661 50.327 o
8 6 2 14.850 14.662 1.316 11.591 o
8 6 3 5.831 4.474 0.628 47.425 o
8 6 4 35.768 32.179 1.936 4.850 o
8 6 5 12.532 11.579 1.170 14.666 o
8 6 6 3.221 4.420 0.759 38.372 o
8 6 7 18.899 17.920 1.111 13.579 o
8 6 8 5.954 5.939 0.761 34.595 o
8 6 9 131.278 133.922 4.413 0.775 o
8 6 10 145.993 168.359 5.006 0.599 o
8 6 11 4.923 5.028 0.756 36.487 o
8 6 12 101.511 112.016 4.185 0.964 o
8 7 0 3.735 2.451 0.454 87.760 o
8 7 1 35.823 33.796 1.990 4.633 o
8 7 2 0.076 -0.569 0.507 100.040 o
8 7 3 0.104 0.035 0.359 197.695 o
8 7 4 0.013 0.205 0.345 213.541 o
8 7 5 4.074 4.775 0.727 39.994 o
8 7 6 17.316 16.912 1.247 11.970 o
8 7 7 34.781 36.393 1.466 6.840 o
8 7 8 30.267 28.790 1.944 5.113 o
8 7 9 143.730 154.539 9.460 0.243 o
8 7 10 9.402 8.978 0.867 25.011 o
8 7 11 40.866 40.880 2.431 3.256 o
8 7 12 21.332 23.963 3.218 2.306 o
8 8 0 18.402 19.320 1.302 10.909 o
8 8 1 13.208 14.001 1.117 15.289 o
8 8 2 8.654 9.734 1.094 17.599 o
8 8 3 2.967 2.661 0.567 65.124 o
8 8 4 0.593 1.676 0.396 143.013 o
8 8 5 18.716 18.927 1.254 11.474 o
8 8 6 6.321 5.508 0.642 44.231 o
8 8 7 1.221 1.273 0.303 209.426 o
8 8 8 15.156 15.630 1.001 16.978 o
8 8 9 18.502 18.736 1.230 11.840 o
8 8 10 15.975 14.275 1.083 15.225 o
8 8 11 34.111 34.609 2.138 4.216 o
8 9 1 13.193 12.122 1.166 14.551 o
8 9 2 40.150 38.758 1.836 4.868 o
8 9 3 71.965 76.232 2.653 2.132 o
8 9 4 44.770 46.118 1.824 4.545 o
8 9 5 41.201 40.066 1.725 5.172 o
8 9 6 6.686 6.849 0.802 30.852 o
8 9 7 42.857 44.570 1.825 4.658 o
8 9 8 0.010 -0.142 0.318 255.480 o
8 9 9 33.945 34.652 1.530 6.633 o
8 9 10 0.993 1.320 0.519 86.801 o
8 9 11 9.537 7.747 1.817 7.234 o
8 10 3 100.963 102.922 6.230 0.543 o
8 10 4 3.213 2.807 0.616 55.967 o
8 10 5 1.768 2.445 0.494 87.422 o
8 10 6 5.751 6.878 0.734 36.224 o
8 10 7 15.788 16.358 1.119 14.343 o
8 10 8 10.392 9.862 1.001 19.604 o
8 10 9 8.065 7.236 1.016 20.490 o
9 -2 1 68.972 68.411 5.357 0.777 o
9 -2 4 9.718 11.826 2.251 4.794 o
9 -1 0 94.060 90.858 3.679 1.225 o
9 -1 1 10.239 9.745 1.153 15.746 o
9 -1 2 56.335 48.798 2.475 2.804 o
9 -1 3 27.152 26.131 1.588 7.136 o
9 -1 4 0.038 0.103 0.373 183.402 o
9 -1 5 9.882 12.030 1.333 12.260 o
9 0 0 1.013 1.448 0.424 123.472 o
9 0 1 41.116 37.229 1.855 4.798 o
9 0 2 80.246 82.992 2.526 2.086 o
9 0 3 2.886 3.493 0.573 62.985 o
9 0 4 10.138 10.848 1.018 19.018 o
9 0 5 0.132 0.128 0.415 146.918 o
9 0 6 10.181 13.221 1.872 6.700 o
9 0 7 0.023 0.054 0.614 68.387 o
9 1 0 52.389 46.635 2.363 3.085 o
9 1 1 8.714 8.757 1.042 19.182 o
9 1 2 8.674 9.241 0.816 27.701 o
9 1 3 35.447 35.960 2.384 3.524 o
9 1 4 19.016 18.827 2.426 3.932 o
9 1 5 11.592 10.989 1.022 18.392 o
9 1 6 2.824 3.349 0.533 70.991 o
9 1 7 3.202 2.994 0.944 26.540 o
9 1 8 11.732 8.453 1.923 6.413 o
9 2 0 0.399 1.006 0.474 107.955 o
9 2 1 5.613 4.842 0.867 28.674 o
9 2 2 28.329 28.738 1.615 6.797 o
9 2 3 3.158 3.674 0.604 56.904 o
9 2 4 7.988 7.882 1.356 12.459 o
9 2 5 105.504 105.906 5.355 0.679 o
9 2 6 0.348 -0.306 0.537 87.987 o
9 2 7 8.039 8.247 1.056 19.078 o
9 2 8 2.669 3.955 0.703 44.830 o
9 2 9 49.447 52.328 4.874 0.973 o
9 3 0 0.003 0.335 0.364 190.640 o
9 3 1 3.774 3.755 0.953 25.595 o
9 3 2 4.562 5.185 0.728 39.027 o
9 3 3 8.113 12.007 1.144 16.201 o
9 3 4 159.555 159.739 5.385 0.534 o
9 3 5 15.395 16.311 1.758 7.121 o
9 3 6 38.618 43.061 2.906 2.482 o
9 3 7 4.619 5.467 0.881 28.337 o
9 3 8 10.986 10.323 1.037 18.302 o
9 3 9 0.051 1.139 0.731 47.427 o
9 4 0 17.114 14.182 2.178 4.873 o
9 4 1 7.457 7.270 0.717 35.402 o
9 4 2 17.622 17.088 1.272 11.572 o
9 4 3 33.074 36.515 2.157 4.161 o
9 4 4 3.472 3.762 0.771 37.458 o
9 4 5 41.757 43.947 2.419 3.230 o
9 4 6 51.912 55.408 4.802 0.991 o
9 4 7 4.311 4.442 1.198 16.633 o
9 4 8 77.575 80.929 4.174 1.117 o
9 4 9 143.377 134.971 14.599 0.113 o
9 4 10 0.688 0.322 0.911 30.581 o
9 5 1 19.737 20.284 1.366 9.939 o
9 5 2 73.993 77.030 3.418 1.524 o
9 5 3 12.883 15.444 1.235 13.060 o
9 5 4 71.221 77.095 3.274 1.638 o
9 5 5 10.748 11.045 1.260 13.416 o
9 5 6 19.056 17.881 1.872 6.186 o
9 5 7 15.007 15.859 2.479 3.878 o
9 5 8 48.663 48.155 3.241 1.968 o
9 5 9 17.248 17.244 1.545 8.627 o
9 6 2 17.898 17.716 1.565 8.383 o
9 6 3 68.021 74.544 3.428 1.568 o
9 6 4 19.413 20.077 2.086 5.097 o
9 6 5 7.212 6.710 1.586 9.503 o
9 6 6 16.155 19.840 1.657 7.694 o
9 6 7 0.279 0.932 0.558 79.665 o
9 6 8 10.496 10.635 2.279 4.681 o
9 6 9 1.340 2.045 0.750 42.868 o
9 6 10 42.625 57.369 4.896 0.974 o
9 7 4 16.938 17.808 1.572 8.398 o
9 7 5 23.516 21.866 2.141 4.721 o
9 7 6 0.577 0.972 0.410 138.767 o
9 7 7 0.331 -0.604 0.504 99.393 o
9 7 9 2.751 2.567 1.089 20.549 o
;
_olex2_date_sample_data_collection 2021-11-01
_olex2_submission_special_instructions 'No special instructions were received'
_oxdiff_exptl_absorpt_empirical_details
;
Empirical correction (ABSPACK) includes:
- Absorption correction using spherical harmonics
- Frame scaling
;
_oxdiff_exptl_absorpt_empirical_full_max 1.242
_oxdiff_exptl_absorpt_empirical_full_min 0.866
loop_
_space_group_symop_id
_space_group_symop_operation_xyz
1 x,y,z
2 -x,-y,-z
loop_
_atom_site_label
_atom_site_type_symbol
_atom_site_fract_x
_atom_site_fract_y
_atom_site_fract_z
_atom_site_U_iso_or_equiv
_atom_site_adp_type
_atom_site_occupancy
_atom_site_refinement_flags_posn
S1 S 0.63943(2) 0.802299(14) 0.806192(12) 0.01440(3) Uani 1.000000 .
F1 F 0.20096(7) 0.89667(4) 0.93622(4) 0.02144(7) Uani 1.000000 .
F2 F 0.27704(7) 0.63395(4) 0.95449(4) 0.02215(7) Uani 1.000000 .
F3 F 0.22665(6) 0.81628(4) 0.74374(4) 0.02088(7) Uani 1.000000 .
O1 O 0.74439(7) 0.65265(4) 0.73797(4) 0.01414(6) Uani 1.000000 .
O2 O 0.66617(8) 0.95922(5) 0.69522(5) 0.02122(8) Uani 1.000000 .
O3 O 0.71879(8) 0.75636(6) 0.94163(4) 0.02384(9) Uani 1.000000 .
C1 C 0.77408(9) 0.67409(6) 0.58210(5) 0.01272(7) Uani 1.000000 .
C2 C 0.94404(9) 0.76620(6) 0.47800(5) 0.01444(8) Uani 1.000000 .
H2 H 1.0544(17) 0.8262(13) 0.5108(10) 0.031(2) Uani 1.000000 .
C3 C 0.97626(9) 0.78063(6) 0.32323(5) 0.01524(8) Uani 1.000000 .
H3 H 1.1088(17) 0.8550(12) 0.2409(10) 0.033(2) Uani 1.000000 .
C4 C 0.83977(9) 0.70336(6) 0.28001(5) 0.01463(8) Uani 1.000000 .
H4 H 0.8554(18) 0.7155(12) 0.1629(10) 0.034(2) Uani 1.000000 .
C5 C 0.66586(9) 0.60270(5) 0.38928(5) 0.01262(7) Uani 1.000000 .
C6 C 0.63096(9) 0.58532(5) 0.54609(5) 0.01220(7) Uani 1.000000 .
C7 C 0.53280(9) 0.51770(6) 0.34625(5) 0.01323(8) Uani 1.000000 .
H7 H 0.5597(18) 0.5338(12) 0.2273(9) 0.029(2) Uani 1.000000 .
C8 C 0.31324(9) 0.78550(6) 0.86391(5) 0.01541(8) Uani 1.000000 .
loop_
_atom_site_aniso_label
_atom_site_aniso_U_11
_atom_site_aniso_U_22
_atom_site_aniso_U_33
_atom_site_aniso_U_12
_atom_site_aniso_U_13
_atom_site_aniso_U_23
S1 0.01480(6) 0.01923(5) 0.01259(5) -0.00439(4) -0.00167(4) -0.00894(4)
F1 0.02132(17) 0.02281(14) 0.01922(14) -0.00030(12) 0.00083(12) -0.01136(11)
F2 0.02095(17) 0.01945(13) 0.02149(14) -0.00508(12) 0.00139(12) -0.00418(11)
F3 0.01720(15) 0.02806(16) 0.02031(14) -0.00160(12) -0.00601(12) -0.01047(12)
O1 0.01611(16) 0.01706(14) 0.01096(12) -0.00249(12) -0.00307(11) -0.00623(10)
O2 0.0248(2) 0.01777(15) 0.02120(16) -0.00805(14) 0.00231(14) -0.00903(13)
O3 0.0225(2) 0.0388(2) 0.01793(16) -0.00333(17) -0.00681(14) -0.01685(16)
C1 0.01388(19) 0.01499(16) 0.01076(15) -0.00278(14) -0.00199(14) -0.00589(12)
C2 0.0152(2) 0.01774(17) 0.01214(16) -0.00473(15) -0.00181(14) -0.00618(13)
H2 0.027(6) 0.049(6) 0.026(5) -0.016(5) -0.005(4) -0.017(5)
C3 0.0167(2) 0.01835(18) 0.01178(16) -0.00601(15) -0.00112(15) -0.00540(14)
H3 0.037(6) 0.043(6) 0.026(5) -0.022(5) 0.001(4) -0.016(5)
C4 0.0175(2) 0.01742(17) 0.01004(15) -0.00549(15) -0.00117(14) -0.00517(13)
H4 0.043(7) 0.043(6) 0.020(5) -0.017(5) -0.005(4) -0.011(4)
C5 0.0151(2) 0.01425(16) 0.00963(15) -0.00327(14) -0.00155(14) -0.00523(12)
C6 0.01430(19) 0.01399(16) 0.00962(15) -0.00276(14) -0.00191(14) -0.00535(12)
C7 0.0163(2) 0.01542(17) 0.00961(15) -0.00415(14) -0.00170(14) -0.00559(12)
H7 0.035(6) 0.038(6) 0.017(4) -0.009(4) -0.006(4) -0.010(4)
C8 0.0145(2) 0.01764(18) 0.01400(17) -0.00238(15) -0.00091(15) -0.00644(14)
loop_
_atom_type_symbol
_atom_type_scat_dispersion_real
_atom_type_scat_dispersion_imag
_atom_type_scat_source
_atom_type_scat_dispersion_source
C 0.00210 0.00160 'NoSpherA2: Chem.Sci. 2021, DOI:10.1039/D0SC05526C' custom
F 0.01360 0.01030 'NoSpherA2: Chem.Sci. 2021, DOI:10.1039/D0SC05526C' custom
H 0.00000 0.00000 'NoSpherA2: Chem.Sci. 2021, DOI:10.1039/D0SC05526C' custom
O 0.00790 0.00610 'NoSpherA2: Chem.Sci. 2021, DOI:10.1039/D0SC05526C' custom
S 0.11100 0.12400 'NoSpherA2: Chem.Sci. 2021, DOI:10.1039/D0SC05526C' custom
loop_
_diffrn_refln_index_h
_diffrn_refln_index_k
_diffrn_refln_index_l
_diffrn_refln_intensity_net
_diffrn_refln_intensity_u
0 0 -1 5.4 0.34
0 0 -2 1140.99 24.99
0 0 2 1138.32 24.9
0 0 2 1128.42 24.79
0 0 2 1098.31 24.78
0 0 2 1125.26 24.79
0 0 2 1105.1 24.8
0 0 -2 1060.59 24.12
0 0 -2 1087.52 24.32
0 0 2 1071 24.59
0 0 -2 1133.11 24.88
0 0 -2 1124.45 24.82
0 0 -2 1122.76 24.81
0 0 -2 1098.56 24.78
0 0 2 1124.76 25.13
0 0 -2 1104.98 24.69
0 0 2 1085.28 25.1
0 0 3 531.7 12.91
0 0 -3 521.12 12.98
0 0 3 533.99 12.77
0 0 3 524.32 12.74
0 0 3 530.12 12.74
0 0 3 520.48 12.76
0 0 -3 507.71 12.08
0 0 3 492.58 12.43
0 0 -3 489.91 11.78
0 0 -3 509.38 12.69
0 0 -3 517.97 12.8
0 0 -3 507.03 12.74
0 0 3 535.02 13.27
0 0 -3 512.77 12.71
0 0 3 518.09 13.22
0 0 -3 504.54 12.58
0 0 3 478.7 11.34
0 0 -4 1277.33 29.83
0 0 4 1278.36 29.68
0 0 4 1293.36 29.5
0 0 4 1303.56 29.48
0 0 4 1289.22 29.45
0 0 4 1269.57 29.49
0 0 4 1235.08 29
0 0 -4 1188.43 28.05
0 0 -4 1228.26 28.53
0 0 -4 1258.18 29.53
0 0 -4 1260.84 29.44
0 0 4 1313.18 30.2
0 0 -4 1297.31 29.52
0 0 -4 1247.52 29.42
0 0 4 1253.12 30.12
0 0 -4 1248.67 29.27
0 0 4 1200.12 27.49
0 0 -5 68.7 3.8
0 0 5 74.76 3.85
0 0 5 75.98 3.77
0 0 5 68.75 3.61
0 0 5 72.05 3.71
0 0 5 75.43 3.78
0 0 -5 71.54 3.71
0 0 -5 70.75 3.68
0 0 -5 72.33 3.78
0 0 5 76.55 4.18
0 0 -5 69.07 3.51
0 0 5 71.79 3.33
0 0 -5 72.55 3.71
0 0 5 75.02 4.12
0 0 -5 65.56 2.74
0 0 5 71.61 3.42
0 0 -5 70.95 3.12
0 0 6 217.68 8.03
0 0 -6 220.95 8.2
0 0 -6 188.93 6.14
0 0 6 197.48 7.11
0 0 6 209.42 7.7
0 0 6 221.96 7.87
0 0 6 212.36 7.77
0 0 -6 212.79 7.77
0 0 -6 209.63 7.69
0 0 -6 203.46 7.61
0 0 6 213.54 8.4
0 0 -6 199.81 7.67
0 0 6 197.74 7.06
0 0 6 214.88 8.47
0 0 -6 209.6 7.57
0 0 -7 135.82 6.6
0 0 7 133.53 6.46
0 0 -7 122.83 4.69
0 0 7 122.54 5.53
0 0 7 133.98 6.26
0 0 7 145.9 6.51
0 0 7 136.68 6.34
0 0 -7 132.75 6.31
0 0 -7 127.62 6.15
0 0 -7 129.62 6.21
0 0 -7 132.03 6.19
0 0 7 133.44 5.67
0 0 7 142.25 7.08
0 0 -7 130.13 6.07
0 0 8 631.34 18.55
0 0 -8 614.83 18.69
0 0 -8 565.03 15.38
0 0 8 578.37 16.86
0 0 8 632.11 18.4
0 0 8 619.96 18.21
0 0 8 612.43 18.2
0 0 -8 611 18.1
0 0 -8 614.14 18.15
0 0 -8 595.27 18.09
0 0 8 544.8 16.63
0 0 -8 616.68 18.17
0 0 8 612.3 19.35
0 0 -8 608.97 17.89
0 0 -9 307.28 12.45
0 0 9 314.49 12.37
0 0 9 324.55 12.27
0 0 9 313.35 11.98
0 0 9 298.97 11.86
0 0 9 287.25 10.64
0 0 -9 308.96 11.92
0 0 -9 301.01 11.84
0 0 -9 311.92 11.96
0 0 -9 316.76 12.05
0 0 9 280.68 10.45
0 0 -9 310.56 11.69
0 0 9 314.53 13.14
0 0 -10 17.31 2.86
0 0 10 17.09 2.8
0 0 10 16.05 2.57
0 0 10 15.51 2.59
0 0 10 13.77 2.49
0 0 10 14.64 2.07
0 0 10 17.87 3.06
0 0 -10 15.83 2.67
0 0 -10 16.12 2.56
0 0 -10 16.73 2.65
0 0 -10 20.62 2.87
0 0 -10 17.99 2.76
0 0 -10 21.76 2.96
0 0 11 4.76 1.69
0 0 -11 5.24 1.8
0 0 11 7 1.9
0 0 11 7.37 2.29
0 0 11 7.03 2.03
0 0 11 6.7 1.57
0 0 11 6.3 2.1
0 0 -11 6.53 1.84
0 0 -11 8.33 2.16
0 0 -11 11.61 2.47
0 0 -11 7.44 2.08
0 0 -11 12.11 2.69
0 0 -11 9.92 2.15
0 0 -12 36.6 4.66
0 0 12 34.24 4.39
0 0 -12 32.54 4.27
0 0 12 28.38 3.9
0 0 12 27.97 3.92
0 0 12 32.36 4.21
0 0 -12 34.81 4.44
0 0 -12 36.27 4.35
0 0 -12 40.08 4.56
0 0 -12 34.42 4.48
0 0 -12 29.21 3.97
0 0 13 124.3 9.04
0 0 -13 120.01 9.04
0 0 -13 120.36 8.83
0 0 13 118.42 8.7
0 0 13 131.03 9.18
0 0 13 110.08 8.59
0 0 -13 119.81 8.64
0 0 -13 122.78 8.75
0 0 -13 129.55 8.98
0 0 -13 142.95 9.57
0 0 -13 132.37 8.98
0 0 14 15.01 3.52
0 0 -14 12.89 3.33
0 0 14 12.02 3.05
0 0 14 13 2.95
0 0 14 9.1 2.6
0 0 -14 12.61 2.93
0 0 -14 13.39 3.14
0 0 -14 10.45 2.74
0 0 -14 17.85 3.59
0 0 -14 15.65 3.7
0 0 -14 13.32 3.2
0 -1 14 66.55 6.98
0 1 -14 63.76 6.95
0 1 -14 66.55 6.79
0 -1 14 56.45 6.32
0 -1 14 58.68 6.33
0 -1 14 57.61 6.52
0 1 -14 62.55 6.61
0 1 -14 68.37 6.74
0 1 -14 66.77 6.76
0 1 -14 73.56 7.49
0 1 -14 81.35 7.55
0 -1 13 18.24 3.4
0 1 -13 15.1 3.23
0 -1 13 14.42 3.01
0 -1 13 11.08 2.58
0 -1 13 15.55 3.21
0 1 -13 14.27 2.96
0 1 -13 14.77 3.06
0 1 -13 16.37 3.18
0 1 -13 16.97 3.43
0 1 -13 13.42 2.92
0 1 -13 20.64 3.76
0 1 -12 68.16 6.44
0 -1 12 62.31 6.09
0 1 -12 65.58 6.04
0 -1 12 72.52 6.44
0 -1 12 66.48 6.06
0 -1 12 70.65 6.15
0 1 -12 66.98 6.03
0 1 -12 77.05 6.49
0 1 -12 72.68 6.28
0 1 -12 86.68 6.88
0 -1 12 72.39 7.11
0 1 -12 81.52 6.67
0 1 -11 74.33 6.43
0 -1 11 72.52 6.21
0 -1 11 77.64 6.16
0 -1 11 76.43 6.15
0 -1 11 75.75 6.2
0 1 -11 73.86 6.1
0 1 -11 75.63 6.06
0 1 -11 71.12 5.88
0 1 -11 77.15 6.18
0 1 -11 81.95 6.4
0 -1 11 75.53 6.87
0 1 -11 80.96 6.21
0 -1 10 61.92 5.36
0 1 -10 61.71 5.47
0 -1 10 56.09 4.38
0 -1 10 65.12 5.24
0 -1 10 63.9 5.31
0 -1 10 64.93 5.27
0 1 -10 60.23 5.12
0 1 -10 65.12 5.29
0 1 -10 66.26 5.32
0 1 -10 57.54 5.19
0 1 -10 70.29 5.32
0 -1 10 65.38 5.9
0 -1 9 60.71 4.91
0 1 -9 60.55 5
0 -1 9 61.36 4.84
0 -1 9 65.83 4.9
0 -1 9 65.11 4.87
0 -1 9 62.68 4.32
0 1 -9 67.55 3.73
0 1 -9 62.36 4.82
0 1 -9 63.39 4.89
0 1 -9 66.93 4.94
0 -1 9 57.15 4.02
0 1 -9 66.82 5.12
0 1 -9 70.99 4.99
0 -1 9 65.77 5.58
0 1 -8 11.67 2.06
0 -1 8 14.26 2.19
0 -1 8 13.51 2.07
0 -1 8 15.29 2.21
0 -1 8 14.97 2.27
0 -1 8 11.43 1.79
0 -1 8 14.39 2.45
0 1 -8 12.85 1.47
0 1 -8 12.26 2.02
0 1 -8 13.39 2.09
0 1 -8 12.32 2.06
0 1 -8 11.77 1.95
0 -1 8 17.03 2.58
0 1 -8 13.1 1.94
0 -1 8 9.74 1.56
0 -1 7 9.02 1.67
0 1 -7 10.99 1.87
0 -1 7 11.33 1.79
0 -1 7 9.22 1.63
0 -1 7 9.28 1.58
0 -1 7 10.88 1.74
0 -1 7 11.43 1.99
0 1 -7 9.72 1.23
0 -1 7 9.74 1.54
0 1 -7 7.64 1.53
0 1 -7 9.2 1.65
0 1 -7 8.44 1.61
0 -1 7 18.56 2.42
0 1 -7 10.69 1.81
0 1 -7 10.38 1.69
0 -1 6 985.71 25.48
0 1 -6 979.53 25.7
0 -1 6 999.75 25.21
0 -1 6 991.2 25.23
0 -1 6 1022.73 25.37
0 -1 6 979.49 25.23
0 1 -6 921.16 23.39
0 -1 6 954.9 24.72
0 1 -6 957.14 23.26
0 1 -6 990.59 25.39
0 1 -6 970.77 25.12
0 1 -6 1028.04 25.19
0 1 -6 977.31 25.16
0 -1 6 1016.19 26.33
0 1 -6 992.78 24.94
0 -1 6 1012.24 26.33
0 1 -5 651.21 17.49
0 -1 5 655.13 17.34
0 -1 5 666.68 17.09
0 -1 5 661.48 17.11
0 -1 5 656.54 17.05
0 -1 5 648.31 17.07
0 1 -5 627.21 15.44
0 -1 5 637.01 16.81
0 1 -5 622.19 15.73
0 1 -5 645.69 17.21
0 1 -5 652.26 17.08
0 1 -5 646.64 16.97
0 -1 5 666.86 17.91
0 1 -5 640.21 17
0 -1 5 581.22 14.91
0 -1 5 637.11 17.76
0 1 -5 629.8 16.74
0 -1 4 3.71 0.78
0 1 -4 3.85 0.82
0 -1 4 4.07 0.75
0 -1 4 5.08 0.87
0 -1 4 4.67 0.85
0 -1 4 3.84 0.77
0 1 -4 4.24 0.58
0 -1 4 2.29 0.72
0 1 -4 4.01 0.64
0 -1 4 4.83 0.86
0 1 -4 2.94 0.73
0 1 -4 5.01 0.88
0 1 -4 4.26 0.84
0 -1 4 5.21 1
0 1 -4 3.42 0.76
0 -1 4 5.34 0.57
0 1 -4 4.23 0.81
0 1 -3 0.39 0.27
0 -1 3 0.76 0.4
0 -1 3 0.02 0.22
0 -1 3 0.25 0.22
0 -1 3 0.06 0.22
0 -1 3 0.36 0.29
0 -1 3 -0.02 0.25
0 1 -3 0.17 0.23
0 1 -3 0.12 0.17
0 1 -3 -0.17 0.29
0 -1 3 0.34 0.28
0 1 -3 0.13 0.27
0 1 -3 0.43 0.35
0 1 -3 0.64 0.32
0 1 -2 1779.26 39.76
0 -1 2 1822.62 39.65
0 -1 2 1788.72 39.45
0 -1 2 1782.98 39.48
0 -1 2 1796.52 39.49
0 -1 2 1765.49 39.47
0 1 -2 1841.76 39.6
0 1 -2 1783.4 39.49
0 1 -2 1774 39.34
0 -1 2 1744.93 39.78
0 -1 2 1726.69 39.77
0 1 -2 1763.59 39.3
0 -1 0 49.31 1.26
0 -1 0 12.48 0.69
0 -1 -1 1527.63 34.53
0 1 1 1596.27 34.51
0 1 1 1604.69 34.53
0 1 1 1617.71 34.5
0 -1 -1 1584.28 34.49
0 -1 -1 1538.35 34.42
0 -1 -1 1603.81 34.44
0 -1 -1 1524.64 34.42
0 -1 -1 1526.28 34.43
0 -1 -1 1536.99 34.48
0 1 1 1608.22 34.57
0 -1 -1 1653.01 34.27
0 1 1 1613.33 34.4
0 -1 -3 495.58 12.66
0 1 3 506.34 12.57
0 1 3 504.46 12.54
0 1 3 497.12 12.44
0 1 3 507.02 12.46
0 -1 -3 500.37 12.5
0 -1 -3 469.73 11.16
0 1 3 473.61 11.95
0 -1 -3 498.74 12.43
0 -1 -3 498.45 12.45
0 -1 -3 495.56 12.45
0 1 3 509.15 12.27
0 -1 -3 516.32 12.47
0 1 3 501.72 12.95
0 1 3 486.56 11.54
0 -1 -3 501.91 12.38
0 1 4 125.44 4.74
0 -1 -4 122.41 4.81
0 1 4 124.48 4.72
0 1 4 129.15 4.72
0 1 4 128.89 4.7
0 -1 -4 121.22 4.7
0 1 4 118.06 4.17
0 -1 -4 119.58 3.44
0 -1 -4 122.49 4.67
0 -1 -4 125.61 4.68
0 -1 -4 128.82 4.75
0 1 4 127.63 4.43
0 -1 -4 125.66 4.68
0 1 4 122.14 3.64
0 -1 -4 123.01 4.58
0 1 4 127.32 5.13
0 1 5 4087.97 85.53
0 -1 -5 3957.03 85.65
0 1 5 4010.6 85.4
0 1 5 4027.55 85.31
0 1 5 3987.55 85.25
0 -1 -5 3844.74 85.27
0 1 5 3746.78 84.22
0 -1 -5 3651.81 82.9
0 -1 -5 3880.36 85.2
0 -1 -5 3895.49 85.2
0 -1 -5 3949.79 85.28
0 1 5 3963.55 84.63
0 -1 -5 3962.05 85.29
0 1 5 3567.89 82.9
0 1 5 4096.7 86.3
0 -1 -5 4009.16 85.12
0 -1 -6 501.26 14.51
0 1 6 517.16 14.39
0 1 6 517.44 14.37
0 1 6 504.99 14.14
0 1 6 525.26 14.3
0 -1 -6 482.49 14.14
0 1 6 460.42 13.1
0 -1 -6 456.95 11.81
0 -1 -6 493.54 14.06
0 -1 -6 501.43 14.16
0 -1 -6 507.33 14.18
0 -1 -6 501.55 14.2
0 1 6 477.32 13.42
0 -1 -6 501.57 14
0 1 6 458 11.69
0 1 6 515.35 15.13
0 -1 -7 176.89 7.54
0 1 7 173.9 7.33
0 1 7 181.61 7.41
0 1 7 173.2 7.2
0 1 7 176.53 7.27
0 -1 -7 160.9 7.12
0 -1 -7 159.89 5.17
0 1 7 161.11 6.3
0 -1 -7 172.43 7.18
0 -1 -7 171.42 7.13
0 -1 -7 170.67 7.18
0 1 7 165.51 6.51
0 -1 -7 169.4 7.16
0 1 7 156.63 4.93
0 1 7 178.26 7.98
0 -1 -7 170.81 7.05
0 1 8 502.01 15.42
0 -1 -8 489.47 15.57
0 1 8 486.36 15.03
0 1 8 475.74 14.94
0 1 8 477.98 15.11
0 -1 -8 459.95 14.94
0 -1 -8 431.53 11.87
0 1 8 448.65 13.61
0 -1 -8 423.84 13.02
0 -1 -8 480.39 14.97
0 -1 -8 481.95 14.95
0 -1 -8 474.93 14.95
0 -1 -8 475.45 15.01
0 1 8 458.03 13.86
0 -1 -8 453.75 14.58
0 1 8 495.89 16.27
0 1 9 32.97 3.45
0 -1 -9 33.67 3.55
0 1 9 34.94 3.5
0 1 9 39.52 3.72
0 1 9 38.61 3.62
0 -1 -9 34.89 3.56
0 1 9 35.41 2.98
0 -1 -9 29.75 2.55
0 -1 -9 30.86 3.28
0 -1 -9 32.93 3.4
0 -1 -9 33.92 3.42
0 -1 -9 33.3 3.43
0 1 9 31.14 2.9
0 -1 -9 36.12 3.41
0 1 10 191.19 9.55
0 -1 -10 178.27 9.45
0 1 10 190.7 9.27
0 1 10 180.57 9.04
0 1 10 199.09 9.6
0 -1 -10 173.95 9.02
0 1 10 174.04 7.74
0 -1 -10 184.58 9.16
0 -1 -10 192.74 9.24
0 -1 -10 188.37 9.17
0 -1 -10 189.28 9.28
0 -1 -10 189.46 9.13
0 1 11 16.88 2.54
0 -1 -11 18.66 3.17
0 1 11 18.22 3.07
0 1 11 16.65 2.89
0 1 11 18.93 3.05
0 1 11 17.78 2.95
0 1 11 15.73 2.26
0 -1 -11 17.84 2.94
0 -1 -11 20.46 3.03
0 -1 -11 16.81 2.93
0 -1 -11 15.08 2.63
0 -1 -11 18.86 2.94
0 -1 -11 16.6 2.72
0 -1 -12 105.02 7.91
0 1 12 95.98 7.39
0 -1 -12 86.36 6.99
0 1 12 84.27 6.81
0 1 12 96.41 7.37
0 1 12 91.29 7.21
0 -1 -12 94.07 7.18
0 -1 -12 99.97 7.29
0 -1 -12 99.56 7.33
0 -1 -12 94.84 7.21
0 -1 -12 95.75 7.24
0 1 13 98.34 8.01
0 -1 -13 105.65 8.3
0 -1 -13 96.3 7.84
0 1 13 95.58 7.82
0 1 13 97.77 7.82
0 1 13 106.41 8.34
0 -1 -13 97.82 7.84
0 -1 -13 104.12 7.92
0 -1 -13 107.04 8.05
0 -1 -13 117.46 8.5
0 -1 -13 106.99 7.96
0 -1 -14 183.69 12.01
0 1 14 173.55 11.48
0 -1 -14 191.96 11.63
0 1 14 176.22 11.42
0 1 14 189.14 12.11
0 1 14 185.65 11.53
0 -1 -14 198.65 11.93
0 -1 -14 179.34 11.25
0 -1 -14 203.38 11.79
0 -1 -14 212.92 12.37
0 -1 -14 193.14 11.81
0 -2 13 29.89 4.49
0 2 -13 27.37 4.52
0 -2 13 30.65 4.23
0 -2 13 28.49 4.31
0 -2 13 28.79 4.23
0 2 -13 21.88 3.89
0 2 -13 24.84 4.14
0 2 -13 27.3 4.11
0 2 -13 23.96 3.94
0 2 -13 33.83 4.76
0 2 -13 28.46 4.29
0 2 -12 0.94 1.22
0 -2 12 2.54 1.75
0 -2 12 0.87 1.81
0 -2 12 1.16 1.33
0 -2 12 -0.65 0.9
0 2 -12 -0.84 1.01
0 2 -12 0.56 1.04
0 2 -12 2.87 1.74
0 2 -12 -0.18 1.14
0 2 -12 1.12 1.21
0 2 -12 1.6 1.33
0 -2 12 1.38 1.37
0 2 -11 35.8 4.46
0 -2 11 40.97 4.63
0 -2 11 35.3 4.24
0 -2 11 37.78 4.45
0 -2 11 40.92 4.56
0 2 -11 35.09 4.32
0 2 -11 42.06 4.58
0 2 -11 37.92 4.4
0 2 -11 44.78 4.91
0 2 -11 42.09 4.52
0 -2 11 44.7 5.41
0 2 -10 187.18 10.16
0 -2 10 190.73 10
0 -2 10 180.5 9.47
0 -2 10 185.45 9.68
0 -2 10 188.46 9.65
0 -2 10 171.74 8.64
0 2 -10 192.86 9.78
0 2 -10 190.6 9.68
0 2 -10 181.98 9.5
0 2 -10 216.97 10.28
0 -2 10 185.44 10.63
0 2 -10 204.65 9.77
0 -2 10 186.4 10.68
0 2 -9 6.33 1.72
0 -2 9 5.93 1.63
0 -2 9 4.98 1.5
0 -2 9 7.16 1.74
0 -2 9 6.49 1.68
0 -2 9 5.98 1.61
0 -2 9 4.66 1.3
0 -2 9 9.81 2.19
0 2 -9 6.13 1.29
0 2 -9 5.55 1.59
0 2 -9 5.64 1.69
0 2 -9 8.1 1.84
0 2 -9 8.08 1.89
0 -2 9 5.3 1.61
0 2 -9 6.34 1.69
0 2 -8 9.07 1.9
0 -2 8 9.55 1.88
0 -2 8 11.84 2.08
0 -2 8 12 2.03
0 -2 8 10.34 2
0 -2 8 13.72 2.11
0 -2 8 10.18 1.76
0 -2 8 9.15 1.98
0 2 -8 10.36 1.48
0 2 -8 10.7 1.95
0 2 -8 10.21 1.92
0 -2 8 13.07 2.4
0 2 -8 11.37 2
0 2 -8 10.61 2
0 2 -8 12.67 2
0 2 -7 -0.09 0.69
0 -2 7 0.58 0.96
0 -2 7 0.82 0.63
0 -2 7 0.71 0.74
0 -2 7 -0.26 0.59
0 -2 7 0.88 0.74
0 -2 7 0.98 0.9
0 -2 7 -0.05 0.75
0 2 -7 0.05 0.53
0 2 -7 1.53 1.05
0 2 -7 0.24 0.79
0 2 -7 0.04 0.66
0 2 -7 1.24 0.95
0 -2 7 -0.28 0.87
0 2 -7 1.23 0.89
0 -2 6 197.77 8
0 2 -6 196.52 8.14
0 -2 6 175.09 7.39
0 -2 6 198.84 7.69
0 -2 6 188.97 7.61
0 -2 6 194.63 7.69
0 -2 6 173.7 7.37
0 2 -6 187.19 5.84
0 2 -6 184.39 6.64
0 2 -6 195.47 7.9
0 2 -6 188.81 7.67
0 2 -6 197.44 7.72
0 -2 6 193.57 8.4
0 2 -6 198.96 7.66
0 2 -6 199.71 7.48
0 -2 6 186.94 8.28
0 -2 6 160.52 5.3
0 -2 5 534.55 15.25
0 2 -5 539.97 15.5
0 -2 5 543.52 14.98
0 -2 5 532.27 14.98
0 -2 5 544.5 15.01
0 -2 5 539.09 15.02
0 2 -5 495.92 12.77
0 2 -5 508.05 13.89
0 -2 5 496.61 14.85
0 2 -5 520.19 15.11
0 2 -5 534.79 14.98
0 -2 5 528.99 15.72
0 2 -5 549.63 14.82
0 2 -5 534.41 14.95
0 2 -5 506.91 14.52
0 -2 5 533.7 15.71
0 -2 5 525.91 12.77
0 -2 4 430.56 12.48
0 2 -4 434.89 12.67
0 -2 4 434.88 12.24
0 -2 4 433.97 12.24
0 -2 4 430.97 12.29
0 -2 4 442.79 12.34
0 -2 4 411.78 12.33
0 2 -4 425.56 11.61
0 2 -4 445.31 12.38
0 2 -4 414.62 11.91
0 2 -4 436.14 12.26
0 -2 4 437.94 12.88
0 2 -4 437.84 11.99
0 -2 4 432.85 12.84
0 -2 3 297.9 8.89
0 2 -3 279.1 8.96
0 -2 3 292.96 8.59
0 -2 3 282.62 8.63
0 -2 3 291.28 8.62
0 -2 3 295.71 8.67
0 -2 3 301.28 8.68
0 2 -3 279.07 8.18
0 2 -3 286.35 8.74
0 2 -3 291.42 8.39
0 -2 3 292.62 9.03
0 2 -3 295.7 8.69
0 2 -3 284.75 8.35
0 -2 3 287.11 9
0 -2 2 1194.94 27.81
0 -2 2 1171.9 27.61
0 2 -2 1208.83 27.85
0 -2 2 1207.92 27.39
0 -2 2 1169.8 27.44
0 -2 2 1183.82 27.41
0 -2 2 1190.68 27.42
0 -2 2 1158.92 27.44
0 2 -2 1097.09 26.07
0 2 -2 1187.45 27.62
0 2 -2 1170.65 26.95
0 2 -2 1174.1 27.43
0 -2 2 1184.75 27.77
0 2 -2 1198.4 27.18
0 -2 2 1196.86 27.73
0 -2 1 143.78 4.62
0 -2 1 138.4 4.01
0 2 -1 137.61 3.58
0 -2 1 142.43 4.35
0 -2 1 142.13 4.38
0 -2 1 147.22 4.45
0 -2 1 144.26 4.4
0 -2 1 137.1 4.42
0 2 -1 139.82 4.41
0 2 -1 149.07 4.05
0 -2 1 137.27 4.47
0 2 -1 141.93 4.19
0 2 0 6351.69 130.3
0 -2 0 6261.36 130.48
0 -2 0 6208.89 130.23
0 -2 0 6074.14 130.24
0 -2 0 6179.76 130.24
0 -2 0 6116.42 130.24
0 -2 0 6167.18 130.15
0 -2 0 5936.81 130.18
0 2 0 6316.86 130.34
0 -2 0 6229.47 130.28
0 -2 0 6115.19 130.12
0 2 1 3942.69 85.85
0 -2 -1 3915.94 85.92
0 -2 -1 3998.08 85.77
0 -2 -1 3921.19 85.72
0 -2 -1 3920.55 85.71
0 -2 -1 3917.78 85.71
0 -2 -1 3826.29 85.71
0 2 1 4191.02 85.95
0 -2 -1 3947.19 85.89
0 2 1 4105.34 85.73
0 -2 -2 4.87 0.71
0 2 2 3.69 0.62
0 2 2 4.19 0.64
0 2 2 4.18 0.64
0 -2 -2 4.12 0.62
0 -2 -2 5.48 0.72
0 -2 -2 3.96 0.61
0 -2 -2 3.63 0.59
0 -2 -2 3.8 0.52
0 2 2 4.28 0.65
0 -2 -2 4.54 0.67
0 2 2 4.41 0.61
0 2 3 2906.76 63.22
0 -2 -3 2865.64 63.77
0 2 3 2915.39 63.63
0 2 3 2901.53 63.63
0 2 3 2846.43 63.51
0 -2 -3 2873.52 63.52
0 -2 -3 2934.99 63.31
0 2 3 2811.87 62.97
0 -2 -3 2828.31 63.47
0 -2 -3 2873.24 63.54
0 -2 -3 2867.64 63.59
0 2 3 2925.97 63.53
0 -2 -3 2952.65 63.29
0 2 3 2874.87 62.8
0 2 4 873.96 20.83
0 -2 -4 870.25 21.55
0 2 4 867.96 21.34
0 2 4 876.05 21.25
0 2 4 888.83 21.47
0 2 4 880.08 21.32
0 -2 -4 851.2 21.23
0 -2 -4 879.01 20.82
0 2 4 861.76 19.27
0 2 4 852.23 20.52
0 -2 -4 851.06 21.25
0 -2 -4 853.09 21.21
0 -2 -4 846.01 21.2
0 2 4 889.88 21.07
0 -2 -4 869.87 21.08
0 -2 -4 892.74 21.18
0 2 4 865.36 20.14
0 2 5 112.43 4.53
0 2 5 112.96 4.93
0 -2 -5 110.17 5.01
0 2 5 118 5
0 2 5 122.15 4.94
0 2 5 118.19 4.9
0 -2 -5 114.91 4.88
0 -2 -5 116.74 4.49
0 2 5 110.57 3.18
0 -2 -5 109.99 3.26
0 2 5 111.86 4.3
0 -2 -5 114.79 4.84
0 -2 -5 114.62 4.84
0 -2 -5 114.44 4.87
0 -2 -5 116.36 4.88
0 2 5 108.88 4.56
0 -2 -5 115.07 4.79
0 2 5 117.85 3.94
0 2 6 97.35 4.47
0 2 6 108.88 5.11
0 -2 -6 113.25 5.37
0 2 6 113.38 5.23
0 2 6 113.03 5.12
0 2 6 102.76 4.89
0 -2 -6 106.57 5.03
0 2 6 97.81 4.27
0 -2 -6 98.56 3.18
0 -2 -6 104.55 4.45
0 2 6 97.62 3.03
0 -2 -6 102.59 4.93
0 -2 -6 104.2 4.93
0 -2 -6 102.68 4.91
0 2 6 107.55 4.67
0 -2 -6 109.22 4.98
0 2 6 99.91 3.67
0 -2 -6 108.05 4.93
0 2 7 22.56 2.16
0 2 7 28.57 2.66
0 -2 -7 26.12 2.65
0 2 7 28.68 2.68
0 2 7 28.11 2.59
0 2 7 29.18 2.61
0 -2 -7 25.56 2.51
0 -2 -7 26.49 2.18
0 -2 -7 25.87 1.43
0 2 7 27.94 2.2
0 -2 -7 23.63 2.37
0 -2 -7 29.55 2.65
0 -2 -7 29.4 2.67
0 -2 -7 27.94 2.58
0 2 7 25.68 2.31
0 -2 -7 25.93 2.48
0 2 7 25.65 1.66
0 2 8 118.97 5.68
0 -2 -8 126.93 6.62
0 2 8 122.24 6.37
0 2 8 117.48 6.13
0 2 8 119.69 6.33
0 2 8 126.85 6.35
0 -2 -8 118.82 6.24
0 2 8 114.61 5.35
0 -2 -8 112.77 5.26
0 -2 -8 125.66 6.29
0 -2 -8 119.64 6.19
0 -2 -8 129.21 6.37
0 -2 -8 118.57 6.17
0 2 8 115.66 5.58
0 2 8 111.45 4.22
0 -2 -8 124.85 6.24
0 2 9 653 18.89
0 2 9 651.9 20.18
0 -2 -9 665.75 20.54
0 2 9 668.91 20
0 2 9 684.89 20.44
0 2 9 655.94 19.97
0 -2 -9 639.13 19.92
0 2 9 641.01 18.12
0 -2 -9 616.78 17.83
0 -2 -9 648.74 19.83
0 -2 -9 648.51 19.89
0 -2 -9 653.86 19.85
0 2 9 624.86 18.38
0 -2 -9 654.87 19.94
0 -2 -9 666.88 19.85
0 2 10 33.68 3.23
0 -2 -10 37.99 4.03
0 2 10 38.86 4.01
0 2 10 37.44 3.93
0 2 10 36.91 3.83
0 2 10 35.21 3.76
0 -2 -10 39.54 3.97
0 2 10 36.02 3.13
0 -2 -10 31.97 2.92
0 -2 -10 33.46 3.61
0 -2 -10 37.53 3.82
0 -2 -10 41.48 3.97
0 2 10 34.42 3.1
0 -2 -10 41.02 4.04
0 -2 -10 36.72 3.65
0 2 11 79.35 5.45
0 -2 -11 91.55 6.79
0 2 11 87.91 6.56
0 2 11 89.28 6.66
0 2 11 80.34 6.23
0 2 11 86.98 6.42
0 -2 -11 93.68 6.66
0 2 11 85.08 5.22
0 -2 -11 85.99 6.3
0 -2 -11 91.13 6.48
0 -2 -11 79.48 6.13
0 -2 -11 95.37 6.6
0 -2 -11 94.34 6.57
0 2 12 0.8 1.11
0 -2 -12 4.38 1.56
0 2 12 3.51 1.26
0 2 12 5.1 1.72
0 2 12 4.25 1.84
0 -2 -12 3.54 1.51
0 -2 -12 5.77 1.97
0 -2 -12 4.1 1.77
0 -2 -12 3.63 1.68
0 -2 -12 1.59 1.14
0 -2 -12 3.3 1.58
0 -2 -13 264.88 14.11
0 2 13 288.2 14.38
0 -2 -13 282.2 13.78
0 2 13 280.75 13.99
0 2 13 277.71 14.22
0 2 13 292.41 14.1
0 -2 -13 270.76 13.63
0 -2 -13 297.42 14.04
0 -2 -13 289.35 13.82
0 -2 -13 303.43 14.33
0 -2 -13 290.1 13.95
0 2 14 15.96 3.54
0 -2 -14 21.91 4.09
0 2 14 14.77 3.23
0 2 14 24.81 4.29
0 -2 -14 31.22 4.54
0 -2 -14 26.02 4.15
0 -2 -14 19.72 3.49
0 -2 -14 26.99 4.29
0 -2 -14 18.55 3.72
0 -2 -14 21.38 3.84
0 2 15 74.21 7.42
0 2 15 60.78 6.87
0 -2 -15 72.67 7.19
0 -2 -15 70.16 7.15
0 -2 -15 69.8 7.24
0 -2 -15 71.32 7.11
0 -2 -15 77.51 7.54
0 -2 -15 72.11 7.61
0 2 15 65.14 7.21
0 -3 13 12.06 3.04
0 3 -13 15.32 3.26
0 -3 13 13.23 3
0 -3 13 15.34 3.1
0 -3 13 10.18 2.83
0 -3 13 16.61 4.12
0 3 -13 10.91 2.72
0 3 -13 11.82 3.22
0 3 -13 14.75 3.34
0 3 -13 13.1 3.11
0 3 -13 15.74 3.22
0 3 -13 11.42 2.65
0 3 -12 11.45 2.82
0 -3 12 11.79 2.74
0 -3 12 12.97 2.7
0 -3 12 14.95 2.85
0 -3 12 10.27 2.38
0 3 -12 15.34 3.12
0 3 -12 12.63 2.67
0 3 -12 17.09 3.27
0 3 -12 12.4 2.66
0 3 -12 20.02 3.63
0 -3 12 16.85 3.73
0 -3 11 45.93 5.01
0 3 -11 44.37 5.1
0 -3 11 38.14 4.56
0 -3 11 39.8 4.63
0 -3 11 33.82 4.34
0 3 -11 38.71 4.61
0 3 -11 38.03 4.5
0 3 -11 44.16 4.86
0 3 -11 54.34 5.27
0 -3 11 48.51 5.75
0 3 -11 46.51 4.86
0 3 -10 2.32 1.13
0 -3 10 7.25 1.92
0 -3 10 5.99 1.92
0 -3 10 5.66 1.52
0 -3 10 2.85 1.33
0 -3 10 7.67 1.83
0 -3 10 7.92 2.28
0 3 -10 6.12 2.09
0 3 -10 6.32 1.72
0 -3 10 6.71 2.13
0 3 -10 12.41 2.54
0 3 -10 7.82 1.92
0 3 -10 5.42 1.69
0 -3 9 13.24 2.45
0 3 -9 16.13 2.77
0 -3 9 13 2.3
0 -3 9 15.91 2.5
0 -3 9 15.61 2.48
0 -3 9 12.78 2.24
0 3 -9 17.03 2.18
0 -3 9 14.52 2.76
0 -3 9 16.26 2.47
0 3 -9 16.16 2.67
0 3 -9 17.09 2.63
0 -3 9 15.36 2.84
0 3 -9 14.84 2.54
0 3 -9 16.74 2.61
0 3 -9 16.53 2.58
0 3 -8 3.86 1.37
0 -3 8 3.68 1.34
0 -3 8 5.39 1.52
0 -3 8 6.11 1.64
0 -3 8 2.89 1.06
0 -3 8 5 1.39
0 -3 8 5.28 1.61
0 -3 8 4.66 1.44
0 3 -8 4.84 1.16
0 3 -8 6.5 1.64
0 3 -8 4.03 1.41
0 3 -8 4.39 1.32
0 -3 8 4.95 1.58
0 3 -8 3.71 1.39
0 3 -8 6.24 1.54
0 3 -7 827.9 25.18
0 -3 7 882.71 25.23
0 -3 7 832.36 24.47
0 -3 7 888.6 24.76
0 -3 7 844.12 24.47
0 -3 7 850.33 24.62
0 3 -7 912.17 23.44
0 -3 7 897.48 24.8
0 3 -7 890.62 25.03
0 3 -7 858.64 25.09
0 -3 7 886.85 26.02
0 3 -7 894.95 24.83
0 3 -7 1026.28 25.09
0 -3 7 912.34 26.18
0 3 -7 956.6 24.66
0 -3 6 1182.69 30.9
0 3 -6 1139.42 31.12
0 -3 6 1136.71 30.36
0 -3 6 1219.06 30.65
0 -3 6 1133.08 30.28
0 -3 6 1219.11 30.76
0 3 -6 1211.32 29.49
0 -3 6 1194.18 30.74
0 3 -6 1193.29 30.88
0 3 -6 1144.25 30.76
0 -3 6 1252.89 31.98
0 3 -6 1242.36 30.28
0 3 -6 1246.19 30.86
0 3 -6 1176.17 29.98
0 -3 6 1175.5 31.64
0 3 -5 71.77 4.49
0 -3 5 69.9 4.3
0 -3 5 66.06 3.98
0 -3 5 64 3.92
0 -3 5 66.51 3.99
0 -3 5 69.62 4.1
0 3 -5 70.75 3.75
0 3 -5 59.55 2.53
0 -3 5 68.54 4.18
0 3 -5 73.39 4.25
0 3 -5 69.27 4.1
0 -3 5 67.81 4.46
0 3 -5 76.55 4.14
0 -3 5 60.91 4.3
0 3 -5 67.61 3.94
0 3 -4 972.18 24.56
0 -3 4 974.14 24.36
0 -3 4 1001.68 24.1
0 -3 4 978.59 24
0 -3 4 953.82 23.92
0 -3 4 975.74 24.06
0 3 -4 964.97 23.46
0 3 -4 953.67 24.07
0 -3 4 973.82 24.77
0 3 -4 961.14 24.01
0 -3 4 954.14 24.69
0 3 -4 921.73 23.54
0 -3 3 1178.6 28.58
0 -3 3 1160.27 27.98
0 -3 3 1157.77 27.91
0 -3 3 1166.53 27.89
0 -3 3 1147.1 27.98
0 -3 3 1165.99 27.92
0 -3 3 1155.82 28.23
0 3 -3 1188.57 28.5
0 3 -3 1208.15 28.19
0 -3 3 1189.23 28.61
0 3 -3 1073.61 27.16
0 3 -3 1214.82 28.05
0 3 -3 1109.32 27.49
0 -3 3 1191.6 28.56
0 3 -2 10.37 0.81
0 -3 2 11.39 1.36
0 -3 2 10.51 1.06
0 -3 2 11.25 1.31
0 3 -2 11.29 1.39
0 -3 2 10.21 1.19
0 -3 2 11.21 1.24
0 -3 2 9.48 1.17
0 -3 2 10.81 1.26
0 -3 2 10.72 1.22
0 3 -2 10.09 1.28
0 3 -2 10.02 1.04
0 -3 2 10.61 1.31
0 3 -2 9.78 1.22
0 3 -2 11.88 1.19
0 -3 2 10.98 1.29
0 -3 1 94.85 3.33
0 -3 1 95.37 4
0 3 -1 87.09 2.86
0 -3 1 103.72 2.62
0 -3 1 94.12 3.79
0 -3 1 94.96 3.76
0 -3 1 89.91 3.75
0 -3 1 88.15 3.7
0 -3 1 93.1 3.8
0 3 -1 94.88 3.3
0 3 -1 88.57 3.76
0 -3 1 97.37 3.92
0 3 -1 92.74 3.54
0 -3 0 196.57 6.38
0 3 0 193.71 6.16
0 3 0 194.01 5.45
0 -3 0 204.54 6.16
0 -3 0 193 6.1
0 -3 0 195.26 6.13
0 -3 0 195.19 6.14
0 -3 0 205.8 6.11
0 -3 0 185.19 6.07
0 -3 0 199.76 6.2
0 3 0 199.47 6.23
0 -3 0 197.99 6.03
0 3 0 204.88 5.92
0 -3 -1 137.09 4.99
0 3 1 142.7 5.03
0 -3 -1 138.1 4.79
0 -3 -1 141.96 4.82
0 -3 -1 143.3 4.83
0 -3 -1 137.44 4.78
0 -3 -1 133.35 4.76
0 3 1 144.23 4.96
0 -3 -1 136.98 4.96
0 3 1 140.68 4.49
0 3 1 144.89 4.86
0 -3 -2 1827.8 42.05
0 3 2 1906.87 42.02
0 -3 -2 1906.91 41.84
0 3 2 1914.18 41.92
0 -3 -2 1844.48 41.72
0 -3 -2 1891.02 41.79
0 -3 -2 1848.38 41.73
0 -3 -2 1831.53 41.77
0 3 2 1936.11 41.96
0 3 2 1844.32 41.63
0 -3 -2 1850.84 41.99
0 3 3 980.98 23.59
0 -3 -3 983.97 23.79
0 3 3 983.27 23.6
0 3 3 981.36 23.69
0 -3 -3 986.8 23.58
0 -3 -3 952 23.4
0 -3 -3 960.52 23.43
0 -3 -3 970.1 23.61
0 -3 -3 947.14 23.42
0 -3 -3 956.18 23.48
0 3 3 986.25 23.58
0 -3 -3 990.67 23.73
0 3 3 981.31 23.25
0 3 4 796.77 19.8
0 -3 -4 786.69 20.53
0 3 4 788.72 20.33
0 3 4 822.84 20.39
0 3 4 809.21 20.25
0 -3 -4 796.64 20.2
0 -3 -4 825.41 20.4
0 -3 -4 795.91 19.97
0 3 4 776.93 19.61
0 -3 -4 806.18 20.36
0 -3 -4 795.11 20.22
0 -3 -4 790.17 20.2
0 3 4 814.23 20.15
0 -3 -4 814.98 19.85
0 3 4 815.64 19.33
0 3 5 1569.12 36.13
0 -3 -5 1544.72 37.08
0 3 5 1564.51 36.86
0 3 5 1591.99 36.87
0 3 5 1572.79 36.77
0 -3 -5 1543.19 36.68
0 3 5 1545.24 35.77
0 -3 -5 1514.75 36.21
0 -3 -5 1562.18 36.85
0 -3 -5 1535.44 36.72
0 -3 -5 1522.38 36.61
0 -3 -5 1526.78 36.41
0 3 5 1556.16 36.46
0 3 5 1552.58 35.36
0 3 6 116.39 5.04
0 -3 -6 115.1 5.73
0 3 6 114.52 5.51
0 3 6 112.41 5.35
0 3 6 119.64 5.54
0 -3 -6 112.58 5.41
0 3 6 88.79 4.31
0 -3 -6 116.98 5.45
0 -3 -6 114.72 5.48
0 -3 -6 113.72 5.41
0 3 6 119.37 5.29
0 -3 -6 94.31 4.92
0 3 7 132.14 5.76
0 3 7 136.88 6.35
0 -3 -7 137.63 6.58
0 3 7 130 6.17
0 3 7 134.19 6.29
0 -3 -7 128.08 6.18
0 3 7 132.36 5.46
0 -3 -7 120.18 5.57
0 -3 -7 126.93 6.15
0 -3 -7 128.75 6.13
0 -3 -7 128.43 6.15
0 -3 -7 130.05 6.11
0 3 7 126.71 5.75
0 -3 -7 122.09 6
0 3 7 125.73 4.75
0 3 8 58.67 3.82
0 -3 -8 56.91 4.32
0 3 8 59.35 4.29
0 3 8 57.68 4.18
0 3 8 52.49 3.98
0 -3 -8 55.36 4.14
0 -3 -8 57.19 3.68
0 3 8 54.42 3.5
0 -3 -8 52.03 4.02
0 -3 -8 59.18 4.23
0 -3 -8 56.57 4.12
0 -3 -8 56.18 4.09
0 3 8 53.16 3.64
0 3 8 52.12 2.85
0 -3 -8 59.81 4.22
0 3 9 192.71 8.16
0 -3 -9 201.27 9.43
0 3 9 193.22 9.01
0 3 9 205.95 9.02
0 3 9 212.8 9.24
0 -3 -9 205.01 9.08
0 -3 -9 192.1 7.88
0 3 9 194.4 7.72
0 -3 -9 205.82 9.06
0 -3 -9 202.15 9.04
0 -3 -9 207.71 9.03
0 -3 -9 203.38 8.96
0 3 9 188.28 8.03
0 -3 -9 195.75 8.84
0 3 9 173.14 6.35
0 3 10 3.54 1.14
0 3 10 3.02 1.24
0 -3 -10 2.57 1.29
0 3 10 3.39 1.26
0 3 10 2.62 1.39
0 3 10 4.47 1.13
0 -3 -10 3.57 1.1
0 -3 -10 2.74 1.34
0 -3 -10 2.12 1.03
0 -3 -10 2.54 1.08
0 -3 -10 4.59 1.35
0 3 10 2.64 1.1
0 -3 -10 0.55 0.81
0 -3 -10 4.4 1.55
0 3 11 22.55 2.88
0 3 11 19.71 3.14
0 -3 -11 17.99 2.97
0 3 11 23.43 3.28
0 3 11 17.7 2.87
0 3 11 20.63 2.44
0 -3 -11 20.1 3.01
0 -3 -11 21.71 3.14
0 -3 -11 24.25 3.28
0 -3 -11 23.22 3.29
0 -3 -11 17.32 2.75
0 -3 -11 23.79 3.23
0 3 12 41.93 4.85
0 -3 -12 55.32 5.53
0 -3 -12 39.28 4.61
0 3 12 38.84 4.66
0 3 12 43.23 4.8
0 -3 -12 42.88 4.75
0 -3 -12 49.68 5.19
0 -3 -12 49.25 4.97
0 -3 -12 47.8 4.89
0 -3 -12 42.18 4.64
0 3 13 12.66 2.94
0 3 13 13.79 3
0 -3 -13 18.17 3.34
0 -3 -13 12.26 2.74
0 -3 -13 13.5 2.84
0 -3 -13 10.55 2.63
0 -3 -13 13.06 2.9
0 -3 -13 11.47 2.92
0 3 13 12.11 2.87
0 3 14 25.19 4.43
0 3 14 26.27 4.3
0 -3 -14 19.25 3.72
0 -3 -14 18.88 3.7
0 -3 -14 19.05 3.66
0 -3 -14 24.99 4.21
0 -3 -14 21.95 4.11
0 -3 -14 25.76 4.67
0 3 14 20.12 4.02
0 -3 -15 115.61 9.19
0 -3 -15 106.89 9.08
0 -3 -15 118.53 9.33
0 -3 -15 126.45 9.71
0 3 15 101.39 8.9
0 3 15 96.13 8.74
0 -3 -15 125.79 9.67
0 3 15 122.63 9.83
0 -3 -15 117.39 9.85
0 4 -12 59.17 6.58
0 -4 12 74.76 7.25
0 4 -12 66.48 6.45
0 4 -12 74.63 6.89
0 4 -12 78.53 7.01
0 -4 12 72.41 6.78
0 -4 12 66.01 6.48
0 -4 12 71.8 6.66
0 4 -12 81.84 7.42
0 4 -12 73.82 6.64
0 -4 12 75.27 7.78
0 -4 11 34.29 4.56
0 4 -11 36.64 4.82
0 -4 11 38.68 4.64
0 -4 11 35.71 4.51
0 -4 11 39.33 4.72
0 4 -11 36.68 4.55
0 4 -11 35.2 4.58
0 4 -11 30.14 4.12
0 -4 11 39.48 5.37
0 4 -11 35.27 4.39
0 4 -11 38.54 4.57
0 -4 11 36.29 5.14
0 -4 10 106.34 7.76
0 4 -10 113.18 8.09
0 -4 10 107.91 7.56
0 -4 10 106.14 7.48
0 -4 10 107.34 7.52
0 -4 10 109.78 7.67
0 -4 10 92.43 6.75
0 4 -10 120.25 6.64
0 4 -10 107.57 7.65
0 4 -10 109.61 7.59
0 4 -10 110.63 7.56
0 -4 10 112.74 8.6
0 4 -10 122.34 7.83
0 4 -10 110.33 7.4
0 -4 10 120.43 8.85
0 -4 9 70.4 5.93
0 4 -9 67.59 5.97
0 -4 9 78.82 5.95
0 -4 9 74.7 5.78
0 -4 9 74.45 5.79
0 -4 9 75.17 5.88
0 -4 9 64.82 5.36
0 4 -9 78.68 5.05
0 4 -9 70.94 5.79
0 4 -9 78.88 5.97
0 4 -9 80.61 6.06
0 -4 9 79.96 6.67
0 4 -9 67.58 5.59
0 -4 9 74.29 6.46
0 4 -9 80.13 5.82
0 4 -8 1.61 1.19
0 -4 8 -1.2 1.33
0 -4 8 -0.44 0.77
0 -4 8 -0.05 0.95
0 -4 8 0.41 0.92
0 -4 8 0.76 0.91
0 4 -8 0.01 0.66
0 -4 8 0.24 0.81
0 -4 8 0.03 0.96
0 4 -8 2.24 1.24
0 4 -8 1.88 1.09
0 4 -8 1.22 1.08
0 4 -8 1.9 0.86
0 -4 8 3.24 1.44
0 4 -8 1.95 1.04
0 4 -7 54.22 4.61
0 -4 7 52.4 4.42
0 -4 7 55.03 4.36
0 -4 7 46.99 4.05
0 -4 7 50.54 4.13
0 -4 7 48.02 4.11
0 -4 7 47.41 4.21
0 4 -7 55.73 3.84
0 4 -7 55.89 4.44
0 4 -7 47.18 4.18
0 4 -7 52.45 4.25
0 -4 7 55.03 4.89
0 4 -7 54.65 4.23
0 4 -7 45.1 4
0 -4 7 59.14 5.04
0 4 -6 269.38 11.01
0 -4 6 262.14 10.76
0 -4 6 264.08 10.36
0 -4 6 275.86 10.46
0 -4 6 276.24 10.53
0 -4 6 271.95 10.51
0 -4 6 270.6 10.79
0 4 -6 306.72 10.18
0 4 -6 267.65 10.53
0 4 -6 305.44 10.45
0 -4 6 279.52 11.44
0 4 -6 274.26 10.55
0 4 -6 283.28 10.31
0 -4 6 284.37 11.49
0 -4 5 62.29 4.23
0 4 -5 59.56 4.33
0 -4 5 64.66 4.2
0 -4 5 62.99 4.15
0 -4 5 62.32 4.12
0 -4 5 65.9 4.23
0 4 -5 68.2 4.06
0 -4 5 67.74 4.49
0 4 -5 63.91 4.27
0 4 -5 60.36 3.86
0 -4 5 70.49 4.81
0 4 -5 64.28 4.23
0 4 -5 62.66 3.95
0 -4 5 62.27 4.51
0 4 -4 489.83 15.01
0 -4 4 485.62 14.73
0 -4 4 489.65 14.39
0 -4 4 497.12 14.43
0 -4 4 472.27 14.23
0 -4 4 485.78 14.41
0 -4 4 466.99 14.32
0 4 -4 515.02 14.17
0 4 -4 487.81 14.52
0 4 -4 476.47 14.3
0 -4 4 503.87 15.24
0 4 -4 444.67 13.53
0 4 -4 506.75 14.14
0 -4 4 481.9 15.05
0 -4 3 192.58 7.51
0 4 -3 195.4 7.53
0 -4 3 187.85 7.31
0 -4 3 186.87 6.99
0 -4 3 192.25 7.07
0 -4 3 191.05 7.07
0 -4 3 190.34 7.08
0 -4 3 180.4 7.01
0 4 -3 172.89 5.34
0 4 -3 187.65 7.17
0 4 -3 193.11 6.55
0 4 -3 184.88 7.04
0 -4 3 186.51 7.46
0 4 -3 182.48 6.71
0 -4 3 192.35 7.46
0 -4 2 1987.4 48.5
0 4 -2 1962.95 47.53
0 -4 2 2183.89 50.24
0 4 -2 2337.05 50.4
0 -4 2 2090.8 49.82
0 -4 2 2158.02 49.58
0 -4 2 2196.1 49.55
0 -4 2 2185.56 49.58
0 -4 2 2183.58 49.69
0 -4 2 2215.86 49.64
0 4 -2 2208.71 49.87
0 4 -2 2067.33 48.44
0 4 -2 2269.25 49.77
0 -4 2 2165.95 50.1
0 -4 2 2132.94 49.86
0 4 -2 2267.1 49.19
0 4 -1 615.77 15.12
0 -4 1 653.91 17.18
0 -4 1 635.8 15.77
0 -4 1 690.52 14.69
0 -4 1 664.65 16.66
0 -4 1 640.46 16.61
0 -4 1 669.65 16.77
0 -4 1 647.29 16.7
0 -4 1 650.47 16.75
0 -4 1 638.43 16.87
0 4 -1 560.49 15.32
0 4 -1 638.92 16.69
0 4 -1 608.95 16.09
0 -4 0 0.95 0.51
0 4 0 0.76 0.32
0 -4 0 0.39 0.32
0 -4 0 0.57 0.35
0 -4 0 1.1 0.47
0 -4 0 1.44 0.63
0 -4 0 0.43 0.4
0 -4 0 1.05 0.52
0 4 0 1.26 0.57
0 -4 0 0.89 0.5
0 -4 0 0.88 0.43
0 4 0 1.35 0.57
0 -4 -1 0.6 0.45
0 -4 -1 0.77 0.52
0 -4 -1 1.13 0.5
0 -4 -1 0.7 0.5
0 -4 -1 0.76 0.44
0 4 1 0.09 0.29
0 -4 -1 1.02 0.55
0 4 1 0.45 0.24
0 4 2 250.65 8.37
0 -4 -2 255.2 8.41
0 -4 -2 262.38 8.2
0 -4 -2 252.17 8.12
0 -4 -2 265.3 8.24
0 -4 -2 247.81 8.11
0 -4 -2 246.37 8.15
0 4 2 266.95 8.32
0 4 2 242.12 8.02
0 -4 -2 257.51 8.39
0 4 2 252.47 7.8
0 -4 -3 1344.03 33.33
0 4 3 1367.35 33.17
0 4 3 1404.24 33.1
0 -4 -3 1380.18 32.9
0 -4 -3 1406.66 32.98
0 -4 -3 1391.02 32.99
0 -4 -3 1376.27 32.91
0 4 3 1419.39 33.16
0 -4 -3 1403.72 33.3
0 4 3 1397.33 32.69
0 -4 -4 2620.57 59.78
0 4 4 2698.04 59.57
0 4 4 2605.31 59.6
0 4 4 2643.64 59.57
0 -4 -4 2648.5 59.51
0 -4 -4 2585.33 59.3
0 -4 -4 2570.54 59.38
0 -4 -4 2664.03 59.62
0 -4 -4 2565.08 59.36
0 -4 -4 2605.82 59.34
0 4 4 2680.34 59.42
0 -4 -4 2618.95 59.7
0 4 4 2623.78 58.9
0 4 5 184.15 6.83
0 -4 -5 174.28 7.36
0 4 5 184.84 7.26
0 4 5 186.95 7.2
0 4 5 181.36 7.19
0 -4 -5 188.71 7.17
0 -4 -5 195.12 7.35
0 -4 -5 180.4 7.09
0 -4 -5 184.6 7.11
0 -4 -5 183.95 7.14
0 -4 -5 187.19 7.28
0 -4 -5 190.4 6.86
0 4 5 187.05 7.1
0 4 5 184.33 6.41
0 4 6 1370.14 33.35
0 4 6 1385.07 34.31
0 -4 -6 1378.02 34.62
0 4 6 1400.18 34.21
0 4 6 1413.11 34.38
0 -4 -6 1400.61 34.15
0 -4 -6 1389.73 34.3
0 4 6 1340.44 33.01
0 -4 -6 1377.66 33.71
0 -4 -6 1350.05 34.08
0 -4 -6 1382.02 34.3
0 -4 -6 1354.7 34.04
0 -4 -6 1412.37 33.66
0 4 6 1372.78 33.73
0 4 6 1380.93 32.5
0 4 7 8.08 1.43
0 -4 -7 8.6 1.57
0 4 7 7.63 1.52
0 4 7 8.88 1.59
0 4 7 6.04 1.35
0 -4 -7 6.45 1.39
0 -4 -7 6.32 1.24
0 4 7 6.2 1.15
0 -4 -7 6.5 1.37
0 -4 -7 7.42 1.51
0 -4 -7 6.8 1.39
0 -4 -7 6.99 1.42
0 -4 -7 8.33 1.56
0 4 7 9.19 1.46
0 4 7 10.57 1.31
0 4 8 118.17 5.85
0 -4 -8 119.27 6.74
0 4 8 121.92 6.56
0 4 8 123.93 6.52
0 4 8 124.13 6.47
0 -4 -8 116.88 6.34
0 -4 -8 107.96 5.65
0 4 8 114.72 5.46
0 -4 -8 121.53 6.45
0 -4 -8 119.14 6.41
0 -4 -8 124.65 6.52
0 -4 -8 108.68 6.05
0 4 8 111.68 5.77
0 4 8 107.53 4.78
0 4 9 44.6 3.6
0 4 9 48.87 4.2
0 -4 -9 49.38 4.35
0 4 9 47.73 4.15
0 4 9 54.63 4.41
0 -4 -9 51.01 4.26
0 4 9 49.24 3.6
0 -4 -9 47.84 3.77
0 -4 -9 49.31 4.17
0 -4 -9 49.11 4.12
0 -4 -9 51.69 4.33
0 4 9 47.69 3.69
0 -4 -9 44.18 3.9
0 4 9 48.4 3
0 -4 -10 6.4 1.72
0 4 10 5.23 1.55
0 4 10 5.37 1.58
0 4 10 4.72 1.44
0 4 10 6.09 1.28
0 -4 -10 10.05 1.75
0 -4 -10 6.92 1.75
0 -4 -10 7.41 1.63
0 -4 -10 7.34 1.63
0 -4 -10 6.57 1.81
0 -4 -10 4.07 1.2
0 4 10 4.13 1.26
0 4 10 7.18 1.54
0 4 11 73.55 5.95
0 -4 -11 71.25 6.05
0 4 11 65.98 5.46
0 4 11 67.91 5.63
0 -4 -11 65.55 5.47
0 4 11 64.36 4.52
0 -4 -11 65.95 4.68
0 -4 -11 67.48 5.58
0 -4 -11 68.53 5.54
0 -4 -11 63.1 5.39
0 -4 -11 57.92 5.19
0 4 11 55.77 4.46
0 -4 -12 273.06 13.04
0 4 12 305.21 13.82
0 4 12 292.83 13.49
0 -4 -12 287.59 13.26
0 -4 -12 274.39 13.12
0 -4 -12 293.83 13.6
0 -4 -12 285.8 13.31
0 4 12 284.75 13.6
0 -4 -12 294.6 14.1
0 -4 -13 120.28 8.98
0 4 13 117.15 8.71
0 -4 -13 123.44 8.63
0 4 13 117.18 8.45
0 4 13 126.63 8.85
0 -4 -13 104.06 8.07
0 -4 -13 124.47 8.65
0 -4 -13 118.6 8.39
0 -4 -13 125.91 8.65
0 4 13 107.13 6.89
0 4 14 3.28 2.02
0 -4 -14 3.85 2.07
0 -4 -14 5.05 1.98
0 -4 -14 3.59 2.13
0 4 14 1.63 1.61
0 -4 -14 1.53 1.18
0 -4 -14 1.47 1.44
0 -4 -14 1.02 1.47
0 4 14 1.75 1.53
0 4 15 8.57 2.84
0 4 15 8.84 2.59
0 -4 -15 10.04 2.89
0 -4 -15 14.06 3.4
0 -4 -15 12.36 3.16
0 -4 -15 9.99 2.64
0 -4 -15 12.29 3.04
0 -4 -15 11.23 3.1
0 4 15 11.88 3.21
0 -4 -15 10.31 3.09
0 5 -12 75.22 7.08
0 5 -11 15.95 3.28
0 -5 11 14.47 3.04
0 -5 11 15.12 3.16
0 -5 11 13.31 3.05
0 -5 11 16.02 3.15
0 -5 11 13.44 3.32
0 5 -11 10.6 2.69
0 5 -11 10.16 2.65
0 5 -11 16.47 3.31
0 -5 11 20.68 4.06
0 5 -11 17.32 3.63
0 5 -11 13.89 2.94
0 5 -10 38.72 4.86
0 -5 10 42.05 4.92
0 -5 10 35.02 4.35
0 -5 10 39.35 4.64
0 -5 10 35.41 4.39
0 -5 10 36.05 4.48
0 -5 10 34.45 4.85
0 -5 10 37.4 4.36
0 5 -10 44.03 4.14
0 5 -10 33.62 4.24
0 5 -10 31.4 4.26
0 -5 10 41.29 5.3
0 5 -10 37.71 4.53
0 5 -10 40.8 4.63
0 5 -10 40.44 4.5
0 -5 9 11.37 2.53
0 5 -9 13.07 2.64
0 -5 9 10.73 2.27
0 -5 9 13.11 2.57
0 -5 9 14.43 2.7
0 -5 9 16.5 2.89
0 -5 9 15.76 3.03
0 -5 9 12.54 2.61
0 5 -9 12.03 2.09
0 5 -9 9.87 2.46
0 5 -9 12.01 2.41
0 -5 9 9.14 2.53
0 5 -9 14.35 2.72
0 5 -9 13 2.4
0 5 -9 8.24 1.92
0 5 -8 28.23 3.66
0 -5 8 30.13 3.71
0 -5 8 32.46 3.74
0 -5 8 27.15 3.46
0 -5 8 27.87 3.48
0 -5 8 30.32 3.61
0 5 -8 34.29 3.4
0 -5 8 30.16 3.76
0 5 -8 28.62 3.76
0 5 -8 31.77 3.66
0 5 -8 35.77 3.76
0 5 -8 27.37 3.43
0 -5 8 26.34 3.78
0 -5 8 30.98 4.12
0 5 -8 28.09 3.47
0 5 -7 1.48 0.83
0 -5 7 2.7 1.34
0 -5 7 3.95 1.1
0 -5 7 3.33 1.28
0 -5 7 7.14 1.76
0 -5 7 3.19 1.3
0 -5 7 4.47 1.56
0 -5 7 3.7 1.46
0 5 -7 5.76 1.49
0 5 -7 4.08 1.35
0 5 -7 1.88 0.96
0 -5 7 0.99 0.81
0 5 -7 4.57 1.34
0 5 -7 5.17 1.56
0 5 -7 6.5 1.69
0 -5 6 41.09 3.8
0 5 -6 41.15 3.93
0 -5 6 39.99 3.57
0 -5 6 36.79 3.49
0 -5 6 34.63 3.38
0 -5 6 38.65 3.61
0 -5 6 39.63 3.87
0 5 -6 43.47 3.55
0 5 -6 36.33 3.57
0 5 -6 37.58 3.4
0 5 -6 36.35 3.44
0 -5 6 34.48 3.76
0 5 -6 35.93 3.39
0 -5 6 37.76 3.98
0 5 -5 8.65 1.79
0 -5 5 12.23 2.05
0 -5 5 11.89 1.92
0 -5 5 11.79 1.85
0 -5 5 13.02 2.02
0 -5 5 11.47 1.89
0 -5 5 11.09 2.03
0 -5 5 14.05 2.25
0 5 -5 11.89 1.87
0 5 -5 7.6 1.59
0 5 -5 12.7 1.79
0 -5 5 11.43 2.02
0 5 -5 10.8 1.86
0 5 -5 11.89 1.88
0 -5 4 25.56 2.83
0 5 -4 22.41 2.66
0 -5 4 23.57 2.62
0 -5 4 25.76 2.58
0 -5 4 23.08 2.44
0 -5 4 27.61 2.67
0 -5 4 25.38 2.56
0 -5 4 26.45 2.65
0 5 -4 24.24 2.49
0 5 -4 22.75 2.51
0 5 -4 25.28 2.33
0 -5 4 23.03 2.7
0 5 -4 21.18 2.38
0 -5 4 24.45 2.73
0 5 -4 24.27 2.52
0 -5 3 279.76 10.08
0 5 -3 263.82 9.85
0 -5 3 271.65 9.78
0 -5 3 272.47 9.42
0 -5 3 269.06 9.44
0 -5 3 271.9 9.43
0 -5 3 265.52 9.47
0 -5 3 261.82 9.36
0 5 -3 256.01 9.09
0 5 -3 243.14 7.21
0 5 -3 268.58 9.6
0 -5 3 264.02 9.88
0 5 -3 260.37 9.31
0 5 -3 243.44 8.32
0 5 -3 252.77 8.84
0 -5 3 280.06 9.99
0 -5 2 78 3.77
0 -5 2 91.25 4.96
0 5 -2 85.65 3.34
0 -5 2 88.17 4.76
0 5 -2 89.53 4.91
0 -5 2 90.81 4.62
0 -5 2 87.35 4.55
0 -5 2 91.33 4.6
0 -5 2 90.51 4.62
0 -5 2 86.39 4.57
0 5 -2 83.15 4.57
0 5 -2 89.81 4.62
0 -5 2 84.5 4.74
0 5 -2 80.86 3.75
0 5 -2 83.26 4.18
0 -5 2 87.55 4.71
0 -5 1 207.77 6.88
0 5 -1 211.51 6.43
0 -5 1 225.29 8.34
0 -5 1 226.69 5.85
0 -5 1 228.19 7.88
0 -5 1 217.76 7.81
0 -5 1 228.78 7.94
0 -5 1 219.3 7.87
0 -5 1 212.98 7.82
0 -5 1 217.57 8.04
0 5 -1 233.91 8.07
0 5 -1 225.96 7.46
0 5 0 1373.83 31.68
0 -5 0 1390.92 33.79
0 -5 0 1423.33 33.18
0 -5 0 1338.3 33.08
0 -5 0 1382.58 33.17
0 -5 0 1379.43 33.14
0 -5 0 1374.86 32.99
0 -5 0 1376.5 33.14
0 -5 0 1358.14 33.24
0 5 0 1400.8 33.31
0 5 0 1386.54 32.62
0 -5 0 1395.69 33.08
0 -5 -1 154.05 6.41
0 5 1 156.18 5.45
0 5 1 144.91 6.02
0 -5 -1 155.05 6.07
0 -5 -1 158.11 6.18
0 -5 -1 158.8 6.16
0 -5 -1 151.51 6.11
0 -5 -1 146.92 5.82
0 -5 -1 146.87 6.01
0 5 1 158.88 6.23
0 -5 -1 146.31 6.02
0 -5 -1 151.31 5.87
0 -5 -2 600.78 16.31
0 -5 -2 596.92 16.22
0 -5 -2 575.98 16.13
0 -5 -2 608.35 16.3
0 5 2 581.17 15.58
0 -5 -2 600.89 16.71
0 5 2 578.95 16.13
0 -5 -3 1294.32 30.98
0 -5 -3 1279.88 30.9
0 -5 -3 1245.59 30.8
0 -5 -3 1235.92 31.37
0 5 3 1214.14 31.22
0 -5 -3 1245.1 30.93
0 -5 -3 1260.22 30.82
0 5 3 1249.32 31.06
0 5 3 1277.33 30.59
0 5 3 1286.62 30.41
0 -5 -3 1254.43 31.24
0 5 4 34.93 2.88
0 -5 -4 32.43 2.72
0 -5 -4 32.53 2.71
0 -5 -4 35.11 2.81
0 -5 -4 34.2 2.89
0 5 4 34.62 2.85
0 -5 -4 34.16 2.78
0 -5 -4 33.99 2.78
0 5 4 30.87 2.69
0 -5 -4 38.97 3.06
0 5 4 35.82 2.67
0 5 5 1240.25 29.36
0 -5 -5 1260.29 30.49
0 5 5 1268.76 30.27
0 -5 -5 1252.6 30.63
0 5 5 1236.13 30.18
0 -5 -5 1276.73 30.06
0 -5 -5 1271.82 30.19
0 -5 -5 1257.68 30.11
0 -5 -5 1284.28 30.08
0 5 5 1204.02 29.86
0 5 5 1240.49 28.86
0 -5 -6 453.05 14.52
0 5 6 440.66 13.52
0 -5 -6 450.53 14.63
0 5 6 461.15 14.36
0 5 6 464.36 14.53
0 5 6 442.81 14.2
0 -5 -6 434.31 14.01
0 -5 -6 444.05 14.26
0 -5 -6 426.35 13.98
0 -5 -6 456.27 14.4
0 -5 -6 439.54 14.13
0 -5 -6 459.26 14.23
0 5 6 457.51 14.05
0 5 6 448.2 13.04
0 5 7 92.88 5.08
0 5 7 100.59 5.77
0 -5 -7 98.36 5.91
0 5 7 95.11 5.56
0 5 7 98.24 5.72
0 -5 -7 101.03 5.8
0 -5 -7 98.55 5.63
0 -5 -7 94.2 5.37
0 -5 -7 100.94 5.7
0 -5 -7 92.23 5.56
0 -5 -7 101.8 5.75
0 5 7 98.91 5.39
0 -5 -7 99.41 5.43
0 5 7 98.84 4.71
0 5 8 21.42 2.41
0 -5 -8 24.7 3.02
0 5 8 27.28 2.99
0 5 8 26.53 2.96
0 5 8 24.42 2.85
0 -5 -8 23.45 2.8
0 -5 -8 29.18 3.08
0 -5 -8 21.93 2.59
0 -5 -8 22.9 2.74
0 -5 -8 26.35 2.86
0 -5 -8 25.38 2.85
0 -5 -8 24.88 2.78
0 5 8 22.93 2.52
0 5 8 22.77 2.15
0 5 9 145.28 7.17
0 5 9 160.29 8.27
0 -5 -9 160.54 8.57
0 5 9 156.05 8.11
0 5 9 162.37 8.33
0 -5 -9 149.63 7.95
0 -5 -9 157.34 8.32
0 -5 -9 159.95 7.67
0 -5 -9 155.55 8.08
0 -5 -9 149.93 8.07
0 -5 -9 163.01 8.23
0 5 9 151.23 7.39
0 -5 -9 167.81 8.17
0 5 9 159.29 6.47
0 5 10 82.76 5.35
0 -5 -10 81.14 6.29
0 5 10 91.46 6.45
0 5 10 85.89 6.18
0 5 10 91.04 6.29
0 -5 -10 90.97 6.4
0 -5 -10 90.52 6.22
0 -5 -10 79.09 5.39
0 -5 -10 94.52 6.48
0 -5 -10 89.69 6.25
0 -5 -10 89.73 6.23
0 -5 -10 80.14 5.82
0 5 10 79.84 5.28
0 5 10 87.79 4.64
0 5 11 2.42 1.3
0 5 11 0.13 0.82
0 -5 -11 1.13 1.04
0 -5 -11 0.53 0.8
0 -5 -11 0.59 0.96
0 -5 -11 0.82 0.97
0 -5 -11 0.61 0.87
0 -5 -11 0.5 0.85
0 -5 -11 0.81 1.16
0 5 11 1.94 1.27
0 -5 -11 -0.5 0.9
0 5 12 13.79 2.76
0 -5 -12 13.49 2.83
0 5 12 10.26 2.48
0 -5 -12 11.97 2.57
0 5 12 15.15 2.76
0 -5 -12 14.78 2.82
0 -5 -12 9.1 2.27
0 -5 -12 12.27 2.54
0 -5 -12 12.95 2.57
0 -5 -12 9.71 2.31
0 5 12 14.39 2.54
0 -5 -13 81.41 7.36
0 5 13 84.86 7.31
0 -5 -13 75.72 6.9
0 -5 -13 85.19 7.15
0 5 13 75.75 6.97
0 5 13 75.79 6.82
0 -5 -13 79.14 6.87
0 -5 -13 73.08 6.7
0 -5 -13 82.89 7.23
0 -5 -13 80.61 6.93
0 5 13 72.08 5.71
0 5 14 619.01 23.9
0 -5 -14 587.89 23.92
0 -5 -14 581.92 23.3
0 -5 -14 621.91 23.45
0 5 14 625.96 23.61
0 5 14 648.83 24.22
0 -5 -14 585.15 22.94
0 -5 -14 597.32 23.52
0 -5 -14 572.04 22.9
0 -5 -14 600.55 23
0 5 14 580.78 20.38
0 5 15 157.25 11.12
0 5 15 154.42 11.12
0 -5 -15 148.44 10.84
0 -5 -15 159.81 10.93
0 -5 -15 147.36 10.81
0 -5 -15 164.82 11.21
0 -5 -15 153.05 10.73
0 -5 -15 146.21 10.74
0 -5 -15 152.16 11.37
0 5 15 161.24 11.39
0 -6 11 23.46 4.18
0 6 -11 15.45 3.3
0 -6 11 14.09 3.01
0 -6 11 21.02 3.77
0 -6 11 18.02 3.47
0 -6 11 19.58 3.56
0 -6 11 23.01 4.59
0 6 -11 21.81 3.74
0 6 -11 12.63 3.1
0 -6 11 21.81 4.25
0 6 -11 11.07 2.81
0 6 -11 22.11 3.64
0 6 -10 1.99 1.59
0 -6 10 2.54 1.73
0 -6 10 0.4 0.96
0 -6 10 0.82 1.13
0 -6 10 3.57 1.81
0 -6 10 3.31 1.72
0 -6 10 0.12 1.17
0 -6 10 2.18 1.33
0 6 -10 3.39 1.46
0 6 -10 0.69 1.07
0 6 -10 2.33 1.42
0 6 -10 4.55 1.89
0 -6 10 1.13 1.32
0 6 -10 0.98 1.08
0 6 -10 4.11 1.86
0 -6 9 0.85 1.39
0 6 -9 1.35 1.28
0 -6 9 3.06 1.56
0 -6 9 0.6 1.2
0 -6 9 3.07 1.52
0 -6 9 0.89 1.25
0 -6 9 0.61 0.99
0 6 -9 -0.33 0.86
0 -6 9 -0.06 0.97
0 6 -9 1.86 1.75
0 6 -9 2.06 1.35
0 -6 9 3.58 1.76
0 6 -9 1.62 1.58
0 6 -9 1.06 0.99
0 6 -9 2.41 1.5
0 6 -8 38.93 4.6
0 -6 8 44.94 4.85
0 -6 8 42.39 4.47
0 -6 8 41.84 4.47
0 -6 8 38.94 4.32
0 -6 8 43.13 4.52
0 -6 8 33.63 4.29
0 6 -8 43.08 4.18
0 6 -8 35.29 4.14
0 6 -8 38.02 4.48
0 6 -8 46.41 4.34
0 -6 8 44.66 5.12
0 6 -8 42.57 4.45
0 -6 8 41.32 4.94
0 6 -8 43.63 4.37
0 -6 7 107.36 7.08
0 6 -7 98.48 6.97
0 -6 7 103.7 6.79
0 -6 7 105.34 6.8
0 -6 7 104.02 6.8
0 -6 7 94.08 6.57
0 6 -7 102.87 6.28
0 -6 7 92.9 6.79
0 6 -7 108.73 6.99
0 6 -7 90.36 6.69
0 6 -7 102.95 6.31
0 6 -7 98.49 6.66
0 -6 7 95.34 7.23
0 -6 7 103.45 7.48
0 6 -7 99.08 6.29
0 -6 6 1.36 1.14
0 6 -6 4.55 1.67
0 -6 6 2.58 1.17
0 -6 6 1.29 0.84
0 -6 6 3.65 1.35
0 -6 6 0.93 0.91
0 -6 6 2.87 1.12
0 6 -6 5.42 1.43
0 -6 6 2.77 1.5
0 6 -6 2.32 1.21
0 -6 6 3.61 1.65
0 6 -6 3.83 1.32
0 6 -6 4.76 1.54
0 6 -6 5.12 1.46
0 -6 5 85.55 5.81
0 6 -5 81.14 5.8
0 -6 5 87.86 5.61
0 -6 5 96.08 5.81
0 -6 5 87.18 5.58
0 -6 5 94.22 5.79
0 6 -5 105.39 5.93
0 6 -5 93.73 5.87
0 6 -5 85.23 4.99
0 -6 5 96.76 6.42
0 6 -5 92.72 5.75
0 6 -5 90.07 5.38
0 -6 5 98.12 6.42
0 -6 4 8.48 1.82
0 6 -4 8.36 1.8
0 -6 4 11.28 2
0 -6 4 8.82 1.66
0 -6 4 8.48 1.62
0 -6 4 9.13 1.79
0 -6 4 11.56 1.91
0 -6 4 9.25 1.73
0 6 -4 9.2 1.65
0 -6 4 9.12 1.88
0 6 -4 8.32 1.77
0 6 -4 6.37 1.46
0 6 -4 7.17 1.28
0 -6 4 11.65 2.05
0 6 -4 9.43 1.68
0 -6 3 248.2 10.28
0 6 -3 244.37 10.06
0 -6 3 260.75 10.1
0 -6 3 273.52 9.97
0 -6 3 260.73 9.74
0 -6 3 244.03 9.55
0 -6 3 254.8 9.72
0 -6 3 259.35 9.9
0 6 -3 269.83 9.82
0 6 -3 245.07 9.79
0 6 -3 234.25 9.46
0 6 -3 245.46 8.5
0 -6 3 251.14 10.26
0 -6 3 260.54 10.25
0 6 -3 254.43 9.19
0 -6 2 135.54 6.76
0 -6 2 124.33 5.28
0 6 -2 128.69 4.65
0 -6 2 132.89 6.45
0 6 -2 129.02 6.49
0 -6 2 137.2 6.31
0 -6 2 135.77 6.27
0 -6 2 133.45 6.3
0 -6 2 133.59 6.32
0 -6 2 133.63 6.28
0 6 -2 122.11 6.22
0 -6 2 130.91 6.57
0 6 -2 124.43 6.13
0 6 -2 110.68 4.93
0 6 -2 138.24 5.9
0 -6 2 124.08 6.33
0 -6 1 976.68 24.56
0 -6 1 1041.6 26.96
0 6 -1 1058.69 24.03
0 -6 1 990.5 22.75
0 -6 1 1041.56 26.11
0 -6 1 1043.34 26.15
0 -6 1 1003.04 26.01
0 -6 1 1020.28 26.16
0 -6 1 1028.44 26.27
0 6 -1 982.41 25.98
0 -6 1 1015.72 26.5
0 6 -1 895.83 23.79
0 6 -1 1082 25.58
0 6 0 60.59 3.12
0 -6 0 67.42 4.42
0 -6 0 48.12 2.88
0 -6 0 61.2 3.91
0 -6 0 64.22 4
0 -6 0 66.66 4.06
0 -6 0 71.64 4.2
0 -6 0 63.15 3.95
0 -6 0 67.38 4.08
0 -6 0 56.7 3.9
0 6 0 49.28 2.81
0 6 0 78.52 4.43
0 6 0 64.91 3.77
0 -6 0 54.73 3.73
0 6 1 1632.88 36.38
0 -6 -1 1530.95 38.25
0 6 1 1487.59 37.48
0 -6 -1 1547.63 37.51
0 -6 -1 1563.66 37.68
0 -6 -1 1550.86 37.57
0 -6 -1 1557.47 37.66
0 -6 -1 1552.79 37.37
0 -6 -1 1526.55 37.51
0 -6 -1 1570.33 37.83
0 6 1 1594.16 37.85
0 -6 -1 1507.58 37.22
0 -6 -2 2533.81 59.69
0 -6 -2 2532.9 59.7
0 -6 -2 2528.65 59.71
0 -6 -2 2545.05 59.72
0 6 2 2632.37 59.67
0 -6 -2 2540.28 60.44
0 6 2 2689.3 58.86
0 -6 -2 2495.48 59.16
0 -6 -3 752.84 20.53
0 -6 -3 752.59 20.54
0 6 3 726.3 20.85
0 -6 -3 739.82 21.08
0 -6 -3 742.01 20.42
0 -6 -3 747.25 20.62
0 -6 -3 756.64 20.56
0 6 3 752.63 19.79
0 -6 -3 760.03 21.1
0 6 3 755.43 20.25
0 -6 -4 208.77 8.32
0 -6 -4 196.16 8.1
0 -6 -4 207.24 8.26
0 -6 -4 195.1 8.45
0 6 4 192.18 8.27
0 -6 -4 200.7 8.14
0 -6 -4 198.54 8.23
0 6 4 207.63 8.37
0 -6 -4 203.44 8.51
0 6 4 205.26 7.79
0 6 4 190.43 7.87
0 6 5 72.23 4.33
0 6 5 65.24 4.21
0 -6 -5 75.01 4.83
0 -6 -5 69.52 4.55
0 -6 -5 70.71 4.53
0 -6 -5 72.16 4.56
0 6 5 66.85 4.55
0 -6 -5 70.64 4.79
0 -6 -5 69.25 4.48
0 -6 -5 74.75 4.71
0 6 5 68.56 4.45
0 6 5 69.78 4.06
0 6 6 52.29 3.76
0 -6 -6 56.77 4.37
0 6 6 57.3 4.01
0 6 6 54 4.2
0 -6 -6 58.06 4.17
0 -6 -6 59.93 4.28
0 6 6 61.43 4.44
0 -6 -6 55.18 4.35
0 -6 -6 60.66 4.28
0 -6 -6 62.35 4.38
0 6 6 60.55 4.25
0 6 6 56.66 3.66
0 -6 -7 7.12 1.6
0 6 7 6.72 1.35
0 6 7 6.3 1.42
0 -6 -7 7.98 1.68
0 6 7 6.35 1.55
0 -6 -7 7.41 1.69
0 -6 -7 8.98 1.74
0 -6 -7 6.69 1.56
0 -6 -7 8.66 1.68
0 6 7 5.58 1.39
0 6 7 6.71 1.34
0 6 8 -0.18 0.56
0 -6 -8 -0.04 0.63
0 6 8 0.39 0.78
0 6 8 -0.21 0.81
0 -6 -8 1.22 0.84
0 6 8 -0.51 0.68
0 -6 -8 1.65 1.01
0 -6 -8 -1.16 1.16
0 -6 -8 -0.98 1.03
0 -6 -8 -0.79 0.79
0 6 8 0.03 0.57
0 -6 -8 1.08 0.88
0 6 8 1.09 0.74
0 6 9 73.12 4.97
0 6 9 77.6 5.76
0 6 9 82.64 6.02
0 -6 -9 87.12 5.98
0 -6 -9 88.8 6.21
0 -6 -9 79.22 6.05
0 6 9 84.17 5.97
0 -6 -9 75.13 5.74
0 -6 -9 82.24 5.82
0 -6 -9 83.29 5.94
0 6 9 75.59 5.16
0 6 9 72.87 4.41
0 6 10 69.25 4.9
0 6 10 74.31 5.84
0 6 10 68.31 5.7
0 -6 -10 71.76 5.68
0 -6 -10 71.17 5.81
0 -6 -10 62.64 5.53
0 6 10 67.55 5.58
0 -6 -10 69.42 5.6
0 -6 -10 70.74 5.77
0 -6 -10 72.45 5.73
0 6 10 69.27 5
0 6 10 70.17 4.31
0 -6 -11 -0.89 1.3
0 6 11 -0.86 0.8
0 -6 -11 0.23 1.22
0 6 11 0.55 0.97
0 6 11 -0.33 0.82
0 -6 -11 1.25 1.35
0 -6 -11 -1.21 1.17
0 -6 -11 0.62 0.96
0 6 11 0.31 0.61
0 -6 -11 -0.85 0.93
0 6 11 2.33 1.08
0 -6 -12 64.65 6
0 -6 -12 59.63 5.88
0 6 12 66.82 6.15
0 6 12 63.14 6
0 -6 -12 59.86 5.74
0 -6 -12 68.55 6.26
0 -6 -12 62.9 5.91
0 6 12 63.41 5.97
0 -6 -12 64.09 6.22
0 6 12 58.19 4.99
0 -6 -13 108.61 8.28
0 -6 -13 111.6 8.56
0 6 13 93.77 7.77
0 6 13 116.97 8.7
0 -6 -13 114.08 8.49
0 -6 -13 103.01 8.22
0 -6 -13 119.05 8.75
0 6 13 116.76 8.7
0 -6 -13 103.88 8.54
0 6 13 102.44 7.13
0 -6 -14 146.59 10.09
0 -6 -14 146.55 10.32
0 6 14 144.66 10.16
0 6 14 134.33 9.93
0 -6 -14 126.23 9.37
0 -6 -14 134.8 9.76
0 -6 -14 145.78 10.23
0 6 14 114.18 7.87
0 -6 -14 157.14 10.94
0 6 14 133.44 9.75
0 6 15 5.89 2.14
0 -6 -15 3.94 1.71
0 6 15 3.11 1.99
0 -6 -15 3.49 1.71
0 -6 -15 4.31 2.05
0 -6 -15 7.35 2.45
0 -6 -15 7.01 2.57
0 6 15 3.73 2.05
0 -6 -15 8.91 2.93
0 7 -10 -2.2 2.14
0 -7 10 1.19 1.18
0 -7 10 -0.13 1.21
0 -7 10 -0.75 1.12
0 -7 10 -1.95 1.71
0 -7 10 -1.86 1.38
0 7 -10 1.02 1.42
0 -7 10 0.05 1.25
0 7 -10 -0.9 1.22
0 7 -10 0.32 1.11
0 7 -10 -1.86 1.65
0 -7 10 0.08 1.35
0 7 -10 0.04 1.02
0 -7 9 24.97 4.03
0 7 -9 20.88 3.74
0 -7 9 21.79 3.5
0 -7 9 24.79 3.79
0 -7 9 24.13 3.69
0 -7 9 25.05 3.76
0 -7 9 24.52 3.81
0 -7 9 24.38 4.23
0 7 -9 24.12 3.38
0 7 -9 21.63 3.5
0 7 -9 18.51 3.27
0 7 -9 28.64 4.11
0 -7 9 27.14 4.51
0 7 -9 21.38 3.18
0 -7 8 45.74 5.03
0 7 -8 43.13 4.93
0 -7 8 41.17 4.61
0 -7 8 38.92 4.55
0 -7 8 45.59 4.89
0 -7 8 34.65 4.31
0 -7 8 42.94 5.12
0 7 -8 42.15 4.43
0 7 -8 31.77 4.31
0 7 -8 38.57 4.51
0 7 -8 37.37 4.43
0 -7 8 43.91 5.47
0 7 -8 40.22 4.41
0 -7 8 41.65 5.17
0 7 -7 12.55 2.66
0 -7 7 14.13 2.76
0 -7 7 13.82 2.53
0 -7 7 19.11 3.07
0 -7 7 15.04 2.78
0 -7 7 12.77 2.4
0 7 -7 13.23 2.52
0 -7 7 12.53 2.73
0 -7 7 10.55 2.49
0 7 -7 11.2 2.61
0 7 -7 11.01 2.49
0 -7 7 12.08 2.75
0 7 -7 13.98 2.61
0 7 -7 15.49 2.68
0 -7 6 54.3 5.11
0 7 -6 53.48 5.15
0 -7 6 60.05 5.04
0 -7 6 52.7 4.69
0 -7 6 57.16 4.94
0 -7 6 61.63 5.12
0 7 -6 57.15 4.66
0 -7 6 52.58 5.18
0 7 -6 50.96 4.71
0 -7 6 49.15 5.14
0 7 -6 50.38 4.61
0 7 -6 52.05 4.19
0 7 -6 47.48 4.42
0 -7 6 58.75 5.55
0 7 -5 41.99 4.25
0 -7 5 42.97 4.22
0 -7 5 41.65 4.05
0 -7 5 41.33 4.06
0 -7 5 39.64 3.95
0 -7 5 49.17 4.39
0 7 -5 47.22 4.15
0 7 -5 40.45 4.08
0 7 -5 38.2 3.93
0 7 -5 41.66 3.46
0 -7 5 44.96 4.6
0 -7 5 41.14 4.3
0 7 -5 41.79 3.73
0 -7 4 261.49 11.59
0 -7 4 276.56 11.5
0 7 -4 258.55 11.39
0 -7 4 275.29 11
0 -7 4 266.85 10.87
0 -7 4 287.36 11.2
0 -7 4 278.21 11.16
0 -7 4 274.48 11.04
0 7 -4 306.31 11.27
0 7 -4 264.18 10.99
0 -7 4 271.38 11.77
0 7 -4 241.15 9.38
0 7 -4 261.81 10.79
0 -7 4 276.79 11.82
0 7 -4 259.19 10.26
0 -7 3 118.29 7.04
0 7 -3 118.79 6.86
0 -7 3 127.17 6.94
0 -7 3 113.22 6.31
0 -7 3 125.01 6.55
0 -7 3 124.32 6.59
0 -7 3 124.44 6.64
0 -7 3 121.21 6.51
0 7 -3 130.41 6.6
0 7 -3 112.71 6.48
0 7 -3 102.25 5.13
0 -7 3 118.02 6.95
0 7 -3 111.62 6.3
0 -7 3 117.65 6.82
0 7 -3 113.09 5.91
0 -7 2 0.03 0.43
0 -7 2 -0.15 0.66
0 7 -2 0.33 0.82
0 -7 2 0.96 0.91
0 -7 2 -0.02 0.64
0 -7 2 -0.41 0.54
0 -7 2 0.61 0.77
0 -7 2 -0.06 0.63
0 -7 2 0.16 0.61
0 7 -2 -0.03 0.68
0 -7 2 0.11 0.65
0 7 -2 0.95 0.85
0 -7 2 -0.08 0.69
0 7 -2 0.22 0.71
0 7 -2 0.25 0.5
0 7 -2 0.08 0.68
0 7 -1 44.64 2.65
0 -7 1 40.17 3.74
0 -7 1 36.5 2.7
0 -7 1 42.5 3.52
0 -7 1 42.74 3.48
0 -7 1 38.18 3.37
0 -7 1 39.36 3.39
0 -7 1 40.72 3.49
0 7 -1 40.74 3.44
0 7 -1 37.97 2.53
0 -7 1 41.69 3.68
0 7 -1 38.44 3.03
0 7 0 1152.74 26.74
0 -7 0 1136.65 29.73
0 -7 0 1133.51 28.68
0 -7 0 1133.45 28.75
0 -7 0 1156.31 28.89
0 -7 0 1138.69 28.82
0 -7 0 1117.11 28.69
0 -7 0 1131.72 28.69
0 -7 0 1109.11 29.1
0 7 0 1089.9 28.67
0 7 0 1038.49 27.5
0 -7 -1 1000.93 27.28
0 7 1 1019.2 24.77
0 -7 -1 1005.45 26.35
0 -7 -1 1006.94 26.46
0 -7 -1 999.85 26.4
0 -7 -1 986.91 26.34
0 -7 -1 975.45 26.05
0 -7 -1 999.98 26.39
0 7 1 958.02 26.3
0 -7 -1 984.24 26.59
0 -7 -1 996.01 26.15
0 7 1 982.48 25.41
0 -7 -2 503.68 16.11
0 7 2 531.83 14.43
0 7 2 472.47 15.07
0 -7 -2 471.34 15.11
0 -7 -2 490.19 15.32
0 -7 -2 482.96 15.24
0 -7 -2 485.55 15.25
0 -7 -2 497.12 15.04
0 -7 -2 498.3 15.36
0 -7 -2 477.05 15.34
0 7 2 487.58 15.43
0 -7 -2 482.99 14.87
0 -7 -3 567.51 17.13
0 -7 -3 569.4 17.16
0 -7 -3 567.27 17.12
0 -7 -3 573.33 17.16
0 7 3 553.21 16.02
0 7 3 535.98 16.69
0 -7 -3 563.77 17.68
0 -7 -4 502.49 15.89
0 -7 -4 511.7 15.99
0 -7 -4 499.26 16.48
0 7 4 472.43 16.07
0 -7 -4 514.53 15.98
0 -7 -4 489.21 15.98
0 -7 -4 505.8 16.04
0 7 4 550.79 15.55
0 -7 -4 505.34 16.55
0 7 4 504.93 15.67
0 -7 -5 3.52 1.26
0 7 5 4.35 1.19
0 7 5 4.13 1.04
0 -7 -5 4.79 1.35
0 -7 -5 4.35 1.28
0 -7 -5 2.7 1.1
0 -7 -5 2.27 1.09
0 7 5 1.49 0.9
0 -7 -5 5.62 1.44
0 -7 -5 3.26 1.08
0 7 5 2.59 1.12
0 7 5 4.65 1.12
0 7 6 23.76 2.68
0 -7 -6 27.93 3.16
0 7 6 25.96 2.83
0 -7 -6 23.95 2.9
0 -7 -6 24.53 2.9
0 -7 -6 26.86 3
0 7 6 26.8 3.1
0 -7 -6 23.6 2.98
0 -7 -6 19.05 2.64
0 -7 -6 26.58 2.99
0 7 6 23.93 2.84
0 7 6 24.51 2.55
0 7 7 304.61 11.56
0 -7 -7 306.09 12.51
0 7 7 295.65 11.19
0 7 7 297.13 12.2
0 -7 -7 313.32 12.24
0 -7 -7 316.44 12.39
0 7 7 300.19 12.35
0 -7 -7 310.37 12.77
0 -7 -7 296.5 12.1
0 -7 -7 306.65 12.13
0 7 7 306.01 11.87
0 7 7 311.09 10.91
0 7 8 27.51 3.22
0 7 8 26.04 2.89
0 -7 -8 29.24 3.54
0 7 8 24.65 3.13
0 -7 -8 28.06 3.38
0 -7 -8 30.07 3.41
0 -7 -8 29.16 3.62
0 7 8 26.96 3.39
0 -7 -8 30.52 3.48
0 -7 -8 24.06 3.09
0 7 8 28.01 3.19
0 7 8 29.02 2.8
0 -7 -9 177.89 9.49
0 7 9 169.5 8.19
0 7 9 169.03 8.51
0 7 9 182.46 9.37
0 -7 -9 173.74 9.21
0 -7 -9 180.76 9.23
0 -7 -9 166.04 9.49
0 7 9 165.47 9.12
0 -7 -9 183.33 9.28
0 -7 -9 166 8.98
0 7 9 158.54 8.29
0 7 9 170.39 7.57
0 7 10 -1.37 1.16
0 7 10 -0.05 0.83
0 -7 -10 0.3 1.01
0 7 10 1.04 1.05
0 -7 -10 0.97 1.3
0 7 10 -0.92 1.29
0 -7 -10 0.82 1.47
0 7 10 -0.26 1.22
0 -7 -10 -0.71 0.91
0 -7 -10 2.79 1.52
0 -7 -10 0.9 1.05
0 7 10 0.32 0.77
0 -7 -10 -0.9 1.02
0 7 10 0.46 0.68
0 -7 -11 112.56 8.11
0 7 11 107.46 7.04
0 7 11 122.72 8.22
0 7 11 112 7.77
0 -7 -11 122.15 8.07
0 -7 -11 113.68 7.94
0 -7 -11 115.54 8.36
0 7 11 111.31 7.85
0 -7 -11 111.93 7.88
0 -7 -11 110.72 7.75
0 -7 -11 122.81 8.07
0 7 11 108.47 6.86
0 7 11 111.83 6.02
0 -7 -12 57.67 5.88
0 -7 -12 57.29 5.68
0 7 12 56.98 5.79
0 7 12 58.71 5.82
0 -7 -12 50.79 5.41
0 -7 -12 49.07 5.35
0 -7 -12 55.68 5.83
0 7 12 48.91 4.84
0 -7 -12 54.67 5.8
0 -7 -12 60.11 6.25
0 7 12 58.47 5.83
0 -7 -13 1.14 1.49
0 7 13 0.53 1.29
0 -7 -13 2.17 1.5
0 7 13 0.1 0.96
0 7 13 3.23 1.98
0 -7 -13 0.56 0.9
0 -7 -13 -0.17 1.47
0 -7 -13 -0.4 0.96
0 -7 -13 1.51 1.33
0 7 13 0.36 1.11
0 -7 -13 -0.96 1.13
0 7 14 47.78 5.9
0 7 14 54.37 6.18
0 -7 -14 56.74 6.34
0 -7 -14 58.14 6.27
0 -7 -14 50.91 5.88
0 -7 -14 44.85 5.88
0 7 14 48.04 5.89
0 -7 -14 46.65 5.84
0 7 14 45.59 4.92
0 -7 -14 56.36 6.2
0 -7 -14 54.42 6.18
0 7 15 43.55 5.91
0 7 15 46.91 6.04
0 7 15 40.76 4.75
0 7 15 53.14 6.48
0 8 -9 -0.33 1.05
0 -8 9 3.45 1.91
0 -8 9 0.09 1.03
0 -8 9 0.28 1.49
0 -8 9 -0.06 1.66
0 -8 9 -0.19 1.41
0 8 -9 -0.8 0.98
0 -8 9 0.77 1.52
0 -8 9 1.24 1.53
0 8 -9 1.11 1.27
0 8 -9 -1.81 1.89
0 8 -9 1.19 1.65
0 -8 9 0.13 1.12
0 8 -9 -0.19 1.37
0 8 -8 30.85 4.44
0 -8 8 32.32 4.45
0 -8 8 30.7 4.35
0 -8 8 24.61 3.88
0 -8 8 36.12 4.55
0 -8 8 31.09 4.23
0 -8 8 27.23 4.37
0 8 -8 40.9 4.49
0 8 -8 31.74 4.35
0 8 -8 25.58 4.17
0 -8 8 33.65 4.89
0 8 -8 35.72 4.61
0 -8 8 38.38 5.19
0 8 -8 31.07 3.94
0 -8 7 7.73 2.36
0 8 -7 5.18 2.08
0 -8 7 6.38 1.8
0 -8 7 3.99 1.71
0 -8 7 1.56 1.22
0 -8 7 2.5 1.45
0 -8 7 6.31 2.16
0 -8 7 6.17 2.09
0 8 -7 4.53 1.56
0 8 -7 4.72 2.02
0 8 -7 5.15 1.78
0 -8 7 2.4 1.23
0 8 -7 4.89 1.75
0 8 -7 5.1 1.89
0 8 -6 64.1 5.96
0 -8 6 70.33 6.11
0 -8 6 72.05 5.88
0 -8 6 68.76 5.7
0 -8 6 77 6.04
0 -8 6 69 5.81
0 8 -6 84.99 6.19
0 -8 6 65.63 6.27
0 8 -6 66.09 5.71
0 -8 6 72.58 6.55
0 8 -6 66.73 5.64
0 -8 6 76.23 6.65
0 8 -6 73.23 5.57
0 8 -5 113.02 7.78
0 -8 5 126.97 8.02
0 -8 5 122.85 7.59
0 -8 5 124.14 7.56
0 -8 5 119.38 7.48
0 -8 5 120.02 7.5
0 8 -5 143.19 7.83
0 8 -5 116.92 7.51
0 -8 5 124.95 8.42
0 8 -5 115.48 7.38
0 -8 5 121.38 8.16
0 8 -5 123.35 7.11
0 -8 4 0.13 0.97
0 -8 4 2.02 1.36
0 8 -4 2.67 1.65
0 -8 4 1.15 1.06
0 -8 4 3.18 1.23
0 -8 4 1.53 0.99
0 -8 4 0.49 0.88
0 -8 4 0.61 0.81
0 8 -4 2.21 1.16
0 -8 4 2.29 1.31
0 8 -4 2.09 1.25
0 -8 4 2.86 1.47
0 8 -4 3.51 1.35
0 8 -4 1.72 1.09
0 -8 3 96.83 6.73
0 -8 3 100.81 6.51
0 8 -3 94.76 6.5
0 -8 3 95.28 6.11
0 -8 3 100.93 6.27
0 -8 3 104.31 6.4
0 -8 3 95.19 6.21
0 -8 3 95.13 6.12
0 8 -3 103.85 6.25
0 8 -3 94.28 6.25
0 8 -3 87.42 5.94
0 -8 3 101.51 6.85
0 -8 3 87.05 6.25
0 8 -3 90.78 5.53
0 -8 2 24.9 3.22
0 8 -2 27.24 3.27
0 -8 2 28.52 3.3
0 -8 2 23.33 2.83
0 -8 2 25.71 2.99
0 -8 2 29.22 3.21
0 -8 2 30.38 3.23
0 -8 2 28.79 3.17
0 8 -2 31.61 3.28
0 8 -2 26.98 3.19
0 -8 2 27.4 3.34
0 8 -2 25.42 2.93
0 8 -2 26.13 2.77
0 -8 2 27.27 3.21
0 -8 1 21.91 2.98
0 -8 1 26.37 2.97
0 -8 1 24.57 2.88
0 -8 1 26.02 2.96
0 -8 1 22.78 2.75
0 8 -1 23.89 2.76
0 -8 1 19.01 2.67
0 8 -1 23.39 2.86
0 -8 1 21.4 2.69
0 8 -1 24.53 2.55
0 8 0 74.05 3.94
0 -8 0 60.93 4.95
0 -8 0 68.62 3.98
0 -8 0 69.12 4.83
0 -8 0 68.09 4.76
0 -8 0 70.58 4.92
0 -8 0 67.89 4.8
0 -8 0 65.81 4.71
0 8 0 64.41 4.7
0 -8 0 69.01 5.03
0 8 0 64.74 4.25
0 8 1 278.75 9.19
0 -8 -1 252.07 10.96
0 -8 -1 242.35 10.09
0 -8 -1 253.02 10.3
0 -8 -1 268.26 10.51
0 -8 -1 266.42 10.47
0 -8 -1 265.06 10.32
0 -8 -1 267.17 10.45
0 -8 -1 253.7 10.56
0 8 1 260.34 10.47
0 -8 -1 252.25 10.11
0 8 1 246.87 9.45
0 -8 -2 1748.72 45.52
0 -8 -2 1772.48 44.47
0 -8 -2 1791.13 44.57
0 -8 -2 1748.89 44.45
0 -8 -2 1824.59 44.67
0 -8 -2 1778.5 44.12
0 -8 -2 1818.76 44.59
0 -8 -2 1776.62 44.79
0 8 2 1722.32 44.45
0 -8 -2 1745.53 44.02
0 8 2 1745.54 43.26
0 8 3 417.86 12.96
0 -8 -3 399.44 14.7
0 8 3 367.03 13.53
0 -8 -3 401.09 13.87
0 -8 -3 400.27 13.92
0 -8 -3 398.9 13.87
0 -8 -3 404.57 13.92
0 -8 -3 397.12 13.99
0 -8 -3 392.16 13.38
0 -8 -4 114.06 6.61
0 -8 -4 114.43 6.58
0 -8 -4 109.28 6.44
0 -8 -4 108.44 6.78
0 8 4 123.66 6.18
0 8 4 110.12 6.26
0 -8 -4 114.6 6.56
0 -8 -5 9.4 1.82
0 -8 -5 9.35 1.83
0 -8 -5 5.54 1.3
0 8 5 6.46 1.6
0 -8 -5 3.91 1.31
0 -8 -5 9.24 1.84
0 -8 -5 8.79 1.87
0 8 5 5.7 1.48
0 8 5 7.44 1.56
0 -8 -5 5.39 1.62
0 8 5 6.68 1.44
0 -8 -6 195.27 9.43
0 -8 -6 199.42 9.44
0 -8 -6 194.59 9.37
0 8 6 181.83 9.27
0 -8 -6 199.86 9.8
0 -8 -6 192.94 9.3
0 -8 -6 193.33 9.27
0 8 6 188.51 8.44
0 8 6 185.4 8.64
0 -8 -6 195.83 9.76
0 8 6 212.21 8.98
0 -8 -7 441.23 16.32
0 8 7 399.24 14.43
0 8 7 433.5 15.04
0 -8 -7 441.28 15.93
0 -8 -7 415.14 15.52
0 -8 -7 411.29 15.36
0 -8 -7 430.99 16.25
0 8 7 418.06 15.7
0 -8 -7 422.47 15.62
0 -8 -7 452.46 15.82
0 8 7 412.64 15.11
0 8 7 437.74 14.32
0 -8 -8 492.54 18.32
0 8 8 483.9 16.43
0 8 8 504.97 17.1
0 -8 -8 520.44 18.26
0 -8 -8 516.16 18.13
0 -8 -8 476.27 17.54
0 8 8 508.75 18.21
0 -8 -8 517.9 18.68
0 -8 -8 488.54 17.81
0 -8 -8 494.81 17.76
0 8 8 503.19 17.29
0 8 8 530.23 16.26
0 8 9 116.21 6.74
0 8 9 123.77 7.25
0 -8 -9 112.77 7.8
0 8 9 111.34 7.48
0 -8 -9 116.1 7.56
0 -8 -9 111.65 7.47
0 -8 -9 117.88 8.09
0 8 9 114.04 7.73
0 -8 -9 110.16 7.39
0 -8 -9 124.71 7.91
0 8 9 106.6 6.95
0 8 9 119.66 6.47
0 -8 -10 576.26 21.24
0 8 10 558.96 18.69
0 8 10 590.05 19.81
0 8 10 565.19 20.75
0 -8 -10 601.24 21.16
0 -8 -10 579.37 20.66
0 -8 -10 602.01 21.71
0 8 10 599.82 21.19
0 -8 -10 607.94 21.15
0 -8 -10 571.71 20.61
0 8 10 553.47 19.32
0 8 10 582.17 18.1
0 -8 -11 123.95 8.8
0 8 11 121.48 7.72
0 8 11 122.7 8.55
0 -8 -11 128.64 8.66
0 -8 -11 122.5 8.59
0 -8 -11 140.34 9.4
0 8 11 115.72 8.33
0 -8 -11 125.1 8.52
0 -8 -11 115.85 8.27
0 8 11 121.09 7.59
0 8 11 116.71 6.62
0 8 12 18.88 3.37
0 -8 -12 21.34 3.57
0 -8 -12 21.64 3.53
0 -8 -12 21.34 3.61
0 -8 -12 20.26 3.73
0 -8 -12 21.84 3.81
0 8 12 20.26 3.47
0 8 12 24.32 3.49
0 -8 -12 16.97 3.45
0 8 13 7.6 2.26
0 -8 -13 10.26 2.64
0 -8 -13 9.11 2.59
0 -8 -13 9.31 2.71
0 -8 -13 7.31 2.51
0 8 13 4.04 2.08
0 -8 -13 10.19 2.91
0 -8 -13 7.09 2.39
0 8 13 4.22 1.53
0 8 14 98.79 8.46
0 -8 -14 94.54 8.49
0 -8 -14 99.27 8.43
0 -8 -14 100.64 8.63
0 -8 -14 100.17 8.37
0 8 14 84.62 6.91
0 -8 -14 92.36 8.5
0 -8 -14 89.7 8.63
0 8 14 86.66 8.02
0 -9 8 41.79 5.67
0 9 -8 36.77 4.35
0 -9 8 27.02 4.46
0 9 -8 39.61 4.56
0 9 -8 18.62 3.97
0 9 -8 26.7 4.21
0 -9 8 37.32 5.38
0 9 -8 28.91 4.25
0 9 -8 29.35 4.51
0 9 -7 23.64 4.06
0 -9 7 27.66 4.4
0 -9 7 21.84 3.68
0 -9 7 26.42 3.88
0 -9 7 26.25 3.83
0 -9 7 23.06 3.59
0 -9 7 24.19 4.34
0 -9 7 21.89 3.84
0 9 -7 29.57 4.05
0 9 -7 25.34 3.9
0 9 -7 14.31 3.33
0 9 -7 20.1 3.49
0 -9 7 23.15 4.22
0 9 -7 25.65 3.6
0 9 -6 2.72 1.45
0 -9 6 1.02 1.61
0 -9 6 5.82 1.97
0 -9 6 5.07 1.94
0 -9 6 2.13 1.32
0 -9 6 3.54 1.67
0 -9 6 3.58 1.86
0 -9 6 0.05 1.65
0 9 -6 3.46 1.61
0 9 -6 2.38 1.48
0 9 -6 1.04 1.02
0 -9 6 1.91 1.25
0 9 -6 0.85 1.14
0 -9 5 4.06 1.78
0 9 -5 4.59 1.85
0 -9 5 6.45 2
0 -9 5 6.03 1.76
0 -9 5 5.7 1.83
0 -9 5 7.74 2.1
0 -9 5 6.07 2.02
0 9 -5 7.6 2.13
0 -9 5 6.88 2.44
0 9 -5 3.7 1.82
0 -9 5 11.23 2.81
0 9 -5 7.08 2.11
0 9 -5 5.36 1.67
0 -9 4 284.51 13.6
0 9 -4 269.89 13.06
0 -9 4 293.81 13.25
0 -9 4 278.31 12.48
0 -9 4 278.13 12.6
0 -9 4 292.92 12.7
0 -9 4 287.59 12.79
0 -9 4 278.6 12.55
0 9 -4 311.91 12.72
0 9 -4 267.7 12.57
0 -9 4 284.09 13.57
0 9 -4 261.53 12.22
0 -9 4 300.38 13.69
0 9 -4 267.31 11.48
0 -9 3 31.8 4.09
0 9 -3 29.98 3.99
0 -9 3 36.46 4.2
0 -9 3 37.27 3.94
0 -9 3 35.37 3.87
0 -9 3 37.42 3.97
0 -9 3 34.28 3.83
0 -9 3 38.83 4.1
0 9 -3 37.21 3.99
0 9 -3 36.28 4.14
0 -9 3 39.25 4.42
0 9 -3 33.96 3.85
0 9 -3 36.2 3.68
0 -9 3 38.58 4.33
0 -9 2 2.58 1.39
0 -9 2 2.34 1.15
0 9 -2 0.05 0.97
0 -9 2 2.17 1.13
0 -9 2 2.44 1.11
0 -9 2 0.88 0.94
0 -9 2 2.93 1.39
0 -9 2 4.36 1.54
0 9 -2 1.87 0.92
0 -9 2 2.2 1.4
0 9 -2 1.15 1
0 -9 2 4.59 1.77
0 9 -2 -0.34 0.93
0 9 -2 0.22 0.58
0 9 -2 1.64 0.98
0 -9 1 16.41 2.81
0 -9 1 15.39 2.51
0 -9 1 16.5 2.59
0 -9 1 14.96 2.48
0 -9 1 15.83 2.48
0 9 -1 13.43 2.29
0 -9 1 17.9 2.68
0 -9 1 13.47 2.42
0 9 -1 17.82 2.65
0 9 -1 13.41 2.11
0 -9 0 42.34 4.43
0 -9 0 47.87 4.26
0 -9 0 53.39 4.54
0 -9 0 53.54 4.57
0 -9 0 47.71 4.3
0 9 0 48.98 4.1
0 -9 0 56.1 4.63
0 9 0 43.98 4.2
0 -9 0 55.99 4.84
0 9 0 48.08 3.91
0 9 1 147.22 6.46
0 -9 -1 140.6 8.27
0 -9 -1 137.73 7.52
0 -9 -1 130.32 7.43
0 -9 -1 150.23 7.86
0 -9 -1 132 7.47
0 -9 -1 137.05 7.45
0 -9 -1 141.25 7.64
0 -9 -1 144.97 7.92
0 9 1 140.51 7.68
0 9 1 130.83 6.75
0 -9 -2 106.26 7.06
0 9 2 116.26 5.77
0 -9 -2 102.38 6.36
0 -9 -2 103.74 6.44
0 -9 -2 115.43 6.75
0 -9 -2 101.68 6.36
0 -9 -2 104.24 6.3
0 -9 -2 109.58 6.58
0 9 2 95.87 6.26
0 -9 -2 109.4 6.73
0 -9 -2 104.91 6.3
0 9 2 92.55 5.57
0 -9 -3 86.72 6.38
0 9 3 95.17 5.32
0 -9 -3 82.94 5.72
0 -9 -3 96.28 6.11
0 -9 -3 85.52 5.8
0 -9 -3 90.93 5.96
0 -9 -3 87.62 5.7
0 -9 -3 94.24 6.07
0 9 3 85.39 5.84
0 -9 -3 85.1 5.87
0 -9 -3 84.65 5.59
0 9 3 87.07 5.47
0 -9 -4 654.96 20.92
0 -9 -4 684.46 21.1
0 -9 -4 667.4 20.99
0 -9 -4 670.59 21.03
0 9 4 607.94 20.15
0 -9 -4 679.09 22.12
0 -9 -4 659.78 20.28
0 9 4 633.4 19.69
0 -9 -5 52.93 4.73
0 -9 -5 50.61 4.56
0 -9 -5 51.25 4.6
0 -9 -5 61.96 5.05
0 9 5 53.17 4.18
0 -9 -5 52.89 5.01
0 9 5 47.94 4.23
0 9 5 53.5 4.29
0 -9 -6 40.56 4.1
0 -9 -6 34.95 3.87
0 -9 -6 33 3.69
0 9 6 38.05 4.22
0 -9 -6 38.9 4.36
0 -9 -6 35.5 3.81
0 -9 -6 34.63 3.87
0 9 6 37.85 3.86
0 9 6 31.9 3.47
0 -9 -6 41.81 4.49
0 9 6 37.89 3.65
0 -9 -7 52.85 4.96
0 -9 -7 47.15 4.66
0 -9 -7 49.13 4.75
0 9 7 44.17 4.66
0 -9 -7 52.45 5.15
0 -9 -7 54.08 4.98
0 -9 -7 51.22 4.89
0 9 7 51.11 4.47
0 -9 -7 57.55 5.41
0 9 7 42.44 4.1
0 9 7 55.44 4.37
0 -9 -8 485.78 18.36
0 -9 -8 491.02 18.27
0 -9 -8 492.81 18.32
0 -9 -8 528.75 19.49
0 9 8 460.87 18.33
0 -9 -8 502.65 18.42
0 -9 -8 517.56 18.76
0 -9 -8 509.12 19.15
0 9 8 513.67 17.55
0 9 8 458.41 16.7
0 9 8 538.37 16.89
0 -9 -9 34.17 4.19
0 -9 -9 31.37 4
0 -9 -9 34.37 4.1
0 9 9 26.05 3.83
0 -9 -9 34.13 4.46
0 -9 -9 37.98 4.4
0 -9 -9 36.14 4.31
0 9 9 38.63 3.74
0 9 9 37.32 4.08
0 9 9 31.27 3.5
0 -9 -9 26.63 3.9
0 -9 -10 20.49 3.52
0 9 10 22.6 3.24
0 -9 -10 25.88 3.8
0 -9 -10 20.18 3.34
0 9 10 17.73 3.27
0 -9 -10 22.87 3.76
0 -9 -10 21.55 3.37
0 -9 -10 18.55 3.27
0 -9 -10 24.59 3.61
0 9 10 16.08 2.79
0 9 10 19.79 2.67
0 -9 -11 7.28 2.24
0 9 11 3.2 1.58
0 9 11 7.72 2.29
0 -9 -11 7.16 2.31
0 -9 -11 2.51 1.56
0 -9 -11 7.57 2.39
0 9 11 7.05 2.37
0 -9 -11 7.15 2.2
0 -9 -11 8.85 2.34
0 -9 -11 2.83 1.93
0 9 11 7.39 1.95
0 9 11 6.22 1.65
0 9 12 209.94 12.25
0 -9 -12 209.65 12.29
0 -9 -12 227.47 12.63
0 -9 -12 212.74 12.53
0 -9 -12 219.69 12.56
0 9 12 217.85 11.38
0 -9 -12 224.45 13
0 9 12 216.3 12.68
0 -9 -12 219.04 13.08
0 9 13 2.57 1.69
0 -9 -13 1.34 1.17
0 -9 -13 3.9 1.69
0 -9 -13 5.21 2.18
0 -9 -13 3.25 1.72
0 -9 -13 0.76 1.3
0 9 13 5.11 1.81
0 -9 -13 2.4 1.53
0 9 13 3.39 1.79
0 9 14 24.36 4.4
0 -9 -14 21.17 4.27
0 -9 -14 24.57 4.26
0 -9 -14 19.59 3.87
0 -9 -14 19.81 3.88
0 9 14 16.94 3.69
0 -9 -14 20.36 4.16
0 -9 -14 25.46 4.63
0 9 14 18.9 3.35
0 -10 7 22.16 4.17
0 10 -7 17.23 3.06
0 10 -6 4.3 2.1
0 -10 6 1.11 1.79
0 -10 6 0.18 0.96
0 -10 6 0.1 0.97
0 -10 6 1.11 1.08
0 -10 6 3.35 1.85
0 -10 6 0.91 1.58
0 -10 6 1.09 1.48
0 10 -6 1.05 1.26
0 10 -6 -0.42 1.18
0 -10 6 -0.75 1.66
0 10 -6 -0.62 1.24
0 10 -6 0 1.03
0 -10 5 21.53 3.74
0 10 -5 24.53 4.07
0 -10 5 19.99 3.39
0 -10 5 15.85 3.24
0 -10 5 16.94 3.17
0 -10 5 14.96 2.9
0 -10 5 24.71 4.15
0 10 -5 28.42 3.87
0 -10 5 20.76 3.68
0 10 -5 15.75 3.16
0 10 -5 19.08 3.42
0 -10 5 17.27 3.46
0 10 -5 16.58 2.9
0 -10 4 42.07 5.2
0 -10 4 47.49 5.29
0 10 -4 42.43 5.06
0 -10 4 47.91 5
0 -10 4 52.4 5.24
0 -10 4 51.35 5.23
0 -10 4 43.57 4.95
0 -10 4 44.25 4.86
0 10 -4 53.61 5.16
0 10 -4 38.36 4.7
0 10 -4 47.23 5.04
0 -10 4 49.66 5.59
0 10 -4 48.29 4.56
0 -10 4 44.76 5.17
0 -10 3 3.91 1.82
0 -10 3 4.85 1.89
0 10 -3 4.06 1.5
0 -10 3 3.19 1.36
0 -10 3 5.52 1.75
0 -10 3 5.02 1.79
0 -10 3 5.28 1.89
0 -10 3 4.13 1.48
0 10 -3 3.95 1.74
0 -10 3 2.25 1.39
0 10 -3 1.02 1.02
0 10 -3 4.37 1.8
0 -10 3 2.82 1.57
0 10 -3 2.74 1.19
0 -10 2 86.8 7.15
0 -10 2 108.1 7.55
0 10 -2 101.2 7.39
0 -10 2 94.25 6.75
0 -10 2 104.28 7.13
0 -10 2 97.21 6.94
0 -10 2 99.54 6.98
0 -10 2 111.08 7.45
0 10 -2 105.71 6.96
0 10 -2 87.75 6.77
0 -10 2 104.86 7.71
0 10 -2 99.79 6.97
0 -10 2 101.83 7.28
0 10 -2 96.7 5.87
0 10 -2 86.03 5.96
0 -10 1 7.98 2.1
0 -10 1 8.66 2.1
0 10 -1 3.32 1.35
0 -10 1 9.58 2.13
0 -10 1 8.94 2.08
0 -10 1 8.13 1.96
0 -10 1 10.24 2.13
0 -10 1 11.04 2.34
0 10 -1 7.63 1.9
0 -10 1 9.22 1.97
0 10 -1 9.16 2.29
0 10 -1 5.93 1.72
0 -10 1 10.55 2.38
0 10 -1 6.73 1.77
0 10 -1 10.34 1.92
0 -10 0 183.92 10.38
0 -10 0 179.36 9.47
0 -10 0 177.33 9.42
0 -10 0 185.7 9.56
0 -10 0 175.3 9.28
0 10 0 182.71 9.08
0 -10 0 170.72 9.63
0 10 0 175.01 9.36
0 10 0 183.24 8.57
0 10 0 168.95 8.35
0 -10 0 183.18 9.62
0 -10 -1 0.77 1.09
0 -10 -1 0.13 1.15
0 -10 -1 1.32 0.76
0 -10 -1 0.76 0.82
0 -10 -1 -1.28 1.15
0 -10 -1 0.67 0.78
0 10 1 0.97 0.99
0 -10 -1 0.91 0.9
0 10 1 -0.7 1.16
0 10 1 1.02 0.85
0 10 1 1.54 0.92
0 10 2 7.14 1.51
0 -10 -2 7.69 2.16
0 -10 -2 6.28 1.72
0 -10 -2 6.45 1.7
0 -10 -2 5.76 1.5
0 -10 -2 6.7 1.76
0 -10 -2 7.98 1.95
0 10 2 5.18 1.39
0 -10 -2 8.45 1.88
0 -10 -2 8.93 2.14
0 10 2 5.92 1.93
0 10 2 6.12 1.61
0 -10 -2 5.09 1.61
0 10 2 7.06 1.77
0 -10 -3 242.28 12.06
0 10 3 288.22 10.53
0 -10 -3 243.52 11.18
0 -10 -3 253.47 11.42
0 -10 -3 243.4 11.29
0 -10 -3 254.35 11.45
0 10 3 233.08 9.66
0 -10 -3 244.75 10.92
0 -10 -3 244.95 11.26
0 10 3 238.33 11.21
0 -10 -3 254.64 11.62
0 -10 -3 238.82 10.74
0 10 3 233.65 10.17
0 10 3 228.99 10.03
0 -10 -4 10.47 2.36
0 10 4 8.07 1.78
0 -10 -4 8.16 1.86
0 -10 -4 8.48 1.97
0 -10 -4 7.08 1.82
0 -10 -4 6.22 1.67
0 -10 -4 8.67 1.97
0 -10 -4 9.87 2.2
0 10 4 12.31 2.29
0 -10 -4 7.13 1.9
0 -10 -4 9.68 2.06
0 10 4 12.81 2.13
0 -10 -5 282.2 12.41
0 -10 -5 269.12 12.12
0 -10 -5 261.24 12.02
0 10 5 261.06 9.95
0 -10 -5 287.79 12.42
0 -10 -5 278.22 13.18
0 10 5 300.84 11.7
0 10 5 261.31 11.62
0 -10 -5 271.35 11.67
0 10 5 302.97 11.79
0 -10 -6 62.89 5.51
0 -10 -6 62.31 5.49
0 -10 -6 70.39 5.8
0 -10 -6 74.15 5.95
0 -10 -6 70.99 6.3
0 10 6 70.4 5.44
0 10 6 72.56 5.31
0 10 6 73.13 5.33
0 10 7 16.93 2.99
0 -10 -7 14.67 2.84
0 -10 -7 12.66 2.49
0 -10 -7 18.3 3.11
0 -10 -7 14.04 2.82
0 -10 -7 19.85 3.29
0 -10 -7 14.5 2.82
0 10 7 10.9 2.12
0 10 7 15.03 2.5
0 -10 -7 15.84 3.02
0 10 7 16.46 2.55
0 -10 -8 127.96 8.8
0 10 8 108.8 7.87
0 -10 -8 112.46 7.8
0 -10 -8 111.61 7.79
0 -10 -8 111.02 7.89
0 -10 -8 117.18 7.95
0 -10 -8 108.72 7.74
0 10 8 114.37 7.32
0 10 8 100.1 6.75
0 -10 -8 108.23 8.19
0 10 8 125 7.16
0 10 9 2.85 1.54
0 -10 -9 4.61 1.71
0 -10 -9 -0.1 0.9
0 -10 -9 1.26 1.13
0 -10 -9 2.31 1.21
0 -10 -9 1.91 1.45
0 -10 -9 2.64 1.49
0 10 9 3.55 1.59
0 -10 -9 3.92 1.82
0 10 9 4.11 1.56
0 10 9 2.56 1.07
0 -10 -10 25.03 4.05
0 10 10 25.6 4.03
0 -10 -10 24.23 3.89
0 -10 -10 23.25 3.76
0 -10 -10 26.25 4.03
0 -10 -10 20.93 3.66
0 -10 -10 23.08 3.81
0 -10 -10 22.59 3.92
0 10 10 26.73 3.63
0 10 10 25.65 3.24
0 10 11 126.35 9.57
0 -10 -11 147.69 10.52
0 -10 -11 148.71 9.96
0 -10 -11 162.27 10.47
0 -10 -11 152.84 10.27
0 -10 -11 148.21 9.92
0 -10 -11 154.08 10.19
0 10 11 153.99 9.3
0 -10 -11 143.12 10.21
0 10 11 140.31 8.15
0 -10 -12 38.09 5.41
0 10 12 39.41 5.34
0 -10 -12 36.78 5.03
0 -10 -12 41.24 5.45
0 -10 -12 32.91 4.92
0 -10 -12 34.53 4.81
0 -10 -12 44.69 5.56
0 -10 -12 37.56 5.33
0 10 12 48.73 5.24
0 10 12 36.85 4
0 -10 -13 0.65 1.38
0 -10 -13 1.61 1.57
0 -10 -13 1.33 1.28
0 -10 -13 3.62 2.16
0 -10 -13 2.11 1.57
0 -10 -13 1.73 1.4
0 10 13 2.12 1.57
0 10 13 0.99 1.3
0 -10 -13 2.8 1.92
0 -11 5 3.33 1.9
0 -11 5 4.04 1.85
0 -11 5 2.09 1.68
0 -11 5 2.04 1.38
0 -11 5 3.22 2.01
0 -11 5 -0.06 1.38
0 11 -5 1.74 1.5
0 -11 5 4.02 1.93
0 11 -5 4.75 1.83
0 -11 5 1.59 1.11
0 11 -5 -2.59 1.73
0 -11 4 2.26 1.36
0 11 -4 -0.77 1.41
0 -11 4 2 1.38
0 -11 4 1.13 1.37
0 -11 4 1.58 1.22
0 -11 4 -0.4 1.2
0 -11 4 -1.67 1.34
0 -11 4 0.2 0.99
0 11 -4 2.08 1.33
0 11 -4 2.66 1.53
0 11 -4 2.12 1.31
0 -11 4 0.03 1.14
0 11 -4 -0.37 1.18
0 -11 3 4.3 1.96
0 -11 3 2.99 1.51
0 11 -3 0.54 1.21
0 -11 3 5.46 1.99
0 -11 3 3.79 1.82
0 -11 3 0.92 0.99
0 -11 3 3.48 1.44
0 -11 3 6.3 2.04
0 -11 3 3.67 1.84
0 11 -3 3 1.58
0 11 -3 6.61 2.21
0 11 -3 4.44 1.85
0 -11 3 2.52 1.41
0 11 -3 2.22 1.29
0 -11 2 70.49 6.81
0 -11 2 68.37 6.27
0 11 -2 63.51 6.18
0 -11 2 73.98 6.37
0 -11 2 70.01 6.09
0 -11 2 67.06 6.06
0 -11 2 61.66 5.84
0 -11 2 65.55 6.06
0 11 -2 76.74 6.13
0 11 -2 57.35 5.67
0 -11 2 69.64 6.64
0 11 -2 59.71 5.69
0 11 -2 61.12 5.13
0 -11 2 57.05 5.84
0 -11 1 142.29 9.84
0 -11 1 158.29 9.64
0 11 -1 154.31 9.59
0 -11 1 154.93 9.21
0 -11 1 156.66 9.29
0 -11 1 156.42 9.31
0 -11 1 151.1 9.3
0 -11 1 161.49 9.5
0 11 -1 171.62 9.2
0 11 -1 141.91 9.08
0 -11 1 148.45 9.63
0 11 -1 144.93 8.99
0 -11 1 141.61 9.15
0 11 -1 138.48 7.87
0 11 -1 151.39 7.96
0 -11 0 11.82 2.84
0 -11 0 11.87 2.43
0 -11 0 16.94 3
0 -11 0 10.42 2.42
0 -11 0 10.69 2.42
0 -11 0 10.8 2.33
0 11 0 11.48 2.33
0 11 0 9.08 2.26
0 -11 0 9.25 2.28
0 11 0 11.64 2.22
0 11 0 10.6 2.01
0 -11 -1 154.64 9.95
0 -11 -1 158.09 9.16
0 -11 -1 168.21 9.46
0 -11 -1 148.84 8.99
0 -11 -1 160.35 9.34
0 11 1 161.09 8.48
0 -11 -1 156.07 9.12
0 11 1 157.73 9.16
0 -11 -1 161.08 9.68
0 11 1 145.74 7.92
0 11 1 153.35 8.2
0 -11 -2 340.37 15.63
0 -11 -2 342.47 14.42
0 -11 -2 359.13 14.74
0 -11 -2 346.09 14.59
0 -11 -2 359.72 14.83
0 11 2 363.79 13.47
0 -11 -2 343.97 14.32
0 -11 -2 359.09 14.77
0 -11 -2 340.28 14.89
0 11 2 333.63 14.39
0 11 2 353.35 13.56
0 11 2 331.61 12.96
0 -11 -3 -0.11 1
0 11 3 -0.35 1.02
0 -11 -3 0.53 1.12
0 -11 -3 0.69 1.31
0 -11 -3 0.92 1.24
0 -11 -3 2.06 1.21
0 -11 -3 0.93 1.12
0 11 3 1.13 0.87
0 -11 -3 0.73 1.31
0 -11 -3 0.87 1.15
0 11 3 1.63 1.22
0 11 3 0.22 1.09
0 -11 -3 0.55 0.86
0 11 3 2.59 1.32
0 11 4 292.54 11.48
0 -11 -4 257.41 13.27
0 -11 -4 262.98 12.3
0 -11 -4 265.86 12.38
0 -11 -4 247.61 12
0 -11 -4 241.37 11.91
0 -11 -4 256.04 11.8
0 11 4 245.61 10.3
0 -11 -4 271.7 12.44
0 11 4 262.76 12.4
0 -11 -4 254.76 12.44
0 11 4 292.71 11.86
0 11 4 248.71 10.9
0 -11 -4 246.9 11.58
0 11 5 93.71 6.26
0 -11 -5 84.74 7.26
0 -11 -5 79.1 6.5
0 -11 -5 86.54 6.7
0 -11 -5 77.99 6.41
0 -11 -5 84.46 6.68
0 -11 -5 86.93 6.46
0 -11 -5 89.96 6.8
0 -11 -5 87.67 6.85
0 11 5 90.76 6.92
0 -11 -5 83.06 6.21
0 11 5 82.9 5.96
0 -11 -6 118.11 8.75
0 11 6 110.97 7.33
0 11 6 142.17 8.01
0 -11 -6 120.98 8.23
0 -11 -6 120.45 8.13
0 -11 -6 136.44 8.68
0 -11 -6 128.12 8.3
0 -11 -6 126.8 8.48
0 11 6 126.16 7.58
0 -11 -6 114.52 7.41
0 -11 -7 285.07 13.64
0 -11 -7 283.81 13.56
0 -11 -7 294.96 13.81
0 -11 -7 286.41 13.59
0 11 7 323.94 13.08
0 11 7 244.05 11.84
0 -11 -7 283.42 14.46
0 11 7 293.93 12.5
0 -11 -7 270.66 12.35
0 -11 -8 17.36 3.21
0 -11 -8 13.39 2.93
0 -11 -8 14.32 2.96
0 -11 -8 16.02 3.03
0 11 8 9.87 2.09
0 -11 -8 15.43 3.26
0 11 8 10.65 2.37
0 11 8 15.82 2.68
0 -11 -9 5.51 2.08
0 11 9 2.32 1.4
0 -11 -9 1.83 1.26
0 -11 -9 4.96 1.95
0 -11 -9 4.7 1.99
0 -11 -9 5.86 2.03
0 -11 -9 4.78 1.99
0 11 9 3.28 1.33
0 11 9 5.46 1.9
0 -11 -9 3.1 1.3
0 11 9 5 1.62
0 -11 -10 1.48 1.64
0 11 10 1.26 1.07
0 -11 -10 1.21 1.61
0 -11 -10 0.35 1.1
0 -11 -10 1.03 1.18
0 -11 -10 1.68 1.02
0 -11 -10 2.64 1.7
0 11 10 3.21 1.54
0 -11 -10 0.25 1.5
0 11 10 0.87 0.88
0 11 11 4.03 2.08
0 -11 -11 8.8 2.94
0 -11 -11 9.75 2.68
0 -11 -11 8.47 2.56
0 -11 -11 6.36 2.07
0 -11 -11 9.74 2.78
0 -11 -11 7.4 2.37
0 -11 -11 5.58 2.29
0 11 11 4.56 1.76
0 11 11 5.16 1.66
0 -11 -12 -0.81 1.45
0 11 12 0.4 1.23
0 -11 -12 0.21 1.7
0 -11 -12 -0.85 1.35
0 -11 -12 0.1 1.01
0 -11 -12 -1.07 1.89
0 -11 -12 -0.62 1.22
0 11 12 -0.37 0.79
0 -11 -12 1.98 1.52
0 11 12 -0.81 1.29
0 -12 3 4.27 1.83
0 12 -3 6.42 2.27
0 -12 3 5.19 1.98
0 -12 3 6.51 2.1
0 -12 3 6.53 2.35
0 -12 3 6.26 2.15
0 -12 3 10.46 2.78
0 12 -3 7 2.13
0 12 -3 7.25 2.52
0 12 -3 5.21 1.89
0 -12 3 7.63 2.5
0 -12 3 6.63 2.33
0 -12 2 32.31 4.75
0 12 -2 30.54 4.64
0 -12 2 38.32 4.82
0 -12 2 31.11 4.39
0 -12 2 41.01 4.9
0 -12 2 37.61 4.81
0 -12 2 37.48 4.81
0 12 -2 38.37 4.58
0 12 -2 33.18 4.58
0 12 -2 38.82 4.74
0 -12 2 35.56 4.98
0 -12 2 36.29 5.15
0 12 -1 25.45 4.15
0 -12 1 33.76 4.71
0 -12 1 24.12 3.71
0 -12 1 26.06 3.93
0 -12 1 28.75 4.15
0 -12 1 22.19 3.74
0 -12 1 27.57 4.03
0 12 -1 30.72 3.96
0 12 -1 20 3.54
0 -12 1 23.68 4.03
0 12 -1 21.48 3.59
0 -12 1 38.05 5.23
0 -12 0 25.48 4.31
0 12 0 24.11 3.9
0 -12 0 35.34 4.64
0 -12 0 28.85 4.18
0 -12 0 28.25 4
0 -12 0 25.57 3.83
0 -12 0 26.58 3.99
0 -12 0 29.43 4.06
0 12 0 26.37 3.73
0 12 0 27.4 3.96
0 -12 0 24.64 3.98
0 12 0 27.22 3.96
0 12 0 32.27 3.67
0 -12 -1 369.33 17.67
0 -12 -1 393.34 16.65
0 -12 -1 422.8 17.18
0 -12 -1 405.87 16.73
0 -12 -1 404.15 16.7
0 12 1 414.7 15.72
0 -12 -1 390.94 17.25
0 12 1 372.21 16.23
0 12 1 399.68 15.27
0 -12 -2 89.9 7.9
0 -12 -2 100.44 7.43
0 -12 -2 96.82 7.25
0 -12 -2 96.95 7.39
0 -12 -2 97.35 7.37
0 12 2 93.47 6.46
0 -12 -2 95.27 7.58
0 12 2 82.99 6.8
0 12 2 95.58 6.58
0 -12 -3 12.86 3.07
0 -12 -3 5.15 1.68
0 -12 -3 8.58 2.25
0 -12 -3 6.45 2.09
0 -12 -3 10.87 2.5
0 12 3 8.49 1.98
0 -12 -3 11.99 2.63
0 -12 -3 9.26 2.55
0 12 3 7.87 2.18
0 12 3 10.48 2.27
0 -12 -4 0.26 1.23
0 12 4 0.88 0.88
0 -12 -4 4.27 1.61
0 -12 -4 3.34 1.61
0 -12 -4 2.87 1.45
0 -12 -4 2.51 1.35
0 12 4 1.1 1.08
0 -12 -4 2.42 1.55
0 12 4 3.46 1.55
0 -12 -4 2.04 1.6
0 12 4 2.83 1.11
0 12 5 13.19 2.46
0 -12 -5 12.17 2.97
0 -12 -5 11.77 2.41
0 -12 -5 12.06 2.72
0 -12 -5 16.07 3.11
0 -12 -5 12.32 2.81
0 -12 -5 10.92 2.53
0 12 5 8.82 2.16
0 -12 -5 10.26 2.46
0 12 5 13.92 2.62
0 12 6 267.98 12.03
0 -12 -6 248.19 13.89
0 -12 -6 252.76 12.89
0 -12 -6 260.81 13.08
0 -12 -6 261.96 13.1
0 -12 -6 248.35 12.82
0 -12 -6 255.31 12.95
0 -12 -6 245 12.85
0 12 6 256.75 13.02
0 12 6 268.68 12.09
0 -12 -7 14.93 3.32
0 12 7 11.94 2.42
0 -12 -7 16.76 3.17
0 -12 -7 15.13 2.89
0 -12 -7 13.08 2.87
0 -12 -7 16.77 3.32
0 -12 -7 11.99 2.65
0 12 7 18.18 3.43
0 -12 -7 16.49 3.15
0 12 7 16.03 2.81
0 -12 -8 61.29 6.29
0 -12 -8 65.7 6.43
0 -12 -8 63.3 6.36
0 -12 -8 63.33 6.42
0 12 8 74.58 6.29
0 -12 -8 68.36 7.18
0 12 8 57.28 5.39
0 12 8 73.24 5.96
0 -12 -9 5.83 2.13
0 -12 -9 6.72 2.09
0 -12 -9 8.66 2.39
0 -12 -9 3.7 1.88
0 12 9 7.88 2.22
0 -12 -9 8.69 2.7
0 12 9 5.68 1.81
0 -12 -10 -0.44 1.11
0 -12 -10 0.8 0.91
0 -12 -10 -0.54 1.14
0 -12 -10 1.42 1.47
0 -12 -10 2.13 1.62
0 12 10 2.13 1.4
0 12 10 -0.67 1.33
0 -12 -11 4.5 2.01
0 -12 -11 2.41 1.55
0 -12 -11 0.1 1.33
0 -12 -11 1.81 1.2
0 -12 -11 1.14 1.6
0 12 11 -0.55 1.87
0 -12 -11 4.05 2.1
0 -12 -11 -0.49 1.7
0 12 11 1.24 1.3
0 -13 1 14.59 3.41
0 -13 0 43.04 5.77
0 13 0 35.09 4.82
0 -13 0 56.35 6.15
0 -13 0 44.81 5.29
0 -13 0 41.06 5.05
0 -13 0 32.92 4.56
0 -13 0 37.03 4.82
0 -13 0 41.51 5.13
0 13 0 48.18 4.99
0 13 0 30.04 4.49
0 -13 0 33.13 4.91
0 13 0 33.91 4.59
0 13 0 39.76 4.26
0 -13 -1 1.73 2.17
0 13 1 2.43 1.6
0 -13 -1 -0.02 1.29
0 -13 -1 -0.36 0.96
0 -13 -1 2.09 1.6
0 -13 -1 1.4 1.5
0 -13 -1 1 1.25
0 -13 -1 0.28 1.18
0 13 1 0.1 0.89
0 13 1 0.34 1.55
0 -13 -1 -0.88 1.53
0 13 1 1.78 1.49
0 13 1 -0.18 0.96
0 -13 -2 92.99 8.46
0 -13 -2 102.68 8.06
0 -13 -2 104.99 8.12
0 -13 -2 94.98 7.69
0 -13 -2 108.1 8.15
0 13 2 86.39 6.62
0 -13 -2 95.71 8.12
0 13 2 90.88 7.4
0 13 2 90.33 6.74
0 -13 -3 7.3 2.45
0 -13 -3 6.78 2.16
0 -13 -3 8.92 2.38
0 -13 -3 9.28 2.45
0 -13 -3 10.44 2.62
0 13 3 9.8 2.24
0 -13 -3 11.2 2.88
0 13 3 6.46 2.06
0 13 3 13.3 2.6
0 -13 -4 44.76 5.9
0 -13 -4 35.07 4.67
0 -13 -4 39.54 4.96
0 -13 -4 47.49 5.32
0 -13 -4 45.98 5.2
0 -13 -4 49.53 5.57
0 13 4 36.91 4.71
0 -13 -4 41.84 5.04
0 13 4 43.9 4.66
0 -13 -5 124.41 9.92
0 -13 -5 152.29 9.82
0 -13 -5 152.49 9.83
0 -13 -5 130.05 9.15
0 -13 -5 141.15 9.52
0 -13 -5 137.98 9.38
0 13 5 134.3 9.29
0 -13 -5 105.36 8.6
0 13 5 129.92 8.38
0 13 6 30.65 4.09
0 -13 -6 27.77 4.49
0 -13 -6 28.84 4.16
0 -13 -6 26.38 4
0 -13 -6 32.43 4.39
0 -13 -6 30.79 4.23
0 -13 -6 33.45 4.51
0 13 6 27.37 4.06
0 -13 -6 23.42 3.95
0 13 6 34.95 4.28
0 -13 -7 4.73 2.18
0 13 7 10.95 2.49
0 -13 -7 7.73 2.31
0 -13 -7 5.8 1.94
0 -13 -7 8.86 2.43
0 -13 -7 6.95 2.04
0 -13 -7 7.66 2.44
0 -13 -7 3.64 1.49
0 13 7 9.85 2.5
0 13 7 9.11 2.37
0 13 8 35.93 4.47
0 -13 -8 35.64 5.37
0 -13 -8 31.23 4.53
0 -13 -8 35.78 4.82
0 -13 -8 30.68 4.39
0 -13 -8 30.97 4.52
0 -13 -8 24.9 4.19
0 13 8 30.1 4.49
0 -13 -8 34.51 4.91
0 13 8 38.25 4.54
0 13 9 8.32 2.34
0 -13 -9 1.66 1.23
0 -13 -9 3.04 1.72
0 -13 -9 6.69 2.39
0 -13 -9 3.34 1.99
0 -13 -9 5.75 2.3
0 13 9 3.9 1.82
0 -14 -3 52.02 6.15
0 -14 -4 31.79 4.73
0 -14 -5 1.75 1.55
0 -14 -6 3.12 1.69
1 -13 -8 9.15 2.56
1 -13 -8 7.2 2.21
1 -13 -8 9.05 2.64
1 -13 -8 6.6 2.26
1 -13 -8 10.14 2.82
1 -13 -7 9 2.44
1 -13 -7 10.26 2.49
1 -13 -7 10.24 2.65
1 -13 -7 11.88 2.61
1 -13 -7 7.73 2.36
-1 13 7 8.22 2.33
1 -13 -7 6.62 2.33
-1 13 7 16.07 3.09
-1 13 6 1.98 1.39
1 -13 -6 0.74 1.09
1 -13 -6 3.57 1.6
1 -13 -6 4.08 1.67
1 -13 -6 4.78 1.89
1 -13 -6 1.74 1.21
1 -13 -6 -0.46 1.27
-1 13 6 0.66 1.28
1 -13 -6 1.67 1.37
-1 13 6 4.03 1.82
-1 13 5 35.66 4.44
1 -13 -5 34.83 5.21
1 -13 -5 30.66 4.41
1 -13 -5 29.22 4.32
1 -13 -5 30.4 4.29
1 -13 -5 28.62 4.13
1 -13 -5 24.56 4.08
-1 13 5 23.04 3.74
1 -13 -5 25.72 4.3
-1 13 5 29.07 3.83
1 -13 -4 1.7 1.92
1 -13 -4 -0.84 1.36
-1 13 4 0.1 1.16
1 -13 -4 -2.05 1.46
-1 13 4 2.41 1.41
1 -13 -4 0.58 1.04
1 -13 -4 0.84 1.38
1 -13 -4 0.42 1.21
1 -13 -3 1.85 1.64
1 -13 -3 4.42 2.05
1 -13 -3 1.77 1.31
1 -13 -3 0.62 1.1
1 -13 -3 1.07 1.11
-1 13 3 1.89 1.41
1 -13 -3 3.12 1.96
-1 13 3 3.45 1.7
1 -13 -2 35.96 5.25
1 -13 -2 37.5 4.61
1 -13 -2 39.63 4.71
1 -13 -2 38.27 4.83
1 -13 -2 37.32 4.63
-1 13 2 34.89 3.95
1 -13 -2 35.06 5.03
-1 13 2 31.02 4.2
-1 13 2 39.91 4.54
1 -13 -1 262.46 14.94
-1 13 1 260.75 14.05
1 -13 -1 263.13 13.96
1 -13 -1 275.31 13.71
1 -13 -1 272.44 13.67
1 -13 -1 272.81 13.65
1 -13 -1 270.48 13.89
1 -13 -1 258.25 13.6
-1 13 1 279.05 12.82
-1 13 1 227.45 13.03
-1 13 1 232.35 12.85
1 -13 -1 260.31 14.68
-1 13 1 290.9 12.75
1 -13 0 68.95 6.43
1 -13 0 74.69 6.66
1 -13 0 77.73 6.88
1 -13 0 70.77 6.59
1 -13 0 75.44 6.85
-1 13 0 80.56 6.53
-1 13 0 62.05 6.39
-1 13 0 72.83 6.62
1 -13 0 58.08 6.28
-1 13 0 66.39 6.76
1 -12 -10 88.59 7.8
1 -12 -10 100.05 8.22
-1 12 10 113.55 7.8
1 -12 -10 83.8 7.59
1 -12 -10 82.91 7.6
1 -12 -9 29.78 4.38
1 -12 -9 26.38 4.02
1 -12 -9 35.58 4.65
1 -12 -9 36.71 4.81
-1 12 9 39.63 4.76
1 -12 -9 22.92 4.42
-1 12 9 33.78 4.23
1 -12 -8 3.29 1.63
1 -12 -8 8.27 2.46
1 -12 -8 3.19 1.6
1 -12 -8 7.43 2.2
1 -12 -8 6.23 2.01
-1 12 8 8.47 2.18
1 -12 -8 8.76 2.79
-1 12 8 7.04 2.05
-1 12 7 10.9 2.53
1 -12 -7 8.93 2.71
1 -12 -7 14.76 3.1
1 -12 -7 7.05 2.21
1 -12 -7 9.91 2.39
1 -12 -7 10.17 2.58
1 -12 -7 10.42 2.78
1 -12 -7 9.73 2.66
-1 12 7 7.92 2.3
-1 12 7 7 2.04
1 -12 -7 9.1 2.5
-1 12 6 110.38 7.52
1 -12 -6 95.41 8.45
1 -12 -6 91.42 7.36
1 -12 -6 85.96 7.18
1 -12 -6 89.14 7.32
1 -12 -6 93.31 7.42
1 -12 -6 80.49 7.14
1 -12 -6 98.72 7.71
-1 12 6 92.22 7.41
1 -12 -6 89.07 7.8
1 -12 -6 84.65 7.03
-1 12 6 95.5 6.91
1 -12 -5 47.7 5.91
-1 12 5 55.73 5.31
1 -12 -5 53.26 5.44
1 -12 -5 55.57 5.64
1 -12 -5 51.32 5.39
1 -12 -5 64.93 6.05
1 -12 -5 52.56 5.64
1 -12 -5 46.52 5.24
-1 12 5 44.97 5.07
1 -12 -5 48.6 5.68
1 -12 -5 48.29 5.32
-1 12 5 62.78 5.42
1 -12 -4 0.51 1.19
-1 12 4 -0.57 0.86
1 -12 -4 0.78 1.18
1 -12 -4 -0.21 1.25
1 -12 -4 -0.62 1.23
1 -12 -4 0.72 1.12
1 -12 -4 1.66 1.37
1 -12 -4 0 1
1 -12 -4 1.95 1.61
-1 12 4 1.11 1.06
-1 12 4 -0.82 1.22
1 -12 -4 0.06 1.17
-1 12 3 20.32 3.06
1 -12 -3 23.02 4.08
1 -12 -3 20.42 3.44
1 -12 -3 18.64 3.35
1 -12 -3 25.58 3.73
1 -12 -3 17.3 3
-1 12 3 18.67 2.76
1 -12 -3 23.69 3.72
1 -12 -3 17.34 3.31
-1 12 3 21.35 3.46
1 -12 -3 19.45 3.79
-1 12 3 24.18 3.28
1 -12 -2 94.49 8.16
1 -12 -2 109.87 7.79
1 -12 -2 88.1 7.09
1 -12 -2 96.91 7.36
1 -12 -2 91.84 7.09
-1 12 2 96.92 6.57
1 -12 -2 84.44 7.16
1 -12 -2 90.69 7.73
-1 12 2 87.2 7.23
-1 12 2 92.81 6.62
1 -12 -1 41.87 5.5
1 -12 -1 49.61 5.09
1 -12 -1 47.94 5.1
1 -12 -1 41.65 4.81
1 -12 -1 53.01 5.33
1 -12 -1 41.34 5
-1 12 1 50.31 4.8
1 -12 -1 48.84 5.63
-1 12 1 43.68 4.96
-1 12 1 55.47 4.96
1 -12 0 1.24 1.24
-1 12 0 2.17 1.29
1 -12 0 2.32 1.61
1 -12 0 1.31 1.04
1 -12 0 4.28 1.64
1 -12 0 2.29 1.59
1 -12 0 2.69 1.71
1 -12 0 1.64 1.19
1 -12 0 1.24 1.48
-1 12 0 4.44 1.45
-1 12 0 1.29 1.22
1 -12 0 3.82 1.86
-1 12 0 4.2 1.77
-1 12 0 2.51 1.29
1 -12 1 1.83 1.29
-1 12 -1 3.63 2.02
1 -12 1 2.39 1.6
1 -12 1 1.74 1.2
1 -12 1 1.64 1.06
1 -12 1 1.18 1.21
1 -12 1 3.43 1.68
1 -12 1 1.25 1.41
-1 12 -1 2.78 1.63
-1 12 -1 0.8 1.11
-1 12 -1 -1.58 1.62
1 -12 1 4 1.8
1 -12 1 0.36 1.29
1 -12 2 28.8 4.28
-1 12 -2 22.03 3.75
1 -12 2 33.94 4.41
1 -12 2 29.05 4.12
1 -12 2 33.63 4.6
1 -12 2 30.73 4.24
1 -12 2 36.01 4.59
-1 12 -2 39.24 4.8
1 -12 2 29.94 4.76
-1 12 -2 32.44 4.38
1 -12 2 27.35 4.51
-1 12 -2 33.11 4.39
1 -12 2 34.4 4.88
1 -12 3 120.01 8.92
-1 12 -3 106.65 8.62
-1 12 -3 103.76 8.21
-1 12 -3 115.96 8.49
1 -12 3 115.63 9.39
1 -11 -12 2.23 1.77
1 -11 -12 -1.12 1.62
1 -11 -12 -1.33 1.59
1 -11 -12 3.19 1.84
-1 11 12 1.08 1.21
1 -11 -11 256.08 13.91
1 -11 -11 280.4 14.31
1 -11 -11 232.81 13.32
-1 11 11 237.45 13.84
1 -11 -11 255.07 14.64
1 -11 -11 263 13.92
1 -11 -11 286.31 14.61
-1 11 11 287.36 13.8
1 -11 -11 271.9 15.62
-1 11 11 288.47 12.91
1 -11 -10 37.99 4.97
1 -11 -10 36.17 4.83
1 -11 -10 35.4 4.73
-1 11 10 29.94 4.52
1 -11 -10 31.64 4.67
1 -11 -10 40.15 5.04
1 -11 -10 36.73 4.91
1 -11 -10 42.81 5.72
-1 11 10 39.25 4.61
-1 11 10 41.41 4.49
1 -11 -9 19.72 3.48
1 -11 -9 19.43 3.54
1 -11 -9 25.16 3.91
1 -11 -9 18.25 3.27
1 -11 -9 20.7 3.99
-1 11 9 24.85 3.64
-1 11 9 21.69 3.32
1 -11 -8 1.47 1.27
1 -11 -8 2.1 1.2
1 -11 -8 5.37 1.9
1 -11 -8 1.73 1.1
-1 11 8 3 1.28
-1 11 8 4.67 1.68
1 -11 -7 2.06 1.42
1 -11 -7 2.08 1.31
1 -11 -7 0.7 1.05
1 -11 -7 0.67 1.12
-1 11 7 3.58 1.52
-1 11 7 0.75 1.33
1 -11 -7 0.13 0.94
-1 11 6 40.7 4.31
1 -11 -6 36.46 4.97
1 -11 -6 40.26 4.51
1 -11 -6 34.76 4.27
1 -11 -6 40.83 4.66
1 -11 -6 34.08 4.19
1 -11 -6 38.27 4.39
-1 11 6 32.72 4.22
1 -11 -6 35.5 4.4
-1 11 6 38.35 4.18
-1 11 5 33.45 3.86
1 -11 -5 32.19 4.54
1 -11 -5 31.25 3.96
1 -11 -5 25.67 3.58
1 -11 -5 31.45 3.97
1 -11 -5 32.4 4.06
1 -11 -5 30.76 4.16
1 -11 -5 35.31 4.17
-1 11 5 27.34 3.86
1 -11 -5 27.75 4.01
-1 11 5 33.27 3.87
1 -11 -5 28.34 3.86
-1 11 4 196.49 9.69
1 -11 -4 204.71 11.78
1 -11 -4 176.3 9.88
1 -11 -4 190.44 10.27
1 -11 -4 194.67 10.39
1 -11 -4 195.75 10.39
1 -11 -4 191.57 10.61
1 -11 -4 191.31 10.22
-1 11 4 175.76 10.01
1 -11 -4 185.6 10.87
-1 11 4 202.44 9.82
1 -11 -4 181.55 10.29
-1 11 3 100.21 6.47
1 -11 -3 93.1 7.63
1 -11 -3 94.83 6.86
1 -11 -3 94.98 6.9
1 -11 -3 92.27 6.86
1 -11 -3 89.98 6.75
1 -11 -3 102.01 7.41
-1 11 3 87.9 5.85
1 -11 -3 100.21 7.07
1 -11 -3 90.62 7.33
-1 11 3 100.1 7.14
-1 11 3 106 6.9
1 -11 -3 94 7.1
-1 11 2 -0.67 0.88
1 -11 -2 -0.73 1.5
1 -11 -2 1.72 1.41
1 -11 -2 -0.38 0.84
1 -11 -2 1.02 1.08
1 -11 -2 0.96 1.03
1 -11 -2 -1.35 1.32
-1 11 2 -0.19 0.83
1 -11 -2 -0.64 1
-1 11 2 -1.37 1.15
-1 11 2 0.85 0.91
1 -11 -2 0.71 0.94
1 -11 -1 2.46 1.59
1 -11 -1 0.76 0.75
1 -11 -1 0.25 0.81
1 -11 -1 0.11 0.9
1 -11 -1 -0.02 0.8
1 -11 -1 2.1 1.33
-1 11 1 1.87 1.24
1 -11 -1 1.65 1.67
-1 11 1 0.69 0.92
-1 11 1 -0.09 1.05
1 -11 0 1.04 1.32
1 -11 0 -0.26 1.22
-1 11 0 3.04 1.8
1 -11 0 -0.35 0.8
1 -11 0 1.21 1.11
1 -11 0 2.25 1.37
1 -11 0 0.7 1.01
1 -11 0 1.79 1.35
1 -11 0 -0.08 0.92
-1 11 0 -0.09 0.98
-1 11 0 -0.06 0.91
-1 11 0 2.03 1.44
1 -11 0 0.55 0.96
-1 11 0 0.23 0.83
1 -11 1 26.08 4.1
1 -11 1 25.12 3.69
-1 11 -1 25.75 3.8
1 -11 1 26.22 3.68
1 -11 1 26.25 3.66
1 -11 1 29.99 3.87
1 -11 1 24.24 3.63
1 -11 1 23.09 3.48
1 -11 1 24.85 3.97
-1 11 -1 24.01 3.43
-1 11 -1 22.86 3.67
-1 11 -1 23.15 3.47
1 -11 1 26.88 4.04
-1 11 -1 23.73 2.98
1 -11 2 96.65 8.13
-1 11 -2 98.93 7.85
1 -11 2 116.16 8.3
1 -11 2 113.89 7.94
1 -11 2 107.53 7.7
1 -11 2 120.58 8.19
1 -11 2 105.74 7.71
1 -11 2 121.32 8.29
-1 11 -2 119.96 7.84
-1 11 -2 104.71 7.93
-1 11 -2 108.48 7.76
1 -11 2 115.51 8.86
1 -11 2 104.74 8.3
1 -11 3 70.94 6.98
1 -11 3 69.94 6.58
-1 11 -3 54.27 5.97
1 -11 3 64.47 5.98
1 -11 3 67.11 6.1
1 -11 3 69.55 6.21
1 -11 3 71.84 6.41
1 -11 3 64.96 6.01
-1 11 -3 65.34 5.95
-1 11 -3 56.6 5.83
1 -11 3 76.72 7.38
-1 11 -3 62.45 5.91
1 -11 3 64.01 6.58
-1 11 -4 6.6 2.27
1 -11 4 10.86 2.88
1 -11 4 13.15 2.86
1 -11 4 13.14 2.84
1 -11 4 12.25 2.82
1 -11 4 12 2.91
-1 11 -4 12.28 2.6
1 -11 4 8.85 2.62
-1 11 -4 9.75 2.55
-1 11 -4 11.44 2.67
1 -11 4 13.8 3.44
1 -11 4 10.91 2.81
1 -11 5 83.61 7.25
1 -11 5 92.63 7.65
1 -11 5 85.22 7.34
1 -11 5 86.22 7.5
1 -11 5 99.76 8.14
-1 11 -5 81.57 7.53
-1 11 -5 78.71 7.12
-1 11 -5 77.7 6.93
1 -11 5 90.75 8.29
1 -10 -12 115.91 9.02
1 -10 -12 104.52 8.5
1 -10 -12 116.24 9.03
-1 10 12 106.78 8.91
1 -10 -12 128.49 9.94
1 -10 -12 109.5 8.69
1 -10 -12 109.37 8.6
1 -10 -12 119.26 9.99
-1 10 12 123.92 8.58
-1 10 12 114.64 7.58
1 -10 -11 -1.07 1.59
1 -10 -11 -0.04 0.96
1 -10 -11 1.94 1.48
1 -10 -11 2.14 1.68
-1 10 11 2.04 1.61
1 -10 -11 -0.7 1.19
1 -10 -11 0.38 1.37
1 -10 -11 -2.14 1.51
-1 10 11 -0.33 0.92
-1 10 11 1.17 1.26
1 -10 -10 5.44 2.18
1 -10 -10 3 1.4
1 -10 -10 5.28 1.94
1 -10 -10 6.7 2.59
-1 10 10 2.45 1.49
1 -10 -10 6.96 2.16
1 -10 -10 3.17 1.53
-1 10 10 5.4 1.88
1 -10 -10 4.16 1.9
-1 10 10 3.43 1.6
1 -10 -9 31.52 4.16
1 -10 -9 30.83 4.01
1 -10 -9 30.19 4.03
1 -10 -9 27.35 4.15
-1 10 9 21.91 3.61
1 -10 -9 24.34 3.72
1 -10 -9 26.32 3.89
-1 10 9 30.47 3.86
1 -10 -9 25.63 4.17
-1 10 9 30.69 3.63
1 -10 -8 262.51 12.79
1 -10 -8 263.72 12.74
1 -10 -8 256.25 12.62
-1 10 8 247.61 12.73
1 -10 -8 265.16 13.29
1 -10 -8 261.26 12.77
1 -10 -8 263.39 12.7
-1 10 8 292.76 12.73
1 -10 -8 266.24 13.95
-1 10 8 285.46 12.03
1 -10 -7 558.47 20.35
1 -10 -7 564.4 20.45
1 -10 -7 568.21 20.53
1 -10 -7 579.31 20.6
-1 10 7 632.15 20.48
1 -10 -7 572.52 22.04
-1 10 7 646.99 20
1 -10 -6 64.53 5.61
1 -10 -6 65.94 5.67
1 -10 -6 64.44 5.58
1 -10 -6 66.46 5.61
-1 10 6 78.86 5.61
1 -10 -6 63.11 6.15
-1 10 6 71.46 5.55
-1 10 5 378.68 13.94
1 -10 -5 324 15.11
1 -10 -5 344.85 14.11
1 -10 -5 332.91 14.03
1 -10 -5 354.41 14.28
1 -10 -5 328.89 13.96
1 -10 -5 339.39 14.09
-1 10 5 317.89 13.78
-1 10 5 371.73 13.63
1 -10 -5 329.32 14.07
1 -10 -4 36.99 4.53
-1 10 4 36.34 3.77
1 -10 -4 33.98 3.85
1 -10 -4 34.51 3.89
1 -10 -4 30.3 3.68
1 -10 -4 31.08 3.76
-1 10 4 31.33 2.93
1 -10 -4 34.57 4.03
1 -10 -4 37.5 4.17
1 -10 -4 39.69 4.48
-1 10 4 33.46 3.95
-1 10 4 43.65 4.12
1 -10 -4 27.19 3.56
-1 10 3 180.69 8.59
1 -10 -3 166.86 9.97
1 -10 -3 168.25 8.89
1 -10 -3 168.16 8.98
1 -10 -3 171.44 9.04
1 -10 -3 173.45 9.09
-1 10 3 172.89 7.94
1 -10 -3 159.53 9.2
1 -10 -3 184.81 9.31
-1 10 3 159.33 8.82
1 -10 -3 168.82 9.65
1 -10 -3 171.15 9.36
-1 10 3 189.19 8.89
1 -10 -2 16.74 3.07
-1 10 2 19.51 2.56
1 -10 -2 17.33 2.69
1 -10 -2 13.76 2.43
1 -10 -2 16.92 2.65
1 -10 -2 15.43 2.68
-1 10 2 19.57 2.54
1 -10 -2 14.54 2.65
1 -10 -2 16.68 2.76
-1 10 2 16.52 2.76
1 -10 -2 16.89 2.95
-1 10 2 19.34 2.68
1 -10 -2 13.95 2.56
1 -10 -1 3.75 1.33
-1 10 1 1.92 0.99
1 -10 -1 3.89 1.28
1 -10 -1 3.17 1.31
1 -10 -1 2.85 1.28
1 -10 -1 3.26 1.15
1 -10 -1 3.3 1.38
-1 10 1 1.24 1.03
1 -10 -1 1 0.87
-1 10 1 3.84 1.42
1 -10 -1 4.41 1.58
-1 10 1 6.26 1.67
1 -10 0 2.1 1.25
1 -10 0 3.94 1.35
1 -10 0 1.61 0.85
1 -10 0 2.02 1.1
1 -10 0 3.09 1.27
1 -10 0 3.49 1.56
-1 10 0 1.04 0.97
-1 10 0 4.18 1.66
1 -10 0 1.11 0.79
-1 10 0 3.09 1.19
1 -10 1 1.2 1.17
-1 10 -1 0.77 1.35
1 -10 1 0.43 0.93
1 -10 1 1.94 1.29
1 -10 1 1.36 0.95
1 -10 1 2.74 1.28
1 -10 1 3.5 1.47
1 -10 1 2.64 1.11
1 -10 1 0.91 0.93
-1 10 -1 -0.06 0.88
-1 10 -1 0.73 0.87
1 -10 1 1.54 1.37
-1 10 -1 1.81 0.95
-1 10 -1 -0.53 0.87
1 -10 2 9.35 2.46
1 -10 2 11.35 2.44
-1 10 -2 10.85 2.52
1 -10 2 15.87 2.78
1 -10 2 11.18 2.34
1 -10 2 11.12 2.3
1 -10 2 9.74 2.13
1 -10 2 11.4 2.27
-1 10 -2 10.43 2.32
1 -10 2 9.31 2.42
-1 10 -2 8.03 2.04
-1 10 -2 14.59 2.63
1 -10 2 10.08 2.46
-1 10 -2 12.51 2.08
1 -10 3 69.57 6.49
1 -10 3 67.3 6.1
-1 10 -3 55.16 5.68
1 -10 3 66.62 5.73
1 -10 3 73.09 5.94
1 -10 3 71.52 5.91
1 -10 3 66.53 5.77
1 -10 3 63.79 5.68
-1 10 -3 61.73 5.49
-1 10 -3 65.2 5.8
1 -10 3 67.62 6.52
-1 10 -3 61.47 5.5
1 -10 3 65.31 6.22
1 -10 4 170.14 10.65
-1 10 -4 160.14 10.18
1 -10 4 187.15 10.74
1 -10 4 183.2 10.09
1 -10 4 175.82 9.98
1 -10 4 176.72 10
1 -10 4 190.83 10.44
1 -10 4 173.68 9.97
-1 10 -4 182.83 10.06
-1 10 -4 151.93 9.49
1 -10 4 170.75 10.96
-1 10 -4 168.32 9.69
1 -10 4 188.61 11.32
1 -10 5 1.07 1.05
1 -10 5 3.2 1.55
1 -10 5 0.87 1.16
1 -10 5 0.65 1.15
1 -10 5 0.42 1.62
-1 10 -5 3.58 1.92
-1 10 -5 -0.59 1.16
1 -10 5 1.6 1.38
-1 10 -5 0.5 1.36
-1 10 -5 5.94 2.22
1 -10 5 -0.24 1.1
1 -10 6 47.92 5.47
-1 10 -6 43.49 5.33
1 -10 6 43.39 5.15
1 -10 6 50.95 5.54
1 -10 6 51.91 5.62
1 -10 6 45.57 5.34
1 -10 6 37 5.21
-1 10 -6 57.08 5.85
-1 10 -6 37.01 4.82
-1 10 -6 51.34 5.57
1 -10 6 40.77 5.64
1 -10 6 46.66 5.87
1 -9 -13 251.4 13.91
1 -9 -13 238.54 13.35
-1 9 13 242.74 13.7
1 -9 -13 249.45 13.93
1 -9 -13 228.25 13.21
1 -9 -13 238.19 13.33
1 -9 -13 253.44 14.85
-1 9 13 246.72 12.65
1 -9 -13 239.26 14.23
-1 9 13 267.52 14.34
1 -9 -12 43.03 5.3
1 -9 -12 51.31 5.62
1 -9 -12 42.95 5.32
1 -9 -12 42.4 5.23
1 -9 -12 40.67 5.17
-1 9 12 44.9 4.94
1 -9 -12 46.32 6.02
1 -9 -12 43.23 5.69
-1 9 12 44.15 5.33
1 -9 -11 129.13 9.35
-1 9 11 118.51 8.74
1 -9 -11 112.89 8.39
1 -9 -11 110.71 8.42
1 -9 -11 111.95 8.65
1 -9 -11 115.46 8.48
1 -9 -11 123.41 8.82
1 -9 -11 110.95 8.99
-1 9 11 114.92 7.81
-1 9 11 110.76 7.06
1 -9 -10 127.6 8.97
-1 9 10 128.93 8.78
1 -9 -10 140.75 8.97
1 -9 -10 141.5 9.09
1 -9 -10 143.96 9.2
1 -9 -10 146.77 9.1
1 -9 -10 133.35 8.85
1 -9 -10 120.48 9.19
-1 9 10 117.74 7.87
-1 9 10 140.69 7.83
-1 9 9 11.41 2.55
1 -9 -9 10.77 2.52
1 -9 -9 10.79 2.41
1 -9 -9 7.79 2.1
1 -9 -9 8.66 2.12
1 -9 -9 10.41 2.34
1 -9 -9 11.35 2.37
-1 9 9 11.73 2.44
1 -9 -9 13.95 3.05
-1 9 9 11.21 1.99
1 -9 -8 343.93 15.17
-1 9 8 317.19 14.29
1 -9 -8 344.66 14.39
1 -9 -8 346.07 14.43
1 -9 -8 354.74 14.64
1 -9 -8 352.57 14.64
1 -9 -8 352.41 14.46
-1 9 8 355.36 14.11
1 -9 -8 348.89 15.71
-1 9 8 380.55 13.76
1 -9 -7 236.86 11.63
-1 9 7 212.06 10.76
1 -9 -7 218.71 10.68
1 -9 -7 222.69 10.77
1 -9 -7 225.86 10.74
1 -9 -7 233.96 10.92
1 -9 -7 225.04 10.71
-1 9 7 233.8 10.62
1 -9 -7 210.44 11.41
-1 9 7 195.94 9.17
-1 9 7 243.08 10.32
1 -9 -6 7.66 1.94
1 -9 -6 9.49 2.05
1 -9 -6 6.18 1.62
1 -9 -6 9.36 2.09
1 -9 -6 8.16 2.17
-1 9 6 4.32 1.33
-1 9 6 8.51 1.82
-1 9 6 6.09 1.66
1 -9 -5 88.98 6.14
1 -9 -5 88.56 6.17
1 -9 -5 89.15 6.14
1 -9 -5 91.79 6.24
-1 9 5 100.94 6.06
-1 9 5 99.37 6.13
1 -9 -5 91.14 6.92
-1 9 4 8.92 1.8
1 -9 -4 6.04 2.08
1 -9 -4 6.32 1.57
1 -9 -4 6.84 1.75
1 -9 -4 8.9 1.96
1 -9 -4 8.1 1.88
-1 9 4 7.93 1.51
1 -9 -4 5.37 1.68
-1 9 4 5.59 1.52
-1 9 4 7.31 1.7
1 -9 -4 6.22 1.61
-1 9 3 223.64 9.39
1 -9 -3 207.25 10.63
1 -9 -3 212.71 9.71
1 -9 -3 217.36 9.79
1 -9 -3 220.88 9.88
1 -9 -3 221.32 9.92
-1 9 3 208.8 8.43
1 -9 -3 216.82 10.25
1 -9 -3 211.67 9.73
-1 9 3 200.7 9.57
1 -9 -3 222.3 10.6
-1 9 3 226.09 9.5
1 -9 -3 223.29 10.28
-1 9 3 189.57 8.34
-1 9 2 61.93 4.37
1 -9 -2 55.35 5.1
1 -9 -2 52.24 4.42
1 -9 -2 54.47 4.49
1 -9 -2 56.24 4.57
1 -9 -2 60.41 4.74
1 -9 -2 55.21 4.81
-1 9 2 47 3.7
1 -9 -2 53.59 4.51
-1 9 2 56.11 4.6
1 -9 -2 50.15 4.65
-1 9 2 54.26 4.3
1 -9 -2 56.74 4.82
-1 9 2 45.85 3.6
-1 9 1 82.34 4.96
1 -9 -1 75.9 6.01
1 -9 -1 71.19 5.18
1 -9 -1 75.94 5.35
1 -9 -1 70.91 5.27
1 -9 -1 69.87 5.2
-1 9 1 78.21 5.06
1 -9 -1 66.56 5.36
1 -9 -1 68.03 5.2
1 -9 -1 74.76 5.85
-1 9 1 72.16 5.3
-1 9 1 68.15 4.77
1 -9 -1 75.42 5.65
-1 9 1 68.81 4.42
1 -9 0 2.1 0.89
1 -9 0 2.04 1.1
-1 9 0 2.15 0.82
1 -9 0 1.26 0.83
1 -9 0 0.77 0.79
1 -9 0 3.96 1.38
1 -9 0 3.11 1.26
1 -9 0 1.54 0.66
-1 9 0 1.9 1.03
1 -9 0 0.73 0.87
-1 9 0 2.5 1.16
-1 9 0 0.53 0.59
-1 9 0 0.99 0.72
1 -9 1 7.39 1.98
-1 9 -1 6.19 1.72
1 -9 1 7.55 1.89
1 -9 1 8.27 1.79
1 -9 1 6.56 1.57
1 -9 1 11.2 2.04
1 -9 1 6.03 1.71
1 -9 1 6.13 1.57
1 -9 1 5.13 1.58
-1 9 -1 7.53 1.72
-1 9 -1 7.04 1.77
1 -9 1 7.53 2.1
-1 9 -1 8.02 1.96
-1 9 -1 10.1 1.8
-1 9 -1 6.12 1.42
1 -9 2 58.65 5.43
-1 9 -2 52.94 4.97
1 -9 2 61.26 5.25
1 -9 2 64.06 5.02
1 -9 2 58.89 4.83
1 -9 2 66.86 5.2
1 -9 2 59.43 4.97
1 -9 2 55.15 4.76
-1 9 -2 53.74 4.61
-1 9 -2 57.97 4.96
-1 9 -2 53.85 4.69
1 -9 2 55.85 5.37
1 -9 2 59.28 5.38
-1 9 -2 58.17 4.21
-1 9 -2 54.34 4.14
1 -9 3 82.04 6.7
-1 9 -3 94.5 6.82
1 -9 3 101.15 6.88
1 -9 3 90.57 6.39
1 -9 3 96.36 6.62
1 -9 3 94.52 6.52
1 -9 3 95.64 6.61
1 -9 3 92.47 6.5
-1 9 -3 93.33 6.43
-1 9 -3 96.68 6.69
1 -9 3 93.38 7.24
-1 9 -3 78.48 5.99
-1 9 -3 86.18 5.51
1 -9 3 98.25 7.26
1 -9 4 7.43 2.14
-1 9 -4 4.81 1.55
1 -9 4 4.35 1.83
1 -9 4 3.43 1.56
1 -9 4 6.1 1.8
1 -9 4 1.84 0.9
1 -9 4 5.52 1.52
1 -9 4 3.23 1.4
1 -9 4 3.95 1.7
-1 9 -4 5.76 1.77
-1 9 -4 2.09 1.06
-1 9 -4 6.22 1.93
1 -9 4 6.01 1.91
-1 9 -4 3.72 1.38
1 -9 5 335.28 14.69
-1 9 -5 304.57 14.32
1 -9 5 311.59 13.8
1 -9 5 331.02 14.08
1 -9 5 350.83 14.47
1 -9 5 327.8 14.2
-1 9 -5 388.5 14.87
-1 9 -5 295.18 13.62
-1 9 -5 299.44 13.52
1 -9 5 321.86 15.42
-1 9 -5 294.03 12.59
1 -9 5 322.43 15.29
-1 9 -6 3.19 2.09
1 -9 6 1.76 1.39
1 -9 6 1.39 1.25
1 -9 6 3.26 1.48
1 -9 6 -0.39 1.22
1 -9 6 2.44 1.55
1 -9 6 2.27 1.83
1 -9 6 1.44 1.08
-1 9 -6 2.75 1.37
-1 9 -6 2.35 1.6
-1 9 -6 2.94 1.64
1 -9 6 1.96 1.6
-1 9 -6 3.22 1.39
1 -9 7 48.74 5.67
-1 9 -7 46.76 5.6
1 -9 7 41.7 4.85
1 -9 7 47.66 5.18
1 -9 7 48.46 5.27
1 -9 7 55.06 5.68
-1 9 -7 63.28 5.96
1 -9 7 47.41 5.77
-1 9 -7 42.76 5.16
-1 9 -7 43.89 5.09
1 -9 7 52.46 6.22
-1 9 -7 44.81 5.11
1 -9 7 47.26 5.92
1 -9 8 1.42 1.26
1 -9 8 5.02 1.95
1 -9 8 0.76 1
1 -9 8 0.41 0.96
1 -9 8 6.57 1.98
-1 9 -8 3.63 1.75
1 -9 8 3.94 2.01
-1 9 -8 -0.63 1.58
-1 9 -8 2.87 1.64
-1 9 -8 0.59 1.37
1 -9 8 -0.42 1.3
-1 9 -8 3.32 1.54
1 -8 -14 53.21 6.27
1 -8 -14 44.63 5.65
-1 8 14 46.51 5.79
1 -8 -14 42.33 5.6
1 -8 -14 48.26 5.91
-1 8 14 47.73 5.18
1 -8 -14 43.25 5.85
-1 8 14 40.48 5.58
1 -8 -13 28.31 4.34
-1 8 13 32 4.7
1 -8 -13 32.14 4.56
1 -8 -13 35.71 4.88
1 -8 -13 33.46 4.7
-1 8 13 31.67 4.1
1 -8 -13 28.77 4.75
-1 8 13 35.43 5.01
1 -8 -13 27.44 4.49
1 -8 -12 128.21 9.09
1 -8 -12 120.36 8.97
-1 8 12 123.21 8.98
1 -8 -12 132.54 9.12
1 -8 -12 125.49 9.02
1 -8 -12 129.67 9.78
-1 8 12 123.56 8.16
1 -8 -12 120.23 9.22
-1 8 12 131.04 9.21
1 -8 -11 268.73 13.84
-1 8 11 264.05 13.26
1 -8 -11 273.1 13.3
1 -8 -11 260.7 12.94
-1 8 11 269.94 13.22
1 -8 -11 281.31 13.31
1 -8 -11 272.92 13.28
1 -8 -11 252.9 13.74
-1 8 11 248.55 11.97
-1 8 11 258.56 11.09
-1 8 10 8.77 2.27
1 -8 -10 9.98 2.48
1 -8 -10 9.37 2.46
-1 8 10 7.97 2.04
1 -8 -10 7.63 2.02
1 -8 -10 10.05 2.49
1 -8 -10 6.95 2
-1 8 10 10.02 2.24
1 -8 -10 4.32 1.8
-1 8 10 7.64 1.75
-1 8 9 157.41 9.2
1 -8 -9 166.65 9.68
1 -8 -9 153.72 9
1 -8 -9 158.36 9.24
1 -8 -9 170.47 9.5
1 -8 -9 156.24 9.02
1 -8 -9 159.5 9.26
-1 8 9 158.07 8.66
1 -8 -9 165.37 10.04
-1 8 9 167.82 8.17
-1 8 8 37.31 4.13
1 -8 -8 31.96 3.95
1 -8 -8 42.38 4.24
1 -8 -8 39.49 4.16
1 -8 -8 43.22 4.36
1 -8 -8 38.54 4.1
1 -8 -8 41.6 4.32
1 -8 -8 35.96 4.39
-1 8 8 40.24 4
-1 8 8 39.86 3.69
1 -8 -7 299.78 12.98
-1 8 7 274.59 12.24
1 -8 -7 288.34 12.1
1 -8 -7 294.12 12.23
1 -8 -7 308.25 12.53
1 -8 -7 291.86 12.16
1 -8 -7 288.93 12.23
-1 8 7 273.67 10.69
-1 8 7 288.41 11.75
1 -8 -7 295.89 13.19
-1 8 7 304.61 11.37
-1 8 6 106.86 6.7
1 -8 -6 113.44 7.15
1 -8 -6 105.35 6.47
1 -8 -6 99.94 6.33
1 -8 -6 111.67 6.76
1 -8 -6 103.02 6.42
1 -8 -6 107.11 6.62
-1 8 6 114.23 6.51
-1 8 6 91.11 5.54
1 -8 -6 114.7 7.42
-1 8 6 114.47 6.31
-1 8 5 5.37 1.62
1 -8 -5 7.26 1.86
1 -8 -5 5.91 1.51
1 -8 -5 7.28 1.68
1 -8 -5 6.14 1.59
1 -8 -5 6.21 1.54
1 -8 -5 5.94 1.56
-1 8 5 8.92 1.77
-1 8 5 5.63 1.27
1 -8 -5 6.41 1.84
-1 8 5 6.36 1.48
1 -8 -4 178.53 8.42
1 -8 -4 174.3 8.38
1 -8 -4 167.63 8.28
-1 8 4 167.79 6.74
1 -8 -4 168.5 8.32
-1 8 4 193.65 8.18
1 -8 -4 167.76 8.99
-1 8 4 183.1 8.27
1 -8 -3 166.67 8.83
-1 8 3 178.78 7.88
1 -8 -3 171.66 8.06
1 -8 -3 170.2 8.07
1 -8 -3 173.88 8.14
1 -8 -3 162.41 7.95
-1 8 3 175.63 7.09
1 -8 -3 173.75 8.15
-1 8 3 173.93 8.21
1 -8 -3 172.9 8.42
-1 8 3 177.78 7.78
1 -8 -2 1.34 1.13
-1 8 2 0.64 0.62
1 -8 -2 1.04 0.81
1 -8 -2 0.51 0.62
1 -8 -2 -0.35 0.75
1 -8 -2 1.3 1.02
1 -8 -2 0.81 0.86
-1 8 2 0.24 0.67
1 -8 -2 1.14 0.79
-1 8 2 0.14 0.85
1 -8 -2 1.34 1.11
1 -8 -2 0.93 0.78
-1 8 2 1.56 0.9
-1 8 2 -1.57 0.88
1 -8 -1 13.19 2.27
-1 8 1 18.05 2.2
1 -8 -1 14.85 2.18
1 -8 -1 19.39 2.42
1 -8 -1 18.65 2.5
1 -8 -1 16 2.27
-1 8 1 15.84 2.19
1 -8 -1 17.38 2.49
1 -8 -1 18.09 2.48
1 -8 -1 22.85 2.98
-1 8 1 17.09 2.36
-1 8 1 14.79 1.87
1 -8 -1 17.29 2.48
-1 8 1 16.89 2.25
1 -8 0 93.31 6.24
-1 8 0 98.16 5.1
1 -8 0 92.26 5.75
1 -8 0 96.15 5.79
1 -8 0 95.76 5.71
1 -8 0 88.55 5.51
-1 8 0 97.36 5.51
1 -8 0 95.91 6.14
1 -8 0 95.89 6.3
-1 8 0 93.21 5.73
-1 8 0 88.92 5.23
1 -8 0 91.63 6
-1 8 0 87.67 4.81
-1 8 -1 141.79 6.22
1 -8 1 131.37 7.68
1 -8 1 129.76 6.61
1 -8 1 140.44 7.1
1 -8 1 138.44 7.08
1 -8 1 141.7 7.2
1 -8 1 132.9 7.01
1 -8 1 131.89 7.57
-1 8 -1 145.24 7.13
1 -8 1 127.64 7.57
-1 8 -1 124.94 6.87
-1 8 -1 134.97 6.44
-1 8 -1 122.12 5.99
1 -8 2 125.25 6.56
1 -8 2 132.1 7.81
1 -8 2 135.01 7.49
-1 8 -2 130.28 7.53
1 -8 2 133.45 7.12
1 -8 2 128.49 7.02
1 -8 2 130.24 7.08
1 -8 2 132.13 7.19
1 -8 2 142.58 7.42
-1 8 -2 143.01 7.26
-1 8 -2 122.27 7.13
-1 8 -2 127.32 7.02
1 -8 2 132.66 7.88
-1 8 -2 131.33 6.24
1 -8 2 124.67 7.56
-1 8 -2 125.5 6.25
1 -8 3 2.17 1.12
-1 8 -3 1.67 1
1 -8 3 4.34 1.48
1 -8 3 2.06 1.1
1 -8 3 5.27 1.61
1 -8 3 4.7 1.27
1 -8 3 2.37 1.26
1 -8 3 1.84 0.96
1 -8 3 2.4 1.24
-1 8 -3 3.5 1.24
-1 8 -3 3.14 1
1 -8 3 4.39 1.55
-1 8 -3 2.43 1.01
-1 8 -3 3.28 0.99
-1 8 -3 3.16 1.1
1 -8 4 156.43 9.02
1 -8 4 159.08 8.77
-1 8 -4 144.14 8.52
1 -8 4 167.55 8.55
1 -8 4 162.64 8.48
1 -8 4 170.9 8.65
1 -8 4 156.92 8.46
1 -8 4 169.22 8.67
-1 8 -4 183.15 8.89
-1 8 -4 163.08 8.63
-1 8 -4 154.51 8.32
1 -8 4 166.63 9.56
1 -8 4 152.25 9.15
-1 8 -4 151.98 7.56
1 -8 5 28.96 3.84
1 -8 5 32.17 3.96
-1 8 -5 31.2 3.97
1 -8 5 29.32 3.55
1 -8 5 30.21 3.58
1 -8 5 33.05 3.76
1 -8 5 31.87 3.77
-1 8 -5 34.37 3.9
-1 8 -5 29.52 3.59
-1 8 -5 30.48 3.65
1 -8 5 28.97 4.08
-1 8 -5 27.12 3.27
1 -8 5 38.38 4.62
1 -8 6 179.51 10.07
-1 8 -6 163.01 9.82
1 -8 6 169.95 9.37
1 -8 6 168.87 9.33
1 -8 6 169.52 9.33
1 -8 6 174.85 9.58
-1 8 -6 188.67 9.67
-1 8 -6 166.54 9.35
-1 8 -6 162.97 9.24
1 -8 6 183.28 10.86
-1 8 -6 162.66 8.51
1 -8 6 160.71 10.28
1 -8 7 77.63 6.54
-1 8 -7 77.55 6.8
1 -8 7 83.41 6.57
1 -8 7 81.09 6.51
1 -8 7 75.59 6.34
1 -8 7 76.28 6.43
-1 8 -7 78.48 6.18
1 -8 7 68.86 6.46
-1 8 -7 58.93 5.87
-1 8 -7 71.75 6.15
1 -8 7 69.71 6.9
-1 8 -7 62.17 5.72
1 -8 7 72.13 7.05
-1 8 -7 76.56 5.92
-1 8 -8 19.52 3.58
1 -8 8 19.8 3.6
1 -8 8 20.31 3.39
1 -8 8 25.76 3.83
1 -8 8 22.64 3.57
1 -8 8 23.55 3.68
1 -8 8 21.65 3.85
-1 8 -8 26.28 3.77
1 -8 8 26.01 4.48
-1 8 -8 18.98 3.35
-1 8 -8 21.86 3.67
1 -8 8 21.03 4.04
-1 8 -8 20.91 3.52
-1 8 -8 20.73 3.33
-1 8 -9 49.95 5.94
1 -8 9 50.53 5.67
1 -8 9 52.62 5.7
1 -8 9 54.03 5.82
1 -8 9 50.19 5.65
1 -8 9 47.66 5.63
-1 8 -9 61.74 5.89
-1 8 -9 38.9 5.36
-1 8 -9 46.87 5.38
1 -8 9 51.11 6.39
-1 8 -9 53.1 5.71
-1 8 -9 42.23 4.88
1 -8 9 57.52 6.69
1 -7 -14 221.07 13.19
1 -7 -14 219.97 12.87
-1 7 14 214.7 12.89
-1 7 14 241.45 13.78
1 -7 -14 219.96 12.98
1 -7 -14 216.24 13.13
1 -7 -14 229.63 13.14
1 -7 -14 222.24 13.94
-1 7 14 209.01 11.25
1 -7 -14 219.18 13.47
-1 7 14 227.92 13.31
1 -7 -13 486.35 20.07
1 -7 -13 463.82 19.49
-1 7 13 478.94 19.9
-1 7 13 458.89 19.77
1 -7 -13 474.13 19.56
1 -7 -13 467.47 19.67
1 -7 -13 460.64 19.83
-1 7 13 444.97 17.66
1 -7 -13 487.91 21.07
1 -7 -13 484.21 20.69
-1 7 13 475.75 19.9
1 -7 -12 129.56 8.88
1 -7 -12 121.88 8.78
-1 7 12 121.77 8.68
-1 7 12 126.1 8.88
1 -7 -12 128.01 8.82
1 -7 -12 126.89 8.97
1 -7 -12 128.51 8.89
1 -7 -12 109.74 8.8
-1 7 12 123.95 7.85
1 -7 -12 116.27 8.98
-1 7 12 115.02 8.57
1 -7 -11 47.87 5.29
-1 7 11 42.53 4.88
-1 7 11 40.18 4.63
1 -7 -11 44.48 4.79
1 -7 -11 40.96 4.76
1 -7 -11 44.35 4.85
1 -7 -11 47.48 5.02
-1 7 11 48.76 4.64
1 -7 -11 38.23 4.83
-1 7 11 43.15 3.79
1 -7 -10 318.46 14.4
-1 7 10 315.01 13.85
-1 7 10 325.84 13.92
1 -7 -10 337.33 13.99
1 -7 -10 329.01 14.04
1 -7 -10 301.85 13.6
1 -7 -10 324.46 13.93
1 -7 -10 316.24 13.63
1 -7 -10 327.46 14.84
-1 7 10 296.8 12.73
-1 7 10 309.43 11.83
1 -7 -9 8.7 2.11
-1 7 9 8.66 2.03
-1 7 9 8.6 1.97
1 -7 -9 8.02 1.96
1 -7 -9 7.21 1.83
1 -7 -9 11.18 2.33
1 -7 -9 9.73 2.14
1 -7 -9 10.08 2.25
-1 7 9 9.62 1.99
1 -7 -9 9.43 2.21
-1 7 9 9.3 1.76
1 -7 -8 303.54 12.89
-1 7 8 285.5 12.28
-1 7 8 275.05 12.08
1 -7 -8 292.24 12.28
1 -7 -8 281.84 12.03
1 -7 -8 292.91 12.55
1 -7 -8 287.7 12.24
1 -7 -8 294.42 12.24
-1 7 8 292.28 11.73
1 -7 -8 294.12 12.97
-1 7 8 291.54 10.86
-1 7 7 1.08 0.85
1 -7 -7 1.92 0.96
1 -7 -7 0.4 0.79
1 -7 -7 1.25 1
1 -7 -7 1.9 1.1
1 -7 -7 2.1 1.07
1 -7 -7 0.9 0.76
-1 7 7 -1.26 1.14
-1 7 7 -0.04 0.59
1 -7 -7 -0.74 1.17
-1 7 7 1.1 0.81
1 -7 -6 91.61 6.08
-1 7 6 74.02 5.5
1 -7 -6 93.74 5.87
1 -7 -6 86.25 5.65
1 -7 -6 89.63 5.74
1 -7 -6 84.92 5.74
1 -7 -6 89.61 5.76
-1 7 6 84.79 4.99
1 -7 -6 87.33 6.09
-1 7 6 86.87 5.44
-1 7 6 92.12 5.27
1 -7 -5 98.95 6.18
-1 7 5 89.1 5.89
1 -7 -5 100.49 5.87
1 -7 -5 97.98 5.79
1 -7 -5 92.05 5.63
-1 7 5 87.13 3.94
1 -7 -5 92.61 5.8
1 -7 -5 97.97 5.83
-1 7 5 87.53 5.05
-1 7 5 101.9 5.68
1 -7 -5 92.02 6.15
-1 7 5 100.5 5.42
-1 7 4 6.15 1.49
1 -7 -4 6.13 1.53
1 -7 -4 6.35 1.46
1 -7 -4 7.6 1.56
1 -7 -4 5.44 1.45
-1 7 4 5.14 0.97
1 -7 -4 4.53 1.22
1 -7 -4 7.08 1.5
1 -7 -4 5.62 1.52
-1 7 4 5.96 1.48
-1 7 4 10.27 1.7
-1 7 4 6.05 1.38
1 -7 -3 79.28 4.94
1 -7 -3 81.14 5.09
1 -7 -3 81.6 5.02
-1 7 3 86.14 4.24
1 -7 -3 78.79 5.04
-1 7 3 89.16 4.97
-1 7 3 87.29 4.92
1 -7 -3 84.21 5.59
1 -7 -2 54.72 4.43
-1 7 2 60.57 3.9
1 -7 -2 51.64 3.78
1 -7 -2 52.5 3.86
1 -7 -2 57.22 3.99
1 -7 -2 56.67 4.03
-1 7 2 55.23 3.5
1 -7 -2 53.07 3.89
-1 7 2 50.96 3.82
1 -7 -2 56.09 4.21
-1 7 2 51.83 3.64
-1 7 1 147.28 6.18
1 -7 -1 130.72 7
1 -7 -1 132.31 6.34
1 -7 -1 130.19 6.4
1 -7 -1 128.84 6.32
1 -7 -1 136.28 6.43
-1 7 1 128.16 5.88
1 -7 -1 133.1 6.86
1 -7 -1 133.3 6.42
-1 7 1 135.24 6.47
1 -7 -1 132.4 6.96
-1 7 1 123.82 5.49
1 -7 -1 129.03 6.69
-1 7 1 123.7 5.9
1 -7 0 328.65 12.32
-1 7 0 338.28 10.62
1 -7 0 327.02 11.3
1 -7 0 325.48 11.31
1 -7 0 315.62 11.28
1 -7 0 324.75 11.46
1 -7 0 324.18 11.95
-1 7 0 294.43 10.77
1 -7 0 314.4 11.34
-1 7 0 323.5 11.4
1 -7 0 340.76 12.37
1 -7 0 328.76 12.02
-1 7 0 313.94 10.66
-1 7 0 318.69 10.28
-1 7 -1 339.5 10.63
1 -7 1 320.43 11.22
1 -7 1 329.88 12.49
1 -7 1 336.44 11.63
1 -7 1 334.4 11.57
1 -7 1 336.13 11.82
1 -7 1 342.66 11.76
1 -7 1 327.6 12.36
-1 7 -1 334.49 11.49
-1 7 -1 326.85 11.62
1 -7 1 337.56 12.57
-1 7 -1 318.53 10.72
-1 7 -1 310.97 10.53
-1 7 -2 410.02 12.09
1 -7 2 384 12.92
1 -7 2 388.08 14.27
1 -7 2 403.78 14.01
-1 7 -2 392.56 14.09
1 -7 2 416.04 13.62
1 -7 2 405.88 13.42
1 -7 2 422.6 13.6
1 -7 2 394.54 13.4
1 -7 2 416.73 13.71
-1 7 -2 396.66 13.32
1 -7 2 418.84 14.61
-1 7 -2 382.72 13.54
1 -7 2 402.99 14.49
-1 7 -2 397.15 13.43
-1 7 -2 362.81 12.18
-1 7 -2 378.46 12.14
1 -7 3 130.84 7.5
1 -7 3 134.11 6.63
1 -7 3 152.68 7.63
-1 7 -3 139.61 7.5
1 -7 3 136.26 7.02
1 -7 3 151.05 7.38
1 -7 3 140.08 7.11
1 -7 3 141.5 7.19
1 -7 3 137.16 7.13
-1 7 -3 130.04 6.86
-1 7 -3 135.54 7.22
-1 7 -3 135.63 7.03
1 -7 3 145.15 7.95
1 -7 3 149.06 8.05
-1 7 -3 129.32 6.3
-1 7 -3 141.76 6.03
1 -7 4 22.21 3.05
1 -7 4 23.46 2.98
-1 7 -4 19.05 2.9
1 -7 4 21.66 2.76
1 -7 4 20.84 2.7
1 -7 4 21.3 2.71
1 -7 4 21.79 2.8
1 -7 4 24.09 2.89
-1 7 -4 25.62 2.97
1 -7 4 19.99 2.95
-1 7 -4 20.65 2.76
1 -7 4 27.06 3.41
-1 7 -4 21.15 2.73
-1 7 -4 21.88 2.51
1 -7 5 77.59 5.96
1 -7 5 79.06 5.84
-1 7 -5 70.5 5.64
1 -7 5 81.4 5.65
1 -7 5 82.81 5.62
1 -7 5 70.58 5.26
1 -7 5 79.18 5.6
-1 7 -5 84.55 5.72
-1 7 -5 77.11 5.64
1 -7 5 69.75 5.96
-1 7 -5 71.79 5.37
1 -7 5 69.59 5.84
-1 7 -5 76.55 5.04
1 -7 6 1.08 1.22
-1 7 -6 -0.67 0.88
1 -7 6 1.81 1.1
1 -7 6 1.49 0.96
1 -7 6 1.7 0.96
1 -7 6 0.48 0.97
-1 7 -6 2.72 1.35
1 -7 6 0.58 0.97
-1 7 -6 1.53 1.17
1 -7 6 2.43 1.27
-1 7 -6 0.68 1
-1 7 -6 3.78 1.29
-1 7 -7 11.5 2.56
1 -7 7 7.49 2.09
1 -7 7 8.97 2.24
1 -7 7 11.59 2.43
1 -7 7 11.63 2.4
1 -7 7 11.36 2.51
1 -7 7 8.31 2.52
1 -7 7 12.42 2.74
-1 7 -7 12.52 2.35
-1 7 -7 6.39 1.89
-1 7 -7 8.99 2.02
1 -7 7 6.82 2.17
-1 7 -7 10.42 2.28
-1 7 -7 8.79 1.97
1 -7 8 145.26 9.25
-1 7 -8 123.1 8.72
1 -7 8 139.41 8.73
1 -7 8 140.88 8.78
1 -7 8 147.93 9.01
1 -7 8 148.22 9.11
1 -7 8 118.62 8.33
-1 7 -8 165.81 8.97
-1 7 -8 122.57 8.29
-1 7 -8 121.23 8.48
1 -7 8 147.46 10.03
-1 7 -8 132.31 8.56
-1 7 -8 127.37 7.86
1 -7 8 137.52 9.69
-1 7 -9 15.47 3.16
1 -7 9 13.58 2.9
1 -7 9 11.71 2.73
1 -7 9 13.52 2.95
1 -7 9 12.49 2.63
1 -7 9 11.22 2.66
-1 7 -9 9.77 2.25
1 -7 9 10.56 2.9
-1 7 -9 7.65 2.64
-1 7 -9 9.98 2.64
1 -7 9 10.41 2.97
-1 7 -9 11.03 2.58
-1 7 -9 11.91 2.52
1 -7 10 1.08 1.27
-1 7 -10 2.46 1.91
1 -7 10 3.88 1.75
1 -7 10 3.73 1.82
1 -7 10 2.83 2.03
1 -7 10 2.7 1.44
1 -7 10 3.31 2.12
-1 7 -10 2.11 1.4
-1 7 -10 1.42 1.17
-1 7 -10 3.78 1.74
-1 7 -10 1.79 1.19
1 -7 10 4.43 2.27
-1 7 -10 5.27 1.89
1 -6 -14 288.09 15.94
-1 6 14 294.26 15.63
1 -6 -14 293.29 14.99
1 -6 -14 297.03 15.29
-1 6 14 306.83 15.6
-1 6 14 303.7 15.37
1 -6 -14 307.79 15.33
1 -6 -14 295.58 15.24
1 -6 -14 294.39 15.4
1 -6 -14 288.01 14.8
-1 6 14 274.45 12.91
1 -6 -13 106.94 8.67
-1 6 13 103.28 8.26
-1 6 13 102.39 8.19
-1 6 13 107.31 8.57
1 -6 -13 104.78 8.3
1 -6 -13 95.64 7.85
1 -6 -13 100.23 8.02
1 -6 -13 98.01 8.1
1 -6 -13 104.19 8.11
1 -6 -13 98.91 7.74
-1 6 13 95.37 6.79
-1 6 12 4.79 1.69
1 -6 -12 5.74 1.94
-1 6 12 6.46 1.94
1 -6 -12 6.68 1.79
-1 6 12 9.35 2.51
1 -6 -12 4.99 1.5
1 -6 -12 9.83 2.33
1 -6 -12 8.26 2.34
1 -6 -12 5.74 1.88
1 -6 -12 5.09 1.66
1 -6 -12 8.7 2.3
-1 6 12 4.96 1.56
1 -6 -11 154.86 9.69
-1 6 11 158.06 9.44
-1 6 11 158.71 9.47
-1 6 11 153.37 9.21
1 -6 -11 168.55 9.55
1 -6 -11 163.67 9.67
1 -6 -11 149.88 8.74
1 -6 -11 157.47 9.45
1 -6 -11 155.69 9.25
1 -6 -11 163.68 9.53
1 -6 -11 164.06 9.15
-1 6 11 149.42 8.38
-1 6 10 119.5 7.19
1 -6 -10 144.73 8.77
-1 6 10 146.52 8.52
-1 6 10 137.1 8.38
-1 6 10 140.42 8.32
1 -6 -10 145.32 8.57
1 -6 -10 134.97 8.09
1 -6 -10 129.21 7.86
1 -6 -10 131.4 8.06
1 -6 -10 132.97 8.08
1 -6 -10 141.12 8.45
1 -6 -10 132.26 7.79
-1 6 10 137.04 6.81
-1 6 9 379.62 13.98
-1 6 9 394.46 14.87
1 -6 -9 398.56 15.4
-1 6 9 388.69 14.78
-1 6 9 380.36 14.82
1 -6 -9 379.79 14.55
1 -6 -9 384.5 14.82
1 -6 -9 360.72 14.5
1 -6 -9 391.6 14.99
1 -6 -9 400.3 14.92
1 -6 -9 384.87 14.63
-1 6 9 372.17 13.13
1 -6 -9 402.49 14.16
-1 6 9 384.62 12.97
1 -6 -8 346.5 13.71
-1 6 8 319.63 12.1
-1 6 8 311.33 10.95
-1 6 8 312.75 12.72
1 -6 -8 322.46 13.15
-1 6 8 334.68 12.98
-1 6 8 334.79 12.88
1 -6 -8 326.2 12.69
1 -6 -8 326.55 12.82
1 -6 -8 315.02 12.71
1 -6 -8 315.05 12.55
1 -6 -8 324.9 12.8
1 -6 -8 326.1 12.93
-1 6 8 318.16 11.6
1 -6 -8 338.2 12.01
-1 6 8 325.26 11.34
1 -6 -7 96.45 6.33
-1 6 7 92.89 4.98
-1 6 7 91.18 5.53
-1 6 7 87.87 5.78
1 -6 -7 92.68 6.12
-1 6 7 95.03 5.88
1 -6 -7 94.36 5.82
1 -6 -7 96.29 5.84
1 -6 -7 88.08 5.82
1 -6 -7 93.33 5.76
1 -6 -7 93.34 5.84
-1 6 7 92.65 5.35
-1 6 7 95.73 5.17
-1 6 6 29.49 3.1
1 -6 -6 35.58 3.5
-1 6 6 31.47 3.21
1 -6 -6 31.36 3.06
1 -6 -6 38.19 3.41
1 -6 -6 29.25 3.16
1 -6 -6 38.17 3.4
1 -6 -6 35.75 3.31
1 -6 -6 34.65 3.53
-1 6 6 31.55 2.76
-1 6 6 35.72 3.19
-1 6 6 34.23 2.89
1 -6 -5 5.1 1.32
-1 6 5 4.61 1.24
1 -6 -5 5.08 1.19
1 -6 -5 4.88 1.26
1 -6 -5 8.99 1.69
-1 6 5 5.82 0.83
1 -6 -5 6.54 1.39
1 -6 -5 4.72 1.08
1 -6 -5 7.64 1.48
-1 6 5 6.16 1.45
1 -6 -5 6.64 1.58
-1 6 5 4.05 0.99
-1 6 5 6.33 1.25
-1 6 4 146.72 6.96
1 -6 -4 145.8 7.04
1 -6 -4 153.12 6.97
1 -6 -4 140.51 6.65
1 -6 -4 146.67 6.77
-1 6 4 135.12 5.11
1 -6 -4 146.68 6.79
1 -6 -4 147.63 6.86
1 -6 -4 147.3 7.3
-1 6 4 168.02 6.99
-1 6 4 141.18 6.2
-1 6 4 167.27 6.71
-1 6 3 22.78 2.43
1 -6 -3 20.42 2.33
1 -6 -3 23.31 2.39
1 -6 -3 22.39 2.32
1 -6 -3 24.11 2.42
-1 6 3 22.81 1.86
1 -6 -3 23.64 2.44
1 -6 -3 24.37 2.41
1 -6 -3 22.46 2.6
-1 6 3 22.02 2.27
-1 6 3 24.96 2.37
-1 6 3 25.66 2.39
1 -6 -2 6.66 1.29
1 -6 -2 6.37 1.27
1 -6 -2 7.74 1.39
-1 6 2 7.17 1.19
1 -6 -2 6.52 1.24
-1 6 2 7.23 1.3
1 -6 -2 5.31 1.27
-1 6 2 6.62 1.28
-1 6 1 458.02 12.86
1 -6 -1 454.6 14.22
1 -6 -1 415.9 12.95
1 -6 -1 415.05 12.94
1 -6 -1 420.63 13.01
1 -6 -1 431.15 13.12
-1 6 1 404 12.37
1 -6 -1 433.42 13.12
-1 6 1 422.53 13.15
1 -6 -1 426.16 13.83
-1 6 1 405.81 12.09
1 -6 -1 436.37 13.7
-1 6 1 444 13.01
-1 6 0 9.12 1.33
1 -6 0 10.33 1.66
1 -6 0 10.96 1.59
1 -6 0 8.57 1.36
1 -6 0 10.21 1.54
1 -6 0 10.69 1.59
1 -6 0 9.21 1.68
-1 6 0 9.83 1.56
1 -6 0 9.04 1.43
-1 6 0 10.38 1.62
1 -6 0 10.25 1.69
-1 6 0 11.83 1.52
1 -6 0 11.45 1.78
-1 6 0 9.92 1.42
1 -6 1 738.88 21.02
-1 6 -1 745.18 19.06
1 -6 1 766.25 20.22
1 -6 1 748.99 20.09
1 -6 1 733.02 20.08
1 -6 1 736.34 20.18
1 -6 1 746.87 20.96
-1 6 -1 749.88 20.02
1 -6 1 742.37 21.06
-1 6 -1 739.16 20.2
1 -6 1 740.81 20.88
-1 6 -1 698.38 18.81
-1 6 -1 695.4 19.09
1 -6 2 45.04 3.29
-1 6 -2 42.09 2.78
1 -6 2 44.32 3.68
-1 6 -2 42.75 3.6
1 -6 2 44.44 3.58
1 -6 2 43.8 3.31
1 -6 2 43.02 3.27
1 -6 2 45.29 3.37
1 -6 2 46.93 3.47
1 -6 2 45.52 3.37
1 -6 2 48.07 3.85
-1 6 -2 36.61 3.12
-1 6 -2 42.7 3.43
1 -6 2 46.21 3.81
-1 6 -2 45.75 3.44
-1 6 -2 36.99 2.19
-1 6 -2 43.3 2.89
-1 6 -2 39.8 2.89
1 -6 3 46.87 3.84
-1 6 -3 41.6 2.76
1 -6 3 43.71 3.34
-1 6 -3 38.5 3.52
1 -6 3 43.95 3.67
1 -6 3 41.06 3.36
1 -6 3 44.69 3.5
1 -6 3 49.14 3.67
1 -6 3 42.91 3.45
1 -6 3 42.93 3.44
-1 6 -3 42.25 3.47
-1 6 -3 42.93 3.58
-1 6 -3 46.94 3.59
1 -6 3 40.72 3.71
-1 6 -3 38.24 2.48
-1 6 -3 36.52 2.96
-1 6 -3 40.57 2.72
1 -6 3 41.95 3.75
1 -6 4 54.35 4.39
1 -6 4 57.34 4.37
-1 6 -4 57.63 4.44
1 -6 4 57.36 4.2
1 -6 4 55.2 4.18
1 -6 4 58.47 4.26
1 -6 4 52.97 4.12
1 -6 4 56.47 4.23
-1 6 -4 68.5 4.6
-1 6 -4 60.44 4.43
1 -6 4 54.74 4.59
-1 6 -4 57.78 4.27
-1 6 -4 48.58 3.25
-1 6 -4 58.44 3.22
-1 6 -4 52.19 3.77
1 -6 4 58.31 4.72
1 -6 5 210.78 9.88
1 -6 5 230.88 10.03
-1 6 -5 214.52 9.92
1 -6 5 228.53 9.65
1 -6 5 223.47 9.5
1 -6 5 221.9 9.5
1 -6 5 224.1 9.6
-1 6 -5 247.3 9.78
-1 6 -5 221.01 9.6
1 -6 5 218.22 10.36
-1 6 -5 204.81 8.15
-1 6 -5 220.83 9.43
-1 6 -5 218.16 8.84
1 -6 5 233.25 10.68
-1 6 -6 82.32 6
1 -6 6 93.03 6.18
1 -6 6 85.82 5.77
1 -6 6 87.04 5.83
1 -6 6 79.83 5.58
1 -6 6 81.13 5.66
-1 6 -6 84.74 5.52
-1 6 -6 76.95 5.56
-1 6 -6 76.24 4.79
1 -6 6 85.52 6.42
-1 6 -6 85.07 5.71
-1 6 -6 77.54 5.25
1 -6 6 87.94 6.5
1 -6 7 94.9 6.63
-1 6 -7 80.72 6.35
1 -6 7 88.66 6.29
1 -6 7 95.91 6.45
1 -6 7 91.03 6.3
1 -6 7 85.63 6.15
-1 6 -7 97.52 6.16
1 -6 7 88.66 6.58
-1 6 -7 91.9 6.4
-1 6 -7 83.58 6.33
-1 6 -7 82.93 6.03
1 -6 7 95.37 7.2
-1 6 -7 89.24 5.87
1 -6 7 86.86 6.83
-1 6 -8 5.11 1.94
1 -6 8 8.01 2.19
1 -6 8 11.76 2.39
1 -6 8 10.52 2.33
1 -6 8 8.58 2.08
1 -6 8 10.48 2.37
1 -6 8 7.77 2.26
-1 6 -8 9.93 2.15
1 -6 8 7.25 2.15
-1 6 -8 7.27 2.08
-1 6 -8 9.14 2.18
-1 6 -8 8.32 2.04
1 -6 8 7.2 2.04
-1 6 -8 6.43 1.66
1 -6 9 64.85 6.04
-1 6 -9 50.31 5.39
1 -6 9 54.32 5.36
1 -6 9 52.37 5.29
1 -6 9 58.07 5.51
1 -6 9 48.95 5.21
-1 6 -9 57.84 5.09
1 -6 9 52.58 5.24
-1 6 -9 45.7 5.03
-1 6 -9 46.26 5.22
-1 6 -9 52.5 5.32
1 -6 9 53.07 5.88
-1 6 -9 56.24 5.14
1 -6 9 65.7 6.58
1 -6 10 30.8 4.27
-1 6 -10 32.82 4.64
1 -6 10 31.6 4.43
1 -6 10 32.25 4.44
1 -6 10 30.9 4.31
1 -6 10 28.92 4.29
-1 6 -10 33 3.99
1 -6 10 27.13 4.67
-1 6 -10 27.01 4.14
-1 6 -10 27 4.14
1 -6 10 30.36 4.74
-1 6 -10 24.25 4.06
-1 6 -10 29.54 3.91
-1 6 -11 1.64 1.76
1 -6 11 4.28 1.73
1 -6 11 1.2 1.19
1 -6 11 0.73 1.17
1 -6 11 0.64 1.22
1 -6 11 1.54 1.4
1 -6 11 1.72 1.51
-1 6 -11 3.28 1.4
-1 6 -11 2.88 1.67
-1 6 -11 0.58 1.33
1 -6 11 -0.42 1.73
-1 6 -11 2.57 1.47
-1 6 -11 0.85 1.07
1 -5 -14 28.23 4.45
-1 5 14 24.12 4.16
-1 5 14 29.61 4.53
1 -5 -14 25.96 4.14
1 -5 -14 20.52 3.7
1 -5 -14 26.24 4.38
1 -5 -14 27.37 4.26
1 -5 -14 22.61 4.02
-1 5 14 22.82 4.07
1 -5 -14 22.31 4.27
-1 5 13 -1.05 1.58
1 -5 -13 2.81 1.75
-1 5 13 1.25 1.03
-1 5 13 0.28 1.3
1 -5 -13 -0.58 1.13
1 -5 -13 0.65 0.98
1 -5 -13 2 1.49
1 -5 -13 1.23 0.94
1 -5 -13 2.94 1.76
1 -5 -13 1.69 1.62
-1 5 13 1.41 1.2
-1 5 12 34.79 4.45
1 -5 -12 41.49 4.95
-1 5 12 41.19 4.75
-1 5 12 46.87 5.14
1 -5 -12 41.63 4.72
1 -5 -12 42.81 4.9
-1 5 12 37.29 3.9
1 -5 -12 37.28 4.11
1 -5 -12 38.27 4.49
1 -5 -12 38.56 4.71
1 -5 -12 36.5 4.41
1 -5 -12 36.09 4.36
-1 5 12 35.94 3.89
1 -5 -11 9.43 2.18
-1 5 11 11.08 2.4
-1 5 11 9.28 2.23
-1 5 11 10.54 2.36
1 -5 -11 11.97 2.59
1 -5 -11 9.89 2.1
-1 5 11 9.68 2.03
1 -5 -11 14.73 2.65
1 -5 -11 11.04 2.43
1 -5 -11 11.22 2.31
1 -5 -11 10.64 2.33
1 -5 -11 11.63 2.31
-1 5 11 10.48 2
-1 5 10 601.76 19.34
1 -5 -10 633.49 21.51
-1 5 10 643.25 21.06
-1 5 10 626.47 20.63
-1 5 10 641.57 21
1 -5 -10 631.2 20.97
1 -5 -10 631.05 20.67
-1 5 10 625.59 19.53
1 -5 -10 599.69 19.81
1 -5 -10 619.54 20.88
1 -5 -10 602.46 20.49
1 -5 -10 599.54 20.39
1 -5 -10 619.27 20.11
-1 5 10 601.97 17.9
-1 5 9 289.53 11.5
-1 5 9 316.76 12.54
1 -5 -9 312.65 12.88
-1 5 9 301.95 12.36
-1 5 9 309.39 12.34
1 -5 -9 310.26 12.56
1 -5 -9 306.97 12.29
1 -5 -9 284.66 11.75
-1 5 9 292.55 11.57
1 -5 -9 312.21 12.42
1 -5 -9 304.92 12.44
1 -5 -9 295.87 12.14
1 -5 -9 311.62 11.87
-1 5 9 290.08 10.75
-1 5 9 297.58 10.41
-1 5 8 156.36 6.7
-1 5 8 164.12 7.69
-1 5 8 174.9 8.31
1 -5 -8 163.94 8.42
-1 5 8 166.02 8.08
-1 5 8 169.08 8.22
1 -5 -8 163.72 7.96
1 -5 -8 170.89 8.24
-1 5 8 154.33 7.54
1 -5 -8 156.02 7.86
1 -5 -8 162.88 8.12
1 -5 -8 156.64 7.81
1 -5 -8 161.04 7.99
1 -5 -8 168.81 7.69
-1 5 8 148.28 6.88
-1 5 8 161.41 6.84
-1 5 7 351.64 11.35
-1 5 7 353.12 12.42
-1 5 7 368.4 12.96
1 -5 -7 357.44 13.21
-1 5 7 367.53 12.8
-1 5 7 383.32 13.08
1 -5 -7 374.96 12.86
1 -5 -7 377.3 13.05
1 -5 -7 362.28 12.87
1 -5 -7 376.14 13.02
1 -5 -7 363.96 12.75
1 -5 -7 370.6 12.87
1 -5 -7 360.47 12.08
-1 5 7 364.81 11.97
-1 5 7 371.92 11.77
-1 5 6 57.09 3.46
-1 5 6 60.08 4.03
-1 5 6 59.78 4.16
1 -5 -6 61.13 4.33
-1 5 6 56.43 4.1
-1 5 6 57.27 4.08
1 -5 -6 55.96 4.05
1 -5 -6 61.41 4.15
1 -5 -6 57.28 4.14
1 -5 -6 60.97 4.16
1 -5 -6 56.64 4.07
1 -5 -6 55.38 3.95
1 -5 -6 56.98 3.6
-1 5 6 54.56 3.71
-1 5 6 58.89 3.65
1 -5 -5 368.86 12.65
-1 5 5 355.78 11.03
-1 5 5 362.58 11.84
-1 5 5 383.69 12.2
1 -5 -5 376.2 12.39
-1 5 5 358.32 12.01
1 -5 -5 361.37 12
1 -5 -5 377.55 12.06
-1 5 5 342.72 8.98
1 -5 -5 366.71 12.35
1 -5 -5 362.11 11.96
1 -5 -5 361.94 11.92
-1 5 5 361.31 11.68
1 -5 -5 362.98 10.92
-1 5 5 390.42 11.53
-1 5 4 41 3.2
1 -5 -4 40.1 3.23
1 -5 -4 39.71 3.06
1 -5 -4 37.84 3
1 -5 -4 40.3 3.05
-1 5 4 38.72 2.06
1 -5 -4 42.6 3.32
1 -5 -4 41.6 3.09
1 -5 -4 41.5 3.1
-1 5 4 45.49 2.88
-1 5 4 43.2 3.08
1 -5 -4 46.97 3.57
-1 5 4 42.46 2.95
-1 5 3 843.75 23.28
1 -5 -3 881.45 23.36
1 -5 -3 924.54 23.15
1 -5 -3 888.18 22.92
1 -5 -3 896.49 22.96
1 -5 -3 893.26 23.68
-1 5 3 868.17 21.23
1 -5 -3 886.92 22.88
1 -5 -3 885.61 23.03
-1 5 3 921.76 23
1 -5 -3 894.6 23.87
-1 5 3 903.89 22.46
-1 5 3 932.42 22.85
1 -5 -2 790.25 20.16
1 -5 -2 761.83 20.02
1 -5 -2 764.82 20.06
-1 5 2 710.75 18.8
1 -5 -2 770.34 20.09
-1 5 2 773.61 19.92
-1 5 2 802.5 20.02
1 -5 -2 805.66 21.12
-1 5 2 786.84 19.88
1 -5 -1 243.29 8.81
-1 5 1 241.8 7.92
1 -5 -1 249.9 8.25
1 -5 -1 233.98 8.1
1 -5 -1 234.13 8.14
1 -5 -1 229.49 8.08
-1 5 1 231.06 7.66
1 -5 -1 239.92 8.16
-1 5 1 240.2 8.28
-1 5 1 254.25 8.15
-1 5 0 2.15 0.67
1 -5 0 2.27 0.8
1 -5 0 3.02 0.82
1 -5 0 2.58 0.76
1 -5 0 2.75 0.74
1 -5 0 1.33 0.57
-1 5 0 3.21 0.75
1 -5 0 1.84 0.69
1 -5 0 2.16 0.75
-1 5 0 1.71 0.3
-1 5 0 1.5 0.62
1 -5 0 2.06 0.63
1 -5 0 2.09 0.8
-1 5 0 1.98 0.66
-1 5 0 3.5 0.8
1 -5 1 111.71 5.49
-1 5 -1 107.96 4.53
1 -5 1 121.59 5.21
1 -5 1 113.75 5.03
1 -5 1 119.31 5.18
1 -5 1 111.07 5.08
-1 5 -1 118.16 5.17
1 -5 1 115.59 5.56
1 -5 1 114.02 5.6
-1 5 -1 114.91 5.11
-1 5 -1 94.93 3.37
-1 5 -1 105.17 4.57
1 -5 1 107.67 5.37
-1 5 -1 109.22 4.41
1 -5 2 30.12 2.72
-1 5 -2 28.07 2.1
1 -5 2 29.8 2.48
-1 5 -2 33.41 2.83
1 -5 2 28.68 2.59
1 -5 2 32.61 2.59
1 -5 2 29.56 2.48
1 -5 2 31.52 2.53
1 -5 2 30.3 2.5
1 -5 2 32.79 2.62
-1 5 -2 29.64 2.58
1 -5 2 30.26 2.79
-1 5 -2 28.81 2.56
-1 5 -2 26.75 1.71
-1 5 -2 33.61 2.67
1 -5 2 28.85 2.77
-1 5 -2 28.74 2.11
-1 5 -2 28.92 2.2
1 -5 3 699.44 19.4
-1 5 -3 674.17 17.19
1 -5 3 662.69 18.41
-1 5 -3 675.77 19.12
1 -5 3 709.72 19.13
1 -5 3 694.49 18.65
1 -5 3 721.67 18.74
1 -5 3 685.21 18.59
1 -5 3 699.6 18.72
1 -5 3 698.06 18.79
-1 5 -3 690.58 18.75
-1 5 -3 655.51 18.65
-1 5 -3 598.39 16.63
-1 5 -3 660.22 18.46
1 -5 3 694.93 19.72
1 -5 3 679.72 19.57
-1 5 -3 624.29 16.84
-1 5 -3 624.04 17.46
1 -5 4 39.99 3.47
-1 5 -4 37.35 3.34
1 -5 4 43.78 3.53
1 -5 4 40.86 3.25
1 -5 4 41.61 3.3
1 -5 4 38.57 3.15
1 -5 4 36.68 3.16
1 -5 4 38.17 3.19
-1 5 -4 42.21 3.33
-1 5 -4 36.64 2.48
-1 5 -4 40.11 3.33
1 -5 4 40.6 3.62
-1 5 -4 39.1 3.17
-1 5 -4 39.55 2.75
-1 5 -4 35.29 2.85
1 -5 4 41.7 3.72
-1 5 -4 40.72 2.37
1 -5 5 429.03 14.41
-1 5 -5 416.83 14.5
1 -5 5 419.41 13.98
1 -5 5 428.54 14.1
1 -5 5 426.5 14.02
1 -5 5 438.22 14.23
-1 5 -5 443.33 13.98
-1 5 -5 423.68 14.15
-1 5 -5 387.87 12.6
-1 5 -5 427.55 14.02
1 -5 5 438.22 15.17
1 -5 5 435.46 15.23
-1 5 -5 443.1 13.48
-1 5 -6 68.62 5.12
1 -5 6 71.33 5.11
1 -5 6 71.7 4.92
1 -5 6 72.82 4.99
1 -5 6 66.51 4.77
1 -5 6 80.15 5.25
-1 5 -6 75.96 4.88
-1 5 -6 70.89 4.94
-1 5 -6 64.39 4.75
-1 5 -6 78.53 4.65
1 -5 6 62.01 5.14
1 -5 6 74.76 5.64
-1 5 -6 67.8 4.52
1 -5 7 654.57 20.62
-1 5 -7 639.95 20.67
1 -5 7 617.25 19.81
1 -5 7 632.24 19.95
1 -5 7 645.91 20.03
1 -5 7 640.32 20.12
1 -5 7 583.27 19.96
-1 5 -7 701.78 19.79
-1 5 -7 608.73 19.74
-1 5 -7 571.43 19.72
-1 5 -7 649.9 19.21
-1 5 -7 592.01 19.56
1 -5 7 651.85 21.63
-1 5 -7 631.49 19.21
1 -5 7 641.59 21.49
1 -5 8 51.76 4.87
-1 5 -8 55.57 5.16
1 -5 8 58.35 5
1 -5 8 46.31 4.46
1 -5 8 54.61 4.79
1 -5 8 52.43 4.74
1 -5 8 49.17 4.65
-1 5 -8 59.6 4.77
-1 5 -8 44.64 4.52
-1 5 -8 50.03 4.85
-1 5 -8 48.05 4.3
-1 5 -8 51.82 4.73
1 -5 8 56.41 5.52
1 -5 8 55.51 5.44
-1 5 -8 57.29 4.71
-1 5 -9 165.23 9.78
1 -5 9 170.88 9.73
1 -5 9 172.49 9.55
1 -5 9 170.39 9.53
1 -5 9 167.61 9.38
1 -5 9 167.24 9.55
-1 5 -9 187.93 9.04
1 -5 9 158.1 9.04
-1 5 -9 170.59 9.44
-1 5 -9 156.86 9.32
1 -5 9 188.52 10.98
-1 5 -9 153.86 9.03
-1 5 -9 213.19 9.91
1 -5 9 182.68 10.82
-1 5 -9 181.43 9.27
-1 5 -10 1.06 1.19
1 -5 10 -1.39 1.22
1 -5 10 1.52 1.25
1 -5 10 -0.31 0.95
1 -5 10 0.39 0.94
1 -5 10 -0.48 1.21
-1 5 -10 -1.51 1.24
-1 5 -10 0.05 1.4
-1 5 -10 0 1.05
-1 5 -10 1.81 1.1
-1 5 -10 2.55 1.46
1 -5 10 1.41 1.42
1 -5 10 0.08 1.08
-1 5 -10 0.2 0.75
1 -5 11 127.43 9.18
-1 5 -11 113.39 8.72
1 -5 11 113.01 8.31
1 -5 11 117.68 8.63
1 -5 11 118.62 8.62
-1 5 -11 135.33 7.97
-1 5 -11 114.82 8.36
-1 5 -11 115.56 8.39
-1 5 -11 106.41 8.28
1 -5 11 120.03 9.59
-1 5 -11 132.1 8.75
1 -5 11 133.1 10.21
-1 5 -11 123.15 8.45
-1 5 -12 -1.92 1.9
1 -5 12 1.18 1.97
1 -5 12 1.11 1.17
1 -5 12 -0.82 1.12
1 -5 12 -1.38 1.47
1 -5 12 4.56 2.31
-1 5 -12 0.52 1.17
-1 5 -12 -0.27 1.53
-1 5 -12 -0.69 1.24
1 -5 12 1.22 1.61
-1 5 -12 1.85 1.22
-1 4 14 6.41 2.11
1 -4 -14 8.32 2.59
1 -4 -14 8.96 2.47
1 -4 -14 7.33 2.49
1 -4 -14 7.47 2.61
-1 4 14 1.03 1.51
1 -4 -14 5.96 2.16
1 -4 -14 5.16 2.35
-1 4 14 9.86 2.9
1 -4 -14 6.08 2.2
-1 4 13 2.27 1.74
1 -4 -13 2.07 1.54
-1 4 13 0.12 1.27
1 -4 -13 0.83 1.59
1 -4 -13 -0.05 1.03
1 -4 -13 3.61 1.68
1 -4 -13 -0.58 1.49
1 -4 -13 1.49 1.31
-1 4 13 0.46 1.06
1 -4 -13 0.2 1.43
-1 4 12 8.81 2.31
1 -4 -12 9.21 2.3
-1 4 12 6.09 1.94
-1 4 12 5.12 1.74
1 -4 -12 11.99 2.15
-1 4 12 10.88 2.32
1 -4 -12 7.97 2.04
1 -4 -12 8.85 2.16
1 -4 -12 5.89 1.81
1 -4 -12 4.95 1.85
1 -4 -12 5.4 1.97
-1 4 12 6.38 1.71
1 -4 -11 117.41 8.02
-1 4 11 120.13 7.84
-1 4 11 120.91 7.88
-1 4 11 131.43 8.06
1 -4 -11 112.29 7.45
-1 4 11 111.29 6.79
1 -4 -11 109.24 6.85
1 -4 -11 114.66 7.54
1 -4 -11 121.03 7.85
1 -4 -11 122.79 7.71
1 -4 -11 118.45 7.49
-1 4 11 121.39 6.92
1 -4 -10 91.81 6.68
-1 4 10 98.49 6.63
-1 4 10 100.62 6.64
-1 4 10 100.84 6.56
1 -4 -10 102.51 6.57
1 -4 -10 94.05 5.95
-1 4 10 92.74 5.84
1 -4 -10 98.16 6.61
1 -4 -10 98.84 6.48
1 -4 -10 92.51 6.3
1 -4 -10 100.88 6.45
-1 4 10 91.75 5.78
-1 4 9 20.36 2.55
1 -4 -9 23.25 3.05
-1 4 9 25.43 3.12
-1 4 9 25 3
-1 4 9 25.94 3.11
1 -4 -9 25.99 3.09
1 -4 -9 19.99 2.68
-1 4 9 20.24 2.47
1 -4 -9 22.78 2.86
1 -4 -9 22.16 2.82
1 -4 -9 18.23 2.45
1 -4 -9 22.12 2.83
-1 4 9 20.64 2.17
-1 4 8 1404.32 34.56
-1 4 8 1380.75 35.65
1 -4 -8 1459.88 37.51
-1 4 8 1418.53 36.74
-1 4 8 1509.27 37.01
-1 4 8 1481.51 36.79
1 -4 -8 1463.9 36.91
1 -4 -8 1448.18 36.65
1 -4 -8 1379.23 36.09
-1 4 8 1387.68 35.7
1 -4 -8 1441.3 36.64
1 -4 -8 1464.45 36.88
1 -4 -8 1464.98 36.68
-1 4 8 1378.8 34.66
1 -4 -8 1466.99 36.17
-1 4 8 1353.33 34.28
-1 4 7 1143.58 28.88
-1 4 7 1159.17 30.07
-1 4 7 1204.32 30.9
1 -4 -7 1223.57 31.48
-1 4 7 1192.42 30.69
-1 4 7 1218.52 30.9
1 -4 -7 1214.55 31.01
1 -4 -7 1189.64 30.68
1 -4 -7 1152.46 30.49
-1 4 7 1190.19 30.28
1 -4 -7 1213.9 30.93
1 -4 -7 1190.87 30.76
1 -4 -7 1180.44 30.66
1 -4 -7 1197.59 30.07
-1 4 7 1147.09 29.29
-1 4 7 1172.86 29.01
-1 4 6 43.91 3.22
-1 4 6 41.55 2.74
-1 4 6 43.19 3.29
1 -4 -6 45.76 3.54
-1 4 6 44.92 3.3
-1 4 6 44.02 3.33
1 -4 -6 40.97 3.26
1 -4 -6 40.63 3.15
1 -4 -6 39.78 3.22
-1 4 6 40.43 3.11
1 -4 -6 42.99 3.32
1 -4 -6 46.07 3.35
1 -4 -6 45.12 3.32
-1 4 6 38.52 2.86
1 -4 -6 42.79 3.04
-1 4 6 43.35 2.91
-1 4 5 166.14 6.55
-1 4 5 164.38 5.82
-1 4 5 164.8 6.65
1 -4 -5 167.27 6.89
-1 4 5 162.3 6.55
-1 4 5 165.57 6.69
1 -4 -5 164.44 6.66
1 -4 -5 167.76 6.62
-1 4 5 156.43 6.49
1 -4 -5 165.26 6.77
1 -4 -5 167.16 6.63
1 -4 -5 162.47 6.65
1 -4 -5 161.18 6.56
-1 4 5 162.84 6.22
1 -4 -5 167.16 6.06
-1 4 5 167.71 6.09
-1 4 4 4552.99 100.29
-1 4 4 4658.3 101.43
1 -4 -4 4627.9 102.31
-1 4 4 4679.69 101.53
1 -4 -4 4561.77 101.82
-1 4 4 4571.19 101.43
1 -4 -4 4688.17 101.46
1 -4 -4 4617.04 101.3
1 -4 -4 4647.96 101.89
-1 4 4 4461.84 98.5
1 -4 -4 4623.88 101.29
1 -4 -4 4595.09 101.36
1 -4 -4 4611.88 100.17
-1 4 4 4475.37 101.06
-1 4 4 4741.81 100.98
1 -4 -3 1465.06 35.23
-1 4 3 1450.47 35.06
1 -4 -3 1469.71 34.92
1 -4 -3 1453.47 34.81
1 -4 -3 1473.52 34.85
1 -4 -3 1470.58 35.43
-1 4 3 1429.22 32.97
1 -4 -3 1460.57 34.81
1 -4 -3 1456.01 34.9
-1 4 3 1490.03 34.25
-1 4 3 1517.13 35.04
1 -4 -3 1502.29 35.75
-1 4 3 1525.37 34.72
-1 4 2 169.6 6.17
1 -4 -2 163.4 6.22
1 -4 -2 168.06 5.98
1 -4 -2 157.98 5.83
1 -4 -2 167.18 5.95
-1 4 2 163.82 5.2
1 -4 -2 166.97 6.44
1 -4 -2 162.93 5.88
1 -4 -2 161.15 5.93
-1 4 2 157.51 5.7
1 -4 -2 168.9 6.57
-1 4 2 166.25 6
-1 4 2 158.51 5.86
1 -4 -1 1010.76 24.06
1 -4 -1 1015.45 24.1
1 -4 -1 1029.38 24.13
-1 4 1 967.16 23.5
1 -4 -1 986.2 24.03
-1 4 1 936.18 23.81
1 -4 -1 1010.29 24.93
-1 4 1 1031.75 24.08
1 -4 0 41.29 2.77
-1 4 0 40.21 2.32
1 -4 0 40.04 2.44
1 -4 0 37.34 2.36
1 -4 0 41.45 2.49
1 -4 0 39.77 2.44
-1 4 0 35.39 2.26
1 -4 0 37.82 2.39
1 -4 0 38.54 2.71
-1 4 0 31.59 1.15
-1 4 0 39.61 2.48
-1 4 0 41.36 2.46
1 -4 0 41.46 2.75
-1 4 0 35.78 2.03
1 -4 1 566.91 15.09
-1 4 -1 556.14 13.88
1 -4 1 551.87 14.34
1 -4 1 554.42 14.35
1 -4 1 563.13 14.42
1 -4 1 563.56 14.47
1 -4 1 564.09 15.18
-1 4 -1 591.45 14.61
-1 4 -1 574.86 14.55
1 -4 1 560.08 15.17
-1 4 -1 464.81 12.34
1 -4 1 552.29 15.09
-1 4 -1 552.5 13.67
-1 4 -1 486.41 13.7
1 -4 2 312.02 10.04
-1 4 -2 311.3 8.89
1 -4 2 309.75 9.63
1 -4 2 319.44 9.87
-1 4 -2 312.34 10
1 -4 2 316.54 9.53
1 -4 2 307.81 9.49
1 -4 2 321.2 9.49
1 -4 2 306.95 9.47
1 -4 2 307.01 9.51
1 -4 2 309.49 10.16
-1 4 -2 319.05 9.64
-1 4 -2 323.66 9.77
-1 4 -2 269.5 8
-1 4 -2 317.21 9.54
1 -4 2 319.15 10.26
-1 4 -2 287.98 8.59
-1 4 -2 288.26 8.74
1 -4 3 34.33 2.77
-1 4 -3 30.27 2.09
1 -4 3 36.28 2.68
1 -4 3 31.81 2.62
-1 4 -3 31.82 2.7
1 -4 3 32.88 2.57
1 -4 3 34.37 2.62
1 -4 3 31.82 2.48
1 -4 3 33.38 2.61
1 -4 3 35.81 2.66
-1 4 -3 36.71 2.74
-1 4 -3 36.15 2.74
-1 4 -3 29.56 2.01
1 -4 3 32.3 2.81
-1 4 -3 38.88 2.76
-1 4 -3 31.17 2.24
-1 4 -3 31.93 1.94
1 -4 3 34.12 2.85
1 -4 4 367.7 12.25
-1 4 -4 384.12 12.36
1 -4 4 387.49 12.25
1 -4 4 386.71 11.89
1 -4 4 383.45 11.9
1 -4 4 388.41 11.91
1 -4 4 379.17 11.9
1 -4 4 380.89 12
-1 4 -4 358.13 10.58
-1 4 -4 372.39 11.75
-1 4 -4 386.27 12.05
-1 4 -4 400.25 12.03
-1 4 -4 384.82 11.21
1 -4 4 379.79 12.73
1 -4 4 398.02 12.94
-1 4 -4 378.49 11.37
-1 4 -4 354.35 9.82
1 -4 5 889.02 23.68
-1 4 -5 887.78 23.93
1 -4 5 847.76 23.06
1 -4 5 868.62 23.12
1 -4 5 870.55 23.19
1 -4 5 880.65 23.33
-1 4 -5 949.78 23.31
-1 4 -5 841.61 23.14
-1 4 -5 815.06 22
-1 4 -5 856.97 23.14
1 -4 5 874.7 24.37
-1 4 -5 805.88 19.88
-1 4 -5 949.96 22.89
1 -4 5 887.88 24.47
-1 4 -6 844.68 24.05
1 -4 6 843.09 23.84
1 -4 6 813.87 23.17
1 -4 6 829.2 23.16
1 -4 6 841.63 23.33
1 -4 6 834.39 23.34
1 -4 6 817.13 23.35
-1 4 -6 887.14 23.07
-1 4 -6 826.96 23.25
-1 4 -6 805.27 23.37
-1 4 -6 922.04 23.03
-1 4 -6 848.12 23.32
1 -4 6 830.65 24.45
-1 4 -6 816.84 22.65
1 -4 6 844.01 24.7
1 -4 7 610.01 19.13
-1 4 -7 593.57 19.16
1 -4 7 579 18.47
1 -4 7 584.19 18.43
1 -4 7 589.96 18.48
1 -4 7 594.93 18.67
1 -4 7 580.36 18.35
-1 4 -7 647.47 18.17
-1 4 -7 578.07 18.66
-1 4 -7 580.15 18.45
-1 4 -7 588.45 18.47
-1 4 -7 580.24 17.94
1 -4 7 600.74 19.91
1 -4 7 612.72 20.13
-1 4 -7 652.69 18.52
-1 4 -8 53.2 4.84
1 -4 8 58.52 4.98
1 -4 8 55.69 4.66
1 -4 8 56.01 4.72
1 -4 8 49.1 4.4
1 -4 8 57.87 4.77
-1 4 -8 61.69 4.46
1 -4 8 53.91 4.41
-1 4 -8 52.97 4.51
-1 4 -8 50.67 4.56
1 -4 8 49.67 4.93
-1 4 -8 67.45 4.88
-1 4 -8 53.16 4.54
-1 4 -8 55.41 4.61
1 -4 8 59.03 5.38
-1 4 -9 3.59 1.35
1 -4 9 5.9 1.78
1 -4 9 4.26 1.53
1 -4 9 6.97 1.96
1 -4 9 5.97 1.69
1 -4 9 6.13 1.76
1 -4 9 4.65 1.46
1 -4 9 5.37 1.67
-1 4 -9 7.76 1.66
-1 4 -9 6.61 1.85
-1 4 -9 4.69 1.56
-1 4 -9 4.97 1.64
-1 4 -9 4.48 1.43
1 -4 9 6.92 2.08
-1 4 -9 6.23 1.73
-1 4 -10 3.22 1.64
1 -4 10 3.7 1.82
1 -4 10 3.45 1.54
1 -4 10 0.9 0.91
1 -4 10 -0.52 1.24
1 -4 10 0.49 1.1
1 -4 10 2.92 1.67
-1 4 -10 3.47 1.38
-1 4 -10 1 0.95
-1 4 -10 2.9 1.61
-1 4 -10 3.42 1.83
1 -4 10 1.12 1.27
-1 4 -10 1.27 1.22
-1 4 -10 3.11 1.58
1 -4 11 22.96 3.81
-1 4 -11 18.68 3.44
1 -4 11 20.37 3.41
1 -4 11 20.81 3.38
1 -4 11 20.95 3.46
-1 4 -11 24.83 3.85
-1 4 -11 23.39 3.66
-1 4 -11 17.33 3.11
1 -4 11 18.24 3.63
-1 4 -11 18.19 3.23
-1 4 -11 24.64 3.83
-1 4 -11 22.36 2.98
1 -4 11 18.71 3.71
-1 4 -12 99.52 8.35
1 -4 12 95.8 8.13
1 -4 12 94.33 7.7
1 -4 12 105.15 8
1 -4 12 95.08 7.79
-1 4 -12 104.87 8.01
-1 4 -12 93.39 7.78
-1 4 -12 108.84 8.17
-1 4 -12 110.81 8.33
1 -4 12 91.57 8.54
-1 4 -12 97.12 7.72
1 -4 12 111.9 9.51
-1 4 -13 32.75 4.78
-1 3 14 70.02 7.2
-1 3 14 66.23 6.92
1 -3 -14 67.7 6.94
1 -3 -14 68.41 6.76
1 -3 -14 70.08 6.98
1 -3 -14 70.56 6.93
1 -3 -14 67.7 6.9
1 -3 -14 77.73 7.7
-1 3 14 70.75 7.38
-1 3 13 2.32 1.16
-1 3 13 0.69 1.3
1 -3 -13 1.19 1.11
1 -3 -13 2.57 1.31
1 -3 -13 1.84 1.4
1 -3 -13 2.8 1.55
1 -3 -13 4.86 2.25
-1 3 13 3.79 1.57
1 -3 -13 0.4 1.23
-1 3 12 17.51 3.32
1 -3 -12 19.43 3.41
-1 3 12 14.55 2.82
-1 3 12 18.24 3.19
-1 3 12 14.14 2.43
1 -3 -12 15.11 2.85
1 -3 -12 20.48 3.28
1 -3 -12 19.53 3.12
1 -3 -12 18.92 3.33
1 -3 -12 17.75 2.93
1 -3 -12 20.65 3.27
-1 3 11 100.23 6.05
-1 3 11 105.74 7.39
1 -3 -11 98.29 7.34
-1 3 11 113.36 7.48
-1 3 11 106.58 7.21
1 -3 -11 114.08 7.42
-1 3 11 106.94 6.57
1 -3 -11 114.63 6.52
1 -3 -11 102.07 7.1
1 -3 -11 102.47 7.03
1 -3 -11 102.05 7.14
1 -3 -11 106.51 7.04
1 -3 -11 104.04 7.11
-1 3 10 153.61 7.39
-1 3 10 152.15 8.42
1 -3 -10 165.29 8.97
-1 3 10 152.8 8.4
-1 3 10 153.1 8.33
1 -3 -10 153.75 8.37
1 -3 -10 138.06 7.35
-1 3 10 155.22 7.66
1 -3 -10 149.12 8.23
1 -3 -10 153.2 8.4
1 -3 -10 155.92 8.33
1 -3 -10 146.64 8.02
1 -3 -10 164.16 8.44
-1 3 9 811.4 23.09
-1 3 9 862.72 24.95
1 -3 -9 876.04 25.45
-1 3 9 879.86 24.8
-1 3 9 876.23 24.89
1 -3 -9 857.53 24.77
-1 3 9 836.49 23.62
1 -3 -9 808.59 23.48
1 -3 -9 861.3 24.84
1 -3 -9 862.16 24.69
1 -3 -9 838.81 24.59
1 -3 -9 855.61 24.37
-1 3 9 805.83 21.68
1 -3 -9 862.11 24.46
-1 3 8 703.32 20.42
-1 3 8 737.89 19.77
1 -3 -8 749.21 22.12
-1 3 8 755.46 21.75
-1 3 8 776.54 21.71
-1 3 8 766.68 21.54
1 -3 -8 771.29 21.71
-1 3 8 713.43 20.72
1 -3 -8 712.97 20.72
1 -3 -8 756.93 21.58
1 -3 -8 773.06 21.75
1 -3 -8 745.16 21.45
-1 3 8 739.46 19.64
1 -3 -8 747.45 21.18
1 -3 -8 781.8 21.5
-1 3 8 728.97 19.31
-1 3 7 138.41 5.58
-1 3 7 137.36 6.15
-1 3 7 144.25 6.71
1 -3 -7 137.55 6.83
-1 3 7 141.21 6.54
-1 3 7 143.76 6.65
1 -3 -7 137.69 6.52
1 -3 -7 132.76 6.29
-1 3 7 130.29 6.09
1 -3 -7 131.22 6.44
1 -3 -7 136.96 6.5
1 -3 -7 149.65 6.7
1 -3 -7 138.99 6.36
-1 3 7 139.51 5.68
1 -3 -7 142.83 6.43
-1 3 7 127.56 5.35
-1 3 6 699.96 19.23
-1 3 6 704.42 18.31
-1 3 6 745.62 19.85
1 -3 -6 746.81 20.18
-1 3 6 748.68 19.75
-1 3 6 747.41 19.85
1 -3 -6 715.52 19.6
1 -3 -6 701.15 19.45
-1 3 6 696.42 19.38
1 -3 -6 729.11 19.76
1 -3 -6 718.13 19.57
1 -3 -6 728.44 19.68
-1 3 6 712.93 18.55
1 -3 -6 731.75 19.27
1 -3 -6 740.85 19.42
-1 3 6 712.1 18.4
-1 3 5 989.42 23.7
-1 3 5 969.09 24.75
-1 3 5 1005.99 25.03
1 -3 -5 996.18 25.31
-1 3 5 1007.07 24.92
-1 3 5 1014.82 25.04
1 -3 -5 1009.73 25.03
1 -3 -5 1012.18 24.91
-1 3 5 963.14 24.78
1 -3 -5 965.67 24.98
1 -3 -5 1010.26 24.94
1 -3 -5 997.3 24.83
1 -3 -5 984.34 24.95
-1 3 5 983.25 24.11
1 -3 -5 982.02 24.32
-1 3 5 992.45 24.05
-1 3 4 14.42 1.53
-1 3 4 14.64 1.29
1 -3 -4 15.39 1.68
-1 3 4 14.77 1.57
-1 3 4 14.31 1.54
-1 3 4 14.25 1.5
1 -3 -4 15.09 1.55
1 -3 -4 12.8 1.48
1 -3 -4 15.28 1.66
-1 3 4 13.4 1.54
1 -3 -4 16.06 1.61
1 -3 -4 15.7 1.62
1 -3 -4 14.39 1.54
1 -3 -4 15.71 1.41
-1 3 4 13.21 1.38
-1 3 4 16.96 1.54
-1 3 3 1095.7 25.08
-1 3 3 1094.29 25.97
1 -3 -3 1088.97 26.1
-1 3 3 1087.49 25.86
-1 3 3 1069.65 25.93
-1 3 3 1049.12 25.83
1 -3 -3 1083.36 25.76
1 -3 -3 1100.23 25.87
-1 3 3 1082.57 23.94
-1 3 3 1082.04 26.16
1 -3 -3 1077.04 26.24
1 -3 -3 1069.05 25.88
1 -3 -3 1062.71 25.76
1 -3 -3 1089.96 25.77
-1 3 3 1066.31 25.7
1 -3 -3 1071.57 24.92
-1 3 3 1105.54 25.67
1 -3 -2 4676.43 102.53
-1 3 2 4794.94 101.28
-1 3 2 4648.02 101.89
-1 3 2 4749.77 101.91
1 -3 -2 4631.05 101.97
1 -3 -2 4838.66 101.81
1 -3 -2 4664.01 101.65
1 -3 -2 4783.16 101.74
1 -3 -2 4799.41 102.4
-1 3 2 4645.52 100.56
1 -3 -2 4591.28 101.63
1 -3 -2 4643.02 101.7
1 -3 -2 4564.89 100.47
-1 3 2 4539.21 101.81
1 -3 -1 1748.83 39.84
1 -3 -1 1816.03 39.91
1 -3 -1 1762.04 39.85
-1 3 1 1770.29 39.42
1 -3 -1 1786.82 40.5
1 -3 -1 1721.43 39.81
-1 3 1 1817.15 40.1
-1 3 1 1804.49 40.05
1 -3 -1 1753.43 40.63
1 -3 0 138.54 5.15
-1 3 0 136.27 4.67
1 -3 0 141.23 4.7
1 -3 0 139.88 4.72
1 -3 0 144.86 4.75
1 -3 0 145.44 4.78
-1 3 0 122.89 4.55
1 -3 0 136.2 4.68
-1 3 0 142.92 4.8
-1 3 0 135.99 4.78
-1 3 0 144.58 4.23
-1 3 -1 1060.64 25.19
1 -3 1 1092.67 26.1
1 -3 1 1090.24 25.51
1 -3 1 1095.54 25.48
1 -3 1 1094.33 25.56
1 -3 1 1104.63 25.55
-1 3 -1 1130.62 25.76
1 -3 1 1118.54 26.38
-1 3 -1 1125.73 25.67
1 -3 1 1107.04 26.33
1 -3 1 1074.64 26.22
-1 3 -1 1011.57 25.03
-1 3 -1 1079.84 24.82
1 -3 2 83.58 3.87
-1 3 -2 77.73 3.23
1 -3 2 78.93 3.7
1 -3 2 78.95 3.73
-1 3 -2 79.51 3.88
1 -3 2 78.55 3.5
1 -3 2 74.43 3.41
1 -3 2 75.22 3.47
1 -3 2 77.75 3.56
1 -3 2 77.83 3.51
1 -3 2 78.06 3.93
-1 3 -2 79.96 3.62
-1 3 -2 84 3.71
-1 3 -2 82.26 3.57
1 -3 2 85.77 4.06
-1 3 -2 66.25 2.72
-1 3 -2 70.36 2.92
-1 3 -2 78.88 3.21
1 -3 3 0.5 0.43
1 -3 3 0.25 0.34
-1 3 -3 0.2 0.32
1 -3 3 0.95 0.51
-1 3 -3 0.82 0.54
1 -3 3 0.23 0.38
1 -3 3 0.63 0.42
1 -3 3 0.26 0.41
1 -3 3 0.68 0.47
1 -3 3 -0.03 0.3
-1 3 -3 0.69 0.4
1 -3 3 0.22 0.46
-1 3 -3 0.57 0.46
-1 3 -3 0.31 0.36
-1 3 -3 0.94 0.45
1 -3 3 -0.16 0.53
-1 3 -3 0.49 0.3
-1 3 -3 1.83 0.56
1 -3 4 483.15 13.91
1 -3 4 478.12 13.86
-1 3 -4 468.92 13.98
1 -3 4 504.72 13.67
1 -3 4 508.8 13.69
1 -3 4 496.46 13.67
1 -3 4 497.28 13.67
-1 3 -4 453.1 13.28
-1 3 -4 511.59 13.9
1 -3 4 503.94 14.47
-1 3 -4 514.13 13.74
-1 3 -4 426.82 12.61
-1 3 -4 435.36 12.79
1 -3 4 501.98 14.57
-1 3 -4 438.52 11.3
-1 3 -5 26.23 2.63
1 -3 5 23.6 2.45
1 -3 5 25.64 2.39
1 -3 5 27.42 2.45
1 -3 5 28.78 2.49
1 -3 5 25.51 2.4
-1 3 -5 28.3 2.44
-1 3 -5 26.86 2.47
1 -3 5 27.04 2.73
-1 3 -5 30.11 2.59
-1 3 -5 20.79 2.04
-1 3 -5 24.31 2.21
1 -3 5 29.09 2.88
-1 3 -5 23.56 1.17
-1 3 -6 1095.44 29.7
1 -3 6 1120.93 29.56
1 -3 6 1145.92 29.26
1 -3 6 1158.89 29.32
1 -3 6 1160.79 29.38
1 -3 6 1127.51 29.27
1 -3 6 1132.87 29.09
-1 3 -6 1176.55 28.8
-1 3 -6 1198.79 29.58
-1 3 -6 1120.47 29.5
-1 3 -6 1049.21 28.35
1 -3 6 1162.74 30.55
-1 3 -6 1168.04 29.33
-1 3 -6 1129.46 28.71
1 -3 6 1140.12 30.56
1 -3 7 1149.48 31.11
-1 3 -7 1164.04 31.39
1 -3 7 1158.74 30.6
1 -3 7 1147.17 30.52
1 -3 7 1156.58 30.6
1 -3 7 1174.69 30.77
-1 3 -7 1220.03 29.82
1 -3 7 1168.08 30.12
-1 3 -7 1160.13 30.88
-1 3 -7 1183.78 30.78
1 -3 7 1210.77 32.23
-1 3 -7 1246.61 30.54
-1 3 -7 1156.53 30.6
1 -3 7 1122.27 28.31
1 -3 7 1182.88 32.14
-1 3 -7 1115.34 29.92
1 -3 8 31.57 3.46
-1 3 -8 34.44 3.72
1 -3 8 35.86 3.58
1 -3 8 35.31 3.5
1 -3 8 32.04 3.39
1 -3 8 36.8 3.58
-1 3 -8 38.12 3.27
1 -3 8 41.36 3.59
-1 3 -8 35.67 3.53
-1 3 -8 37.44 3.75
-1 3 -8 42.61 3.88
-1 3 -8 33.48 3.47
1 -3 8 37.38 4.02
1 -3 8 34.37 3.88
-1 3 -8 41.84 3.61
1 -3 9 4.08 1.5
-1 3 -9 6.28 1.68
1 -3 9 4.57 1.49
1 -3 9 5.74 1.64
1 -3 9 5.21 1.46
1 -3 9 3.32 1.27
-1 3 -9 6.51 1.71
-1 3 -9 5.54 1.65
-1 3 -9 6.85 1.66
-1 3 -9 6.71 1.7
1 -3 9 5.46 1.75
-1 3 -9 4.24 1.43
-1 3 -9 4.7 1.28
1 -3 9 2.93 1.01
1 -3 9 4.22 1.6
1 -3 10 42.71 4.6
-1 3 -10 39.68 4.53
-1 3 -10 44.62 3.78
-1 3 -10 36.17 4.08
-1 3 -10 34.46 4.12
-1 3 -10 38.13 4.18
1 -3 10 41.03 4.29
1 -3 10 37.86 4.12
1 -3 10 43.37 4.53
-1 3 -10 38.42 4.38
1 -3 10 43.19 5
-1 3 -10 34.76 4.01
1 -3 10 36.82 4.6
1 -3 11 404.52 16.75
-1 3 -11 388.36 16.75
1 -3 11 386.49 16.17
1 -3 11 385.59 16.19
1 -3 11 389.2 16.4
-1 3 -11 393.13 16.2
-1 3 -11 402.55 16.32
-1 3 -11 397.88 16.4
1 -3 11 409.77 17.91
-1 3 -11 441.92 16.87
1 -3 11 413.7 18.13
-1 3 -11 418.61 16.35
-1 3 -12 -0.93 1.5
1 -3 12 1.6 1.47
1 -3 12 0.18 1.11
1 -3 12 -0.66 1.33
1 -3 12 -0.17 1.07
1 -3 12 -1.43 1.69
-1 3 -12 2.05 1.57
-1 3 -12 0.42 1.1
1 -3 12 0.92 1.63
-1 3 -12 2.9 1.6
-1 3 -12 2.87 1.81
-1 3 -12 0.6 1.24
1 -3 13 5.91 2.05
-1 3 -13 4.95 2.45
1 -3 13 1.3 1.46
1 -3 13 4.85 1.9
1 -3 13 0.43 1.14
1 -3 13 3.53 2.17
-1 3 -13 6.63 2.44
-1 3 -13 3.86 1.95
-1 3 -13 7.95 2.53
-1 3 -13 2.3 1.62
-1 3 -13 4.24 2.27
-1 3 -13 4.49 2.09
1 -2 -14 17.49 3.71
-1 2 14 18.05 3.77
-1 2 14 14.38 3.15
-1 2 14 17.1 3.36
1 -2 -14 14.29 3.16
1 -2 -14 16.53 3.53
1 -2 -14 13.32 3.09
1 -2 -14 14.5 3.34
1 -2 -14 11.09 2.84
1 -2 -14 12.65 2.93
1 -2 -13 17.44 3.38
-1 2 13 15.7 3.18
-1 2 13 14.05 3.03
-1 2 13 18 3.43
1 -2 -13 17.87 3.36
1 -2 -13 17.89 3.31
1 -2 -13 19 3.43
1 -2 -13 15.9 3.24
1 -2 -13 19.59 3.51
1 -2 -13 22.45 3.73
1 -2 -12 250.86 12.99
-1 2 12 250.73 12.6
-1 2 12 238.8 12.51
-1 2 12 239.7 12.31
-1 2 12 248.3 12.38
1 -2 -12 252.6 12.41
-1 2 12 259.69 11.33
1 -2 -12 266.71 12.66
1 -2 -12 257.62 12.42
1 -2 -12 256.95 12.55
1 -2 -12 249.67 12.23
1 -2 -12 260.78 12.44
-1 2 11 50.09 5.04
1 -2 -11 55.92 5.46
-1 2 11 58.32 5.25
-1 2 11 59.79 5.24
-1 2 11 62.17 5.55
1 -2 -11 61.6 5.36
-1 2 11 55.32 4.69
1 -2 -11 51.3 4.22
1 -2 -11 61.65 5.42
1 -2 -11 56.52 5.12
1 -2 -11 54.43 5.06
1 -2 -11 57.37 5.16
1 -2 -11 58 5.18
-1 2 10 491.42 15.79
-1 2 10 516.03 17.94
1 -2 -10 502.84 18.22
-1 2 10 538.05 18.25
-1 2 10 529.88 17.73
-1 2 10 539.68 17.95
1 -2 -10 515.06 17.72
1 -2 -10 470.69 15.89
-1 2 10 489.96 16.5
1 -2 -10 534.18 17.78
1 -2 -10 541.36 17.84
1 -2 -10 525.37 17.77
1 -2 -10 514.33 17.55
1 -2 -10 517.82 17.56
-1 2 9 83.17 4.8
-1 2 9 77.59 4.58
1 -2 -9 85.41 5.86
-1 2 9 89.52 5.82
-1 2 9 88.56 5.67
-1 2 9 83.37 5.69
-1 2 9 84.33 5.54
1 -2 -9 84.2 5.55
1 -2 -9 76.81 4.85
-1 2 9 83.13 5.13
1 -2 -9 84.96 5.54
1 -2 -9 92.08 5.75
1 -2 -9 91.79 5.71
1 -2 -9 94.37 5.72
1 -2 -9 83.6 5.45
-1 2 8 397.51 12.19
-1 2 8 383.78 12.42
-1 2 8 423.38 14.05
1 -2 -8 404.55 14.11
-1 2 8 413.13 13.68
-1 2 8 416.71 13.75
-1 2 8 440.4 14.17
1 -2 -8 399.04 13.67
1 -2 -8 385.76 12.76
-1 2 8 385.18 12.9
1 -2 -8 397.34 13.55
1 -2 -8 415.07 13.76
1 -2 -8 403.59 13.6
1 -2 -8 405.07 13.46
-1 2 8 396.38 11.72
1 -2 -8 400.39 13.41
-1 2 8 379.34 11.4
-1 2 7 443.52 13.25
-1 2 7 430.36 12.68
-1 2 7 467.74 14.35
1 -2 -7 444.9 14.46
-1 2 7 470.99 14.14
-1 2 7 452.76 14.05
-1 2 7 457.06 14.27
1 -2 -7 455.27 14.13
1 -2 -7 435.13 13.54
-1 2 7 439.41 13.55
1 -2 -7 447.92 14.04
1 -2 -7 455.16 14.03
1 -2 -7 457.79 14.08
1 -2 -7 458.13 13.98
-1 2 7 444.46 12.47
-1 2 7 428.67 12.26
1 -2 -7 451.39 13.89
-1 2 6 0.01 0.42
-1 2 6 -0.09 0.36
1 -2 -6 0.23 0.4
-1 2 6 0.8 0.62
-1 2 6 0.48 0.4
-1 2 6 0.16 0.45
-1 2 6 0.18 0.49
1 -2 -6 0.38 0.63
-1 2 6 -0.13 0.49
1 -2 -6 0.37 0.45
1 -2 -6 -0.23 0.55
1 -2 -6 0.13 0.49
1 -2 -6 0.44 0.4
1 -2 -6 0.72 0.54
1 -2 -6 1.42 0.79
-1 2 6 0.21 0.26
1 -2 -6 0.67 0.53
-1 2 6 0.51 0.45
-1 2 5 205.92 6.39
-1 2 5 197.65 6.97
-1 2 5 206.01 7.32
1 -2 -5 196.38 7.4
-1 2 5 214.48 7.43
-1 2 5 210.7 7.24
-1 2 5 202.67 7.18
1 -2 -5 215.5 7.37
1 -2 -5 207.25 7.27
1 -2 -5 208.45 7.24
-1 2 5 197.85 7.12
1 -2 -5 203.66 7.19
1 -2 -5 204.89 7.26
1 -2 -5 208.84 7.26
1 -2 -5 209.51 7.15
-1 2 5 200.12 6.44
1 -2 -5 201.98 7
-1 2 5 197.6 6.46
-1 2 4 67.5 2.74
-1 2 4 63.9 3.23
1 -2 -4 65.18 3.39
-1 2 4 60.51 3.18
-1 2 4 64.37 3.21
-1 2 4 62.84 3.15
1 -2 -4 64.58 3.23
-1 2 4 62.22 3.26
1 -2 -4 59.09 3.22
1 -2 -4 57.81 3.16
1 -2 -4 64.93 3.26
1 -2 -4 65.71 3.25
1 -2 -4 63.05 3.17
-1 2 4 60.46 2.79
1 -2 -4 65.08 3.12
1 -2 -4 62.37 3.05
-1 2 4 63.29 2.92
-1 2 3 3868.62 82.54
-1 2 3 3785.65 83.61
-1 2 3 3799.59 83.5
1 -2 -3 3857.03 83.72
-1 2 3 3819.22 83.43
-1 2 3 3801.63 83.49
1 -2 -3 3765.03 83.4
-1 2 3 3762.03 83.74
1 -2 -3 3861.2 83.71
1 -2 -3 3739.42 83.79
1 -2 -3 3778.46 83.42
1 -2 -3 3746.3 83.46
1 -2 -3 3751.26 83.38
1 -2 -3 4010.31 83.09
-1 2 3 3887.86 83.04
1 -2 -3 3822.61 83.1
-1 2 3 3766.12 83.18
-1 2 2 224.88 5.87
1 -2 -2 215.84 5.76
-1 2 2 213.87 6.5
1 -2 -2 217.68 6.47
-1 2 2 216.89 6.36
-1 2 2 221.53 6.35
-1 2 2 220.03 6.44
1 -2 -2 217.27 6.27
1 -2 -2 219.91 6.35
1 -2 -2 224.84 6.33
1 -2 -2 223.35 6.34
1 -2 -2 225.56 6.4
1 -2 -2 223.52 5.87
-1 2 2 220.09 6.42
1 -2 -2 221.71 6.73
-1 2 2 215.67 5.42
-1 2 2 215.16 6.69
1 -2 -2 223.01 6.56
1 -2 -1 8421.22 176.9
1 -2 -1 8485.26 176.47
-1 2 1 8258.91 176.61
1 -2 -1 7925.41 176.94
1 -2 -1 8044.52 176.35
-1 2 1 8266.16 176.34
1 -2 0 4997.96 104.43
-1 2 0 5062.89 104.13
1 -2 0 4996.5 103.76
1 -2 0 5053.18 103.81
1 -2 0 5100.24 103.81
1 -2 0 4992.75 103.79
1 -2 0 4609.21 104.15
1 -2 0 4829.41 103.75
-1 2 0 5109.59 103.9
-1 2 0 5130.06 103.15
-1 2 0 4949.7 104.11
1 -2 1 2001.71 42.25
-1 2 -1 1904.03 41.79
1 -2 1 2057.05 41.87
1 -2 1 2047.47 41.81
1 -2 1 2058.52 41.88
1 -2 1 2035.02 41.91
-1 2 -1 1697.18 41.86
1 -2 1 1958.66 42.61
1 -2 1 1958.89 42.55
-1 2 -1 2058.36 41.88
1 -2 1 1953.02 42.53
-1 2 -1 1951.14 41.22
-1 2 -1 1834.65 41.5
1 -2 2 1162.92 26.53
1 -2 2 1180.75 26.35
-1 2 -2 1133.26 25.75
1 -2 2 1205 26.37
-1 2 -2 1167.76 26.45
1 -2 2 1164.46 26.06
1 -2 2 1179.76 26.06
1 -2 2 1154.02 26.03
1 -2 2 1137.51 26.11
1 -2 2 1155.46 26.09
-1 2 -2 1108.84 26.16
1 -2 2 1135.76 26.79
-1 2 -2 1158.83 26.22
-1 2 -2 1174.59 26.08
1 -2 2 1152.98 26.72
-1 2 -2 1180.59 25.59
1 -2 3 0.62 0.43
1 -2 3 -0.02 0.24
-1 2 -3 0.7 0.39
-1 2 -3 0.06 0.14
1 -2 3 0.06 0.27
-1 2 -3 -0.14 0.35
1 -2 3 -0.12 0.35
1 -2 3 0.19 0.26
1 -2 3 0.22 0.24
1 -2 3 0.19 0.32
1 -2 3 0.15 0.31
-1 2 -3 1.26 0.46
-1 2 -3 0.29 0.41
-1 2 -3 0.35 0.4
1 -2 3 -0.12 0.35
-1 2 -3 0.43 0.4
-1 2 -3 0.57 0.22
-1 2 -3 0.74 0.42
-1 2 -4 121.02 5.22
1 -2 4 122.6 5.16
-1 2 -4 116.66 3.6
1 -2 4 129.42 5.04
1 -2 4 125.4 4.97
1 -2 4 120.73 4.95
1 -2 4 129 5.08
-1 2 -4 125.09 4.88
-1 2 -4 131.59 5.13
-1 2 -4 122.28 4.74
1 -2 4 121.87 5.4
-1 2 -4 125.37 4.98
-1 2 -4 122.29 4.73
1 -2 4 124.11 5.48
-1 2 -4 109.49 3.17
-1 2 -5 2370.2 54.35
1 -2 5 2372.56 54.11
1 -2 5 2383.1 53.69
1 -2 5 2337.71 53.72
1 -2 5 2348.76 53.66
1 -2 5 2319.9 53.73
1 -2 5 2279.1 53.12
-1 2 -5 2318.99 53.03
-1 2 -5 2416.47 53.87
-1 2 -5 2367.8 54.08
-1 2 -5 2347.1 53.72
1 -2 5 2420.56 54.71
1 -2 5 2360.02 54.69
-1 2 -5 2478.2 53.4
1 -2 6 2092.79 50.82
-1 2 -6 2118.36 51.02
1 -2 6 2187.54 50.52
1 -2 6 2150.55 50.43
1 -2 6 2170.67 50.56
1 -2 6 2145.43 50.56
-1 2 -6 2092.96 49.46
1 -2 6 2087.9 49.72
-1 2 -6 2217.1 50.62
-1 2 -6 2218.53 50.84
-1 2 -6 2257.07 50.53
1 -2 6 2069.96 51.34
-1 2 -6 2198.84 50.51
-1 2 -6 2123.76 49.99
1 -2 6 2162.43 51.68
1 -2 7 118.39 6.37
-1 2 -7 115.33 6.41
1 -2 7 134.19 6.47
1 -2 7 128.81 6.38
1 -2 7 129.68 6.39
1 -2 7 127.53 6.38
-1 2 -7 119.03 5.56
1 -2 7 126.59 5.91
-1 2 -7 129.77 6.53
-1 2 -7 124.71 6.31
-1 2 -7 130.26 6.38
1 -2 7 126.23 6.9
-1 2 -7 128.6 6.35
-1 2 -7 124.57 6.15
1 -2 7 111.91 4.94
1 -2 7 129.92 7.01
-1 2 -8 465.27 15.94
1 -2 8 453.07 15.62
1 -2 8 455.57 15.28
1 -2 8 444.52 15.22
1 -2 8 448.44 15.27
1 -2 8 456 15.44
1 -2 8 445.47 14.29
-1 2 -8 474.55 14.21
-1 2 -8 475.85 15.44
-1 2 -8 478.41 15.59
-1 2 -8 510.98 15.77
-1 2 -8 464.6 15.33
1 -2 8 461.04 16.41
1 -2 8 462.85 16.51
-1 2 -8 499.64 15.42
1 -2 9 24.1 3.07
-1 2 -9 21.46 3.04
1 -2 9 19.52 2.76
1 -2 9 21.4 2.85
1 -2 9 20.26 2.73
-1 2 -9 22.08 2.89
-1 2 -9 21.46 2.99
-1 2 -9 21.03 2.85
-1 2 -9 23.92 2.94
-1 2 -9 23.5 3.11
1 -2 9 23.17 3.23
1 -2 9 18.96 2.33
-1 2 -9 18.84 2.32
1 -2 9 19.87 3.11
1 -2 10 104.26 7.1
-1 2 -10 100.34 7.14
-1 2 -10 106.25 5.8
-1 2 -10 91.78 6.43
-1 2 -10 91.88 6.49
-1 2 -10 95.21 6.55
1 -2 10 95.24 6.6
1 -2 10 102.06 6.75
1 -2 10 96.1 6.58
-1 2 -10 119.43 7.24
1 -2 10 88.67 5.94
1 -2 10 111.59 7.79
-1 2 -10 108.28 6.78
1 -2 10 101.72 7.52
-1 2 -11 30.52 4.07
1 -2 11 28.33 3.9
1 -2 11 30.05 3.84
1 -2 11 26.34 3.59
1 -2 11 31.52 3.97
-1 2 -11 25.49 3.63
-1 2 -11 33.19 4.04
-1 2 -11 26.3 3.65
1 -2 11 27.93 4.17
-1 2 -11 31.51 4.07
1 -2 11 34.91 4.59
-1 2 -11 33.54 3.92
1 -2 12 28.98 3.91
-1 2 -12 26.8 4.02
1 -2 12 26.61 3.88
1 -2 12 26.3 3.97
1 -2 12 27.03 3.94
1 -2 12 29.41 4.53
-1 2 -12 26.09 3.79
-1 2 -12 25.05 3.91
-1 2 -12 25.55 3.8
-1 2 -12 26.74 3.93
-1 2 -12 29.14 4.24
-1 2 -12 32.32 4.27
-1 2 -13 63.57 6.54
1 -2 13 63.48 6.48
-1 2 -13 47.57 5.48
1 -2 13 54.77 5.79
1 -2 13 54.43 5.74
1 -2 13 54.5 5.91
-1 2 -13 57.72 5.84
-1 2 -13 59.43 6.01
-1 2 -13 62.94 6.2
-1 2 -13 66.17 7
1 -2 13 62.71 6.98
-1 2 -13 60.71 6.17
-1 2 -14 9.88 3.3
1 -1 -14 47.13 5.93
-1 1 14 50.49 6.01
1 -1 -14 45.45 5.63
-1 1 14 48.81 5.9
-1 1 14 37.78 5.33
-1 1 14 41.91 5.47
1 -1 -14 40.32 5.28
1 -1 -14 52.69 6.05
1 -1 -14 37.93 5.23
1 -1 -14 49.06 5.82
1 -1 -14 50.92 5.99
1 -1 -13 36.7 5.08
-1 1 13 33.63 4.72
-1 1 13 28.2 4.16
-1 1 13 36.3 4.91
1 -1 -13 36.78 4.85
-1 1 13 31.57 4.5
1 -1 -13 37.74 4.77
1 -1 -13 41.77 5.08
1 -1 -13 35.09 4.57
1 -1 -13 40.31 5.06
1 -1 -13 39.74 4.86
1 -1 -12 2.6 1.58
-1 1 12 0.47 1.05
-1 1 12 -0.05 1.02
-1 1 12 1.26 1.06
-1 1 12 0.63 0.97
-1 1 12 1.07 1.14
1 -1 -12 -0.32 1.18
1 -1 -12 -0.18 1.01
1 -1 -12 1.79 1.29
1 -1 -12 1.87 1.26
1 -1 -12 2.68 1.63
1 -1 -12 2.82 1.54
-1 1 11 930.67 28.59
1 -1 -11 955.92 29.19
-1 1 11 925.73 28.27
-1 1 11 953.46 28.95
-1 1 11 904.52 28.3
1 -1 -11 926.86 28.4
-1 1 11 920.17 26.68
1 -1 -11 915.14 28.08
1 -1 -11 898.52 27.95
1 -1 -11 955.94 28.5
1 -1 -11 951.18 28.36
1 -1 -11 954.06 28.26
-1 1 10 21.64 3.07
1 -1 -10 19.24 2.97
-1 1 10 21.02 3.01
-1 1 10 26.47 3.49
-1 1 10 19.96 3
1 -1 -10 20.33 2.45
-1 1 10 17.87 2.56
1 -1 -10 21.96 3.08
1 -1 -10 20.77 2.96
1 -1 -10 23.1 3.05
1 -1 -10 21.31 2.96
1 -1 -10 19.88 2.93
1 -1 -10 22.12 3.05
-1 1 9 204.59 8.41
-1 1 9 207.92 8.23
1 -1 -9 226.23 10.19
-1 1 9 229.01 10.01
-1 1 9 236.19 9.93
-1 1 9 224.12 9.77
-1 1 9 227.91 10
1 -1 -9 214.56 9.74
-1 1 9 211.36 9.03
1 -1 -9 234.93 9.87
1 -1 -9 226.95 9.81
1 -1 -9 217.78 9.66
1 -1 -9 233.69 9.89
1 -1 -9 223.75 9.65
-1 1 8 218.63 8.36
-1 1 8 228.17 8.4
-1 1 8 240.69 9.88
1 -1 -8 233.3 9.95
-1 1 8 254.95 9.78
-1 1 8 267.84 10.16
-1 1 8 260.26 9.89
1 -1 -8 240.73 9.71
-1 1 8 225.51 9.1
1 -1 -8 236.32 8.92
1 -1 -8 251.16 9.74
1 -1 -8 242.73 9.69
1 -1 -8 254.17 9.82
1 -1 -8 240.53 9.64
1 -1 -8 232.62 9.43
-1 1 7 586.74 16.82
1 -1 -7 592.6 17.13
-1 1 7 567.4 16.51
-1 1 7 558.34 16.45
-1 1 7 571.34 16.74
1 -1 -7 558.83 16.61
-1 1 7 554.03 16.12
1 -1 -7 542.46 15.76
1 -1 -7 567.08 16.49
1 -1 -7 557.59 16.47
1 -1 -7 562.25 16.49
-1 1 7 542.32 14.6
1 -1 -7 568.79 16.51
1 -1 -7 560.81 16.33
-1 1 7 531.65 14.47
1 -1 -6 95.74 4.95
-1 1 6 94.73 4.76
-1 1 6 94.44 4.67
-1 1 6 102.56 4.93
-1 1 6 95.56 4.66
1 -1 -6 87.7 4.61
-1 1 6 86.14 4.46
1 -1 -6 81.7 2.61
1 -1 -6 93.8 4.43
1 -1 -6 98.52 4.77
1 -1 -6 88.84 4.54
1 -1 -6 92.69 4.64
1 -1 -6 94.19 4.67
-1 1 6 91.16 3.74
1 -1 -6 91.97 4.55
-1 1 6 82.13 3.64
1 -1 -5 21.71 2.02
-1 1 5 24 2.07
-1 1 5 18.37 1.77
-1 1 5 19.39 1.86
-1 1 5 22.76 1.96
1 -1 -5 19.42 1.87
1 -1 -5 18.25 0.83
1 -1 -5 17.29 1.69
-1 1 5 23.05 1.99
1 -1 -5 20.3 1.86
1 -1 -5 18.43 1.82
1 -1 -5 21.91 1.94
1 -1 -5 19.46 1.83
-1 1 5 21.77 1.5
-1 1 5 19.31 1.49
1 -1 -5 22.48 1.89
-1 1 4 12.25 1.02
-1 1 4 12.44 1.23
1 -1 -4 13.61 1.42
-1 1 4 14.96 1.43
-1 1 4 13.19 1.32
-1 1 4 13.08 1.31
-1 1 4 13.08 1.32
1 -1 -4 12.95 1.32
1 -1 -4 15.32 1.42
-1 1 4 12.54 1.34
1 -1 -4 13.87 1.37
1 -1 -4 12.66 1.32
1 -1 -4 13.15 1.31
1 -1 -4 12.77 1.3
-1 1 4 13.87 1.07
-1 1 4 12.53 1.15
1 -1 -4 13.82 1.3
-1 1 3 254.71 7.37
-1 1 3 257.57 6.63
1 -1 -3 264.1 7.64
-1 1 3 260.33 7.49
-1 1 3 262.99 7.43
-1 1 3 266.45 7.52
-1 1 3 266.22 7.41
1 -1 -3 261.89 7.6
1 -1 -3 266.98 7.5
-1 1 3 247.98 7.63
1 -1 -3 256.76 7.57
1 -1 -3 265.51 7.44
1 -1 -3 260.74 7.44
1 -1 -3 262.86 7.46
-1 1 3 269.66 6.8
1 -1 -3 267.74 7.48
1 -1 -3 266.25 7.33
-1 1 3 247.64 7.12
-1 1 2 17.02 1.19
1 -1 -2 18.98 1.18
-1 1 2 16.93 0.81
-1 1 2 15.52 1.14
1 -1 -2 16.8 1.2
-1 1 2 17.92 1.15
-1 1 2 16.64 1.15
-1 1 2 16.93 1.19
1 -1 -2 22.43 1.38
1 -1 -2 20.25 1.21
-1 1 2 16.4 1.3
1 -1 -2 18.6 1.29
1 -1 -2 17.36 1.13
1 -1 -2 17.54 1.15
1 -1 -2 16.98 1.17
1 -1 -2 19.7 1.19
-1 1 2 15.71 1.14
1 -1 -2 17.06 1.06
1 -1 -1 0.47 0.2
-1 1 1 1.22 0.32
1 -1 -1 0.71 0.2
-1 1 1 1.13 0.25
-1 1 1 0.45 0.18
-1 1 1 0.2 0.14
1 -1 -1 0.4 0.22
1 -1 -1 0.85 0.24
1 -1 -1 0.68 0.19
1 -1 -1 0.66 0.19
1 -1 -1 0.85 0.22
1 -1 -1 0.98 0.25
1 -1 -1 1.26 0.24
1 -1 -1 0.31 0.15
-1 1 1 1 0.33
1 -1 -1 1.01 0.37
-1 1 1 0.32 0.25
-1 1 1 0.56 0.19
-1 1 0 4016.45 94.18
-1 1 0 4542.86 94.17
-1 1 0 4467.67 94.52
1 -1 0 4517.38 94.33
-1 1 0 4638.45 93.73
1 -1 0 4399.08 94.26
-1 1 0 4010.16 94.15
-1 1 0 4383.81 94.35
1 -1 2 0.89 0.33
1 -1 2 0.52 0.26
-1 1 -2 0 0.22
-1 1 -2 1.15 0.26
1 -1 2 0.34 0.23
-1 1 -2 0.48 0.28
1 -1 2 0.71 0.26
1 -1 2 0.83 0.3
1 -1 2 0.56 0.25
1 -1 2 0.87 0.28
-1 1 -2 0.43 0.32
1 -1 2 0.02 0.21
-1 1 -2 0.36 0.24
1 -1 2 0.33 0.2
-1 1 -2 0.4 0.26
-1 1 -2 0.26 0.13
-1 1 -2 0.26 0.21
-1 1 -3 136.92 4.79
1 -1 3 136.19 4.7
1 -1 3 137.18 4.57
1 -1 3 132.01 4.53
1 -1 3 131.17 4.53
1 -1 3 129.59 4.57
-1 1 -3 122.14 4.36
-1 1 -3 133.49 4.6
-1 1 -3 123.94 4.73
-1 1 -3 119.42 4.3
-1 1 -3 132.51 4.56
1 -1 3 142.83 4.99
-1 1 -3 123.1 3.24
-1 1 -3 125.59 4.33
1 -1 3 134.68 4.98
-1 1 -4 0.27 0.32
1 -1 4 0.49 0.31
1 -1 4 0.43 0.36
1 -1 4 0.37 0.29
1 -1 4 0.75 0.48
1 -1 4 0.29 0.42
-1 1 -4 0.72 0.41
1 -1 4 0.26 0.33
-1 1 -4 0.8 0.45
-1 1 -4 0.31 0.39
-1 1 -4 1.13 0.51
-1 1 -4 1.86 0.57
1 -1 4 0.59 0.35
-1 1 -4 0.83 0.44
1 -1 5 1242.77 29.81
-1 1 -5 1227.58 29.91
1 -1 5 1248.12 29.48
1 -1 5 1243.35 29.47
1 -1 5 1252.58 29.49
1 -1 5 1237.3 29.53
1 -1 5 1163.87 28.54
-1 1 -5 1154.19 28.6
-1 1 -5 1242.58 29.48
-1 1 -5 1250.32 29.67
-1 1 -5 1242.35 29.46
-1 1 -5 1205.3 29.4
1 -1 5 1224.43 30.14
1 -1 5 1212.57 30.22
1 -1 5 1241.25 28.56
-1 1 -5 1169.2 29.11
-1 1 -6 62.75 3.99
1 -1 6 59.67 3.83
1 -1 6 61.95 3.76
1 -1 6 60.75 3.74
1 -1 6 58.5 3.66
1 -1 6 60.42 3.77
-1 1 -6 56.67 3.22
1 -1 6 60.5 3.28
-1 1 -6 56.65 3.68
-1 1 -6 58.66 3.67
-1 1 -6 63.55 3.8
-1 1 -6 60.33 3.77
1 -1 6 61.81 4.1
-1 1 -6 59.33 3.56
1 -1 6 60.07 4.08
1 -1 6 58.64 3.08
1 -1 7 1607.79 39.46
-1 1 -7 1659.32 39.84
1 -1 7 1585.56 39.15
1 -1 7 1590.94 39.07
1 -1 7 1562.9 38.97
1 -1 7 1577.72 39.19
-1 1 -7 1611.94 39.23
-1 1 -7 1583.48 39
1 -1 7 1622 40.27
-1 1 -7 1602.52 38.83
1 -1 7 1549.93 37.12
-1 1 -7 1712.68 39.42
-1 1 -7 1619.54 39.13
1 -1 7 1653.65 40.4
1 -1 7 1537.13 37.64
-1 1 -7 1562.07 37.56
1 -1 8 86.25 5.47
-1 1 -8 84.61 5.51
-1 1 -8 83.35 4.42
1 -1 8 81.82 4.47
1 -1 8 77.12 4.99
1 -1 8 89.36 5.38
1 -1 8 86.63 5.34
-1 1 -8 86.5 5.28
-1 1 -8 85.41 5.22
-1 1 -8 86.62 5.29
1 -1 8 88.46 5.87
-1 1 -8 88.26 5.46
-1 1 -8 83.39 5.06
1 -1 8 85.44 5.79
1 -1 9 149.72 7.88
-1 1 -9 153.99 8.13
1 -1 9 129.19 6.22
-1 1 -9 150.55 6.46
1 -1 9 158.73 7.98
1 -1 9 142.81 7.5
1 -1 9 145.92 7.62
-1 1 -9 150.19 7.69
-1 1 -9 145.92 7.57
-1 1 -9 151.55 7.64
-1 1 -9 162.68 7.99
1 -1 9 146.02 8.32
1 -1 9 131.68 6.98
-1 1 -9 136.81 7.58
1 -1 9 151.63 8.48
-1 1 -10 48.47 4.75
1 -1 10 48.64 4.6
1 -1 10 45.79 4.33
1 -1 10 50 4.53
1 -1 10 50.95 4.7
-1 1 -10 54.38 3.71
-1 1 -10 52.04 4.64
-1 1 -10 51.76 4.73
-1 1 -10 51.2 4.65
-1 1 -10 54.68 4.77
1 -1 10 48.56 4.93
1 -1 10 46.68 4.12
-1 1 -10 55.08 4.68
1 -1 10 51.66 5.14
-1 1 -11 62.67 5.74
1 -1 11 66.42 5.78
1 -1 11 59.63 5.45
1 -1 11 56.6 5.25
1 -1 11 63.28 5.41
-1 1 -11 54.47 5.19
-1 1 -11 64.71 5.57
-1 1 -11 64.26 5.55
-1 1 -11 57.93 5.25
-1 1 -11 69.88 5.75
-1 1 -11 62.22 5.58
1 -1 11 59.95 5.99
1 -1 12 3.05 1.63
-1 1 -12 1.68 1.12
1 -1 12 3.36 1.49
1 -1 12 4.43 1.62
1 -1 12 2.12 1.24
1 -1 12 1.74 1.16
-1 1 -12 2.05 1.24
-1 1 -12 3 1.33
-1 1 -12 2.69 1.53
-1 1 -12 2.91 1.24
-1 1 -12 2.47 1.18
-1 1 -12 3.09 1.43
1 -1 13 25.99 4.11
-1 1 -13 27.51 4.23
1 -1 13 23.35 4.03
1 -1 13 24.61 3.9
1 -1 13 27.88 4.07
1 -1 13 24.54 4.42
-1 1 -13 23.72 3.88
-1 1 -13 26.99 3.99
-1 1 -13 25.47 3.96
-1 1 -13 32.21 4.35
-1 1 -13 28.78 4.36
-1 1 -13 28.64 4.26
1 -1 14 11.74 3.02
-1 1 -14 11.48 3.11
1 -1 14 7.51 2.27
1 -1 14 8.59 2.68
1 -1 14 5.52 2.37
-1 1 -14 9.03 2.71
-1 1 -14 9.45 2.82
-1 1 -14 8.44 2.58
-1 1 -14 13.43 3.46
-1 1 -14 11.19 2.98
-1 1 -14 11.42 2.92
-1 0 14 4.05 2.03
1 0 -14 4.41 2.39
-1 0 14 4.6 2.18
-1 0 14 5.18 2.25
-1 0 14 6.51 2.55
1 0 -14 1.93 1.1
1 0 -14 5.35 2.06
1 0 -14 6.31 2.07
1 0 -14 5.87 2.09
1 0 -14 6.5 2.15
1 0 -14 2.03 1.92
1 0 -13 30.33 4.65
-1 0 13 25.78 4.18
-1 0 13 31.81 4.64
-1 0 13 24.95 3.93
-1 0 13 26.85 4.12
1 0 -13 23.91 3.9
1 0 -13 26.09 4.07
1 0 -13 29.44 4.2
1 0 -13 29.98 4.28
1 0 -13 32.48 4.59
1 0 -13 29.58 4.36
-1 0 12 272.69 13.68
1 0 -12 279.19 13.97
-1 0 12 268.27 13.32
-1 0 12 266.37 13.45
-1 0 12 273.43 13.3
1 0 -12 271.56 13.5
-1 0 12 271.2 12.09
1 0 -12 296.32 13.79
1 0 -12 295.96 13.86
1 0 -12 278.76 13.41
1 0 -12 317.36 14.18
1 0 -12 311.41 13.78
1 0 -11 13.91 2.87
-1 0 11 11.75 2.44
-1 0 11 11.11 2.44
-1 0 11 12.1 2.48
-1 0 11 16.28 2.94
-1 0 11 12.46 2.26
1 0 -11 13.03 2.53
1 0 -11 11.4 2.41
1 0 -11 10.7 2.48
1 0 -11 16.81 2.96
1 0 -11 16.26 2.9
1 0 -11 10.51 2.33
1 0 -10 3.5 1.53
-1 0 10 0.28 0.84
-1 0 10 0.89 0.95
-1 0 10 2.93 1.4
-1 0 10 1.86 0.96
-1 0 10 1.66 0.91
1 0 -10 0.91 1.04
1 0 -10 0.21 0.75
1 0 -10 1.96 1.19
1 0 -10 0.98 1.17
1 0 -10 1.06 1.25
1 0 -10 1.96 0.95
-1 0 9 585.82 19.42
1 0 -9 597.04 19.77
-1 0 9 621.87 19.57
-1 0 9 591.08 19.17
-1 0 9 599.74 19.23
1 0 -9 572.7 19.13
-1 0 9 601.13 18.48
1 0 -9 598.53 19.19
1 0 -9 632.28 19.55
1 0 -9 619.01 19.41
1 0 -9 622.37 19.27
1 0 -9 632.12 19.2
-1 0 8 0.8 0.47
1 0 -8 0.32 0.82
-1 0 8 1.18 0.98
-1 0 8 -0.22 0.63
-1 0 8 1.56 0.85
-1 0 8 1.16 0.89
1 0 -8 0.11 0.66
1 0 -8 0.33 0.66
1 0 -8 1.27 0.84
1 0 -8 0.91 0.8
1 0 -8 0.93 0.89
-1 0 8 0.8 0.77
1 0 -8 -0.4 0.77
-1 0 7 404.83 13.07
1 0 -7 412.79 13.34
1 0 -7 398.12 11.87
1 0 -7 364.36 10
-1 0 7 383.91 12.51
-1 0 7 403.86 12.89
-1 0 7 393.29 12.81
-1 0 7 412.7 13.05
1 0 -7 397.45 12.82
1 0 -7 393.24 12.86
1 0 -7 391.79 12.77
1 0 -7 411.42 12.91
-1 0 7 357.04 10.7
1 0 -7 395.13 12.58
-1 0 6 94.76 4.85
1 0 -6 92.91 4.95
1 0 -6 84.03 4.14
1 0 -6 81.85 3.11
-1 0 6 80.47 4.52
-1 0 6 91.23 4.61
-1 0 6 92.35 4.68
-1 0 6 94.89 4.7
1 0 -6 91.18 4.62
1 0 -6 88.53 4.58
1 0 -6 92.8 4.7
1 0 -6 90.2 4.66
-1 0 6 86.09 3.58
1 0 -6 82.31 4.4
-1 0 6 89.35 5.35
-1 0 5 855.68 21.24
1 0 -5 849.18 21.45
-1 0 5 850.39 21.05
-1 0 5 844.35 20.98
-1 0 5 842.44 20.98
1 0 -5 794.57 20.26
-1 0 5 807.62 21.08
1 0 -5 781.03 18.77
1 0 -5 827.49 20.98
1 0 -5 827.66 20.98
1 0 -5 825.56 21.1
-1 0 5 803.65 19.25
1 0 -5 836.4 21.04
-1 0 5 852.55 22.31
1 0 -5 824.75 20.79
-1 0 4 429.01 11.57
1 0 -4 475.16 12.83
-1 0 4 465.27 12.61
-1 0 4 474.01 12.42
-1 0 4 479.7 12.48
-1 0 4 492.61 12.51
-1 0 4 482.61 12.54
1 0 -4 438.22 12.06
-1 0 4 444.03 12.65
1 0 -4 477.96 12.48
1 0 -4 464.93 12.44
1 0 -4 478.82 12.61
1 0 -4 452.44 12.54
-1 0 4 456.81 11.12
-1 0 4 437.12 11.61
1 0 -4 462.88 12.32
-1 0 4 463.88 13.54
-1 0 3 256.76 7.01
1 0 -3 268.15 7.81
-1 0 3 271.55 7.7
-1 0 3 272.69 7.56
-1 0 3 272.07 7.55
-1 0 3 272.45 7.55
-1 0 3 270.22 7.59
1 0 -3 264.06 7.7
-1 0 3 258.68 7.87
1 0 -3 274.62 7.68
1 0 -3 269.24 7.58
-1 0 3 256.9 6.42
1 0 -3 267.18 7.73
1 0 -3 262.95 7.54
1 0 -3 259.13 7.47
-1 0 3 251.49 7.14
-1 0 2 4.59 0.51
1 0 -2 4.07 0.6
-1 0 2 5.39 0.7
1 0 -2 5.05 0.64
-1 0 2 5.31 0.63
-1 0 2 4.24 0.56
-1 0 2 4.26 0.53
-1 0 2 5.2 0.59
1 0 -2 5.31 0.69
-1 0 2 4.02 0.54
-1 0 2 3.54 0.64
1 0 -2 4.15 0.54
1 0 -2 4.06 0.58
1 0 -2 4.32 0.6
1 0 -2 4.61 0.56
-1 0 2 4.81 0.63
1 0 -2 3.03 0.47
-1 0 1 5.47 0.49
1 0 -1 4.81 0.59
1 0 -1 5.46 0.5
-1 0 1 4.99 0.45
-1 0 1 4.85 0.44
-1 0 1 5.4 0.45
-1 0 1 5.26 0.45
-1 0 1 5.01 0.45
1 0 -1 5.19 0.46
1 0 -1 5.85 0.48
1 0 -1 5.09 0.54
1 0 -1 5.06 0.45
-1 0 1 3.92 0.55
1 0 -1 5.07 0.47
1 0 -1 5.07 0.55
-1 0 1 4.4 0.59
1 0 -1 5.12 0.46
-1 0 0 707.23 16.56
-1 0 0 819.07 16.69
1 0 0 832.29 16.11
-1 0 0 746.96 16.79
-1 0 0 807 16.62
-1 0 0 914.53 17.12
1 0 1 390.88 9.04
-1 0 -1 385.25 8.99
-1 0 -1 340.18 8.41
1 0 1 343.12 8.37
1 0 1 321 8.31
1 0 1 333.76 8.33
1 0 1 320.68 8.32
-1 0 -1 369.41 8.91
-1 0 -1 330.6 8.33
1 0 1 386.25 8.79
-1 0 -1 329.73 8.34
-1 0 -1 323.46 8.33
-1 0 -1 323.91 8.32
1 0 1 383.27 8.6
1 0 1 371.28 8.68
-1 0 -1 375.96 8.69
1 0 2 1022.3 23
-1 0 -2 1030.8 22.67
1 0 2 939.14 22.48
-1 0 -2 906.78 22.52
1 0 2 1046.01 22.55
1 0 2 978.32 22.52
1 0 2 1044.32 22.53
1 0 2 938.82 22.54
-1 0 -2 994.87 22.65
-1 0 -2 1018.43 22.54
-1 0 -2 1051.2 22.57
-1 0 -2 1026.59 22.64
1 0 2 1053.08 22.72
-1 0 -2 1014.93 22.82
1 0 2 993.47 22.79
-1 0 -2 987.05 22.53
1 0 3 870.22 20.24
-1 0 -3 833.57 20.3
1 0 3 870.47 20.02
1 0 3 890.34 20.08
1 0 3 869.63 20.02
1 0 3 877.21 20.09
-1 0 -3 796.15 19.74
1 0 3 837.75 19.11
-1 0 -3 875.97 20.04
-1 0 -3 854.27 20
-1 0 -3 877.78 20.14
-1 0 -3 820.83 20.22
1 0 3 881.65 20.33
-1 0 -3 858.62 20.01
1 0 3 899.66 20.06
1 0 3 870.73 20.38
1 0 4 2900.76 64.74
-1 0 -4 2824.31 64.81
1 0 4 3073.19 64.52
1 0 4 3111.43 64.56
1 0 4 3085.68 64.55
1 0 4 2935.11 64.47
-1 0 -4 3074.63 64.51
-1 0 -4 3041.98 64.61
-1 0 -4 2973.36 64.46
1 0 4 3008.24 65.02
-1 0 -4 2983.62 64.31
1 0 4 3166.45 64.19
-1 0 -4 3034.8 64.64
1 0 4 3127.81 65
-1 0 -4 2845.77 63.77
-1 0 -4 2567.93 62.26
1 0 4 2968.83 63.28
-1 0 -5 483.22 13.62
1 0 5 503.51 13.6
1 0 5 478.82 12.17
-1 0 -5 458.62 12.4
1 0 5 485.55 13.33
1 0 5 488.08 13.33
1 0 5 484.42 13.39
-1 0 -5 485.55 13.39
-1 0 -5 476.17 13.25
-1 0 -5 484.98 13.31
1 0 5 490.93 13.81
-1 0 -5 467.86 13.36
1 0 5 494.92 13.88
1 0 5 472.67 12.63
-1 0 -5 477.21 13.15
1 0 6 19.12 2.05
-1 0 -6 18.56 2.07
-1 0 -6 18.76 1.62
1 0 6 20 1.61
-1 0 -6 17.61 1.2
1 0 6 17.15 1.89
1 0 6 17.01 1.91
1 0 6 21.61 2.12
-1 0 -6 20.04 2.02
-1 0 -6 20.27 2.05
-1 0 -6 19.69 2.04
1 0 6 19.98 2.18
-1 0 -6 19.89 2.04
1 0 6 20.84 2.24
1 0 6 17.67 1.6
-1 0 -6 20.8 2.01
1 0 7 73.86 4.49
-1 0 -7 69.5 4.47
1 0 7 67.82 3.47
-1 0 -7 58.2 2.67
-1 0 -7 67.06 3.46
1 0 7 76.98 4.52
1 0 7 74.97 4.41
1 0 7 71.63 4.3
-1 0 -7 74.69 4.36
-1 0 -7 66.32 4.18
-1 0 -7 71.09 4.3
1 0 7 69.04 4.17
1 0 7 76.32 4.74
-1 0 -7 68.2 4.38
1 0 7 66.62 4.54
-1 0 -7 72.62 4.24
-1 0 -8 323.81 12.1
1 0 8 331.99 12.02
1 0 8 307.75 9.96
-1 0 -8 311.99 10.01
1 0 8 342.21 11.87
1 0 8 336.9 11.84
1 0 8 343.08 11.99
-1 0 -8 330.84 11.68
-1 0 -8 328.96 11.69
-1 0 -8 329.44 11.74
1 0 8 313.31 11.32
1 0 8 337.89 12.53
-1 0 -8 321.67 11.84
-1 0 -8 342.46 11.68
1 0 8 346.05 12.7
-1 0 -9 414.21 14.78
1 0 9 405.81 14.48
1 0 9 412.59 14.28
1 0 9 406.35 14.35
1 0 9 418.28 14.31
1 0 9 367.16 11.95
-1 0 -9 382.95 11.98
-1 0 -9 423.08 14.36
-1 0 -9 412.58 14.24
-1 0 -9 403.28 14.05
1 0 9 389.32 13.55
1 0 9 401.64 15.01
-1 0 -9 419.16 14.42
-1 0 -9 409.57 14.12
1 0 9 398.98 15.07
1 0 10 15.79 2.6
-1 0 -10 14.68 2.71
1 0 10 18.54 2.75
1 0 10 20.57 2.96
1 0 10 16.56 2.6
-1 0 -10 14.34 1.81
1 0 10 17.3 2.89
-1 0 -10 17.42 2.7
-1 0 -10 15.88 2.64
-1 0 -10 14.55 2.41
-1 0 -10 15.13 2.59
-1 0 -10 18.31 2.79
1 0 10 15.04 2.32
-1 0 -10 17.93 2.72
1 0 11 95.4 7.02
-1 0 -11 105.34 7.5
1 0 11 112.39 7.33
1 0 11 102.62 7.16
1 0 11 107.68 7.23
-1 0 -11 99.65 7.02
-1 0 -11 107.48 7.17
-1 0 -11 113.33 7.37
-1 0 -11 108.88 7.14
-1 0 -11 108.29 7.47
1 0 11 96.96 6.28
-1 0 -11 115.25 7.29
1 0 11 104.77 7.73
-1 0 -12 8.21 2.18
1 0 12 14.32 2.8
1 0 12 10.12 2.47
1 0 12 7.61 2.07
1 0 12 14.93 2.95
1 0 12 14.98 3.04
-1 0 -12 10.42 2.45
-1 0 -12 10 2.49
-1 0 -12 13.13 2.74
-1 0 -12 12.54 2.79
-1 0 -12 13.56 2.69
-1 0 -12 13.58 2.67
-1 0 -13 13.73 3.13
1 0 13 16.23 3.2
1 0 13 15.85 3.12
1 0 13 14.87 3.17
1 0 13 15.24 3.1
1 0 13 12.31 3.01
-1 0 -13 12.14 2.75
-1 0 -13 18.03 3.19
-1 0 -13 15.59 3.15
-1 0 -13 14.74 3.17
-1 0 -13 13.49 2.82
-1 0 -13 16.77 3.4
1 0 14 10.73 2.65
-1 0 -14 13.7 3.07
1 0 14 9.12 2.68
1 0 14 14.95 3.37
1 0 14 9.77 2.85
-1 0 -14 10.63 2.91
-1 0 -14 11.83 2.76
-1 0 -14 11.25 2.82
-1 0 -14 17.73 3.6
-1 0 -14 5.68 2.23
-1 0 -14 12.15 2.97
-1 -1 13 31.41 4.56
1 1 -13 33.15 4.83
1 1 -13 31.29 4.71
-1 -1 13 32.8 4.63
-1 -1 13 28.65 4.35
-1 -1 13 29.27 4.56
1 1 -13 35.18 4.76
1 1 -13 31.32 4.56
1 1 -13 27.79 4.26
1 1 -13 38.88 4.95
1 1 -13 32.11 4.7
-1 -1 12 0.4 1.15
1 1 -12 -1.09 1.08
-1 -1 12 0.3 0.9
-1 -1 12 1.24 1.09
-1 -1 12 0.08 1.01
1 1 -12 0.87 0.95
1 1 -12 -0.34 1.06
1 1 -12 2.12 1.16
1 1 -12 1.05 1.22
1 1 -12 0.68 1.27
1 1 -12 3.32 1.66
1 1 -11 23.58 3.61
-1 -1 11 29.72 4
-1 -1 11 23.14 3.37
-1 -1 11 23.98 3.51
-1 -1 11 22.12 3.36
1 1 -11 29.91 3.85
1 1 -11 22.75 3.49
1 1 -11 28.65 3.77
1 1 -11 24.85 3.63
1 1 -11 30.86 3.89
1 1 -11 20.49 3.33
-1 -1 11 27.29 3.5
1 1 -10 331.52 14.2
-1 -1 10 322.73 13.81
-1 -1 10 325.43 13.59
-1 -1 10 342.28 13.69
-1 -1 10 325.67 13.47
-1 -1 10 333.08 13.08
1 1 -10 317.78 13.31
1 1 -10 335.37 13.69
1 1 -10 340.67 13.72
1 1 -10 364.65 14.13
1 1 -10 357.92 13.84
-1 -1 9 18.31 2.8
1 1 -9 16.41 2.7
-1 -1 9 21.8 2.84
-1 -1 9 17.66 2.57
-1 -1 9 16.45 2.49
1 1 -9 19.42 2.73
1 1 -9 12.92 2.22
1 1 -9 19.33 2.74
1 1 -9 15.89 2.47
1 1 -9 21.54 2.87
-1 -1 9 14.93 2.32
1 1 -9 16.02 2.04
-1 -1 9 20.5 3.19
1 1 -8 700.16 21.08
-1 -1 8 677.68 20.61
-1 -1 8 681.53 20.45
-1 -1 8 646.37 20.03
-1 -1 8 668.3 20.22
1 1 -8 664.4 17.42
-1 -1 8 669.4 20.11
1 1 -8 703.81 18.8
1 1 -8 705.71 20.67
1 1 -8 697.42 20.42
1 1 -8 705.72 20.51
1 1 -8 707.91 20.68
-1 -1 8 695.36 22.22
1 1 -8 718.26 20.35
1 1 -7 148.64 7.17
-1 -1 7 143.22 6.94
-1 -1 7 154.06 6.98
-1 -1 7 138.14 6.67
-1 -1 7 146.42 6.8
-1 -1 7 143.73 6.86
1 1 -7 146.31 5.91
-1 -1 7 147.77 6.89
1 1 -7 132.44 5.1
1 1 -7 146.66 6.81
1 1 -7 139.12 6.79
1 1 -7 151.68 6.93
1 1 -7 156.85 7.04
-1 -1 7 127.43 5.21
1 1 -7 151.79 6.76
-1 -1 7 140.48 7.7
1 1 -6 30.46 2.74
-1 -1 6 27.19 2.54
-1 -1 6 26.41 2.5
-1 -1 6 28.36 2.57
-1 -1 6 26.85 2.49
-1 -1 6 29.3 2.63
1 1 -6 32 2.29
-1 -1 6 31.14 2.74
1 1 -6 26.81 1.86
1 1 -6 26.81 2.49
1 1 -6 30.11 2.71
1 1 -6 25.43 2.47
1 1 -6 32 2.71
-1 -1 6 25.08 1.83
-1 -1 6 24.03 2.81
1 1 -6 27.01 2.46
1 1 -5 977.89 24.68
-1 -1 5 976.11 24.42
-1 -1 5 985.69 24.2
-1 -1 5 963.96 24.15
-1 -1 5 981.83 24.18
-1 -1 5 976.05 24.24
1 1 -5 901.82 22.4
-1 -1 5 936.67 24.45
1 1 -5 917.19 23.1
1 1 -5 959.7 24.36
1 1 -5 974.71 24.25
1 1 -5 982.38 24.22
1 1 -5 992.97 24.29
-1 -1 5 996.14 25.39
1 1 -5 981.89 24
-1 -1 5 939.2 25.31
-1 -1 4 43.65 1.99
1 1 -4 50.33 3.08
-1 -1 4 49.85 2.95
-1 -1 4 50.85 2.85
-1 -1 4 55.7 2.97
-1 -1 4 55.53 2.96
-1 -1 4 52.26 2.92
-1 -1 4 48.26 3.07
1 1 -4 50.3 2.88
1 1 -4 50.48 2.98
1 1 -4 52.43 2.91
1 1 -4 50.39 2.95
-1 -1 4 47.64 3.2
-1 -1 4 49.8 3.27
1 1 -4 51.37 2.86
-1 -1 4 50.98 1.92
-1 -1 3 556.65 14.2
1 1 -3 644.1 16.07
-1 -1 3 636.43 15.84
-1 -1 3 646.78 15.62
-1 -1 3 650.24 15.64
-1 -1 3 650.26 15.62
1 1 -3 636.38 15.63
-1 -1 3 654.27 15.66
-1 -1 3 606.7 16.14
1 1 -3 637.34 15.85
1 1 -3 652.54 15.74
1 1 -3 628.05 15.77
1 1 -3 629.31 15.62
-1 -1 3 607.37 16.26
-1 -1 3 639.06 16.4
1 1 -3 617.97 15.55
-1 -1 3 626.23 14.52
-1 -1 2 432.02 10.19
1 1 -2 378.59 10.23
-1 -1 2 347.33 8.82
-1 -1 2 410.36 10.17
1 1 -2 411.66 10.31
-1 -1 2 402.88 9.99
-1 -1 2 404.02 10.01
-1 -1 2 389.27 9.92
1 1 -2 392.4 10.08
-1 -1 2 405.4 10.01
-1 -1 2 388.84 10.54
1 1 -2 415.02 10.14
1 1 -2 396.71 10.26
-1 -1 2 388.29 10.48
1 1 -2 397.66 9.98
-1 -1 2 388.14 9.55
1 1 -2 382.65 9.99
-1 -1 2 372.8 10.38
1 1 -1 175.2 5.27
-1 -1 1 199.37 5.3
-1 -1 1 173.27 4.29
-1 -1 1 179.26 5.03
1 1 -1 191.81 5.18
-1 -1 1 181.52 4.93
-1 -1 1 178.8 4.91
-1 -1 1 181.71 4.94
-1 -1 1 182.97 4.95
-1 -1 1 186.29 4.99
-1 -1 1 181.43 5.47
1 1 -1 185.84 5.04
-1 -1 1 166.38 5.07
1 1 -1 178.34 4.95
-1 -1 1 165.84 5.1
1 1 -1 197.12 5.15
-1 -1 1 174.63 5.04
-1 -1 0 691.47 15.62
1 1 0 672.27 15.59
-1 -1 0 770.64 16.15
-1 -1 0 684.34 15.44
-1 -1 0 693.25 15.46
-1 -1 0 686.59 15.47
-1 -1 0 689.5 15.46
-1 -1 0 631.43 15.31
-1 -1 0 678.53 15.9
1 1 0 704.91 16.02
-1 -1 0 668.2 15.42
1 1 0 686.5 15.51
1 1 0 588.26 15.35
-1 -1 0 621.49 15.21
-1 -1 0 668.66 15.93
1 1 0 604.54 15.46
1 1 0 625.49 15.91
1 1 1 3543.15 75.23
1 1 1 3500.27 74.74
-1 -1 -1 3493.2 75.02
-1 -1 -1 3921.35 75.61
1 1 1 3661.19 74.99
1 1 1 3170.82 74.79
-1 -1 -1 3366.01 74.84
-1 -1 -1 3412.78 74.86
-1 -1 -1 3607.06 74.63
-1 -1 -1 3519.88 75.28
-1 -1 -1 3382.04 74.81
-1 -1 -1 3427.69 74.84
1 1 1 3729.75 75.3
1 1 1 3270.8 75.13
-1 -1 -1 3504.72 75.28
1 1 2 3392.52 72.42
-1 -1 -2 3511.77 72.38
1 1 2 3419.04 72.22
1 1 2 3307.97 72.2
1 1 2 3361.41 72.21
-1 -1 -2 3358.21 72.19
-1 -1 -2 3245.23 72.15
-1 -1 -2 3316.66 72.17
-1 -1 -2 3263.48 72.16
-1 -1 -2 3273.19 72.16
1 1 2 3214.9 71.69
1 1 2 3489.69 72.57
1 1 2 3440.14 72.49
1 1 2 3449.35 71.82
-1 -1 -2 3099.22 71.98
1 1 3 309.01 8.23
-1 -1 -3 312.43 8.37
1 1 3 314.71 8.21
1 1 3 315.8 8.18
1 1 3 298.48 8.26
-1 -1 -3 289.74 8.18
-1 -1 -3 286.7 7.74
1 1 3 279.93 6.79
-1 -1 -3 292.23 8.14
-1 -1 -3 294.39 8.15
-1 -1 -3 298.78 8.13
1 1 3 321.25 8.5
-1 -1 -3 312.99 8.49
1 1 3 311.56 8.11
1 1 3 308.33 8.16
1 1 3 315.01 8.26
-1 -1 -3 306.29 8.23
-1 -1 -3 274.49 7.47
-1 -1 -4 831.43 19.77
1 1 4 815.96 19.58
1 1 4 841.72 19.51
1 1 4 841.73 19.63
1 1 4 829.64 19.44
-1 -1 -4 778.12 19.44
1 1 4 778.83 17.81
-1 -1 -4 795.56 17.97
-1 -1 -4 765.29 18.6
-1 -1 -4 807.14 19.39
-1 -1 -4 803.76 19.41
-1 -1 -4 803.02 19.43
1 1 4 841.04 19.63
-1 -1 -4 830.39 19.77
1 1 4 834.62 19.76
1 1 4 813.2 19.64
1 1 4 830.16 19.24
-1 -1 -4 806.11 19.51
1 1 5 22.22 1.93
-1 -1 -5 22.73 2.01
1 1 5 23.32 1.91
1 1 5 24.77 1.99
1 1 5 23.88 2.03
-1 -1 -5 22.86 2
1 1 5 21.66 1.31
-1 -1 -5 21.49 1.51
-1 -1 -5 22.94 1.34
-1 -1 -5 22.44 1.91
-1 -1 -5 21.31 1.86
-1 -1 -5 24.05 1.95
1 1 5 24.06 2.06
-1 -1 -5 23.37 2.03
1 1 5 22.52 1.98
-1 -1 -5 18.71 1.07
-1 -1 -5 19.96 1.81
1 1 5 22.44 2
-1 -1 -6 465.71 13.49
1 1 6 458.18 13.28
1 1 6 463.86 13.29
1 1 6 463.86 13.1
1 1 6 452.78 13.1
-1 -1 -6 446.6 13.13
-1 -1 -6 437.72 11.61
1 1 6 430.33 11.29
-1 -1 -6 455.48 11.12
-1 -1 -6 464.37 13.15
-1 -1 -6 458.18 13.05
-1 -1 -6 455.82 13.1
1 1 6 485.35 13.65
1 1 6 459.04 13.06
-1 -1 -6 463.86 13.32
1 1 6 473.91 13.6
-1 -1 -6 461.37 13.08
-1 -1 -7 12.6 1.82
1 1 7 13.56 1.86
1 1 7 13.98 1.86
1 1 7 16.57 2
1 1 7 13.53 1.77
-1 -1 -7 16 2.05
1 1 7 13.17 1.9
-1 -1 -7 14.81 1.28
-1 -1 -7 16.49 1.54
1 1 7 12.91 1.33
-1 -1 -7 14.76 1.84
-1 -1 -7 16.24 1.92
-1 -1 -7 17.51 2.1
1 1 7 13.98 1.82
-1 -1 -7 13.06 1.96
-1 -1 -7 14.89 1.83
1 1 7 11.63 0.64
1 1 8 245.73 9.57
-1 -1 -8 221.96 9.38
1 1 8 238.47 9.38
1 1 8 228.9 9.13
1 1 8 220.97 8.98
-1 -1 -8 219.16 9.14
-1 -1 -8 205.9 7.3
-1 -1 -8 216.02 6.91
1 1 8 216.06 7.34
-1 -1 -8 233.53 9.18
-1 -1 -8 223.82 9.04
-1 -1 -8 219.89 8.94
-1 -1 -8 239.19 9.42
1 1 8 228.59 8.88
1 1 8 231.69 9.74
-1 -1 -8 229.37 9.06
1 1 9 44.61 4
-1 -1 -9 45.83 4.16
1 1 9 44.82 3.92
1 1 9 50.47 4.09
1 1 9 42.2 3.8
-1 -1 -9 40.64 3.82
1 1 9 40.61 2.82
-1 -1 -9 44.46 2.89
-1 -1 -9 48.04 4.01
-1 -1 -9 53.19 4.23
-1 -1 -9 45.99 3.93
1 1 9 44.51 3.74
-1 -1 -9 49.15 4.23
-1 -1 -9 47.21 3.98
1 1 9 48.46 4.4
1 1 10 1066.72 29.42
1 1 10 1071.51 29.89
1 1 10 1049.03 29.37
-1 -1 -10 962.93 29.06
1 1 10 1067.34 29.87
-1 -1 -10 1021.57 29.88
-1 -1 -10 986.92 28.85
-1 -1 -10 1022.36 29.12
-1 -1 -10 1014.55 29.12
-1 -1 -10 1080.4 29.75
1 1 10 1020.36 28.23
-1 -1 -10 1064.86 29.31
1 1 10 1039.46 30.53
1 1 11 191.6 9.87
1 1 11 194.05 9.88
1 1 11 199.44 10.3
-1 -1 -11 184.51 9.7
-1 -1 -11 186.8 10.17
1 1 11 192.06 10.14
-1 -1 -11 188.55 9.71
-1 -1 -11 183.58 9.62
-1 -1 -11 195.19 9.85
-1 -1 -11 192.13 10.18
1 1 11 177.49 8.79
-1 -1 -11 195.37 9.9
1 1 11 188.37 10.52
1 1 12 56.18 5.08
1 1 12 58.16 5.47
1 1 12 49.99 5.11
1 1 12 62.24 5.84
-1 -1 -12 51.4 5.26
1 1 12 52.04 5.32
-1 -1 -12 56.54 5.74
-1 -1 -12 58.21 5.41
-1 -1 -12 56.31 5.34
-1 -1 -12 57.82 5.42
-1 -1 -12 59.85 5.68
-1 -1 -12 69.38 6
1 1 13 93.41 7.12
-1 -1 -13 113.59 8.6
1 1 13 113.12 8.48
-1 -1 -13 105.08 7.99
1 1 13 102.97 8.14
1 1 13 105.86 7.98
1 1 13 104.4 7.87
-1 -1 -13 108.02 7.96
-1 -1 -13 105.27 7.95
-1 -1 -13 106.27 7.96
-1 -1 -13 119.06 8.54
-1 -1 -13 112.55 8.29
1 1 14 57.09 6.32
-1 -1 -14 60.34 6.66
-1 -1 -14 52.35 6.04
1 1 14 58.7 6.33
1 1 14 58.1 6.17
1 1 14 57.48 6.4
-1 -1 -14 67.62 6.71
-1 -1 -14 64.52 6.51
-1 -1 -14 57.4 6.19
-1 -1 -14 68.46 6.84
-1 -1 -14 62.67 6.41
1 1 15 30.95 4.96
-1 -1 -15 36.56 5.38
1 1 15 19.18 3.93
1 1 15 29.5 4.7
1 1 15 24.19 4.52
-1 -1 -15 29.49 4.47
-1 -1 -15 27.51 4.57
-1 -1 -15 28.59 4.49
-1 -1 -15 29.02 4.86
-1 -1 -15 32.22 4.89
-1 -1 -15 32.4 4.96
1 2 -13 9.59 2.83
-1 -2 13 7.69 2.17
-1 -2 13 8.82 2.55
-1 -2 13 4.17 1.86
-1 -2 13 8.66 2.57
1 2 -13 6.42 2.28
1 2 -13 6.81 2.22
1 2 -13 7.11 2.28
1 2 -13 10.1 3.2
1 2 -13 8.5 2.52
1 2 -13 4.79 2.22
1 2 -12 4.07 1.9
-1 -2 12 4.68 1.91
-1 -2 12 2 0.99
-1 -2 12 3.63 1.74
-1 -2 12 3.12 1.45
1 2 -12 4.56 1.77
1 2 -12 4.12 1.85
1 2 -12 5.28 2.12
1 2 -12 5.66 2.21
1 2 -12 2.49 1.61
1 2 -12 6.73 2.09
1 2 -11 1.81 1.47
-1 -2 11 2.23 1.44
-1 -2 11 1.24 0.89
-1 -2 11 3.31 1.43
-1 -2 11 3.2 1.67
-1 -2 11 3.8 1.6
1 2 -11 1.32 1.2
1 2 -11 0.8 1.08
1 2 -11 0.39 0.91
1 2 -11 2.42 1.51
1 2 -11 0.29 1.04
1 2 -10 2.1 1.14
-1 -2 10 3.49 1.49
-1 -2 10 2.2 0.95
-1 -2 10 2.07 1.07
-1 -2 10 1.34 1.14
1 2 -10 1.03 0.93
1 2 -10 3.59 1.55
1 2 -10 3.33 1.48
1 2 -10 4.66 1.73
1 2 -10 2.89 1.46
-1 -2 10 1.52 1.07
-1 -2 10 6.13 2.02
-1 -2 9 84.07 6.08
1 2 -9 90.74 6.46
-1 -2 9 89.46 6.16
-1 -2 9 92.93 6.19
-1 -2 9 83.33 5.95
-1 -2 9 91.74 6.02
1 2 -9 91.19 6.2
1 2 -9 87.02 6.04
1 2 -9 91.57 6.25
1 2 -9 97.99 6.46
-1 -2 9 99.07 7.26
1 2 -9 95.39 6.11
1 2 -8 231.88 10.28
-1 -2 8 228.4 10
-1 -2 8 218.6 9.7
-1 -2 8 219.72 9.66
-1 -2 8 228.44 9.79
-1 -2 8 212.07 9.66
1 2 -8 236.45 8.3
1 2 -8 235.33 8.03
-1 -2 8 230.86 9.86
1 2 -8 216.69 9.59
1 2 -8 228.74 9.9
1 2 -8 226.51 9.77
1 2 -8 248.9 10.09
1 2 -8 231.35 9.62
-1 -2 8 228.96 11.04
1 2 -7 4.72 1.4
-1 -2 7 2.15 1.16
-1 -2 7 2.62 1.15
-1 -2 7 3.56 1.12
-1 -2 7 4.71 1.25
-1 -2 7 5.98 1.39
-1 -2 7 0.4 0.8
-1 -2 7 2.16 1.23
1 2 -7 0.45 0.57
1 2 -7 0.93 0.59
1 2 -7 3.28 1.02
1 2 -7 1.48 0.83
1 2 -7 2.28 0.92
1 2 -7 0.58 0.97
-1 -2 7 2.88 1.21
1 2 -7 1.17 0.86
-1 -2 6 3947.9 94.45
1 2 -6 4193.57 95.07
-1 -2 6 4207.1 94.23
-1 -2 6 4198.49 94.19
-1 -2 6 4137.11 94.16
-1 -2 6 4071.94 94.19
-1 -2 6 4120.53 94.78
1 2 -6 4142.05 92.23
1 2 -6 4097.85 92.23
1 2 -6 4117.05 94.46
1 2 -6 4162.07 94.31
-1 -2 6 4383.48 96.08
1 2 -6 4233.72 94.33
1 2 -6 4351.46 94.41
-1 -2 6 4335.87 95.94
1 2 -6 4286.72 94.06
-1 -2 5 355.04 9.73
1 2 -5 421.68 13.1
-1 -2 5 404.34 12.77
-1 -2 5 414.25 12.51
-1 -2 5 426.48 12.56
-1 -2 5 420.22 12.5
-1 -2 5 417.33 12.49
-1 -2 5 434.09 13.11
1 2 -5 405.48 12.71
1 2 -5 411.98 12.57
1 2 -5 428.52 12.58
1 2 -5 419.18 12.56
-1 -2 5 410.73 13.45
-1 -2 5 433.42 13.48
-1 -2 5 439.99 10.29
1 2 -5 427.52 12.38
1 2 -4 453.52 12.89
-1 -2 4 438.77 12.58
-1 -2 4 424.42 12.19
-1 -2 4 458.16 12.36
-1 -2 4 434.59 12.3
-1 -2 4 452.3 12.38
-1 -2 4 448.51 12.92
1 2 -4 450.7 12.53
1 2 -4 452.9 12.39
1 2 -4 442.5 12.36
-1 -2 4 434.69 13.1
-1 -2 4 440.4 10.8
-1 -2 4 437.08 12.93
1 2 -4 450.06 12.18
-1 -2 3 975.66 22.62
1 2 -3 935.22 23.85
-1 -2 3 945.46 23.58
-1 -2 3 1005.49 23.42
-1 -2 3 978.79 23.38
-1 -2 3 996.62 23.32
-1 -2 3 1005.55 23.38
1 2 -3 939.12 22.99
-1 -2 3 957.27 23.97
1 2 -3 972.72 23.52
1 2 -3 964.17 23.41
1 2 -3 960.11 23.35
-1 -2 3 1009.67 24.05
1 2 -3 971.02 23.24
-1 -2 3 968.65 23.9
-1 -2 3 873.84 22.22
-1 -2 2 569.48 14.29
-1 -2 2 612.71 15.18
1 2 -2 617.81 15.42
-1 -2 2 607.37 14.91
-1 -2 2 601.5 14.93
-1 -2 2 582.86 14.92
-1 -2 2 624.57 14.99
-1 -2 2 617.37 15.04
-1 -2 2 592.7 15.5
1 2 -2 607.52 15.18
1 2 -2 597.32 14.95
1 2 -2 623.27 15.07
-1 -2 2 600.89 15.23
-1 -2 2 601.24 15.18
1 2 -2 578.05 14.88
-1 -2 1 9.3 1
-1 -2 1 9.62 0.87
1 2 -1 6.39 0.83
-1 -2 1 8.3 0.86
-1 -2 1 8.93 0.89
-1 -2 1 8.83 0.89
-1 -2 1 8.05 0.86
-1 -2 1 9.13 1.05
-1 -2 1 8.69 0.9
1 2 -1 9 0.91
-1 -2 1 8.18 0.85
1 2 -1 8.52 0.92
1 2 0 94.75 3.58
-1 -2 0 107.84 3.7
-1 -2 0 120.19 3.78
-1 -2 0 112.31 3.66
-1 -2 0 112.42 3.66
-1 -2 0 113.48 3.68
-1 -2 0 112.03 3.67
-1 -2 0 111.48 3.64
1 2 0 107.81 3.68
1 2 0 111.7 3.58
-1 -2 0 115.91 3.38
1 2 0 100.13 3.68
-1 -2 0 105.69 3.17
-1 -2 -1 1091.97 24.14
1 2 1 1071.68 23.99
-1 -2 -1 1021.36 23.93
-1 -2 -1 1031.87 23.78
-1 -2 -1 1057.58 23.78
-1 -2 -1 1028.88 23.77
1 2 1 1066.22 24.07
-1 -2 -1 1015.16 23.74
-1 -2 -1 1025.87 23.74
-1 -2 -1 1029.48 22.89
1 2 1 1097.62 24.07
1 2 1 1039.75 24.01
-1 -2 -1 1027.65 23.53
1 2 2 24.27 1.61
-1 -2 -2 27.41 1.73
1 2 2 26 1.66
1 2 2 26.86 1.65
-1 -2 -2 25.02 1.55
-1 -2 -2 26.2 1.63
1 2 2 24.16 1.53
-1 -2 -2 24.99 1.57
-1 -2 -2 25.88 1.6
-1 -2 -2 24.11 1.58
1 2 2 28.45 1.77
1 2 2 23.18 1.59
-1 -2 -2 28 1.48
1 2 3 75.25 3.26
-1 -2 -3 70.38 3.25
1 2 3 75.49 3.23
1 2 3 72.34 3.14
-1 -2 -3 69.58 3.09
-1 -2 -3 71.86 3.18
-1 -2 -3 70.4 2.87
1 2 3 73.72 2.91
-1 -2 -3 69.35 3.09
-1 -2 -3 67.5 3.1
-1 -2 -3 69.08 3.08
1 2 3 75.59 3.36
1 2 3 68.74 3.15
1 2 4 544.87 14.24
-1 -2 -4 551.81 14.55
1 2 4 560.89 14.42
1 2 4 532.03 14.3
1 2 4 534.31 14.25
-1 -2 -4 535.14 14.25
-1 -2 -4 520.51 13.32
-1 -2 -4 529.67 14.19
-1 -2 -4 546.1 14.3
-1 -2 -4 536.82 14.23
-1 -2 -4 546.24 14.4
1 2 4 557.17 14.49
1 2 4 563.03 14.12
1 2 5 10.31 1.31
-1 -2 -5 10.67 1.39
1 2 5 10.44 1.35
1 2 5 9.93 1.33
1 2 5 10.91 1.35
1 2 5 11.91 1.41
-1 -2 -5 9.57 1.29
1 2 5 11.68 0.95
-1 -2 -5 11.41 1.08
-1 -2 -5 10.61 1.03
-1 -2 -5 10.05 1.3
-1 -2 -5 9.8 1.3
-1 -2 -5 10.53 1.33
-1 -2 -5 11.78 1.44
1 2 5 9.6 1.33
-1 -2 -5 10.1 0.93
1 2 5 11.35 1.39
-1 -2 -5 11.58 1.38
1 2 6 5.04 1.01
-1 -2 -6 4.38 1.03
1 2 6 4.87 1.18
1 2 6 3.57 0.86
1 2 6 3.96 0.92
1 2 6 4.46 1.03
-1 -2 -6 3.55 0.7
1 2 6 4.59 0.71
-1 -2 -6 4.13 0.7
1 2 6 4.87 1.07
-1 -2 -6 3.92 0.94
-1 -2 -6 4.32 1.01
-1 -2 -6 2.75 0.72
-1 -2 -6 4.75 1.05
-1 -2 -6 4.52 1.05
-1 -2 -6 8.54 0.83
1 2 6 4.25 0.61
-1 -2 -6 3.38 0.86
1 2 6 4.61 1.01
1 2 7 512.34 14.24
1 2 7 533.14 14.88
-1 -2 -7 507.89 14.88
1 2 7 550.27 14.79
1 2 7 531.48 14.83
1 2 7 533.19 14.58
-1 -2 -7 505.27 14.55
-1 -2 -7 496.55 12.38
-1 -2 -7 509.8 12.56
1 2 7 498.78 12.26
-1 -2 -7 536.5 14.67
-1 -2 -7 531.21 14.54
-1 -2 -7 525.26 14.52
1 2 7 537.09 14.55
-1 -2 -7 529.02 14.88
1 2 7 497.08 11.33
-1 -2 -7 521.97 14.53
1 2 7 564.04 15.33
1 2 8 19.48 2.3
1 2 8 19.84 2.42
-1 -2 -8 20.96 2.58
1 2 8 23.92 2.69
1 2 8 20.87 2.48
1 2 8 21.04 2.44
-1 -2 -8 19.67 2.42
-1 -2 -8 16.72 1.6
-1 -2 -8 19.35 1.74
1 2 8 20.59 1.74
-1 -2 -8 21.32 2.43
-1 -2 -8 20.96 2.42
-1 -2 -8 16.62 2.2
-1 -2 -8 20.44 2.56
1 2 8 20.57 2.39
1 2 8 24.92 2.81
1 2 8 18.35 1.19
-1 -2 -8 22.03 2.56
1 2 9 1267.54 33.15
-1 -2 -9 1273.87 34.28
1 2 9 1318.74 34.2
1 2 9 1307.56 33.83
1 2 9 1318.86 33.78
1 2 9 1400.12 34.49
-1 -2 -9 1258.41 33.75
1 2 9 1233.04 30.61
-1 -2 -9 1232.48 30.38
-1 -2 -9 1213.14 30.52
-1 -2 -9 1294.9 33.66
-1 -2 -9 1310.27 33.76
-1 -2 -9 1282.22 33.63
1 2 9 1284.57 33.06
-1 -2 -9 1325.94 34.14
-1 -2 -9 1299.5 33.72
1 2 9 1326.54 34.73
1 2 10 98.19 6.16
1 2 10 103.16 6.65
1 2 10 105.82 6.53
1 2 10 104.72 6.56
-1 -2 -10 97.61 6.37
1 2 10 103.79 6.66
-1 -2 -10 102.38 6.76
-1 -2 -10 100.52 6.4
-1 -2 -10 103.12 6.4
-1 -2 -10 97.69 6.31
-1 -2 -10 105.48 6.66
1 2 10 105.38 6.13
-1 -2 -10 103.47 6.48
1 2 11 137.17 7.77
1 2 11 144.47 8.54
1 2 11 139.43 8.24
1 2 11 141.45 8.24
-1 -2 -11 136.37 8.15
1 2 11 145 8.52
-1 -2 -11 142.77 8.62
-1 -2 -11 138.84 8.16
-1 -2 -11 136.92 8.06
-1 -2 -11 147.81 8.34
1 2 11 137.05 7.47
-1 -2 -11 141.63 8.38
-1 -2 -11 133.65 7.98
1 2 12 81.44 6.1
1 2 12 83.82 6.86
1 2 12 80.8 6.47
1 2 12 85.61 6.78
-1 -2 -12 77.87 6.39
1 2 12 80.6 6.61
-1 -2 -12 82.41 6.74
-1 -2 -12 83.59 6.49
-1 -2 -12 81.55 6.53
-1 -2 -12 81.33 6.41
-1 -2 -12 78.17 6.59
-1 -2 -12 82.61 6.55
1 2 13 1.8 1.07
-1 -2 -13 1.66 1.49
1 2 13 2.29 1.57
1 2 13 2.55 1.67
1 2 13 2.12 1.42
1 2 13 2.59 1.27
-1 -2 -13 2.29 1.42
-1 -2 -13 2.57 1.71
-1 -2 -13 4.41 1.73
-1 -2 -13 4.93 2.19
-1 -2 -13 1.46 1.57
-1 -2 -13 2.51 1.79
-1 -2 -14 105.12 8.74
1 2 14 109.25 8.78
-1 -2 -14 96.11 8.05
1 2 14 96.25 8.42
1 2 14 105.89 8.41
1 2 14 107.68 8.63
-1 -2 -14 107.05 8.34
-1 -2 -14 95.79 7.98
-1 -2 -14 95.54 8.08
-1 -2 -14 113.04 8.83
-1 -2 -14 102.74 8.27
1 2 15 3.5 1.82
-1 -2 -15 2.91 1.91
-1 -2 -15 3.35 1.52
-1 -2 -15 2.89 2
1 2 15 2.4 1.64
-1 -2 -15 5.53 2.28
-1 -2 -15 3.98 2.12
-1 -2 -15 6.3 2.6
1 2 15 6.18 2.51
-1 -3 12 39.2 5.06
1 3 -12 37.76 5.06
-1 -3 12 37.35 4.81
-1 -3 12 37.66 4.91
-1 -3 12 36.03 4.74
1 3 -12 35.37 4.7
1 3 -12 34.94 4.59
1 3 -12 41.29 5.05
1 3 -12 51.79 5.63
1 3 -12 37.16 4.63
-1 -3 11 0.21 1.34
1 3 -11 2.07 1.5
-1 -3 11 3.03 1.48
-1 -3 11 1.92 1.43
-1 -3 11 1.62 1.08
-1 -3 11 0.78 1.59
-1 -3 11 1.18 0.99
1 3 -11 1.15 1.14
1 3 -11 1.63 1.16
1 3 -11 2.62 1.5
1 3 -11 1.15 0.98
1 3 -11 2.57 1.53
1 3 -10 16.37 2.95
-1 -3 10 17.7 3
-1 -3 10 14.95 2.75
-1 -3 10 15.14 2.76
-1 -3 10 16.12 2.81
-1 -3 10 16.84 3.31
-1 -3 10 16.09 2.71
1 3 -10 17.31 2.87
1 3 -10 15.39 2.77
1 3 -10 12.5 2.61
1 3 -10 18.85 3.19
1 3 -10 14.45 2.66
-1 -3 9 -0.24 0.83
1 3 -9 1.57 0.87
-1 -3 9 0.49 0.73
-1 -3 9 -0.29 0.76
-1 -3 9 1.22 1.2
-1 -3 9 0.51 0.99
-1 -3 9 1.59 0.94
-1 -3 9 0.03 0.8
1 3 -9 -0.84 0.98
1 3 -9 0.15 0.9
1 3 -9 1.82 1.16
1 3 -9 0.46 1.06
-1 -3 9 1.52 1.27
1 3 -9 0.49 0.92
-1 -3 8 321.13 12.91
1 3 -8 323.24 13.18
-1 -3 8 318.61 12.55
-1 -3 8 322.63 12.62
-1 -3 8 315.79 12.49
-1 -3 8 318.34 12.64
1 3 -8 351.58 11.07
-1 -3 8 320.13 12.66
1 3 -8 315.29 12.7
1 3 -8 304.08 12.39
1 3 -8 385.36 13.25
1 3 -8 302.46 12.37
-1 -3 8 334.78 14.05
-1 -3 8 351.03 14.26
1 3 -8 341.95 12.64
-1 -3 7 964.09 27.45
1 3 -7 1000.85 27.93
-1 -3 7 995.06 27.04
-1 -3 7 975.86 26.93
-1 -3 7 951.76 26.83
-1 -3 7 960.03 26.97
-1 -3 7 988.12 27.57
1 3 -7 896.77 24.14
1 3 -7 1035.81 25.27
1 3 -7 988.38 27.37
1 3 -7 988.37 27.15
1 3 -7 1089.07 27.43
1 3 -7 991.1 27.06
-1 -3 7 1006.87 28.67
1 3 -7 1067.72 27.07
-1 -3 7 992.46 28.55
1 3 -6 97.6 5.77
-1 -3 6 93.24 5.54
-1 -3 6 102.22 5.51
-1 -3 6 95.83 5.38
-1 -3 6 99.5 5.54
-1 -3 6 94.94 5.41
1 3 -6 94.38 4.23
-1 -3 6 106.84 5.96
1 3 -6 101.59 4.75
1 3 -6 92.03 5.41
1 3 -6 97.71 5.66
1 3 -6 91.68 5.31
1 3 -6 100.18 5.42
-1 -3 6 96.38 5.98
-1 -3 6 100.35 6.21
1 3 -6 95.81 5.34
-1 -3 5 371.65 12.4
1 3 -5 389.66 12.79
-1 -3 5 392.7 12.3
-1 -3 5 396.27 12.3
-1 -3 5 388.07 12.2
-1 -3 5 388.04 12.3
-1 -3 5 395.6 12.97
1 3 -5 394.84 12.44
1 3 -5 395.23 12.29
1 3 -5 415.51 12.42
-1 -3 5 369.1 12.99
1 3 -5 412.76 12.3
-1 -3 5 349.98 10.34
-1 -3 5 383.44 13.04
1 3 -4 110.4 5.43
-1 -3 4 115.27 5.38
-1 -3 4 112.43 5.12
-1 -3 4 110.24 5.11
-1 -3 4 110.91 5.16
-1 -3 4 112.3 5.15
-1 -3 4 118.33 5.71
1 3 -4 110.87 5.26
1 3 -4 113.64 5.18
1 3 -4 106.74 5.01
-1 -3 4 115.67 5.64
1 3 -4 116.05 5.12
-1 -3 4 102.78 5.36
-1 -3 3 268.65 8
-1 -3 3 291.57 9.53
1 3 -3 283.33 9.7
-1 -3 3 305.23 9.33
-1 -3 3 313.21 9.35
-1 -3 3 297.74 9.28
-1 -3 3 313.72 9.39
-1 -3 3 301.23 9.33
1 3 -3 297.6 8.68
-1 -3 3 286.03 9.87
1 3 -3 315.81 9.62
1 3 -3 303.14 9.4
-1 -3 3 308.18 9.82
1 3 -3 290.66 9.28
-1 -3 3 283.72 9.45
1 3 -3 308.66 9.29
-1 -3 2 87.25 4.19
-1 -3 2 85.77 3.19
1 3 -2 86.28 4.18
-1 -3 2 86.82 4
-1 -3 2 86.78 3.9
-1 -3 2 87.47 3.88
-1 -3 2 89.11 3.92
1 3 -2 67.82 3.17
-1 -3 2 92.17 3.97
-1 -3 2 90.61 3.97
-1 -3 2 84.45 4.22
1 3 -2 89.89 4.11
1 3 -2 89.62 3.99
1 3 -2 89.62 3.87
-1 -3 2 90.84 4.07
-1 -3 2 88.38 3.93
1 3 -2 90.25 3.93
-1 -3 1 8126.67 174.12
-1 -3 1 8880.98 172.92
-1 -3 1 8345.03 173.66
-1 -3 1 8138.8 173.55
-1 -3 1 8171.16 173.59
-1 -3 1 8199.89 173.66
1 3 -1 8041.32 173.7
-1 -3 1 8299.69 173.55
-1 -3 1 8191.04 173.29
1 3 -1 8393.4 173.67
1 3 0 967.65 23.35
-1 -3 0 981.12 23.47
1 3 0 972.82 22.7
-1 -3 0 1061.26 23.02
-1 -3 0 988.94 23.24
-1 -3 0 962.44 23.23
-1 -3 0 984.26 23.23
-1 -3 0 974.77 23.24
-1 -3 0 947.65 23.15
1 3 0 973.84 23.39
1 3 0 986.24 23.12
-1 -3 0 1013.24 22.82
-1 -3 0 1009.35 22.53
1 3 0 962.84 23.27
-1 -3 -1 69.14 3.03
1 3 1 69.03 3.19
-1 -3 -1 63.63 3.06
-1 -3 -1 65.84 3.04
-1 -3 -1 68.29 3.06
-1 -3 -1 69.11 3.08
-1 -3 -1 69.75 2.37
-1 -3 -1 67.06 3.05
-1 -3 -1 70.72 2.62
1 3 1 62.96 3.02
1 3 1 63.36 2.84
-1 -3 -1 70.37 2.41
1 3 2 1276.5 29.86
-1 -3 -2 1237.41 29.86
-1 -3 -2 1300.57 29.72
-1 -3 -2 1263.67 29.6
-1 -3 -2 1275.38 29.63
-1 -3 -2 1250.92 29.59
-1 -3 -2 1246.29 29.62
1 3 2 1289.83 29.97
-1 -3 -2 1273.32 29.35
1 3 2 1271.56 29.78
-1 -3 -3 1.04 0.49
1 3 3 2.03 0.58
1 3 3 1.85 0.59
-1 -3 -3 1.58 0.46
1 3 3 1.6 0.59
1 3 3 2.17 0.53
-1 -3 -3 2.08 0.56
-1 -3 -3 2.46 0.63
-1 -3 -3 1.49 0.52
-1 -3 -3 1.81 0.54
1 3 3 2.6 0.66
-1 -3 -3 1.97 0.59
1 3 3 2.35 0.63
1 3 4 164.44 6.11
-1 -3 -4 160.94 6.23
1 3 4 159.51 5.98
1 3 4 154.23 6.01
-1 -3 -4 163.36 6.05
-1 -3 -4 155.65 5.87
1 3 4 158.45 5.29
-1 -3 -4 160.51 5.94
-1 -3 -4 151.96 5.86
-1 -3 -4 153.63 5.96
1 3 4 167.33 6.16
1 3 4 160.3 5.93
-1 -3 -5 200.44 7.57
1 3 5 201.16 7.44
1 3 5 205.33 7.41
1 3 5 210.59 7.53
-1 -3 -5 208.67 7.42
-1 -3 -5 202.75 7.43
1 3 5 204.95 6.4
-1 -3 -5 201.7 7.3
-1 -3 -5 199.63 7.39
-1 -3 -5 200.62 7.32
1 3 5 212.27 7.55
-1 -3 -5 212.39 7.52
1 3 5 214.69 7.43
-1 -3 -6 608.86 17.61
1 3 6 632.29 17.5
1 3 6 628.1 17.37
1 3 6 624.69 17.27
-1 -3 -6 614.28 17.19
1 3 6 603.96 15.46
1 3 6 617.58 15.38
-1 -3 -6 621.85 17.16
-1 -3 -6 612.24 17.25
-1 -3 -6 624.05 17.23
-1 -3 -6 615.69 17.41
1 3 6 631.8 17.34
1 3 6 632.37 17.11
1 3 7 231.73 8.6
-1 -3 -7 229.51 9.11
1 3 7 237.68 9.04
1 3 7 244.95 8.95
1 3 7 246.08 9.05
-1 -3 -7 230.94 8.82
1 3 7 235.78 7.21
-1 -3 -7 226.87 7.67
-1 -3 -7 220.38 7.01
1 3 7 228.51 7.05
-1 -3 -7 249.46 8.96
-1 -3 -7 239.71 8.96
-1 -3 -7 234.69 8.81
-1 -3 -7 231.37 8.88
1 3 7 233 8.73
1 3 7 219.89 6.78
1 3 8 1255.81 32.14
1 3 8 1292.08 32.96
-1 -3 -8 1289.84 33.26
1 3 8 1324.73 32.85
1 3 8 1298.2 32.65
-1 -3 -8 1257.6 32.61
1 3 8 1253.55 29.87
1 3 8 1232.74 29.44
-1 -3 -8 1251.92 30.58
-1 -3 -8 1218.13 29.48
-1 -3 -8 1290.87 32.72
-1 -3 -8 1287.23 32.59
-1 -3 -8 1277.16 32.57
-1 -3 -8 1298.62 33.03
1 3 8 1304.32 32.36
1 3 8 1231.55 29.03
1 3 9 492.72 16.37
-1 -3 -9 480.94 16.56
1 3 9 494.15 16.24
1 3 9 506.49 16.27
-1 -3 -9 497.99 16.25
-1 -3 -9 474.37 14.1
1 3 9 484.46 13.59
-1 -3 -9 464.36 15.93
-1 -3 -9 485.6 16.02
-1 -3 -9 482.9 16.03
-1 -3 -9 514.79 16.58
1 3 9 494.39 15.82
1 3 9 467.07 15.51
1 3 10 16.31 2.36
1 3 10 13.95 2.32
1 3 10 19.78 2.82
1 3 10 13.6 2.4
-1 -3 -10 23 3.15
-1 -3 -10 14.75 2.49
-1 -3 -10 16.86 2.58
-1 -3 -10 16.92 2.6
1 3 10 12.17 1.96
-1 -3 -10 15.61 2.43
-1 -3 -10 15.57 2.59
-1 -3 -10 17.9 2.65
1 3 11 408.17 15.53
1 3 11 422.81 15.86
-1 -3 -11 405.85 15.49
1 3 11 415.95 16.01
-1 -3 -11 389.8 15.92
-1 -3 -11 404.62 15.47
-1 -3 -11 410.8 15.47
-1 -3 -11 387.75 15.34
-1 -3 -11 403.47 15.76
1 3 11 398.35 14.55
1 3 11 397.8 14.9
1 3 12 12.5 2.69
1 3 12 14.52 2.74
1 3 12 8.74 2.4
-1 -3 -12 15.02 2.93
-1 -3 -12 11.66 2.42
-1 -3 -12 11.73 2.39
-1 -3 -12 10.77 2.2
1 3 12 9.96 2.02
-1 -3 -12 15.84 2.84
-1 -3 -12 14.86 2.9
1 3 12 10.78 2.2
1 3 13 864.3 28.57
1 3 13 891.25 28.58
-1 -3 -13 883.75 28.37
-1 -3 -13 888.34 29.4
1 3 13 841.03 28.56
-1 -3 -13 862.13 28.05
-1 -3 -13 850.98 28.25
-1 -3 -13 865.12 28.14
-1 -3 -13 870.12 28.68
1 3 13 828.13 26.88
-1 -3 -14 294.03 14.64
1 3 14 285.33 14.93
1 3 14 285.8 14.73
-1 -3 -14 309.93 14.91
-1 -3 -14 276.04 14.3
-1 -3 -14 286.22 14.73
-1 -3 -14 311.99 15.34
-1 -3 -14 300.13 15.47
1 3 14 299.37 15.18
1 3 15 12.8 3.16
-1 -3 -15 13.52 3.16
-1 -3 -15 13.25 3.12
-1 -3 -15 14.59 3.24
1 3 15 13.57 3.04
-1 -3 -15 12.62 3.24
-1 -3 -15 15.84 3.59
-1 -3 -15 15.73 3.65
1 3 15 15.03 3.51
-1 -4 12 88.73 7.86
1 4 -12 82.05 7.72
-1 -4 12 88.16 7.48
-1 -4 12 90.42 7.58
-1 -4 12 86.43 7.64
1 4 -12 77.78 7.09
1 4 -12 83.45 7.39
1 4 -12 78.66 7.25
1 4 -12 103.85 8.21
1 4 -12 96.21 7.99
1 4 -11 45.87 5.51
-1 -4 11 49.8 5.63
-1 -4 11 49.02 5.33
-1 -4 11 46.19 5.17
-1 -4 11 50.24 5.43
-1 -4 11 47.94 5.07
1 4 -11 45.07 5.08
1 4 -11 55.78 5.62
1 4 -11 44.53 5.04
1 4 -11 49.62 5.33
1 4 -11 48.78 5.36
-1 -4 11 50.97 6.17
-1 -4 10 19.44 3.37
1 4 -10 19.33 3.46
-1 -4 10 16.18 2.82
-1 -4 10 22.32 3.38
-1 -4 10 21.39 3.37
-1 -4 10 18.19 3.18
-1 -4 10 21.99 3.93
-1 -4 10 21.67 3.36
1 4 -10 16.45 2.96
1 4 -10 16.98 3.05
1 4 -10 15.88 2.82
1 4 -10 18.05 3.23
1 4 -10 21.89 3.2
1 4 -9 101.19 7.36
-1 -4 9 107.11 7.39
-1 -4 9 106.78 7.09
-1 -4 9 106.87 7.03
-1 -4 9 94.61 6.74
-1 -4 9 108.69 7.21
1 4 -9 112.53 5.96
-1 -4 9 89.82 6.77
1 4 -9 107.48 7.1
1 4 -9 106.33 7.18
1 4 -9 114.62 7.38
1 4 -9 110.14 7.17
-1 -4 9 107.25 8.05
1 4 -9 110 6.97
-1 -4 9 109.64 8.12
-1 -4 8 199.5 9.96
1 4 -8 207.43 10.28
-1 -4 8 200.85 9.71
-1 -4 8 196.33 9.62
-1 -4 8 193.3 9.58
-1 -4 8 191.44 9.61
1 4 -8 227.41 8.8
-1 -4 8 196.26 9.81
1 4 -8 199.94 9.7
1 4 -8 192.52 9.77
1 4 -8 228.35 10.15
-1 -4 8 203.19 10.74
1 4 -8 196.86 9.59
-1 -4 8 201.38 10.71
1 4 -8 204.66 9.52
-1 -4 7 8.02 1.8
1 4 -7 8.51 1.98
-1 -4 7 6.97 1.59
-1 -4 7 6.21 1.61
-1 -4 7 8.56 1.8
-1 -4 7 5.74 1.45
1 4 -7 7.04 1.4
-1 -4 7 7.63 1.78
-1 -4 7 9.5 2.12
1 4 -7 5.69 1.5
1 4 -7 5 1.33
1 4 -7 5.08 1.62
1 4 -7 8.33 1.81
-1 -4 7 6.34 1.87
1 4 -7 5.66 1.43
1 4 -6 1278.7 35.31
-1 -4 6 1323.48 35.1
-1 -4 6 1347.64 34.64
-1 -4 6 1348.44 34.67
-1 -4 6 1304.61 34.6
-1 -4 6 1357.79 34.8
1 4 -6 1404.11 33.53
-1 -4 6 1361.84 35.63
1 4 -6 1269.11 34.79
1 4 -6 1324.7 34.8
-1 -4 6 1362.68 36.16
1 4 -6 1319.4 34.58
-1 -4 6 1358.12 36.06
1 4 -6 1389.14 34.51
-1 -4 5 487.92 15.71
1 4 -5 499.01 16.07
-1 -4 5 494.9 15.37
-1 -4 5 491.74 15.24
-1 -4 5 483.66 15.21
-1 -4 5 502.03 15.39
-1 -4 5 512.34 16.25
1 4 -5 493.36 15.52
1 4 -5 499.24 15.42
-1 -4 5 490.62 16.29
1 4 -5 560.19 15.5
1 4 -5 503.35 15.19
-1 -4 5 506.31 16.19
-1 -4 4 0.59 0.69
1 4 -4 0.9 0.61
-1 -4 4 0.99 0.57
-1 -4 4 1.15 0.63
-1 -4 4 0.83 0.55
-1 -4 4 0.34 0.44
-1 -4 4 0.21 0.48
-1 -4 4 0.72 0.51
-1 -4 4 -0.14 0.58
1 4 -4 0.26 0.55
1 4 -4 -0.68 0.75
-1 -4 4 -0.17 0.51
1 4 -4 -0.43 0.68
1 4 -4 0.39 0.63
-1 -4 3 51.4 3.57
-1 -4 3 41.03 2.15
-1 -4 3 49.34 3.38
1 4 -3 45.86 3.34
-1 -4 3 53.46 3.33
-1 -4 3 49.32 3.25
-1 -4 3 47.6 3.15
-1 -4 3 52.03 3.3
-1 -4 3 50.02 3.28
1 4 -3 40.74 2.49
-1 -4 3 51.44 3.69
1 4 -3 49.37 3.37
-1 -4 3 44.02 3.25
1 4 -3 48.85 3.16
1 4 -3 49.24 3.24
-1 -4 3 45 3.21
1 4 -3 47.11 3.12
-1 -4 2 3786.02 83.07
-1 -4 2 3307.3 80.13
-1 -4 2 3693.29 82.22
-1 -4 2 3865.42 82.28
-1 -4 2 3840.48 82.33
-1 -4 2 3778.35 82.35
-1 -4 2 3794.19 82.28
1 4 -2 3792.97 83.11
-1 -4 2 3601.69 82.58
1 4 -2 3693.88 82.49
-1 -4 2 3704.06 82.49
1 4 -2 3603.53 81.87
1 4 -2 3893.75 82.52
-1 -4 2 3752.27 82.24
1 4 -2 3939.16 82.27
-1 -4 1 234.21 8.06
1 4 -1 216.87 5.65
-1 -4 1 233.45 7.72
-1 -4 1 231.55 7.62
-1 -4 1 235.53 7.76
-1 -4 1 237.33 7.73
-1 -4 1 248.65 6.81
1 4 -1 232.8 7.77
-1 -4 1 232.14 7.63
1 4 -1 240.93 7.66
-1 -4 1 235.05 7.4
-1 -4 0 84.2 2.55
-1 -4 0 86.79 4.1
1 4 0 81.76 3.88
1 4 0 79.31 2.87
-1 -4 0 93.16 3.59
-1 -4 0 87 3.93
-1 -4 0 85.86 3.94
-1 -4 0 87.25 3.97
-1 -4 0 88.26 3.95
-1 -4 0 79.73 3.8
-1 -4 0 89.33 3.72
1 4 0 84.94 4.01
-1 -4 0 85.06 3.43
1 4 0 82.23 3.83
1 4 1 173.46 6.24
-1 -4 -1 176.02 6.27
-1 -4 -1 174.99 6.01
-1 -4 -1 175.35 6.22
-1 -4 -1 176.96 6.2
-1 -4 -1 175.24 6.23
-1 -4 -1 185.16 5.38
-1 -4 -1 172.3 6.23
-1 -4 -1 181.45 5.68
1 4 1 164.81 6.08
-1 -4 -1 176.25 5.35
-1 -4 -2 43.14 2.69
1 4 2 43.86 2.77
-1 -4 -2 44.82 2.76
-1 -4 -2 46.19 2.8
-1 -4 -2 47.35 2.81
-1 -4 -2 42.36 2.87
1 4 2 42.65 2.93
-1 -4 -2 44.53 2.76
-1 -4 -2 47.31 2.85
1 4 2 47.58 2.92
1 4 2 49.27 2.43
1 4 3 4478.45 100.11
-1 -4 -3 4479.13 100.22
-1 -4 -3 4650.41 99.88
-1 -4 -3 4442.24 99.69
-1 -4 -3 4639.01 99.94
1 4 3 4379.79 100.01
-1 -4 -3 4474.28 99.86
-1 -4 -3 4353.09 99.73
1 4 3 4693.11 100.15
-1 -4 -3 4528.18 99.62
1 4 3 4749.6 99.97
-1 -4 -4 327.34 10.53
1 4 4 305.88 10.23
1 4 4 314.9 10.21
-1 -4 -4 319.55 10.07
-1 -4 -4 317.15 10.13
-1 -4 -4 316.75 10.13
-1 -4 -4 323.82 10.1
1 4 4 326.2 10.33
-1 -4 -4 327.36 9.93
1 4 4 315.1 10.11
-1 -4 -5 34.6 2.87
1 4 5 32.88 2.72
1 4 5 32.08 2.7
1 4 5 34.22 2.74
-1 -4 -5 34.2 2.74
-1 -4 -5 36.95 2.82
1 4 5 32 2.1
-1 -4 -5 33.93 2.72
-1 -4 -5 31.26 2.6
-1 -4 -5 32.65 2.62
1 4 5 32.48 2.65
-1 -4 -5 32.82 2.55
1 4 5 29.52 2.49
1 4 6 547.01 16.36
-1 -4 -6 550.57 16.63
1 4 6 541.58 16.14
1 4 6 558.73 16.36
-1 -4 -6 555.62 16.11
-1 -4 -6 560.23 16.33
1 4 6 548.95 14.31
-1 -4 -6 556.51 16.1
-1 -4 -6 567.92 16.38
-1 -4 -6 562.12 16.21
1 4 6 569.06 16.33
1 4 6 559.97 16
-1 -4 -7 4042.26 92.56
1 4 7 4060.32 92.19
1 4 7 4063.65 92.09
1 4 7 4090.36 91.97
-1 -4 -7 4048.4 91.83
-1 -4 -7 4054.24 92.1
1 4 7 3970.85 88.88
-1 -4 -7 4074.69 92.07
-1 -4 -7 4051.68 91.87
-1 -4 -7 4056.75 91.8
-1 -4 -7 4073 91.99
1 4 7 4119.44 91.89
1 4 7 4093.01 91.58
1 4 8 268.89 10.17
-1 -4 -8 271.68 10.96
1 4 8 268.28 10.64
1 4 8 281.65 10.64
1 4 8 287.81 10.79
-1 -4 -8 266.48 10.41
1 4 8 259.7 7.94
-1 -4 -8 272.23 10.59
-1 -4 -8 273.18 10.47
-1 -4 -8 270.04 10.48
1 4 8 272.5 10.32
-1 -4 -8 282.67 10.71
1 4 8 262.51 8.32
1 4 9 508.27 16.28
1 4 9 516.25 16.78
1 4 9 512.2 16.84
-1 -4 -9 509.36 16.72
1 4 9 496.53 16.81
-1 -4 -9 505.99 17.2
-1 -4 -9 504.94 16.62
-1 -4 -9 498.61 16.69
-1 -4 -9 482.74 16.45
-1 -4 -9 510.26 16.73
1 4 9 495.16 16.14
1 4 9 484.87 13.41
-1 -4 -10 327.94 13.53
1 4 10 321.18 13.14
-1 -4 -10 325.66 13.01
1 4 10 349.87 13.51
1 4 10 321.1 12.97
-1 -4 -10 329.12 13.18
-1 -4 -10 332.33 13.11
-1 -4 -10 328.47 12.98
1 4 10 328.9 12.58
-1 -4 -10 327.47 13.26
1 4 10 330.62 12.55
1 4 11 1.47 1.14
-1 -4 -11 2.73 1.42
1 4 11 0.49 0.83
1 4 11 0.14 0.84
-1 -4 -11 0.93 0.81
-1 -4 -11 1.61 1.16
-1 -4 -11 -0.72 1.04
-1 -4 -11 0.99 1.25
1 4 11 1.66 0.97
-1 -4 -11 0.37 1.03
1 4 11 1.89 1.04
-1 -4 -12 32.74 4.28
1 4 12 31.49 4.06
1 4 12 25.28 3.69
-1 -4 -12 28.72 3.84
1 4 12 29.48 3.88
-1 -4 -12 28.77 3.75
-1 -4 -12 28.32 3.78
-1 -4 -12 30.15 3.91
-1 -4 -12 31.38 4.06
1 4 12 28.86 3.54
1 4 12 27.06 3.4
1 4 13 156.8 9.96
-1 -4 -13 151.21 9.98
-1 -4 -13 143.06 9.28
1 4 13 137.53 9.21
1 4 13 131.16 9.12
-1 -4 -13 123.27 8.79
-1 -4 -13 129.59 8.82
-1 -4 -13 144.5 9.3
-1 -4 -13 124.52 8.86
1 4 13 132.84 8.29
1 4 14 10.01 2.74
-1 -4 -14 11.45 2.81
-1 -4 -14 10.1 2.61
-1 -4 -14 6.1 2.34
1 4 14 10.05 2.9
-1 -4 -14 6.78 2.35
-1 -4 -14 5.86 2
-1 -4 -14 8.55 2.59
1 4 14 7.16 2.38
1 4 15 256.47 14.62
1 4 15 282.05 15.51
-1 -4 -15 268.58 14.65
-1 -4 -15 264.84 14.77
-1 -4 -15 259.77 14.38
-1 -4 -15 290.83 15.44
-1 -4 -15 247.08 14.16
-1 -4 -15 276.85 15.04
1 4 15 266.62 14.96
-1 -4 -15 275.89 15.47
-1 -5 11 5.35 2.46
1 5 -11 3.61 1.79
-1 -5 11 3.49 1.8
-1 -5 11 0.89 1.04
-1 -5 11 4.22 1.9
-1 -5 11 3.14 2.19
-1 -5 11 2.24 1.16
1 5 -11 -0.34 1.36
1 5 -11 3.31 1.51
1 5 -11 1.2 1.41
1 5 -11 3.57 1.79
1 5 -11 2.55 1.65
-1 -5 10 68.89 6.52
1 5 -10 72.27 6.72
-1 -5 10 81.83 6.69
-1 -5 10 71.87 6.31
-1 -5 10 66.06 6.09
-1 -5 10 73.97 6.5
-1 -5 10 72.19 6.3
1 5 -10 69.96 6.15
1 5 -10 70.72 6.36
-1 -5 10 71.62 7.17
1 5 -10 70.25 6.23
1 5 -10 77.04 6.35
-1 -5 10 72.58 7.17
1 5 -10 81.61 6.56
1 5 -9 9.56 2.39
-1 -5 9 8 2.05
-1 -5 9 6.7 1.98
-1 -5 9 6.79 2
-1 -5 9 4.66 1.56
-1 -5 9 7.71 1.97
-1 -5 9 1.63 0.98
1 5 -9 8.3 1.8
-1 -5 9 4.18 1.72
1 5 -9 11.99 2.46
1 5 -9 6.3 1.98
-1 -5 9 5.61 1.97
1 5 -9 6.23 1.78
1 5 -9 5.38 1.63
1 5 -9 9.05 2.17
-1 -5 8 35.43 4.2
1 5 -8 39.37 4.54
-1 -5 8 41.1 4.28
-1 -5 8 35.92 4.01
-1 -5 8 36.87 4.06
-1 -5 8 42.8 4.32
-1 -5 8 43.01 4.58
1 5 -8 43.44 3.81
1 5 -8 40.76 4.43
1 5 -8 41.88 4.37
1 5 -8 42.38 4.37
1 5 -8 43.6 4.25
-1 -5 8 43.51 4.88
-1 -5 8 46.8 5.07
1 5 -8 45.98 4.34
-1 -5 7 221.95 10.45
1 5 -7 208.65 10.36
-1 -5 7 212.74 9.94
-1 -5 7 220.93 10.17
-1 -5 7 215.88 10
-1 -5 7 204.32 9.87
-1 -5 7 206.77 10.38
1 5 -7 240.5 9.47
1 5 -7 197.65 9.99
1 5 -7 212.17 10.04
1 5 -7 220.43 10.11
1 5 -7 251.9 10.34
-1 -5 7 236.76 11.41
1 5 -7 204.26 9.57
-1 -5 7 232.62 11.24
1 5 -6 138.47 7.72
-1 -5 6 135.16 7.46
-1 -5 6 132.41 7.13
-1 -5 6 132.34 7.15
-1 -5 6 129.53 7.11
-1 -5 6 129.13 7.14
1 5 -6 157.92 7.06
-1 -5 6 145.6 7.99
1 5 -6 129.82 7.18
1 5 -6 139.87 6.97
1 5 -6 130.96 7.14
-1 -5 6 136.17 7.93
-1 -5 6 137.8 7.91
1 5 -6 127.93 6.89
1 5 -5 38.29 3.66
-1 -5 5 38.22 3.56
-1 -5 5 37.49 3.33
-1 -5 5 38.42 3.37
-1 -5 5 36.88 3.37
-1 -5 5 36.35 3.33
-1 -5 5 34.28 3.57
1 5 -5 34.94 3.34
1 5 -5 33.74 3.13
1 5 -5 36.9 3.36
-1 -5 5 35.57 3.65
1 5 -5 45.13 3.57
-1 -5 5 35 3.6
-1 -5 4 118.78 6.24
1 5 -4 123.1 6.53
-1 -5 4 116.93 5.99
-1 -5 4 123.92 6.09
-1 -5 4 111.71 5.94
-1 -5 4 118.85 6.04
-1 -5 4 121.84 6.17
-1 -5 4 122 6.67
1 5 -4 121.52 6.25
1 5 -4 121.82 6.12
1 5 -4 116.75 5.64
-1 -5 4 127.68 6.63
1 5 -4 128.88 6.07
-1 -5 4 119.05 6.42
-1 -5 3 24.48 1.51
-1 -5 3 22.09 2.54
-1 -5 3 22.63 2.35
-1 -5 3 22.07 2.26
-1 -5 3 21.52 2.27
-1 -5 3 22.24 2.38
-1 -5 3 22.71 2.33
-1 -5 3 18.39 2.19
1 5 -3 22.03 2.5
1 5 -3 22.75 2.48
1 5 -3 25.14 2.49
1 5 -3 21.16 2.22
-1 -5 3 20.98 2.37
1 5 -3 26.33 2.44
-1 -5 3 24.4 2.5
1 5 -2 84.99 2.64
-1 -5 2 84.98 3.36
-1 -5 2 92.77 5.1
-1 -5 2 99.72 4.91
-1 -5 2 96.64 4.79
-1 -5 2 100.96 4.91
-1 -5 2 101.4 4.98
1 5 -2 83.09 3.55
-1 -5 2 103.19 4.96
-1 -5 2 96.67 5.04
1 5 -2 97.94 5.17
1 5 -2 96.82 5.05
1 5 -2 105.53 5.08
-1 -5 2 100.37 5.03
1 5 -2 87.6 4.55
-1 -5 2 105.06 4.96
1 5 -2 97.2 4.7
-1 -5 1 416.64 12.77
1 5 -1 405.8 9.79
-1 -5 1 406.89 10.63
-1 -5 1 417.77 12.28
-1 -5 1 418.11 12.24
-1 -5 1 427.63 12.38
-1 -5 1 417.47 12.28
-1 -5 1 420.97 12.29
1 5 -1 417.33 12.38
1 5 -1 433.53 12.18
-1 -5 1 402.05 11.85
-1 -5 0 1441.99 33.11
1 5 0 1467.92 33.52
-1 -5 0 1518.34 36.21
1 5 0 1581.37 35.87
-1 -5 0 1577.56 34.63
-1 -5 0 1465.74 35.58
-1 -5 0 1470.68 35.61
-1 -5 0 1473.97 35.64
-1 -5 0 1484.8 35.67
-1 -5 0 1534.82 34.86
-1 -5 0 1472.69 35.59
1 5 0 1516.89 35.9
-1 -5 0 1529.27 35.31
1 5 0 1513.17 35.48
-1 -5 -1 768.7 20.1
1 5 1 731.57 18.37
1 5 1 819.39 20.13
-1 -5 -1 803.08 19.42
-1 -5 -1 779.74 19.91
-1 -5 -1 768.47 19.95
-1 -5 -1 771.21 19.88
-1 -5 -1 760.02 19.89
-1 -5 -1 782.77 18.78
-1 -5 -1 771.68 19.86
-1 -5 -1 785.79 19.31
1 5 1 782.3 20.07
-1 -5 -1 758.18 18.75
1 5 2 1234.36 28.78
-1 -5 -2 1152 28.65
-1 -5 -2 1158.25 28.6
-1 -5 -2 1169.61 28.63
-1 -5 -2 1168.62 28.61
-1 -5 -2 1156.61 28.53
1 5 2 1101.7 28.49
-1 -5 -2 1154.9 27.15
1 5 3 51.84 3.46
-1 -5 -3 52.01 3.39
-1 -5 -3 63.78 3.74
-1 -5 -3 55.6 3.52
-1 -5 -3 52.31 3.4
-1 -5 -3 55.46 3.68
1 5 3 54.14 3.67
-1 -5 -3 54.63 3.44
-1 -5 -3 52.83 3.47
1 5 3 54.06 3.49
1 5 3 53.64 2.67
1 5 4 59.9 3.74
-1 -5 -4 61.83 3.77
-1 -5 -4 59.24 3.77
1 5 4 56.14 3.86
-1 -5 -4 64.64 3.89
-1 -5 -4 64.29 3.89
1 5 4 57.59 3.89
-1 -5 -4 64.23 4.13
-1 -5 -4 62.35 3.8
-1 -5 -4 61.2 3.85
1 5 4 61.09 3.88
1 5 4 56.05 2.83
1 5 5 4.5 1.2
-1 -5 -5 3.89 1.04
-1 -5 -5 3.12 1
1 5 5 4 1.06
-1 -5 -5 3.92 1
-1 -5 -5 2.5 0.76
-1 -5 -5 4.8 1.17
1 5 5 3.68 1.03
-1 -5 -5 2.63 0.87
1 5 5 7.83 1.33
1 5 6 495.69 15.5
1 5 6 482.94 15.26
-1 -5 -6 499.05 15.34
-1 -5 -6 512.68 15.3
1 5 6 467.15 15.23
-1 -5 -6 490.55 15.71
-1 -5 -6 492.78 15.13
-1 -5 -6 490.89 15.38
-1 -5 -6 490.91 15.22
1 5 6 501.85 15.35
-1 -5 -6 492.99 15.1
1 5 6 500.06 15.05
1 5 7 83.99 5.13
1 5 7 82.44 5.19
-1 -5 -7 85.18 5.22
-1 -5 -7 82.28 5.03
1 5 7 74.13 4.95
-1 -5 -7 84.8 5.41
-1 -5 -7 83.07 5.09
-1 -5 -7 81 5.05
-1 -5 -7 79.73 5.07
1 5 7 75.82 4.81
1 5 7 85.13 5
-1 -5 -7 81.44 4.99
1 5 8 1667.24 41.69
1 5 8 1728.93 42.49
1 5 8 1758.67 42.76
-1 -5 -8 1675.2 42.24
-1 -5 -8 1699.35 42.52
-1 -5 -8 1681 42.94
1 5 8 1735.1 42.63
-1 -5 -8 1677.06 42.2
-1 -5 -8 1707.19 42.54
-1 -5 -8 1692.43 42.35
1 5 8 1640.02 42.08
1 5 8 1591.47 39.33
1 5 9 1263.62 33.56
1 5 9 1354.75 34.87
1 5 9 1279.02 34.37
-1 -5 -9 1313.76 34.73
-1 -5 -9 1252.27 34.07
-1 -5 -9 1282.07 35.15
1 5 9 1279.28 34.59
-1 -5 -9 1284.83 34.55
-1 -5 -9 1279.52 34.26
-1 -5 -9 1255.52 34.23
1 5 9 1287.84 33.9
1 5 9 1252.26 30.85
1 5 10 41.4 3.92
1 5 10 38.92 4
1 5 10 41.86 4.22
-1 -5 -10 41.5 4.13
-1 -5 -10 45.93 4.39
-1 -5 -10 44.59 4.56
1 5 10 45.01 4.31
-1 -5 -10 42.99 4.13
-1 -5 -10 39.6 3.95
-1 -5 -10 38.51 4.04
1 5 10 41.01 3.85
1 5 10 36.62 2.71
-1 -5 -11 28 3.77
1 5 11 31.54 3.85
-1 -5 -11 25.47 3.48
-1 -5 -11 29.11 3.63
1 5 11 30.67 3.77
1 5 11 29.47 3.76
-1 -5 -11 29.48 3.7
-1 -5 -11 27.76 3.63
1 5 11 22.88 2.98
-1 -5 -11 28.94 3.7
-1 -5 -11 23.37 3.31
1 5 11 26.33 3.23
-1 -5 -12 4.82 2.04
1 5 12 2.34 1.06
-1 -5 -12 1.58 1.26
1 5 12 4.94 1.78
1 5 12 3.84 1.63
-1 -5 -12 1.17 1.12
-1 -5 -12 2.24 1.24
-1 -5 -12 4.34 1.69
-1 -5 -12 5.16 1.61
-1 -5 -12 3.08 1.34
1 5 12 3.68 1.41
1 5 12 3.12 1.26
-1 -5 -13 83.68 7.12
-1 -5 -13 85.57 7.1
1 5 13 87.44 7.17
1 5 13 77.59 6.92
-1 -5 -13 74.29 6.61
-1 -5 -13 82 7.07
-1 -5 -13 78.47 6.81
-1 -5 -13 81.29 7.27
1 5 13 87.75 7.33
1 5 13 75.54 6.06
-1 -5 -14 39.18 4.94
-1 -5 -14 41.94 5.34
-1 -5 -14 36.86 4.85
-1 -5 -14 36.47 5
-1 -5 -14 36.51 4.77
1 5 14 36.31 4.88
1 5 14 34.37 4.8
1 5 14 39.31 5.28
-1 -5 -14 33.57 5
1 5 15 1.45 1.56
-1 -5 -15 2.83 1.91
1 5 15 1.37 1.88
-1 -5 -15 6.98 2.7
-1 -5 -15 2.21 1.77
1 5 15 7.47 2.67
-1 -5 -15 4.62 2.02
-1 -5 -15 3.81 1.89
-1 -5 -15 8.04 2.75
1 6 -11 7.81 2.59
-1 -6 11 3.77 2.03
-1 -6 10 123.23 8.95
1 6 -10 116.85 8.93
-1 -6 10 118.68 8.51
-1 -6 10 118.42 8.59
-1 -6 10 113.44 8.33
-1 -6 10 118.98 8.65
-1 -6 10 116.41 8.4
1 6 -10 111.67 8.37
1 6 -10 103.61 8.01
1 6 -10 107.2 8.15
1 6 -10 116.29 8.18
-1 -6 10 117.08 9.65
1 6 -10 110.51 8.04
-1 -6 10 128.77 9.94
1 6 -9 6.44 2.21
-1 -6 9 4.1 1.87
-1 -6 9 7.97 2.22
-1 -6 9 7.15 2.1
-1 -6 9 6.08 2.03
-1 -6 9 7.56 2.16
-1 -6 9 5.1 2.41
-1 -6 9 7.64 2.2
1 6 -9 7.17 1.79
1 6 -9 5.13 1.94
1 6 -9 9.14 2.53
1 6 -9 8.08 2.22
-1 -6 9 5.49 2.4
1 6 -9 8.74 2.21
1 6 -9 9.96 2.54
1 6 -8 332.55 14.74
-1 -6 8 331.36 14.46
-1 -6 8 324.84 13.89
-1 -6 8 316.4 13.8
-1 -6 8 335.44 14.07
-1 -6 8 324.27 14.03
1 6 -8 359.21 13.03
-1 -6 8 318.13 14.39
1 6 -8 301.06 13.79
1 6 -8 308.87 13.67
1 6 -8 318.89 13.27
1 6 -8 310.1 13.63
-1 -6 8 355.49 15.79
-1 -6 8 355.6 15.73
1 6 -8 303.16 13.32
1 6 -7 1.62 1.24
-1 -6 7 2.19 1.38
-1 -6 7 1.7 1.16
-1 -6 7 1.18 1.08
-1 -6 7 0.16 0.85
-1 -6 7 0.29 0.94
-1 -6 7 3.06 1.34
1 6 -7 1.25 0.7
-1 -6 7 1.98 1.27
1 6 -7 2.12 1.29
1 6 -7 0.25 0.98
1 6 -7 2.85 1.41
-1 -6 7 2.22 1.16
1 6 -7 -0.25 0.97
1 6 -7 0.31 0.95
1 6 -6 127.21 7.87
-1 -6 6 136.91 7.92
-1 -6 6 144.35 7.71
-1 -6 6 132.33 7.4
-1 -6 6 143.36 7.64
-1 -6 6 128.28 7.39
1 6 -6 143.04 7.21
-1 -6 6 143.25 8.37
1 6 -6 124.12 7.33
1 6 -6 138.72 7.16
-1 -6 6 132.53 8.21
1 6 -6 127.7 7.33
-1 -6 6 141.88 8.33
1 6 -6 126.07 7.07
-1 -6 5 11.35 2.17
1 6 -5 11.74 2.24
-1 -6 5 10.33 1.91
-1 -6 5 11.55 2.03
-1 -6 5 13.86 2.21
-1 -6 5 10.54 1.95
-1 -6 5 11.79 2.16
1 6 -5 15.14 2.13
-1 -6 5 11.69 2.33
1 6 -5 8.18 1.79
1 6 -5 9.47 1.88
-1 -6 5 14.11 2.46
1 6 -5 11.93 1.97
1 6 -5 10.61 1.96
1 6 -4 19.68 2.71
-1 -6 4 19.99 2.59
-1 -6 4 23.19 2.63
-1 -6 4 21.27 2.63
-1 -6 4 19.28 2.47
-1 -6 4 20.12 2.52
-1 -6 4 20.36 2.55
-1 -6 4 21.41 2.94
1 6 -4 18.59 2.54
1 6 -4 20.03 2.4
1 6 -4 18.97 2.43
-1 -6 4 22.21 2.82
-1 -6 4 20.55 2.68
1 6 -4 23.35 2.61
-1 -6 3 56.93 4.42
-1 -6 3 49.97 3.82
-1 -6 3 55.64 3.96
-1 -6 3 53.18 3.87
-1 -6 3 63.25 4.29
-1 -6 3 58.3 4.07
1 6 -3 54.68 4.33
-1 -6 3 49.85 4.05
1 6 -3 52.73 4.05
1 6 -3 49.86 3.82
1 6 -3 56.13 3.66
-1 -6 3 47.83 3.98
-1 -6 3 56.18 4.12
1 6 -3 56.38 3.91
-1 -6 2 52.33 4.06
-1 -6 2 50.5 3.68
-1 -6 2 54.71 3.8
-1 -6 2 60.1 3.99
-1 -6 2 58.97 3.98
-1 -6 2 55.61 3.86
1 6 -2 44.7 2.5
1 6 -2 57.72 4.19
-1 -6 2 58.64 4.14
1 6 -2 52.02 3.93
-1 -6 2 56.29 4.05
1 6 -2 46.11 3.26
1 6 -2 53.56 3.83
-1 -6 2 53.11 3.78
1 6 -2 62.59 3.98
-1 -6 1 64.56 4.33
1 6 -1 64.07 2.52
-1 -6 1 61.99 3.97
-1 -6 1 62.69 3.94
-1 -6 1 64.29 4.01
-1 -6 1 64.32 4.06
1 6 -1 50.12 2.51
-1 -6 1 55.11 2.76
1 6 -1 57.96 3.95
1 6 -1 55.15 3.36
-1 -6 1 62.68 3.99
1 6 -1 63.62 3.93
-1 -6 1 63.64 3.82
-1 -6 0 295.82 8.23
-1 -6 0 311.47 11.02
1 6 0 318.57 8.61
-1 -6 0 317.15 9.35
-1 -6 0 310.9 10.53
-1 -6 0 314.93 10.62
-1 -6 0 307.71 10.53
-1 -6 0 311.01 10.59
-1 -6 0 309.36 10.54
-1 -6 0 311.56 10.29
1 6 0 317.84 10.76
1 6 0 297.53 10.18
-1 -6 0 311.41 9.89
-1 -6 -1 200.15 7.13
-1 -6 -1 199.75 7.79
-1 -6 -1 195.13 7.77
-1 -6 -1 198.41 7.85
-1 -6 -1 194.89 7.8
-1 -6 -1 195.47 6.95
-1 -6 -1 195.35 7.76
-1 -6 -1 198.57 7.4
1 6 1 201.66 7.98
1 6 1 213.78 7.96
-1 -6 -1 186.51 7.85
1 6 1 196.18 6.47
1 6 2 433.52 13.92
-1 -6 -2 466.76 14.1
1 6 2 449.27 12.54
-1 -6 -2 465.21 13.84
-1 -6 -2 465.49 13.88
-1 -6 -2 475.72 13.91
-1 -6 -2 477.75 12.71
-1 -6 -2 468.13 13.87
-1 -6 -2 474.91 13.3
1 6 2 496.46 14.18
-1 -6 -2 461.01 12.61
1 6 3 10.07 1.62
-1 -6 -3 15.09 1.93
-1 -6 -3 11.81 1.75
-1 -6 -3 10.54 1.63
-1 -6 -3 11.8 1.62
-1 -6 -3 9.98 1.66
1 6 3 9.6 1.7
-1 -6 -3 12.08 1.66
-1 -6 -3 13.39 1.87
1 6 3 11.04 1.81
-1 -6 -3 13.25 1.44
-1 -6 -4 144.03 6.62
1 6 4 126.02 6.19
-1 -6 -4 135.71 6.47
-1 -6 -4 142.34 6.55
-1 -6 -4 132.41 6.39
1 6 4 125.97 6.53
-1 -6 -4 134.84 6.76
-1 -6 -4 133.72 6.51
-1 -6 -4 134.45 6.39
1 6 4 128.98 6.61
1 6 4 138.4 4.89
1 6 5 40.84 3.33
-1 -6 -5 38.64 3.26
-1 -6 -5 43.24 3.5
-1 -6 -5 42.2 3.42
-1 -6 -5 41.55 3.4
1 6 5 37.7 3.44
-1 -6 -5 36.82 3.45
-1 -6 -5 36.1 3.16
-1 -6 -5 32.82 3.09
1 6 5 41.19 3.39
1 6 5 34.46 2.17
1 6 6 270.1 10.5
-1 -6 -6 259.79 10.22
-1 -6 -6 280.83 10.59
1 6 6 262.96 10.53
-1 -6 -6 261.83 10.77
-1 -6 -6 275.19 10.53
-1 -6 -6 270.27 10.33
1 6 6 283.18 10.64
-1 -6 -6 274.59 10.45
1 6 6 272.08 10.22
1 6 7 2587.69 63.16
-1 -6 -7 2649.11 62.97
-1 -6 -7 2733.22 63.36
-1 -6 -7 2683.3 63.96
1 6 7 2653.93 63.35
-1 -6 -7 2622.61 63.08
-1 -6 -7 2705.82 63.12
1 6 7 2651.26 63.05
1 6 7 2633.86 62.56
-1 -6 -7 2641.2 62.9
-1 -6 -8 113.29 6.57
1 6 8 115.24 6.42
1 6 8 115.41 6.73
1 6 8 117.59 6.86
-1 -6 -8 118.51 6.75
-1 -6 -8 120.34 6.88
1 6 8 115.94 6.82
-1 -6 -8 114.01 7.01
-1 -6 -8 114.97 6.66
-1 -6 -8 114.06 6.61
-1 -6 -8 120.37 6.89
1 6 8 117.29 6.56
1 6 8 109.55 5.37
1 6 9 4.04 1.38
-1 -6 -9 6.16 1.65
1 6 9 4.6 1.57
1 6 9 5.63 1.75
-1 -6 -9 2.37 1.06
-1 -6 -9 4.72 1.5
1 6 9 4.85 1.46
-1 -6 -9 5.97 1.57
-1 -6 -9 4.74 1.6
-1 -6 -9 5 1.55
1 6 9 4.88 1.43
-1 -6 -9 4.1 1.6
1 6 9 3.57 0.98
1 6 10 259.87 11.13
1 6 10 261.55 11.77
1 6 10 265.48 11.99
-1 -6 -10 254.79 11.56
-1 -6 -10 281.32 12.26
-1 -6 -10 264.14 12.29
1 6 10 275.76 12.14
-1 -6 -10 261.77 11.67
-1 -6 -10 269.64 11.87
-1 -6 -10 251.92 11.74
1 6 10 255.53 11.12
1 6 10 252.89 9.12
1 6 11 73.54 6.19
-1 -6 -11 79.83 6.59
-1 -6 -11 71.91 6.05
-1 -6 -11 75.87 6.11
1 6 11 77.67 6.3
1 6 11 75.42 6.11
-1 -6 -11 69.12 5.87
-1 -6 -11 80.83 6.41
-1 -6 -11 70.34 5.87
1 6 11 70.56 5.47
1 6 11 72.63 5.59
1 6 12 0.52 1.07
-1 -6 -12 0.21 1.02
1 6 12 -0.12 0.94
-1 -6 -12 0.28 0.83
1 6 12 0.37 0.83
-1 -6 -12 0.88 1.26
-1 -6 -12 0.17 0.9
-1 -6 -12 -0.26 0.91
1 6 12 -0.34 0.94
-1 -6 -12 2.11 1.41
1 6 12 1.01 0.99
-1 -6 -13 4.4 1.6
1 6 13 8.61 2.32
1 6 13 3.64 1.66
-1 -6 -13 1.13 0.95
-1 -6 -13 8.16 2.27
-1 -6 -13 6.35 1.9
-1 -6 -13 2.56 1.39
1 6 13 7.29 2.3
-1 -6 -13 5.92 2.09
-1 -6 -14 1.56 1.57
1 6 14 4.22 1.93
1 6 14 2.99 1.79
-1 -6 -14 4.52 1.97
-1 -6 -14 3.9 1.8
-1 -6 -14 2.01 1.48
-1 -6 -14 4.41 2.07
1 6 14 1.91 1.37
-1 -6 -14 4.39 1.85
1 6 15 188.73 12.25
1 6 15 201.03 12.4
-1 -6 -15 182.52 11.69
-1 -6 -15 170.49 11.64
-1 -6 -15 179.74 11.75
-1 -6 -15 191.84 12.03
-1 -6 -15 181.77 12.07
1 6 15 172.88 10.12
1 6 15 178.59 11.99
-1 -6 -15 186.77 12.61
-1 -7 10 17.47 3.79
1 7 -10 14.21 3.22
-1 -7 10 15.26 3.63
-1 -7 10 14.86 3.08
-1 -7 9 127.07 8.98
1 7 -9 118.02 8.82
-1 -7 9 112.39 8.48
-1 -7 9 133.54 9.03
-1 -7 9 120.63 8.63
-1 -7 9 117.72 8.6
1 7 -9 129.33 7.86
-1 -7 9 110.41 8.48
1 7 -9 103.68 8.37
1 7 -9 102.03 8.03
-1 -7 9 129.59 9.95
1 7 -9 104.57 7.71
1 7 -9 115.76 8.46
1 7 -9 117.37 8.1
-1 -7 9 136.56 9.99
1 7 -8 7.78 2.42
-1 -7 8 6.13 2
-1 -7 8 9 2.24
-1 -7 8 5.03 1.56
-1 -7 8 7.58 2.23
-1 -7 8 8.85 2.26
1 7 -8 10.66 2.24
-1 -7 8 10.02 2.64
-1 -7 8 5.85 2.05
1 7 -8 7.47 2.03
1 7 -8 6.51 2.25
1 7 -8 8.72 2.32
-1 -7 8 7.36 2.16
1 7 -8 4.8 1.62
1 7 -8 4.62 1.61
-1 -7 7 5.58 1.94
1 7 -7 5.25 1.97
-1 -7 7 5.06 1.83
-1 -7 7 4.25 1.64
-1 -7 7 4.99 1.59
-1 -7 7 3.61 1.57
-1 -7 7 5.18 1.93
1 7 -7 3.83 1.4
-1 -7 7 5.49 2.04
1 7 -7 3.46 1.81
1 7 -7 3.58 1.76
-1 -7 7 3.29 1.64
1 7 -7 6.86 1.86
1 7 -7 3.87 1.43
1 7 -7 4.86 1.73
-1 -7 6 46.68 4.83
1 7 -6 52.98 5.24
-1 -7 6 58.18 5.02
-1 -7 6 56.57 4.91
-1 -7 6 57.57 4.97
-1 -7 6 53.63 4.86
-1 -7 6 55.97 5.41
1 7 -6 67.51 5.07
1 7 -6 49.63 4.73
1 7 -6 51.51 4.44
1 7 -6 58.01 5.01
-1 -7 6 54.88 5.51
-1 -7 6 60.63 5.56
1 7 -6 57.7 4.84
-1 -7 5 35.53 3.88
1 7 -5 35.73 3.98
-1 -7 5 38.11 3.88
-1 -7 5 38.4 3.84
-1 -7 5 40.02 3.92
-1 -7 5 41.88 4.05
1 7 -5 42.45 3.86
-1 -7 5 41.31 4.53
1 7 -5 37.49 3.92
1 7 -5 33.37 3.58
-1 -7 5 44.13 4.55
1 7 -5 33.63 3.39
-1 -7 5 34.96 3.92
1 7 -5 37.57 3.75
1 7 -4 40.84 4.19
-1 -7 4 40.43 4.04
-1 -7 4 43.94 3.96
-1 -7 4 39.32 3.73
-1 -7 4 38.83 3.74
-1 -7 4 40.06 3.79
-1 -7 4 43.23 3.93
-1 -7 4 37.22 4.17
1 7 -4 41.62 3.97
-1 -7 4 44.73 4.28
1 7 -4 40.34 3.44
1 7 -4 43.63 3.97
1 7 -4 43.43 3.78
-1 -7 4 43.32 4.11
-1 -7 3 250.66 10.89
-1 -7 3 250.21 10.07
-1 -7 3 254.21 10.05
-1 -7 3 235.9 9.79
-1 -7 3 252.71 10.13
-1 -7 3 251.6 10.13
-1 -7 3 249.1 10.49
1 7 -3 219.67 10.21
1 7 -3 235.47 10.06
-1 -7 3 230.36 10.29
1 7 -3 218.31 8.83
1 7 -3 224.32 9.7
1 7 -3 248.14 9.73
-1 -7 3 225.6 10.02
-1 -7 2 67.14 4.97
-1 -7 2 63.65 4.54
-1 -7 2 64.43 4.51
-1 -7 2 65.48 4.58
-1 -7 2 65.94 4.65
-1 -7 2 68.59 4.73
1 7 -2 60.62 4.77
-1 -7 2 65.4 4.78
1 7 -2 56.78 4.5
-1 -7 2 68.72 4.85
1 7 -2 61.23 3.91
1 7 -2 59.43 4.49
1 7 -2 59.24 4.25
-1 -7 2 61.86 4.4
-1 -7 1 194.49 8.77
-1 -7 1 189.09 8.17
-1 -7 1 191.54 8.12
-1 -7 1 187.52 8.16
-1 -7 1 191.1 8.3
1 7 -1 160.5 6.93
1 7 -1 177.59 8.09
-1 -7 1 189.9 8.2
-1 -7 1 187.26 7.86
1 7 -1 179.69 7.67
1 7 0 48.77 2.57
-1 -7 0 46.11 3.85
-1 -7 0 43.62 2.75
-1 -7 0 45.15 3.55
-1 -7 0 45.14 3.58
-1 -7 0 47.46 3.66
-1 -7 0 45.1 3.57
-1 -7 0 45.55 3.61
1 7 0 39.12 3.42
-1 -7 0 45.12 3.53
-1 -7 0 48.74 3.42
1 7 0 42.01 3.37
1 7 1 375.12 12.98
1 7 1 393.77 11.31
-1 -7 -1 427.31 13.99
-1 -7 -1 416.97 12.28
-1 -7 -1 405.4 13.21
-1 -7 -1 401.3 13.19
-1 -7 -1 397.79 13.24
-1 -7 -1 395.59 13.18
-1 -7 -1 399.9 12.38
-1 -7 -1 408.17 13.26
-1 -7 -1 405.14 12.89
1 7 1 374.19 13.12
1 7 1 405.74 12.97
-1 -7 -2 0.67 0.67
1 7 2 2.04 0.86
1 7 2 1.25 0.59
-1 -7 -2 0.27 0.67
-1 -7 -2 1.26 0.81
-1 -7 -2 1.16 0.78
-1 -7 -2 2.54 0.9
-1 -7 -2 1.19 0.64
-1 -7 -2 1.56 0.82
-1 -7 -2 0 0.48
1 7 2 2.1 0.95
-1 -7 -2 1.4 0.7
-1 -7 -3 979.41 26.13
1 7 3 979.35 25.75
1 7 3 960.41 24.5
-1 -7 -3 972.6 25.83
-1 -7 -3 938.76 25.64
-1 -7 -3 938.53 25.74
-1 -7 -3 959.83 25.79
-1 -7 -3 895.56 24.68
1 7 3 993.61 26.17
-1 -7 -3 931 24.08
-1 -7 -4 167.77 7.71
-1 -7 -4 160.18 7.57
-1 -7 -4 160.11 7.55
1 7 4 154.14 7.67
-1 -7 -4 170.81 8.08
-1 -7 -4 160.86 7.64
-1 -7 -4 153.21 7.42
1 7 4 167.63 7.71
1 7 4 162.63 7.43
-1 -7 -4 156.09 7.58
-1 -7 -5 8.63 1.69
-1 -7 -5 6.58 1.44
-1 -7 -5 8.49 1.65
1 7 5 6.82 1.56
-1 -7 -5 11.64 2.01
-1 -7 -5 9.75 1.84
-1 -7 -5 8.15 1.74
1 7 5 7.73 1.65
-1 -7 -5 8.97 1.72
1 7 5 8.58 1.69
-1 -7 -6 90.99 5.74
-1 -7 -6 87.18 5.55
-1 -7 -6 88.06 5.61
-1 -7 -6 89.27 5.98
1 7 6 85.78 5.72
-1 -7 -6 87.87 5.64
-1 -7 -6 82.41 5.4
1 7 6 79.37 5.5
-1 -7 -6 86.33 5.55
1 7 6 83.03 5.34
1 7 7 26.13 3.16
-1 -7 -7 26.4 3.09
-1 -7 -7 28.41 3.21
-1 -7 -7 22.92 3.06
1 7 7 24.29 3.03
-1 -7 -7 25.07 3.1
-1 -7 -7 28.14 3.18
1 7 7 27.47 3.16
1 7 7 19.11 2.63
-1 -7 -7 28.87 3.24
-1 -7 -8 590.91 19.59
1 7 8 591.86 19.12
1 7 8 600.72 19.87
-1 -7 -8 608.45 19.78
-1 -7 -8 614.28 19.94
1 7 8 598.93 19.87
-1 -7 -8 620.7 20.49
-1 -7 -8 612.49 19.85
-1 -7 -8 618.6 19.8
1 7 8 626.23 19.6
1 7 8 608.48 17.66
1 7 9 999.1 28.39
-1 -7 -9 1023.95 29.25
1 7 9 1010.69 29.47
-1 -7 -9 998.35 29.36
-1 -7 -9 983.67 29.06
-1 -7 -9 1014.46 30.1
1 7 9 1009.25 29.59
-1 -7 -9 1023.15 29.42
-1 -7 -9 980.68 28.99
1 7 9 1008.18 28.73
1 7 9 997.89 26.35
-1 -7 -10 371.89 15.14
1 7 10 373.73 14.39
1 7 10 383.36 15.42
1 7 10 381.69 15.55
-1 -7 -10 388.51 15.34
-1 -7 -10 407.58 15.8
1 7 10 381.6 15.42
-1 -7 -10 397.57 16.2
-1 -7 -10 403.84 15.67
-1 -7 -10 400.1 15.86
-1 -7 -10 380.29 15.19
1 7 10 396.76 14.86
1 7 10 363.91 12.58
1 7 11 300.09 12.91
-1 -7 -11 328.54 14.24
1 7 11 325.32 14.21
1 7 11 321.74 14.31
-1 -7 -11 317.96 13.97
-1 -7 -11 323.58 14.34
1 7 11 318.5 14.26
-1 -7 -11 317.75 14.71
-1 -7 -11 323.62 14.34
-1 -7 -11 323.43 14.14
-1 -7 -11 325.24 14.09
1 7 11 317.16 13.27
1 7 11 290.88 10.86
-1 -7 -12 109.83 8.4
1 7 12 104.45 7.93
-1 -7 -12 114.6 8.12
-1 -7 -12 111.18 8.17
1 7 12 114.93 8.22
1 7 12 110.88 8.24
-1 -7 -12 107.34 7.89
-1 -7 -12 114.24 8.32
-1 -7 -12 113.32 8.19
1 7 12 111.54 7.41
1 7 12 99.2 6.99
-1 -7 -12 118.5 8.3
1 7 13 3.3 1.78
-1 -7 -13 4.26 1.92
-1 -7 -13 3.25 1.77
1 7 13 3.73 1.73
1 7 13 1.05 1.2
-1 -7 -13 4.84 1.93
-1 -7 -13 2 1.65
-1 -7 -13 7.87 2.51
-1 -7 -13 2.37 1.47
-1 -7 -13 1.42 1.47
-1 -7 -14 56.52 6.09
-1 -7 -14 59.53 6.43
1 7 14 51.34 6.19
1 7 14 58.67 6.51
-1 -7 -14 52.7 5.94
-1 -7 -14 54.04 6.22
-1 -7 -14 58.87 6.47
-1 -7 -14 56.22 6.13
1 7 14 59.13 5.63
1 7 14 63.73 6.71
-1 -7 -14 67.94 7.1
-1 -7 -15 12.67 3.47
1 7 15 18.87 3.85
1 7 15 11.99 3.29
-1 -7 -15 13.95 3.34
1 7 15 14.02 3.5
-1 -7 -15 10.96 2.99
-1 -7 -15 16.79 3.82
-1 -7 -15 7.27 2.32
-1 -7 -15 10.73 2.92
1 7 15 9.26 2.39
-1 -7 -15 12.6 3.18
-1 -8 9 37.06 5.18
1 8 -9 39.68 4.47
-1 -8 9 37.6 5.26
-1 -8 9 40.28 5.69
1 8 -9 38.15 4.66
1 8 -8 5.8 2.03
-1 -8 8 5.94 2.11
-1 -8 8 2.86 1.55
-1 -8 8 7.82 2.27
-1 -8 8 4.82 1.77
-1 -8 8 7.54 2.34
-1 -8 8 4.45 1.93
-1 -8 8 7.46 2.53
1 8 -8 5.37 1.74
1 8 -8 3.76 1.72
1 8 -8 4.17 2
1 8 -8 4.41 1.83
-1 -8 8 4.42 2.03
1 8 -8 6.97 2.21
1 8 -7 108.04 8.28
-1 -8 7 114.64 8.38
-1 -8 7 116.53 8.06
-1 -8 7 131.05 8.45
-1 -8 7 128.06 8.39
-1 -8 7 125.26 8.38
-1 -8 7 115.11 8.66
1 8 -7 133.13 7.89
1 8 -7 95.16 7.65
1 8 -7 114.25 7.98
-1 -8 7 135.4 9.57
1 8 -7 110.21 7.83
-1 -8 7 127.41 9.1
1 8 -7 121.21 7.87
1 8 -6 5.29 1.91
-1 -8 6 3.07 1.29
-1 -8 6 6.73 1.96
-1 -8 6 4.31 1.59
-1 -8 6 7.69 1.96
-1 -8 6 2.92 1.43
-1 -8 6 2.15 1.56
-1 -8 6 4.74 1.76
1 8 -6 5.3 1.67
1 8 -6 2.22 1.1
1 8 -6 2.62 1.57
-1 -8 6 3.42 1.53
1 8 -6 3.92 1.31
1 8 -6 4.48 1.51
-1 -8 5 30.97 3.82
1 8 -5 31.47 4.07
-1 -8 5 44.05 4.38
-1 -8 5 39.39 4.18
-1 -8 5 33.29 3.83
-1 -8 5 35.65 4
-1 -8 5 35.97 4.58
1 8 -5 42.03 4.12
1 8 -5 39.89 4.23
-1 -8 5 41.84 4.74
1 8 -5 33.89 3.46
1 8 -5 32.62 3.79
1 8 -5 35 3.8
-1 -8 5 37.37 4.29
1 8 -4 90.24 6.71
-1 -8 4 91.79 6.61
-1 -8 4 101.8 6.67
-1 -8 4 98.94 6.52
-1 -8 4 96.04 6.48
-1 -8 4 94.63 6.45
-1 -8 4 91.86 6.35
1 8 -4 114.24 6.75
-1 -8 4 93.31 7.14
1 8 -4 84.75 6.25
1 8 -4 92.99 6.37
1 8 -4 90.74 5.53
-1 -8 4 93.86 6.8
1 8 -4 93.13 6.01
-1 -8 4 99.52 6.77
-1 -8 3 533.57 18.85
-1 -8 3 544.97 17.9
-1 -8 3 526.67 17.64
-1 -8 3 532.92 17.71
-1 -8 3 547.66 18.03
-1 -8 3 530.2 17.72
1 8 -3 523.3 18.36
-1 -8 3 549.7 18.38
1 8 -3 506.67 17.82
1 8 -3 493.55 15.95
-1 -8 3 537.23 18.39
1 8 -3 522.71 17.68
-1 -8 3 536.76 18.01
1 8 -3 512.02 16.95
-1 -8 2 72.15 5.61
-1 -8 2 68.07 5.03
-1 -8 2 67.73 5.03
-1 -8 2 72.62 5.21
-1 -8 2 70.35 5.16
-1 -8 2 72.72 5.24
1 8 -2 66.47 5.26
-1 -8 2 76.44 5.5
1 8 -2 67.04 5.22
1 8 -2 64.15 4.22
1 8 -2 68.54 5.11
-1 -8 2 72.83 5.37
1 8 -2 70.31 4.85
-1 -8 2 78.51 5.28
-1 -8 1 24.5 3.15
-1 -8 1 26.45 3.01
-1 -8 1 24.01 2.88
-1 -8 1 24.71 2.91
-1 -8 1 23.65 2.88
1 8 -1 25.39 2.92
1 8 -1 20.76 2.26
-1 -8 1 22.96 2.87
-1 -8 1 31.63 3.15
1 8 -1 25.07 2.77
-1 -8 0 1.28 1.03
-1 -8 0 3.07 1.15
-1 -8 0 1.33 0.82
-1 -8 0 2.01 0.97
-1 -8 0 0.2 0.57
-1 -8 0 1.36 0.67
1 8 0 0.93 0.86
-1 -8 0 1.76 0.94
1 8 0 1.28 0.79
1 8 0 1.61 0.71
-1 -8 -1 1.24 0.94
1 8 1 3.15 0.79
-1 -8 -1 2.67 0.83
-1 -8 -1 3.82 1.2
-1 -8 -1 2.84 1.03
-1 -8 -1 3.86 1.25
-1 -8 -1 2.6 1.09
-1 -8 -1 3.11 1.02
-1 -8 -1 4.37 1.43
1 8 1 3.14 1.26
-1 -8 -1 3.13 1.02
1 8 1 5.07 1.49
-1 -8 -2 209.05 9.54
1 8 2 223.67 7.92
1 8 2 198.77 9.13
-1 -8 -2 212.88 8.74
-1 -8 -2 212.04 9.22
-1 -8 -2 202.12 9.1
-1 -8 -2 198.66 9.09
-1 -8 -2 210.9 9.25
-1 -8 -2 212.87 8.28
-1 -8 -2 213.85 9.3
1 8 2 221.2 9.53
-1 -8 -2 207.97 8.77
-1 -8 -2 213.15 8.3
1 8 3 93.36 5.76
1 8 3 103.54 5.1
-1 -8 -3 98.54 6.16
-1 -8 -3 97.43 5.94
-1 -8 -3 96.3 5.91
-1 -8 -3 93.76 5.89
-1 -8 -3 96.29 5.12
-1 -8 -3 103.02 6.1
-1 -8 -3 101.4 5.67
-1 -8 -3 96.94 5.08
1 8 4 56.71 4.44
-1 -8 -4 56.74 4.58
1 8 4 54.33 4.07
-1 -8 -4 59.36 4.57
-1 -8 -4 58.42 4.58
-1 -8 -4 61.87 4.65
-1 -8 -4 63 4.66
1 8 4 58.53 4.61
-1 -8 -4 58.28 3.79
-1 -8 -5 288.11 11.6
-1 -8 -5 269.52 11.29
-1 -8 -5 274.57 11.34
1 8 5 253.32 11.3
-1 -8 -5 288.12 11.99
-1 -8 -5 283.42 11.58
-1 -8 -5 271.63 11.3
1 8 5 303.54 11.82
1 8 5 286.04 10.48
1 8 5 282.17 11.2
-1 -8 -5 285.75 11.65
-1 -8 -6 230.74 10.29
-1 -8 -6 230.03 10.16
-1 -8 -6 210.25 9.86
-1 -8 -6 219.44 10.57
1 8 6 214.75 10.25
-1 -8 -6 226.28 10.08
-1 -8 -6 227.12 10.21
1 8 6 226.87 10.14
-1 -8 -6 221.18 10.2
1 8 6 221.5 9.74
-1 -8 -7 37.8 3.92
-1 -8 -7 37.59 3.91
-1 -8 -7 37.6 3.82
-1 -8 -7 33.83 3.97
1 8 7 34.84 3.86
-1 -8 -7 41.09 4.09
-1 -8 -7 39.87 3.97
1 8 7 41.2 3.99
1 8 7 42.96 3.89
-1 -8 -7 36.71 3.94
-1 -8 -8 99.1 6.7
1 8 8 94.01 6.18
-1 -8 -8 81.64 6.18
-1 -8 -8 91.82 6.45
-1 -8 -8 91.78 6.45
1 8 8 95.58 6.62
-1 -8 -8 92.14 6.72
-1 -8 -8 89.89 6.41
-1 -8 -8 93.3 6.41
1 8 8 96.18 6.39
1 8 8 92.04 5.44
-1 -8 -9 64.83 5.54
1 8 9 65.19 5.17
1 8 9 60.42 5.35
-1 -8 -9 63.46 5.48
-1 -8 -9 63.08 5.5
1 8 9 63.06 5.57
-1 -8 -9 60.08 5.62
-1 -8 -9 56.57 5.16
-1 -8 -9 62.36 5.43
1 8 9 62.87 5.19
1 8 9 54.91 4.24
1 8 10 185.11 9.34
-1 -8 -10 166.68 9.62
1 8 10 168.41 9.78
-1 -8 -10 179.91 9.99
-1 -8 -10 176.1 9.99
-1 -8 -10 166.19 10.08
1 8 10 178.14 10.09
-1 -8 -10 172.17 9.87
-1 -8 -10 179.66 9.94
1 8 10 174.99 9.4
1 8 10 169.27 7.95
-1 -8 -11 176.51 10.2
1 8 11 167.33 9.21
1 8 11 177.82 10.41
-1 -8 -11 174.48 10.18
-1 -8 -11 166.61 10.11
1 8 11 175.71 10.39
-1 -8 -11 178.93 10.8
-1 -8 -11 169.89 10.15
-1 -8 -11 177.67 10.26
1 8 11 164.81 9.35
1 8 11 173.68 8.06
-1 -8 -12 137.84 9.74
1 8 12 139.18 9.47
-1 -8 -12 132.81 9.19
-1 -8 -12 126.78 8.91
1 8 12 124.6 8.92
-1 -8 -12 131.36 9.11
-1 -8 -12 144.42 9.41
1 8 12 132.76 8.39
-1 -8 -12 132.8 9.19
1 8 12 139.82 8.41
1 8 13 395.33 17.86
-1 -8 -13 404.6 18.61
-1 -8 -13 398.4 17.9
-1 -8 -13 395.4 17.62
1 8 13 398.61 17.85
-1 -8 -13 390.1 17.61
-1 -8 -13 412.01 17.9
1 8 13 380.31 15.96
-1 -8 -13 402.79 17.82
1 8 13 356.78 15.64
1 8 14 18.78 3.84
-1 -8 -14 25.05 4.48
-1 -8 -14 15.68 3.47
1 8 14 20 3.85
1 8 14 20.3 3.79
-1 -8 -14 17.42 3.6
-1 -8 -14 25.07 4.14
-1 -8 -14 19.69 3.79
-1 -8 -14 13.25 3.22
-1 -8 -14 15.93 3.4
1 8 14 22.27 3.51
1 8 15 63.02 7.07
1 8 15 61.85 6.95
-1 -8 -15 53.47 6.31
-1 -8 -15 54.87 6.58
-1 -8 -15 58.78 6.83
-1 -8 -15 55.34 6.53
-1 -8 -15 55.19 6.46
-1 -8 -15 37.97 5.4
1 8 15 56.12 5.69
-1 -8 -15 55.25 6.78
1 8 15 53.58 6.54
1 9 -8 45.69 4.82
-1 -9 8 31.61 4.9
-1 -9 8 31.46 4.86
-1 -9 8 39.59 5.5
1 9 -8 35.39 4.57
1 9 -7 17.74 3.67
-1 -9 7 22.5 3.98
-1 -9 7 20.88 3.49
-1 -9 7 21 3.62
-1 -9 7 17.86 3.26
-1 -9 7 16.65 3.3
-1 -9 7 27.13 4.37
1 9 -7 25.19 3.44
-1 -9 7 20.66 3.83
1 9 -7 15.24 3.13
1 9 -7 16.63 3.47
1 9 -7 20.39 3.56
-1 -9 7 20.02 3.85
1 9 -7 18.74 3.05
1 9 -6 93.88 7.86
-1 -9 6 108.12 8.11
-1 -9 6 109.89 7.94
-1 -9 6 111.16 7.89
-1 -9 6 104.9 7.71
-1 -9 6 96.93 7.5
-1 -9 6 95.21 8.21
1 9 -6 118.25 7.67
1 9 -6 100.52 7.62
-1 -9 6 94.48 8.03
1 9 -6 89.36 7.15
-1 -9 6 115.83 8.59
1 9 -6 105 7.22
1 9 -5 57.7 5.91
-1 -9 5 66.22 6.19
-1 -9 5 66.11 5.81
-1 -9 5 64.28 5.67
-1 -9 5 59.08 5.52
-1 -9 5 67.46 5.92
1 9 -5 67.63 5.63
-1 -9 5 66.15 6.51
1 9 -5 56.39 5.5
1 9 -5 56.35 5.38
-1 -9 5 57.38 5.88
-1 -9 5 60.97 5.91
1 9 -5 60.59 5.26
-1 -9 4 117.14 8.07
1 9 -4 97.05 7.47
-1 -9 4 110.06 7.32
-1 -9 4 113.49 7.45
-1 -9 4 111.79 7.4
-1 -9 4 101.34 7.14
-1 -9 4 110.03 7.43
1 9 -4 123.57 7.39
-1 -9 4 117.17 8.46
1 9 -4 102.48 7.29
1 9 -4 105.78 7.17
-1 -9 4 109.05 7.86
1 9 -4 97.09 6.6
-1 -9 4 114.5 7.77
-1 -9 3 36.14 4.4
1 9 -3 39.85 4.48
-1 -9 3 36.37 4.19
-1 -9 3 42.14 4.3
-1 -9 3 35.53 3.96
-1 -9 3 37.27 4.05
-1 -9 3 43.69 4.36
-1 -9 3 37.82 4.08
1 9 -3 36.78 3.89
1 9 -3 38.86 4.24
1 9 -3 38.91 4.16
-1 -9 3 38.36 4.36
1 9 -3 42.35 4.02
-1 -9 3 39.43 4.21
-1 -9 2 0.38 0.89
1 9 -2 0.06 0.88
-1 -9 2 0.56 0.97
-1 -9 2 0.76 1
-1 -9 2 0.38 0.98
-1 -9 2 0.62 1.06
-1 -9 2 0.69 0.97
-1 -9 2 1.34 0.92
-1 -9 2 -0.94 1.1
1 9 -2 -0.71 1.12
1 9 -2 1.85 1.19
-1 -9 2 -0.5 1.08
1 9 -2 1.09 1.11
-1 -9 1 54.2 5.08
-1 -9 1 54.87 4.68
-1 -9 1 55.54 4.69
-1 -9 1 53.13 4.72
1 9 -1 48.17 4.46
1 9 -1 57.25 4.45
-1 -9 1 59.04 4.69
-1 -9 1 51.69 4.56
-1 -9 1 57.81 4.85
-1 -9 0 165.22 9.06
-1 -9 0 173.51 8.6
-1 -9 0 169.26 8.56
-1 -9 0 173.23 8.66
-1 -9 0 175.82 8.68
-1 -9 0 159.75 8.36
1 9 0 160.79 8.41
1 9 0 151.4 7.72
-1 -9 0 165.8 8.1
-1 -9 -1 406.36 15.56
-1 -9 -1 417.44 14.92
-1 -9 -1 427.14 15.04
-1 -9 -1 422.05 15.02
-1 -9 -1 424.97 15.04
-1 -9 -1 420.31 14.16
-1 -9 -1 414.18 14.89
-1 -9 -1 416.49 14.78
1 9 1 405.45 14.9
1 9 1 390.73 14.03
1 9 2 84.56 4.6
-1 -9 -2 74.85 5.74
-1 -9 -2 78.63 5.54
-1 -9 -2 76.04 5.53
-1 -9 -2 81.87 5.69
-1 -9 -2 80.96 5.73
-1 -9 -2 81.26 5.06
-1 -9 -2 76.92 5.55
-1 -9 -2 84.92 5.6
1 9 2 78.18 5.63
1 9 2 77.96 5.22
-1 -9 -3 26.69 3.38
1 9 3 36.18 3.06
1 9 3 30.38 3.38
-1 -9 -3 33.94 3.63
-1 -9 -3 37.34 3.81
-1 -9 -3 31.95 3.53
-1 -9 -3 32.81 3.57
-1 -9 -3 31.85 3.07
-1 -9 -3 31.99 3.52
-1 -9 -3 31.03 3.26
1 9 3 35.73 3.72
-1 -9 -3 32.35 3.09
1 9 4 144.85 7.82
-1 -9 -4 154.5 8.5
1 9 4 159.88 7.32
-1 -9 -4 148.95 8.09
-1 -9 -4 156.11 8.25
-1 -9 -4 150.07 8.15
-1 -9 -4 139.89 6.91
-1 -9 -4 141.83 7.88
-1 -9 -4 152.48 7.72
-1 -9 -4 145.7 6.92
-1 -9 -5 146.39 8.15
-1 -9 -5 140.83 8.08
-1 -9 -5 144.01 8.09
-1 -9 -5 150.44 8.22
-1 -9 -5 148.13 6.99
-1 -9 -5 151.85 8.51
1 9 5 139.48 7.7
1 9 5 169.02 7.68
-1 -9 -6 0.32 0.88
-1 -9 -6 0.39 0.75
-1 -9 -6 0.14 0.81
-1 -9 -6 0.7 0.88
1 9 6 2.14 1.16
-1 -9 -6 0.15 0.76
-1 -9 -6 4.04 1.45
1 9 6 1.3 1.04
-1 -9 -6 1.85 1.1
1 9 6 1.7 1.15
1 9 6 0.47 0.77
-1 -9 -7 36.93 4.1
-1 -9 -7 34.22 3.93
-1 -9 -7 31.36 3.79
1 9 7 29.9 3.82
-1 -9 -7 33.56 4.06
-1 -9 -7 38.68 4.22
-1 -9 -7 29.27 3.59
1 9 7 36.34 4
-1 -9 -7 31.93 3.84
1 9 7 37.05 3.87
1 9 7 35.42 3.68
1 9 8 223.85 10.82
-1 -9 -8 251.29 12.03
1 9 8 263.62 11.18
-1 -9 -8 261.2 12.16
-1 -9 -8 258.88 12.03
-1 -9 -8 246.51 11.75
-1 -9 -8 258.91 12.6
1 9 8 223.77 11.58
-1 -9 -8 251.61 11.97
-1 -9 -8 239.57 11.58
1 9 8 245.39 11.53
1 9 8 247.74 10.23
1 9 9 95.36 6.64
1 9 9 99.26 6.65
-1 -9 -9 96.33 7.17
-1 -9 -9 108.92 7.58
-1 -9 -9 100.67 7.25
-1 -9 -9 89.78 6.82
-1 -9 -9 103.09 7.76
1 9 9 86.92 6.96
-1 -9 -9 101.34 7.29
-1 -9 -9 97.29 7.12
1 9 9 102.95 7.08
1 9 9 103.15 6.13
1 9 10 264.77 11.97
-1 -9 -10 256.35 12.82
1 9 10 252.36 11.71
-1 -9 -10 262.62 12.91
-1 -9 -10 264.65 12.78
-1 -9 -10 252.24 12.63
-1 -9 -10 267.58 13.56
1 9 10 239.11 12.54
-1 -9 -10 261.4 12.81
-1 -9 -10 247.51 12.4
1 9 10 260.11 12.27
1 9 10 260.8 10.7
1 9 11 2.58 1.27
-1 -9 -11 6.09 2.31
1 9 11 8.2 2.1
1 9 11 5.56 1.89
-1 -9 -11 4.2 1.61
1 9 11 4.72 2.01
-1 -9 -11 7.49 2.2
-1 -9 -11 8.74 2.39
-1 -9 -11 9 2.41
-1 -9 -11 9.61 2.5
1 9 11 5.54 1.72
1 9 11 7.92 1.8
-1 -9 -12 656.64 25.18
1 9 12 675.59 24.75
-1 -9 -12 655.36 24.14
-1 -9 -12 682.56 24.71
1 9 12 668.75 24.57
-1 -9 -12 656.51 24.12
-1 -9 -12 663.77 24.35
1 9 12 651.7 22.86
-1 -9 -12 640.11 24.13
1 9 12 647.92 22.65
1 9 13 37.48 5.2
-1 -9 -13 36.1 5.23
-1 -9 -13 25.62 4.39
-1 -9 -13 31.81 4.82
1 9 13 28.99 4.51
-1 -9 -13 24.92 4.25
-1 -9 -13 26.14 4.29
1 9 13 29.43 4.04
1 9 13 33.37 4.31
-1 -9 -13 34.06 4.78
1 9 14 20.38 4.01
-1 -9 -14 18.31 3.97
-1 -9 -14 24.02 4.33
-1 -9 -14 19.59 3.94
-1 -9 -14 19.98 3.86
1 9 14 19.27 3.41
-1 -9 -14 16.21 3.5
1 9 14 25.45 4.35
-1 -9 -14 20.73 4.2
1 10 -6 55.22 6.32
-1 -10 6 64.22 6.63
-1 -10 6 74.9 6.75
-1 -10 6 68.84 6.5
-1 -10 6 73.74 6.7
-1 -10 6 68.9 6.62
-1 -10 6 62.48 7.03
1 10 -6 78.87 6.61
1 10 -6 60.56 6.24
1 10 -6 63.85 6.2
-1 -10 6 69.1 7.17
1 10 -6 60.48 5.85
-1 -10 5 40.09 5.11
1 10 -5 40.36 5.21
-1 -10 5 32.88 4.4
-1 -10 5 42.93 5.06
-1 -10 5 53.58 5.55
-1 -10 5 33.74 4.42
1 10 -5 44.69 4.79
-1 -10 5 37.11 5.25
1 10 -5 36.3 4.72
1 10 -5 33.93 4.4
-1 -10 5 36.54 5.03
1 10 -5 41.08 4.47
1 10 -4 203.85 11.72
-1 -10 4 216.57 11.82
-1 -10 4 201.26 11.06
-1 -10 4 228.76 11.61
-1 -10 4 226.66 11.59
-1 -10 4 204.51 11.16
-1 -10 4 211.93 11.38
-1 -10 4 232.85 12.93
1 10 -4 222.13 11.12
1 10 -4 202.5 11.24
-1 -10 4 224.19 12.34
1 10 -4 188.77 10.74
1 10 -4 205.35 10.48
-1 -10 4 222.59 11.77
-1 -10 3 5.97 2.11
-1 -10 3 6.17 2.18
1 10 -3 8.45 2.47
-1 -10 3 6.05 1.84
-1 -10 3 6.53 1.9
-1 -10 3 8 2.05
-1 -10 3 6.51 1.85
-1 -10 3 9.68 2.28
1 10 -3 6.25 1.89
-1 -10 3 6.17 1.98
1 10 -3 6.71 1.89
-1 -10 3 7.39 2.18
1 10 -3 7.35 1.98
1 10 -3 8.7 1.81
-1 -10 2 61.32 5.99
1 10 -2 58.6 5.68
-1 -10 2 64.32 5.87
-1 -10 2 65.56 5.5
-1 -10 2 76.16 5.92
-1 -10 2 66.81 5.58
-1 -10 2 65.11 5.62
-1 -10 2 70 5.8
1 10 -2 66.42 5.35
1 10 -2 60.02 5.5
-1 -10 2 70.43 6.04
1 10 -2 59.51 5.36
1 10 -2 55.28 4.94
-1 -10 2 65.01 5.59
-1 -10 1 22.71 3.56
1 10 -1 26.9 3.83
-1 -10 1 29.44 3.8
-1 -10 1 27.31 3.58
-1 -10 1 27.56 3.49
-1 -10 1 24.46 3.42
-1 -10 1 22.07 3.22
-1 -10 1 20.65 3.13
-1 -10 1 22.34 3.07
1 10 -1 21.23 3.35
1 10 -1 23.01 3.34
-1 -10 1 24.85 3.44
1 10 -1 23.12 3.03
-1 -10 0 211 11.16
-1 -10 0 221.58 10.55
-1 -10 0 208.35 10.3
-1 -10 0 224.78 10.6
-1 -10 0 211.09 10.26
-1 -10 0 205.47 10.35
1 10 0 217.73 10.55
-1 -10 0 197.97 9.74
1 10 0 209.27 9.67
-1 -10 -1 244.11 12.13
-1 -10 -1 264.8 11.77
-1 -10 -1 271.54 11.82
-1 -10 -1 245.42 11.43
-1 -10 -1 263.2 11.77
-1 -10 -1 279.72 12
1 10 1 263.03 11.75
-1 -10 -1 253.25 11.42
-1 -10 -1 251.42 10.78
1 10 1 241.4 10.64
-1 -10 -2 240.55 11.64
-1 -10 -2 215.27 10.48
-1 -10 -2 235.36 10.96
-1 -10 -2 224.46 10.73
-1 -10 -2 234.88 10.98
-1 -10 -2 226.85 9.81
-1 -10 -2 231.41 10.83
-1 -10 -2 226.26 10.49
1 10 2 212.06 10.53
1 10 2 210.53 9.74
1 10 3 102.59 5.57
1 10 3 86.9 6.12
-1 -10 -3 85.29 6.61
-1 -10 -3 93.62 6.42
-1 -10 -3 91.35 6.39
-1 -10 -3 89.86 6.35
-1 -10 -3 87.17 6.3
-1 -10 -3 86.62 5.54
-1 -10 -3 87.29 6.26
-1 -10 -3 84.43 5.96
1 10 3 84.57 6.2
1 10 3 78.15 5.66
1 10 4 232.89 10.88
-1 -10 -4 248.96 11.99
1 10 4 265.08 10.24
-1 -10 -4 250.95 11.5
-1 -10 -4 250.84 11.52
-1 -10 -4 246.61 11.49
-1 -10 -4 256.22 11.65
-1 -10 -4 237.26 10.05
-1 -10 -4 249.56 11.47
1 10 4 231.46 11.19
-1 -10 -4 247.16 10.95
-1 -10 -4 245.68 10.11
-1 -10 -5 25.94 3.54
1 10 5 24.47 3.32
1 10 5 29.72 3.24
-1 -10 -5 20.96 3.02
-1 -10 -5 25.43 3.45
-1 -10 -5 25.45 3.38
-1 -10 -5 21.7 2.77
-1 -10 -5 26.56 3.44
-1 -10 -5 23.57 3.11
-1 -10 -5 26.46 2.93
-1 -10 -6 175.45 9.6
-1 -10 -6 171.66 9.53
-1 -10 -6 189.53 9.9
1 10 6 177.24 8.97
1 10 6 179.11 9.39
-1 -10 -6 181.54 10.14
-1 -10 -6 183.85 9.86
-1 -10 -7 13.16 2.56
-1 -10 -7 14.73 2.78
-1 -10 -7 12.09 2.43
-1 -10 -7 18.08 3.22
1 10 7 14.52 2.72
-1 -10 -7 23.25 3.38
-1 -10 -7 18.87 3.12
1 10 7 17.34 2.65
-1 -10 -7 17.5 3.03
1 10 7 12.6 2.32
1 10 7 16.98 2.76
-1 -10 -8 106.23 7.82
1 10 8 107.91 7.17
1 10 8 112.77 7.16
-1 -10 -8 120.23 8.11
-1 -10 -8 109.25 7.71
-1 -10 -8 102.36 7.5
-1 -10 -8 115.94 8.31
1 10 8 110 7.94
-1 -10 -8 107.75 7.76
-1 -10 -8 106.73 7.64
1 10 8 112.35 7.64
1 10 8 113.39 6.8
-1 -10 -9 134.45 9.04
1 10 9 120.18 7.79
1 10 9 137.59 8.15
-1 -10 -9 135.59 8.94
-1 -10 -9 126.96 8.55
-1 -10 -9 122.15 8.49
1 10 9 126.3 8.77
-1 -10 -9 131 9.25
-1 -10 -9 119.46 8.42
-1 -10 -9 115.1 8.16
1 10 9 129.42 8.44
1 10 9 141.1 7.67
1 10 10 14.28 2.88
1 10 10 14.71 2.74
-1 -10 -10 10.15 2.57
-1 -10 -10 16.24 3.09
-1 -10 -10 14.24 3.02
1 10 10 12.71 2.99
-1 -10 -10 20.89 3.75
-1 -10 -10 17.65 3.11
-1 -10 -10 15.83 3
-1 -10 -10 15.04 2.98
1 10 10 15.09 2.98
1 10 10 16.73 2.48
1 10 11 192.49 10.38
1 10 11 193.61 10.67
-1 -10 -11 170.2 11.02
-1 -10 -11 197.14 11.71
-1 -10 -11 183.32 11.22
-1 -10 -11 182.12 11.11
-1 -10 -11 194.33 11.99
1 10 11 182.19 11.42
-1 -10 -11 184.05 11.27
-1 -10 -11 196.58 11.46
1 10 11 191.3 10.84
1 10 11 190.57 9.37
-1 -10 -12 136.39 9.89
1 10 12 154.02 9.42
-1 -10 -12 153.93 10.52
-1 -10 -12 132.11 9.69
-1 -10 -12 140.05 9.95
-1 -10 -12 133.52 10.21
1 10 12 136.75 9.93
-1 -10 -12 160.08 10.55
-1 -10 -12 140.99 9.92
1 10 12 142.21 9.28
1 10 12 125.44 7.58
-1 -10 -13 29.39 4.91
1 10 13 28.53 4.77
-1 -10 -13 40.36 5.66
-1 -10 -13 37.68 5.28
-1 -10 -13 34.91 5.04
-1 -10 -13 33.62 4.98
-1 -10 -13 37.28 5.19
1 10 13 30.13 4.29
1 10 13 37.67 4.62
-1 -10 -13 34.89 5.09
1 10 14 25.41 4.51
-1 -10 -14 27.13 4.67
1 10 14 35.97 5.35
-1 -11 5 84 8.32
-1 -11 5 90.63 8.27
1 11 -5 94.73 7.09
-1 -11 4 13.7 3.16
1 11 -4 10.88 2.92
-1 -11 4 13.17 2.73
-1 -11 4 11.44 2.7
-1 -11 4 12.76 2.96
-1 -11 4 12.78 2.91
-1 -11 4 15 3.08
-1 -11 4 13.19 3.39
1 11 -4 9.35 2.55
1 11 -4 9.93 2.58
1 11 -4 8.63 2.53
-1 -11 4 14.26 3.23
1 11 -4 15.09 2.87
-1 -11 3 18.84 3.73
1 11 -3 8.45 2.52
-1 -11 3 8.73 2.52
-1 -11 3 15.51 3.19
-1 -11 3 11.67 2.62
-1 -11 3 14.24 2.82
-1 -11 3 13.75 2.83
-1 -11 3 10.56 2.54
1 11 -3 24.51 3.64
-1 -11 3 9.38 2.52
1 11 -3 14.04 3.01
-1 -11 3 11.92 2.99
1 11 -3 16.66 3.25
1 11 -3 19.72 3.03
-1 -11 2 18.1 3.5
1 11 -2 22.04 3.74
-1 -11 2 22.54 3.8
-1 -11 2 24.33 3.6
-1 -11 2 26.12 3.69
-1 -11 2 23.28 3.47
-1 -11 2 23.92 3.68
-1 -11 2 25.74 3.66
1 11 -2 23.32 3.4
1 11 -2 18.75 3.33
1 11 -2 19.5 3.31
-1 -11 2 16.94 3.22
1 11 -2 18.63 3.02
-1 -11 1 10.67 2.74
1 11 -1 9.2 2.46
-1 -11 1 8.79 2.4
-1 -11 1 14.17 2.78
-1 -11 1 12.47 2.7
-1 -11 1 10.9 2.51
-1 -11 1 12.32 2.67
-1 -11 1 11.79 2.44
1 11 -1 6.34 1.89
1 11 -1 6.5 1.9
1 11 -1 7.53 2.02
-1 -11 1 13.43 2.74
1 11 -1 7.76 2.01
-1 -11 0 3.27 1.51
-1 -11 0 3.58 1.54
1 11 0 4.01 1.46
-1 -11 0 2.52 1.25
1 11 0 1.27 0.9
-1 -11 0 4.69 1.56
-1 -11 0 1.75 1.32
-1 -11 0 3.36 1.47
-1 -11 -1 45.58 5.15
-1 -11 -1 55.25 5.26
-1 -11 -1 44.68 4.79
-1 -11 -1 54 5.23
-1 -11 -1 54.35 5.17
-1 -11 -1 51.31 5.07
1 11 1 51.02 5.11
1 11 1 53.09 4.74
-1 -11 -2 147.83 9.6
-1 -11 -2 149.16 8.96
-1 -11 -2 169.52 9.53
-1 -11 -2 170.76 9.51
-1 -11 -2 156.49 9.1
-1 -11 -2 162.97 9.42
1 11 2 153.36 9.16
-1 -11 -2 156.35 9.06
1 11 2 151.98 8.34
-1 -11 -3 20.01 3.41
-1 -11 -3 19.65 3.08
-1 -11 -3 21.81 3.28
-1 -11 -3 19.64 3.16
-1 -11 -3 17.9 2.79
-1 -11 -3 17.9 2.87
-1 -11 -3 15.11 2.69
1 11 3 19.22 3.05
1 11 3 19.32 2.84
-1 -11 -4 5.05 1.78
1 11 4 4.61 1.25
-1 -11 -4 3.56 1.49
-1 -11 -4 4.84 1.52
-1 -11 -4 6.23 1.96
-1 -11 -4 4.36 1.76
-1 -11 -4 7 2.04
1 11 4 4.34 1.45
-1 -11 -4 4.68 1.61
1 11 4 4.93 1.61
-1 -11 -5 -0.66 1.33
-1 -11 -5 1.28 1.6
-1 -11 -5 -1.11 1.02
-1 -11 -5 -0.76 1.33
-1 -11 -5 0.49 1.03
1 11 5 3.14 1.73
-1 -11 -5 -0.08 1.06
-1 -11 -5 0.03 0.91
1 11 5 -0.65 1.03
1 11 5 0.41 0.86
1 11 6 201.96 9.45
1 11 6 154.97 9.18
-1 -11 -6 180.21 10.68
-1 -11 -6 177.86 10.23
-1 -11 -6 172.22 10.04
-1 -11 -6 193.89 10.54
-1 -11 -6 171.46 10.04
-1 -11 -6 166.33 9.39
1 11 6 184.92 9.23
-1 -11 -7 172.73 10.13
-1 -11 -7 168.28 10.05
-1 -11 -7 174.13 10.17
-1 -11 -7 165.71 9.91
1 11 7 160.51 9.29
1 11 7 177.59 9.19
-1 -11 -7 157.32 10.1
1 11 7 164.72 8.8
-1 -11 -8 149.15 9.62
-1 -11 -8 152.62 9.76
-1 -11 -8 158.85 9.91
-1 -11 -8 163.63 9.95
1 11 8 146.23 8.89
1 11 8 162.59 9.1
-1 -11 -8 146.31 9.88
1 11 8 151.25 8.43
1 11 9 112.7 8.57
-1 -11 -9 125.7 9.36
-1 -11 -9 105.99 8.07
-1 -11 -9 116.91 8.41
-1 -11 -9 117.55 8.53
-1 -11 -9 118.39 8.55
-1 -11 -9 110.71 8.27
1 11 9 101.75 7.38
-1 -11 -9 119.06 8.94
1 11 9 122.84 7.98
1 11 9 127.45 7.6
-1 -11 -10 250.16 14
1 11 10 213.07 12.67
-1 -11 -10 248.53 13.17
-1 -11 -10 219.96 12.5
-1 -11 -10 225.21 12.67
-1 -11 -10 247.09 13.19
-1 -11 -10 235.76 12.82
1 11 10 221.53 11.57
-1 -11 -10 236.67 13.34
1 11 10 259.39 12.49
1 11 10 243.64 11.14
1 11 11 49.63 6
-1 -11 -11 59.01 6.6
-1 -11 -11 53.87 6.1
-1 -11 -11 52.88 5.99
-1 -11 -11 64.03 6.61
-1 -11 -11 54.56 6.13
-1 -11 -11 54.98 6.1
1 11 11 58.43 5.74
1 11 11 52.77 5.27
-1 -11 -11 58.6 6.41
1 11 11 54.82 5
1 11 12 15.13 3.56
-1 -11 -12 13.01 3.32
-1 -11 -12 9.42 2.68
-1 -11 -12 9.47 2.77
-1 -11 -12 9.53 2.74
-1 -11 -12 7.62 2.48
-1 -11 -12 12.33 3.3
1 11 12 10.6 2.65
-1 -11 -12 7.97 2.56
1 11 12 11.3 2.39
-1 -11 -13 14.29 3.29
-1 -11 -13 15.83 3.46
-1 -11 -13 18.23 3.68
-1 -11 -13 16.59 3.6
-1 -11 -13 15.75 3.51
-1 -11 -13 15.08 3.53
1 11 13 17.46 3.84
-1 -11 -13 15.27 3.69
-1 -12 3 52.78 6.11
1 12 -3 36.03 5.27
-1 -12 3 43.76 5.17
-1 -12 3 43.04 5.16
-1 -12 3 43 5.2
-1 -12 3 48.25 5.55
-1 -12 3 50.92 5.71
-1 -12 3 45.93 6.18
1 12 -3 48.79 5.35
1 12 -3 46.7 5.56
-1 -12 3 39.17 5.32
1 12 -3 40.21 4.98
1 12 -3 34.8 4.39
-1 -12 2 9.63 2.89
1 12 -2 17.49 3.57
-1 -12 2 13.48 3.19
-1 -12 2 11.73 2.8
-1 -12 2 13.98 2.9
-1 -12 2 13.37 2.88
-1 -12 2 15.04 3.02
-1 -12 2 17.06 3.25
1 12 -2 13.43 2.76
1 12 -2 7.18 2.3
-1 -12 2 14.72 3.25
1 12 -2 13.79 3
1 12 -2 13.86 2.72
-1 -12 1 1.88 1.78
1 12 -1 5.29 2.06
-1 -12 1 0.12 1.15
-1 -12 1 3.24 1.76
-1 -12 1 4.58 1.71
-1 -12 1 1.38 1.34
-1 -12 1 2.13 1.5
-1 -12 1 2.1 1.53
1 12 -1 5.24 1.68
1 12 -1 -0.56 1.15
-1 -12 1 2.65 1.74
1 12 -1 1.08 1.09
1 12 -1 3.98 1.37
1 12 -1 1.82 1.02
-1 -12 0 21.77 3.91
-1 -12 0 30.37 4.32
1 12 0 26.57 4.11
-1 -12 0 25.2 3.83
-1 -12 0 27.13 3.93
-1 -12 0 27.08 3.97
-1 -12 0 29.19 3.97
-1 -12 0 21.45 3.51
1 12 0 17.53 3.02
1 12 0 26.48 4.12
1 12 0 24.07 3.75
-1 -12 0 27.41 4.1
1 12 0 22.9 3.17
1 12 0 21.57 3.21
-1 -12 -1 19.08 3.6
-1 -12 -1 19.35 3.28
-1 -12 -1 20.77 3.44
-1 -12 -1 18.81 3.35
-1 -12 -1 16.9 3.16
1 12 1 15.92 2.75
1 12 1 16.55 3.14
-1 -12 -1 17.58 3.21
1 12 1 16.37 2.6
-1 -12 -2 41.4 5.19
-1 -12 -2 49.47 5.14
-1 -12 -2 48.63 5.18
-1 -12 -2 43.45 4.9
-1 -12 -2 41.12 4.74
1 12 2 42.12 4.82
-1 -12 -2 39.09 4.66
1 12 2 42.02 4.35
-1 -12 -3 30.86 4.44
-1 -12 -3 25.31 3.71
-1 -12 -3 29.35 3.99
-1 -12 -3 23.75 3.67
-1 -12 -3 23.94 3.61
-1 -12 -3 27.84 4
1 12 3 21.09 3.56
-1 -12 -3 30.76 3.99
1 12 3 25.72 3.43
-1 -12 -4 48.15 5.7
-1 -12 -4 61.52 5.89
-1 -12 -4 63.37 6.01
-1 -12 -4 54.3 5.55
-1 -12 -4 50.62 5.34
-1 -12 -4 64.63 6.15
-1 -12 -4 54.91 5.35
1 12 4 51.65 5.49
1 12 4 54.57 4.97
1 12 4 57.05 5.06
1 12 5 98.51 6.48
-1 -12 -5 98.81 8.14
-1 -12 -5 98.01 7.49
-1 -12 -5 99.9 7.63
-1 -12 -5 100.4 7.59
-1 -12 -5 105.18 7.71
-1 -12 -5 87.54 7.12
-1 -12 -5 96.91 7.24
1 12 5 90.84 7.28
1 12 5 87.55 6.55
1 12 5 83.38 6.26
1 12 6 57.48 5.6
-1 -12 -6 58.61 6.18
1 12 6 63.39 5.15
-1 -12 -6 66.61 6.33
-1 -12 -6 64.39 6.18
-1 -12 -6 62.11 6.01
-1 -12 -6 57.6 5.83
-1 -12 -6 62.15 6.09
-1 -12 -6 49.48 5.16
1 12 6 55.55 5.71
1 12 6 55.87 5.11
1 12 7 1.6 1.13
-1 -12 -7 -1.86 1.5
1 12 7 1.22 1.28
-1 -12 -7 0.08 1.2
-1 -12 -7 1.47 1.86
-1 -12 -7 1.03 1.24
-1 -12 -7 -0.19 1.02
-1 -12 -7 0.24 0.83
1 12 7 2.2 1.36
-1 -12 -8 47.48 5.4
-1 -12 -8 45.02 5.23
-1 -12 -8 46.5 5.34
-1 -12 -8 46.42 5.3
-1 -12 -8 39.81 5.25
1 12 8 48.29 4.94
1 12 8 40.59 4.65
1 12 8 43.92 4.56
-1 -12 -9 300.51 15.27
-1 -12 -9 330.35 15.84
-1 -12 -9 320.51 15.67
-1 -12 -9 304.21 15.3
-1 -12 -9 311.15 15.98
1 12 9 284.89 13.84
1 12 9 360.36 14.84
1 12 9 321.6 13.75
-1 -12 -10 -1.07 1.85
1 12 10 1.77 1.93
-1 -12 -10 2.03 1.9
-1 -12 -10 -0.02 1.15
-1 -12 -10 3.22 1.81
-1 -12 -10 1.12 1.42
-1 -12 -10 4.17 2.24
1 12 10 3.22 1.54
1 12 10 2.45 1.55
-1 -12 -10 1.75 1.22
1 12 10 1.23 1.37
-1 -12 -11 5.12 2.37
1 12 11 1.81 1.91
-1 -12 -11 2.77 1.48
-1 -12 -11 1.98 1.55
-1 -12 -11 2.6 1.38
-1 -12 -11 3.26 1.7
-1 -12 -11 4.79 2.17
1 12 11 1.98 1.06
-1 -12 -11 2.7 1.94
1 12 11 1.51 1.08
-1 -12 -12 69.34 7.75
1 12 12 59.36 6.99
-1 -12 -12 80.16 7.78
-1 -12 -12 63.82 7.1
1 12 12 71.32 5.92
-1 -12 -12 69.77 7.59
-1 -13 0 14.43 3.36
1 13 0 13.91 3.35
-1 -13 0 15.82 3.4
-1 -13 0 16.08 3.16
-1 -13 0 14.56 3.03
-1 -13 0 14.24 2.86
-1 -13 0 17.93 3.24
-1 -13 0 19.1 3.4
1 13 0 19.82 3.51
1 13 0 15.06 3.35
-1 -13 0 15.98 3.28
1 13 0 17.95 3.4
1 13 0 22.35 3.19
1 13 0 15.91 2.75
-1 -13 -1 4.36 2.34
-1 -13 -1 0.01 1.28
-1 -13 -1 4.68 2.3
-1 -13 -1 1.52 1.62
-1 -13 -1 5.23 2.14
-1 -13 -1 1.58 1.7
1 13 1 4.9 2.33
1 13 1 1.67 1.01
1 13 1 4.27 2.04
-1 -13 -1 2.93 1.81
1 13 1 3.37 1.63
1 13 1 1.06 1.1
-1 -13 -2 87.09 8.03
-1 -13 -2 80.4 7.19
-1 -13 -2 78.23 6.99
-1 -13 -2 75.54 6.96
-1 -13 -2 82.98 7.13
1 13 2 76.56 6.24
-1 -13 -2 72.63 6.73
1 13 2 69.68 6.66
1 13 2 77.25 6.14
1 13 2 70.71 5.91
-1 -13 -3 49.09 6.03
-1 -13 -3 54.23 5.83
-1 -13 -3 57.25 5.85
-1 -13 -3 60.08 6.11
-1 -13 -3 57.46 6.01
1 13 3 53.31 5.09
-1 -13 -3 51.65 5.52
1 13 3 42.66 5.16
1 13 3 55.21 5.15
1 13 3 57.01 5.27
-1 -13 -4 2.68 1.95
-1 -13 -4 1.35 1.32
-1 -13 -4 2.48 1.52
-1 -13 -4 1.42 1.22
-1 -13 -4 2.3 1.57
1 13 4 2.83 1.44
-1 -13 -4 -0.68 1.13
1 13 4 2.28 1.9
1 13 4 1.86 1.25
1 13 4 2.5 1.15
-1 -13 -5 -1.61 1.58
-1 -13 -5 1.93 1.48
-1 -13 -5 0.8 1.3
-1 -13 -5 1.95 1.49
-1 -13 -5 3.6 1.94
-1 -13 -5 0.83 1.39
1 13 5 2.1 1.46
1 13 5 0.61 1.12
1 13 5 1.2 1.51
-1 -13 -6 3.45 1.84
1 13 6 1.5 1.14
-1 -13 -6 3.14 1.69
-1 -13 -6 4.01 1.82
-1 -13 -6 4.03 1.87
-1 -13 -6 1.14 1.11
-1 -13 -6 2.41 1.71
1 13 6 4.85 1.97
1 13 6 5.37 1.8
-1 -13 -7 2.1 1.92
1 13 7 3.55 1.34
-1 -13 -7 5.32 2.15
-1 -13 -7 0.76 1.03
-1 -13 -7 2.55 1.67
-1 -13 -7 0.04 1.11
-1 -13 -7 1.14 1.21
1 13 7 3.98 2.06
1 13 7 0.72 1
1 13 8 54.87 5.26
1 13 8 35.78 4.81
-1 -13 -8 45.85 5.88
-1 -13 -8 52.33 5.9
-1 -13 -8 53.71 5.96
-1 -13 -8 56.87 6.2
-1 -13 -8 46.82 5.65
-1 -13 -8 52.53 6
1 13 8 53.35 6
1 13 8 53.98 5.27
-1 -13 -9 0.03 1.3
-1 -13 -9 2.16 1.69
-1 -13 -9 0.41 2.04
-1 -13 -9 0.7 1.23
-1 -13 -9 -1.66 1.61
1 13 9 0.44 1.06
1 13 9 1.34 1.58
1 13 9 1.05 1.09
-1 -13 -10 10.78 2.96
-1 -13 -10 7.52 2.53
-1 -13 -10 6.72 2.25
-1 -13 -10 5.62 2.36
1 13 10 9.78 2.33
1 13 10 8.01 2.31
-1 -13 -10 6.09 2.49
1 13 10 5.1 1.92
1 14 3 21.92 3.31
1 14 4 39.94 4.99
1 14 4 33.91 4.1
-1 -14 -5 -0.8 1.28
-1 -14 -5 0.7 1.55
-1 -14 -5 0.58 1.44
-1 -14 -5 -0.16 1.24
1 14 5 -0.47 1.42
-1 -14 -5 0.67 1.23
-1 -14 -6 11.22 2.97
1 14 6 8.92 2.45
-1 -14 -6 11.22 2.93
-1 -14 -6 10.47 2.86
-1 -14 -6 13.73 3.09
-1 -14 -6 10.1 2.66
1 14 8 17.55 3.13
2 -13 -5 8.42 2.39
2 -13 -5 4.8 1.73
2 -13 -4 2.12 1.21
-2 13 4 3.05 1.54
2 -13 -4 0.83 1.24
2 -13 -3 5.58 2.02
2 -13 -2 15.81 3.52
2 -12 -8 114.77 9.04
2 -12 -7 -0.02 1
-2 12 7 -1.11 1.21
2 -12 -7 -1.1 1.2
2 -12 -7 0.38 1.47
-2 12 7 0.05 1.04
2 -12 -6 50.93 5.86
-2 12 6 77.6 6.47
2 -12 -6 60.23 6.76
-2 12 6 83.66 6.87
2 -12 -6 74.43 7.6
2 -12 -6 72.09 7.16
2 -12 -5 5.17 2.01
-2 12 5 6.18 1.92
2 -12 -5 0.57 1.29
-2 12 5 1.84 1.03
2 -12 -5 -0.52 1.1
2 -12 -5 2.59 1.56
2 -12 -4 2.97 1.73
-2 12 4 6.29 2.05
2 -12 -4 5.1 2.07
-2 12 4 3.99 1.34
2 -12 -4 4.27 2
2 -12 -4 3.44 1.55
-2 12 3 22.63 3.31
2 -12 -3 20.82 3.64
2 -12 -3 17.13 3.42
2 -12 -3 15.77 3.47
-2 12 3 17.28 3.19
2 -12 -3 15.35 3.19
-2 12 2 38.46 4.2
2 -12 -2 35.1 4.95
2 -12 -2 41.02 5.37
2 -12 -2 34.46 4.98
2 -12 -1 46.62 5.76
2 -12 -1 47.05 4.92
2 -12 -1 39.99 4.54
2 -12 -1 53.01 5.33
2 -12 -1 44.09 4.92
2 -12 -1 41.35 4.72
-2 12 1 50.06 4.85
2 -12 -1 44.65 5.52
2 -12 -1 41.41 5.56
-2 12 1 48.85 4.89
2 -12 0 17.16 3.71
2 -12 0 18.42 3.18
2 -12 0 14.34 2.74
2 -12 0 14.09 2.73
2 -12 0 21.29 3.37
2 -12 0 17.35 2.95
2 -12 0 17.28 3.34
2 -12 0 14.01 3.15
-2 12 0 20.67 3.34
2 -12 0 18.76 3.61
-2 12 0 16.16 2.92
2 -12 1 36.7 5.25
2 -12 1 36.73 4.69
2 -12 1 36.29 4.49
2 -12 1 35.74 4.51
2 -12 1 36.27 4.63
2 -12 1 38.62 4.75
2 -12 1 37.11 4.81
-2 12 -1 35.16 4.33
2 -12 1 33.71 5.1
2 -12 1 39.88 5.54
2 -12 2 0.65 1.47
2 -12 2 -0.79 1.02
2 -12 2 1.22 1.03
2 -12 2 0.96 1.15
2 -12 2 0.16 1.06
2 -12 2 -0.32 1.02
2 -12 2 1.59 1.3
-2 11 10 1.94 1.24
-2 11 9 22.84 3.57
-2 11 9 19.72 3.39
2 -11 -9 16.75 3.88
-2 11 8 0.36 1.04
2 -11 -8 -2.81 1.76
-2 11 8 -1.87 1.53
-2 11 7 554.04 20.47
2 -11 -7 515.46 22.33
2 -11 -6 89.38 7.5
-2 11 6 86.64 6.67
-2 11 6 90.16 7
2 -11 -6 89.41 8.01
2 -11 -5 70.19 6.85
-2 11 5 50.74 5.14
2 -11 -5 59.12 5.36
2 -11 -5 56.69 5.32
2 -11 -5 55.73 5.21
2 -11 -5 54.07 5.14
2 -11 -5 53.82 5.88
2 -11 -5 57.13 6.18
2 -11 -5 53.11 5.63
-2 11 5 63.12 5.41
2 -11 -4 2.16 1.65
-2 11 4 -0.11 0.84
2 -11 -4 0.23 0.82
2 -11 -4 0.6 0.81
2 -11 -4 0.06 1.04
2 -11 -4 -0.27 1.05
2 -11 -4 1.1 1.13
2 -11 -4 1.43 1.18
-2 11 4 -0.24 0.99
2 -11 -4 1.46 1.38
2 -11 -4 2.82 1.68
-2 11 4 2.3 1.4
2 -11 -3 13.44 3.07
-2 11 3 12 2.42
2 -11 -3 13.75 2.5
2 -11 -3 13.16 2.5
2 -11 -3 13.34 2.44
2 -11 -3 13.77 2.5
2 -11 -3 12.49 2.74
-2 11 3 15.02 2.69
2 -11 -3 10.75 2.69
2 -11 -3 9.62 2.35
-2 11 3 14.25 2.65
-2 11 2 4.24 1.56
2 -11 -2 5.29 2.03
2 -11 -2 3.51 1.29
2 -11 -2 2.98 1.28
2 -11 -2 5.33 1.58
2 -11 -2 3.86 1.57
2 -11 -2 4.16 2.02
-2 11 2 5.81 1.6
-2 11 2 4.66 1.52
2 -11 -2 5.51 2.09
-2 11 2 4.9 1.59
2 -11 -2 5.9 1.98
-2 11 1 25.08 3.32
2 -11 -1 22.4 3.84
2 -11 -1 22.51 3.18
2 -11 -1 23.45 3.21
2 -11 -1 25.69 3.44
2 -11 -1 23.14 3.3
-2 11 1 21.84 2.97
2 -11 -1 21.65 3.76
-2 11 1 22.88 3.21
2 -11 -1 15.51 3.07
-2 11 1 27.49 3.44
2 -11 0 105.43 8.43
-2 11 0 106.82 7.75
2 -11 0 107.3 7.68
2 -11 0 111 7.41
2 -11 0 109.36 7.37
2 -11 0 108.96 7.42
2 -11 0 106.81 7.32
2 -11 0 116.13 7.72
2 -11 0 117.98 8.83
-2 11 0 118.93 7.48
-2 11 0 94.49 7.14
2 -11 0 103.57 8.42
-2 11 0 104.53 7.26
-2 11 0 123.33 7.4
2 -11 1 1.58 1.41
-2 11 -1 2.18 1.37
2 -11 1 0.56 0.92
2 -11 1 1.47 1.06
2 -11 1 4.28 1.67
2 -11 1 2.24 1.37
2 -11 1 1.7 1.37
2 -11 1 1.84 1.14
-2 11 -1 0.28 0.92
2 -11 1 -0.28 0.94
-2 11 -1 0.78 1.04
-2 11 -1 -0.46 1.11
2 -11 1 3.51 2.02
-2 11 -1 1.34 0.97
2 -11 2 16.75 3.03
-2 11 -2 6.53 1.94
2 -11 2 16.81 2.91
2 -11 2 15.47 2.84
2 -11 2 17.48 3.21
2 -11 2 15.12 2.83
2 -11 2 13.61 2.83
-2 11 -2 20.23 3.3
2 -11 2 16.28 3.34
-2 11 -2 13.43 2.81
-2 11 -2 12.1 2.5
2 -11 2 13.89 3.26
2 -11 2 13.9 3.18
-2 11 -3 2.77 1.54
2 -11 3 1.19 1.08
2 -11 3 0.98 1.28
2 -11 3 1.55 1.13
2 -11 3 2.34 1.65
2 -11 3 -0.69 1.9
2 -11 3 2.72 1.49
-2 11 -3 -0.61 1.51
2 -11 3 3 1.95
-2 11 -3 -0.91 1.57
-2 11 -3 -0.05 1.04
2 -11 3 2.03 1.52
2 -11 3 1.01 1.1
2 -11 4 45.86 5.76
-2 11 -4 36.52 4.96
2 -11 4 51.48 5.74
2 -11 4 47.47 5.28
2 -11 4 51.72 5.52
2 -11 4 49.17 5.26
2 -11 4 48.56 5.39
-2 11 -4 33.36 4.67
-2 11 -4 41.28 4.97
2 -11 4 53.61 6.41
2 -11 4 43.84 5.81
-2 11 -4 55.96 5.69
-2 10 11 10.07 2.75
2 -10 -11 5.89 2.76
-2 10 11 8.4 2.23
-2 10 10 18.79 3.31
2 -10 -10 25.17 4.39
-2 10 10 21.18 3.33
-2 10 9 30.45 4.16
2 -10 -9 30.2 4.66
-2 10 9 28.68 3.83
2 -10 -8 52.72 6.09
-2 10 8 57.83 5.5
-2 10 8 65.48 5.48
2 -10 -7 44.14 4.68
2 -10 -7 49.51 4.96
2 -10 -7 47.26 4.86
2 -10 -7 38.86 4.45
2 -10 -7 52.1 5.88
-2 10 7 53.4 5.12
-2 10 7 55.45 5
2 -10 -6 75.92 6.07
2 -10 -6 72.71 5.88
2 -10 -6 79.53 6.12
2 -10 -6 80.24 6.16
-2 10 6 96.78 6.49
-2 10 6 86.75 6.48
2 -10 -6 86.77 7.42
2 -10 -5 28.11 4.15
-2 10 5 31.22 3.74
2 -10 -5 26.26 3.45
2 -10 -5 23.9 3.31
2 -10 -5 28.74 3.56
2 -10 -5 23.93 3.32
2 -10 -5 25.63 3.47
-2 10 5 23.18 3.26
2 -10 -5 32.52 4.15
-2 10 5 28.38 3.42
-2 10 4 12.55 2.4
2 -10 -4 13.71 2.99
2 -10 -4 17.82 2.78
2 -10 -4 8.9 2.16
2 -10 -4 11.3 2.28
2 -10 -4 13.2 2.42
2 -10 -4 11.78 2.38
2 -10 -4 15.83 3.06
-2 10 4 12.53 2.44
-2 10 4 18.5 2.83
2 -10 -4 11.62 2.6
-2 10 3 162.11 8.51
2 -10 -3 136.47 9.09
2 -10 -3 127.73 7.69
2 -10 -3 139.48 7.95
2 -10 -3 137.24 7.92
2 -10 -3 133.31 7.82
2 -10 -3 126.12 8.57
-2 10 3 132.63 6.83
2 -10 -3 135.1 7.91
2 -10 -3 125.45 8.77
-2 10 3 132.71 7.87
2 -10 -3 121.09 8.32
-2 10 3 142.44 7.82
2 -10 -2 169.42 10.26
-2 10 2 196.75 9.43
2 -10 -2 196.44 9.52
2 -10 -2 185.78 9.31
2 -10 -2 169.89 8.86
2 -10 -2 177.86 9.08
-2 10 2 177.45 8.43
2 -10 -2 171.38 10.14
2 -10 -2 172.26 10.38
-2 10 2 175.34 9.15
2 -10 -2 167.84 9.97
-2 10 2 201.09 9.46
-2 10 1 39.2 3.93
2 -10 -1 29.48 4.08
2 -10 -1 31.72 3.64
2 -10 -1 33.41 3.75
2 -10 -1 29.9 3.6
2 -10 -1 33.4 3.78
-2 10 1 39.35 3.81
2 -10 -1 34.33 4.39
2 -10 -1 32.85 4.28
-2 10 1 31.98 3.72
-2 10 1 37.48 3.82
2 -10 -1 31.56 4.13
2 -10 0 2.01 1.48
-2 10 0 0.97 1
-2 10 0 0.96 1.08
2 -10 0 0.44 0.91
2 -10 0 0.94 0.97
2 -10 0 0.35 0.85
2 -10 0 0.86 0.91
2 -10 0 0.68 0.8
2 -10 0 1.72 1.18
-2 10 0 1.26 0.89
2 -10 0 -0.04 0.82
-2 10 0 2.27 1.34
-2 10 0 0.74 0.91
2 -10 0 -0.61 1.27
-2 10 0 -0.4 0.75
2 -10 1 15.5 2.9
2 -10 1 13.97 2.73
-2 10 -1 16.19 2.88
2 -10 1 19.54 2.9
2 -10 1 16.5 2.64
2 -10 1 17.4 2.84
2 -10 1 13.81 2.59
2 -10 1 16.07 2.64
2 -10 1 13.39 2.67
-2 10 -1 15.36 2.68
-2 10 -1 12.98 2.64
-2 10 -1 18.91 2.87
2 -10 1 13.23 2.97
-2 10 -1 20.06 2.79
2 -10 2 26.35 3.63
-2 10 -2 23.58 3.53
2 -10 2 25.29 3.47
2 -10 2 19.38 2.98
2 -10 2 27.06 3.51
2 -10 2 26.28 3.42
2 -10 2 19.48 3.01
-2 10 -2 24.65 3.48
2 -10 2 29.44 4.26
-2 10 -2 26.16 3.53
-2 10 -2 19.72 3.07
2 -10 2 21.44 3.72
2 -10 2 15.63 3.02
2 -10 3 9.59 2.44
-2 10 -3 5.39 1.95
2 -10 3 13.07 2.5
2 -10 3 11.97 2.4
2 -10 3 9.2 2.17
2 -10 3 14.76 2.73
2 -10 3 13.35 2.64
-2 10 -3 14.12 2.74
2 -10 3 12.15 2.83
-2 10 -3 9.63 2.45
2 -10 3 11.22 2.68
-2 10 -3 10.02 2.26
2 -10 3 11.88 2.79
-2 10 -4 7.77 2.28
2 -10 4 2.63 1.68
2 -10 4 4.74 1.7
2 -10 4 6.33 1.95
2 -10 4 7.14 1.98
2 -10 4 5.26 2.02
-2 10 -4 7.34 2.15
2 -10 4 5.14 1.98
-2 10 -4 0.9 1.19
-2 10 -4 1.42 1.58
2 -10 4 2.7 1.52
2 -10 4 6.77 2.16
2 -10 5 11.3 2.52
2 -10 5 8.42 2.19
2 -10 5 7.58 2.23
2 -10 5 11.41 2.62
2 -10 5 14.09 3.25
-2 10 -5 9.1 2.39
-2 10 -5 9.22 2.5
-2 10 -5 7.06 2.2
2 -10 5 8.52 2.59
-2 10 -5 9.52 2.48
2 -10 5 4.97 1.93
2 -10 6 68.18 6.15
2 -10 6 60.67 6.01
2 -10 6 65.63 6.12
2 -10 6 55.43 5.74
-2 10 -6 61.75 5.98
-2 10 -6 38.03 5.13
-2 10 -6 50.37 5.29
2 -10 6 66.37 7.22
2 -10 6 60.29 6.9
2 -10 6 60.74 6.3
-2 10 -6 41.43 5.31
-2 9 12 26.42 3.93
2 -9 -12 29.04 4.9
-2 9 11 48.67 5.27
2 -9 -11 42.72 5.87
-2 9 11 45.42 4.69
-2 9 10 131.77 8.54
2 -9 -10 123.04 9.6
-2 9 10 125.88 7.9
2 -9 -9 58.47 5.54
2 -9 -9 55.97 5.45
2 -9 -9 47.54 5
2 -9 -9 58.66 5.73
2 -9 -9 58.35 5.48
2 -9 -9 49.24 5.07
2 -9 -9 51.46 6
-2 9 9 56.5 5.32
-2 9 9 68.25 5.46
2 -9 -8 5.08 1.62
2 -9 -8 2.32 1.08
2 -9 -8 5.73 1.63
2 -9 -8 5.54 1.8
-2 9 8 6.31 2.02
2 -9 -8 6.52 1.76
2 -9 -8 7.49 1.99
2 -9 -8 5.28 2.07
-2 9 8 5.53 1.7
-2 9 8 6.43 1.7
2 -9 -7 65.43 5.34
2 -9 -7 64.65 5.41
2 -9 -7 68.36 5.57
2 -9 -7 68.67 5.53
2 -9 -7 69.5 5.5
-2 9 7 68.8 5.6
2 -9 -7 68.88 6.48
-2 9 7 76.67 5.59
2 -9 -6 2.27 1.32
2 -9 -6 5.53 1.67
2 -9 -6 3.08 1.31
2 -9 -6 2.14 0.98
-2 9 6 3.25 1.41
2 -9 -6 1.69 1.06
-2 9 6 0.96 1.1
2 -9 -5 138.08 7.77
2 -9 -5 138.38 7.77
2 -9 -5 125.83 7.53
2 -9 -5 135.79 7.69
-2 9 5 162.29 8.17
2 -9 -5 140.92 9.06
-2 9 5 152.72 8.25
-2 9 4 258.96 11.13
2 -9 -4 242.61 12.06
2 -9 -4 240.27 10.51
2 -9 -4 235.89 10.46
2 -9 -4 234.61 10.46
2 -9 -4 231.49 10.44
2 -9 -4 252.12 10.73
-2 9 4 230.16 10.46
-2 9 4 255.38 10.82
2 -9 -3 179.15 10.03
-2 9 3 194.65 9.11
2 -9 -3 179.54 8.64
2 -9 -3 179.84 8.7
2 -9 -3 176.54 8.63
2 -9 -3 177.14 8.63
-2 9 3 173.14 7.65
2 -9 -3 183.77 8.76
2 -9 -3 176.54 9.93
-2 9 3 177.7 8.81
-2 9 3 185.99 8.79
2 -9 -3 176.38 9.67
2 -9 -2 17.45 2.92
-2 9 2 21.92 2.81
2 -9 -2 22.35 2.8
2 -9 -2 18.67 2.53
2 -9 -2 18.72 2.54
2 -9 -2 18.46 2.58
2 -9 -2 21.33 3.17
-2 9 2 16.06 2.26
2 -9 -2 22.55 2.85
-2 9 2 18.34 2.52
2 -9 -2 18.92 3.19
2 -9 -2 16.73 2.88
-2 9 2 22.51 3.02
-2 9 1 1.39 0.92
2 -9 -1 -0.34 0.96
2 -9 -1 1.39 0.99
2 -9 -1 0.23 0.67
2 -9 -1 2.22 1.18
2 -9 -1 0.63 0.69
-2 9 1 0.23 0.66
2 -9 -1 0.16 0.79
-2 9 1 1.12 1.03
2 -9 -1 1.63 1.37
2 -9 -1 -0.9 1.25
-2 9 1 0.02 0.81
-2 9 0 59.77 4.59
2 -9 0 58.23 5.39
2 -9 0 61.3 4.7
2 -9 0 63 4.79
2 -9 0 67.54 4.95
2 -9 0 62.11 4.79
-2 9 0 67.41 4.87
2 -9 0 58.05 5.38
2 -9 0 62.65 5.71
-2 9 0 65.89 4.97
-2 9 0 65.93 4.78
2 -9 0 58.21 5.44
-2 9 -1 15.79 2.33
2 -9 1 12.98 2.56
2 -9 1 12.01 2.25
-2 9 -1 12.18 2.28
2 -9 1 14.94 2.43
2 -9 1 16.88 2.48
2 -9 1 12.28 2.19
2 -9 1 18.13 2.65
2 -9 1 14.88 2.48
2 -9 1 12.92 2.27
-2 9 -1 12.35 2.33
2 -9 1 13.35 2.64
-2 9 -1 16.75 2.64
-2 9 -1 15.75 2.48
2 -9 1 13.1 2.76
-2 9 -1 12.94 2.18
2 -9 2 3.22 1.43
2 -9 2 -0.71 1.16
-2 9 -2 2.17 1.08
2 -9 2 5.26 1.7
2 -9 2 2.3 1.1
2 -9 2 1.93 1.16
2 -9 2 1.8 1.31
2 -9 2 0.98 0.84
2 -9 2 0.49 0.65
-2 9 -2 0.39 0.86
2 -9 2 0.73 0.96
-2 9 -2 1.47 0.95
-2 9 -2 0.86 0.85
2 -9 2 1.67 1.17
-2 9 -2 2.1 0.87
2 -9 3 37.28 4.45
2 -9 3 48.17 4.74
-2 9 -3 41.33 4.49
2 -9 3 44.94 4.43
2 -9 3 37.32 3.99
2 -9 3 42.16 4.25
2 -9 3 43.48 4.3
2 -9 3 46.1 4.5
-2 9 -3 44.26 4.44
-2 9 -3 41.16 4.36
2 -9 3 45.96 5.06
-2 9 -3 33.47 3.87
2 -9 3 43.05 4.9
-2 9 -4 3.45 1.78
2 -9 4 5.4 1.77
2 -9 4 3.94 1.59
2 -9 4 5.18 1.72
2 -9 4 5.32 1.74
2 -9 4 4.04 1.64
2 -9 4 3.76 1.75
-2 9 -4 5.04 1.62
-2 9 -4 0.53 0.88
2 -9 4 1.2 1.11
-2 9 -4 2.63 1.4
2 -9 4 3.72 1.64
2 -9 5 18.37 3.25
-2 9 -5 12.6 2.88
2 -9 5 19.37 3.12
2 -9 5 21.67 3.36
2 -9 5 20.2 3.2
2 -9 5 19.4 3.17
2 -9 5 23.14 3.94
-2 9 -5 22.63 3.42
-2 9 -5 16.65 3.08
-2 9 -5 16.59 3.02
2 -9 5 19.69 3.64
2 -9 5 21.75 3.62
2 -9 6 77.16 6.77
-2 9 -6 71.65 6.76
2 -9 6 81 6.58
2 -9 6 89.98 6.91
2 -9 6 82 6.55
2 -9 6 79.41 6.61
-2 9 -6 89.22 7
-2 9 -6 74.18 6.5
-2 9 -6 68.46 6.14
2 -9 6 84.46 7.78
2 -9 6 90.56 8.06
2 -9 7 42.05 5.1
-2 9 -7 35.26 4.79
2 -9 7 45.34 5.07
2 -9 7 42.42 4.85
2 -9 7 40.74 4.88
2 -9 7 41.64 5
-2 9 -7 38.02 4.68
-2 9 -7 30.36 4.52
-2 9 -7 32.39 4.29
2 -9 7 41.77 5.63
-2 9 -7 53.94 5.59
2 -9 7 34.11 4.84
2 -9 7 42.97 5.72
-2 9 -8 41.71 5.03
-2 9 -8 43.77 5.47
-2 8 13 193.1 10.95
2 -8 -12 292.74 15.92
-2 8 12 280.17 13.38
-2 8 11 463.3 18.01
2 -8 -11 491.64 21.02
-2 8 11 477.76 17.28
2 -8 -10 16.15 3.24
-2 8 10 20.83 3.33
2 -8 -10 17.04 3.07
2 -8 -10 18.88 3.24
2 -8 -10 18.29 3.04
2 -8 -10 18.17 3.07
2 -8 -10 22.52 3.31
-2 8 10 17.97 2.93
2 -8 -10 22.8 4.03
-2 8 10 22.42 3.08
-2 8 9 75.22 6.17
2 -8 -9 81.24 6.57
2 -8 -9 81.87 6.4
2 -8 -9 72.69 6
2 -8 -9 78.15 6.36
2 -8 -9 76.47 6.17
2 -8 -9 78.36 6.14
2 -8 -9 86.93 7.46
-2 8 9 81.42 6.21
-2 8 9 77.85 5.69
-2 8 8 12.88 2.46
2 -8 -8 12.71 2.55
2 -8 -8 16 2.6
2 -8 -8 16.75 2.69
2 -8 -8 15.56 2.58
2 -8 -8 13.77 2.45
2 -8 -8 14.95 2.56
2 -8 -8 13.19 2.86
-2 8 8 12.57 2.43
-2 8 8 14.99 2.39
-2 8 7 6.12 1.6
2 -8 -7 4.24 1.52
2 -8 -7 2.15 1.07
2 -8 -7 4.39 1.45
2 -8 -7 5.56 1.58
2 -8 -7 4.1 1.41
2 -8 -7 5.43 1.56
-2 8 7 5.49 1.65
2 -8 -7 2.83 1.44
-2 8 7 3.99 1.56
2 -8 -6 34.86 3.83
-2 8 6 28.76 3.38
2 -8 -6 28.78 3.32
2 -8 -6 36.32 3.65
2 -8 -6 31.91 3.46
2 -8 -6 37.61 3.69
2 -8 -6 32.02 3.44
-2 8 6 34.13 3.64
2 -8 -6 33.1 4.11
-2 8 6 35.78 3.57
2 -8 -5 -0.13 0.66
2 -8 -5 0.05 0.72
2 -8 -5 0.03 0.84
2 -8 -5 0.88 0.73
-2 8 5 -0.19 1.03
2 -8 -5 -1 1.25
-2 8 5 1.27 0.97
2 -8 -4 85.19 5.58
2 -8 -4 83.73 5.52
2 -8 -4 90.44 5.7
2 -8 -4 89.09 5.6
-2 8 4 100.5 5.88
2 -8 -4 84.5 6.39
-2 8 4 85.65 5.71
2 -8 -3 472.8 17.15
-2 8 3 514.8 16.14
2 -8 -3 449.21 15.14
2 -8 -3 458.83 15.22
2 -8 -3 435.42 15.04
2 -8 -3 446.2 15.23
-2 8 3 470.1 14.16
2 -8 -3 466.65 15.3
-2 8 3 441.37 15.28
-2 8 3 536.46 15.93
2 -8 -2 178.74 9.29
-2 8 2 191.28 8.47
2 -8 -2 174.75 8.03
2 -8 -2 171.35 8
2 -8 -2 177.4 8.12
2 -8 -2 171.52 7.97
-2 8 2 180.49 7.55
2 -8 -2 186.15 8.19
2 -8 -2 176.08 9.32
-2 8 2 165.96 7.98
2 -8 -2 172.76 9.02
-2 8 2 172.15 7.94
-2 8 1 1.17 0.82
2 -8 -1 0.19 0.72
2 -8 -1 -0.23 0.82
2 -8 -1 -0.19 0.73
2 -8 -1 -0.06 0.66
2 -8 -1 -0.45 0.54
2 -8 -1 1.16 0.94
-2 8 1 0.68 0.79
2 -8 -1 0.88 0.78
-2 8 1 0.5 0.67
2 -8 -1 0.05 0.7
-2 8 1 2.34 1.05
2 -8 -1 2.5 1.3
-2 8 0 1.83 0.91
2 -8 0 2.72 1.13
2 -8 0 4.23 1.26
2 -8 0 2.84 1.01
2 -8 0 2.82 0.94
2 -8 0 4.03 1.22
2 -8 0 2.78 1.13
-2 8 0 2.27 0.96
2 -8 0 3.35 1.32
-2 8 0 1.65 0.67
2 -8 0 3.51 1.45
-2 8 -1 1.07 0.58
2 -8 1 2.4 1.06
2 -8 1 2.07 1.13
-2 8 -1 1.59 0.95
2 -8 1 2.81 1.07
2 -8 1 1.26 0.69
2 -8 1 1.97 0.81
2 -8 1 2 0.93
2 -8 1 1.13 0.87
2 -8 1 2.78 1.09
2 -8 1 5.18 1.57
-2 8 -1 2.05 1.08
-2 8 -1 2.72 1.13
-2 8 -1 1.56 1.02
2 -8 1 3.3 1.51
-2 8 -1 1.76 0.82
2 -8 1 1.73 1.09
2 -8 2 271.96 11.62
-2 8 -2 296.19 10.94
2 -8 2 294 12.65
-2 8 -2 282.81 11.89
2 -8 2 289.97 11.84
2 -8 2 292.56 11.55
2 -8 2 306.86 11.71
2 -8 2 302.4 11.64
2 -8 2 295.69 11.66
2 -8 2 282.37 11.55
-2 8 -2 308.88 11.94
2 -8 2 296.82 13.03
-2 8 -2 282.58 11.56
2 -8 2 285.56 12.89
-2 8 -2 292.95 11.54
-2 8 -2 328.98 11.08
2 -8 3 33.29 3.61
2 -8 3 30.89 3.74
-2 8 -3 28.04 3.46
2 -8 3 30.19 3.53
2 -8 3 30.5 3.3
2 -8 3 35.24 3.52
2 -8 3 32.2 3.37
2 -8 3 32.9 3.5
2 -8 3 29.96 3.34
-2 8 -3 36.1 3.82
-2 8 -3 33.38 3.63
2 -8 3 33.86 4.09
-2 8 -3 28.81 3.28
2 -8 3 30.59 3.86
-2 8 -3 31.76 2.9
2 -8 4 129.72 8.21
2 -8 4 132.3 7.72
-2 8 -4 130.61 7.96
2 -8 4 136.96 7.97
2 -8 4 138.85 7.8
2 -8 4 148.79 8
2 -8 4 142.47 7.81
2 -8 4 135.89 7.78
2 -8 4 137.58 7.89
-2 8 -4 139.55 7.93
-2 8 -4 124.84 7.56
-2 8 -4 128.27 7.54
2 -8 4 143.34 9.02
2 -8 4 124.34 8.5
2 -8 5 38.52 4.34
-2 8 -5 36.17 4.13
2 -8 5 34.43 4.02
2 -8 5 35.97 3.99
2 -8 5 35.43 3.98
2 -8 5 35.37 3.97
2 -8 5 37.77 4.1
-2 8 -5 40.18 4.29
-2 8 -5 34.65 3.93
2 -8 5 39.78 4.84
-2 8 -5 36.51 4.06
2 -8 5 40.05 4.8
2 -8 6 3.99 1.49
2 -8 6 3.75 1.46
2 -8 6 4.82 1.44
2 -8 6 5.46 1.74
-2 8 -6 3.39 1.48
2 -8 6 2.95 1.62
-2 8 -6 0.74 1.29
-2 8 -6 6.85 1.98
2 -8 6 1.82 1.38
2 -8 6 2.97 1.35
-2 8 -6 2.78 1.65
2 -8 7 28.2 3.79
2 -8 7 22.15 3.41
2 -8 7 24.94 3.52
2 -8 7 21.65 3.28
-2 8 -7 20.47 3.34
2 -8 7 27.41 4.44
2 -8 7 23.72 3.85
-2 8 -7 19.98 3.3
-2 8 -7 15.14 3.17
2 -8 7 23.88 4.08
-2 8 -7 16.89 3.11
2 -8 7 25.03 3.71
-2 8 -7 18.5 3.31
2 -8 8 0.21 1.12
2 -8 8 -0.22 0.99
2 -8 8 0.66 0.96
2 -8 8 0.08 1.11
2 -8 8 1.12 1.29
-2 8 -8 -0.1 1.01
-2 8 -8 -0.58 1.41
-2 8 -8 1.24 1.45
2 -8 8 -0.17 1.09
-2 8 -8 0.9 1.25
-2 8 -8 0.28 1.42
2 -8 8 2.2 1.66
-2 8 -9 36.72 5.13
2 -8 9 28.8 4.44
2 -8 9 36.2 4.73
2 -8 9 30.97 4.38
2 -8 9 42.37 5.11
2 -8 9 36.81 4.86
-2 8 -9 36.41 4.74
-2 8 -9 29.9 4.52
-2 8 -9 34.52 4.47
2 -8 9 44 5.89
-2 8 -9 46.53 5.33
-2 7 13 169.22 9.9
2 -7 -13 155.39 10.35
-2 7 12 65.91 5.75
2 -7 -12 79.36 7.64
2 -7 -12 65 6.33
-2 7 11 6.12 2.18
2 -7 -11 4.94 1.76
-2 7 11 6.55 2.14
2 -7 -11 3.84 1.77
2 -7 -11 2.62 1.55
2 -7 -11 5.01 1.83
2 -7 -11 4.74 1.67
2 -7 -11 2.09 1.07
-2 7 11 6.49 1.94
2 -7 -11 4.42 1.89
-2 7 11 3.59 1.22
2 -7 -10 132.69 8.69
-2 7 10 130.98 8.31
-2 7 10 143.55 8.68
2 -7 -10 131.35 8.28
2 -7 -10 144.97 8.78
2 -7 -10 131.81 8.69
2 -7 -10 136.85 8.42
2 -7 -10 142.01 8.6
2 -7 -10 126.22 9.15
-2 7 10 126.28 7.84
-2 7 10 131.94 7.57
2 -7 -9 559.93 20.18
-2 7 9 576.85 19.83
-2 7 9 560.01 19.5
2 -7 -9 566.69 19.65
2 -7 -9 559.81 19.42
2 -7 -9 566.37 20.43
2 -7 -9 555.22 19.31
2 -7 -9 593.59 19.85
2 -7 -9 556.51 21.16
-2 7 9 564.9 19.21
-2 7 9 575.38 18.48
-2 7 8 20.15 3.06
2 -7 -8 17.64 2.81
2 -7 -8 18.34 2.9
2 -7 -8 20.11 2.94
2 -7 -8 18.74 3.06
2 -7 -8 17.66 2.74
2 -7 -8 19.1 2.85
2 -7 -8 19.83 2.85
2 -7 -8 20.07 3.3
-2 7 8 19.27 2.81
-2 7 8 21.72 2.64
-2 7 7 5.61 1.66
2 -7 -7 4.73 1.38
2 -7 -7 2.97 1.38
2 -7 -7 3.57 1.33
2 -7 -7 4.35 1.49
2 -7 -7 6.84 1.8
2 -7 -7 4.96 1.53
2 -7 -7 4.28 1.36
-2 7 7 8.2 1.93
2 -7 -7 4.16 1.6
-2 7 7 6.02 1.44
-2 7 6 175.88 8.74
2 -7 -6 195.54 9.3
2 -7 -6 192.49 8.94
2 -7 -6 193.15 8.88
2 -7 -6 188.37 8.76
2 -7 -6 188.39 9.62
2 -7 -6 187.17 8.86
2 -7 -6 186.19 8.71
-2 7 6 196.47 9.03
2 -7 -6 192.66 9.95
-2 7 6 200.86 8.7
-2 7 5 61.21 4.63
2 -7 -5 63.11 4.79
2 -7 -5 64.47 4.63
2 -7 -5 65.99 4.64
2 -7 -5 64.4 4.6
2 -7 -5 80.74 5.75
2 -7 -5 60.27 4.54
2 -7 -5 63.44 4.56
2 -7 -5 66.45 5.37
-2 7 5 73.36 5.02
-2 7 5 76.56 4.9
2 -7 -4 358.82 12.37
2 -7 -4 340.07 12.13
2 -7 -4 331.27 12.02
-2 7 4 336.92 10.51
2 -7 -4 350.1 12.22
-2 7 4 389.8 13.1
2 -7 -4 349.04 13.73
-2 7 4 399.18 12.82
2 -7 -3 198.77 8.39
2 -7 -3 197.15 8.33
2 -7 -3 193.43 8.32
-2 7 3 199.68 7.4
2 -7 -3 189.27 8.21
-2 7 3 219.58 8.73
-2 7 3 213.46 8.86
2 -7 -3 205.58 9.59
2 -7 -2 47.17 4.21
-2 7 2 47.68 3.78
2 -7 -2 49.77 3.7
2 -7 -2 45.75 3.51
2 -7 -2 49.08 3.65
2 -7 -2 52.1 3.8
-2 7 2 49.17 3.38
2 -7 -2 58.89 3.93
-2 7 2 39.12 3.4
-2 7 2 47.94 3.66
2 -7 -1 642.87 20.4
-2 7 1 703.14 19.44
2 -7 -1 657.97 18.85
2 -7 -1 650.45 18.8
2 -7 -1 659.41 18.89
2 -7 -1 638.26 18.88
-2 7 1 688.6 18.77
2 -7 -1 658.31 20.67
2 -7 -1 661.75 18.86
-2 7 1 626.76 18.89
2 -7 -1 670.56 20.81
2 -7 -1 659.81 20.43
-2 7 1 701.79 19.52
2 -7 0 4.62 1.55
-2 7 0 5.3 1.22
2 -7 0 5.45 1.26
2 -7 0 3.65 1.2
2 -7 0 2.4 1.01
2 -7 0 4.81 1.21
2 -7 0 5.53 1.42
-2 7 0 2.03 0.73
-2 7 0 5.01 1.26
2 -7 0 4.06 1.4
-2 7 0 5.28 1.24
2 -7 0 2.15 1.05
2 -7 1 21.92 2.81
-2 7 -1 21.83 2.41
-2 7 -1 23.37 2.69
2 -7 1 23.37 2.63
2 -7 1 22.46 2.42
2 -7 1 21.39 2.42
2 -7 1 20.05 2.36
2 -7 1 19.66 2.33
-2 7 -1 20.18 2.37
2 -7 1 21.26 2.83
-2 7 -1 20.04 2.35
2 -7 1 20.86 2.81
2 -7 1 22.02 2.86
-2 7 -1 25.49 2.52
-2 7 -2 307.75 10.79
2 -7 2 295.81 11.64
2 -7 2 300.45 12.09
-2 7 -2 295.05 11.53
2 -7 2 310.93 11.58
2 -7 2 314.11 11.23
2 -7 2 308.95 11.13
2 -7 2 311.54 11.17
2 -7 2 317.24 11.31
2 -7 2 313.89 11.35
2 -7 2 297.71 12.47
-2 7 -2 311.61 11.5
-2 7 -2 298.49 11.25
2 -7 2 312.75 12.65
-2 7 -2 296.3 11.05
-2 7 -2 317.22 10.6
-2 7 -2 281.11 9.66
2 -7 3 280.38 11.55
2 -7 3 251.63 10.72
-2 7 -3 274.35 9.93
-2 7 -3 254.39 10.81
2 -7 3 284.24 11.03
2 -7 3 277.75 10.61
2 -7 3 274 10.58
2 -7 3 263.81 10.45
2 -7 3 283.07 10.76
2 -7 3 267.79 10.67
-2 7 -3 267.87 10.78
2 -7 3 259.47 11.67
-2 7 -3 272.25 10.72
-2 7 -3 273.05 10.54
2 -7 3 266.82 11.85
-2 7 -3 245.26 9.1
-2 7 -3 264.82 9.45
2 -7 4 129.85 7.36
2 -7 4 137.18 7.78
2 -7 4 151.4 7.89
-2 7 -4 123.4 7.37
2 -7 4 155.59 7.59
2 -7 4 137.44 7.22
2 -7 4 138.02 7.23
2 -7 4 152.57 7.63
2 -7 4 143.98 7.49
-2 7 -4 160.86 8.04
-2 7 -4 139.95 7.38
2 -7 4 144.24 8.53
-2 7 -4 141.74 7.31
2 -7 4 135.1 8.3
-2 7 -4 128.46 6.28
2 -7 5 52.78 4.85
2 -7 5 51.41 4.62
-2 7 -5 47.67 4.56
2 -7 5 51.34 4.44
2 -7 5 48.8 4.31
2 -7 5 56.05 4.61
2 -7 5 47.98 4.35
-2 7 -5 53.24 4.61
-2 7 -5 55.08 4.65
2 -7 5 45.56 4.92
-2 7 -5 57.18 4.71
-2 7 -5 56.49 4.2
2 -7 5 55.65 5.3
-2 7 -6 435.48 17.02
2 -7 6 490.13 17.49
2 -7 6 464.72 16.61
2 -7 6 466.2 16.59
2 -7 6 465.74 16.64
2 -7 6 454.54 16.61
-2 7 -6 447.56 16.46
2 -7 6 467.61 18.47
-2 7 -6 432.76 16.15
-2 7 -6 443.95 15.35
2 -7 6 451.09 18.33
2 -7 7 69.52 6.05
-2 7 -7 70.79 6.17
2 -7 7 73.78 5.83
2 -7 7 73.55 5.82
2 -7 7 72.33 5.81
2 -7 7 73.78 5.95
-2 7 -7 84.14 6.29
-2 7 -7 64.29 5.8
-2 7 -7 68.65 5.73
-2 7 -7 71.35 5.74
2 -7 7 73.91 6.69
-2 7 -7 61.95 4.98
2 -7 7 69.75 6.6
-2 7 -8 24.95 3.87
2 -7 8 27.23 3.92
2 -7 8 28.86 3.79
2 -7 8 27.36 3.75
2 -7 8 25.1 3.53
2 -7 8 31.61 4
-2 7 -8 35.15 4.27
2 -7 8 21.97 3.86
-2 7 -8 25.24 3.59
-2 7 -8 20.35 3.41
2 -7 8 22.82 4.01
-2 7 -8 28.91 3.83
-2 7 -8 27.17 3.51
2 -7 9 0.01 1.1
2 -7 9 -1.02 1.24
2 -7 9 0.42 1.1
2 -7 9 -1.8 1.3
-2 7 -9 1.51 1.09
2 -7 9 -0.18 1.26
-2 7 -9 3.03 1.93
-2 7 -9 -0.29 0.98
-2 7 -9 0.88 1.05
2 -7 9 0.43 1.45
2 -7 9 2.39 1.5
-2 7 -9 -1.21 1.46
2 -7 10 29.96 4.41
2 -7 10 26.58 4.13
2 -7 10 23.43 4.02
2 -7 10 26.04 4.02
-2 7 -10 21.57 3.83
-2 7 -10 25.01 4.08
-2 7 -10 25.07 4.13
2 -7 10 26.85 4.62
2 -7 10 34.29 5.32
-2 7 -10 35.26 4.5
-2 7 -10 25.36 4.08
2 -7 10 32.54 4.63
2 -6 -13 106.14 8.05
-2 6 13 103.86 7.39
2 -6 -12 9.2 2.38
-2 6 12 18.79 3.34
-2 6 12 13.79 2.91
2 -6 -12 15.13 3.03
-2 6 12 18.64 3.39
2 -6 -12 12.82 2.65
2 -6 -12 14.94 2.94
2 -6 -12 12.21 2.6
2 -6 -12 13.41 2.81
2 -6 -12 19 3.22
2 -6 -12 13.79 2.88
-2 6 12 11.22 2.37
2 -6 -11 244.79 12.69
-2 6 11 235.96 12.04
-2 6 11 256.46 12.45
-2 6 11 242.88 11.93
2 -6 -11 252.78 12.1
2 -6 -11 236.71 12
2 -6 -11 228.66 11.71
2 -6 -11 227.89 11.62
2 -6 -11 237.78 11.88
2 -6 -11 233.76 12
2 -6 -11 223.96 11.15
-2 6 11 235.89 11.04
-2 6 10 314.54 12.84
-2 6 10 320.61 13.7
2 -6 -10 314.76 14.06
-2 6 10 327.38 13.69
-2 6 10 320.33 13.81
2 -6 -10 320.27 13.55
2 -6 -10 309.73 13.58
2 -6 -10 311.62 13.69
2 -6 -10 311.55 13.52
2 -6 -10 309.05 13.69
2 -6 -10 307.97 13.37
2 -6 -10 310.63 12.86
-2 6 10 306.91 12.16
2 -6 -9 131.63 8.64
-2 6 9 137.82 7.65
2 -6 -9 137.49 8.26
-2 6 9 139.29 8.08
-2 6 9 132.42 7.84
2 -6 -9 129.45 7.83
2 -6 -9 134.38 7.83
2 -6 -9 136.66 8.21
2 -6 -9 142.29 8.08
2 -6 -9 129.95 7.7
2 -6 -9 134.35 7.34
-2 6 9 132.27 7.09
2 -6 -8 29.66 3.8
-2 6 8 32.31 3.43
2 -6 -8 31.43 3.66
-2 6 8 30.67 3.46
-2 6 8 30.4 3.42
2 -6 -8 35.34 3.65
2 -6 -8 31.9 3.51
2 -6 -8 31.89 3.64
2 -6 -8 31.42 3.4
2 -6 -8 30.54 3.33
2 -6 -8 31.77 3.2
-2 6 8 35.56 3.32
2 -6 -7 0.2 0.86
-2 6 7 0.78 0.91
-2 6 7 1.52 1.06
2 -6 -7 0.1 0.61
2 -6 -7 2.57 1.26
2 -6 -7 0.58 0.66
2 -6 -7 1.65 0.9
2 -6 -7 -0.05 0.62
-2 6 7 1.1 0.83
2 -6 -7 2.89 1.43
-2 6 7 1.2 0.94
-2 6 6 134.56 7.02
2 -6 -6 125.68 7.02
2 -6 -6 135.38 6.93
2 -6 -6 138.16 6.89
2 -6 -6 140.22 7
2 -6 -6 143.97 7.69
2 -6 -6 142.81 7.08
2 -6 -6 148.01 7.08
2 -6 -6 146.12 8.06
-2 6 6 137.9 7.12
-2 6 6 139.85 6.79
-2 6 5 10.66 1.88
2 -6 -5 12.41 1.95
2 -6 -5 12.44 1.84
2 -6 -5 11.8 1.82
2 -6 -5 9.34 1.91
2 -6 -5 13.65 1.93
2 -6 -5 16.23 2.11
2 -6 -5 13.88 1.97
-2 6 5 12.29 1.96
2 -6 -5 10.86 2.07
-2 6 5 9.66 1.73
-2 6 4 41.22 3.38
2 -6 -4 42.87 3.55
2 -6 -4 41.29 3.33
2 -6 -4 39.28 3.19
2 -6 -4 42.06 3.27
2 -6 -4 46.12 3.99
-2 6 4 39.71 2.43
2 -6 -4 41.75 3.32
2 -6 -4 43.16 3.33
-2 6 4 44.32 3.57
2 -6 -4 41.26 3.85
-2 6 4 43.24 3.37
2 -6 -3 183.22 7.49
2 -6 -3 177.86 7.37
2 -6 -3 179.31 7.38
2 -6 -3 205.17 8.78
-2 6 3 185.94 6.68
2 -6 -3 194.21 7.59
-2 6 3 199.79 7.96
2 -6 -3 191.83 8.73
-2 6 3 203.76 8.19
2 -6 -2 1107.28 29.19
-2 6 2 1147.11 28.27
2 -6 -2 1063.45 27.22
2 -6 -2 1073.58 27.39
2 -6 -2 1078.74 27.27
2 -6 -2 1078.06 27.28
-2 6 2 1007.62 26.38
2 -6 -2 1074.78 27.25
-2 6 2 1034.14 27.45
-2 6 2 1205.88 28.14
2 -6 -1 539.73 16.63
-2 6 1 554.58 15.79
2 -6 -1 524 15.1
2 -6 -1 521.36 15.08
2 -6 -1 535.05 15.18
2 -6 -1 532.18 15.17
-2 6 1 519.92 14.87
2 -6 -1 524.03 15.06
-2 6 1 527.37 15.26
-2 6 1 536.41 15.39
2 -6 -1 522.6 16.56
-2 6 1 481.97 13.33
2 -6 0 504.29 15.86
-2 6 0 518.24 14.95
2 -6 0 489.69 14.46
2 -6 0 501.26 14.58
2 -6 0 504.87 14.58
2 -6 0 498.92 14.46
-2 6 0 514.61 14.73
2 -6 0 502.13 16.19
-2 6 0 482.2 14.48
2 -6 0 515.85 16.28
-2 6 0 525.32 14.75
2 -6 0 491.84 15.98
-2 6 0 446.37 12.78
-2 6 -1 2.2 0.86
2 -6 1 1.9 0.95
2 -6 1 1.15 0.59
2 -6 1 3.09 0.92
2 -6 1 3.03 0.9
2 -6 1 2.07 0.82
-2 6 -1 6.27 1.26
2 -6 1 3.21 1.19
-2 6 -1 3.06 1.01
2 -6 1 4.79 1.44
-2 6 -1 2.56 0.8
-2 6 -1 2.43 0.67
2 -6 1 2.21 0.99
2 -6 2 674.95 19.95
2 -6 2 692.37 20.25
-2 6 -2 710.84 19.02
-2 6 -2 681.53 19.69
2 -6 2 711.05 19.68
2 -6 2 692.17 19.23
2 -6 2 684.49 19.13
2 -6 2 675.71 19.03
2 -6 2 713.13 19.3
2 -6 2 703.29 19.38
-2 6 -2 680.49 19.57
2 -6 2 676.14 20.72
-2 6 -2 648.8 19.11
2 -6 2 695.05 20.83
-2 6 -2 659.45 19.02
-2 6 -2 687.06 18.42
2 -6 2 691.53 20.71
-2 6 -2 636.07 17.52
2 -6 3 40.81 3.58
2 -6 3 40.66 3.68
-2 6 -3 36.48 2.98
-2 6 -3 38.55 3.46
2 -6 3 43.65 3.56
2 -6 3 42.94 3.4
2 -6 3 44.87 3.48
2 -6 3 42.65 3.34
2 -6 3 40.06 3.36
2 -6 3 39.69 3.35
-2 6 -3 39.32 3.43
2 -6 3 43.26 4.02
-2 6 -3 37.28 3.26
2 -6 3 41.56 3.96
-2 6 -3 44.7 3.47
-2 6 -3 42.08 2.88
-2 6 -3 43.73 3.01
2 -6 4 526.19 17.3
2 -6 4 523.43 17.08
-2 6 -4 518.42 17.14
2 -6 4 554.28 17.15
2 -6 4 536 16.58
2 -6 4 540.77 16.52
2 -6 4 536.71 16.54
2 -6 4 529.2 16.61
2 -6 4 532.39 16.7
-2 6 -4 593.06 17.5
-2 6 -4 516.14 15.54
-2 6 -4 528.8 16.67
2 -6 4 545.74 18.22
-2 6 -4 533.39 16.48
-2 6 -4 490.34 15.16
2 -6 4 547.95 18.37
-2 6 -4 531.72 14.65
2 -6 5 429.85 15.32
2 -6 5 441.7 15.18
-2 6 -5 416.85 15.12
2 -6 5 435.99 14.63
2 -6 5 426.32 14.61
2 -6 5 436.24 14.59
2 -6 5 436.93 14.72
-2 6 -5 467.67 15.22
-2 6 -5 387.36 13.06
-2 6 -5 421.73 14.62
2 -6 5 461.41 16.54
-2 6 -5 414.36 14.42
-2 6 -5 408.59 13.44
2 -6 5 438.6 16.35
-2 6 -6 149.28 8.27
2 -6 6 161.99 8.44
2 -6 6 155.25 7.98
2 -6 6 154.71 7.94
2 -6 6 151.78 7.86
2 -6 6 148.09 7.91
-2 6 -6 169.12 8.37
-2 6 -6 141.58 7.72
2 -6 6 151.97 8.94
-2 6 -6 142.31 7.71
-2 6 -6 141.28 7.04
2 -6 6 147.16 8.86
2 -6 7 231.17 10.8
-2 6 -7 199.98 10.32
2 -6 7 220.82 10.33
2 -6 7 225.64 10.47
2 -6 7 213.65 10.28
2 -6 7 210.05 10.25
-2 6 -7 249.79 10.92
-2 6 -7 212.76 10.2
-2 6 -7 196.35 10.16
-2 6 -7 205.62 10.02
2 -6 7 220.59 11.54
-2 6 -7 203.26 9.26
2 -6 7 222.57 11.69
-2 6 -8 20.31 3.29
2 -6 8 18.49 3.13
2 -6 8 17.69 2.83
2 -6 8 18.63 2.94
2 -6 8 23.4 3.24
2 -6 8 19.56 3.08
-2 6 -8 16.92 2.86
2 -6 8 14.94 3.18
2 -6 8 14.79 2.62
-2 6 -8 17.47 2.92
-2 6 -8 20.4 3.23
-2 6 -8 16.97 2.76
2 -6 8 17.57 3.26
-2 6 -8 15.45 2.57
2 -6 9 4.25 1.67
-2 6 -9 3.45 1.77
2 -6 9 3.97 1.61
2 -6 9 1.99 1.13
2 -6 9 2.35 1.23
2 -6 9 4.17 1.26
2 -6 9 3.59 1.7
-2 6 -9 4.51 1.89
-2 6 -9 4.9 1.81
-2 6 -9 2.78 1.67
-2 6 -9 1.2 0.99
2 -6 9 5.71 2.3
-2 6 -9 2.94 1.18
-2 6 -10 102.81 8.34
2 -6 10 116.87 8.77
2 -6 10 121.11 8.41
2 -6 10 117.79 8.34
2 -6 10 127.47 8.67
2 -6 10 117.39 8.43
-2 6 -10 136.96 8.56
-2 6 -10 113.61 8.31
-2 6 -10 102.46 7.98
2 -6 10 120.84 9.52
-2 6 -10 114.78 8.23
2 -6 10 108.38 9.14
-2 6 -10 114.88 7.87
-2 6 -11 17.24 3.54
2 -6 11 15.37 3.31
2 -6 11 14.15 3.08
2 -6 11 17.33 3.2
2 -6 11 13.85 3.05
2 -6 11 18.98 3.92
-2 6 -11 22.45 3.61
-2 6 -11 12.8 2.9
-2 6 -11 14.78 3.02
2 -6 11 14.91 3.52
-2 6 -11 14.77 3.03
-2 6 -11 17.07 3.21
2 -5 -14 74.75 7.18
-2 5 13 17.88 3.46
2 -5 -13 16.4 3.23
-2 5 13 19.08 3.55
-2 5 13 15.61 3.12
2 -5 -13 14.86 2.98
2 -5 -13 14.99 3.02
2 -5 -13 16.42 3.21
2 -5 -13 13.62 2.95
2 -5 -13 17.09 3.5
2 -5 -13 14.5 3.06
-2 5 13 15 3.32
2 -5 -13 12.81 3.14
-2 5 12 187.01 10.78
2 -5 -12 201.46 11.66
-2 5 12 197.33 11.19
-2 5 12 195.19 10.89
2 -5 -12 191.37 10.98
2 -5 -12 200.79 11
-2 5 12 198.28 10.55
2 -5 -12 180.95 10.33
2 -5 -12 202.85 11.31
2 -5 -12 187.85 10.68
2 -5 -12 207.77 11.25
2 -5 -12 189.07 10.56
-2 5 12 184.04 9.54
-2 5 11 9.94 2.28
2 -5 -11 7.76 2.17
-2 5 11 8.14 2.12
2 -5 -11 8.25 2.08
-2 5 11 9 2.31
-2 5 11 5.48 1.68
2 -5 -11 9.46 2.23
2 -5 -11 7.87 1.96
2 -5 -11 10.71 2.26
2 -5 -11 8.63 2.11
2 -5 -11 9.98 2.27
2 -5 -11 11.88 2.64
-2 5 11 10.03 1.99
-2 5 10 31.17 3.41
-2 5 10 33.19 3.91
2 -5 -10 31.29 3.87
-2 5 10 29.62 3.73
-2 5 10 33.55 3.95
2 -5 -10 34.2 3.79
2 -5 -10 34.75 3.94
-2 5 10 35.37 3.96
2 -5 -10 31.88 3.75
2 -5 -10 33.26 3.81
2 -5 -10 33.82 3.9
2 -5 -10 30.54 3.75
2 -5 -10 29.92 3.58
-2 5 10 31.45 3.24
-2 5 9 49.87 4.25
-2 5 9 49.54 4.51
2 -5 -9 50.97 4.75
-2 5 9 49.68 4.45
-2 5 9 48.75 4.44
2 -5 -9 50.43 4.44
2 -5 -9 45.63 4.39
2 -5 -9 53.14 4.68
-2 5 9 50.95 4.57
2 -5 -9 50.6 4.5
2 -5 -9 52.45 4.52
2 -5 -9 53.41 4.7
2 -5 -9 53.09 4.4
-2 5 9 49.14 3.95
-2 5 8 7 1.6
-2 5 8 7.06 1.57
2 -5 -8 7.27 1.8
-2 5 8 8.61 1.75
2 -5 -8 6.31 1.69
-2 5 8 9.35 1.93
-2 5 8 7.39 1.75
2 -5 -8 7.88 1.96
2 -5 -8 7.7 1.65
2 -5 -8 4.93 1.41
2 -5 -8 7.04 1.49
2 -5 -8 7.83 1.53
2 -5 -8 8.06 1.86
-2 5 8 5.45 1.26
-2 5 7 69.04 4.71
-2 5 7 71.06 4.92
2 -5 -7 75.59 5.2
-2 5 7 75.12 5
-2 5 7 73.17 4.98
2 -5 -7 77.24 4.98
2 -5 -7 74.91 5.01
2 -5 -7 69.96 5.07
-2 5 7 71.09 5.04
2 -5 -7 76.2 4.97
2 -5 -7 73.88 4.99
2 -5 -7 71.71 4.8
2 -5 -7 66.7 4.37
-2 5 7 67.92 4.45
-2 5 6 141.03 6.79
2 -5 -6 134.67 7.42
-2 5 6 132.41 6.62
2 -5 -6 135.38 6.88
-2 5 6 127.69 6.48
2 -5 -6 138.07 6.63
2 -5 -6 136.6 6.69
-2 5 6 131.74 6.97
2 -5 -6 131.97 7.03
2 -5 -6 133.15 6.59
2 -5 -6 137.1 6.58
2 -5 -6 133.78 5.84
-2 5 6 136.55 6.4
-2 5 5 326.53 11.34
2 -5 -5 323.05 12.18
-2 5 5 290.57 9.31
2 -5 -5 323.74 11.39
-2 5 5 330.31 11.16
-2 5 5 328.42 11.19
2 -5 -5 332.14 11.02
2 -5 -5 321.67 11.06
2 -5 -5 329.98 11.9
2 -5 -5 327.46 11.06
2 -5 -5 330.26 11.02
2 -5 -5 320.18 9.91
-2 5 5 338.09 11.11
2 -5 -4 817.78 22.84
-2 5 4 830.99 21.9
-2 5 4 811.3 21.44
2 -5 -4 792.82 21.64
2 -5 -4 791.51 21.3
2 -5 -4 790.25 21.13
2 -5 -4 779.47 21.13
2 -5 -4 828.25 22.47
-2 5 4 760.59 18.92
2 -5 -4 787.63 21.07
2 -5 -4 785.66 21.17
2 -5 -4 796.95 19.41
-2 5 4 829.35 21.46
-2 5 3 127.81 5.81
2 -5 -3 128.73 5.97
2 -5 -3 134.13 5.8
2 -5 -3 139.88 5.84
2 -5 -3 137.78 5.77
2 -5 -3 138.26 6.63
-2 5 3 127.96 4.88
2 -5 -3 138.52 5.88
2 -5 -3 129.7 5.66
2 -5 -3 144.96 6.84
-2 5 3 148.16 6.4
-2 5 3 143.9 6.12
2 -5 -2 13.2 1.57
2 -5 -2 10.65 1.38
2 -5 -2 13.1 1.52
2 -5 -2 13.78 1.98
-2 5 2 11.56 1.36
2 -5 -2 11.5 1.46
-2 5 2 13.39 1.72
2 -5 -2 12.26 1.79
-2 5 2 12.72 1.78
2 -5 -1 417.65 13.3
-2 5 1 437.2 12.76
2 -5 -1 412.15 11.96
2 -5 -1 403.82 11.94
2 -5 -1 414.42 12.08
2 -5 -1 385.95 11.94
-2 5 1 418.95 11.97
2 -5 -1 438.69 13.32
2 -5 -1 403.46 11.98
-2 5 1 386.19 12.21
-2 5 1 468.32 12.78
-2 5 1 414.63 10.63
-2 5 0 123.35 5.54
2 -5 0 128.66 6.08
2 -5 0 121.4 5.22
2 -5 0 118.55 5.05
2 -5 0 122.55 5.18
2 -5 0 121.78 5.14
-2 5 0 122.45 5.33
2 -5 0 124.21 5.19
-2 5 0 113.94 5.14
2 -5 0 128.61 6.29
-2 5 0 124.1 5.31
-2 5 0 116.21 4.12
2 -5 0 126.79 6.18
-2 5 -1 156.11 6.4
2 -5 1 157.98 6.9
2 -5 1 153.97 6.13
2 -5 1 155.8 6.13
2 -5 1 157.39 6.19
2 -5 1 148.78 6.11
2 -5 1 148.25 7.04
-2 5 -1 169.79 6.63
2 -5 1 155.86 7.15
-2 5 -1 153.49 6.17
-2 5 -1 170.47 6.31
2 -5 1 155.04 7.09
-2 5 -1 143.32 5.08
2 -5 2 140.34 6.54
2 -5 2 134.48 6.36
-2 5 -2 136.05 5.84
-2 5 -2 135.01 6.2
2 -5 2 141.52 6.15
2 -5 2 138.02 5.87
2 -5 2 142.67 5.95
2 -5 2 141.2 5.95
2 -5 2 139.12 5.9
2 -5 2 148.01 6.06
2 -5 2 141.25 6.9
-2 5 -2 138.49 6.28
-2 5 -2 134.68 5.97
2 -5 2 136.33 6.74
-2 5 -2 135.98 5.89
-2 5 -2 136.91 5.54
2 -5 2 140.26 6.79
-2 5 -2 124.66 4.9
2 -5 3 469.86 15.04
-2 5 -3 467.53 13.96
2 -5 3 488.38 15.04
-2 5 -3 468.33 14.71
2 -5 3 478.93 14.6
2 -5 3 484.97 14.26
2 -5 3 482.65 14.23
2 -5 3 499.59 14.41
2 -5 3 499.11 14.42
2 -5 3 494.04 14.49
2 -5 3 465.52 15.66
-2 5 -3 467.17 14.32
2 -5 3 477.97 15.59
-2 5 -3 476.2 14.17
-2 5 -3 498.35 13.37
-2 5 -3 439.1 13.06
2 -5 4 379.81 13.1
2 -5 4 379.84 13.02
-2 5 -4 380.2 13
2 -5 4 411.32 13.05
2 -5 4 392.34 12.5
2 -5 4 389.58 12.58
2 -5 4 384.84 12.44
2 -5 4 376.3 12.45
-2 5 -4 384.12 12.85
-2 5 -4 369.45 11.86
-2 5 -4 379.23 12.51
2 -5 4 399.34 13.89
-2 5 -4 387.46 12.48
-2 5 -4 354.54 11.4
2 -5 4 371.41 13.68
-2 5 -4 370.8 10.77
2 -5 5 33.98 3.35
2 -5 5 37.32 3.41
2 -5 5 38.3 3.51
-2 5 -5 38.99 3.64
2 -5 5 38.06 3.33
2 -5 5 41.89 3.44
2 -5 5 36.86 3.28
2 -5 5 37.63 3.32
-2 5 -5 42.24 3.69
-2 5 -5 34.51 3.24
2 -5 5 42.98 4.03
-2 5 -5 37.3 3.27
-2 5 -5 37.74 3.07
2 -5 5 35.93 3.75
2 -5 6 49.93 4.26
-2 5 -6 41.87 4.02
2 -5 6 45.46 3.88
2 -5 6 43.5 3.75
2 -5 6 48.54 3.98
2 -5 6 45.13 3.89
-2 5 -6 52.44 4.27
-2 5 -6 40.32 3.87
-2 5 -6 41.36 3.78
2 -5 6 46.81 4.47
-2 5 -6 46.66 3.94
-2 5 -6 41.7 3.51
2 -5 6 45.18 4.44
2 -5 7 36.58 3.83
-2 5 -7 34.62 3.84
2 -5 7 45.01 4.01
2 -5 7 36.06 3.66
2 -5 7 38.14 3.66
2 -5 7 37.06 3.72
-2 5 -7 35.71 3.62
-2 5 -7 30.63 3.61
-2 5 -7 31.07 3.47
-2 5 -7 35.51 3.67
2 -5 7 30.53 3.83
2 -5 7 33.63 4.02
-2 5 -7 36.18 3.36
-2 5 -8 3.69 1.59
2 -5 8 9.18 2.18
2 -5 8 7.44 1.74
2 -5 8 10.07 1.99
2 -5 8 11.9 2.23
2 -5 8 8.46 1.95
-2 5 -8 9.01 2.04
2 -5 8 9.35 2.14
2 -5 8 10.55 2.4
-2 5 -8 8.23 1.92
-2 5 -8 7.98 2.05
2 -5 8 8.84 2.28
-2 5 -8 10.33 2.17
-2 5 -8 8.74 2.08
-2 5 -9 29.8 4
2 -5 9 43.52 4.73
2 -5 9 40.85 4.4
2 -5 9 37.8 4.18
2 -5 9 37.84 4.19
2 -5 9 36.89 4.21
-2 5 -9 47.44 4.59
-2 5 -9 31.45 4.03
-2 5 -9 35.55 4.12
2 -5 9 37.26 4.72
-2 5 -9 36.18 4.13
-2 5 -9 44.47 4.34
2 -5 9 45.38 5.2
-2 5 -10 9.89 2.59
2 -5 10 11.87 2.63
2 -5 10 10.93 2.35
2 -5 10 13.11 2.71
2 -5 10 13.54 2.64
2 -5 10 14.73 2.79
2 -5 10 10.76 2.89
-2 5 -10 12.68 2.61
-2 5 -10 16.8 2.93
-2 5 -10 14.59 2.95
-2 5 -10 12.31 2.57
2 -5 10 9.19 2.74
-2 5 -10 13.5 2.63
2 -5 11 5.39 2.16
-2 5 -11 3.96 1.92
2 -5 11 3.11 1.6
2 -5 11 2.4 1.5
2 -5 11 3.08 1.69
-2 5 -11 5.42 2.08
-2 5 -11 1.28 1.2
-2 5 -11 3.25 1.69
-2 5 -11 5.11 2.03
2 -5 11 5.01 2.4
2 -5 11 8.84 2.69
-2 5 -11 3.27 1.59
2 -5 12 189.96 11.53
2 -5 12 196.28 11.97
2 -5 12 185.07 11.4
-2 5 -12 224.33 11.27
-2 5 -12 175.73 11.04
-2 5 -12 182.52 11.26
-2 5 -12 186.78 11.51
-2 5 -12 201.98 11.68
-2 5 -12 193.04 12.17
2 -5 12 186.57 11.89
-2 4 14 3.27 1.62
2 -4 -14 4.96 2.05
-2 4 14 5.74 2.31
2 -4 -14 8.46 2.54
2 -4 -14 6.81 2.33
2 -4 -14 5.6 2.16
2 -4 -14 7.5 2.78
2 -4 -14 5.69 1.99
-2 4 14 3.45 1.64
2 -4 -14 4.64 1.89
-2 4 13 301.51 14.62
-2 4 13 285.51 14.49
2 -4 -13 270.8 14.09
2 -4 -13 276 13.9
-2 4 13 284.12 13.3
2 -4 -13 269.26 14.06
2 -4 -13 281.16 13.99
2 -4 -13 278.92 14.21
2 -4 -13 277.68 14.04
-2 4 13 271.25 14.36
2 -4 -13 300.81 15.3
-2 4 12 4.04 1.75
2 -4 -12 2.02 1.09
-2 4 12 5.15 1.87
-2 4 12 0.74 0.88
2 -4 -12 4.89 1.63
2 -4 -12 1.42 1.43
2 -4 -12 3.38 1.64
2 -4 -12 6.33 1.88
2 -4 -12 2.81 1.58
2 -4 -12 1.43 1.28
2 -4 -12 3.01 1.7
-2 4 12 3.55 1.62
2 -4 -11 12.37 2.58
-2 4 11 14.35 2.71
-2 4 11 16.49 2.99
2 -4 -11 15.16 2.83
-2 4 11 14.33 2.74
-2 4 11 15.54 2.73
2 -4 -11 12.74 2.43
2 -4 -11 16.44 2.85
2 -4 -11 16.53 2.81
2 -4 -11 14.93 2.62
2 -4 -11 13.92 2.71
2 -4 -11 11.69 2.58
-2 4 11 12.1 2.19
-2 4 10 43.76 4.46
2 -4 -10 39.22 4.35
-2 4 10 40.39 4.22
-2 4 10 47.43 4.56
2 -4 -10 43.71 4.42
2 -4 -10 44.34 4.34
2 -4 -10 47.12 4.41
-2 4 10 40.28 4.16
2 -4 -10 45.23 4.45
2 -4 -10 41.99 4.25
2 -4 -10 50.21 4.7
2 -4 -10 41.85 4.17
-2 4 10 45.98 4
-2 4 9 16.23 2.32
-2 4 9 22.3 2.91
2 -4 -9 21.57 3
-2 4 9 20.96 2.79
-2 4 9 21.61 2.89
2 -4 -9 20.4 2.76
2 -4 -9 21.26 2.87
-2 4 9 19.35 2.68
2 -4 -9 15.76 2.5
2 -4 -9 17.07 2.51
2 -4 -9 18.6 2.63
2 -4 -9 21.03 2.71
2 -4 -9 22.19 2.91
-2 4 9 20.99 2.46
-2 4 8 52.13 3.99
2 -4 -8 51.79 4.42
-2 4 8 57.98 4.51
-2 4 8 51.34 4.23
-2 4 8 55.9 4.33
2 -4 -8 55.08 4.41
2 -4 -8 52.74 4.22
2 -4 -8 56.26 4.53
-2 4 8 55.16 4.38
2 -4 -8 56.71 4.38
2 -4 -8 53 4.33
2 -4 -8 56.76 4.37
2 -4 -8 51.36 4.02
-2 4 8 54.32 3.9
-2 4 7 384.33 13.28
-2 4 7 395.72 13.61
2 -4 -7 402.85 14.04
-2 4 7 426.22 13.76
-2 4 7 418.51 13.8
2 -4 -7 412.22 13.63
2 -4 -7 407.5 13.71
-2 4 7 413.98 13.97
2 -4 -7 409.19 14.13
2 -4 -7 417.9 13.65
2 -4 -7 406.68 13.68
2 -4 -7 420.28 13.72
2 -4 -7 398.18 12.97
-2 4 7 372.91 12.72
-2 4 6 17.03 2.1
2 -4 -6 18.29 2.31
-2 4 6 21.15 2.36
-2 4 6 22.6 2.38
-2 4 6 22.19 2.41
2 -4 -6 20.23 2.21
2 -4 -6 19.44 2.24
2 -4 -6 22.49 2.58
-2 4 6 21.86 2.56
2 -4 -6 23.66 2.39
2 -4 -6 18.71 2.18
2 -4 -6 19.24 2.17
2 -4 -6 20.63 2.07
-2 4 6 21.19 2.24
-2 4 5 793.24 19.63
-2 4 5 819.78 22.05
-2 4 5 855.87 21.96
2 -4 -5 823.17 22.11
-2 4 5 825.49 21.89
-2 4 5 839.27 21.8
2 -4 -5 818.09 21.62
2 -4 -5 824.17 21.8
-2 4 5 794.17 22.48
2 -4 -5 828.15 22.66
2 -4 -5 827.43 21.65
2 -4 -5 811.23 21.77
2 -4 -5 827.4 21.72
2 -4 -5 828.83 20.83
-2 4 5 822.57 21.62
-2 4 4 277.03 8.17
2 -4 -4 302.62 10.69
-2 4 4 278.98 9.78
-2 4 4 293.65 9.54
2 -4 -4 295.75 9.77
-2 4 4 304.93 9.65
2 -4 -4 287.7 9.36
2 -4 -4 296.45 9.49
-2 4 4 280.33 10.14
2 -4 -4 299.07 10.33
-2 4 4 273.57 7.49
2 -4 -4 299.34 10.08
2 -4 -4 284.86 9.39
2 -4 -4 293.26 9.4
2 -4 -4 284.61 8.48
-2 4 4 296.94 9.63
2 -4 -3 179.45 7.37
-2 4 3 171.37 6.81
2 -4 -3 162.9 6.45
-2 4 3 176.33 6.46
2 -4 -3 174.1 6.42
2 -4 -3 179.38 6.38
2 -4 -3 170.64 6.29
-2 4 3 160.05 5.3
2 -4 -3 168.85 6.77
2 -4 -3 176.46 7.17
2 -4 -3 178.9 6.4
2 -4 -3 175.06 6.29
2 -4 -3 161.46 5.19
-2 4 3 187.08 6.85
2 -4 -2 45.96 2.87
-2 4 2 50.54 2.96
2 -4 -2 46.45 2.75
2 -4 -2 48.41 2.76
2 -4 -2 49.01 2.78
2 -4 -2 50.5 3.4
-2 4 2 50.81 2.6
2 -4 -2 48.66 2.79
2 -4 -2 46.92 2.71
-2 4 2 48.03 3.06
2 -4 -2 41.59 1.95
-2 4 2 50.05 3.19
2 -4 -2 50.77 3.46
-2 4 1 674.97 17.38
2 -4 -1 639.27 17.75
2 -4 -1 643.83 16.4
2 -4 -1 645.03 16.41
2 -4 -1 636.87 16.41
2 -4 -1 645.26 16.48
2 -4 -1 662.29 17.68
-2 4 1 660.73 16.5
2 -4 -1 626.95 16.35
-2 4 1 667.86 16.58
-2 4 1 674.99 17.2
-2 4 1 625.26 15.12
2 -4 0 2701.23 58.51
-2 4 0 2838.56 58.16
2 -4 0 2719.72 57.05
2 -4 0 2714.82 56.99
2 -4 0 2776.49 57.11
2 -4 0 2669.57 57.02
2 -4 0 2814.11 58.44
-2 4 0 2377.5 57.19
2 -4 0 2726.5 57.08
-2 4 0 2846.87 57.29
-2 4 0 2675.42 57.58
-2 4 0 2385.27 55.34
2 -4 1 126.97 5.44
-2 4 -1 125.59 5.15
2 -4 1 122.99 4.74
2 -4 1 119.58 4.71
2 -4 1 126.89 4.81
2 -4 1 131.13 4.9
-2 4 -1 124.24 5.19
2 -4 1 121.98 5.75
-2 4 -1 125.69 4.83
2 -4 1 137.97 5.95
-2 4 -1 129.73 4.95
2 -4 1 127.5 5.78
-2 4 -1 114.5 3.85
-2 4 -2 87.43 4.19
2 -4 2 77.86 4.23
-2 4 -2 80.4 4.1
2 -4 2 79.8 3.99
2 -4 2 80.63 3.87
2 -4 2 84.04 3.91
2 -4 2 80.43 3.84
2 -4 2 81.79 3.89
2 -4 2 77.06 3.85
-2 4 -2 86.88 4.41
2 -4 2 80.68 4.7
-2 4 -2 76.99 3.88
2 -4 2 77.07 4.49
-2 4 -2 79.4 3.83
2 -4 2 75.26 4.46
-2 4 -2 71.11 3.16
-2 4 -2 71.93 3.54
2 -4 3 368.17 11.39
2 -4 3 338.86 11.46
-2 4 -3 348.45 10.69
-2 4 -3 348.68 11.15
2 -4 3 367.52 11.15
2 -4 3 356.9 10.79
2 -4 3 348.82 10.66
2 -4 3 357.29 10.75
2 -4 3 337.71 10.62
2 -4 3 360.88 10.88
2 -4 3 358.51 12.07
-2 4 -3 390.48 11.69
-2 4 -3 348.8 10.8
2 -4 3 358.76 11.93
-2 4 -3 348.21 10.65
-2 4 -3 306.11 9.26
-2 4 -3 347.11 9.84
-2 4 -3 340.54 9.85
2 -4 4 85.09 4.81
2 -4 4 81.44 4.92
-2 4 -4 84.48 4.79
2 -4 4 93.62 4.88
2 -4 4 89.66 4.64
2 -4 4 80.81 4.4
2 -4 4 82.72 4.48
2 -4 4 88.47 4.6
-2 4 -4 96.2 5.12
-2 4 -4 83.1 4.31
-2 4 -4 86.91 4.67
-2 4 -4 85.44 4.52
2 -4 4 89.57 5.28
-2 4 -4 73.76 3.8
2 -4 4 89.55 5.33
-2 4 -4 80.41 4.01
-2 4 -4 88.09 3.6
2 -4 5 164.46 7.31
2 -4 5 162.09 7.55
2 -4 5 165.75 7.36
-2 4 -5 165.92 7.53
2 -4 5 162.56 7
2 -4 5 168.06 7.18
2 -4 5 173.49 7.26
2 -4 5 158.59 7.09
-2 4 -5 185.39 7.6
-2 4 -5 158.18 7.08
2 -4 5 165.84 7.95
-2 4 -5 144.51 6.41
-2 4 -5 163.19 7.07
-2 4 -5 153.41 6.44
2 -4 5 179.16 8.32
-2 4 -6 0.86 0.78
2 -4 6 1.48 0.99
2 -4 6 -0.13 0.54
2 -4 6 0.87 0.71
2 -4 6 -0.19 0.7
2 -4 6 1.39 0.86
-2 4 -6 1.38 1
2 -4 6 -0.93 0.75
-2 4 -6 -0.3 0.63
-2 4 -6 1.15 0.77
-2 4 -6 0.96 0.78
2 -4 6 0.6 0.76
-2 4 -6 -0.11 0.58
-2 4 -7 16.71 2.57
2 -4 7 19.33 2.7
2 -4 7 17.35 2.41
2 -4 7 21.16 2.62
2 -4 7 16.21 2.34
2 -4 7 17.7 2.34
-2 4 -7 18.05 2.44
2 -4 7 17.17 2.75
-2 4 -7 19.72 2.59
-2 4 -7 12.32 2.18
-2 4 -7 20.03 2.5
2 -4 7 21.63 3.02
-2 4 -7 18.79 2.49
-2 4 -7 18.34 2.3
2 -4 8 91.49 6.25
-2 4 -8 81.69 6.08
2 -4 8 91.82 6.05
2 -4 8 89.07 6
2 -4 8 94.89 6.11
2 -4 8 89.5 6.04
2 -4 8 85.53 5.49
-2 4 -8 96.73 5.95
-2 4 -8 87.38 6.12
-2 4 -8 83.91 5.84
2 -4 8 91.91 6.79
-2 4 -8 103.65 6.12
-2 4 -8 88.79 5.94
2 -4 8 92.78 6.94
-2 4 -8 91.83 5.76
-2 4 -9 10.47 2.33
2 -4 9 11.28 2.31
2 -4 9 9.84 2.1
2 -4 9 9.47 2
2 -4 9 12.41 2.43
2 -4 9 7.37 1.77
2 -4 9 8.54 2.25
-2 4 -9 9.14 1.98
-2 4 -9 7.33 1.76
-2 4 -9 6.51 1.72
-2 4 -9 7.05 1.74
2 -4 9 6.7 1.93
-2 4 -9 11.16 2.2
-2 4 -9 10.34 2.22
2 -4 10 4.24 1.66
-2 4 -10 3.94 1.81
2 -4 10 6.08 2.01
2 -4 10 5.27 1.77
2 -4 10 3.93 1.57
2 -4 10 5.34 1.9
-2 4 -10 6.06 1.9
-2 4 -10 2.63 1.11
-2 4 -10 5.24 1.83
-2 4 -10 4 1.71
2 -4 10 5.81 2.03
-2 4 -10 5.11 1.76
-2 4 -10 5.4 1.63
2 -4 10 4.05 1.53
2 -4 11 240.64 12.59
-2 4 -11 243.66 12.84
2 -4 11 242.15 12.61
2 -4 11 244.48 12.51
2 -4 11 229.62 12.16
-2 4 -11 271.53 11.91
-2 4 -11 241.69 12.23
-2 4 -11 219.75 11.9
-2 4 -11 234.27 12.15
-2 4 -11 280.58 13.01
2 -4 11 250.71 13.82
-2 4 -11 238.48 11.92
2 -4 11 252.85 13.93
2 -4 12 0.55 1.62
-2 4 -12 3.45 2.01
2 -4 12 3.09 1.9
2 -4 12 1.38 1.76
2 -4 12 1.25 1.45
2 -4 12 -0.74 1.37
-2 4 -12 0.91 1.11
-2 4 -12 5.5 1.97
-2 4 -12 1.48 1.41
-2 4 -12 1.95 1.48
2 -4 12 3.22 2.03
-2 4 -12 1.61 1.25
-2 4 -13 31.29 4.66
-2 3 14 9.34 2.63
2 -3 -14 13.18 3.14
-2 3 14 14.11 3.61
2 -3 -14 13.55 3.2
2 -3 -14 16.71 3.3
2 -3 -14 15.57 3.42
2 -3 -14 17.45 3.79
2 -3 -14 16.91 3.8
2 -3 -14 14.48 3.22
-2 3 14 11.37 3.14
-2 3 13 38.12 4.94
-2 3 13 35.14 4.76
2 -3 -13 35.58 4.64
-2 3 13 39.56 4.6
2 -3 -13 38.86 4.92
2 -3 -13 40.84 4.9
2 -3 -13 32.98 4.39
2 -3 -13 37.88 4.77
-2 3 13 36.54 4.87
2 -3 -13 37.1 5.11
2 -3 -12 77.47 6.93
-2 3 12 70.29 6.46
-2 3 12 69.68 6.45
-2 3 12 65.9 6.23
2 -3 -12 67.86 6.14
-2 3 12 71.58 6.02
2 -3 -12 59.77 5.28
2 -3 -12 68.13 6.1
2 -3 -12 73.33 6.52
2 -3 -12 68.43 6.2
2 -3 -12 72.39 6.32
2 -3 -12 79.08 6.59
-2 3 11 56.37 5.32
2 -3 -11 51.04 5.23
-2 3 11 58.88 5.43
-2 3 11 51.08 4.95
2 -3 -11 52.9 5.14
-2 3 11 60.23 5.17
2 -3 -11 48.44 4.69
2 -3 -11 53.51 5.02
2 -3 -11 48.8 4.93
2 -3 -11 53.36 5.09
2 -3 -11 60.95 5.42
2 -3 -11 57.72 5.26
-2 3 10 1.22 0.68
2 -3 -10 5.09 1.73
-2 3 10 1.09 1.03
-2 3 10 0.71 1.18
-2 3 10 2.2 1.44
2 -3 -10 3.72 1.5
-2 3 10 2.78 1.47
2 -3 -10 1.72 1.15
2 -3 -10 1.88 1.08
2 -3 -10 2.03 0.96
2 -3 -10 3.55 1.56
2 -3 -10 1.89 1.1
2 -3 -10 4.83 1.63
-2 3 9 106.88 5.9
-2 3 9 114.82 6.92
2 -3 -9 109.97 6.95
-2 3 9 120.02 6.98
-2 3 9 119.03 6.86
2 -3 -9 119.29 6.88
-2 3 9 117.61 6.76
2 -3 -9 103.94 6.42
2 -3 -9 112.95 6.66
2 -3 -9 113.15 6.78
2 -3 -9 107.64 6.56
2 -3 -9 115.53 6.63
2 -3 -9 129.55 7.03
-2 3 9 106 5.72
-2 3 8 21.12 2.42
2 -3 -8 20.04 2.63
-2 3 8 20.33 2.6
-2 3 8 19.7 2.49
-2 3 8 20.56 2.53
2 -3 -8 19.28 2.5
2 -3 -8 17.12 2.42
-2 3 8 20.88 2.6
2 -3 -8 21.52 2.6
2 -3 -8 22.57 2.7
2 -3 -8 20.02 2.59
2 -3 -8 21.75 2.5
2 -3 -8 22.98 2.64
-2 3 8 19.21 2.24
-2 3 7 18.1 2.12
2 -3 -7 16.25 2.2
-2 3 7 15.07 2.08
-2 3 7 11.97 1.81
2 -3 -7 16.31 2.09
-2 3 7 15.55 2.08
2 -3 -7 15.88 2.17
2 -3 -7 17.77 2.33
-2 3 7 12.53 1.93
2 -3 -7 17.13 2.2
2 -3 -7 13.74 1.95
2 -3 -7 12.15 1.85
2 -3 -7 16.38 2.1
-2 3 7 13.87 1.83
2 -3 -7 14.2 1.97
-2 3 6 780.31 21.46
-2 3 6 806.58 21.7
2 -3 -6 803.44 22.06
-2 3 6 810.07 21.71
-2 3 6 830.96 21.68
2 -3 -6 798.65 21.58
2 -3 -6 800.38 21.98
2 -3 -6 804.17 22.26
-2 3 6 774.69 22
2 -3 -6 807.7 21.55
2 -3 -6 817.55 21.75
2 -3 -6 806.65 21.59
2 -3 -6 790.37 21.12
2 -3 -6 820.24 21.33
-2 3 6 791.63 21.11
-2 3 5 1229.59 27.9
-2 3 5 1199.86 30.36
-2 3 5 1248.18 30.36
2 -3 -5 1202.42 30.66
-2 3 5 1260.02 30.29
-2 3 5 1263.48 30.39
2 -3 -5 1265.43 30.24
2 -3 -5 1265.21 30.42
2 -3 -5 1209.06 30.73
-2 3 5 1203.05 30.95
2 -3 -5 1213.77 31.07
2 -3 -5 1258.12 30.2
2 -3 -5 1237.52 30.36
2 -3 -5 1252.56 30.25
2 -3 -5 1240.81 29.73
-2 3 5 1194.12 30.07
2 -3 -5 1243.61 29.8
-2 3 4 23.73 1.38
-2 3 4 22.66 2.07
-2 3 4 23.66 2
2 -3 -4 23.72 2.14
-2 3 4 24.8 2.02
-2 3 4 23.95 2.04
2 -3 -4 23.32 1.95
2 -3 -4 24.3 2.02
-2 3 4 21.16 1.08
2 -3 -4 24.81 2.28
2 -3 -4 22.21 2.26
-2 3 4 23.15 2.26
2 -3 -4 25.26 2.01
2 -3 -4 25.34 2.06
2 -3 -4 23.89 1.99
2 -3 -4 24 1.83
-2 3 4 24.3 2.14
2 -3 -3 749.32 18.27
-2 3 3 781.31 19.74
-2 3 3 750.16 19.03
2 -3 -3 771.77 19.22
-2 3 3 742.44 19.03
2 -3 -3 761.25 18.92
2 -3 -3 778.89 18.94
2 -3 -3 752.34 18.97
-2 3 3 765.36 20.16
2 -3 -3 762.66 20.07
2 -3 -3 787.27 19.71
-2 3 3 738.56 17.66
2 -3 -3 766.93 18.94
2 -3 -3 759.13 18.89
2 -3 -3 761.39 18.16
-2 3 3 775.7 19.5
2 -3 -2 28.76 2.43
2 -3 -2 33.68 1.82
-2 3 2 37.14 2.52
2 -3 -2 33.57 2.15
-2 3 2 35.07 2.19
2 -3 -2 31.08 1.99
2 -3 -2 32.5 2
2 -3 -2 32.88 2.01
2 -3 -2 34.31 2.02
-2 3 2 35.65 2.63
2 -3 -2 32.46 2.49
-2 3 2 31.15 1.81
2 -3 -2 35.41 2.41
2 -3 -2 34.91 2.08
2 -3 -2 32.1 1.99
2 -3 -2 36.32 1.64
-2 3 2 35.29 2.46
-2 3 1 1644.32 36.73
2 -3 -1 1632.51 37
2 -3 -1 1627.83 35.47
2 -3 -1 1644.51 35.53
2 -3 -1 1652.37 35.52
2 -3 -1 1531.28 35.12
-2 3 1 1591.71 35.75
2 -3 -1 1582.12 36.07
2 -3 -1 1604.93 36.86
2 -3 -1 1579.77 35.45
-2 3 1 1682.42 36.64
2 -3 0 2118.47 48.95
-2 3 0 2138.75 48.87
2 -3 0 2167.8 47.7
2 -3 0 2147.98 47.72
2 -3 0 2128.53 47.74
2 -3 0 2158.51 47.71
2 -3 0 2218.74 48.99
-2 3 0 2127.61 48.4
2 -3 0 2143.73 47.98
2 -3 0 2012.08 47.64
-2 3 0 2192.62 47.86
-2 3 0 2208.01 48.74
-2 3 -1 749.76 18.7
2 -3 1 767.01 18.81
-2 3 -1 761.09 18.3
2 -3 1 733.29 18.05
2 -3 1 791.2 17.93
2 -3 1 789.42 17.9
2 -3 1 774.51 17.93
2 -3 1 756.21 17.9
-2 3 -1 818.34 18.94
2 -3 1 777.5 18.58
2 -3 1 742.14 19.47
2 -3 1 643.53 17.19
2 -3 1 768.18 19.43
-2 3 -1 795.84 17.99
2 -3 1 758.78 19.45
-2 3 -1 650.42 16.67
-2 3 -1 710.76 18.14
2 -3 2 1004.72 23.93
-2 3 -2 1035.99 23.99
-2 3 -2 1005.7 23.66
2 -3 2 1011.49 23.57
2 -3 2 1001.89 23.32
2 -3 2 1038.08 23.31
2 -3 2 1041.26 23.32
2 -3 2 1036.59 23.38
2 -3 2 995.65 23.35
-2 3 -2 1093.15 24.39
2 -3 2 1018.07 24.92
-2 3 -2 1019.26 23.53
2 -3 2 1021.08 24.68
-2 3 -2 1056.74 23.37
2 -3 2 1003.31 24.73
-2 3 -2 877.86 22.82
-2 3 -3 773.61 19.42
2 -3 3 801.13 20.38
2 -3 3 778.69 19.59
-2 3 -3 677.52 17.01
-2 3 -3 810.63 19.73
2 -3 3 834.54 19.62
2 -3 3 765.78 19.11
2 -3 3 768.37 19.16
2 -3 3 747.28 18.98
2 -3 3 753.22 19.08
-2 3 -3 831.03 20.09
2 -3 3 793.52 20.58
-2 3 -3 728.71 19.07
-2 3 -3 727.82 18.24
2 -3 3 813.52 20.51
-2 3 -3 740.14 19
-2 3 -3 718.44 18.25
-2 3 -3 813.88 18.37
2 -3 4 117.21 5.26
-2 3 -4 96 2.91
2 -3 4 113.94 5.56
-2 3 -4 111.67 5.23
2 -3 4 113.55 5.17
2 -3 4 118.12 5.11
2 -3 4 119.21 5.08
2 -3 4 120.24 5.11
2 -3 4 119 5.11
-2 3 -4 127.32 5.52
-2 3 -4 112.4 4.97
-2 3 -4 125.77 5.24
2 -3 4 122.16 5.8
-2 3 -4 114.33 4.62
-2 3 -4 130.18 5.27
-2 3 -4 95.57 4.37
2 -3 4 116.18 5.79
-2 3 -4 116.14 3.97
-2 3 -5 52.05 3.77
2 -3 5 55.76 3.74
2 -3 5 49.65 3.37
2 -3 5 61.11 3.69
2 -3 5 54.16 3.54
2 -3 5 59.4 3.7
-2 3 -5 55.47 3.78
-2 3 -5 51.23 3.49
-2 3 -5 55.57 3.73
2 -3 5 53.5 3.94
-2 3 -5 53.67 3.39
-2 3 -5 55.94 3.58
-2 3 -5 51.12 2.29
2 -3 5 57.51 4.15
-2 3 -5 49.27 3.16
2 -3 6 358.3 12.61
-2 3 -6 345.79 12.66
2 -3 6 369.11 12.29
2 -3 6 373.48 12.33
2 -3 6 366.41 12.27
2 -3 6 369.58 12.41
-2 3 -6 407.52 12.74
-2 3 -6 378.55 12.63
-2 3 -6 395.54 12.66
-2 3 -6 401.35 12.3
2 -3 6 388.78 13.45
-2 3 -6 392.69 12.53
-2 3 -6 344.87 11.7
2 -3 6 397.41 13.77
2 -3 7 323.51 12.2
-2 3 -7 311.05 12.24
2 -3 7 324.95 11.87
2 -3 7 335.87 12.01
2 -3 7 326.44 11.89
2 -3 7 315.07 11.86
-2 3 -7 352.56 12.08
2 -3 7 320.85 11.2
-2 3 -7 328.62 12.17
-2 3 -7 332.51 11.99
-2 3 -7 334.12 11.95
-2 3 -7 380.26 12.15
2 -3 7 329.13 12.85
-2 3 -7 343.16 11.77
2 -3 7 343.81 13.22
-2 3 -8 0.63 0.76
2 -3 8 3.27 1.17
2 -3 8 1.55 1.09
2 -3 8 2.11 1.15
2 -3 8 3.5 1.3
2 -3 8 2.39 1.16
2 -3 8 3.53 1.51
2 -3 8 -0.23 0.63
-2 3 -8 1.66 0.89
-2 3 -8 1.04 0.88
-2 3 -8 2.73 1.22
-2 3 -8 1.74 0.86
2 -3 8 1.18 1.05
-2 3 -8 0.41 0.75
-2 3 -8 1.03 0.86
2 -3 8 1.84 0.86
2 -3 9 107.86 6.98
-2 3 -9 115.02 7.28
2 -3 9 95.96 6.4
2 -3 9 108.89 6.77
2 -3 9 99.39 6.57
2 -3 9 104.98 6.77
-2 3 -9 102.5 6.7
-2 3 -9 99.85 6.49
-2 3 -9 109 6.7
2 -3 9 114.63 7.8
-2 3 -9 133.24 7.4
2 -3 9 115.08 7.7
-2 3 -9 102.57 6.59
-2 3 -9 125.02 6.7
2 -3 10 79.3 6.33
-2 3 -10 85.65 6.68
2 -3 10 87.13 6.41
2 -3 10 82.57 6.32
2 -3 10 89.85 6.51
-2 3 -10 97.42 6.12
-2 3 -10 87.63 6.39
-2 3 -10 90.61 6.59
-2 3 -10 86.33 6.32
2 -3 10 86.99 7.1
-2 3 -10 101.58 6.84
2 -3 10 98.25 7.58
-2 3 -10 90.48 6.31
-2 3 -11 6.53 1.9
2 -3 11 5.31 1.75
2 -3 11 3.31 1.89
2 -3 11 6.77 1.87
2 -3 11 7.91 2.06
-2 3 -11 7.88 2.15
-2 3 -11 6.65 2.04
-2 3 -11 7.27 2.13
-2 3 -11 6.93 2.21
2 -3 11 5.37 1.97
-2 3 -11 13.99 2.81
2 -3 11 6.45 2.35
-2 3 -11 9.57 1.99
2 -3 12 51.97 5.73
-2 3 -12 54.78 5.93
2 -3 12 55.3 5.67
2 -3 12 49.55 5.44
2 -3 12 58.78 5.78
-2 3 -12 50.41 5.41
-2 3 -12 61.5 5.88
-2 3 -12 50.96 5.34
-2 3 -12 70.02 6.59
2 -3 12 48.72 5.91
2 -3 12 58.71 6.54
-2 3 -12 62.53 6.02
-2 3 -13 6.39 2.38
2 -3 13 5.47 2.4
2 -3 13 6.35 2.23
2 -3 13 4.5 1.84
2 -3 13 8 2.47
2 -3 13 7.33 2.56
-2 3 -13 10.25 2.71
-2 3 -13 4.62 2.12
-2 3 -13 5.33 2.23
-2 3 -13 5.01 1.88
2 -3 13 5.31 2.06
-2 3 -13 4.73 2.59
-2 3 -13 4.1 1.76
2 -2 -14 36.96 5.35
-2 2 14 24.85 4.24
-2 2 14 29.76 4.65
-2 2 14 25.31 4.25
2 -2 -14 29.23 4.51
2 -2 -14 27.32 4.32
2 -2 -14 35.62 5.04
2 -2 -14 33.69 4.81
2 -2 -14 32.24 4.74
2 -2 -13 0.41 0.99
-2 2 13 3.42 1.7
-2 2 13 1.55 0.9
-2 2 13 0.98 1.23
2 -2 -13 0.28 1.07
2 -2 -13 2.69 1.69
2 -2 -13 0.75 1.09
2 -2 -13 -0.63 1.14
2 -2 -13 0.79 1.17
2 -2 -13 4.66 1.82
2 -2 -12 11.32 2.76
-2 2 12 12.35 2.83
-2 2 12 10.68 2.42
-2 2 12 12.07 2.75
-2 2 12 16.92 2.8
2 -2 -12 13.28 2.68
2 -2 -12 16.93 3.04
2 -2 -12 16.52 3.09
2 -2 -12 14.89 3
2 -2 -12 15.36 3.07
2 -2 -12 12.84 2.84
-2 2 11 99.09 7.28
2 -2 -11 107.91 7.75
-2 2 11 109.75 7.45
-2 2 11 104.53 7.47
-2 2 11 99.91 7.11
2 -2 -11 97.71 7.07
-2 2 11 106.8 7.03
2 -2 -11 89.11 6.18
2 -2 -11 106.38 7.29
2 -2 -11 103.18 7.28
2 -2 -11 93 6.86
2 -2 -11 105.69 7.29
2 -2 -11 110.43 7.3
-2 2 10 977.36 28.56
2 -2 -10 981.53 29.04
-2 2 10 935.14 28.55
-2 2 10 953.64 28.24
-2 2 10 965.21 28.13
2 -2 -10 965.65 28.22
-2 2 10 962.2 27.79
2 -2 -10 898.96 26.92
2 -2 -10 968.15 28.08
2 -2 -10 972.74 28.37
2 -2 -10 974.39 28.22
2 -2 -10 933.01 27.86
2 -2 -10 986.95 28.19
-2 2 9 95.39 5.24
-2 2 9 93.89 6.07
2 -2 -9 91.32 6.22
-2 2 9 93.22 6.02
-2 2 9 92.48 6.17
-2 2 9 81.72 5.62
2 -2 -9 94.86 6
2 -2 -9 82.39 5.52
-2 2 9 95.2 5.98
2 -2 -9 95.74 6.03
2 -2 -9 86.66 5.74
2 -2 -9 92.05 5.97
2 -2 -9 90.48 5.85
2 -2 -9 85.36 5.69
-2 2 8 65.17 4.13
-2 2 8 74.07 4.98
2 -2 -8 66.6 4.92
-2 2 8 70.13 4.79
-2 2 8 76.86 4.94
-2 2 8 78.7 5.15
2 -2 -8 73.18 4.94
2 -2 -8 69.42 4.75
-2 2 8 71.12 4.87
2 -2 -8 65.47 4.65
2 -2 -8 75.11 4.95
2 -2 -8 72.57 4.85
2 -2 -8 68.07 4.76
2 -2 -8 70.7 4.7
2 -2 -8 71.07 4.75
-2 2 8 70.12 4.27
-2 2 7 270.91 9.55
-2 2 7 282.14 10.32
2 -2 -7 284.01 10.57
-2 2 7 272.95 10.08
-2 2 7 273.4 10.01
-2 2 7 289.29 10.47
2 -2 -7 269.34 10.13
-2 2 7 262.32 10.28
2 -2 -7 277.19 10.19
2 -2 -7 270.75 10.04
2 -2 -7 270.94 10.05
2 -2 -7 280.81 10.22
2 -2 -7 274.83 9.98
2 -2 -7 289.57 10.11
-2 2 7 259.72 9.31
-2 2 6 5.96 1.15
2 -2 -6 4.18 1.01
-2 2 6 5.02 1.12
-2 2 6 5.05 1.18
-2 2 6 4.17 0.99
-2 2 6 4.89 1.07
2 -2 -6 5.67 1.17
-2 2 6 6.81 1.41
2 -2 -6 5.42 1.09
2 -2 -6 5.29 1.16
2 -2 -6 3.93 1.04
2 -2 -6 5.28 1.18
2 -2 -6 4.45 1.04
2 -2 -6 5.22 1.04
-2 2 6 4.32 0.99
-2 2 5 -0.09 0.47
-2 2 5 -0.15 0.21
2 -2 -5 0.39 0.5
-2 2 5 1.66 0.63
-2 2 5 0.4 0.39
-2 2 5 0.67 0.55
-2 2 5 0.74 0.56
2 -2 -5 0.36 0.71
2 -2 -5 0.33 0.35
2 -2 -5 1.38 0.58
2 -2 -5 0.05 0.54
2 -2 -5 -0.39 0.39
2 -2 -5 -0.09 0.39
2 -2 -5 0.39 0.55
-2 2 5 1.05 0.57
-2 2 4 419.5 9.41
-2 2 4 408 11.64
-2 2 4 388.98 11.43
2 -2 -4 381.39 11.61
-2 2 4 404.63 11.42
-2 2 4 400.09 11.3
2 -2 -4 393.61 11.37
2 -2 -4 407.77 11.69
-2 2 4 406.55 12.21
2 -2 -4 392.46 9.36
2 -2 -4 400.69 11.9
2 -2 -4 400.96 11.42
2 -2 -4 403.12 11.34
2 -2 -4 410.4 11.37
2 -2 -4 405.61 11.27
2 -2 -4 403.18 11.09
-2 2 4 386.15 11.53
2 -2 -3 244.32 7.37
-2 2 3 253.74 7.89
-2 2 3 248.02 7.42
2 -2 -3 251.18 7.58
-2 2 3 245.58 7.36
-2 2 3 250.28 7.47
2 -2 -3 244.38 7.34
2 -2 -3 234.11 7.37
2 -2 -3 247.12 7.7
2 -2 -3 246.42 7.99
-2 2 3 240.24 6.39
-2 2 3 243.53 8.3
2 -2 -3 245.23 7.32
2 -2 -3 255.28 7.44
2 -2 -3 254.42 7.42
2 -2 -3 259.9 7.3
2 -2 -3 225.86 7.06
-2 2 3 232.36 7.8
2 -2 -2 361.77 9.6
-2 2 2 358.06 10.22
2 -2 -2 363.54 9.53
-2 2 2 351.74 9.41
-2 2 2 365.1 9.38
2 -2 -2 364 9.32
2 -2 -2 358.52 9.35
2 -2 -2 379.93 9.9
2 -2 -2 368.86 10.24
-2 2 2 344.65 10.51
-2 2 2 337.2 9.06
2 -2 -2 356.83 9.33
2 -2 -2 354.06 9.29
2 -2 -2 380.42 9.24
2 -2 -2 352.89 8.89
-2 2 2 335.62 10.17
2 -2 -1 449.04 12.28
-2 2 1 450.31 12.24
-2 2 1 419.41 12.46
2 -2 -1 447.08 11.17
-2 2 1 442.86 11.19
2 -2 -1 463.48 11.06
2 -2 -1 482.75 11.71
2 -2 -1 468.1 11.05
2 -2 -1 473.13 11.07
-2 2 1 451.55 11.59
2 -2 -1 438.77 12.31
-2 2 1 453.25 12.53
2 -2 -1 472.5 12.05
2 -2 -1 451.14 11.06
2 -2 -1 455.04 11.02
2 -2 -1 477.06 10.83
-2 2 1 471.67 12.26
-2 2 0 3.84 0.73
2 -2 0 4.74 0.75
-2 2 0 4.7 0.75
2 -2 0 3.64 0.52
2 -2 0 3.81 0.47
2 -2 0 4.51 0.51
2 -2 0 4.42 0.51
-2 2 0 5.36 0.77
2 -2 0 3.66 0.68
2 -2 0 3.95 0.67
2 -2 0 3.31 0.45
-2 2 0 4.72 0.55
-2 2 0 4.97 0.8
-2 2 -1 1523.4 34.69
-2 2 -1 1442.34 33.93
2 -2 1 1582.62 34.28
-2 2 -1 1520.28 33.7
2 -2 1 1546.4 33.63
2 -2 1 1602.43 33.49
2 -2 1 1493.45 33.54
2 -2 1 1608.07 33.5
2 -2 1 1568.72 33.49
2 -2 1 1611.41 33.56
-2 2 -1 1340.52 34.29
2 -2 1 1507.65 34.13
2 -2 1 1468.55 33.43
-2 2 -1 1469.38 33.67
-2 2 -1 1640.86 33.55
2 -2 1 1568.09 35.09
2 -2 1 1578.36 35.17
-2 2 -1 1510.29 34.15
2 -2 2 45.94 2.36
-2 2 -2 41.29 2.47
-2 2 -2 38.92 1.93
-2 2 -2 42.8 2.27
2 -2 2 42.85 2.18
2 -2 2 41.37 2.11
2 -2 2 41.62 2.11
2 -2 2 39.07 2.05
2 -2 2 37.73 2.04
2 -2 2 39.89 2.1
2 -2 2 41.21 2.68
2 -2 2 34.57 1.52
2 -2 2 40.43 2.04
-2 2 -2 43.62 2.58
-2 2 -2 41.22 2.16
2 -2 2 41.08 2.58
-2 2 -2 43.71 2.14
-2 2 -2 33.77 1.69
2 -2 2 41.47 2.64
-2 2 -2 40.79 2.1
-2 2 -3 317.61 8.38
2 -2 3 338.99 10.31
2 -2 3 327.1 9.35
-2 2 -3 330.25 9.68
-2 2 -3 310.76 9.38
2 -2 3 311.17 9.27
2 -2 3 322.29 9.25
2 -2 3 331.63 9.27
2 -2 3 324.14 9.25
2 -2 3 334.69 9.34
-2 2 -3 342.29 9.96
2 -2 3 346.38 10.36
-2 2 -3 339.66 9.4
-2 2 -3 320.61 9.03
2 -2 3 335.84 10.09
-2 2 -3 328.97 9.25
-2 2 -3 333.03 8.62
-2 2 -3 282.23 8.58
2 -2 4 0.11 0.34
2 -2 4 0.23 0.52
-2 2 -4 0.13 0.4
-2 2 -4 0.78 0.55
-2 2 -4 0.38 0.25
2 -2 4 1.79 0.67
2 -2 4 0.34 0.34
2 -2 4 0.83 0.38
2 -2 4 0.68 0.4
2 -2 4 0.57 0.34
2 -2 4 0.57 0.49
-2 2 -4 0.29 0.43
-2 2 -4 1.05 0.53
-2 2 -4 0.97 0.48
-2 2 -4 0.87 0.49
-2 2 -4 2.05 0.7
2 -2 4 -0.17 0.38
-2 2 -4 0.72 0.5
-2 2 -4 0.39 0.28
2 -2 5 80.17 4.33
-2 2 -5 75.35 4.31
-2 2 -5 80.53 3.16
2 -2 5 88.36 4.31
2 -2 5 90.19 4.36
2 -2 5 81.75 4.22
2 -2 5 80.72 4.23
-2 2 -5 81.48 4.33
-2 2 -5 86.87 4.39
-2 2 -5 81.75 4.22
2 -2 5 82.77 4.65
-2 2 -5 83.03 4.17
-2 2 -5 83.34 4.22
-2 2 -5 79.79 4.06
2 -2 5 83.88 4.79
-2 2 -5 76.19 2.73
2 -2 6 727.05 21.38
-2 2 -6 720.56 21.45
-2 2 -6 780.26 19.12
2 -2 6 820.66 21.42
2 -2 6 800.67 21.37
2 -2 6 805.44 21.3
2 -2 6 801.3 21.42
-2 2 -6 824.62 21.33
-2 2 -6 825.02 21.69
-2 2 -6 829.5 21.51
-2 2 -6 716.97 20.95
-2 2 -6 844.22 21.51
2 -2 6 804.68 22.24
-2 2 -6 827.15 21.17
2 -2 6 794.82 22.42
-2 2 -7 0.8 0.82
2 -2 7 3.08 1.19
2 -2 7 3.73 1.1
2 -2 7 3.62 1.05
2 -2 7 3.99 1.14
2 -2 7 2.55 1.14
-2 2 -7 0.89 0.77
2 -2 7 1.05 0.69
2 -2 7 1.75 0.78
-2 2 -7 3.41 1.17
-2 2 -7 2.11 1.02
-2 2 -7 2.88 0.96
2 -2 7 1.61 0.84
-2 2 -7 1.59 0.91
-2 2 -7 2.31 1
2 -2 7 2.74 0.83
-2 2 -8 677.37 20.86
2 -2 8 654.78 20.52
2 -2 8 698.71 20.46
2 -2 8 668.69 20.21
2 -2 8 666.54 20.3
2 -2 8 652.94 20.27
-2 2 -8 710.41 20.61
-2 2 -8 698.43 20.36
-2 2 -8 764.66 20.51
2 -2 8 658.07 19.02
2 -2 8 663.24 21.46
-2 2 -8 697.33 20.57
-2 2 -8 706.42 20.41
2 -2 8 680.6 21.44
-2 2 -8 719.93 19.99
2 -2 8 634.32 18.54
2 -2 9 120.93 7.22
-2 2 -9 111.45 7.1
2 -2 9 119.32 7.03
2 -2 9 124.52 7.09
2 -2 9 116.89 6.9
-2 2 -9 120.15 6.42
-2 2 -9 121.28 6.96
-2 2 -9 127.76 7.25
-2 2 -9 131.27 7.18
2 -2 9 126.83 7.8
-2 2 -9 129.91 7.24
-2 2 -9 115.13 6.67
2 -2 9 122.15 7.78
-2 2 -10 2.43 1.52
2 -2 10 1.03 0.89
2 -2 10 4.27 1.49
2 -2 10 3.94 1.36
2 -2 10 1.98 1.17
-2 2 -10 2.19 1.15
-2 2 -10 1.04 0.79
-2 2 -10 2.93 1.42
-2 2 -10 1.75 1.02
2 -2 10 2.25 1.3
-2 2 -10 4.21 1.75
2 -2 10 2.1 1.03
-2 2 -10 1.04 0.85
2 -2 11 54.23 5.32
-2 2 -11 56.31 5.59
2 -2 11 47.46 4.96
2 -2 11 51.43 5.1
2 -2 11 41.69 4.6
-2 2 -11 57.72 4.62
-2 2 -11 55.38 5.17
-2 2 -11 46.82 4.82
-2 2 -11 54.74 5.14
-2 2 -11 66.68 5.91
2 -2 11 53.5 5.55
2 -2 11 59.59 5.24
2 -2 11 54.54 5.8
-2 2 -11 61.89 5.41
-2 2 -12 1.19 1.12
2 -2 12 2.32 1.4
2 -2 12 0.79 0.96
2 -2 12 -0.18 0.93
2 -2 12 2.7 1.49
2 -2 12 3.16 1.51
-2 2 -12 4.92 1.85
-2 2 -12 2.1 1.51
-2 2 -12 2.62 1.36
-2 2 -12 2.82 1.42
2 -2 12 2.81 2.05
-2 2 -12 4.01 1.75
2 -2 12 0.18 1.02
-2 2 -12 1.15 1.54
-2 2 -13 -0.19 1.52
2 -2 13 0.33 1.7
2 -2 13 0.06 1.15
2 -2 13 0.53 1.5
2 -2 13 -2.18 1.58
2 -2 13 -0.19 1.38
-2 2 -13 0.97 1.02
-2 2 -13 -0.21 1.05
-2 2 -13 3.25 1.53
-2 2 -13 -1.12 1.71
-2 2 -13 1.39 1.51
-2 2 -13 1.28 1.32
2 -2 14 50.37 6.1
-2 2 -14 49.34 6.13
-2 2 -14 39.91 5.41
2 -2 14 42.11 5.43
2 -2 14 54.94 6.03
2 -2 14 46.46 5.85
-2 2 -14 50.11 5.88
-2 2 -14 44.32 5.41
-2 2 -14 44.64 5.64
-2 2 -14 49.2 6.65
-2 2 -14 51.53 6.03
2 -2 14 46.81 6.35
-2 1 14 23.59 4.17
-2 1 14 22.1 4.11
-2 1 14 23.83 4.2
2 -1 -13 8.59 2.7
-2 1 13 10.2 2.66
-2 1 13 8.71 2.24
-2 1 13 9.01 2.36
-2 1 13 9.9 2.78
2 -1 -13 12.66 2.99
2 -1 -13 12.88 2.94
2 -1 -13 15.23 3.11
2 -1 -13 14.09 3.16
2 -1 -13 10.98 2.9
2 -1 -13 10.6 2.82
2 -1 -12 1.31 0.98
-2 1 12 1.1 0.98
-2 1 12 1.06 0.97
-2 1 12 0.44 0.84
-2 1 12 1.57 1.31
-2 1 12 0.91 1.11
2 -1 -12 -0.45 0.96
2 -1 -12 0.03 1.12
2 -1 -12 0.84 0.83
2 -1 -12 1.57 1.63
2 -1 -12 1.07 0.94
2 -1 -12 1.23 1.37
-2 1 11 410.11 16.74
2 -1 -11 443.24 17.57
-2 1 11 418.18 16.6
-2 1 11 423.89 16.64
-2 1 11 417.36 16.9
2 -1 -11 430.53 16.87
-2 1 11 441.9 16.34
2 -1 -11 376.03 14.87
2 -1 -11 442.2 16.96
2 -1 -11 425.26 16.65
2 -1 -11 435.61 16.79
2 -1 -11 445.46 16.88
2 -1 -11 457.01 16.88
2 -1 -10 18.62 3
-2 1 10 19.9 3.03
-2 1 10 19.96 3.11
-2 1 10 15.81 2.72
-2 1 10 18.43 2.92
-2 1 10 18.35 2.77
2 -1 -10 17.58 2.86
2 -1 -10 19.62 2.93
2 -1 -10 17.42 2.82
2 -1 -10 16.6 2.87
2 -1 -10 15.61 2.68
2 -1 -10 18.58 2.92
-2 1 9 87.71 5.95
2 -1 -9 87.6 6.15
-2 1 9 92.03 6.01
-2 1 9 84.85 5.9
-2 1 9 91.32 5.93
2 -1 -9 90.41 6.01
2 -1 -9 87.92 5.56
-2 1 9 92.37 5.97
2 -1 -9 90.19 5.93
2 -1 -9 82.94 5.69
2 -1 -9 87.33 5.89
2 -1 -9 91.43 5.93
2 -1 -9 92.94 5.85
-2 1 8 488.13 14.31
2 -1 -8 474.59 16.2
-2 1 8 484.53 16.05
-2 1 8 490.07 15.84
-2 1 8 507.75 16.16
-2 1 8 488.79 15.78
2 -1 -8 479.92 15.88
-2 1 8 470.78 15.85
2 -1 -8 499.46 15.49
2 -1 -8 482.47 15.72
2 -1 -8 498.3 15.92
2 -1 -8 512.68 16.01
2 -1 -8 490.62 15.84
2 -1 -8 482.13 15.61
-2 1 7 653.69 17.65
-2 1 7 651.79 19.08
2 -1 -7 680.05 19.54
-2 1 7 671.3 19.14
-2 1 7 674.26 18.99
-2 1 7 663.37 18.88
2 -1 -7 638.84 19.01
-2 1 7 653.54 19.34
2 -1 -7 645.02 18.58
2 -1 -7 658.18 18.88
2 -1 -7 671.86 18.98
2 -1 -7 668.78 18.98
2 -1 -7 655.22 19
2 -1 -7 673.68 18.79
-2 1 7 613.99 17.7
-2 1 6 199.55 7.1
-2 1 6 170.63 5.89
-2 1 6 207.16 7.87
2 -1 -6 206.01 8.08
-2 1 6 202.47 7.87
-2 1 6 200.8 7.71
-2 1 6 204.38 7.69
2 -1 -6 201.07 7.82
-2 1 6 201.43 8.16
2 -1 -6 197.85 7.67
2 -1 -6 202.1 7.75
2 -1 -6 209.83 7.8
2 -1 -6 205.64 7.76
2 -1 -6 203.91 7.86
2 -1 -6 209.33 7.63
-2 1 6 190.5 7.24
-2 1 5 273.41 8.46
-2 1 5 230.51 6.94
-2 1 5 276.27 9.03
2 -1 -5 271.68 9.15
-2 1 5 278.93 8.88
-2 1 5 266.22 8.78
-2 1 5 278.74 9.06
2 -1 -5 263.32 8.86
-2 1 5 268.14 9.42
2 -1 -5 275.16 9.12
2 -1 -5 281.71 8.94
2 -1 -5 271.67 8.82
2 -1 -5 267.28 8.87
2 -1 -5 269.68 9.03
2 -1 -5 287.99 8.82
-2 1 5 260.4 8.63
-2 1 4 86.7 3.77
-2 1 4 76.01 2.39
2 -1 -4 83.58 3.99
-2 1 4 82.93 3.82
-2 1 4 81.37 3.82
-2 1 4 78.94 3.7
-2 1 4 83.72 3.75
2 -1 -4 87.46 3.91
2 -1 -4 85.67 4.09
-2 1 4 80.83 4.23
2 -1 -4 81.61 4.07
2 -1 -4 81.68 3.75
2 -1 -4 81.98 3.79
2 -1 -4 84.49 3.81
2 -1 -4 90.81 4.07
-2 1 4 80.35 3.92
2 -1 -4 82.23 3.64
-2 1 3 266.01 7.95
2 -1 -3 270.15 8.14
-2 1 3 264.14 7.66
2 -1 -3 264.34 7.82
-2 1 3 256.28 7.6
-2 1 3 260.02 7.59
-2 1 3 231.58 7.58
2 -1 -3 269.83 8.29
2 -1 -3 273.99 7.72
2 -1 -3 274.53 8.38
-2 1 3 262.8 8.58
2 -1 -3 270.9 6.94
2 -1 -3 262.27 7.61
2 -1 -3 256.94 7.6
2 -1 -3 273.81 7.68
2 -1 -3 280.92 7.97
2 -1 -3 272.13 7.55
-2 1 3 259.67 8.14
2 -1 -2 1488.25 31.89
-2 1 2 1448.67 31.76
-2 1 2 1329.78 30.76
2 -1 -2 1345.41 30.89
-2 1 2 1247.01 30.64
-2 1 2 1277.33 30.64
2 -1 -2 1518.09 32.01
2 -1 -2 1349.41 30.74
-2 1 2 1436.52 32.39
-2 1 2 1389.49 30.87
2 -1 -2 1355.89 30.72
2 -1 -2 1404.51 30.82
2 -1 -2 1360.49 30.75
2 -1 -2 1545.45 31.44
2 -1 -2 1470.05 30.77
-2 1 2 1424.68 32.03
2 -1 -2 1441.07 31.07
-2 1 1 185.42 5.75
-2 1 1 162.52 5.19
-2 1 1 153.69 4.11
2 -1 -1 157.5 4.16
-2 1 1 146.34 4.04
-2 1 1 141.17 4.04
2 -1 -1 157.5 4.06
2 -1 -1 149.41 4.07
2 -1 -1 161.73 4.13
2 -1 -1 158.89 4.09
2 -1 -1 156.93 4.06
2 -1 -1 168.43 4.77
-2 1 1 158.52 5.41
-2 1 1 150.84 4.76
2 -1 -1 144.24 3.95
-2 1 1 166.79 5.35
-2 1 0 1110.91 24.86
-2 1 0 941.52 24.29
-2 1 0 1111.12 24.79
2 -1 0 998.84 24.16
-2 1 0 1074.26 24.79
-2 1 -1 1998.03 41.89
2 -1 1 1984.71 40.81
2 -1 1 1795.79 40.2
-2 1 -1 1780.8 40.24
2 -1 1 1846.81 40.13
2 -1 1 1901.84 40.17
2 -1 1 1859.09 40.15
2 -1 1 1865.88 40.16
-2 1 -1 1663.17 41.37
-2 1 -1 1772.12 40.16
-2 1 -1 1763.76 40.12
-2 1 -1 2023.91 41.53
2 -1 2 134.1 4.92
-2 1 -2 129.3 4.63
2 -1 2 135.32 3.91
-2 1 -2 139.19 4.42
2 -1 2 121.71 3.92
-2 1 -2 123.05 3.98
2 -1 2 118.76 3.73
2 -1 2 117.46 3.71
2 -1 2 120.78 3.76
2 -1 2 120.33 3.78
2 -1 2 123.74 4.68
2 -1 2 119.86 3.67
-2 1 -2 130.66 4.63
-2 1 -2 108.63 3.83
-2 1 -2 114.43 3.77
-2 1 -2 115.15 3.74
2 -1 2 128.52 4.52
-2 1 -2 103.23 3.56
2 -1 2 129.56 4.6
-2 1 -2 115.97 3.98
2 -1 3 0.86 0.33
2 -1 3 0.62 0.46
-2 1 -3 0.17 0.28
2 -1 3 0.34 0.31
-2 1 -3 1.03 0.38
2 -1 3 0.51 0.28
2 -1 3 0.36 0.28
2 -1 3 0.34 0.27
2 -1 3 0.2 0.21
2 -1 3 0.26 0.39
-2 1 -3 0.11 0.28
-2 1 -3 0.29 0.23
-2 1 -3 0.52 0.32
-2 1 -3 0.21 0.27
2 -1 3 0.08 0.25
-2 1 -3 1.3 0.36
-2 1 -3 0.46 0.28
2 -1 4 44.11 2.96
2 -1 4 41.92 2.6
-2 1 -4 42.04 2.63
-2 1 -4 50.03 2.47
2 -1 4 40.69 2.52
2 -1 4 40.86 2.47
2 -1 4 44.65 2.59
2 -1 4 43.97 2.59
-2 1 -4 43.71 2.75
-2 1 -4 43.4 2.68
-2 1 -4 47.35 2.67
2 -1 4 47.06 2.91
-2 1 -4 46.55 2.74
-2 1 -4 41.99 2.51
2 -1 4 44.8 2.91
-2 1 -4 42.89 2.55
2 -1 5 2520.74 58.84
-2 1 -5 2421.7 58.83
-2 1 -5 2527.24 57.97
2 -1 5 2734.51 58.97
2 -1 5 2704.33 58.89
2 -1 5 2765.6 58.97
2 -1 5 2651.2 58.98
-2 1 -5 2630.45 58.82
-2 1 -5 2742.06 59.17
-2 1 -5 2761.96 58.98
-2 1 -5 2522.1 58.89
2 -1 5 2720.82 59.6
-2 1 -5 2721.75 58.9
-2 1 -5 2433.34 58.31
2 -1 5 2679.21 59.9
-2 1 -6 35.05 2.97
2 -1 6 33.47 2.82
-2 1 -6 32.95 2.3
2 -1 6 30.9 2.67
2 -1 6 35.44 2.77
2 -1 6 32.96 2.72
2 -1 6 26.65 2.56
-2 1 -6 30.82 2.77
-2 1 -6 29.54 2.6
-2 1 -6 30.22 2.58
2 -1 6 35.12 2.67
2 -1 6 31.72 2.93
-2 1 -6 31.26 2.78
-2 1 -6 32.79 2.76
2 -1 6 32.46 2.88
-2 1 -6 32.1 2.61
2 -1 6 29.03 2.11
2 -1 7 537.46 16.55
-2 1 -7 545.37 16.77
-2 1 -7 516.8 15.09
2 -1 7 523.74 14.55
-2 1 -7 550.09 15.73
2 -1 7 549.25 16.25
2 -1 7 543.9 16.2
2 -1 7 562.54 16.4
-2 1 -7 550.59 16.26
-2 1 -7 543.68 16.19
-2 1 -7 551.03 16.4
-2 1 -7 583.64 16.82
2 -1 7 557.23 17.13
-2 1 -7 557.54 16.19
2 -1 7 569.48 15.85
2 -1 7 540.25 17.15
2 -1 8 276.97 10.89
-2 1 -8 274.17 10.98
-2 1 -8 279.42 9.94
2 -1 8 245.5 8.7
2 -1 8 271.06 10.74
2 -1 8 283.9 10.72
2 -1 8 283 10.71
-2 1 -8 298.91 10.81
-2 1 -8 294.9 10.84
-2 1 -8 292.14 10.75
-2 1 -8 286.69 11.1
2 -1 8 272.07 11.26
-2 1 -8 293.58 10.65
2 -1 8 274.57 11.38
2 -1 8 276.99 9.81
2 -1 9 252.48 10.77
-2 1 -9 261.98 11.08
-2 1 -9 258.92 9.75
2 -1 9 243.44 10.54
2 -1 9 240.14 10.59
2 -1 9 245.42 10.53
-2 1 -9 236.56 10.33
-2 1 -9 248.15 10.55
-2 1 -9 238.73 10.4
-2 1 -9 267.11 11.1
2 -1 9 260.65 11.35
-2 1 -9 281.67 10.91
2 -1 9 236.58 9.21
2 -1 9 254.18 11.4
2 -1 10 50.3 4.72
-2 1 -10 52.68 4.92
2 -1 10 57.62 4.83
2 -1 10 52.17 4.63
2 -1 10 52.88 4.7
-2 1 -10 59.35 4.28
-2 1 -10 57.66 4.78
-2 1 -10 51.88 4.58
-2 1 -10 53.07 4.75
-2 1 -10 57.54 5.08
2 -1 10 45.2 4.33
2 -1 10 47.46 4.81
2 -1 10 52.51 5.1
-2 1 -10 51.4 4.86
-2 1 -11 1.52 1.09
2 -1 11 1.77 1.21
2 -1 11 0.39 0.97
2 -1 11 -0.72 1.08
2 -1 11 -0.04 0.88
2 -1 11 0.55 0.77
-2 1 -11 0.04 0.88
-2 1 -11 0.86 1.02
-2 1 -11 1.45 1.4
-2 1 -11 -0.15 1.01
-2 1 -11 0.1 1.03
2 -1 11 0.84 1.23
-2 1 -11 -0.38 1.24
2 -1 11 1.81 0.95
-2 1 -11 0.22 0.9
-2 1 -12 15.93 3.01
2 -1 12 11.46 2.83
2 -1 12 18.33 3.27
2 -1 12 14.04 2.81
2 -1 12 17.68 3.1
2 -1 12 13.29 3.08
-2 1 -12 12.73 2.52
-2 1 -12 10.61 2.39
-2 1 -12 11.71 2.68
-2 1 -12 15.03 3.07
-2 1 -12 7.93 2.26
2 -1 12 14.95 2.76
-2 1 -12 16.93 3.15
-2 1 -13 4.05 2.2
2 -1 13 2.34 1.74
2 -1 13 2.35 1.24
2 -1 13 1.69 1.57
2 -1 13 2.26 1.04
2 -1 13 4.23 1.97
-2 1 -13 1.04 1.17
-2 1 -13 2.06 1.54
-2 1 -13 0.98 1.39
-2 1 -13 -0.82 1.26
-2 1 -13 4.01 1.51
-2 1 -13 2.34 1.48
2 -1 14 58.03 6.51
-2 1 -14 56.03 6.46
-2 1 -14 55.93 6.3
2 -1 14 53.69 6.02
2 -1 14 56.56 6.14
2 -1 14 60.53 6.49
-2 1 -14 53.23 5.91
-2 1 -14 67.32 6.6
-2 1 -14 60.61 6.33
-2 1 -14 68.93 7.24
-2 1 -14 59.41 6.58
2 -1 14 60.86 6.98
2 0 -13 44.26 5.56
-2 0 13 36.47 4.97
-2 0 13 35.6 5
-2 0 13 35.34 4.89
-2 0 13 43.67 5.32
2 0 -13 41.07 5.2
2 0 -13 43.51 5.22
2 0 -13 41.84 5.15
2 0 -13 42.98 5.3
2 0 -13 36.12 4.87
2 0 -13 46.52 5.46
2 0 -12 17.19 3.32
-2 0 12 12.97 2.95
-2 0 12 14.87 3.04
-2 0 12 13.72 2.89
-2 0 12 13.82 2.82
-2 0 12 14.06 2.82
2 0 -12 16.4 3
2 0 -12 13.84 2.87
2 0 -12 16.28 3.05
2 0 -12 13.63 2.89
2 0 -12 14.63 2.99
2 0 -12 12.46 2.94
2 0 -11 23.74 3.65
-2 0 11 24.85 3.67
-2 0 11 23.35 3.63
-2 0 11 23.44 3.43
-2 0 11 20.98 3.28
-2 0 11 22.36 3.28
2 0 -11 27.78 3.61
2 0 -11 22.53 3.36
2 0 -11 27.17 3.7
2 0 -11 23.8 3.7
2 0 -11 22.86 3.43
2 0 -11 24.51 3.52
-2 0 10 290.69 12.8
2 0 -10 306.39 13.37
-2 0 10 290.96 12.63
-2 0 10 287.76 12.73
-2 0 10 273.02 12.31
2 0 -10 284.58 12.66
2 0 -10 306.82 11.88
-2 0 10 298.57 12.59
2 0 -10 299.67 12.75
2 0 -10 291.92 12.68
2 0 -10 284.42 12.54
2 0 -10 316.21 12.96
2 0 -10 324.52 12.93
-2 0 9 1207.2 33.79
2 0 -9 1246.84 34.45
-2 0 9 1214.91 33.36
-2 0 9 1223.52 33.66
-2 0 9 1181.23 33.13
2 0 -9 1176.85 33.42
2 0 -9 1283.52 32.46
-2 0 9 1226.85 33.78
2 0 -9 1279.07 33.71
2 0 -9 1256.81 33.67
2 0 -9 1237.05 33.57
2 0 -9 1300.87 33.98
2 0 -9 1273.44 33.5
-2 0 8 159.86 7.99
2 0 -8 168.17 8.35
-2 0 8 155.09 7.78
-2 0 8 164.31 8.04
-2 0 8 161.94 7.95
2 0 -8 156.58 7.88
-2 0 8 171.15 8.17
2 0 -8 165.64 7.41
2 0 -8 169.26 8.03
2 0 -8 160.81 7.92
2 0 -8 166.28 8.01
2 0 -8 173.67 8.12
2 0 -8 172.66 7.89
-2 0 7 892.62 22.58
-2 0 7 908.05 24.51
-2 0 7 953.11 24.9
-2 0 7 895.7 24.46
-2 0 7 890 24.98
2 0 -7 924.14 24.06
2 0 -7 924.98 25.21
-2 0 7 885.28 24.71
2 0 -7 898.84 24.55
2 0 -7 899.2 24.54
2 0 -7 904.94 24.65
2 0 -7 922.74 24.75
2 0 -7 913.35 24.42
-2 0 6 1096.56 25.8
-2 0 6 1092.12 27.59
2 0 -6 1099.88 27.93
-2 0 6 1097.48 27.39
-2 0 6 1094.9 27.53
-2 0 6 1105.22 27.35
2 0 -6 1062.82 27.07
-2 0 6 1079.55 28.1
2 0 -6 993.81 24.28
2 0 -6 1112.01 27.43
2 0 -6 1110.68 27.56
2 0 -6 1107.21 27.47
2 0 -6 1077.83 27.67
2 0 -6 1099.1 27.25
-2 0 5 326.55 9.41
-2 0 5 326.81 10.48
2 0 -5 339.51 10.79
-2 0 5 340.77 10.39
-2 0 5 332.17 10.29
-2 0 5 345.26 10.5
2 0 -5 327.73 10.63
-2 0 5 333.25 11.06
2 0 -5 326.02 10.35
2 0 -5 336.42 10.39
2 0 -5 344.39 10.56
2 0 -5 330.55 10.38
2 0 -5 329.15 10.61
2 0 -5 320.23 10.22
-2 0 4 208 6.42
-2 0 4 207.56 7.03
2 0 -4 203.83 7.16
-2 0 4 215.74 6.96
-2 0 4 214.35 6.91
-2 0 4 208.98 6.86
2 0 -4 195.7 7.18
-2 0 4 194.03 7.54
2 0 -4 215.9 6.97
2 0 -4 219.61 7.09
2 0 -4 207.26 6.91
2 0 -4 207.33 7.22
2 0 -4 212.64 6.92
-2 0 4 185.12 6.91
-2 0 3 72.32 3.06
2 0 -3 74.69 3.65
-2 0 3 74.91 3.25
2 0 -3 71.51 3.31
-2 0 3 78.2 3.22
-2 0 3 76.55 3.22
-2 0 3 74.66 3.16
2 0 -3 73.53 3.63
-2 0 3 67.39 3.71
2 0 -3 76.16 3.21
2 0 -3 74.49 3.23
2 0 -3 74.82 3.2
2 0 -3 74.02 3.5
-2 0 3 65.09 3.39
2 0 -3 76.11 3.22
-2 0 2 86.19 3.3
-2 0 2 101.5 4.17
2 0 -2 91.16 3.86
-2 0 2 88.91 3.19
2 0 -2 92.04 3.32
-2 0 2 84.95 3.11
-2 0 2 88.94 3.12
-2 0 2 92.24 3.15
-2 0 2 85.02 3.12
2 0 -2 91.71 3.84
2 0 -2 90.34 3.17
2 0 -2 87.84 3.21
2 0 -2 89.14 3.15
2 0 -2 85.28 3.63
2 0 -2 91.98 3.27
2 0 -2 87.02 3.49
-2 0 2 83.51 3.74
-2 0 2 91.91 4.01
2 0 -2 86.39 3.26
-2 0 1 8795.18 178.73
-2 0 1 8152.85 178.01
2 0 -1 8707.11 178.31
-2 0 1 8424.93 178.66
-2 0 0 7760.04 159.66
-2 0 0 6729.63 159.44
-2 0 0 7362.16 159.84
2 0 0 8135.46 158.48
-2 0 0 7671.6 159.59
-2 0 0 8862.9 160.57
2 0 1 1.47 0.23
-2 0 -1 0.08 0.25
2 0 1 0.62 0.18
-2 0 -1 1 0.2
-2 0 -1 0.24 0.31
2 0 1 0.5 0.17
2 0 1 0.3 0.15
-2 0 -1 0.07 0.21
-2 0 -1 0.56 0.45
-2 0 -1 1 0.2
-2 0 -1 0.99 0.19
-2 0 -1 0.76 0.17
-2 0 -1 1.08 0.22
-2 0 -1 0.15 0.38
2 0 2 337.08 8.8
2 0 2 292.35 7.5
-2 0 -2 295.94 7.59
-2 0 -2 362.2 8.82
2 0 2 287.83 7.42
2 0 2 282.88 7.4
2 0 2 275.55 7.41
-2 0 -2 282.09 7.43
-2 0 -2 322.65 8.6
-2 0 -2 331.09 8.68
2 0 2 332.24 8.31
-2 0 -2 285.28 7.4
-2 0 -2 280.12 7.41
-2 0 -2 280.97 7.4
2 0 2 332.61 7.96
2 0 2 311.84 8.04
2 0 3 1766.36 39.36
2 0 3 1820.27 38.49
-2 0 -3 1770.22 38.54
-2 0 -3 1839.83 39.08
-2 0 -3 1691.96 38.94
2 0 3 1496.4 38.01
2 0 3 1508.03 38.07
2 0 3 1509.46 38.03
-2 0 -3 1511.18 38.02
-2 0 -3 1511.56 38.01
-2 0 -3 1505.95 38.06
2 0 3 1737.05 38.58
2 0 3 1745.62 38.89
-2 0 -3 1494.29 38.25
2 0 4 922.17 20.59
-2 0 -4 937.66 20.62
-2 0 -4 901.53 20.64
-2 0 -4 832.61 20.43
2 0 4 784.52 19.93
2 0 4 795.81 20.02
2 0 4 780.02 19.92
-2 0 -4 772.66 20.02
-2 0 -4 785.5 19.95
-2 0 -4 792.6 19.97
2 0 4 920.68 20.69
-2 0 -4 758.63 19.99
2 0 4 858.83 20.81
-2 0 -5 430.72 12.11
2 0 5 411.15 12.4
-2 0 -5 400.43 12.54
2 0 5 434.18 10.48
-2 0 -5 428.19 12.12
2 0 5 420.47 12.04
2 0 5 429.88 12.16
2 0 5 424.9 12.07
-2 0 -5 426.79 12.06
-2 0 -5 436.58 12.17
-2 0 -5 411.06 11.98
-2 0 -5 445.83 12.7
2 0 5 441.98 12.53
2 0 5 449.31 12.54
2 0 5 435.86 12.65
-2 0 -5 434.35 12.19
-2 0 -6 1753.16 43.8
2 0 6 1691.48 43.64
2 0 6 1737.11 41.11
-2 0 -6 1772.37 42.98
2 0 6 1960.55 43.7
2 0 6 1992.28 43.87
2 0 6 1927.95 43.67
-2 0 -6 1926.47 43.55
-2 0 -6 1936.84 43.64
-2 0 -6 1918.27 43.56
-2 0 -6 1820.96 44.11
2 0 6 1903.55 44.14
-2 0 -6 1883.99 43.64
2 0 6 1899.46 43.47
2 0 6 1889.39 44.27
2 0 7 459.4 14.3
-2 0 -7 456.04 14.38
2 0 7 458.12 13.99
2 0 7 451.65 13.84
2 0 7 437.86 13.76
-2 0 -7 431.66 13.07
2 0 7 416.08 11.49
-2 0 -7 457.32 13.86
-2 0 -7 474.73 14.02
-2 0 -7 467.43 14
-2 0 -7 480.08 14.57
2 0 7 468.61 14.51
-2 0 -7 441.21 13.88
2 0 7 441.46 14.43
2 0 7 453.42 13.42
-2 0 -8 11.72 1.97
2 0 8 11.33 1.9
2 0 8 11.48 1.92
2 0 8 14.35 2.05
2 0 8 17.7 2.21
-2 0 -8 11.81 1.67
2 0 8 12.18 1.28
2 0 8 16.2 2.22
-2 0 -8 13.94 1.99
-2 0 -8 12.8 1.97
-2 0 -8 12 1.9
2 0 8 15.06 2.3
-2 0 -8 13.95 2.23
2 0 8 13.75 1.8
2 0 8 12.81 2.01
-2 0 -8 10.36 1.8
-2 0 -9 14.44 2.34
2 0 9 16.22 2.41
2 0 9 17.84 2.54
2 0 9 20.6 2.71
-2 0 -9 17.67 2.61
2 0 9 16.88 2.45
2 0 9 17.97 2.64
-2 0 -9 16.29 2.1
-2 0 -9 17.63 2.55
-2 0 -9 19.46 2.57
-2 0 -9 16.93 2.45
-2 0 -9 16.79 2.51
2 0 9 16.47 2.43
2 0 9 13.75 2.36
-2 0 -9 18.52 2.54
-2 0 -10 18.28 2.84
2 0 10 18.12 2.78
2 0 10 14.11 2.47
2 0 10 17.74 2.67
2 0 10 17.91 2.66
2 0 10 20.28 3.04
-2 0 -10 16.71 2.14
-2 0 -10 15.21 2.47
-2 0 -10 16.44 2.54
-2 0 -10 15.16 2.57
2 0 10 14.4 2.57
-2 0 -10 15.02 2.76
-2 0 -10 21.29 2.92
2 0 10 14.5 2.42
-2 0 -10 17.65 2.76
2 0 11 95.74 6.92
-2 0 -11 106.99 7.41
2 0 11 102.32 6.97
2 0 11 96.21 6.96
2 0 11 95.12 6.8
-2 0 -11 97.37 6.98
-2 0 -11 100.1 5.7
-2 0 -11 98.36 6.74
-2 0 -11 96.42 6.67
-2 0 -11 99.52 6.86
-2 0 -11 105.61 7.67
2 0 11 95.43 6.57
-2 0 -11 101.57 6.92
2 0 11 88.71 7.03
-2 0 -12 120.75 8.54
2 0 12 125.2 8.5
2 0 12 120.9 8.14
2 0 12 117.74 8.13
2 0 12 135.54 8.74
-2 0 -12 125.69 8.42
-2 0 -12 138.54 8.59
-2 0 -12 122.89 8.17
-2 0 -12 132.73 8.43
-2 0 -12 150.71 9.36
2 0 12 116.71 7.71
2 0 12 121.64 8.86
-2 0 -12 151.06 9.09
-2 0 -13 4.57 1.8
2 0 13 6.4 2.33
2 0 13 5.2 1.78
2 0 13 4.35 1.79
2 0 13 8.17 2.35
2 0 13 3.79 1.66
-2 0 -13 5.93 2.18
-2 0 -13 8.95 2.47
-2 0 -13 5.44 2
-2 0 -13 6.56 2.22
-2 0 -13 4.64 2.05
-2 0 -13 3.81 2
2 0 14 43.35 5.17
2 0 14 46.32 5.69
2 0 14 56.12 6.01
-2 0 -14 53.2 5.94
2 0 14 37.87 5.04
-2 0 -14 57.08 5.98
-2 0 -14 47.6 5.61
-2 0 -14 57.84 6.12
-2 0 -14 47.62 6.17
-2 0 -14 51.34 5.88
2 0 14 49.99 6.27
2 0 14 47.49 5.78
-2 0 -14 41.17 5.49
-2 0 -15 76.17 8.24
2 0 15 60.25 6.49
2 1 -13 43.36 5.67
-2 -1 13 38.76 5.25
-2 -1 13 38.16 5.2
-2 -1 13 44.01 5.36
-2 -1 13 38.16 5.03
2 1 -13 34.43 5.01
2 1 -13 35.4 4.78
2 1 -13 47.63 5.54
2 1 -13 39.28 4.91
2 1 -13 49.81 5.87
2 1 -13 43.25 5.39
-2 -1 12 0.3 1.39
2 1 -12 0.65 1.25
-2 -1 12 0.44 1.03
-2 -1 12 3.13 1.18
-2 -1 12 4.13 1.92
-2 -1 12 3.23 1.84
2 1 -12 2.41 1.26
2 1 -12 2.26 1.49
2 1 -12 2.57 1.27
2 1 -12 2.69 1.77
2 1 -12 1.81 1.45
2 1 -12 3.41 1.8
-2 -1 11 75.23 6.46
2 1 -11 84.5 6.96
-2 -1 11 79.32 6.62
-2 -1 11 81.07 6.53
-2 -1 11 82.08 6.55
2 1 -11 80.43 6.7
-2 -1 11 82.59 6.4
2 1 -11 86.93 6.68
2 1 -11 88.41 6.78
2 1 -11 89.85 6.88
2 1 -11 95.87 7.25
2 1 -11 91.58 6.86
-2 -1 10 78.11 6.15
2 1 -10 78.09 6.3
-2 -1 10 70.52 5.69
-2 -1 10 70.94 5.74
-2 -1 10 72.51 5.93
2 1 -10 73.88 6.01
-2 -1 10 83.98 6.24
2 1 -10 83.78 5.32
2 1 -10 83.56 6.27
2 1 -10 73.13 5.89
2 1 -10 73.21 5.85
2 1 -10 73.41 6
2 1 -10 80.95 5.99
-2 -1 9 -0.18 0.99
2 1 -9 1.68 1.01
-2 -1 9 0.7 1
-2 -1 9 0.36 0.76
-2 -1 9 -0.15 0.91
2 1 -9 -0.43 1.03
2 1 -9 -1.23 1.21
2 1 -9 -0.53 1.01
2 1 -9 -0.87 0.87
2 1 -9 -0.91 0.98
2 1 -9 1.08 0.84
-2 -1 9 0.97 1.08
-2 -1 8 266.06 11.13
2 1 -8 271.07 11.47
-2 -1 8 277.95 11.26
2 1 -8 281.6 10.11
-2 -1 8 267.2 10.85
-2 -1 8 270.13 10.88
-2 -1 8 261.51 10.85
2 1 -8 273.17 11.03
2 1 -8 277.66 11.08
2 1 -8 269.35 11
2 1 -8 286.19 11.22
2 1 -8 285.37 10.92
2 1 -7 377.7 13.45
-2 -1 7 365.97 13.07
-2 -1 7 369.44 12.76
-2 -1 7 385.51 12.99
-2 -1 7 369.59 12.82
-2 -1 7 392.25 13.57
2 1 -7 376.41 12.22
2 1 -7 389.57 13.04
2 1 -7 384.06 13.04
2 1 -7 391.01 13.18
2 1 -7 392.97 13.26
2 1 -7 396.64 12.91
-2 -1 6 409.11 10.89
2 1 -6 400.59 13.36
-2 -1 6 409.65 13.21
-2 -1 6 411.8 13.02
-2 -1 6 406.3 12.95
-2 -1 6 414.27 13.05
-2 -1 6 385.81 12.9
2 1 -6 401.83 12.44
-2 -1 6 423.15 13.82
2 1 -6 423.38 13.28
2 1 -6 418.9 13.12
2 1 -6 428.56 13.39
2 1 -6 416.04 13.06
2 1 -6 438.39 13.06
-2 -1 5 22.8 1.52
2 1 -5 23.37 2.29
-2 -1 5 23.22 2.21
-2 -1 5 24.99 2.22
-2 -1 5 20.88 2.06
-2 -1 5 22.75 2.15
-2 -1 5 19.55 2.04
2 1 -5 20.73 2.18
-2 -1 5 22.26 2.36
2 1 -5 22.39 2.12
2 1 -5 25.79 2.33
2 1 -5 24.04 2.23
2 1 -5 25.65 2.38
2 1 -5 24.93 2.2
-2 -1 4 406.2 10.59
-2 -1 4 420.61 12.18
2 1 -4 441.61 12.58
-2 -1 4 430.59 12.02
-2 -1 4 433.66 12.05
-2 -1 4 412.86 11.96
-2 -1 4 412.54 11.98
2 1 -4 432.76 12.39
-2 -1 4 415.13 12.86
2 1 -4 434.48 12.33
2 1 -4 429.38 12.08
2 1 -4 429.77 12.09
2 1 -4 431.9 12.46
2 1 -4 416.18 11.92
2 1 -3 648.41 16.63
-2 -1 3 728.32 16.93
-2 -1 3 619.7 14.76
-2 -1 3 652.02 16.07
2 1 -3 669.37 16.33
-2 -1 3 672.67 15.89
-2 -1 3 662.64 15.88
-2 -1 3 663.17 15.9
2 1 -3 648.47 16.49
-2 -1 3 656.73 15.96
-2 -1 3 629.45 17.03
2 1 -3 648.6 16.16
2 1 -3 681.73 16.03
2 1 -3 663.51 16.57
2 1 -3 651.15 15.92
-2 -1 3 617.29 15.44
2 1 -3 669.98 16.04
2 1 -2 205.99 6.9
-2 -1 2 193.63 5.62
-2 -1 2 230.98 7.05
2 1 -2 212.18 6.42
-2 -1 2 207.22 6.25
-2 -1 2 213 6.12
-2 -1 2 213.17 6.13
-2 -1 2 214.33 6.13
2 1 -2 203.47 6.75
-2 -1 2 215.77 6.16
-2 -1 2 195.78 7
2 1 -2 205.25 6.31
2 1 -2 211.22 6.21
2 1 -2 213.41 6.16
2 1 -2 210.2 6.82
-2 -1 2 208.24 6.38
2 1 -2 214.18 6.37
2 1 -2 180.26 5.35
2 1 -1 5816.13 126.74
2 1 -1 6146.49 128.62
-2 -1 1 6572.12 128.84
-2 -1 1 5692.96 127.23
2 1 -1 6173.43 127.44
-2 -1 1 5988.6 127.27
-2 -1 1 6073.29 127.16
-2 -1 1 6111.56 127.13
-2 -1 1 5998.17 127.11
-2 -1 1 5924.07 127.16
-2 -1 1 6091.94 127.16
-2 -1 1 5939.04 128.57
2 1 -1 6097.88 128.16
2 1 -1 6327.26 127.3
2 1 -1 5180.9 126.41
2 1 -1 6249.33 127.19
-2 -1 1 5867.57 128.16
2 1 -1 5954.55 127.58
2 1 -1 5724.08 128.25
2 1 0 434.94 11.58
-2 -1 0 493.49 12.01
-2 -1 0 546.05 13.04
-2 -1 0 502.45 11.31
-2 -1 0 510.71 11.3
-2 -1 0 499.86 12.44
2 1 0 454.5 12.45
2 1 0 447.8 12
2 1 0 498.61 11.87
-2 -1 0 489.31 12.61
2 1 0 435.47 11.56
2 1 0 516.92 11.38
-2 -1 0 509.23 11.31
-2 -1 0 489.78 11.3
2 1 1 9544.42 207.6
-2 -1 -1 9999 207.94
2 1 1 9325.58 207.23
2 1 2 74.94 3.02
2 1 2 69.4 3.04
-2 -1 -2 68.79 2.7
2 1 2 66.25 2.63
-2 -1 -2 79.11 3.42
2 1 2 64.97 2.53
2 1 2 63.87 2.54
-2 -1 -2 66.22 2.53
-2 -1 -2 69.8 2.62
-2 -1 -2 67.25 2.23
-2 -1 -2 63.89 3.06
2 1 2 74.87 2.52
-2 -1 -2 67.86 2.58
-2 -1 -2 65.21 2.51
-2 -1 -2 68.35 2.55
2 1 2 75.96 2.25
2 1 2 75.89 3.27
2 1 2 71.66 2.36
-2 -1 -2 69.01 3.1
2 1 2 78.99 3.31
2 1 3 38.95 2.26
2 1 3 38.08 2.06
-2 -1 -3 35.07 2.02
-2 -1 -3 36.66 2.34
2 1 3 32.51 1.89
2 1 3 34.44 1.92
2 1 3 33.53 1.99
-2 -1 -3 35.67 1.97
-2 -1 -3 37.71 2.25
-2 -1 -3 36.11 1.96
-2 -1 -3 36.79 1.99
-2 -1 -3 36.08 1.96
2 1 3 37.42 1.79
2 1 3 32.05 2.21
2 1 3 33.94 1.85
-2 -1 -3 36.79 2.1
2 1 3 34.66 2.29
2 1 4 3057.61 65.24
-2 -1 -4 3014.81 65.35
-2 -1 -4 3034.05 65.75
2 1 4 2935.47 65.14
2 1 4 2782.13 64.82
2 1 4 2841.09 64.82
-2 -1 -4 2969.39 65.03
-2 -1 -4 2842.43 65.09
-2 -1 -4 2976.37 64.96
-2 -1 -4 2858.5 64.89
-2 -1 -4 2926.94 64.94
2 1 4 2993.15 66.03
2 1 4 3056.18 64.82
2 1 4 3010.41 65.09
2 1 4 3125.79 65.85
-2 -1 -4 2714.44 64.48
2 1 5 6084.42 122.07
-2 -1 -5 5966.7 122.17
2 1 5 5522.46 121.59
2 1 5 4871.99 121.27
2 1 5 5208.03 121.57
-2 -1 -5 5408.08 121.77
-2 -1 -5 5620.31 121.35
-2 -1 -5 5475.18 121.6
-2 -1 -5 5398.53 121.65
-2 -1 -5 5099.36 121.55
2 1 5 6047.57 121.8
2 1 5 5904.24 122.69
-2 -1 -5 5949.95 122.64
-2 -1 -5 5050.64 120.23
2 1 5 5959.4 122.24
2 1 5 5991.33 121.98
-2 -1 -5 5970.7 121.96
2 1 6 191.84 7.38
-2 -1 -6 194.56 7.54
2 1 6 226.22 7.79
2 1 6 213.41 7.53
2 1 6 208.59 7.42
-2 -1 -6 206.81 7.52
-2 -1 -6 195.25 6.88
2 1 6 170.06 4.91
-2 -1 -6 200.9 7.31
-2 -1 -6 206.21 7.37
-2 -1 -6 205.51 7.38
-2 -1 -6 201.35 7.89
2 1 6 200.42 7.82
2 1 6 210.68 7.57
-2 -1 -6 216.6 7.63
2 1 6 211.1 7.72
2 1 6 213.43 7.57
-2 -1 -7 0.38 0.5
2 1 7 0.89 0.72
2 1 7 0.58 0.59
2 1 7 1.51 0.76
2 1 7 0.15 0.51
2 1 7 0.52 0.67
2 1 7 0.6 0.28
-2 -1 -7 0.22 0.37
-2 -1 -7 1.4 0.63
-2 -1 -7 0.64 0.68
-2 -1 -7 0.43 0.49
2 1 7 1.22 0.82
-2 -1 -7 1.01 0.78
-2 -1 -7 0.72 0.53
2 1 7 -0.1 0.58
2 1 7 0.16 0.45
-2 -1 -7 0.3 0.54
-2 -1 -8 59.22 4.36
2 1 8 56.71 4.22
2 1 8 59.41 4.18
2 1 8 65.36 4.38
2 1 8 59.05 4.35
-2 -1 -8 61.82 4.34
2 1 8 53.43 2.49
-2 -1 -8 61.32 3.67
-2 -1 -8 64.34 4.28
-2 -1 -8 59.93 4.16
-2 -1 -8 61.95 4.22
-2 -1 -8 62.37 4.53
2 1 8 61.14 4.4
2 1 8 59.61 4.37
-2 -1 -8 65.41 4.46
2 1 8 65.45 4.59
2 1 9 90.35 5.72
-2 -1 -9 75.85 5.37
2 1 9 75.77 5.4
2 1 9 85.28 5.52
2 1 9 81.52 5.37
-2 -1 -9 81.3 5.49
-2 -1 -9 75.46 4.4
-2 -1 -9 79.05 5.25
-2 -1 -9 89.01 5.5
-2 -1 -9 91.75 5.63
-2 -1 -9 81.87 5.76
2 1 9 74.31 5.34
2 1 9 76.89 5.45
-2 -1 -9 86.82 5.56
2 1 9 88.18 5.86
-2 -1 -10 68.27 5.45
2 1 10 72.83 5.58
2 1 10 73.77 5.46
2 1 10 70.71 5.44
2 1 10 69.26 5.21
-2 -1 -10 60.9 5.02
-2 -1 -10 67.45 4.29
-2 -1 -10 68.45 5.14
-2 -1 -10 72.61 5.29
-2 -1 -10 68.37 5.17
-2 -1 -10 69.94 5.64
2 1 10 59.25 5.09
-2 -1 -10 67.34 5.42
2 1 10 65.42 5.42
-2 -1 -11 2.72 1.4
2 1 11 2.91 1.3
2 1 11 3.17 1.45
2 1 11 2.22 1.52
2 1 11 2.82 1.2
2 1 11 3.21 1.51
-2 -1 -11 0.86 0.98
-2 -1 -11 3.73 1.43
-2 -1 -11 3.95 1.44
-2 -1 -11 4.42 1.69
-2 -1 -11 1.8 1.33
-2 -1 -11 4.34 1.82
2 1 11 2.65 1.16
2 1 12 121.11 8.15
2 1 12 123.64 8.52
-2 -1 -12 126.36 8.67
2 1 12 136.92 8.66
2 1 12 139.65 8.93
2 1 12 136.66 8.58
-2 -1 -12 132.51 8.52
-2 -1 -12 128.33 8.26
-2 -1 -12 144.04 8.75
-2 -1 -12 132.29 8.4
-2 -1 -12 147.93 9.46
2 1 12 123.57 7.89
-2 -1 -12 137.24 8.56
2 1 12 128.84 8.85
2 1 13 0.8 1.09
-2 -1 -13 2.32 1.37
2 1 13 1.19 1.35
2 1 13 -0.83 1.2
2 1 13 3.97 1.76
2 1 13 4.4 1.86
2 1 13 1.65 1.42
-2 -1 -13 1.81 1.42
-2 -1 -13 1.49 0.99
-2 -1 -13 0.15 1.15
-2 -1 -13 -0.08 1.32
-2 -1 -13 1.82 1.97
-2 -1 -13 0.12 1.34
2 1 14 545.25 21.88
2 1 14 628.69 23.98
2 1 14 585.29 22.99
2 1 14 591.86 22.95
-2 -1 -14 611.51 23.15
2 1 14 594.39 23.43
-2 -1 -14 622.09 24.08
-2 -1 -14 626.75 23.15
-2 -1 -14 625.83 23.12
-2 -1 -14 653.23 23.66
-2 -1 -14 607.18 24.79
-2 -1 -14 647.2 24.16
-2 -1 -15 1.39 1.51
2 1 15 -1.43 1.95
2 1 15 -0.21 1.44
2 1 15 -0.61 1.46
2 1 15 0.12 1.26
-2 -1 -15 -1.56 1.78
-2 -1 -15 0.24 1.21
-2 -1 -15 0.13 1.27
-2 -1 -15 -0.39 1.84
-2 -1 -15 0.48 1.74
2 1 15 0.42 1.27
-2 -2 12 110.58 8.62
2 2 -12 112.74 8.89
-2 -2 12 109.26 8.37
-2 -2 12 109.64 8.55
-2 -2 12 98.03 7.94
2 2 -12 102.7 8.36
-2 -2 12 113.17 8.24
2 2 -12 125.9 8.87
2 2 -12 112.99 8.42
2 2 -12 116.29 8.61
2 2 -12 132.36 9.05
2 2 -12 122.85 8.57
2 2 -11 33.79 4.54
-2 -2 11 37.58 4.53
-2 -2 11 29.88 4.06
-2 -2 11 34.64 4.24
-2 -2 11 34.51 4.26
2 2 -11 35.16 4.39
-2 -2 11 34.08 4.16
2 2 -11 34.16 4.21
2 2 -11 35.2 4.25
2 2 -11 28.24 3.99
2 2 -11 38.62 4.66
2 2 -11 34.36 4.23
2 2 -10 27.73 3.8
-2 -2 10 21.71 3.32
-2 -2 10 25.93 3.55
-2 -2 10 31.38 3.81
-2 -2 10 24.82 3.46
2 2 -10 22.02 3.33
2 2 -10 24.84 3.42
2 2 -10 24.01 3.37
2 2 -10 24.56 3.41
2 2 -10 27.03 3.78
-2 -2 10 23.48 3.39
-2 -2 9 104.76 6.93
2 2 -9 96.04 6.8
-2 -2 9 104.24 6.76
-2 -2 9 113.66 6.97
-2 -2 9 106.09 6.74
2 2 -9 104.72 5.81
-2 -2 9 111.29 7.08
2 2 -9 102.23 6.62
2 2 -9 103.12 6.72
2 2 -9 109.92 6.92
2 2 -9 117.45 7.2
2 2 -9 115.44 6.94
-2 -2 8 74.99 5.53
2 2 -8 77.86 5.72
-2 -2 8 74.79 5.25
-2 -2 8 88.23 5.66
-2 -2 8 75.84 5.29
-2 -2 8 70.85 5.16
-2 -2 8 78.44 5.63
2 2 -8 77.19 4.64
2 2 -8 79.27 5.48
2 2 -8 76.99 5.36
2 2 -8 77.48 5.36
2 2 -8 79.61 5.67
2 2 -8 89.21 5.62
-2 -2 7 2.83 1.08
2 2 -7 2.81 1.24
-2 -2 7 4.17 1.29
-2 -2 7 2.27 1.02
-2 -2 7 5.78 1.48
-2 -2 7 2.72 0.82
2 2 -7 3.66 0.81
-2 -2 7 1.97 0.98
2 2 -7 4.36 1.13
2 2 -7 4.82 1.37
2 2 -7 2.34 1.04
2 2 -7 4.46 1.29
2 2 -7 2.28 1.27
2 2 -7 3.95 1.3
-2 -2 6 60.17 4.18
2 2 -6 61.69 4.34
-2 -2 6 58.07 3.96
-2 -2 6 62.13 4.11
-2 -2 6 61.59 4.08
-2 -2 6 58.69 4.03
-2 -2 6 63.9 4.56
2 2 -6 60.28 4.09
2 2 -6 59.83 4.22
2 2 -6 64.06 4.3
2 2 -6 65.57 4.21
2 2 -6 60.39 4
-2 -2 6 58.09 4.71
-2 -2 5 315.62 10.89
2 2 -5 329.64 11.27
-2 -2 5 335.81 10.77
-2 -2 5 342.14 10.86
-2 -2 5 329.61 10.76
-2 -2 5 331.28 10.84
2 2 -5 338.16 10.99
-2 -2 5 318.04 11.61
2 2 -5 333.12 11.1
2 2 -5 349.03 11.03
2 2 -5 351.57 11.24
2 2 -5 341.9 10.9
2 2 -5 351.33 10.92
-2 -2 5 309.2 9.02
-2 -2 5 337.4 12.22
-2 -2 4 7.41 0.6
2 2 -4 7.71 1.32
-2 -2 4 8.35 1.31
-2 -2 4 7.01 1.21
-2 -2 4 7.52 1.2
-2 -2 4 6.85 1.16
2 2 -4 7.29 1.24
-2 -2 4 8.4 1.29
-2 -2 4 7.54 1.2
-2 -2 4 7.33 1.39
-2 -2 4 6.56 1.36
2 2 -4 7.25 1.19
2 2 -4 6.92 1.25
2 2 -4 6.05 1.11
2 2 -4 10.31 1.54
2 2 -4 6.2 1.12
-2 -2 4 6.7 0.94
2 2 -3 44.44 3.06
-2 -2 3 48.78 1.77
-2 -2 3 53.97 3.05
2 2 -3 51.02 3.11
-2 -2 3 50.55 2.97
-2 -2 3 49.44 2.85
-2 -2 3 49.49 2.84
-2 -2 3 51.53 2.87
2 2 -3 50.11 3.01
-2 -2 3 50.04 2.86
-2 -2 3 49.38 3.38
2 2 -3 49.44 2.95
2 2 -3 55.58 3.23
-2 -2 3 45.93 3.24
2 2 -3 49.97 2.89
2 2 -3 53.25 2.97
-2 -2 3 49.93 2.68
-2 -2 3 48.35 3.26
2 2 -2 535.98 14.68
-2 -2 2 603.8 14.65
2 2 -2 558.58 14.43
-2 -2 2 553.41 14.21
-2 -2 2 573.97 14.03
-2 -2 2 559.59 14.08
-2 -2 2 553.72 13.97
2 2 -2 552.95 14.48
-2 -2 2 559.15 14.01
-2 -2 2 547.99 14.01
-2 -2 2 530.41 15.08
-2 -2 2 518.13 12.56
2 2 -2 561.42 14.24
2 2 -2 560.09 14.75
-2 -2 2 499.3 14.41
2 2 -2 559.43 14.04
-2 -2 2 534.54 14.15
2 2 -2 549.45 14.24
-2 -2 2 519.92 14.53
-2 -2 1 3630.15 71.86
2 2 -1 3050.26 70.43
2 2 -1 3375.65 71.84
2 2 -1 3522.39 71.29
-2 -2 1 3225.34 70.9
-2 -2 1 3319.88 70.74
-2 -2 1 3350.82 70.74
-2 -2 1 3405.22 70.73
-2 -2 1 3393.28 70.77
-2 -2 1 3386.04 70.81
-2 -2 1 3292.6 72
-2 -2 1 2930.69 69.8
2 2 -1 3466.76 71
2 2 -1 3375.28 70.87
2 2 -1 2923.78 69.79
-2 -2 1 3010.32 70.78
2 2 -1 3193.44 71.64
-2 -2 1 3299.6 71.49
2 2 -1 3173.23 71.15
2 2 0 3343.98 72.41
-2 -2 0 3836.44 73.65
-2 -2 0 3426.25 72.15
-2 -2 0 3343.8 72.16
-2 -2 0 3398.37 72.18
-2 -2 0 3401.93 72.18
-2 -2 0 3494.67 73.2
2 2 0 2879.9 72.88
-2 -2 0 3329.48 72.11
2 2 0 2927.23 71.95
2 2 0 3399.83 72.31
2 2 0 3364.18 73.29
2 2 0 3184.67 72.67
-2 -2 0 3362.3 73.23
2 2 1 1218.02 30.13
2 2 1 1318.78 29.22
-2 -2 -1 1352.03 29.46
-2 -2 -1 1297.46 29.76
-2 -2 -1 1300.81 29.75
-2 -2 -1 1329.71 29.75
2 2 1 1325.67 30.86
-2 -2 -1 1369.7 30.17
-2 -2 -1 1308.37 29.71
2 2 1 1313.39 30.2
-2 -2 -1 1360.68 30.87
2 2 1 1210.94 30.14
2 2 2 1645.53 37.41
-2 -2 -2 1651.88 35.83
-2 -2 -2 1787.12 38.02
2 2 2 1605.39 36.82
-2 -2 -2 1619.04 36.94
2 2 2 1611.34 36.88
-2 -2 -2 1577.2 36.68
-2 -2 -2 1582.66 36.71
-2 -2 -2 1633.76 36.19
2 2 2 1634.97 37.61
-2 -2 -2 1627.54 37.51
-2 -2 -2 1599.75 36.74
-2 -2 -2 1577.49 36.67
2 2 2 1424.19 37.06
-2 -2 -2 1570.37 37.4
2 2 2 1449.39 37.13
-2 -2 -3 251.27 6.65
2 2 3 252.23 8.01
-2 -2 -3 255.86 7.73
-2 -2 -3 278.88 8.43
2 2 3 245.99 7.55
2 2 3 272.03 7.7
2 2 3 266.13 7.72
-2 -2 -3 253.95 7.56
-2 -2 -3 231.62 7.61
-2 -2 -3 263.25 6.25
-2 -2 -3 268.36 8
-2 -2 -3 248.57 7.56
-2 -2 -3 241.47 7.5
-2 -2 -3 252.19 7.59
2 2 3 262.78 8.22
2 2 3 244.03 6.63
-2 -2 -3 259.53 7.82
2 2 3 281.83 8.24
2 2 4 1751.03 40.06
-2 -2 -4 1761.82 39.95
2 2 4 1783.95 39.76
2 2 4 1537.91 39.17
2 2 4 1561.69 39.25
-2 -2 -4 1716.6 39.46
-2 -2 -4 1708.54 39.52
-2 -2 -4 1667 39.36
-2 -2 -4 1666.69 39.39
-2 -2 -4 1677.67 39.38
2 2 4 1806.89 40.38
2 2 4 1751.78 38.87
-2 -2 -4 1694.27 39.19
2 2 4 1683.07 40.13
2 2 5 3.19 0.84
-2 -2 -5 3.14 0.76
2 2 5 2.6 0.65
2 2 5 3.19 0.85
2 2 5 1.95 0.69
2 2 5 2.03 0.64
-2 -2 -5 2.02 0.63
-2 -2 -5 1.98 0.67
-2 -2 -5 2.27 0.77
-2 -2 -5 2.79 0.84
-2 -2 -5 2.45 0.75
-2 -2 -5 2.49 0.67
2 2 5 2.36 0.83
2 2 6 2140.65 48.73
-2 -2 -6 2205.28 48.89
2 2 6 2218.54 48.66
2 2 6 2177.98 48.58
2 2 6 2072.81 48.82
2 2 6 2151.71 48.37
-2 -2 -6 2137.88 48.4
-2 -2 -6 2074.75 47.45
-2 -2 -6 2131.86 48.3
-2 -2 -6 2148.68 48.3
-2 -2 -6 2105.63 48.35
2 2 6 2219.75 49.12
2 2 6 2152.78 48.17
2 2 7 424.15 13.33
2 2 7 460.17 13.59
-2 -2 -7 433.02 13.54
2 2 7 440.82 13.44
2 2 7 425.29 13.68
2 2 7 447.94 13.38
-2 -2 -7 401.51 13.1
2 2 7 396.42 9.86
-2 -2 -7 402.18 12
-2 -2 -7 424.74 13.12
-2 -2 -7 425.45 13.13
-2 -2 -7 426.54 13.2
2 2 7 437.35 13.65
-2 -2 -7 434.33 13.79
2 2 7 443.8 13.35
-2 -2 -7 357.05 10.69
2 2 8 198.04 8.66
2 2 8 219.75 8.93
-2 -2 -8 204.55 8.85
2 2 8 204.47 8.69
2 2 8 220.03 8.83
2 2 8 202.14 8.96
-2 -2 -8 201.74 8.69
-2 -2 -8 197.81 7.46
-2 -2 -8 211.9 8.67
-2 -2 -8 202.47 8.53
-2 -2 -8 204.97 8.62
-2 -2 -8 217.66 9.22
2 2 8 210.77 8.94
2 2 8 214.52 8.9
-2 -2 -8 206.22 8.7
2 2 9 90.58 5.72
2 2 9 86.31 5.66
-2 -2 -9 90.01 5.86
2 2 9 89.01 5.75
2 2 9 94.83 5.88
2 2 9 84.07 5.81
-2 -2 -9 84.64 5.56
-2 -2 -9 84.98 4.57
-2 -2 -9 88.17 5.66
-2 -2 -9 85.6 5.51
-2 -2 -9 91.14 5.7
-2 -2 -9 92.85 6.04
2 2 9 82.37 5.54
2 2 9 90.53 5.82
-2 -2 -9 86.19 5.74
2 2 10 4.22 1.41
2 2 10 3.38 1.26
-2 -2 -10 5.78 1.74
2 2 10 5.52 1.65
2 2 10 6.73 1.66
2 2 10 4.23 1.53
-2 -2 -10 4.37 1.06
2 2 10 3.86 1.34
-2 -2 -10 3.37 1.3
-2 -2 -10 3.61 1.35
-2 -2 -10 2.23 1.18
-2 -2 -10 4.78 1.8
-2 -2 -10 4.49 1.46
2 2 10 8.81 1.87
-2 -2 -10 4.3 1.69
2 2 11 3.24 1.35
2 2 11 2.79 1.35
-2 -2 -11 -0.47 1.01
2 2 11 2.7 1.35
2 2 11 2.29 1.24
2 2 11 2.11 1.26
2 2 11 2.12 1.05
-2 -2 -11 0.15 0.92
-2 -2 -11 1.12 0.94
-2 -2 -11 0.97 1.08
-2 -2 -11 2.22 1.37
-2 -2 -11 3.54 1.51
-2 -2 -11 3.43 1.41
2 2 11 1.96 0.98
2 2 12 215.61 11
2 2 12 232.68 11.8
2 2 12 240.2 11.7
2 2 12 219.75 11.2
-2 -2 -12 216.79 11.13
2 2 12 215.9 11.37
-2 -2 -12 217.86 11.57
-2 -2 -12 218.77 11.1
-2 -2 -12 219.13 11.08
-2 -2 -12 212.33 11
2 2 12 198.72 10.42
-2 -2 -12 220.81 11.82
2 2 12 210.79 11.6
-2 -2 -12 230.88 11.45
2 2 13 623.06 23.17
-2 -2 -13 621.51 23.35
-2 -2 -13 626.64 22.63
2 2 13 642.25 23.06
2 2 13 631.91 22.73
2 2 13 664.68 23.72
-2 -2 -13 625.45 22.5
-2 -2 -13 632.06 22.46
-2 -2 -13 648.44 22.95
-2 -2 -13 630.48 23.6
2 2 13 584.66 21.29
2 2 13 611.42 22.11
2 2 14 510.34 21.11
-2 -2 -14 479.74 20.88
-2 -2 -14 519.35 20.62
2 2 14 532.45 21.45
2 2 14 486.34 20.47
2 2 14 506 20.63
-2 -2 -14 508.98 20.32
-2 -2 -14 545.15 21.08
-2 -2 -14 524.48 20.58
-2 -2 -14 545.38 21.8
2 2 14 486.22 19.7
2 2 15 13.6 3.45
-2 -2 -15 13.15 3.16
2 2 15 18.92 3.89
2 2 15 14.29 3.43
-2 -2 -15 16.59 3.53
-2 -2 -15 12.95 3.16
-2 -2 -15 14.48 3.25
-2 -2 -15 23.84 4.32
-2 -2 -15 16.46 3.51
2 2 15 19.52 3.77
-2 -3 12 27.38 4.33
2 3 -12 20.38 3.79
-2 -3 12 24.68 4.08
-2 -3 12 23.12 3.83
-2 -3 12 21.97 3.76
2 3 -12 20.4 3.49
2 3 -12 22.17 3.96
2 3 -12 18.78 3.59
2 3 -12 27.28 4.12
2 3 -12 29.08 4.32
2 3 -12 29.12 4.58
-2 -3 12 23.39 3.73
-2 -3 11 47.49 5.33
2 3 -11 36.83 4.89
-2 -3 11 36.89 4.74
-2 -3 11 39.25 4.81
-2 -3 11 47.97 5.18
-2 -3 11 39.61 4.79
2 3 -11 38.65 4.65
2 3 -11 41.15 4.83
2 3 -11 38.08 4.62
2 3 -11 49.14 5.51
2 3 -11 42.04 4.87
2 3 -10 12.91 2.85
-2 -3 10 10.61 2.46
-2 -3 10 13.44 2.75
-2 -3 10 9.16 2.14
-2 -3 10 10.36 2.32
-2 -3 10 13.17 2.56
2 3 -10 14.64 2.76
2 3 -10 12.17 2.56
2 3 -10 13.01 2.66
2 3 -10 15.81 2.94
2 3 -10 14.11 2.65
-2 -3 9 50.12 4.89
2 3 -9 55.95 5.26
-2 -3 9 55.77 4.83
-2 -3 9 56.38 4.89
-2 -3 9 55.67 4.86
-2 -3 9 53.09 4.9
-2 -3 9 57.6 5.29
2 3 -9 51.18 4.81
2 3 -9 44.93 4.41
2 3 -9 52.3 4.8
2 3 -9 59.91 5.21
2 3 -9 54.46 4.85
2 3 -8 0.57 0.98
-2 -3 8 1.81 1.11
-2 -3 8 1.15 0.97
-2 -3 8 0.28 0.81
-2 -3 8 -0.09 0.77
-2 -3 8 -0.36 1.06
-2 -3 8 0.72 0.85
-2 -3 8 0.39 0.87
2 3 -8 0.28 0.98
2 3 -8 0.13 0.89
2 3 -8 2.08 1.04
2 3 -8 1.68 1.18
2 3 -8 3.48 1.55
2 3 -7 148.93 8.05
-2 -3 7 157.11 8.04
-2 -3 7 154.77 7.72
-2 -3 7 153.26 7.7
-2 -3 7 151.75 7.65
-2 -3 7 151.58 7.72
2 3 -7 165.5 6.92
-2 -3 7 171.89 8.59
2 3 -7 167.03 6.62
2 3 -7 150.22 7.85
2 3 -7 154.69 7.83
2 3 -7 174.6 8.16
2 3 -7 144.54 7.58
2 3 -7 165.32 7.78
-2 -3 7 166.51 8.93
-2 -3 6 119.43 6.45
2 3 -6 117.66 6.61
-2 -3 6 121.27 6.26
-2 -3 6 119.64 6.24
-2 -3 6 115.84 6.2
-2 -3 6 119.07 6.27
-2 -3 6 130.07 7.04
2 3 -6 119.46 6.52
2 3 -6 116.47 6.33
2 3 -6 120.56 6.29
2 3 -6 135.51 6.72
-2 -3 6 118.8 6.97
2 3 -6 137.95 6.53
-2 -3 6 134.36 7.3
-2 -3 5 215.92 8.87
2 3 -5 229.34 9.29
-2 -3 5 218.72 8.58
-2 -3 5 231.49 8.73
-2 -3 5 213.48 8.63
2 3 -5 220.56 8.47
-2 -3 5 226.29 8.7
-2 -3 5 241.29 9.74
2 3 -5 218.39 8.91
2 3 -5 231.1 8.97
2 3 -5 250.67 9.2
2 3 -5 231.9 8.84
-2 -3 5 233.16 9.64
2 3 -5 243.16 8.86
-2 -3 5 249.79 7.55
-2 -3 5 235.3 9.66
-2 -3 4 926.11 25.35
2 3 -4 989.57 26.75
-2 -3 4 986.43 26.43
-2 -3 4 1036.17 26.22
-2 -3 4 1053.3 26.23
-2 -3 4 1042.02 26.17
-2 -3 4 1042.59 26.21
2 3 -4 1083.21 26.21
-2 -3 4 1055.6 27.67
2 3 -4 1060.19 26.53
2 3 -4 1075.77 26.65
2 3 -4 1073.03 26.37
-2 -3 4 1042.21 27.24
-2 -3 4 1015.72 27.06
2 3 -4 1092.28 26.43
-2 -3 4 1085.08 25.32
-2 -3 3 32.26 2.32
-2 -3 3 33.26 2.55
2 3 -3 32.51 2.65
-2 -3 3 33.3 2.46
-2 -3 3 31.34 2.36
-2 -3 3 35.01 2.49
-2 -3 3 35.57 2.53
2 3 -3 35.22 2.55
-2 -3 3 34.45 2.49
-2 -3 3 37.89 3.06
2 3 -3 28.69 2.38
2 3 -3 32.57 2.66
2 3 -3 36.19 2.59
-2 -3 3 29.62 2.66
-2 -3 3 34.67 2.4
2 3 -3 32.88 2.52
-2 -3 3 33.92 2.68
-2 -3 2 251.38 7.8
2 3 -2 243.78 8.2
2 3 -2 232.08 8.24
-2 -3 2 242.29 8.01
-2 -3 2 233.34 7.68
-2 -3 2 243.68 7.76
-2 -3 2 246.81 7.74
2 3 -2 243.74 7.86
-2 -3 2 247.55 7.79
-2 -3 2 242.34 7.79
-2 -3 2 253.09 8.76
2 3 -2 234.62 8.01
2 3 -2 245.57 8.21
2 3 -2 237.46 7.88
-2 -3 2 230.85 7.87
-2 -3 2 238.24 7.86
-2 -3 2 233.71 7.9
2 3 -2 250.42 7.98
2 3 -1 14.63 1.54
2 3 -1 18.55 1.56
-2 -3 1 19.75 1.7
-2 -3 1 17 1.52
-2 -3 1 19.45 1.56
-2 -3 1 19.19 1.58
-2 -3 1 17.72 1.52
-2 -3 1 17.61 1.82
2 3 -1 17.5 1.56
-2 -3 1 16.39 1.46
-2 -3 1 13.6 1.51
-2 -3 1 16.82 1.43
2 3 -1 17.53 1.58
-2 -3 0 2.95 0.69
2 3 0 3.52 0.77
-2 -3 0 3.9 0.77
-2 -3 0 3.42 0.65
-2 -3 0 2.95 0.63
-2 -3 0 2.13 0.51
-2 -3 0 3.11 0.62
-2 -3 0 2.64 0.68
-2 -3 0 3.68 0.53
-2 -3 0 3.05 0.65
2 3 0 2.14 0.53
2 3 0 4.05 0.72
-2 -3 0 3.39 0.56
-2 -3 0 1.7 0.6
2 3 0 3.09 0.74
-2 -3 -1 508.79 12.84
2 3 1 485.68 13.32
-2 -3 -1 562.15 13.86
-2 -3 -1 507.74 12.93
-2 -3 -1 520.06 12.97
-2 -3 -1 517.74 12.94
2 3 1 442.14 13.3
-2 -3 -1 508.55 13.18
-2 -3 -1 489.71 12.84
-2 -3 -1 490.55 11.59
2 3 1 491.87 13.07
-2 -3 -1 473.96 13.56
2 3 1 493.81 13.37
-2 -3 -2 76.8 3.03
2 3 2 63.12 3.44
-2 -3 -2 85 3.97
-2 -3 -2 70.94 3.43
2 3 2 74.62 3.5
-2 -3 -2 72.66 3.37
-2 -3 -2 72.96 3.33
-2 -3 -2 72.4 3.3
2 3 2 69.1 3.59
-2 -3 -2 70.66 3.31
-2 -3 -2 72.76 3.31
-2 -3 -2 72.78 2.12
2 3 2 74.66 3.6
-2 -3 -2 71.37 3.63
-2 -3 -3 554.62 13.71
2 3 3 558.56 14.97
2 3 3 559.86 14.71
-2 -3 -3 562.21 14.83
-2 -3 -3 587.92 15.38
2 3 3 529.17 14.51
-2 -3 -3 543.96 14.45
-2 -3 -3 556.95 14.51
2 3 3 559.1 14.87
-2 -3 -3 538.88 14.46
-2 -3 -3 548.89 14.49
2 3 3 515.52 14.79
-2 -3 -3 562.42 14.82
2 3 4 1388.73 32.59
-2 -3 -4 1387.9 31.13
-2 -3 -4 1438.76 32.56
2 3 4 1458.34 32.39
2 3 4 1308.93 32.23
2 3 4 1268.17 32.34
-2 -3 -4 1302.77 32.27
-2 -3 -4 1320.09 32.06
2 3 4 1391.5 32.13
-2 -3 -4 1318.68 32.01
-2 -3 -4 1332.59 32.11
-2 -3 -4 1325.91 32.19
2 3 4 1407.56 32.84
-2 -3 -4 1322.03 31.92
2 3 5 471.55 13.43
2 3 5 448.45 13.35
-2 -3 -5 444.04 13.48
2 3 5 463.19 13.15
2 3 5 461.35 13.22
-2 -3 -5 451.29 13
-2 -3 -5 461.27 13.2
2 3 5 453.59 12.74
-2 -3 -5 445.58 12.64
-2 -3 -5 453.06 13.04
-2 -3 -5 463.3 13.2
-2 -3 -5 462.6 13.13
2 3 5 463.52 13.66
-2 -3 -5 397.75 12.3
2 3 5 444.33 12.23
2 3 6 1094.1 27.62
2 3 6 1097.33 27.5
-2 -3 -6 1088.8 27.76
2 3 6 1108.91 27.55
2 3 6 1099.91 27.38
-2 -3 -6 1109.05 27.34
-2 -3 -6 1074.16 26.42
-2 -3 -6 1086.05 27.22
-2 -3 -6 1056.69 27.35
-2 -3 -6 1061.91 27.21
2 3 6 1122.13 27.96
-2 -3 -6 1004.29 25.88
2 3 6 1096.9 26.82
2 3 7 1.01 0.76
-2 -3 -7 2.8 1.05
2 3 7 1.02 0.68
2 3 7 3.39 1.03
2 3 7 3.49 1.01
-2 -3 -7 1.54 0.62
2 3 7 2.81 0.95
-2 -3 -7 2.44 0.84
-2 -3 -7 1.8 0.79
-2 -3 -7 2.63 0.84
-2 -3 -7 2.36 0.87
2 3 7 1.26 0.61
-2 -3 -7 1.77 0.53
2 3 8 491.72 15.33
2 3 8 479.9 15.38
-2 -3 -8 476.61 15.54
2 3 8 493.71 15.27
2 3 8 489.39 15.15
-2 -3 -8 475.48 15.05
-2 -3 -8 458.64 13.48
-2 -3 -8 488.33 15.06
-2 -3 -8 471.54 14.96
-2 -3 -8 469.23 14.99
2 3 8 481.84 15.38
2 3 8 487.35 15.12
2 3 9 110.81 6.43
-2 -3 -9 121.41 6.92
2 3 9 117.14 6.68
2 3 9 119.18 6.65
2 3 9 118.4 6.6
-2 -3 -9 106.99 6.31
-2 -3 -9 108.89 5.31
-2 -3 -9 118 6.49
-2 -3 -9 117.19 6.58
-2 -3 -9 115.12 6.47
2 3 9 120.49 6.72
-2 -3 -9 121.88 7.05
2 3 9 118.95 6.72
-2 -3 -10 -0.73 1.05
2 3 10 -0.66 0.96
2 3 10 0.9 0.91
2 3 10 1.67 1.07
-2 -3 -10 0.28 0.53
-2 -3 -10 0.93 0.92
-2 -3 -10 0.7 0.97
-2 -3 -10 -0.24 1.03
-2 -3 -10 3.16 1.51
2 3 10 0.22 0.86
-2 -3 -10 -0.32 1.08
2 3 10 1.39 1.02
2 3 11 82.92 6.34
-2 -3 -11 73.64 6.02
-2 -3 -11 69.79 5.72
2 3 11 75.09 5.94
2 3 11 70.26 5.71
-2 -3 -11 78.41 5.99
-2 -3 -11 74.62 5.96
-2 -3 -11 85.5 6.17
-2 -3 -11 75.47 6.17
2 3 11 80.34 6.01
2 3 11 79.46 5.96
2 3 12 32.45 4.22
-2 -3 -12 31.46 4.3
-2 -3 -12 33.74 4.06
2 3 12 38.82 4.46
2 3 12 38.23 4.36
-2 -3 -12 32.91 4.02
-2 -3 -12 33.58 4.07
-2 -3 -12 35.75 4.22
-2 -3 -12 38.83 4.5
2 3 12 34.12 4.06
2 3 12 32.61 3.99
2 3 13 108.31 8.3
-2 -3 -13 112.44 8.47
-2 -3 -13 125.57 8.56
2 3 13 115.21 8.31
2 3 13 125.97 8.59
-2 -3 -13 111.63 8.01
-2 -3 -13 108.82 8.01
-2 -3 -13 117.01 8.23
-2 -3 -13 122.52 8.79
2 3 13 116.83 7.89
2 3 13 110.37 7.89
2 3 14 138.74 9.75
2 3 14 143.88 9.81
-2 -3 -14 139.69 9.47
-2 -3 -14 141.72 9.7
-2 -3 -14 135.63 9.36
-2 -3 -14 139.34 9.54
2 3 14 134.72 9.72
-2 -3 -14 131.24 9.79
2 3 14 128.68 8.96
2 3 15 95.7 8.51
2 3 15 84.91 7.97
-2 -3 -15 88.15 7.92
-2 -3 -15 89.64 7.89
-2 -3 -15 91.69 8.11
-2 -3 -15 81 7.57
2 3 15 82.4 7.34
-2 -3 -15 82.78 8.18
2 3 15 87.85 8.27
-2 -4 12 64.06 6.37
2 4 -11 215.72 12.54
-2 -4 11 231.9 12.69
-2 -4 11 232.57 12.25
-2 -4 11 215.22 11.94
-2 -4 11 210.76 11.86
-2 -4 11 212.25 12.02
2 4 -11 210.44 11.85
2 4 -11 220.35 12.16
2 4 -11 206.41 11.81
2 4 -11 251.93 12.82
2 4 -11 212.06 11.73
-2 -4 10 57.19 5.72
2 4 -10 41.75 5.06
-2 -4 10 50.32 5.13
-2 -4 10 49.23 5.05
-2 -4 10 46.69 5.06
-2 -4 10 59.43 5.67
2 4 -10 46.08 4.9
2 4 -10 52.71 5.32
2 4 -10 46.13 4.98
2 4 -10 48.4 5.15
2 4 -10 53.26 5.26
-2 -4 9 54.21 5.27
2 4 -9 61.31 5.69
-2 -4 9 60.7 5.31
-2 -4 9 57.06 5.2
-2 -4 9 57.84 5.15
-2 -4 9 64.07 5.56
-2 -4 9 61.05 5.58
2 4 -9 61.54 5.44
2 4 -9 62.71 5.37
2 4 -9 62.14 5.42
2 4 -9 58.61 5.27
2 4 -9 59.99 5.26
-2 -4 9 68.11 6.48
2 4 -8 0.08 1.11
-2 -4 8 0.77 0.81
-2 -4 8 0.51 0.86
-2 -4 8 1.56 1.19
-2 -4 8 2.22 1.16
-2 -4 8 -0.34 0.94
-2 -4 8 1.68 1.04
-2 -4 8 3.75 1.52
2 4 -8 1.24 0.75
2 4 -8 -0.08 0.98
2 4 -8 1.68 1.18
2 4 -8 2.51 1.4
2 4 -8 -0.91 1.11
2 4 -8 1.64 1.25
2 4 -7 0.46 0.89
-2 -4 7 0.31 0.9
-2 -4 7 1.22 1.03
-2 -4 7 -1.15 1.24
-2 -4 7 0.31 0.72
-2 -4 7 -0.89 0.79
-2 -4 7 0.12 0.78
2 4 -7 -0.18 0.6
-2 -4 7 -0.74 0.8
2 4 -7 -0.66 0.95
2 4 -7 -1.64 1.12
-2 -4 7 -0.53 0.8
2 4 -7 -0.87 0.91
2 4 -7 0.67 1.05
2 4 -7 0.07 0.78
2 4 -6 76.39 5.44
-2 -4 6 78.3 5.32
-2 -4 6 80.31 5.09
-2 -4 6 75.94 5.01
-2 -4 6 76.61 5.01
-2 -4 6 80.65 5.18
-2 -4 6 80.6 5.71
2 4 -6 77.2 5.25
2 4 -6 77.3 5.11
2 4 -6 88.69 5.39
2 4 -6 73.16 4.96
-2 -4 6 69.76 5.46
-2 -4 6 81.3 5.76
2 4 -6 75.75 4.95
2 4 -5 725.14 21.48
-2 -4 5 714.08 21.09
-2 -4 5 699.44 20.6
-2 -4 5 712.6 20.57
-2 -4 5 687.31 20.39
-2 -4 5 724.72 20.68
-2 -4 5 785.98 22.31
2 4 -5 706.14 20.79
2 4 -5 748.35 20.98
2 4 -5 711.54 20.65
-2 -4 5 738.96 21.85
-2 -4 5 735.72 21.92
2 4 -5 775.73 20.89
-2 -4 5 787.91 19.37
2 4 -4 12.24 1.85
-2 -4 4 11.33 1.4
-2 -4 4 12.27 1.8
-2 -4 4 10.91 1.59
-2 -4 4 11.11 1.67
2 4 -4 9.72 1.5
-2 -4 4 10.16 1.56
-2 -4 4 10.6 1.63
-2 -4 4 7.53 1.55
-2 -4 4 10.97 1.9
2 4 -4 10.95 1.65
2 4 -4 11.68 1.68
-2 -4 4 10.8 1.86
2 4 -4 9.71 1.63
2 4 -4 12.09 1.79
-2 -4 4 9.99 1.43
-2 -4 3 344.22 10.66
2 4 -3 369.68 12.1
-2 -4 3 367.18 11.84
-2 -4 3 376.25 11.6
-2 -4 3 367.93 11.57
-2 -4 3 375.4 11.58
2 4 -3 344.71 10.99
-2 -4 3 392.44 11.76
-2 -4 3 372.12 11.63
-2 -4 3 390.76 12.85
2 4 -3 386.82 11.93
2 4 -3 359.44 11.68
2 4 -3 393.69 11.78
-2 -4 3 370.21 12.01
-2 -4 3 360.46 11.86
-2 -4 3 381.76 11.49
2 4 -3 403.6 11.96
-2 -4 2 628.13 16.46
2 4 -2 661.84 17.75
-2 -4 2 635.06 17.35
-2 -4 2 635.97 17.09
-2 -4 2 653.57 17.12
-2 -4 2 656.16 17.11
2 4 -2 635.86 16.71
-2 -4 2 642.09 17.1
-2 -4 2 642.17 17.16
-2 -4 2 662.59 18.34
2 4 -2 636.53 17.38
2 4 -2 670.9 17.32
2 4 -2 619.89 17.35
-2 -4 2 638.32 17.24
-2 -4 2 617.65 16.92
-2 -4 2 608.01 17.06
2 4 -2 678.76 17.4
-2 -4 1 9.06 1.21
-2 -4 1 8.78 1.34
2 4 -1 9.19 1.33
2 4 -1 8.12 1.15
-2 -4 1 11.36 1.33
-2 -4 1 9.35 1.25
-2 -4 1 8.58 1.23
-2 -4 1 9.82 1.26
-2 -4 1 9.28 1.48
2 4 -1 8.84 1.23
-2 -4 1 8.14 1.16
-2 -4 1 8.93 1.12
2 4 -1 9.94 1.37
2 4 0 27.73 2.15
-2 -4 0 36.5 2.55
2 4 0 31.89 2.44
-2 -4 0 37.45 2.53
-2 -4 0 34.69 2.38
-2 -4 0 39.03 2.56
-2 -4 0 33.48 2.37
-2 -4 0 34.08 2.38
-2 -4 0 34.95 2.42
2 4 0 34.96 2.55
-2 -4 0 37.77 2.15
2 4 0 34.97 2.32
-2 -4 0 35.14 1.91
2 4 0 35.81 2.53
2 4 0 37.54 2.63
-2 -4 -1 0.62 0.39
-2 -4 -1 1.76 0.62
-2 -4 -1 0.44 0.37
-2 -4 -1 0.17 0.36
-2 -4 -1 0.31 0.42
-2 -4 -1 0.5 0.34
-2 -4 -1 0.59 0.24
-2 -4 -1 0.84 0.45
2 4 1 -0.01 0.37
2 4 1 0.33 0.38
-2 -4 -1 0.44 0.26
2 4 1 1.73 0.67
-2 -4 -2 120.98 4.67
2 4 2 109.99 4.91
-2 -4 -2 117.51 5.06
-2 -4 -2 124.31 5.31
2 4 2 117.34 5.07
-2 -4 -2 104.88 4.76
-2 -4 -2 120.04 4.86
-2 -4 -2 110.15 4.77
2 4 2 113.43 5.04
-2 -4 -2 112.5 4.81
-2 -4 -2 111.35 4.74
-2 -4 -2 115.13 3.69
2 4 2 113.74 5.06
-2 -4 -2 110.17 3.02
2 4 2 115.32 4.78
-2 -4 -3 2971.51 66.8
2 4 3 2945.43 67.82
2 4 3 2985.2 67.9
-2 -4 -3 3012.21 68
-2 -4 -3 3214.73 68.48
-2 -4 -3 3038.55 67.72
-2 -4 -3 2997.53 67.45
-2 -4 -3 2998.08 67.56
2 4 3 2995.88 67.74
-2 -4 -3 2998.31 67.57
-2 -4 -3 2995.98 67.49
2 4 3 3104.91 68.09
-2 -4 -3 2983.01 64.55
2 4 4 2.44 0.8
-2 -4 -4 3.1 0.9
2 4 4 2.49 0.75
-2 -4 -4 3.11 0.78
2 4 4 2.36 0.7
-2 -4 -4 1.51 0.57
-2 -4 -4 1.33 0.63
-2 -4 -4 3.33 0.89
2 4 4 2.37 0.77
2 4 4 3.44 0.95
-2 -4 -4 2.4 0.63
2 4 5 583.91 16.35
-2 -4 -5 572.55 16.54
2 4 5 563.11 16.21
2 4 5 554.54 16.3
-2 -4 -5 572.94 16.09
-2 -4 -5 566.19 16.24
2 4 5 559.54 15.58
-2 -4 -5 573.72 16.08
-2 -4 -5 568.67 16.27
-2 -4 -5 566.06 16.14
2 4 5 589.34 16.7
-2 -4 -5 560.14 15.33
2 4 5 581.94 16.37
-2 -4 -6 53.74 3.34
2 4 6 58.36 3.96
2 4 6 51.31 3.79
-2 -4 -6 57.63 4.01
2 4 6 57.46 3.82
2 4 6 61.6 4.01
-2 -4 -6 55.94 3.71
-2 -4 -6 56.31 3.79
2 4 6 55.9 3.37
-2 -4 -6 57.37 3.75
-2 -4 -6 54.31 3.76
-2 -4 -6 59.62 3.85
2 4 6 57.07 3.95
-2 -4 -6 46.4 3.18
2 4 7 43.55 3.52
2 4 7 46.8 3.69
-2 -4 -7 47.92 3.79
2 4 7 41.99 3.55
2 4 7 42.93 3.61
-2 -4 -7 46.16 3.6
-2 -4 -7 45.23 3.6
2 4 7 45.02 3.05
-2 -4 -7 46.27 3.58
-2 -4 -7 43.97 3.55
-2 -4 -7 43.52 3.5
2 4 7 45.44 3.66
-2 -4 -7 40.61 2.88
2 4 8 818.81 22.79
2 4 8 835.17 23.14
-2 -4 -8 801 23.22
2 4 8 833.1 23.12
2 4 8 830.63 22.97
-2 -4 -8 809.04 22.71
-2 -4 -8 815.2 22.9
2 4 8 793.12 20.83
-2 -4 -8 819.73 22.71
-2 -4 -8 810.64 22.87
-2 -4 -8 796.59 22.66
2 4 8 811.81 23.09
2 4 9 274.13 11.35
-2 -4 -9 287.31 11.79
2 4 9 282.77 11.29
2 4 9 296.14 11.61
-2 -4 -9 267.36 10.97
2 4 9 265.63 9.35
-2 -4 -9 273.58 11.02
-2 -4 -9 271.94 11.19
-2 -4 -9 264.85 10.97
2 4 9 282.56 11.32
2 4 9 284.46 11.24
2 4 10 405.75 15.32
-2 -4 -10 408.38 15.62
-2 -4 -10 408.79 14.98
2 4 10 428.06 15.45
2 4 10 413.12 15.15
-2 -4 -10 416.03 15.03
-2 -4 -10 407.59 15.14
-2 -4 -10 397.93 14.89
2 4 10 386.51 14.77
2 4 10 409.07 14.97
2 4 11 66.9 5.62
-2 -4 -11 65.18 5.69
-2 -4 -11 64.74 5.37
2 4 11 60.71 5.38
2 4 11 56.8 5.19
-2 -4 -11 68.19 5.61
-2 -4 -11 62.41 5.41
-2 -4 -11 66.84 5.47
2 4 11 66.61 5.38
2 4 11 62.49 5.22
2 4 12 58.31 5.61
-2 -4 -12 59.09 5.77
-2 -4 -12 63.92 5.65
2 4 12 61.91 5.8
2 4 12 57.57 5.47
-2 -4 -12 71.69 6
-2 -4 -12 61.21 5.73
-2 -4 -12 62.56 5.63
2 4 12 60.52 5.41
2 4 12 61.57 5.47
2 4 13 121.29 8.81
-2 -4 -13 119.25 8.89
-2 -4 -13 120.62 8.4
2 4 13 126.89 8.81
2 4 13 132.34 8.87
-2 -4 -13 125.08 8.51
-2 -4 -13 129.43 8.81
-2 -4 -13 116.4 8.28
2 4 13 118.92 7.96
2 4 13 122.35 8.29
-2 -4 -14 6.47 2.4
2 4 14 5.03 2.29
2 4 14 5.63 2.31
2 4 14 3.54 1.52
-2 -4 -14 4.54 1.76
-2 -4 -14 3.25 1.65
-2 -4 -14 5.64 2.13
-2 -4 -14 3.55 1.85
2 4 14 4.53 2.12
-2 -4 -15 22.26 4.22
2 4 15 25.09 4.49
2 4 15 26.89 4.47
-2 -4 -15 24.65 4.23
2 4 15 28.32 4.74
-2 -4 -15 28 4.42
-2 -4 -15 27.68 4.43
-2 -4 -15 30.69 4.66
-2 -4 -15 22.59 4.15
2 4 15 31.69 4.4
2 5 -11 33.46 4.84
-2 -5 11 37.69 5.02
-2 -5 11 32.27 4.43
-2 -5 11 37.5 4.83
-2 -5 11 42.43 5.23
-2 -5 11 35.01 4.64
2 5 -11 40.32 4.96
2 5 -11 33.72 4.67
2 5 -11 35.63 4.88
2 5 -11 37.25 4.86
2 5 -11 37.86 4.73
-2 -5 10 3.14 1.79
2 5 -10 2.37 1.41
-2 -5 10 0.52 1.08
-2 -5 10 1.62 1.27
-2 -5 10 2.11 1.49
-2 -5 10 1.8 1.2
-2 -5 10 0.66 0.97
2 5 -10 -0.67 1.3
2 5 -10 1.49 1.18
2 5 -10 0.06 1.39
2 5 -10 2.71 1.55
2 5 -10 1.96 1.39
-2 -5 9 84.98 6.8
2 5 -9 75.53 6.6
-2 -5 9 77.27 6.35
-2 -5 9 76.58 6.32
-2 -5 9 81.74 6.57
-2 -5 9 77.4 6.4
-2 -5 9 78.59 6.62
2 5 -9 61.41 5.91
2 5 -9 71.77 6.13
2 5 -9 81.75 6.48
2 5 -9 92.05 6.79
-2 -5 9 88.9 7.59
2 5 -9 83.7 6.41
-2 -5 8 69.78 5.96
2 5 -8 59.27 5.63
-2 -5 8 64.47 5.39
-2 -5 8 64.75 5.4
-2 -5 8 65.97 5.42
-2 -5 8 67.66 5.63
2 5 -8 76.01 4.9
-2 -5 8 62.6 5.76
2 5 -8 61.46 5.46
2 5 -8 64.76 5.51
2 5 -8 63.09 5.4
2 5 -8 69.06 5.65
-2 -5 8 68.43 6.33
2 5 -8 68.56 5.57
-2 -5 8 65.14 6.1
-2 -5 7 339.44 13.86
2 5 -7 330.79 13.95
-2 -5 7 323.03 13.15
-2 -5 7 327.78 13.26
-2 -5 7 323.33 13.14
-2 -5 7 342.52 13.54
-2 -5 7 358.13 14.55
2 5 -7 380.69 12.48
2 5 -7 323.82 13.59
2 5 -7 330.8 13.39
2 5 -7 363.82 13.58
2 5 -7 327.11 13.3
-2 -5 7 356.71 14.85
-2 -5 7 337.9 14.52
2 5 -7 334.16 13.08
2 5 -6 18.05 2.72
-2 -5 6 18.31 2.77
-2 -5 6 21.72 2.69
-2 -5 6 21.11 2.7
-2 -5 6 18.49 2.49
-2 -5 6 16.92 2.46
-2 -5 6 17.64 2.83
-2 -5 6 15.69 2.7
2 5 -6 19.44 2.67
2 5 -6 16.61 2.41
2 5 -6 16.88 2.46
-2 -5 6 22.62 3.05
2 5 -6 19 2.69
2 5 -5 38.25 3.75
-2 -5 5 40.73 3.71
-2 -5 5 44.37 3.71
-2 -5 5 33.07 3.29
-2 -5 5 36.66 3.38
-2 -5 5 39.12 3.54
-2 -5 5 40.4 4.02
2 5 -5 36.09 3.5
-2 -5 5 38.04 3.86
2 5 -5 49.24 3.82
2 5 -5 42.26 3.68
-2 -5 5 37.4 3.75
2 5 -5 41.55 3.57
-2 -5 4 248.12 8.49
2 5 -4 259.07 10.5
-2 -5 4 266.12 10.39
-2 -5 4 273.78 10.17
-2 -5 4 264.02 10.13
-2 -5 4 273.42 10.17
-2 -5 4 270.72 10.18
-2 -5 4 276.07 10.28
2 5 -4 264.85 9.34
-2 -5 4 282.22 11.29
2 5 -4 263.75 10.25
2 5 -4 275.8 10.26
-2 -5 4 279.17 10.82
2 5 -4 309.7 10.52
-2 -5 4 279.42 10.65
2 5 -4 293.6 10.36
-2 -5 4 269.2 9.66
-2 -5 3 233.38 7.92
2 5 -3 257.65 9.78
-2 -5 3 268.09 9.74
-2 -5 3 252.56 9.33
-2 -5 3 246.62 9.2
-2 -5 3 252.32 9.21
2 5 -3 213.03 8.14
-2 -5 3 255.48 9.3
-2 -5 3 252.8 9.34
-2 -5 3 270.26 10.52
2 5 -3 259.39 9.63
2 5 -3 256.58 9.33
2 5 -3 255.94 9.31
-2 -5 3 256.59 9.69
2 5 -3 261.39 9.43
-2 -5 3 254.4 9.41
-2 -5 2 123.99 6.26
-2 -5 2 122.65 5
2 5 -2 125.97 6.13
-2 -5 2 126.04 6.02
-2 -5 2 129.11 5.78
-2 -5 2 125.71 5.75
-2 -5 2 130.7 5.8
2 5 -2 110.3 5
-2 -5 2 124.91 5.73
-2 -5 2 130.72 5.86
-2 -5 2 133.95 6.61
2 5 -2 123.19 5.9
2 5 -2 135.25 6.02
2 5 -2 128.9 5.84
-2 -5 2 120.82 5.79
-2 -5 2 129.96 5.71
2 5 -2 138.81 6.05
-2 -5 1 139.42 6.31
2 5 -1 148.63 5.84
2 5 -1 126.36 3.4
-2 -5 1 134.39 5.35
-2 -5 1 137.54 5.91
-2 -5 1 139.38 5.89
-2 -5 1 139.5 5.9
-2 -5 1 143.12 6.01
-2 -5 1 141.39 5.74
2 5 -1 142.24 6.06
2 5 -1 144.18 6.11
-2 -5 1 141.06 5.46
2 5 0 2.93 0.81
-2 -5 0 3.22 0.91
2 5 0 2.79 0.97
-2 -5 0 2.56 0.71
-2 -5 0 3.55 0.89
-2 -5 0 4.03 0.91
-2 -5 0 3.47 0.9
-2 -5 0 4.36 0.98
-2 -5 0 2.81 0.63
-2 -5 0 3.32 0.78
2 5 0 3.79 0.91
-2 -5 0 4.52 0.85
2 5 0 3.43 0.85
2 5 1 46.65 2.76
-2 -5 -1 39.26 2.92
2 5 1 45.28 3.12
-2 -5 -1 51.43 3.19
-2 -5 -1 46.7 3.05
-2 -5 -1 50.7 3.16
-2 -5 -1 42.64 2.94
-2 -5 -1 43.98 3
-2 -5 -1 45.95 3.04
2 5 1 42.31 2.98
-2 -5 -1 44.3 2.47
2 5 1 41.44 3.03
2 5 1 46.71 3
-2 -5 -1 43.18 2.16
-2 -5 -2 241.64 8.11
2 5 2 225.13 8.17
-2 -5 -2 248.69 8.57
-2 -5 -2 231.72 8.15
-2 -5 -2 227.14 8.06
-2 -5 -2 227.72 8.14
-2 -5 -2 216.57 6.11
-2 -5 -2 220.93 8
2 5 2 212.46 7.99
-2 -5 -2 238 6.92
2 5 2 223.41 7.76
2 5 3 76 4.43
-2 -5 -3 84.34 4.23
-2 -5 -3 90.42 4.6
-2 -5 -3 90.3 4.57
-2 -5 -3 83 4.43
2 5 3 84.71 4.71
-2 -5 -3 82.19 4.64
-2 -5 -3 88.4 4.82
-2 -5 -3 86.94 4.55
-2 -5 -3 86.63 4.5
2 5 3 87.59 4.65
2 5 3 83.14 4.12
-2 -5 -3 83.47 2.9
2 5 4 729.14 20.28
-2 -5 -4 744.01 20.41
-2 -5 -4 754.44 20.1
-2 -5 -4 712.82 19.74
-2 -5 -4 728.85 19.88
-2 -5 -4 729.06 19.95
-2 -5 -4 736.81 19.84
2 5 4 736.69 20.22
2 5 4 722.98 20.09
-2 -5 -4 730.91 19.28
2 5 5 1172.56 30.51
-2 -5 -5 1170.77 30.6
2 5 5 1176.22 30.42
-2 -5 -5 1182.98 30.12
-2 -5 -5 1216.58 30.33
2 5 5 1167.4 29.45
-2 -5 -5 1182.1 30.23
-2 -5 -5 1185.72 30.11
2 5 5 1236.04 30.82
-2 -5 -5 1202.24 29.48
2 5 5 1221.02 30.42
2 5 6 2.98 1.05
-2 -5 -6 3.19 1.07
2 5 6 3.41 1
-2 -5 -6 3.39 1.03
2 5 6 1.79 0.69
2 5 6 2.95 0.82
-2 -5 -6 3.21 0.96
-2 -5 -6 2.59 0.88
-2 -5 -6 3.18 1.1
2 5 6 4.41 1.27
-2 -5 -6 3.08 0.95
-2 -5 -6 3.95 1.04
2 5 6 2.7 0.77
-2 -5 -7 1775.66 44.39
2 5 7 1804.25 44.11
2 5 7 1780.52 43.93
2 5 7 1825.66 44.25
-2 -5 -7 1803.56 43.81
-2 -5 -7 1809.6 44.05
2 5 7 1719.69 42.04
-2 -5 -7 1772.85 43.69
-2 -5 -7 1769.07 43.78
-2 -5 -7 1794.73 44.01
2 5 7 1752.44 44.23
-2 -5 -7 1769.26 42.93
2 5 7 1812.68 43.9
-2 -5 -8 2832.71 65.82
2 5 8 2895.78 66.85
2 5 8 2924.59 67.25
-2 -5 -8 2893.96 67.67
2 5 8 2871.03 66.98
2 5 8 2901.38 67.27
-2 -5 -8 2900.66 67.15
-2 -5 -8 2906.31 66.82
2 5 8 2792.82 64.3
-2 -5 -8 2889.41 66.79
-2 -5 -8 2889.93 67.15
-2 -5 -8 2909.44 66.95
2 5 8 2943.35 67.34
2 5 9 372.14 13.47
2 5 9 361.59 13.64
-2 -5 -9 358.94 13.93
2 5 9 369.66 13.55
2 5 9 374.22 13.77
-2 -5 -9 370.95 13.72
-2 -5 -9 362.26 13.35
2 5 9 339.54 11.12
-2 -5 -9 363.93 13.36
-2 -5 -9 356.58 13.51
-2 -5 -9 371.02 13.56
2 5 9 358.76 13.57
-2 -5 -10 10.69 2.13
2 5 10 15.98 2.65
2 5 10 9.95 2.03
-2 -5 -10 13.17 2.41
2 5 10 16.02 2.62
-2 -5 -10 14.61 2.49
-2 -5 -10 14.87 2.48
-2 -5 -10 15.01 2.5
2 5 10 11.77 2.23
-2 -5 -10 11.72 2.25
2 5 10 16.08 2.58
-2 -5 -11 27.96 3.81
2 5 11 35.43 4.14
-2 -5 -11 28.09 3.69
-2 -5 -11 37.27 4.11
2 5 11 29.11 3.65
2 5 11 31.38 3.85
-2 -5 -11 30.78 3.79
-2 -5 -11 31.77 3.75
-2 -5 -11 30.81 3.74
2 5 11 30.68 3.71
2 5 11 28.95 3.59
2 5 12 35.7 4.42
-2 -5 -12 41.92 4.92
-2 -5 -12 44.02 4.85
-2 -5 -12 37.51 4.39
2 5 12 33 4.2
2 5 12 38.79 4.66
-2 -5 -12 33.9 4.14
-2 -5 -12 39.95 4.6
-2 -5 -12 44.83 4.8
2 5 12 35.89 4.17
2 5 12 40.44 4.4
-2 -5 -13 23.26 3.87
2 5 13 23.69 3.86
-2 -5 -13 26.05 4.07
2 5 13 26.46 4.08
2 5 13 24.08 3.77
-2 -5 -13 22.84 3.59
-2 -5 -13 19.11 3.28
-2 -5 -13 22.07 3.6
2 5 13 26.25 3.74
-2 -5 -13 17.47 3.21
2 5 13 25.51 3.66
2 5 14 5.56 2.18
-2 -5 -14 5.9 2.06
2 5 14 3.19 1.61
-2 -5 -14 4.15 1.66
2 5 14 5.69 2.08
-2 -5 -14 7.29 2.29
-2 -5 -14 8.31 2.57
-2 -5 -14 1.75 1.22
2 5 14 6.85 2.17
-2 -5 -14 2.69 1.56
2 5 14 3.89 1.62
-2 -5 -15 100.81 8.36
-2 -5 -15 93.86 8.33
-2 -5 -15 78.07 7.51
-2 -5 -15 79.61 7.79
-2 -5 -15 89.27 8.04
2 5 15 90.49 8.22
2 5 15 90.78 8.37
2 5 15 85.22 8.14
-2 -5 -15 87.14 8.39
-2 -6 10 58.89 6.14
2 6 -10 66.48 6.63
-2 -6 10 63.64 6.33
-2 -6 10 64.71 6.32
-2 -6 10 67.03 6.43
-2 -6 10 66.88 6.51
-2 -6 10 58.02 6.14
2 6 -10 57.74 6.23
2 6 -10 54.38 5.83
2 6 -10 61.84 6.18
2 6 -10 65.7 6.36
2 6 -10 68.93 6.38
-2 -6 10 72.78 7.51
2 6 -9 1.89 1.52
-2 -6 9 3.54 1.65
-2 -6 9 0.4 1.57
-2 -6 9 1.34 1.49
-2 -6 9 2.45 1.69
-2 -6 9 2.57 1.22
-2 -6 9 0.16 1.31
-2 -6 9 0.35 1.06
2 6 -9 1.51 1.58
2 6 -9 0.5 1.2
2 6 -9 0.17 1.63
2 6 -9 -0.47 1.57
2 6 -9 -1.15 1.48
-2 -6 8 275.45 13.12
2 6 -8 256.53 12.85
-2 -6 8 242.99 12.01
-2 -6 8 242.56 11.94
-2 -6 8 249.58 12.12
-2 -6 8 247.01 12.17
2 6 -8 292.32 11.35
-2 -6 8 270.3 13.2
2 6 -8 239.26 12.38
2 6 -8 245.33 12.15
2 6 -8 244.72 12.1
2 6 -8 268.02 12.23
-2 -6 8 250.39 13.37
2 6 -8 260.44 12.05
-2 -6 8 265.61 13.66
-2 -6 7 46.78 4.7
2 6 -7 42.73 4.72
-2 -6 7 42.21 4.42
-2 -6 7 37.82 4.18
-2 -6 7 46.69 4.63
-2 -6 7 39.65 4.32
-2 -6 7 43.69 4.81
2 6 -7 49.02 4.18
2 6 -7 35.76 4.28
2 6 -7 40.33 4.33
2 6 -7 47.85 4.54
2 6 -7 44.18 4.55
-2 -6 7 50.99 5.25
-2 -6 7 51.02 5.19
2 6 -7 41.91 4.25
-2 -6 6 18.52 2.84
2 6 -6 18.47 2.92
-2 -6 6 21.12 2.9
-2 -6 6 19.52 2.79
-2 -6 6 19.76 2.82
-2 -6 6 20.14 2.88
-2 -6 6 19.61 3.15
-2 -6 6 18.85 3.08
2 6 -6 22.74 2.71
2 6 -6 19.37 2.91
2 6 -6 19.5 2.86
-2 -6 6 17.28 2.87
2 6 -6 20.31 2.87
2 6 -6 16.52 2.49
2 6 -5 113.15 7.06
-2 -6 5 105.63 6.67
-2 -6 5 109.9 6.42
-2 -6 5 113.38 6.48
-2 -6 5 112.63 6.47
-2 -6 5 110.77 6.47
-2 -6 5 110.35 7.24
2 6 -5 111.63 6.62
2 6 -5 117.04 6.48
-2 -6 5 110.58 7.01
2 6 -5 106.12 6.33
-2 -6 5 112.76 6.9
2 6 -5 103.68 6.22
2 6 -4 28.14 3.25
-2 -6 4 36.12 3.61
-2 -6 4 36.72 3.37
-2 -6 4 35 3.31
-2 -6 4 32.85 3.23
-2 -6 4 35.52 3.34
-2 -6 4 32.17 3.17
-2 -6 4 34.68 3.83
2 6 -4 35.34 3.4
2 6 -4 36.4 3.39
2 6 -4 31.12 3.11
-2 -6 4 33.7 3.48
-2 -6 4 35.45 3.42
2 6 -4 32.73 3.26
-2 -6 4 27.39 3.01
2 6 -3 208.46 9.23
-2 -6 3 220.22 9.24
-2 -6 3 213.91 8.9
-2 -6 3 208.87 8.73
-2 -6 3 211.28 8.77
-2 -6 3 211.04 8.8
-2 -6 3 218.65 8.96
2 6 -3 184.62 7.33
-2 -6 3 241.23 10.24
2 6 -3 201.9 8.88
2 6 -3 211.74 8.84
2 6 -3 223.33 8.76
-2 -6 3 221.26 9.21
-2 -6 3 218.72 8.93
2 6 -3 222.04 8.93
-2 -6 2 265.92 8.83
-2 -6 2 302.49 11.36
2 6 -2 290.74 11.01
-2 -6 2 313.94 11.14
-2 -6 2 294.32 10.6
-2 -6 2 299.03 10.62
-2 -6 2 297.81 10.53
2 6 -2 256.75 8.97
-2 -6 2 292.01 10.53
-2 -6 2 309.75 10.79
-2 -6 2 299.81 11.61
2 6 -2 294.73 10.86
2 6 -2 305.03 10.41
2 6 -2 304.31 10.74
-2 -6 2 284.07 10.5
-2 -6 2 310.43 10.38
2 6 -2 298.65 10.59
-2 -6 1 234.94 9.52
-2 -6 1 225.39 7.88
-2 -6 1 239.82 9.02
-2 -6 1 251.37 9.13
-2 -6 1 240.38 9.02
-2 -6 1 250.02 9.19
-2 -6 1 245.65 8.88
2 6 -1 241.89 9.14
-2 -6 1 235.62 8.38
2 6 -1 256.73 9.22
-2 -6 0 92.38 5.17
2 6 0 92.94 4.98
2 6 0 78.24 4.11
2 6 0 87.28 3.28
-2 -6 0 91.47 4.88
-2 -6 0 90.44 4.91
-2 -6 0 94.72 4.97
-2 -6 0 95.22 4.99
-2 -6 0 87.75 4.37
-2 -6 0 96.55 5.01
-2 -6 0 91.21 4.52
2 6 0 91.13 4.99
-2 -6 0 86.62 4.09
2 6 0 91.21 4.95
2 6 1 846.41 23.04
-2 -6 -1 974.66 25.03
2 6 1 942.49 24.93
-2 -6 -1 1005.98 24.57
-2 -6 -1 973.73 24.8
-2 -6 -1 962.95 24.77
-2 -6 -1 961.59 24.78
-2 -6 -1 949.22 24.78
-2 -6 -1 991.83 24.87
-2 -6 -1 974.41 23.59
2 6 1 979.91 25.04
2 6 1 874.88 24.26
-2 -6 -1 932.63 22.74
2 6 2 18.03 2.18
-2 -6 -2 18.24 2.08
-2 -6 -2 17.66 2.13
-2 -6 -2 18.22 2.08
-2 -6 -2 19.67 2.18
-2 -6 -2 21.38 2.25
-2 -6 -2 20.56 1.5
-2 -6 -2 20.84 2.24
2 6 2 15.76 2.08
-2 -6 -2 19.73 1.77
2 6 2 14.87 1.83
2 6 3 974.54 24.86
-2 -6 -3 934.86 24.23
-2 -6 -3 979.86 24.96
-2 -6 -3 912.59 24.9
-2 -6 -3 923.71 24.46
-2 -6 -3 938.19 24.47
-2 -6 -3 896.1 24.29
-2 -6 -3 900.08 21.67
-2 -6 -3 921.98 24.51
-2 -6 -3 948.46 24.51
2 6 3 963.65 24.91
-2 -6 -3 899.81 22.61
2 6 3 930.95 23.35
-2 -6 -3 894.92 21.62
-2 -6 -4 116.01 5.62
2 6 4 112.84 5.87
-2 -6 -4 112.8 5.82
-2 -6 -4 116.9 5.85
-2 -6 -4 113.25 5.78
2 6 4 106.85 5.9
-2 -6 -4 113.65 6.04
-2 -6 -4 120.18 5.98
-2 -6 -4 109.68 5.68
2 6 4 104.94 5.92
2 6 4 106.42 4.89
-2 -6 -4 113.97 4.1
-2 -6 -5 139.26 6.76
-2 -6 -5 131.26 6.53
-2 -6 -5 138.92 6.74
2 6 5 142.32 7.02
-2 -6 -5 139.44 7.02
-2 -6 -5 135.61 6.67
-2 -6 -5 142.6 6.73
2 6 5 138.96 6.84
-2 -6 -5 133.82 6.37
2 6 5 145.79 6.87
2 6 6 145.61 7.35
-2 -6 -6 147.62 7.21
-2 -6 -6 161.88 7.52
2 6 6 152.1 7.49
-2 -6 -6 142.77 7.41
-2 -6 -6 156.88 7.45
-2 -6 -6 148.2 7.19
2 6 6 147.95 7.51
2 6 6 152.38 7.28
-2 -6 -6 152.26 6.93
2 6 7 314.36 11.94
-2 -6 -7 313.32 11.76
-2 -6 -7 318.95 11.94
2 6 7 318.47 12.09
-2 -6 -7 300.97 12.15
-2 -6 -7 303.29 11.74
-2 -6 -7 320.2 11.82
2 6 7 319.33 12.02
-2 -6 -7 296.86 11.14
2 6 7 307.06 11.68
2 6 8 167.86 8.45
2 6 8 174.18 8.64
-2 -6 -8 172.71 8.38
-2 -6 -8 173.49 8.5
2 6 8 173.03 8.6
-2 -6 -8 165.27 8.71
-2 -6 -8 174.74 8.61
-2 -6 -8 172.04 8.42
-2 -6 -8 174.78 8.41
2 6 8 170.39 8.49
-2 -6 -8 170.14 8.01
2 6 8 190.34 8.7
-2 -6 -9 67.34 4.98
2 6 9 71.85 5.32
2 6 9 75.1 5.71
2 6 9 72.4 5.54
-2 -6 -9 67.88 5.23
-2 -6 -9 72.04 5.47
2 6 9 65.62 5.3
-2 -6 -9 66.82 5.44
-2 -6 -9 80.22 5.63
-2 -6 -9 74.41 5.5
-2 -6 -9 76.79 5.69
2 6 9 73.06 5.43
-2 -6 -9 66.09 4.43
-2 -6 -10 286.98 11.89
2 6 10 296.65 12.31
2 6 10 285.42 12.44
2 6 10 272.72 12.41
-2 -6 -10 289.03 12.39
-2 -6 -10 285.31 12.6
2 6 10 289.74 12.66
-2 -6 -10 287.26 12.97
-2 -6 -10 280.96 12.27
-2 -6 -10 283.83 12.38
-2 -6 -10 292.37 12.71
2 6 10 301.21 12.58
2 6 10 264.04 9.52
2 6 11 483.28 18.25
-2 -6 -11 463.8 18.35
-2 -6 -11 473.11 18.01
-2 -6 -11 470.37 17.69
2 6 11 477.85 17.92
2 6 11 485.39 18.2
-2 -6 -11 481.86 18.1
-2 -6 -11 471.07 17.68
-2 -6 -11 478.93 17.88
2 6 11 490.83 17.77
-2 -6 -11 464.35 17.07
2 6 11 473.96 17.39
-2 -6 -12 86.89 7.27
2 6 12 89.63 7.21
-2 -6 -12 89.08 6.99
-2 -6 -12 93.4 7.34
2 6 12 91.74 7.15
2 6 12 84.58 6.98
-2 -6 -12 89.92 7.01
-2 -6 -12 86.19 7.04
-2 -6 -12 81.85 6.73
2 6 12 92.95 6.88
2 6 12 98.07 7.05
-2 -6 -13 5.07 2.05
2 6 13 5.09 1.85
-2 -6 -13 3.54 1.55
2 6 13 5.35 2.01
2 6 13 6.75 2.31
-2 -6 -13 8.33 2.23
-2 -6 -13 6.54 2.07
-2 -6 -13 7.06 2.25
2 6 13 4.8 1.65
-2 -6 -13 7.91 2.35
2 6 13 6.03 2.02
2 6 14 18.03 3.62
-2 -6 -14 15.62 3.47
-2 -6 -14 16.78 3.39
2 6 14 15.04 3.25
2 6 14 19.22 3.76
-2 -6 -14 21.84 3.84
-2 -6 -14 12.63 2.92
-2 -6 -14 14.97 3.21
2 6 14 17.45 3.16
-2 -6 -14 11.81 2.87
2 6 14 15.02 2.88
2 6 15 5.16 2.03
-2 -6 -15 5.82 2.35
2 6 15 4.05 2.13
-2 -6 -15 8.08 2.29
-2 -6 -15 5.22 1.98
-2 -6 -15 4.33 1.84
-2 -6 -15 4.48 1.99
2 6 15 4.22 2.09
-2 -6 -15 9.91 2.95
2 7 -9 51.91 5.88
-2 -7 9 58.78 6.06
-2 -7 9 52.4 5.48
-2 -7 9 55.52 5.68
-2 -7 9 43.39 5.16
-2 -7 9 44.27 5.07
-2 -7 9 52.92 5.99
2 7 -9 41.04 5.08
2 7 -9 46.27 5.25
2 7 -9 49.33 5.45
2 7 -9 47.35 5.21
-2 -7 9 46.05 5.97
2 7 -9 45.61 4.99
-2 -7 9 46.48 5.82
-2 -7 8 67.28 6.36
2 7 -8 68.12 6.49
-2 -7 8 64.53 5.99
-2 -7 8 72.26 6.31
-2 -7 8 62.83 5.87
-2 -7 8 65.14 6.06
2 7 -8 73.19 5.5
-2 -7 8 58.19 6
2 7 -8 50.12 5.58
2 7 -8 57.03 5.75
2 7 -8 60.71 5.57
2 7 -8 55.08 5.59
-2 -7 8 63.45 6.52
2 7 -8 63.28 5.8
-2 -7 8 62.67 6.43
2 7 -7 79.16 6.65
-2 -7 7 69.84 6.11
-2 -7 7 74.78 6.16
-2 -7 7 80.84 6.44
-2 -7 7 72.05 6.05
-2 -7 7 68.35 6
2 7 -7 81.96 5.69
-2 -7 7 75.07 6.77
2 7 -7 67.56 6.22
2 7 -7 68.67 6.05
-2 -7 7 80.26 6.99
2 7 -7 71.62 5.79
2 7 -7 66.95 5.91
-2 -7 7 82.52 6.92
2 7 -7 79.29 6.1
2 7 -6 145.94 8.92
-2 -7 6 154.04 8.93
-2 -7 6 146.85 8.56
-2 -7 6 141.84 8.41
-2 -7 6 146.66 8.51
-2 -7 6 149.61 8.6
2 7 -6 168.71 8.3
-2 -7 6 162.56 9.69
2 7 -6 142.96 8.61
2 7 -6 134.84 7.91
2 7 -6 133.92 8.24
-2 -7 6 144.48 9.2
-2 -7 6 166.16 9.59
2 7 -6 152.43 8.37
2 7 -5 32.03 3.93
-2 -7 5 33.3 3.85
-2 -7 5 37.35 3.86
-2 -7 5 35.67 3.72
-2 -7 5 29.7 3.46
-2 -7 5 31.43 3.54
-2 -7 5 27.54 3.77
2 7 -5 26.82 3.37
-2 -7 5 36.96 4.12
2 7 -5 31.78 3.42
2 7 -5 31.88 3.57
-2 -7 5 30.44 3.73
2 7 -5 29.49 3.44
2 7 -4 47.12 4.6
-2 -7 4 58.14 4.85
-2 -7 4 56.77 4.64
-2 -7 4 60.16 4.7
-2 -7 4 52.69 4.47
-2 -7 4 58.26 4.71
-2 -7 4 52.52 4.47
-2 -7 4 57.39 5.23
2 7 -4 48.7 4.43
-2 -7 4 51.82 4.76
2 7 -4 56.76 4.36
2 7 -4 55.42 4.61
-2 -7 4 60.9 4.93
2 7 -4 51.86 4.27
2 7 -3 27.74 3.4
-2 -7 3 33.23 3.52
-2 -7 3 35.22 3.48
-2 -7 3 34.9 3.42
-2 -7 3 31.88 3.28
-2 -7 3 29.9 3.18
-2 -7 3 31.69 3.31
-2 -7 3 32.89 3.77
2 7 -3 30 3.37
-2 -7 3 30.41 3.33
2 7 -3 35.17 3.45
2 7 -3 32.3 3.2
2 7 -3 29.31 3.07
-2 -7 3 31.29 3.2
-2 -7 2 7.56 1.73
-2 -7 2 8.74 1.73
2 7 -2 9.9 2.03
-2 -7 2 6.33 1.48
-2 -7 2 10.02 1.73
-2 -7 2 9.28 1.72
2 7 -2 6.99 1.17
-2 -7 2 7.22 1.51
-2 -7 2 8.9 1.6
-2 -7 2 8.27 1.89
-2 -7 2 8.97 1.59
2 7 -2 9.19 1.75
2 7 -2 8.08 1.72
-2 -7 2 6.3 1.48
2 7 -2 6.47 1.44
2 7 -2 6.97 1.57
-2 -7 1 110.47 6.37
-2 -7 1 99.64 4.62
-2 -7 1 119.75 6.13
-2 -7 1 110.95 5.92
2 7 -1 88.09 4.33
-2 -7 1 108.66 5.89
-2 -7 1 110.52 5.97
-2 -7 1 103.79 5.69
2 7 -1 98.62 5.64
2 7 -1 110.32 5.97
-2 -7 1 108.96 5.41
2 7 -1 103.28 5.72
-2 -7 0 296.1 11.44
-2 -7 0 313.73 11.19
-2 -7 0 311.17 11.08
-2 -7 0 300.43 11.02
-2 -7 0 300.95 11.04
-2 -7 0 286.69 9.8
-2 -7 0 322.13 11.25
-2 -7 0 305.06 10.51
2 7 0 300.92 11.16
-2 -7 0 296.91 9.84
2 7 0 304.35 10.98
-2 -7 -1 401.68 13.74
2 7 1 433.37 13.79
2 7 1 352.85 11.35
2 7 1 421.16 11.32
-2 -7 -1 405.87 12.7
-2 -7 -1 428.73 13.6
-2 -7 -1 409.28 13.52
-2 -7 -1 418.34 13.59
-2 -7 -1 406.83 13.47
-2 -7 -1 418.06 13.57
-2 -7 -1 395.16 12.46
2 7 1 411.16 13.64
-2 -7 -1 395.79 11.71
2 7 1 425.52 13.51
-2 -7 -2 1536.71 37.07
-2 -7 -2 1601.79 37.55
-2 -7 -2 1535.58 37.36
-2 -7 -2 1527.51 37.41
-2 -7 -2 1490.91 37.26
-2 -7 -2 1484.21 34.62
-2 -7 -2 1527.44 37.33
-2 -7 -2 1535.47 35.75
2 7 2 1475.18 37.37
2 7 2 1476.16 37.08
2 7 2 1517.55 37.34
-2 -7 -2 1496.13 37.45
-2 -7 -3 376.98 12.59
-2 -7 -3 362.99 12.38
-2 -7 -3 353.59 12.29
-2 -7 -3 347.85 12.3
-2 -7 -3 350.84 10.05
-2 -7 -3 350.26 12.19
-2 -7 -3 335.49 10.76
2 7 3 334.67 12.24
2 7 3 366.3 12.56
-2 -7 -3 336.81 12.07
2 7 4 200.81 8.72
-2 -7 -4 190.62 8.27
-2 -7 -4 194.06 8.5
-2 -7 -4 192.07 8.44
-2 -7 -4 199.64 8.59
-2 -7 -4 198.57 9.03
2 7 4 184.41 8.66
-2 -7 -4 190.92 8.54
-2 -7 -4 198.81 8.56
2 7 4 217.86 8.98
-2 -7 -4 193.58 6.49
2 7 4 186.4 7.19
-2 -7 -5 22.21 2.58
2 7 5 21.02 2.58
-2 -7 -5 16.17 2.25
-2 -7 -5 19.38 2.43
-2 -7 -5 18.28 2.38
2 7 5 18.42 2.58
-2 -7 -5 21.24 2.74
-2 -7 -5 15.64 2.3
-2 -7 -5 22.09 2.64
2 7 5 16.06 2.41
2 7 5 18.75 1.87
-2 -7 -6 336.79 12.26
2 7 6 338.8 12.67
-2 -7 -6 351.82 12.9
-2 -7 -6 333.36 12.52
-2 -7 -6 346.5 12.73
2 7 6 333.01 12.92
-2 -7 -6 337.38 13.16
-2 -7 -6 343.31 12.77
-2 -7 -6 340.73 12.58
2 7 6 369.95 13.15
2 7 6 328.72 10.54
2 7 7 544.92 18.35
-2 -7 -7 555.04 18.13
-2 -7 -7 566.53 18.28
2 7 7 550.69 18.43
-2 -7 -7 552.67 18.76
-2 -7 -7 553.61 18.23
-2 -7 -7 565.06 18.16
2 7 7 588.78 18.62
-2 -7 -7 553.78 17.66
2 7 7 553.15 18.07
2 7 8 20.77 2.99
-2 -7 -8 22.59 3.07
2 7 8 20.38 3.04
-2 -7 -8 23.96 3.28
-2 -7 -8 17.79 2.68
-2 -7 -8 21.38 2.95
-2 -7 -8 22.61 3.03
2 7 8 25.18 3.07
2 7 8 25.45 3.03
-2 -7 -8 20.81 2.72
2 7 9 120.3 7.58
-2 -7 -9 124.63 7.49
-2 -7 -9 123.52 7.57
2 7 9 136.73 8.06
-2 -7 -9 124.94 7.94
-2 -7 -9 124.72 7.6
-2 -7 -9 121.99 7.42
2 7 9 127.09 7.59
2 7 9 123.9 7.4
-2 -7 -9 121.71 7.15
-2 -7 -10 229.02 10.66
2 7 10 233.72 10.95
2 7 10 221.98 11.05
2 7 10 221.48 11.28
-2 -7 -10 223.06 10.94
-2 -7 -10 222.5 11.1
-2 -7 -10 219.24 11.43
2 7 10 228.91 11.27
-2 -7 -10 224.4 11.06
-2 -7 -10 220.48 11.13
-2 -7 -10 229.55 11.08
2 7 10 241.98 11.19
2 7 10 216.31 8.68
2 7 11 25.63 3.72
-2 -7 -11 28.02 3.94
-2 -7 -11 23.52 3.53
2 7 11 26.15 3.74
2 7 11 23.99 3.56
-2 -7 -11 21.13 3.35
-2 -7 -11 22.44 3.43
-2 -7 -11 23.15 3.47
-2 -7 -11 22.89 3.54
2 7 11 21.63 3.24
-2 -7 -11 21.38 3.15
2 7 11 20.06 3.05
-2 -7 -12 14.68 3.17
2 7 12 16.27 3.05
-2 -7 -12 13.27 2.78
2 7 12 18.73 3.33
2 7 12 17.49 3.11
-2 -7 -12 16.22 3.05
-2 -7 -12 17.59 3.06
-2 -7 -12 19.6 3.41
-2 -7 -12 19.45 3.37
2 7 12 16.67 2.89
-2 -7 -12 15.99 2.84
2 7 12 15.45 2.92
2 7 13 124.9 9.13
-2 -7 -13 114.37 9.03
-2 -7 -13 119.45 8.64
-2 -7 -13 125.45 9.1
2 7 13 133.94 9.38
2 7 13 125.87 9.2
-2 -7 -13 121.79 8.79
-2 -7 -13 120.93 8.95
-2 -7 -13 121.57 8.81
2 7 13 110.5 8.04
-2 -7 -13 119.39 8.4
2 7 13 126.52 8.51
2 7 14 22.84 4.02
-2 -7 -14 23.75 4.19
-2 -7 -14 21.14 3.85
2 7 14 29.39 4.48
2 7 14 25.46 4.16
-2 -7 -14 24.83 4.05
-2 -7 -14 29.75 4.49
-2 -7 -14 25.44 4.13
2 7 14 20.28 3.32
-2 -7 -14 21.34 3.98
2 7 14 23.15 3.67
-2 -7 -14 18.3 3.35
-2 -7 -15 81.77 7.85
-2 -7 -15 81.95 7.98
-2 -7 -15 83.33 7.83
-2 -7 -15 85.73 8.02
-2 -7 -15 102.29 8.89
2 7 15 91.72 8.38
-2 -7 -15 79.86 8.19
-2 -7 -15 84.3 7.59
2 7 15 90.71 8.37
2 7 15 87.08 8.32
-2 -7 -16 83.97 7.83
2 8 -9 3.57 1.42
2 8 -8 16.26 3.44
-2 -8 8 30.74 4.5
-2 -8 8 26.08 3.96
-2 -8 8 24.22 3.78
-2 -8 8 26.34 4.02
-2 -8 8 22.22 3.52
2 8 -8 29.27 3.74
-2 -8 8 21.4 3.97
2 8 -8 24.31 3.73
2 8 -8 15.58 3.24
2 8 -8 19.95 3.43
-2 -8 8 26.61 4.39
2 8 -8 23 3.55
2 8 -8 27.63 4
2 8 -7 148.52 9.94
-2 -8 7 161.56 10.21
-2 -8 7 160.28 9.72
-2 -8 7 158.66 9.65
-2 -8 7 153.59 9.48
-2 -8 7 158.74 9.67
-2 -8 7 159.33 10.49
2 8 -7 164.68 8.87
2 8 -7 133.83 9.2
2 8 -7 167.53 9.9
-2 -8 7 161.97 10.63
2 8 -7 153.3 9
2 8 -7 139.87 9.15
-2 -8 7 148.29 10.06
2 8 -7 152.88 9.16
2 8 -6 38.92 4.87
-2 -8 6 43.14 4.94
-2 -8 6 43.89 4.72
-2 -8 6 47.69 4.85
-2 -8 6 48.65 4.88
-2 -8 6 48.56 4.9
2 8 -6 45.7 4.55
-2 -8 6 37.56 4.86
2 8 -6 43.05 4.72
2 8 -6 42.51 4.61
2 8 -6 45.89 4.52
-2 -8 6 39.53 5
-2 -8 6 46.45 5.1
2 8 -6 44.23 4.49
2 8 -5 6.58 2.04
-2 -8 5 9.1 2.2
-2 -8 5 7.98 2.02
-2 -8 5 7.31 1.9
-2 -8 5 9.54 2.09
-2 -8 5 8.12 2.06
2 8 -5 7.09 1.82
-2 -8 5 9.81 2.52
-2 -8 5 5.79 1.68
2 8 -5 5.54 1.7
2 8 -5 5.87 1.82
-2 -8 5 9.03 2.22
2 8 -5 5.43 1.66
2 8 -5 7.07 1.88
2 8 -4 20.5 3.18
-2 -8 4 20.37 3.06
-2 -8 4 16.72 2.68
-2 -8 4 18.35 2.81
-2 -8 4 21.17 3.05
-2 -8 4 21.73 3.08
-2 -8 4 17.79 2.75
-2 -8 4 19.18 3.28
-2 -8 4 19.74 2.93
2 8 -4 14.24 2.67
2 8 -4 15.91 2.71
2 8 -4 18.11 2.53
-2 -8 4 25.47 3.54
2 8 -4 19.47 2.64
2 8 -3 13.53 2.41
-2 -8 3 17.29 2.74
-2 -8 3 18.48 2.65
-2 -8 3 13.59 2.3
-2 -8 3 17.2 2.6
-2 -8 3 20.3 2.83
-2 -8 3 17.03 2.54
-2 -8 3 14.94 2.45
-2 -8 3 14.85 2.85
2 8 -3 13.32 2.43
2 8 -3 18.1 2.68
2 8 -3 14.23 2.25
-2 -8 3 17.02 2.7
2 8 -3 17.64 2.46
-2 -8 2 4.11 1.46
2 8 -2 2.21 1.16
-2 -8 2 1.88 1.22
-2 -8 2 2.3 1.12
-2 -8 2 3.77 1.42
-2 -8 2 1.54 0.86
-2 -8 2 1.01 0.79
-2 -8 2 3.43 1.24
-2 -8 2 -0.12 0.81
-2 -8 2 0.97 0.63
2 8 -2 1.15 0.99
2 8 -2 1.51 0.98
-2 -8 2 2.92 1.11
2 8 -2 3.1 1.2
2 8 -2 1.5 0.98
-2 -8 1 55.95 4.75
-2 -8 1 51.01 4.27
-2 -8 1 55.85 4.4
-2 -8 1 53.17 4.21
2 8 -1 43.98 3.67
2 8 -1 51.02 4.31
-2 -8 1 57.04 4.05
2 8 -1 48.42 4.12
-2 -8 1 54.79 4.43
-2 -8 1 52.94 4.35
-2 -8 0 55.06 4.62
-2 -8 0 47.15 4.02
-2 -8 0 52.02 4.27
-2 -8 0 51.88 4.23
-2 -8 0 52.53 4.27
-2 -8 0 48.55 3.93
2 8 0 43.42 3.95
2 8 0 49.28 4.02
-2 -8 0 50.69 3.6
-2 -8 -1 3047.46 73.07
2 8 1 3101.65 72.55
-2 -8 -1 3111.44 72.45
-2 -8 -1 3076.7 72.51
-2 -8 -1 3213.54 72.83
-2 -8 -1 3169.12 72.71
-2 -8 -1 2953.02 70.65
-2 -8 -1 3142.02 72.64
-2 -8 -1 3172.48 71.46
2 8 1 2978.23 72.48
-2 -8 -1 3051.76 70.23
2 8 1 3171.96 72.33
2 8 2 61.4 4.53
-2 -8 -2 59.54 4.63
2 8 2 50.03 3.3
-2 -8 -2 56.91 4.12
-2 -8 -2 59.18 4.44
-2 -8 -2 53.2 4.28
-2 -8 -2 51.33 4.19
-2 -8 -2 57.91 4.48
-2 -8 -2 59.6 4.49
-2 -8 -2 53.56 3.77
2 8 2 54.65 4.4
-2 -8 -2 53.27 3.3
-2 -8 -3 1.54 0.9
-2 -8 -3 2.28 1.07
-2 -8 -3 1.32 1.01
-2 -8 -3 1.17 0.75
-2 -8 -3 2.67 1.11
-2 -8 -3 0.69 0.49
-2 -8 -3 0.81 0.64
2 8 3 1.04 0.77
2 8 3 0.51 0.71
-2 -8 -3 0.82 0.5
2 8 3 0.68 0.73
-2 -8 -3 2.19 1.02
-2 -8 -4 4.42 1.35
2 8 4 0.65 0.61
-2 -8 -4 1.9 0.99
-2 -8 -4 6.35 1.49
-2 -8 -4 5.6 1.53
-2 -8 -4 4.86 1.58
-2 -8 -4 3.69 0.87
-2 -8 -4 5.19 1.42
2 8 4 3.91 1.18
-2 -8 -4 2.82 0.96
-2 -8 -4 4.75 0.94
2 8 5 121.29 6.87
-2 -8 -5 128.4 6.98
-2 -8 -5 124.66 7.03
-2 -8 -5 119.84 6.89
-2 -8 -5 119.39 6.93
-2 -8 -5 127.93 7.45
2 8 5 113.51 6.99
-2 -8 -5 129.13 7.21
-2 -8 -5 127.87 7.06
2 8 5 122.93 7.34
-2 -8 -5 122.39 5.2
2 8 5 115.61 5.33
-2 -8 -6 83.54 5.59
2 8 6 87.42 5.8
-2 -8 -6 81.39 5.72
-2 -8 -6 79.71 5.65
-2 -8 -6 81.89 5.7
2 8 6 74.5 5.67
-2 -8 -6 82.11 5.96
-2 -8 -6 76.95 5.55
-2 -8 -6 75.49 5.4
2 8 6 90.6 5.99
2 8 6 74.05 4.09
-2 -8 -7 45.15 4.37
-2 -8 -7 48.62 4.49
-2 -8 -7 51.02 4.6
2 8 7 46.42 4.47
-2 -8 -7 57.34 5.04
-2 -8 -7 51.44 4.65
-2 -8 -7 51.39 4.54
2 8 7 46.92 4.39
2 8 7 48.82 4.3
-2 -8 -7 46.65 4.31
-2 -8 -8 182.78 9.52
-2 -8 -8 180.68 9.34
-2 -8 -8 180.61 9.42
2 8 8 189.65 9.85
-2 -8 -8 180.63 9.88
-2 -8 -8 161.9 9.06
-2 -8 -8 165.83 9.03
2 8 8 186.85 9.43
2 8 8 171.09 8.96
-2 -8 -8 164.31 8.78
2 8 9 360.48 15.04
-2 -8 -9 382.4 15.09
-2 -8 -9 367.18 15
2 8 9 363.29 15.08
-2 -8 -9 389.3 15.78
-2 -8 -9 387.51 15.26
-2 -8 -9 359.32 14.75
2 8 9 376.99 15.03
2 8 9 363.83 14.44
-2 -8 -9 359.35 14.43
2 8 10 82.4 6.2
-2 -8 -10 87.73 6.5
2 8 10 83.01 6.59
-2 -8 -10 82.32 6.5
-2 -8 -10 84.25 6.64
2 8 10 79.74 6.45
-2 -8 -10 78.02 6.62
-2 -8 -10 85.22 6.6
-2 -8 -10 74.82 6.16
2 8 10 83.72 6.46
2 8 10 73.28 4.97
-2 -8 -11 43.11 4.58
2 8 11 39.97 4.41
2 8 11 40.71 4.76
-2 -8 -11 37.3 4.5
-2 -8 -11 35.64 4.49
2 8 11 38.38 4.75
-2 -8 -11 45.07 5.15
-2 -8 -11 46.41 4.99
-2 -8 -11 41.95 4.81
2 8 11 39.15 4.45
2 8 11 36.06 3.31
2 8 12 35.44 4.66
-2 -8 -12 38.86 5.08
-2 -8 -12 45.04 5.1
-2 -8 -12 45.22 5.21
2 8 12 40.08 5.05
-2 -8 -12 44.24 5.07
-2 -8 -12 42.91 4.99
2 8 12 37.72 4.52
-2 -8 -12 38.55 4.63
2 8 12 40.72 4.67
2 8 13 49.6 5.77
-2 -8 -13 47.24 5.81
-2 -8 -13 52.32 5.8
-2 -8 -13 47.7 5.65
2 8 13 54 5.94
-2 -8 -13 52.94 5.83
-2 -8 -13 59.23 6.16
2 8 13 47.06 5.17
-2 -8 -13 49.98 5.45
2 8 13 52.29 5.5
2 8 14 130.88 9.97
-2 -8 -14 141.9 10.66
-2 -8 -14 132.58 9.69
-2 -8 -14 128.54 9.79
2 8 14 131.62 9.87
2 8 14 135.75 10.1
-2 -8 -14 127.87 9.83
-2 -8 -14 127.69 9.64
-2 -8 -14 142.8 10.03
2 8 14 123.06 8.78
-2 -8 -14 123.17 9.15
2 8 14 129.13 8.98
2 8 15 8.01 2.76
-2 -8 -15 5.98 2.17
2 8 15 6.62 2.37
-2 -8 -15 7.29 2.43
2 8 15 11.51 3.4
-2 -8 -15 10.09 2.82
-2 -8 -15 6.98 2.34
-2 -8 -15 3.33 1.37
-2 -8 -15 9.64 2.93
-2 -8 -15 7.58 2.58
2 9 -7 -0.01 1.1
-2 -9 7 -0.24 1.23
-2 -9 7 0.79 1.27
-2 -9 7 1.12 1.11
-2 -9 7 0.88 1.14
-2 -9 7 1.52 1.63
-2 -9 7 2.57 1.88
2 9 -7 0.67 1.01
2 9 -7 1.23 1.08
2 9 -7 0.68 1.09
2 9 -7 0.23 1.07
-2 -9 7 1.61 1.3
2 9 -7 1 1.3
2 9 -6 19.49 3.51
-2 -9 6 21.05 3.53
-2 -9 6 17.88 3.23
-2 -9 6 20.81 3.36
-2 -9 6 21.58 3.45
-2 -9 6 23.68 3.73
2 9 -6 31.4 3.87
-2 -9 6 17.61 3.62
2 9 -6 22.51 3.63
2 9 -6 19.17 3.29
-2 -9 6 25.51 4.13
2 9 -6 18.96 3.13
2 9 -5 216.07 11.97
-2 -9 5 234.65 12.18
-2 -9 5 216.34 11.36
-2 -9 5 223.35 11.45
-2 -9 5 224.52 11.51
-2 -9 5 235.72 11.83
2 9 -5 259.91 11.66
-2 -9 5 235.28 12.87
2 9 -5 220.72 11.58
2 9 -5 205.36 10.23
2 9 -5 200.97 10.92
-2 -9 5 234.48 12.43
2 9 -5 230.47 11.16
2 9 -4 25.88 3.93
-2 -9 4 29.78 3.95
-2 -9 4 30.45 3.86
-2 -9 4 29.12 3.74
-2 -9 4 28.95 3.73
-2 -9 4 26.82 3.52
-2 -9 4 27.75 3.64
-2 -9 4 29.78 4.32
2 9 -4 26.62 3.69
2 9 -4 31.03 3.43
-2 -9 4 30.21 3.98
2 9 -4 34.38 4.13
2 9 -4 30.7 3.72
2 9 -3 78.09 6.35
-2 -9 3 87.34 6.54
-2 -9 3 76.93 5.96
-2 -9 3 75.29 5.86
-2 -9 3 84.51 6.2
-2 -9 3 82.15 6.13
-2 -9 3 80.1 6.07
-2 -9 3 79.59 6.92
2 9 -3 70.1 5.9
2 9 -3 70.32 5.17
2 9 -3 77.18 6.01
-2 -9 3 74.16 6.03
2 9 -3 81.79 5.88
-2 -9 2 3.13 1.59
2 9 -2 -0.36 0.94
-2 -9 2 0.91 1.11
-2 -9 2 0.59 0.86
-2 -9 2 2.1 1.37
-2 -9 2 0.27 0.75
-2 -9 2 -0.55 0.86
-2 -9 2 1.95 1.18
-2 -9 2 -1.43 1.26
2 9 -2 -0.61 1.1
2 9 -2 1.91 1.18
-2 -9 2 0.29 0.71
2 9 -2 0.28 0.68
2 9 -2 2.41 1.19
-2 -9 1 72.8 5.94
-2 -9 1 82.99 5.84
-2 -9 1 72.47 5.48
-2 -9 1 81.92 5.74
2 9 -1 78.55 5.71
2 9 -1 70.84 4.82
2 9 -1 79.28 5.52
-2 -9 1 74.17 5.56
-2 -9 1 75.88 5.61
-2 -9 0 153.13 8.63
-2 -9 0 144.66 7.91
-2 -9 0 164.8 8.36
-2 -9 0 152.08 8.01
-2 -9 0 156.51 8.09
-2 -9 0 145.89 7.7
2 9 0 149.17 8.1
2 9 0 137.87 6.98
2 9 0 135.26 7.5
-2 -9 -1 12.35 2.32
-2 -9 -1 12.17 2.22
-2 -9 -1 11.1 2.1
-2 -9 -1 12.5 2.25
-2 -9 -1 10.19 1.94
-2 -9 -1 13.9 2.32
2 9 1 9.06 1.9
-2 -9 -1 12.44 2.03
2 9 1 7.82 1.81
2 9 2 29.9 3.38
-2 -9 -2 32.91 3.75
2 9 2 35.42 2.68
-2 -9 -2 34.49 3.62
-2 -9 -2 32.15 3.51
-2 -9 -2 35.62 3.7
-2 -9 -2 34.96 3.68
-2 -9 -2 25.66 2.86
-2 -9 -2 29.12 3.38
-2 -9 -2 24.7 2.79
2 9 2 28.11 3.35
2 9 2 33.65 3.48
-2 -9 -3 802.35 23.78
-2 -9 -3 788.86 23.69
-2 -9 -3 781.8 23.65
-2 -9 -3 796.2 23.8
-2 -9 -3 785.94 23.22
-2 -9 -3 792.31 23.66
-2 -9 -3 774.39 22.2
2 9 3 734.46 23.48
2 9 3 788.27 23.64
-2 -9 -3 784.88 24.17
2 9 3 837.35 21.76
-2 -9 -4 116.39 6.95
-2 -9 -4 110.54 6.78
-2 -9 -4 109.73 6.76
-2 -9 -4 110.27 6.84
-2 -9 -4 112.69 6.81
-2 -9 -4 108.95 5.95
2 9 4 114.58 7.07
2 9 4 113.48 6.85
-2 -9 -4 107.71 6.9
2 9 4 111.25 5.74
-2 -9 -5 226.89 10.45
-2 -9 -5 211.36 10.1
-2 -9 -5 217.37 10.22
-2 -9 -5 229.47 10.42
-2 -9 -5 215.41 9.02
2 9 5 232.4 10.69
2 9 5 202.28 9.96
-2 -9 -5 224.5 10.42
-2 -9 -6 221.44 10.58
-2 -9 -6 218.36 10.5
-2 -9 -6 215.8 10.39
-2 -9 -6 220.18 10.92
2 9 6 208.94 10.51
-2 -9 -6 223.88 10.56
-2 -9 -6 223.12 10.48
2 9 6 216.79 10.42
2 9 6 220.38 10.28
-2 -9 -6 220.8 10.47
-2 -9 -7 413.2 15.76
-2 -9 -7 407.68 15.62
-2 -9 -7 422.71 15.77
2 9 7 373.7 15.51
-2 -9 -7 410.56 16.36
-2 -9 -7 406.4 15.66
-2 -9 -7 399.52 15.41
2 9 7 409.53 15.88
-2 -9 -7 403.17 15.52
2 9 7 399.14 15.18
-2 -9 -8 93.55 6.87
-2 -9 -8 92.71 6.79
-2 -9 -8 89.42 6.66
2 9 8 93.24 6.91
-2 -9 -8 93.66 7.06
-2 -9 -8 94.95 6.85
-2 -9 -8 97.69 6.91
2 9 8 91.83 6.66
2 9 8 87.81 6.42
-2 -9 -8 92.43 6.64
-2 -9 -9 23.14 3.36
-2 -9 -9 30.26 3.83
-2 -9 -9 23.16 3.4
-2 -9 -9 29.88 4.1
2 9 9 28.59 3.99
-2 -9 -9 22.93 3.37
-2 -9 -9 24.46 3.56
2 9 9 21.45 3.43
-2 -9 -9 24.19 3.35
2 9 9 31.74 3.81
2 9 10 93.97 6.98
-2 -9 -10 94.6 7.15
-2 -9 -10 115.02 8.01
-2 -9 -10 88.8 6.97
-2 -9 -10 105.47 7.64
2 9 10 93.27 7.42
-2 -9 -10 109.33 8.17
-2 -9 -10 92.49 7.15
-2 -9 -10 93.68 7.22
2 9 10 103.48 7.44
2 9 10 87.66 5.71
2 9 11 86.87 6.71
-2 -9 -11 76.62 6.47
2 9 11 78.4 7.1
-2 -9 -11 79 6.91
-2 -9 -11 73.32 6.7
2 9 11 81.73 7.15
-2 -9 -11 79.73 7.23
-2 -9 -11 82.53 7.06
-2 -9 -11 79.7 6.87
2 9 11 82.64 6.79
2 9 11 65.42 4.98
-2 -9 -12 -0.03 1.12
2 9 12 0.61 1.33
-2 -9 -12 -0.99 1.41
2 9 12 0.42 1.29
-2 -9 -12 2.18 1.66
-2 -9 -12 -0.5 1.14
-2 -9 -12 2.68 1.72
2 9 12 -0.05 0.86
-2 -9 -12 -0.67 1.2
2 9 12 -0.01 1.09
2 9 13 134.98 10.01
-2 -9 -13 132.19 10.24
-2 -9 -13 146.12 10.1
-2 -9 -13 144.85 10.26
2 9 13 141.97 10.12
-2 -9 -13 135.09 9.79
-2 -9 -13 141.64 9.97
2 9 13 129.5 9
2 9 13 134.41 9.1
-2 -9 -13 122.67 9.18
2 9 14 38.65 5.43
-2 -9 -14 43.1 5.83
2 9 14 35 5.14
-2 -9 -14 30.18 4.77
-2 -9 -14 33.2 4.94
-2 -9 -14 36.5 5.07
-2 -9 -14 36.85 5.24
2 9 14 34.58 4.65
-2 -9 -14 34.02 4.92
-2 -9 -15 150.8 10.79
-2 -10 6 1.92 1.65
2 10 -6 1.02 1.41
-2 -10 6 -0.66 1.3
-2 -10 6 0.83 1.34
-2 -10 6 0.25 1.04
-2 -10 6 -0.89 1.14
-2 -10 6 6.15 2.66
2 10 -6 -0.69 1.2
2 10 -6 2.29 1.58
2 10 -6 0.16 1.21
-2 -10 6 0.68 1.31
2 10 -6 -0.53 1.28
2 10 -5 28.02 4.51
-2 -10 5 28.19 4.38
-2 -10 5 39.46 4.8
-2 -10 5 25.86 3.88
-2 -10 5 28.99 4.07
-2 -10 5 26.01 3.93
-2 -10 5 23.74 4.38
2 10 -5 26.36 3.87
2 10 -5 38.56 4.76
2 10 -5 23.97 3.76
-2 -10 5 26.41 4.2
2 10 -5 22.81 3.68
2 10 -4 143.15 9.82
-2 -10 4 159.16 10.07
-2 -10 4 158.6 9.64
-2 -10 4 140.66 9.03
-2 -10 4 157.44 9.56
-2 -10 4 172.4 9.98
-2 -10 4 164.26 9.77
2 10 -4 167.84 9.43
-2 -10 4 175.39 11.25
2 10 -4 144.93 9.36
2 10 -4 153.39 9.43
-2 -10 4 165.75 10.31
2 10 -4 148.19 9.05
2 10 -3 94.42 7.53
-2 -10 3 101.93 7.71
-2 -10 3 105.03 7.38
-2 -10 3 96.25 7.02
-2 -10 3 108.12 7.45
-2 -10 3 110.05 7.53
-2 -10 3 102.25 7.3
-2 -10 3 95.57 7.97
2 10 -3 86.12 6.86
2 10 -3 95.71 7.1
-2 -10 3 97.33 7.35
2 10 -3 82.83 6.39
-2 -10 2 15.15 3
-2 -10 2 14.7 2.86
2 10 -2 16.75 3
-2 -10 2 15.97 2.84
-2 -10 2 20.56 3.21
-2 -10 2 16.47 2.83
-2 -10 2 14.81 2.66
-2 -10 2 19.55 3.1
-2 -10 2 12.38 2.83
2 10 -2 14.36 2.92
2 10 -2 13.42 2.7
-2 -10 2 13.36 2.62
2 10 -2 18.11 2.81
-2 -10 1 61.88 5.86
-2 -10 1 58.37 5.28
-2 -10 1 62.17 5.34
-2 -10 1 65.06 5.49
-2 -10 1 64.5 5.43
-2 -10 1 70.42 5.7
2 10 -1 55.78 5.51
-2 -10 1 58.75 5.53
2 10 -1 59.42 5.48
-2 -10 1 61.55 5.28
2 10 -1 58.98 5.29
2 10 -1 56.2 4.94
-2 -10 0 5.76 1.85
-2 -10 0 6.15 1.74
2 10 0 2.45 1.15
-2 -10 0 3.3 1.12
2 10 0 5.35 1.8
-2 -10 0 3.21 1.34
-2 -10 0 4.6 1.58
-2 -10 0 3.22 1.36
-2 -10 -1 99.42 7.31
-2 -10 -1 122.47 7.48
-2 -10 -1 109.51 7.15
-2 -10 -1 104.96 7.03
-2 -10 -1 112.18 7.15
2 10 1 108.36 7.17
-2 -10 -1 116.31 6.87
2 10 1 111.39 6.85
-2 -10 -2 54.34 5.14
-2 -10 -2 53.01 4.77
-2 -10 -2 51.34 4.7
-2 -10 -2 52.48 4.76
-2 -10 -2 53.65 4.87
-2 -10 -2 60.84 5.13
2 10 2 53.05 4.86
-2 -10 -2 50.48 4.35
2 10 2 54.39 4.69
2 10 3 60.88 5.26
-2 -10 -3 58.52 5.28
-2 -10 -3 60.61 5.2
-2 -10 -3 59.5 5.2
-2 -10 -3 56.64 5.02
-2 -10 -3 59.05 5.14
-2 -10 -3 59.82 4.79
-2 -10 -3 64.42 5.41
-2 -10 -3 54.99 4.47
2 10 3 63.65 5.4
2 10 3 58.99 4.9
-2 -10 -4 73.18 5.78
-2 -10 -4 73.21 5.82
-2 -10 -4 77.37 6
-2 -10 -4 73.45 5.88
-2 -10 -4 70.32 5.56
-2 -10 -4 74.53 5.87
-2 -10 -4 72.34 5.13
2 10 4 73.26 5.87
2 10 4 68.49 5.6
-2 -10 -4 77.13 6.12
2 10 4 85.77 5.1
-2 -10 -5 7.2 1.7
-2 -10 -5 12.28 2.43
-2 -10 -5 9.38 2.23
-2 -10 -5 8.01 2.02
-2 -10 -5 7.93 2.07
-2 -10 -5 8.38 1.75
2 10 5 9.45 1.71
2 10 5 8.09 2.01
-2 -10 -5 7.45 2.06
-2 -10 -6 -0.61 1.13
-2 -10 -6 -0.27 0.74
-2 -10 -6 1.19 1.18
-2 -10 -6 1.8 1.23
2 10 6 0.93 1.05
-2 -10 -6 0.45 0.74
-2 -10 -6 -0.68 0.76
2 10 6 1.24 0.9
2 10 6 0.8 1.06
-2 -10 -7 263.68 12.44
-2 -10 -7 253.86 12.21
-2 -10 -7 252.11 12.15
2 10 7 233.83 12.05
-2 -10 -7 258.8 12.85
-2 -10 -7 266.69 12.47
-2 -10 -7 244.67 11.94
2 10 7 258.51 12.31
2 10 7 264.28 11.99
-2 -10 -7 268.08 12.56
2 10 7 272.72 11.3
-2 -10 -8 66.96 6.09
-2 -10 -8 74.07 6.32
-2 -10 -8 75.4 6.38
2 10 8 71.7 6.38
-2 -10 -8 78.65 6.77
-2 -10 -8 78.09 6.56
-2 -10 -8 81.29 6.53
2 10 8 80.41 6.48
2 10 8 73.76 6.05
-2 -10 -8 81.63 6.55
-2 -10 -9 241.81 12.38
-2 -10 -9 245.26 12.4
-2 -10 -9 226.36 11.94
2 10 9 218.91 12.09
-2 -10 -9 233.59 12.74
-2 -10 -9 228.26 12.06
-2 -10 -9 242.25 12.2
2 10 9 260.24 12.58
-2 -10 -9 240.97 12.23
2 10 9 240.31 11.85
-2 -10 -10 98.11 7.67
2 10 10 109.09 7.67
-2 -10 -10 109.41 8.19
-2 -10 -10 118.43 8.35
-2 -10 -10 99.53 7.8
2 10 10 99.67 8
-2 -10 -10 117.78 8.91
-2 -10 -10 112.36 8.27
-2 -10 -10 113.54 8.13
2 10 10 118 8.2
2 10 10 106.83 6.73
2 10 11 35.74 4.41
-2 -10 -11 35.04 4.61
-2 -10 -11 34.16 4.63
-2 -10 -11 23.38 3.92
2 10 11 31.14 4.62
-2 -10 -11 26.29 4.33
-2 -10 -11 31.26 4.42
-2 -10 -11 31.38 4.41
-2 -10 -11 31.61 4.51
2 10 11 31.4 4.24
2 10 11 29.74 3.42
2 10 12 33.04 4.34
-2 -10 -12 31.47 4.57
-2 -10 -12 35.35 4.93
-2 -10 -12 32.96 4.67
-2 -10 -12 29.74 4.56
2 10 12 23.71 4.16
-2 -10 -12 29.15 4.81
-2 -10 -12 27.48 4.33
-2 -10 -12 34.97 4.9
2 10 12 32.62 4.41
2 10 12 28.75 3.41
2 10 13 0.9 2.07
-2 -10 -13 -0.29 1.23
-2 -10 -13 -0.02 1.37
-2 -10 -13 4.06 2.05
-2 -10 -13 0.7 1.14
-2 -10 -13 2.33 1.59
-2 -10 -13 -0.64 1.79
2 10 13 1.79 1.31
2 10 13 2.25 1.46
2 10 13 -0.17 1.16
-2 -10 -13 0.22 1.3
2 10 14 123.2 10.09
-2 -10 -14 126.6 10.46
-2 -10 -14 118.11 9.88
2 10 14 109.86 9.56
-2 -10 -14 114.48 9.54
-2 -10 -14 123.04 10.04
-2 -10 -14 115.3 9.64
-2 -10 -14 128.59 10
2 10 14 121.52 9.1
-2 -10 -14 113.95 9.32
2 10 14 128.58 9.08
2 11 -4 19.87 3.69
-2 -11 4 22.78 3.94
-2 -11 4 18.84 3.47
-2 -11 4 18.89 3.44
-2 -11 4 18.49 3.51
-2 -11 4 24.33 3.96
-2 -11 4 16.83 3.27
-2 -11 4 24.18 4.2
2 11 -4 20.68 3.29
2 11 -4 21.57 3.76
2 11 -4 16.72 3.33
2 11 -4 18.22 3.19
2 11 -3 26.97 4.08
-2 -11 3 31.05 4.44
-2 -11 3 29.32 4.05
-2 -11 3 37.97 4.69
-2 -11 3 33.37 4.33
-2 -11 3 32.46 4.31
-2 -11 3 32.41 4.3
2 11 -3 31.36 4.08
-2 -11 3 38.3 5.36
2 11 -3 31.53 4.46
2 11 -3 33.39 4.39
-2 -11 3 31.37 4.36
2 11 -3 33.47 4.16
-2 -11 2 56.12 6.15
2 11 -2 62.49 6.23
-2 -11 2 68.41 6.3
-2 -11 2 73.18 6.47
-2 -11 2 65.47 6.03
-2 -11 2 73.92 6.39
-2 -11 2 71.53 6.33
-2 -11 2 64.26 6
-2 -11 2 56.98 6.36
2 11 -2 52.77 5.58
2 11 -2 66.96 6.08
-2 -11 2 69.6 6.28
2 11 -2 63.22 5.61
-2 -11 1 39.49 4.96
-2 -11 1 36.78 4.48
-2 -11 1 31.81 4.04
-2 -11 1 30.61 4.02
-2 -11 1 26.77 3.79
-2 -11 1 26.07 3.79
2 11 -1 30.9 4.41
-2 -11 1 36.44 4.57
2 11 -1 33.21 4.33
-2 -11 1 32.14 4.1
2 11 -1 31.53 4.13
2 11 -1 38.18 4.25
-2 -11 0 1.55 1.31
-2 -11 0 2.09 1.54
2 11 0 0.81 1.2
-2 -11 0 1.72 1.17
2 11 0 1.81 1.32
-2 -11 0 2.42 1.55
-2 -11 0 1.4 1.41
-2 -11 0 1.01 1.02
-2 -11 -1 1.31 1.09
-2 -11 -1 1.86 0.99
-2 -11 -1 1.53 1.22
-2 -11 -1 1.05 1.15
-2 -11 -1 2.84 1.27
2 11 1 2.47 1.74
-2 -11 -1 3.84 1.42
2 11 1 2.97 1.26
-2 -11 -2 15.16 2.93
-2 -11 -2 17.3 2.96
-2 -11 -2 15.8 2.86
-2 -11 -2 14.31 2.77
-2 -11 -2 17.19 2.96
-2 -11 -2 19.23 3.23
2 11 2 16.7 2.98
-2 -11 -2 19.64 2.92
2 11 2 19.01 2.8
-2 -11 -3 52.62 5.36
-2 -11 -3 47.26 4.91
-2 -11 -3 55.17 5.26
-2 -11 -3 46.49 4.85
-2 -11 -3 48.37 4.91
-2 -11 -3 55.66 5.28
-2 -11 -3 51.3 4.63
2 11 3 47.33 4.88
2 11 3 52.5 4.93
2 11 4 119.26 7.93
-2 -11 -4 141.93 9.04
-2 -11 -4 154.84 9.01
-2 -11 -4 146.11 8.86
-2 -11 -4 137.82 8.65
-2 -11 -4 144.51 8.82
-2 -11 -4 146.34 8.84
2 11 4 117.96 8.08
2 11 4 132.17 8.05
-2 -11 -5 9.8 2.18
-2 -11 -5 10.65 2.39
-2 -11 -5 11.53 2.47
-2 -11 -5 9.02 2.24
-2 -11 -5 9.09 2.18
-2 -11 -5 9.23 2.29
2 11 5 8.62 2.34
2 11 5 10.03 2.05
-2 -11 -5 10.13 2.32
2 11 5 6.45 1.74
-2 -11 -6 264.7 12.95
-2 -11 -6 271.62 13.13
-2 -11 -6 266.89 13.23
-2 -11 -6 297.02 13.52
-2 -11 -6 280.69 13.24
2 11 6 257.86 12.63
-2 -11 -6 263.94 13.18
2 11 6 279.91 11.51
-2 -11 -7 9.45 2.41
-2 -11 -7 7.48 2.04
-2 -11 -7 5.11 1.71
-2 -11 -7 7.74 2.09
-2 -11 -7 5.01 1.91
2 11 7 3.71 1.53
2 11 7 5.63 1.78
-2 -11 -8 159.48 9.95
-2 -11 -8 161.25 10.04
-2 -11 -8 156.64 9.86
-2 -11 -8 157.72 9.98
-2 -11 -8 160.56 9.9
2 11 8 156.6 9.86
2 11 8 159.55 9.56
-2 -11 -8 153.11 9.87
2 11 8 177.37 9.33
-2 -11 -9 21.76 3.71
2 11 9 28.7 3.73
2 11 9 22.94 3.45
-2 -11 -9 25.67 3.91
-2 -11 -9 16.48 3.28
-2 -11 -9 25.84 4.15
-2 -11 -9 20.55 3.77
2 11 9 19.53 3.42
-2 -11 -9 17.07 3.21
-2 -11 -9 21.46 3.54
2 11 9 15.48 3.33
2 11 9 22.51 3.13
2 11 10 419.99 16.14
2 11 10 365.17 15.93
-2 -11 -10 351.86 16.47
-2 -11 -10 373.28 16.93
-2 -11 -10 339.57 16.31
-2 -11 -10 375 16.93
2 11 10 317.29 16.02
-2 -11 -10 371.11 17.54
-2 -11 -10 373.21 16.97
-2 -11 -10 367.57 16.73
2 11 10 390.15 17.14
2 11 10 363 14.27
2 11 11 0.11 1.16
2 11 11 -2.3 1.72
-2 -11 -11 0.96 1.08
-2 -11 -11 0.12 1.1
-2 -11 -11 0.34 1.08
-2 -11 -11 0.3 1.07
2 11 11 1.25 1.19
-2 -11 -11 3.13 2.07
-2 -11 -11 2.08 1.75
-2 -11 -11 -1.39 1.38
2 11 11 -1.52 1.35
2 11 11 -0.99 0.88
2 11 12 2.33 1.44
-2 -11 -12 0.96 1.22
2 11 12 1.04 1.65
-2 -11 -12 1.4 1.29
-2 -11 -12 -0.13 1.58
2 11 12 -0.27 1.33
-2 -11 -12 0.71 1.7
-2 -11 -12 -1.26 1.98
-2 -11 -12 1.81 1.14
-2 -11 -12 1.06 1.25
2 11 12 0.79 1.35
2 11 12 1.6 1.03
-2 -11 -13 14.88 3.4
-2 -11 -13 12.44 3.09
-2 -11 -13 15.88 3.48
-2 -11 -13 15.74 3.49
-2 -11 -13 15.47 3.47
2 11 13 15.81 3.17
2 11 13 13.34 3.27
-2 -11 -13 15.77 3.78
2 11 13 17.08 3.36
2 11 13 15.18 3.2
-2 -11 -13 15.13 3.47
2 11 14 15.78 3.31
2 12 -3 68.3 6.26
-2 -12 2 50.5 6.23
2 12 -2 49.7 5.85
-2 -12 2 52.99 5.97
-2 -12 2 55.44 5.73
-2 -12 2 54.98 5.76
-2 -12 2 55.28 5.85
-2 -12 2 62.51 6.16
-2 -12 2 59.26 6.09
2 12 -2 53.64 5.47
-2 -12 2 50.59 6.36
2 12 -2 44.97 5.36
2 12 -2 51.28 5.6
2 12 -2 41.42 4.74
-2 -12 1 89.68 8.05
2 12 -1 94.43 8.06
-2 -12 1 101.41 8.18
-2 -12 1 105.25 7.86
-2 -12 1 99.47 7.69
-2 -12 1 96.16 7.63
-2 -12 1 88.31 7.32
-2 -12 1 99.58 7.82
2 12 -1 101.49 7.5
-2 -12 1 90.91 8.4
2 12 -1 88.88 7.52
2 12 -1 82.99 7.05
2 12 -1 93.9 7.08
-2 -12 0 47.56 5.77
-2 -12 0 49.49 5.21
-2 -12 0 48.54 5.22
-2 -12 0 56.13 5.65
-2 -12 0 51.41 5.45
-2 -12 0 46.47 5.18
2 12 0 48.81 5.66
-2 -12 0 50.4 5.61
2 12 0 37.65 4.76
2 12 0 45.5 5.02
2 12 0 49.36 5
-2 -12 -1 -0.16 1.21
-2 -12 -1 1.42 1.56
2 12 1 2.62 1.54
2 12 1 5.83 1.87
-2 -12 -1 2.12 1.52
-2 -12 -1 2.06 1.42
-2 -12 -1 2.64 2.03
-2 -12 -2 0.84 1.5
-2 -12 -2 -0.52 1.34
-2 -12 -2 0.9 1.31
-2 -12 -2 -0.59 1
-2 -12 -2 1.09 1.08
2 12 2 -1.05 0.98
2 12 2 0.04 1.06
-2 -12 -3 11.82 2.73
-2 -12 -3 17.18 3.16
-2 -12 -3 14.25 2.82
-2 -12 -3 17.68 3.25
-2 -12 -3 17.55 3.16
-2 -12 -3 10.96 2.65
2 12 3 12.71 2.7
2 12 3 11.19 2.44
-2 -12 -4 49.64 5.69
-2 -12 -4 51.38 5.41
-2 -12 -4 49.04 5.29
-2 -12 -4 50.85 5.38
-2 -12 -4 46.47 5.08
-2 -12 -4 53.68 5.58
2 12 4 46.12 5.16
2 12 4 44.91 4.81
2 12 5 117.7 8.2
-2 -12 -5 116.23 8.77
-2 -12 -5 135.29 8.93
-2 -12 -5 129.91 8.83
-2 -12 -5 134.5 8.96
-2 -12 -5 130.26 8.72
-2 -12 -5 137.89 8.98
2 12 5 119.83 8.49
2 12 5 127.75 8.22
-2 -12 -6 44.5 5.13
-2 -12 -6 53.46 5.64
-2 -12 -6 50.72 5.56
-2 -12 -6 57.46 5.84
-2 -12 -6 53.36 5.63
2 12 6 49.2 5.51
2 12 6 53.46 5.37
-2 -12 -6 55.15 5.92
2 12 6 62.62 4.97
-2 -12 -7 131.15 9.24
-2 -12 -7 136.72 9.4
-2 -12 -7 139.92 9.6
-2 -12 -7 139.15 9.45
2 12 7 127.88 8.69
-2 -12 -7 128.8 9.28
2 12 7 149.65 8.32
-2 -12 -7 141.13 9.51
-2 -12 -8 7.21 2.29
-2 -12 -8 5.44 1.75
-2 -12 -8 7.52 2.33
2 12 8 6.19 1.78
-2 -12 -8 6.95 2.21
2 12 8 7.51 2.21
-2 -12 -8 4.45 1.59
-2 -12 -9 117.47 8.93
-2 -12 -9 128.27 9.24
-2 -12 -9 113.34 8.78
-2 -12 -9 122.33 9.02
2 12 9 114.5 8.3
-2 -12 -9 121.6 9.14
2 12 9 124.49 8.25
2 12 9 112.75 7.5
-2 -12 -10 6.33 2.15
-2 -12 -10 5.09 1.92
-2 -12 -10 4.09 1.82
-2 -12 -10 4.69 2.24
2 12 10 0.74 1.37
-2 -12 -10 5.63 2.06
-2 -12 -10 2.09 1.32
2 12 10 4.41 1.44
2 12 10 6.08 2.02
2 12 10 3.06 1.47
-2 -12 -10 4.02 1.91
2 12 11 2.03 1.09
-2 -12 -11 7.7 2.33
2 12 11 5.46 1.98
-2 -12 -11 5.08 2.07
-2 -12 -11 6.54 2.24
-2 -12 -11 5.59 2.46
-2 -12 -11 7.57 2.99
2 12 11 10.87 3.11
-2 -12 -11 5.44 2.08
-2 -12 -11 3.17 1.36
2 12 11 7.97 2.47
2 12 11 7.93 1.94
-2 -12 -12 90.48 8.35
2 12 12 82.01 7.33
2 12 12 95.1 7.91
2 12 12 89.1 8.6
-2 -12 -12 105.17 9.41
-2 -12 -12 91.1 8.42
-2 -12 -12 94.48 8.63
-2 -12 -12 102.55 8.86
-2 -12 -12 88.38 8.44
-2 -12 -12 94.46 8.55
2 12 12 94.7 8.4
2 12 12 94.9 6.79
2 13 -1 13.07 2.93
-2 -13 0 81 8.03
2 13 0 92.12 8.19
-2 -13 0 105.27 8.66
-2 -13 0 98.09 7.97
-2 -13 0 102.89 8.11
-2 -13 0 92.58 7.68
-2 -13 0 91.57 7.71
-2 -13 0 97.88 8.06
2 13 0 102.64 7.61
2 13 0 85.25 7.55
2 13 0 83.15 7.31
2 13 0 86.18 6.87
-2 -13 -1 64.91 7.01
-2 -13 -1 80.89 7.27
-2 -13 -1 69.46 6.68
-2 -13 -1 70.39 6.66
-2 -13 -1 74.63 6.92
2 13 1 69.97 7.14
-2 -13 -1 74.57 7.24
2 13 1 66.94 6.53
2 13 1 72.65 6.23
-2 -13 -2 32.61 4.9
-2 -13 -2 30.49 4.29
2 13 2 30.82 4.46
2 13 2 32.82 4.19
-2 -13 -2 37.18 4.94
-2 -13 -2 32.85 4.5
-2 -13 -2 34.73 4.73
-2 -13 -3 38.59 5.25
-2 -13 -3 37.7 4.88
-2 -13 -3 36.28 4.73
-2 -13 -3 35.37 4.81
-2 -13 -3 34.5 4.65
2 13 3 31.02 4.27
2 13 3 38.15 4.48
-2 -13 -4 76.57 7.38
-2 -13 -4 82.76 7.22
-2 -13 -4 74.73 6.91
-2 -13 -4 83.93 7.3
-2 -13 -4 82.38 7.16
-2 -13 -4 67.78 6.67
2 13 4 72.68 6.9
2 13 4 71.41 6.27
-2 -13 -5 10.56 2.7
-2 -13 -5 8.03 2.35
-2 -13 -5 10.06 2.64
-2 -13 -5 11.99 2.73
-2 -13 -5 13.36 2.92
-2 -13 -5 11.12 2.75
2 13 5 11.62 2.81
2 13 5 9.86 2.38
2 13 6 47.52 5.35
-2 -13 -6 53.17 6.09
-2 -13 -6 45.59 5.46
-2 -13 -6 58.02 6.04
-2 -13 -6 53.68 5.9
-2 -13 -6 57.87 6.01
-2 -13 -6 56.25 6.05
2 13 6 49.71 5.64
2 13 6 42.71 4.94
-2 -13 -7 34.14 4.91
2 13 7 39.79 4.21
2 13 7 28.3 4.04
-2 -13 -7 29.78 4.53
-2 -13 -7 35.62 4.82
-2 -13 -7 31.91 4.49
-2 -13 -7 29.69 4.46
-2 -13 -7 26.86 4.33
2 13 7 37.2 4.96
2 13 7 31.5 3.95
2 13 8 12.66 2.6
2 13 8 2.67 1.45
-2 -13 -8 5.59 2.36
-2 -13 -8 6.16 2.28
-2 -13 -8 7.4 2.34
-2 -13 -8 10.85 2.84
-2 -13 -8 11.7 2.89
-2 -13 -8 6.58 2.41
2 13 8 5.34 2.11
2 13 8 8.86 2.37
-2 -13 -9 13.76 3.42
-2 -13 -9 10.7 2.74
-2 -13 -9 17.57 3.66
-2 -13 -9 16.24 3.55
-2 -13 -9 22.17 4
2 13 9 20.96 3.42
-2 -13 -9 18.32 3.69
2 13 9 20.17 3.56
2 13 9 16.74 3.01
-2 -13 -10 53.28 6.28
-2 -13 -10 53.81 6.33
-2 -13 -10 51.42 6.31
-2 -13 -10 48.66 6.1
2 13 10 52.45 5.24
2 13 10 50.32 5.61
2 13 10 47.04 5.43
-2 -13 -10 48.34 6.05
2 13 11 81.44 6.61
2 13 11 70.08 6.88
-2 -13 -11 91.36 8.5
2 14 2 8.95 2.43
2 14 3 118.42 8.13
2 14 3 123 8.42
2 14 3 113.1 8.01
2 14 4 46.02 5.15
2 14 4 57.48 5.52
2 14 4 51.66 6.04
-2 -14 -4 55.37 6.64
-2 -14 -5 3.52 2.46
-2 -14 -5 0.34 1.11
-2 -14 -5 2.94 1.34
-2 -14 -5 3.25 1.58
-2 -14 -5 1.3 1.29
-2 -14 -5 3.13 1.71
2 14 5 1.39 1.2
2 14 5 2.37 1.44
2 14 5 4.18 1.83
-2 -14 -6 6.35 2.46
-2 -14 -6 10.29 2.64
-2 -14 -6 4.77 2.2
-2 -14 -6 9.36 2.69
-2 -14 -6 9.05 2.82
2 14 6 7.63 2.55
2 14 6 11.4 2.7
2 14 6 13.23 2.82
-2 -14 -6 13.85 3.18
2 14 7 1.03 1.05
2 14 7 4.5 2.28
-2 -14 -7 5.18 2.12
2 14 8 -0.03 1.13
3 -12 -5 2.45 1.36
3 -12 -5 6.04 2.77
3 -12 -4 75.55 7.51
3 -12 -4 75.23 7.69
-3 12 4 77.56 6.9
3 -12 -4 77.44 7.73
3 -12 -3 -0.88 1.55
-3 12 3 0.21 1.13
3 -12 -3 1.98 1.46
3 -12 -3 1.25 1.28
-3 12 3 1.48 1.21
3 -12 -3 4.1 2.11
3 -12 -2 9.63 2.62
-3 12 2 9.4 2.4
3 -12 -2 11.07 2.89
-3 12 2 9.7 2.62
3 -12 -2 7.47 2.46
-3 12 1 15.72 2.87
3 -12 -1 13.43 3.21
3 -12 -1 10.67 2.87
-3 12 0 8.95 2.21
3 -11 -8 7.12 2.5
-3 11 7 29.94 4
-3 11 7 33.8 4.54
3 -11 -7 24.75 4.33
-3 11 6 11.52 2.62
3 -11 -6 8.94 2.64
3 -11 -6 13.82 3.33
-3 11 6 13.1 2.89
3 -11 -5 213.3 12.77
-3 11 5 248.16 12.02
3 -11 -5 211.91 13.12
3 -11 -5 221.75 13.32
-3 11 5 235.73 12.27
3 -11 -5 215.77 13.13
3 -11 -4 41.23 5.36
-3 11 4 47.73 5.04
3 -11 -4 43.88 5.76
3 -11 -4 44.6 5.55
-3 11 4 55.7 5.5
3 -11 -4 44.8 5.5
3 -11 -3 27.36 4.35
-3 11 3 38.91 4.35
3 -11 -3 29.25 4.52
-3 11 3 32.03 4.11
3 -11 -3 31.16 4.52
3 -11 -3 26.21 4.27
-3 11 2 58.06 5.29
3 -11 -2 52.07 5.93
3 -11 -2 62.31 6.61
-3 11 2 53.45 5.33
3 -11 -2 60.77 6.44
3 -11 -2 54.23 6.14
-3 11 1 7.84 2.08
3 -11 -1 9.72 2.78
3 -11 -1 9.63 2.63
3 -11 -1 9.28 2.64
-3 11 1 6.11 2.05
3 -11 -1 5.85 2
-3 11 1 11.22 2.49
-3 11 0 10.76 2.07
3 -11 0 10.8 2.83
3 -11 0 11.45 2.82
3 -11 0 12.35 3
-3 11 0 12.76 2.59
3 -11 1 45.87 5.87
3 -11 1 49.38 5.81
3 -11 1 50.22 6.14
-3 11 -1 54.57 5.26
3 -11 2 9.38 2.89
3 -11 2 6.97 2.35
-3 11 -2 4.34 1.84
3 -11 2 3.31 1.63
3 -11 3 31.19 4.55
-3 11 -3 30.28 4.18
3 -11 3 35.1 5.31
3 -10 -9 8.34 2.7
-3 10 9 2.67 1.34
-3 10 9 8.26 2.28
3 -10 -8 8.89 2.9
-3 10 8 8.05 2.26
-3 10 8 11.26 2.42
3 -10 -7 3.03 2.16
-3 10 7 3.6 1.63
-3 10 7 7.18 1.87
3 -10 -6 207.54 12.51
-3 10 6 229.84 11.81
-3 10 6 224.13 11.14
-3 10 5 173.33 9.98
3 -10 -5 173.02 11.07
3 -10 -5 160.94 10.49
-3 10 5 188.89 9.94
3 -10 -4 29.68 4.32
-3 10 4 32.21 3.94
3 -10 -4 25.5 4.13
3 -10 -4 29.7 4.4
-3 10 4 36.11 4.29
3 -10 -3 221.43 12.39
-3 10 3 246.16 11.25
3 -10 -3 226.84 12.85
-3 10 3 238.29 11.58
3 -10 -3 228.04 12.5
3 -10 -3 226.03 12.74
-3 10 2 0.13 0.87
3 -10 -2 0.47 1.41
3 -10 -2 2.77 1.7
3 -10 -2 -0.27 0.86
-3 10 2 0.39 0.93
3 -10 -2 1.8 1.04
3 -10 -1 18.13 3.43
-3 10 1 27.78 3.39
3 -10 -1 27.1 4.15
-3 10 1 23.89 3.36
3 -10 -1 22.54 3.7
-3 10 1 20.22 2.84
3 -10 -1 20.69 3.59
3 -10 0 -0.55 1.17
-3 10 0 -0.79 0.76
3 -10 0 1.7 1.11
3 -10 0 1.24 1.18
3 -10 0 0.11 0.94
-3 10 0 1.45 0.93
-3 10 0 1.03 0.8
3 -10 0 -0.94 1.34
-3 10 -1 112.86 6.87
3 -10 1 115.41 8.82
3 -10 1 93.85 7.33
3 -10 1 90.37 7.42
-3 10 -1 102.73 7.07
-3 10 -1 100.99 6.99
3 -10 1 113.24 8.66
3 -10 2 2.97 1.81
3 -10 2 1.3 1.13
3 -10 2 0.69 1.13
-3 10 -2 2.37 1.58
3 -10 3 79.83 7.53
3 -10 3 79.11 7.57
3 -10 3 77.39 7
-3 10 -3 88.11 6.95
3 -10 4 4.38 1.78
3 -10 4 5.51 1.91
-3 10 -4 7.23 2.31
3 -10 4 6.47 2.25
3 -10 5 4.16 2.11
-3 10 -5 4.27 1.73
3 -10 5 5.35 2.15
-3 9 11 10.77 2.49
3 -9 -10 31.45 5.04
-3 9 10 43.91 5.07
-3 9 10 34.64 4.32
-3 9 9 2.3 1.49
3 -9 -9 4.82 2.09
-3 9 9 2.91 1.51
-3 9 8 -0.31 1.04
3 -9 -8 1.1 1.45
-3 9 8 1.22 0.94
-3 9 7 80 6.46
3 -9 -7 65.58 6.62
-3 9 7 79.83 6.21
-3 9 6 167.01 9.42
3 -9 -6 146.34 9.87
-3 9 6 161.48 9.09
-3 9 5 141.72 8.43
3 -9 -5 124.12 8.82
-3 9 5 140.71 8.16
3 -9 -4 269.31 13.39
-3 9 4 280.84 12.56
-3 9 4 297.45 12.44
-3 9 3 14.93 2.61
3 -9 -3 10.98 2.6
3 -9 -3 13.88 3.01
3 -9 -3 10.6 2.42
-3 9 3 12.83 2.63
3 -9 -2 174.55 10.22
-3 9 2 181.04 9
3 -9 -2 164.03 10.09
3 -9 -2 172.62 9.99
-3 9 2 169.82 9.08
-3 9 2 173.7 8.17
3 -9 -2 168.25 10.18
-3 9 1 2.04 1.21
3 -9 -1 1.24 1.45
3 -9 -1 2.04 1.31
3 -9 -1 -0.38 1.26
-3 9 1 0.58 0.77
-3 9 1 1.42 0.92
3 -9 -1 1.35 1.11
-3 9 0 21 2.87
3 -9 0 19.99 3.38
-3 9 0 24.99 3.05
3 -9 0 19.13 3.21
3 -9 0 21.77 3.61
-3 9 0 24.86 3.23
3 -9 0 23.46 3.47
-3 9 -1 3.84 1.27
3 -9 1 4.15 1.4
-3 9 -1 1.92 0.98
3 -9 1 3.18 1.5
3 -9 1 2.94 1.64
3 -9 1 4.19 1.42
3 -9 1 3.27 1.53
-3 9 -1 4.41 1.56
-3 9 -2 52.9 4.66
3 -9 2 43.63 4.73
3 -9 2 51.22 5.17
3 -9 2 42.91 4.45
3 -9 2 47.91 4.35
3 -9 2 50.7 4.36
3 -9 2 46.53 4.24
3 -9 2 46.8 4.3
3 -9 2 49.74 4.39
-3 9 -2 49.65 4.68
3 -9 2 53.04 5.63
3 -9 2 48.54 5.39
-3 9 -2 62.59 4.71
3 -9 3 20.4 2.99
3 -9 3 23.8 3.1
3 -9 3 24.46 3.12
3 -9 3 25.41 3.3
3 -9 3 22.29 2.95
3 -9 3 19.25 2.73
-3 9 -3 27.58 3.7
3 -9 3 25.14 3.91
-3 9 -3 17.57 2.86
-3 9 -3 24.85 3.23
3 -9 3 27.36 4.16
3 -9 3 26.37 3.83
3 -9 3 19.04 3.27
3 -9 4 50.23 5.24
-3 9 -4 52.47 5.12
3 -9 4 52.88 4.99
3 -9 4 45.74 4.55
3 -9 4 49.54 4.76
3 -9 4 48.69 4.68
3 -9 4 46.57 4.68
-3 9 -4 52.94 5.27
-3 9 -4 41.4 4.47
3 -9 4 43.52 5.37
-3 9 -4 47.21 4.64
3 -9 4 48.18 5.61
-3 9 -5 3.74 1.79
3 -9 5 0.96 0.96
3 -9 5 0.42 0.98
3 -9 5 2.25 1.15
3 -9 5 0.11 1.04
3 -9 5 4.87 1.64
3 -9 5 0.98 1.07
-3 9 -5 2.47 1.53
-3 9 -5 1.9 1.49
-3 9 -5 1.45 1.37
3 -9 5 0.97 1.06
3 -9 5 1.38 1.2
3 -9 6 32.7 4.14
3 -9 6 32.53 4.19
3 -9 6 27.1 3.85
3 -9 6 27.38 3.85
-3 9 -6 36.49 4.64
3 -9 6 33.18 4.98
-3 9 -6 27.66 3.84
-3 9 -6 21.7 3.58
-3 9 -6 31.23 4.03
3 -9 6 34.95 5.27
-3 9 -6 26.27 3.87
3 -9 6 35.45 4.48
3 -9 7 18.92 3.37
3 -9 7 21.14 3.59
3 -9 7 17.52 3.16
3 -9 7 24.31 3.73
3 -9 7 19.42 3.47
-3 8 11 0.64 1.25
-3 8 11 -1.75 1.57
3 -8 -11 -0.86 1.05
3 -8 -11 0.35 1.22
-3 8 10 0.28 0.98
-3 8 10 4.66 2.08
3 -8 -10 4.83 1.87
3 -8 -10 3.24 1.57
-3 8 9 11.82 2.24
3 -8 -9 9.21 2.62
-3 8 9 12.47 2.61
3 -8 -9 16.45 3.24
-3 8 8 393.16 15.28
3 -8 -8 374.32 17.18
-3 8 8 384.57 15.65
3 -8 -8 390.9 16.96
-3 8 7 50.22 4.74
-3 8 7 53.78 5
3 -8 -7 42.19 5.03
3 -8 -7 45 5.08
-3 8 6 47.23 4.46
-3 8 6 48.2 4.63
3 -8 -6 44.54 5.07
3 -8 -6 47.19 5
-3 8 5 216.34 10.07
-3 8 5 218.03 10.4
3 -8 -5 206.49 11.11
-3 8 4 1.46 1.09
-3 8 4 0.99 1.2
3 -8 -4 0.54 0.85
-3 8 3 274.4 11.2
-3 8 3 252.03 11.18
3 -8 -3 250.74 12
3 -8 -2 67.61 5.75
-3 8 2 65.22 4.89
-3 8 2 63.66 4.38
3 -8 -2 59.68 5.53
-3 8 2 69.4 5.25
3 -8 -2 69.2 5.71
3 -8 -1 160.65 8.99
-3 8 1 170.28 8.49
3 -8 -1 159.2 7.44
3 -8 -1 162.77 7.47
3 -8 -1 156.6 7.4
3 -8 -1 159.1 7.5
3 -8 -1 161.87 9.35
-3 8 1 176.85 8.02
3 -8 -1 152.21 9.1
3 -8 -1 157.43 9.11
-3 8 1 171.45 8.18
3 -8 0 42.48 4.31
-3 8 0 40.51 3.85
-3 8 0 42.73 3.9
3 -8 0 40.33 3.7
3 -8 0 37.75 3.45
3 -8 0 46.48 3.71
3 -8 0 45.12 3.61
3 -8 0 39.86 3.44
3 -8 0 42.92 3.58
-3 8 0 42.73 3.8
3 -8 0 37.13 4.31
-3 8 0 41.09 3.68
3 -8 0 46.24 4.77
-3 8 0 40.39 3.56
3 -8 0 36.5 4.3
-3 8 0 50.11 4.12
-3 8 -1 0.74 0.83
3 -8 1 1.67 1
3 -8 1 1.48 1.01
3 -8 1 2.14 1.07
-3 8 -1 1.95 0.88
3 -8 1 2.42 0.93
3 -8 1 1.59 0.84
3 -8 1 3.32 1.13
3 -8 1 1.88 0.95
3 -8 1 4.33 1.25
-3 8 -1 0.86 0.96
3 -8 1 0.75 0.99
-3 8 -1 1.09 0.75
-3 8 -1 1.25 0.93
3 -8 1 1.46 1.14
-3 8 -1 1.93 1.09
3 -8 1 2.28 1.41
3 -8 2 0.49 0.72
3 -8 2 0.05 0.89
-3 8 -2 -0.55 0.95
-3 8 -2 -0.83 0.92
3 -8 2 -0.06 0.85
3 -8 2 0.58 0.89
3 -8 2 0.13 0.56
3 -8 2 -0.44 0.67
3 -8 2 0.17 0.86
3 -8 2 1.58 0.84
-3 8 -2 -0.5 0.92
3 -8 2 -0.24 1.06
-3 8 -2 -1.02 1.02
-3 8 -2 0.07 0.79
3 -8 2 -0.53 1.1
-3 8 -2 0.73 0.83
-3 8 -3 1.42 1.29
3 -8 3 -0.33 0.87
3 -8 3 0.69 1.01
3 -8 3 -0.56 0.65
3 -8 3 -0.6 0.84
3 -8 3 0.88 0.86
3 -8 3 0.42 0.65
-3 8 -3 -0.06 0.99
3 -8 3 1.44 1.52
-3 8 -3 1.74 1.19
-3 8 -3 -1.08 0.98
3 -8 3 0.85 0.96
3 -8 3 -0.56 1.07
3 -8 3 0.7 1.22
-3 8 -3 -0.17 0.89
3 -8 4 54.58 5.17
3 -8 4 57.28 5.23
-3 8 -4 50.3 4.82
3 -8 4 58 5.04
3 -8 4 51.71 4.55
3 -8 4 54.77 4.61
3 -8 4 50.76 4.45
3 -8 4 53.85 4.62
-3 8 -4 57.81 5.12
-3 8 -4 51.42 4.72
3 -8 4 61.17 5.88
-3 8 -4 46.84 4.38
3 -8 4 59.82 5.91
3 -8 5 7.39 2.02
-3 8 -5 3.19 1.28
3 -8 5 3.68 1.54
3 -8 5 6.85 1.86
3 -8 5 5.19 1.74
3 -8 5 6.18 1.86
-3 8 -5 4.74 1.67
3 -8 5 3.11 1.59
-3 8 -5 3.69 1.67
-3 8 -5 4.33 1.67
3 -8 5 3.17 1.69
3 -8 5 9.25 2.29
3 -8 5 1.34 0.96
-3 8 -6 368.27 15.88
3 -8 6 385.1 15.91
3 -8 6 382.91 15.13
3 -8 6 396.34 15.37
3 -8 6 402.18 15.54
3 -8 6 397.79 15.56
-3 8 -6 460.47 17.19
-3 8 -6 328.27 14.86
-3 8 -6 363.77 15.09
3 -8 6 387.27 17.51
-3 8 -6 350.93 14.76
3 -8 6 390.14 17.71
-3 8 -7 154.85 9.9
3 -8 7 167.22 10.03
3 -8 7 181.39 10.05
3 -8 7 184.84 10.12
3 -8 7 183.37 10.11
3 -8 7 175.32 10.13
-3 8 -7 208.7 11.37
-3 8 -7 149.33 9.54
-3 8 -7 157.85 9.7
-3 8 -7 164.37 9.58
3 -8 7 185.91 11.86
3 -8 7 181.36 11.86
3 -8 8 5.5 1.94
3 -8 8 3.73 1.52
3 -8 8 8.34 2.35
3 -8 8 7.11 2.25
-3 8 -8 6.88 2.19
-3 8 -8 2.9 1.7
-3 8 -8 6.95 2.32
3 -8 8 5.72 2.11
-3 8 -8 7.18 2.09
3 -8 8 7.05 2.33
-3 8 -8 7.72 2.39
3 -8 8 3.68 2.2
-3 8 -9 11.04 2.85
-3 8 -9 8.76 2.66
-3 8 -9 8.49 2.41
-3 8 -9 11.13 2.66
3 -7 -12 5.39 2.1
-3 7 12 5.51 2.17
3 -7 -12 6.81 2.48
3 -7 -11 39.16 5.1
-3 7 11 39.27 4.38
3 -7 -11 33.43 5.07
-3 7 11 41.48 4.65
3 -7 -10 2.06 1.54
-3 7 10 2.19 1.18
-3 7 10 -0.34 1
3 -7 -10 1.94 1.41
3 -7 -9 321.8 14.74
-3 7 9 306.74 13.14
3 -7 -9 330.05 15.62
-3 7 9 301.42 13.33
3 -7 -8 30.15 4.11
-3 7 8 29.57 3.57
-3 7 8 25.05 3.4
3 -7 -8 32.56 4.45
3 -7 -7 177.11 10.05
-3 7 7 193.53 9.32
-3 7 7 175.79 9.28
3 -7 -7 192.19 10.76
3 -7 -6 359.84 14.74
-3 7 6 343.96 13.48
-3 7 6 348.92 13.73
3 -7 -6 358.47 15.06
3 -7 -5 100.76 6.98
-3 7 5 102.82 6.43
-3 7 5 95.09 6.27
3 -7 -5 101.97 7.12
3 -7 -4 0.72 1.11
-3 7 4 2.75 1.08
3 -7 -4 0.43 1.01
-3 7 4 1.86 1.08
3 -7 -3 34.56 3.02
3 -7 -3 35.68 3.03
3 -7 -3 36.61 3.06
3 -7 -3 31.81 2.91
3 -7 -3 34.55 3.86
-3 7 3 34.63 2.87
3 -7 -3 36.98 3.06
-3 7 3 41.51 3.8
-3 7 3 39.61 3.76
3 -7 -3 36.91 3.94
3 -7 -2 132.11 7.56
-3 7 2 126.11 6.94
3 -7 -2 129.77 6.06
3 -7 -2 118.31 5.91
3 -7 -2 117.14 5.81
3 -7 -2 127.1 5.99
-3 7 2 116.81 5.89
3 -7 -2 127.76 5.99
-3 7 2 113.11 5.93
-3 7 2 145.08 7.12
3 -7 -1 241.62 10.78
-3 7 1 262.24 10.55
3 -7 -1 235.11 9.04
3 -7 -1 240.55 9.17
3 -7 -1 247.84 9.28
3 -7 -1 249.41 9.18
-3 7 1 267.93 9.77
3 -7 -1 249.71 11.46
3 -7 -1 255.37 11.52
-3 7 1 236 9.15
3 -7 -1 241.77 11.16
-3 7 1 282.59 10.41
3 -7 0 197.74 9.46
-3 7 0 224.05 9.37
3 -7 0 197.96 8.02
3 -7 0 212.61 8.21
3 -7 0 202.12 8.1
3 -7 0 206.83 8.21
3 -7 0 198.91 10.03
-3 7 0 196.06 8.65
3 -7 0 198.57 9.96
-3 7 0 192.23 8.11
3 -7 0 201.96 10.05
-3 7 0 226.93 9.07
-3 7 -1 93.04 5.71
3 -7 1 91.35 6.02
-3 7 -1 88.22 5.44
3 -7 1 82.46 5.17
3 -7 1 90.29 5.12
3 -7 1 96.98 5.25
3 -7 1 90.28 5.06
3 -7 1 93.9 5.22
3 -7 1 94.36 5.28
3 -7 1 96.58 6.67
-3 7 -1 90.6 5.57
-3 7 -1 84.53 5.09
3 -7 1 93.64 6.5
-3 7 -1 92.21 5.17
3 -7 1 85.03 6.25
-3 7 -1 104.05 5.62
-3 7 -2 49.12 4.03
3 -7 2 45.35 4.38
3 -7 2 49.19 4.36
-3 7 -2 48.45 3.96
3 -7 2 53.73 4.08
3 -7 2 53.45 3.91
3 -7 2 48.45 3.78
3 -7 2 52.4 3.84
3 -7 2 47.99 3.74
3 -7 2 53.41 3.95
3 -7 2 48.44 4.77
-3 7 -2 51.63 4.29
-3 7 -2 45.8 3.84
3 -7 2 44.13 4.5
-3 7 -2 45.4 3.68
3 -7 2 45.91 4.54
-3 7 -2 53.85 3.92
3 -7 3 7.6 2.04
3 -7 3 6.08 1.61
-3 7 -3 7.07 1.68
-3 7 -3 6.25 1.66
3 -7 3 5.48 1.42
3 -7 3 6.41 1.4
3 -7 3 7.18 1.53
3 -7 3 5.49 1.31
3 -7 3 6.46 1.54
3 -7 3 4.52 1.29
-3 7 -3 6.01 1.49
3 -7 3 6.56 1.89
-3 7 -3 9.02 1.72
-3 7 -3 4.87 1.32
3 -7 3 11.62 2.36
-3 7 -3 6.61 1.44
-3 7 -4 7.78 1.91
3 -7 4 3.44 1.38
3 -7 4 4.73 1.25
3 -7 4 5.15 1.4
3 -7 4 3.36 1.15
3 -7 4 3.48 1.13
-3 7 -4 5.28 1.62
3 -7 4 6.19 1.88
-3 7 -4 5.08 1.45
-3 7 -4 6.85 1.68
3 -7 4 6.19 1.91
3 -7 4 4.99 1.47
3 -7 4 6.79 1.86
-3 7 -4 5.55 1.44
-3 7 -5 21.62 3.14
3 -7 5 23.82 3.16
3 -7 5 25.16 3.08
3 -7 5 24 3.05
3 -7 5 24.46 3.08
3 -7 5 19.93 2.85
-3 7 -5 23.8 3.37
3 -7 5 25.67 3.72
-3 7 -5 21.72 3
-3 7 -5 18.54 2.65
3 -7 5 22.34 3.48
3 -7 5 18.57 2.82
3 -7 5 20.62 3.21
3 -7 6 76.43 6.03
-3 7 -6 68.62 5.87
3 -7 6 79.61 5.76
3 -7 6 76.95 5.65
3 -7 6 70.72 5.48
3 -7 6 71.56 5.55
-3 7 -6 89.59 6.57
-3 7 -6 58.74 5.37
-3 7 -6 66.62 5.44
3 -7 6 64.89 6.23
-3 7 -6 71.8 5.53
3 -7 6 72.79 6.71
3 -7 7 2.3 1.24
3 -7 7 3.97 1.42
3 -7 7 3.88 1.59
3 -7 7 2.56 1.31
-3 7 -7 6.13 2.03
3 -7 7 2.67 1.65
-3 7 -7 2.96 1.3
-3 7 -7 2.06 1.28
-3 7 -7 3.17 1.35
3 -7 7 3.99 1.94
-3 7 -7 4.15 1.79
3 -7 7 2.58 1.55
3 -7 8 23.2 3.49
3 -7 8 27.04 3.77
3 -7 8 29.58 4.03
3 -7 8 26.36 3.72
-3 7 -8 27.97 4.03
3 -7 8 26.36 4.45
-3 7 -8 26.1 3.74
-3 7 -8 24.91 3.64
3 -7 8 26.26 4.27
-3 7 -8 27.92 3.85
-3 7 -8 23.37 3.67
3 -7 8 26.09 3.75
3 -7 9 15.38 3.05
3 -7 9 12.57 2.87
3 -7 9 18.71 3.4
3 -7 9 11.54 2.63
-3 7 -9 19.28 3.46
3 -7 9 15.3 3.56
-3 7 -9 11.03 2.65
-3 7 -9 12.07 2.98
-3 7 -9 12.01 2.68
3 -7 9 18.1 3.6
-3 7 -9 11.21 2.86
3 -7 9 15.53 3.18
3 -7 10 30.04 4.34
3 -7 10 25.15 3.98
3 -7 10 36.07 4.7
3 -7 10 31.33 4.46
-3 7 -10 23.77 3.96
-3 7 -10 29.47 4.41
-3 7 -10 26.1 4.04
3 -7 10 25.47 4.08
-3 7 -10 30.05 4.46
3 -6 -12 57.18 6
-3 6 12 51.8 5.24
3 -6 -11 2.23 1.61
-3 6 11 3.02 1.4
3 -6 -11 1.26 1.59
3 -6 -10 32.69 4.28
-3 6 10 36.4 4.06
3 -6 -10 36.65 4.86
-3 6 10 26.7 3.5
3 -6 -9 92.52 7.05
-3 6 9 84.61 6.15
3 -6 -9 99.9 7.82
-3 6 9 87.86 6.33
3 -6 -8 157.54 9.09
-3 6 8 152.59 8.11
3 -6 -8 142.53 9.27
-3 6 8 145.5 8.15
3 -6 -7 179.01 9.54
-3 6 7 175.82 8.66
3 -6 -7 174.16 9.83
-3 6 7 175.47 8.83
3 -6 -6 6.24 1.7
-3 6 6 9.51 1.98
3 -6 -6 9.22 2.08
-3 6 6 10.49 2.06
3 -6 -5 82.72 5.11
3 -6 -5 76.93 4.73
3 -6 -5 74.94 4.64
3 -6 -5 77.33 4.66
3 -6 -5 79.16 5.77
3 -6 -5 78.45 4.77
3 -6 -5 78.7 4.68
3 -6 -5 81.01 5.95
-3 6 5 77.9 5.35
-3 6 5 79.99 5.36
3 -6 -4 199.88 7.99
3 -6 -4 196.88 7.89
3 -6 -4 201.24 7.94
3 -6 -4 222.93 9.9
3 -6 -4 206.45 8
-3 6 4 216.47 9.19
-3 6 4 214.81 9.31
3 -6 -4 209.04 9.87
3 -6 -3 295.84 12.05
-3 6 3 336.96 11.97
3 -6 -3 300.21 10.07
3 -6 -3 300.47 10.09
3 -6 -3 293.5 10.05
3 -6 -3 287.32 10.07
3 -6 -3 336.7 12.47
-3 6 3 295.8 9.65
3 -6 -3 298.5 10.02
-3 6 3 276.72 10.17
-3 6 3 342.42 11.64
3 -6 -2 270.86 10.94
-3 6 2 299.07 10.86
3 -6 -2 263.42 9.01
3 -6 -2 262.8 9.05
3 -6 -2 245.18 8.86
3 -6 -2 259.7 9.05
3 -6 -2 300.31 11.29
-3 6 2 250.41 9.06
3 -6 -2 259.34 8.97
-3 6 2 261.89 9.2
-3 6 2 298.31 10.49
-3 6 1 30.52 3.1
3 -6 -1 34.68 3.4
3 -6 -1 30.41 2.49
3 -6 -1 33.1 2.57
3 -6 -1 30.93 2.52
3 -6 -1 30.04 2.49
-3 6 1 33.54 2.82
3 -6 -1 28.51 2.46
-3 6 1 32.83 2.66
-3 6 1 34.58 3.08
-3 6 0 34.48 3.28
3 -6 0 29.75 3.15
3 -6 0 22.75 2.17
3 -6 0 23.17 2.19
3 -6 0 23.48 2.22
3 -6 0 22.15 2.1
-3 6 0 27.06 2.7
3 -6 0 36.13 3.71
-3 6 0 28.99 2.53
3 -6 0 34.89 3.65
3 -6 0 30.97 3.48
-3 6 0 35.45 3.12
-3 6 -1 480.7 15.1
3 -6 1 452.59 15.23
-3 6 -1 438.46 14.04
3 -6 1 473 14.12
3 -6 1 470.49 13.8
3 -6 1 466.29 13.74
3 -6 1 458.1 13.67
3 -6 1 457.56 13.7
3 -6 1 455.61 13.76
3 -6 1 449.34 16.08
-3 6 -1 436.13 14.5
-3 6 -1 444.58 13.86
-3 6 -1 439.14 13.62
3 -6 1 452.71 15.96
3 -6 1 477.79 16.24
3 -6 2 32.32 3.46
-3 6 -2 34.69 3.27
3 -6 2 35.76 3.37
-3 6 -2 32.4 2.98
3 -6 2 38.42 3.11
3 -6 2 33.61 2.85
3 -6 2 36.73 2.95
3 -6 2 34.08 2.86
3 -6 2 37.71 2.98
3 -6 2 35.77 3
-3 6 -2 40.2 3.6
3 -6 2 37.88 3.91
-3 6 -2 34.7 2.97
3 -6 2 35.33 3.67
-3 6 -2 36.16 2.99
3 -6 2 33.44 3.64
-3 6 -2 36.77 3.05
3 -6 3 28.7 3.28
-3 6 -3 30.06 3.04
3 -6 3 29.09 3.07
-3 6 -3 26.16 2.75
3 -6 3 28.19 2.83
3 -6 3 25.84 2.68
3 -6 3 26.54 2.6
3 -6 3 26.99 2.67
3 -6 3 24.53 2.53
3 -6 3 25.95 2.62
-3 6 -3 35.6 3.5
3 -6 3 27.96 3.41
-3 6 -3 27.3 2.76
3 -6 3 30.23 3.53
-3 6 -3 26.09 2.69
-3 6 -3 28.57 2.56
3 -6 4 11.09 2
3 -6 4 7.26 1.68
-3 6 -4 11.59 1.9
3 -6 4 12.43 2
-3 6 -4 11.66 2
3 -6 4 10.58 1.76
3 -6 4 11.18 1.88
3 -6 4 10.18 1.79
3 -6 4 14.11 2.03
-3 6 -4 14.78 2.44
3 -6 4 13.44 2.62
-3 6 -4 12.18 1.84
-3 6 -4 10.35 1.77
3 -6 4 12.64 2.32
-3 6 -4 14.1 1.87
3 -6 5 48.32 4.57
3 -6 5 50.53 4.35
-3 6 -5 44.82 4.16
3 -6 5 57.17 4.54
3 -6 5 58.34 4.32
3 -6 5 48.3 3.99
3 -6 5 53.78 4.16
3 -6 5 53.54 4.22
-3 6 -5 57.05 4.76
-3 6 -5 46.2 3.89
-3 6 -5 46.61 3.94
-3 6 -5 48.48 3.97
3 -6 5 49.6 4.84
3 -6 5 53.02 5.1
-3 6 -6 53.47 4.73
3 -6 6 49.7 4.46
3 -6 6 51.76 4.4
3 -6 6 52.4 4.36
3 -6 6 46.61 4.14
3 -6 6 47.53 4.27
-3 6 -6 61.42 5.17
-3 6 -6 51.16 4.43
-3 6 -6 45.55 4.39
3 -6 6 49.6 5.03
-3 6 -6 46.29 4.23
3 -6 6 54.31 5.37
3 -6 7 0.64 0.89
3 -6 7 1.11 0.89
3 -6 7 -0.86 0.8
3 -6 7 0.12 0.77
3 -6 7 -0.56 1.09
-3 6 -7 0.58 0.99
-3 6 -7 -0.87 0.85
-3 6 -7 -0.36 0.96
-3 6 -7 -0.33 1.18
3 -6 7 -0.92 1.3
-3 6 -7 0.89 1.09
3 -6 7 -0.73 1.15
3 -6 8 26.82 3.46
3 -6 8 26.46 3.47
3 -6 8 25.58 3.43
3 -6 8 26.7 3.48
-3 6 -8 26.08 3.68
3 -6 8 26.73 4.24
-3 6 -8 26.91 3.6
-3 6 -8 20.78 3.31
3 -6 8 23.51 3.79
-3 6 -8 28.08 3.67
-3 6 -8 23.88 3.59
3 -6 8 24.18 3.57
3 -6 9 47.65 5.37
-3 6 -9 34.64 4.69
3 -6 9 48.98 5.04
3 -6 9 44.42 4.78
3 -6 9 46.33 4.87
3 -6 9 49.76 5.02
-3 6 -9 61.64 5.79
-3 6 -9 42.87 4.93
-3 6 -9 47.12 4.94
-3 6 -9 48.98 5.05
3 -6 9 46.16 5.56
3 -6 9 52.94 6.1
3 -6 10 54.29 5.75
-3 6 -10 47.72 5.63
3 -6 10 47.42 5.3
3 -6 10 53.11 5.61
3 -6 10 57.09 5.58
3 -6 10 57.5 5.78
-3 6 -10 70.49 6.31
-3 6 -10 57.02 5.72
-3 6 -10 45.93 5.28
-3 6 -10 51.14 5.4
3 -6 10 59.36 6.65
3 -6 10 56.66 6.6
3 -6 11 7.02 2.3
3 -6 11 3.37 1.7
3 -6 11 2.19 1.13
-3 6 -11 0.98 1.61
-3 6 -11 6.07 2.21
-3 6 -11 8.96 2.54
-3 6 -11 4.62 1.87
3 -6 11 5.87 2.27
3 -5 -13 6.86 2.29
-3 5 13 3.89 1.75
-3 5 12 44.77 5.2
3 -5 -12 36.91 4.78
-3 5 11 77.14 6.65
3 -5 -11 84.18 6.86
-3 5 11 63.05 5.42
-3 5 10 56.81 5.48
3 -5 -10 63.79 5.7
-3 5 10 55.73 4.86
-3 5 10 53.74 4.74
-3 5 9 2.11 1.43
3 -5 -9 1.26 1.1
-3 5 9 -0.07 0.94
-3 5 9 2.16 1.29
-3 5 8 105.73 7.11
3 -5 -8 113.5 7.31
-3 5 8 109.43 6.63
-3 5 8 104.05 6.39
-3 5 7 0.78 0.76
3 -5 -7 1.02 0.77
-3 5 7 2 1.28
3 -5 -7 1.96 1.22
3 -5 -7 2.48 0.96
3 -5 -7 2.32 0.94
3 -5 -7 1.88 0.97
-3 5 7 1.26 0.77
3 -5 -7 0.18 0.62
-3 5 6 220.06 9.13
3 -5 -6 223.07 9.33
-3 5 6 221.17 9.05
3 -5 -6 226.01 8.91
3 -5 -6 223.36 8.95
3 -5 -6 227.36 10.19
-3 5 6 215.71 10.11
3 -5 -6 211.48 8.79
3 -5 -6 224.68 8.87
3 -5 -6 226.73 10.61
-3 5 6 207.96 9.37
-3 5 6 227.25 9.5
-3 5 5 41.12 3.29
3 -5 -5 38.37 3.24
3 -5 -5 35.53 2.98
3 -5 -5 37.23 3.01
3 -5 -5 40.54 3.11
3 -5 -5 37.86 3.71
3 -5 -5 39.22 3.09
3 -5 -5 38.58 3.01
3 -5 -5 39.08 3.99
-3 5 5 36.17 3.46
-3 5 5 40.77 3.51
-3 5 4 397.4 12.39
3 -5 -4 387.45 12.49
3 -5 -4 388.11 12.15
3 -5 -4 400.64 12.21
3 -5 -4 400.73 12.19
3 -5 -4 408.11 14.13
3 -5 -4 393.73 12.22
3 -5 -4 398.6 12.19
3 -5 -4 418.58 14.48
-3 5 4 418.58 13.82
-3 5 4 417.21 13.53
3 -5 -3 318.36 9.97
3 -5 -3 303.1 9.82
3 -5 -3 310.14 9.88
3 -5 -3 344.2 12.09
-3 5 3 313.98 9.61
3 -5 -3 315.74 9.93
-3 5 3 327.28 11.41
3 -5 -3 328.12 12.04
-3 5 3 331.6 11.61
-3 5 2 74.87 4.59
3 -5 -2 67.65 4.59
3 -5 -2 60.23 3.3
3 -5 -2 58.48 3.28
3 -5 -2 59.6 3.3
3 -5 -2 60.41 3.33
-3 5 2 63.29 3.56
3 -5 -2 63.55 4.43
3 -5 -2 59.34 3.31
-3 5 2 61.15 3.45
-3 5 2 57.84 4.01
3 -5 -1 39.57 3.39
-3 5 1 40.14 3.33
3 -5 -1 43.25 2.65
3 -5 -1 42.37 2.69
3 -5 -1 42.75 2.66
3 -5 -1 42.82 2.65
3 -5 -1 44.59 3.54
-3 5 1 37.79 2.88
3 -5 -1 41.16 2.65
-3 5 1 40.03 2.67
-3 5 1 39.92 3.31
-3 5 0 2048.26 47.03
3 -5 0 1937.41 46.91
3 -5 0 1919.98 44.69
3 -5 0 1905.51 44.6
3 -5 0 1896.83 44.66
3 -5 0 1913.44 44.72
3 -5 0 2065.93 47.18
-3 5 0 1850.31 45.87
3 -5 0 1923.1 47.77
-3 5 0 1902.43 44.76
3 -5 0 1971.89 47.98
-3 5 -1 491.01 14.77
3 -5 1 470.01 14.63
-3 5 -1 447.21 13.56
3 -5 1 475.63 13.59
3 -5 1 470.54 13.28
3 -5 1 473.9 13.18
3 -5 1 458.43 13.07
3 -5 1 467.41 13.19
3 -5 1 467.67 13.25
-3 5 -1 462.63 14.31
3 -5 1 476.1 15.74
-3 5 -1 434.53 13.22
3 -5 1 464.31 15.41
-3 5 -1 452.13 13.07
3 -5 1 462.32 15.47
-3 5 -1 529.38 14.39
3 -5 2 170.07 7.43
-3 5 -2 177.23 7.54
-3 5 -2 162.03 6.8
3 -5 2 172.25 6.79
3 -5 2 173.37 6.6
3 -5 2 177.71 6.67
3 -5 2 172.28 6.59
3 -5 2 169.12 6.6
3 -5 2 174 6.7
3 -5 2 165.54 8.15
-3 5 -2 173.46 7.51
-3 5 -2 162.32 6.56
3 -5 2 169.82 8.1
-3 5 -2 158.79 6.41
3 -5 2 166.34 8.05
-3 5 -2 161.82 6.77
-3 5 -3 2.97 0.98
3 -5 3 2.16 0.61
3 -5 3 2.13 0.92
-3 5 -3 1.79 0.92
3 -5 3 2.44 0.89
3 -5 3 2.55 0.92
3 -5 3 1.68 0.58
3 -5 3 1.86 0.75
3 -5 3 2.38 0.75
-3 5 -3 2.67 1.13
3 -5 3 0.78 0.72
-3 5 -3 1.14 0.83
-3 5 -3 1.63 0.84
3 -5 3 1.71 1.12
-3 5 -3 2.01 0.76
3 -5 4 58.09 4.67
3 -5 4 64.26 4.4
-3 5 -4 62.15 4.25
-3 5 -4 62.28 4.33
3 -5 4 66.27 4.35
3 -5 4 56.89 3.99
3 -5 4 59.56 3.94
3 -5 4 59.88 3.98
3 -5 4 62.08 4.13
-3 5 -4 77.45 5.02
3 -5 4 65 5.09
-3 5 -4 56.79 4.01
3 -5 4 61.5 4.86
-3 5 -4 52.74 3.78
-3 5 -4 62.87 3.6
3 -5 5 1.86 0.97
-3 5 -5 0.57 0.77
3 -5 5 2.06 1.12
3 -5 5 0.32 0.77
3 -5 5 1.87 0.89
3 -5 5 1.69 0.98
3 -5 5 0.59 0.8
-3 5 -5 1.57 0.86
-3 5 -5 0.63 0.67
-3 5 -5 0.54 0.66
-3 5 -5 1.26 0.76
3 -5 5 5.26 1.57
3 -5 5 1.57 0.9
3 -5 5 1.36 1.07
-3 5 -5 1.93 0.92
3 -5 6 0.23 0.65
3 -5 6 -0.8 0.58
3 -5 6 -0.46 0.73
3 -5 6 0.84 0.82
3 -5 6 -0.16 0.71
-3 5 -6 0.17 0.88
-3 5 -6 1.39 0.96
-3 5 -6 0.06 0.73
-3 5 -6 0.68 0.93
3 -5 6 -1.31 1.08
-3 5 -6 0.19 0.67
3 -5 6 0.86 0.83
-3 5 -7 2.3 1.1
3 -5 7 4.51 1.38
3 -5 7 3.41 1.26
3 -5 7 4.97 1.43
3 -5 7 4.21 1.45
3 -5 7 4.3 1.38
3 -5 7 2.49 1.11
-3 5 -7 3.64 1.32
-3 5 -7 4.17 1.36
-3 5 -7 1.91 1.25
-3 5 -7 1.35 1.19
3 -5 7 5.26 1.6
-3 5 -7 4.31 1.37
3 -5 8 34.99 3.93
-3 5 -8 33.33 4
3 -5 8 34.2 3.82
3 -5 8 29.11 3.54
3 -5 8 39.26 4.05
3 -5 8 36.09 4
-3 5 -8 35.03 3.92
-3 5 -8 29.73 3.78
-3 5 -8 30.37 3.6
-3 5 -8 28.03 3.48
3 -5 8 33.55 4.23
3 -5 8 32.48 4.32
3 -5 9 -0.97 1.15
3 -5 9 0.04 0.82
3 -5 9 0.31 1
3 -5 9 -0.61 0.93
-3 5 -9 -0.59 0.97
3 -5 9 0.37 0.9
-3 5 -9 -0.02 0.85
-3 5 -9 2.58 1.45
-3 5 -9 0.05 0.85
3 -5 9 -0.16 1.14
3 -5 9 -0.57 0.96
-3 5 -9 -0.03 1.08
3 -5 10 24.57 3.61
3 -5 10 15.87 2.91
3 -5 10 20.85 3.28
-3 5 -10 21.94 3.45
3 -5 10 23.69 4.09
-3 5 -10 16.21 2.99
-3 5 -10 12.96 2.71
-3 5 -10 21.03 3.39
3 -5 10 23.43 3.94
3 -5 10 16.88 3.29
-3 5 -10 18.42 3.37
3 -5 11 7.3 2.21
3 -5 11 4.97 1.79
3 -5 11 7.78 2.3
-3 5 -11 6.41 2.04
-3 5 -11 5.88 2.12
-3 5 -11 9.58 2.57
3 -5 11 8.59 2.81
-3 5 -11 11.27 2.88
3 -5 11 9.02 2.76
3 -5 11 10.47 2.32
-3 5 -11 6.91 1.87
-3 5 -12 37.74 5.02
-3 5 -12 45.32 5.47
-3 5 -12 35.77 5.26
-3 5 -12 49.34 5.32
-3 4 13 27.24 4.09
3 -4 -13 22.72 3.96
-3 4 12 139.5 9.3
3 -4 -12 138.24 9.02
3 -4 -12 133.7 8.87
-3 4 11 55.42 5.47
3 -4 -11 53.24 5.27
3 -4 -11 56.26 5.34
-3 4 10 11.73 2.45
3 -4 -10 13.5 2.64
3 -4 -10 9.89 2.16
-3 4 10 10.11 1.94
3 -4 -9 157.65 8.68
-3 4 9 169.31 8.42
3 -4 -9 158.36 8.27
3 -4 -9 164.2 8.57
-3 4 9 166.33 9.11
3 -4 -9 154.75 8.88
3 -4 -9 156.25 8.29
3 -4 -9 159.46 8.49
3 -4 -9 168.34 8.58
3 -4 -9 152.84 8.1
-3 4 9 161.66 8.2
-3 4 8 170.6 8.28
-3 4 8 176.63 8.62
3 -4 -8 174.27 8.77
-3 4 8 175.07 8.41
-3 4 8 183.69 8.69
3 -4 -8 182.8 8.44
3 -4 -8 176.51 8.46
-3 4 8 178.6 9.19
3 -4 -8 184.39 9.33
3 -4 -8 186.68 8.48
3 -4 -8 183.66 8.65
3 -4 -8 178.29 8.46
3 -4 -8 164.4 8.02
-3 4 8 172.12 8.46
-3 4 7 64.47 4.65
-3 4 7 70.44 4.72
3 -4 -7 67.13 4.79
-3 4 7 73.88 4.73
-3 4 7 69.48 4.68
3 -4 -7 68.35 4.51
3 -4 -7 75.68 4.84
3 -4 -7 65.25 4.92
-3 4 7 66.34 5.13
3 -4 -7 60.76 4.93
3 -4 -7 69.29 4.56
3 -4 -7 63.25 4.41
3 -4 -7 71.78 4.75
3 -4 -7 60.75 4.18
-3 4 7 69.02 4.75
-3 4 6 144.63 7.06
-3 4 6 136.41 6.53
3 -4 -6 147.15 6.93
-3 4 6 147.7 6.66
-3 4 6 143.04 6.71
3 -4 -6 137.22 6.47
3 -4 -6 134.86 6.51
3 -4 -6 142.59 7.25
-3 4 6 142.67 7.5
3 -4 -6 144.95 7.54
3 -4 -6 143.81 6.67
3 -4 -6 139.59 6.6
3 -4 -6 137.81 6.53
3 -4 -6 133.23 6.07
-3 4 6 135.25 6.85
-3 4 5 689.34 20.09
-3 4 5 730.97 19.26
3 -4 -5 706.05 19.43
-3 4 5 692.19 19.19
3 -4 -5 699.81 18.95
3 -4 -5 707.91 19.08
-3 4 5 707.8 20.88
3 -4 -5 703.84 20.41
3 -4 -5 699.45 20.89
3 -4 -5 720.58 19.1
3 -4 -5 693.07 18.93
3 -4 -5 676.35 18.3
-3 4 5 687.03 19.97
3 -4 -4 1880.45 47.86
-3 4 4 1981.35 46.98
-3 4 4 2011.91 45.57
3 -4 -4 1995.35 45.72
3 -4 -4 1961.3 45.4
3 -4 -4 1975.99 45.2
3 -4 -4 1971.3 45.32
-3 4 4 1877.08 47.62
3 -4 -4 1981.69 47.01
3 -4 -4 2027.79 47.8
3 -4 -4 1948.87 45.25
3 -4 -4 1951.4 45.16
3 -4 -4 1814.9 44.12
-3 4 4 2001.65 46.87
3 -4 -3 22.69 1.78
-3 4 3 22.29 2.47
3 -4 -3 22.43 2.65
-3 4 3 22.65 1.99
3 -4 -3 21.35 1.94
3 -4 -3 23.78 1.94
3 -4 -3 23.54 1.93
3 -4 -3 25.75 2.02
3 -4 -3 23.28 2.04
-3 4 3 23.49 2.72
3 -4 -3 23.03 2.46
3 -4 -3 24.5 2.64
-3 4 3 20.72 1.77
3 -4 -3 22.34 1.91
3 -4 -3 24.45 1.95
3 -4 -3 20.89 1.49
-3 4 3 22.87 2.44
3 -4 -2 935.62 22.46
3 -4 -2 928.88 22.44
3 -4 -2 928.83 22.44
3 -4 -2 851.99 22.53
3 -4 -2 983.99 24.23
3 -4 -2 1018.78 25.27
-3 4 2 921.99 23.03
3 -4 -2 940.03 22.45
-3 4 2 994.56 24.63
3 -4 -2 896.48 22.27
-3 4 2 946.89 24.73
3 -4 -2 1001.38 25.19
-3 4 1 454.32 13.49
3 -4 -1 462.51 13.57
3 -4 -1 430.53 11.31
3 -4 -1 414.73 11.37
3 -4 -1 366.47 11.08
3 -4 -1 422.46 11.3
3 -4 -1 433.62 11.35
-3 4 1 455.64 12.57
3 -4 -1 404.13 12.37
3 -4 -1 471.59 13.67
3 -4 -1 431.73 11.3
-3 4 1 410.22 11.54
-3 4 1 463.92 13.27
3 -4 0 288.81 9.64
-3 4 0 284.96 9.75
3 -4 0 260.97 7.96
3 -4 0 270.77 7.91
3 -4 0 240.04 7.45
3 -4 0 275.76 7.98
3 -4 0 268.15 7.96
-3 4 0 274.63 9.15
3 -4 0 280.59 8.7
3 -4 0 307.92 9.87
-3 4 0 255.53 7.98
-3 4 0 310.01 9.65
3 -4 1 301.27 9.98
-3 4 -1 318.44 10.42
-3 4 -1 269.69 8.93
3 -4 1 280.87 8.97
3 -4 1 290.52 8.8
3 -4 1 302.37 8.73
3 -4 1 290.14 8.65
3 -4 1 293.87 8.72
3 -4 1 303.07 8.82
3 -4 1 318.86 10.07
-3 4 -1 341.8 10.45
3 -4 1 304.95 11.02
-3 4 -1 271.52 8.77
3 -4 1 309.66 10.87
-3 4 -1 292.91 8.7
-3 4 -1 338.13 10.1
3 -4 1 302.03 10.87
-3 4 -2 0.37 0.56
3 -4 2 0.34 0.43
-3 4 -2 0.69 0.49
3 -4 2 1.52 0.52
3 -4 2 0.93 0.37
3 -4 2 0.49 0.36
3 -4 2 0.94 0.51
3 -4 2 0.56 0.43
3 -4 2 1.83 0.65
-3 4 -2 0.37 0.6
3 -4 2 0.45 0.52
-3 4 -2 0.03 0.4
-3 4 -2 0.4 0.37
3 -4 2 0.65 0.77
-3 4 -2 -0.18 0.47
3 -4 2 1.93 0.92
3 -4 3 101.49 5.76
3 -4 3 101.67 5.06
-3 4 -3 105.25 5.31
-3 4 -3 97.17 4.91
3 -4 3 98.53 4.83
3 -4 3 94.97 4.65
3 -4 3 103.05 4.62
3 -4 3 101.3 4.64
3 -4 3 97.57 4.55
-3 4 -3 112.76 5.61
3 -4 3 100.63 5.83
-3 4 -3 92.85 4.67
3 -4 3 92.7 5.47
-3 4 -3 94.33 4.54
-3 4 -3 89.73 3.79
3 -4 3 104.07 5.78
-3 4 -3 97.6 4.58
3 -4 4 704.92 20.82
3 -4 4 686.66 19.41
-3 4 -4 679.21 19.37
3 -4 4 718.19 19.37
3 -4 4 694.42 19.01
3 -4 4 688.02 19.03
3 -4 4 707.5 19.05
3 -4 4 688 19.11
3 -4 4 728.73 21.29
-3 4 -4 698.43 19.81
-3 4 -4 688.26 19.09
3 -4 4 706.59 20.76
-3 4 -4 689.94 18.96
-3 4 -4 651.46 17.82
-3 4 -4 763.44 18.47
3 -4 5 0.03 0.91
3 -4 5 0.15 0.54
-3 4 -5 -0.42 0.78
-3 4 -5 -0.27 0.78
3 -4 5 1.15 0.9
3 -4 5 0.7 0.65
3 -4 5 1.49 0.86
3 -4 5 0.54 0.68
3 -4 5 0.37 0.58
-3 4 -5 0.16 0.76
3 -4 5 -0.24 0.85
-3 4 -5 1.44 0.87
-3 4 -5 1.17 0.8
-3 4 -5 1.68 0.86
3 -4 5 3.23 1.22
-3 4 -5 -0.17 0.6
-3 4 -6 0.77 0.95
3 -4 6 0.42 0.59
3 -4 6 1.03 0.61
3 -4 6 0.5 0.51
3 -4 6 -0.16 0.56
3 -4 6 0.59 0.67
-3 4 -6 -0.2 0.88
3 -4 6 0.25 0.86
-3 4 -6 0.43 0.64
-3 4 -6 0.13 0.77
-3 4 -6 0.08 0.6
3 -4 6 0.71 0.8
-3 4 -6 -0.34 0.65
-3 4 -7 6.34 1.53
3 -4 7 5.29 1.43
3 -4 7 7.35 1.66
3 -4 7 6.8 1.47
3 -4 7 7.12 1.63
3 -4 7 7.77 1.69
-3 4 -7 7.57 1.74
3 -4 7 6.99 1.98
-3 4 -7 4.82 1.38
-3 4 -7 8.3 1.75
-3 4 -7 8.81 1.79
3 -4 7 6.01 1.86
-3 4 -7 3.77 1.14
-3 4 -8 11.92 2.3
3 -4 8 14.78 2.55
3 -4 8 12.91 2.33
3 -4 8 8.24 1.78
3 -4 8 9.88 2.07
3 -4 8 11.78 2.12
-3 4 -8 14.33 2.41
3 -4 8 14.3 2.83
-3 4 -8 10.37 2.01
-3 4 -8 13.98 2.59
-3 4 -8 6.7 1.77
3 -4 8 11.75 2.41
-3 4 -8 10.13 1.95
3 -4 9 46.38 4.63
-3 4 -9 42.06 4.49
3 -4 9 39.42 4.14
3 -4 9 42.08 4.27
3 -4 9 39.26 4.11
3 -4 9 38.62 4.17
-3 4 -9 51.41 4.77
-3 4 -9 38.66 4.24
-3 4 -9 39.79 4.09
-3 4 -9 42.39 4.23
3 -4 9 41.18 4.66
-3 4 -9 40.83 4.04
3 -4 9 44.59 5.12
-3 4 -10 2.85 1.54
3 -4 10 -0.42 0.86
3 -4 10 0.57 1.13
3 -4 10 0.51 1
3 -4 10 -0.31 0.91
-3 4 -10 -0.26 0.85
-3 4 -10 0.87 1.35
-3 4 -10 1.27 1.18
-3 4 -10 1.83 1.21
3 -4 10 -0.13 1.03
-3 4 -10 0.48 0.93
3 -4 10 1.84 1.18
3 -4 11 55.38 5.76
-3 4 -11 57.47 5.96
-3 4 -11 58.02 5.42
3 -4 11 53.97 5.49
3 -4 11 53.13 5.52
3 -4 11 56.39 5.65
-3 4 -11 54.83 5.49
-3 4 -11 46.63 5.38
-3 4 -11 54.05 5.48
3 -4 11 65.65 6.68
-3 4 -11 55.73 5.37
3 -4 11 53.12 6.19
3 -4 12 86.64 7.66
-3 4 -12 84.82 7.71
3 -4 12 97.45 7.96
3 -4 12 98.23 8.04
3 -4 12 104.18 8.16
-3 4 -12 119.31 8.03
3 -4 12 94.37 7.9
3 -4 12 87.84 8.24
-3 4 -12 103.56 8.04
3 -4 12 101.14 9.01
-3 4 -12 108.05 8.15
-3 4 -12 99.63 7.89
-3 4 -12 97.96 7.94
-3 3 13 2.05 1.34
3 -3 -13 1.87 1.3
-3 3 12 17.86 3.34
3 -3 -12 16.04 3.13
3 -3 -12 16.83 3.17
-3 3 11 7.77 2.28
3 -3 -11 4.06 1.78
3 -3 -11 2.75 1.56
3 -3 -11 2.81 1.41
3 -3 -10 527.54 18.28
3 -3 -10 509.58 18.01
3 -3 -10 499.63 18.07
-3 3 10 511.68 18.76
3 -3 -10 475.32 18.21
3 -3 -10 515.64 17.99
3 -3 -10 519.76 18.3
3 -3 -10 536.62 18.33
3 -3 -10 491.03 17.84
3 -3 -10 511.67 18.71
-3 3 9 27.55 2.98
-3 3 9 25.54 3.22
3 -3 -9 27.31 3.47
-3 3 9 27.97 3.32
-3 3 9 25.89 3.24
3 -3 -9 28.69 3.25
3 -3 -9 29.67 3.36
-3 3 9 26.65 3.51
3 -3 -9 25.44 3.39
3 -3 -9 28.14 3.22
3 -3 -9 24.7 3.24
3 -3 -9 30.72 3.34
3 -3 -9 26.77 3.24
3 -3 -9 26.45 3.27
-3 3 9 26.56 3.12
-3 3 8 1.17 0.85
3 -3 -8 1.76 0.83
-3 3 8 1.81 1.04
-3 3 8 0.57 0.8
3 -3 -8 2 1.03
-3 3 8 2.17 0.8
3 -3 -8 0.54 0.85
3 -3 -8 2.73 1.52
-3 3 8 1.46 1.07
3 -3 -8 0.52 0.55
3 -3 -8 2.1 1.03
3 -3 -8 1.12 0.73
3 -3 -8 1.76 1.11
3 -3 -8 1.18 0.88
-3 3 8 0.55 0.91
3 -3 -8 0.91 0.9
-3 3 7 0.74 0.84
3 -3 -7 -0.44 0.76
-3 3 7 1.61 1.1
-3 3 7 -0.21 0.66
3 -3 -7 0.74 0.5
-3 3 7 0.04 0.59
3 -3 -7 0.93 1
-3 3 7 -1.28 0.96
3 -3 -7 -0.42 0.81
3 -3 -7 0.53 0.59
3 -3 -7 0.51 0.51
3 -3 -7 0.97 0.8
3 -3 -7 0.11 0.62
3 -3 -7 -0.25 0.54
-3 3 7 -0.01 0.61
3 -3 -7 0.59 0.84
-3 3 6 8.92 1.6
3 -3 -6 9.61 1.63
-3 3 6 9.77 1.63
-3 3 6 10.42 1.64
3 -3 -6 11.26 1.69
-3 3 6 10.89 1.7
3 -3 -6 10.86 2
3 -3 -6 9.05 1.69
-3 3 6 10.94 1.95
3 -3 -6 11.24 1.66
3 -3 -6 10.48 1.61
3 -3 -6 11.12 1.66
3 -3 -6 9.2 1.61
3 -3 -6 10.29 1.65
-3 3 6 10.53 1.8
3 -3 -6 11.05 1.63
-3 3 5 505.13 15.73
-3 3 5 527.87 15.05
3 -3 -5 547.85 15.48
-3 3 5 536.67 15.02
-3 3 5 548.32 15.21
3 -3 -5 527.43 14.96
3 -3 -5 535.43 15.19
-3 3 5 528.08 16.63
3 -3 -5 526.1 16.18
3 -3 -5 535.62 16.66
3 -3 -5 529.11 14.97
3 -3 -5 543.85 15.05
3 -3 -5 543.24 15.16
3 -3 -5 520.61 14.81
-3 3 5 512.1 15.9
3 -3 -5 523.2 14.69
-3 3 4 25.05 2.45
-3 3 4 19.51 1.79
3 -3 -4 18.1 1.84
-3 3 4 17.46 1.78
3 -3 -4 19.38 1.79
3 -3 -4 20.12 1.85
3 -3 -4 18.84 2.02
3 -3 -4 20.18 2.33
-3 3 4 18.44 2.35
3 -3 -4 20.12 2.44
3 -3 -4 19.83 1.83
3 -3 -4 20.14 1.82
3 -3 -4 20.81 1.84
-3 3 4 20.85 2.31
3 -3 -3 3391.72 75.64
-3 3 3 3482.3 77.23
-3 3 3 3388.93 75.38
3 -3 -3 3473.21 75.5
3 -3 -3 3509.96 75.3
3 -3 -3 3476.98 75.16
3 -3 -3 3579.51 75.28
3 -3 -3 3494.81 76.26
3 -3 -3 3597.35 77.21
-3 3 3 3559.05 77.96
-3 3 3 3278.55 74.88
3 -3 -3 3617.13 77.96
3 -3 -3 3464.77 75.22
3 -3 -3 3468.65 75.15
3 -3 -3 3213.57 74.77
-3 3 3 3569.76 77.36
3 -3 -3 3173.16 74.05
3 -3 -2 2374.4 53.79
3 -3 -2 2287.03 51.99
-3 3 2 2363.72 53.59
3 -3 -2 2320.17 51.13
3 -3 -2 2322.92 52.31
3 -3 -2 2337.43 51.13
3 -3 -2 2319.64 51.1
-3 3 2 2337.22 54.13
3 -3 -2 2337.34 53.16
3 -3 -2 2410.76 53.88
-3 3 2 2125.72 51.76
3 -3 -2 2310.87 51.06
-3 3 2 2318.63 53.55
-3 3 1 3.21 0.95
3 -3 -1 3.74 0.87
3 -3 -1 3.45 0.51
3 -3 -1 4.63 0.86
3 -3 -1 3.6 0.54
3 -3 -1 3.02 0.53
3 -3 -1 3.26 0.52
-3 3 1 1.8 0.54
3 -3 -1 3.23 0.88
3 -3 -1 3.91 0.55
-3 3 1 3.09 0.57
3 -3 -1 3.2 0.45
-3 3 1 3.5 0.94
-3 3 0 15.92 1.77
-3 3 0 23.25 2.34
3 -3 0 27.5 2.3
3 -3 0 11.69 1.06
3 -3 0 12.55 1.03
3 -3 0 12.66 1.05
3 -3 0 14.69 1.11
-3 3 0 23.75 2.13
3 -3 0 25.66 2.26
3 -3 0 15.81 1.6
-3 3 0 19.21 1.29
-3 3 0 21.21 2.16
-3 3 -1 482.1 14.18
3 -3 1 549.34 14.61
-3 3 -1 563.95 15.42
-3 3 -1 497.99 13.4
3 -3 1 536.78 13.47
3 -3 1 538.39 13.23
3 -3 1 524.55 13.25
3 -3 1 530.19 13.18
3 -3 1 529.38 13.22
3 -3 1 533.34 13.3
-3 3 -1 564.67 15.13
3 -3 1 599.32 14.99
3 -3 1 550.34 13.82
-3 3 -1 500.94 13.27
3 -3 1 542.93 15.57
-3 3 -1 516.47 13.16
3 -3 1 569.72 15.9
-3 3 -1 607.22 15.12
3 -3 2 97.33 4.37
-3 3 -2 103.3 5.01
-3 3 -2 90.43 4.04
-3 3 -2 92.08 4.05
3 -3 2 100.96 4.07
3 -3 2 97.2 3.89
3 -3 2 96 3.82
3 -3 2 95.08 3.82
3 -3 2 98.61 3.89
-3 3 -2 109.27 5.11
3 -3 2 101.52 5.27
3 -3 2 104.52 4.39
3 -3 2 89.4 3.52
-3 3 -2 93.04 3.86
3 -3 2 106.01 5.17
-3 3 -2 96.49 3.82
-3 3 -2 81.46 2.97
3 -3 2 112.19 5.4
-3 3 -2 109.76 4.61
3 -3 3 143.77 6.63
3 -3 3 120.63 5.05
-3 3 -3 136.37 5.96
-3 3 -3 106.09 4.25
3 -3 3 106.46 4.82
-3 3 -3 110.25 4.97
3 -3 3 112.88 4.62
3 -3 3 106.63 4.52
3 -3 3 103.73 4.55
3 -3 3 111.54 4.62
-3 3 -3 129.87 5.87
3 -3 3 140.78 6.41
-3 3 -3 109.44 4.72
3 -3 3 129.08 5.98
-3 3 -3 104.39 4.54
3 -3 3 143.14 6.34
-3 3 -3 98.28 3.94
-3 3 -3 128.43 5.05
3 -3 4 117.99 6.14
3 -3 4 118.38 5.14
-3 3 -4 100.62 3.9
3 -3 4 106.42 5.06
-3 3 -4 109.72 5.28
3 -3 4 107.7 4.86
3 -3 4 111.84 4.95
3 -3 4 110.17 4.99
3 -3 4 109.42 4.96
-3 3 -4 129.03 6.08
3 -3 4 113.11 6.04
-3 3 -4 105.85 5.44
-3 3 -4 108.48 5.06
-3 3 -4 107.46 4.96
3 -3 4 111.28 5.8
-3 3 -4 104.97 4.8
-3 3 -4 109.26 4.44
-3 3 -4 112.2 4.55
3 -3 5 0.53 0.6
-3 3 -5 0.58 0.57
-3 3 -5 0.61 0.71
3 -3 5 0.95 0.65
3 -3 5 -0.23 0.54
3 -3 5 -0.44 0.49
3 -3 5 0.22 0.52
3 -3 5 0.35 0.53
-3 3 -5 0.77 0.65
3 -3 5 -0.53 0.83
-3 3 -5 0.11 0.51
-3 3 -5 -0.37 0.56
-3 3 -5 0.53 0.56
3 -3 5 1.3 0.87
-3 3 -5 0.84 0.67
-3 3 -5 -0.1 0.36
3 -3 6 907.41 23.89
-3 3 -6 862.74 23.81
3 -3 6 835.18 23.26
3 -3 6 890.51 23.45
3 -3 6 889.29 23.44
3 -3 6 831.47 23.36
-3 3 -6 927.99 24.6
-3 3 -6 892.05 23.73
-3 3 -6 879.34 23.42
3 -3 6 858.19 24.67
-3 3 -6 854.53 23.28
-3 3 -6 811.99 22.62
3 -3 6 874.07 25.19
3 -3 7 72.71 4.97
-3 3 -7 67.45 4.9
3 -3 7 73.57 4.78
3 -3 7 69.54 4.63
3 -3 7 68.27 4.59
3 -3 7 69.95 4.71
-3 3 -7 76.29 5.1
-3 3 -7 64.17 4.58
-3 3 -7 70.62 4.66
-3 3 -7 65.52 4.83
-3 3 -7 71.69 4.67
3 -3 7 72.17 5.33
-3 3 -7 63.69 4.39
3 -3 7 72.3 5.47
3 -3 8 -0.27 0.81
-3 3 -8 1.1 0.78
3 -3 8 2.23 0.98
3 -3 8 -0.21 0.77
3 -3 8 -0.1 0.79
3 -3 8 -0.31 0.73
-3 3 -8 -0.04 0.69
3 -3 8 0.19 0.99
-3 3 -8 -0.81 0.81
-3 3 -8 0.08 0.64
-3 3 -8 1.65 1.2
3 -3 8 0.16 0.75
-3 3 -8 -0.79 1.05
-3 3 -8 0.7 0.9
3 -3 9 0.6 0.86
-3 3 -9 0.42 0.71
3 -3 9 -0.61 1
3 -3 9 0.66 0.69
3 -3 9 0.07 0.74
-3 3 -9 0.49 0.78
-3 3 -9 0.25 0.77
-3 3 -9 -0.67 1.06
3 -3 9 0.18 0.7
3 -3 9 2.04 1.19
-3 3 -9 0.31 1.07
-3 3 -9 -1.27 0.99
-3 3 -9 1.8 1.07
3 -3 9 1.5 1.19
-3 3 -10 149.61 9.03
3 -3 10 151.46 8.99
-3 3 -10 159.81 8.59
3 -3 10 155.7 8.88
3 -3 10 147.16 8.57
3 -3 10 153.18 8.68
-3 3 -10 148.21 8.49
-3 3 -10 152.81 8.71
-3 3 -10 152.23 8.64
-3 3 -10 161.97 9.08
3 -3 10 163.78 9.96
-3 3 -10 157.86 8.8
3 -3 10 162.55 10.01
3 -3 11 90.38 7.2
-3 3 -11 90.55 7.32
3 -3 11 96.03 7.16
3 -3 11 94.36 7.19
3 -3 11 94.15 7.08
-3 3 -11 99.68 7
-3 3 -11 95.75 7.05
-3 3 -11 95.04 7.18
-3 3 -11 96.06 7.13
-3 3 -11 101.3 7.5
3 -3 11 95.42 7.83
-3 3 -11 95.38 7.21
3 -3 11 99.01 8.13
3 -3 12 22.1 3.69
-3 3 -12 20.18 3.65
3 -3 12 24.03 3.78
3 -3 12 23.89 3.73
3 -3 12 20.25 3.63
-3 3 -12 26.82 3.74
3 -3 12 25.2 4.31
-3 3 -12 29.88 4.1
-3 3 -12 19.13 3.39
-3 3 -12 15.56 3.38
-3 3 -12 24.44 3.84
3 -3 12 18.96 3.77
3 -3 12 22.5 3.72
-3 3 -12 22.65 3.73
3 -3 13 154.27 10.55
-3 3 -13 149.45 10.53
3 -3 13 135.07 9.86
3 -3 13 148.49 10.19
3 -3 13 154.16 10.28
-3 3 -13 129.89 9.86
3 -3 13 145.01 10.91
-3 3 -13 156.4 10.43
3 -3 13 147.85 11.16
-3 3 -13 160.24 10.29
-3 3 -13 141.64 9.81
-3 3 -13 149.07 10.01
-3 2 13 3.7 1.64
3 -2 -13 -0.55 1.48
3 -2 -13 -0.5 1.22
3 -2 -12 4.52 1.64
-3 2 12 5.71 2.17
3 -2 -12 4.33 1.92
3 -2 -12 4.74 1.87
3 -2 -11 54.61 5.25
3 -2 -11 50.49 5.07
-3 2 11 55.59 5.41
3 -2 -11 48.38 5.03
3 -2 -11 54.02 5.18
3 -2 -11 56.38 5.45
3 -2 -11 51.83 5.08
3 -2 -11 56.03 5.41
3 -2 -11 56.84 5.65
3 -2 -10 2.78 1.57
-3 2 10 1.62 1.22
-3 2 10 -0.04 1.05
-3 2 10 0.25 0.8
3 -2 -10 1 0.91
-3 2 10 1.33 1.2
3 -2 -10 -0.67 0.94
3 -2 -10 0.01 0.95
3 -2 -10 1.67 0.98
3 -2 -10 -0.36 0.95
3 -2 -10 -1.79 1.41
3 -2 -10 0.8 0.88
3 -2 -9 14.75 2.51
-3 2 9 17.4 2.68
-3 2 9 16.93 2.54
-3 2 9 13.75 2.44
3 -2 -9 20.5 2.82
3 -2 -9 15.95 2.63
3 -2 -9 15.01 2.48
-3 2 9 23.37 3.16
3 -2 -9 18.23 2.65
3 -2 -9 16.71 2.59
3 -2 -9 17.8 2.71
3 -2 -9 15.45 2.51
3 -2 -9 17.19 2.62
-3 2 8 103.65 5.56
-3 2 8 97.37 5.95
3 -2 -8 90.8 5.97
-3 2 8 91.82 5.81
-3 2 8 89.44 5.62
3 -2 -8 96.61 5.82
-3 2 8 100.71 6.49
3 -2 -8 105.66 6.33
3 -2 -8 101.58 5.92
3 -2 -8 92.22 5.83
3 -2 -8 95.97 5.89
3 -2 -8 96.23 5.83
3 -2 -8 102.82 6.02
-3 2 8 87.05 5.54
-3 2 7 518.86 15.45
-3 2 7 516.76 16.04
3 -2 -7 510.08 16.31
-3 2 7 509.36 15.8
-3 2 7 506.68 15.68
3 -2 -7 520.16 15.8
-3 2 7 512.45 16.96
3 -2 -7 504.92 16.31
3 -2 -7 525.93 15.82
3 -2 -7 524.16 16
3 -2 -7 505.96 15.73
3 -2 -7 488.96 15.88
3 -2 -7 494.82 15.62
-3 2 7 491.01 15.87
-3 2 6 1283.95 31.57
-3 2 6 1262.2 31.56
3 -2 -6 1271.51 31.98
-3 2 6 1262.7 31.53
-3 2 6 1295.88 31.47
3 -2 -6 1268.83 31.46
-3 2 6 1263.94 33.13
3 -2 -6 1271.47 32.49
3 -2 -6 1267.63 31.35
3 -2 -6 1266.67 31.52
3 -2 -6 1279.05 31.45
3 -2 -6 1241.48 31.55
3 -2 -6 1171.2 31.28
-3 2 6 1231.27 32.01
-3 2 5 391.35 12.45
-3 2 5 398.59 12.02
3 -2 -5 399.87 12.27
-3 2 5 413.65 12.06
-3 2 5 395.51 11.85
3 -2 -5 416.34 12.04
3 -2 -5 389.8 12.71
-3 2 5 414.12 13.58
3 -2 -5 392.79 12.91
3 -2 -5 408.45 11.94
3 -2 -5 418.42 12.11
3 -2 -5 414.91 12.04
3 -2 -5 396.14 12.18
3 -2 -5 375.64 11.86
-3 2 5 385.48 12.75
3 -2 -4 1817.08 42.35
-3 2 4 1856.94 42.85
-3 2 4 1709.85 41.75
3 -2 -4 1814.63 41.95
-3 2 4 1863.36 41.61
-3 2 4 1861.3 41.71
3 -2 -4 1764.17 41.62
3 -2 -4 1683.37 41.56
3 -2 -4 1875.59 42.93
-3 2 4 1899.98 44.03
3 -2 -4 1812.94 40.53
3 -2 -4 1861.48 43.37
3 -2 -4 1823.61 41.59
3 -2 -4 1839.12 41.72
3 -2 -4 1824.96 41.61
3 -2 -4 1882.65 42.07
3 -2 -4 1756.25 41.29
-3 2 4 1757.44 43.15
3 -2 -3 980.26 24.15
-3 2 3 978.23 24.71
-3 2 3 994.64 23.15
3 -2 -3 987.53 23.34
-3 2 3 1001.12 23.15
-3 2 3 989.69 23.18
3 -2 -3 1018.74 24.53
3 -2 -3 977.85 23.07
3 -2 -3 961.97 23.11
-3 2 3 992.12 25.46
-3 2 3 948.21 23.03
3 -2 -3 978.79 24.91
3 -2 -3 986.77 23.08
3 -2 -3 1005.63 23.19
3 -2 -3 999.38 23.1
3 -2 -3 1025.83 23.63
3 -2 -3 902.14 22.73
3 -2 -3 923.52 22.84
-3 2 3 953.22 25
3 -2 -2 729.68 18.09
-3 2 2 739.38 19.21
-3 2 2 693.33 18.51
-3 2 2 732.38 16.58
3 -2 -2 709.08 16.62
3 -2 -2 654.9 16.43
3 -2 -2 709.69 16.46
3 -2 -2 736.51 18.18
3 -2 -2 692.06 16.47
-3 2 2 717.49 19.03
-3 2 2 647.76 17.33
3 -2 -2 734.22 18.57
3 -2 -2 674.03 16.47
3 -2 -2 701.16 16.45
3 -2 -2 733.5 17.17
3 -2 -2 676.78 17.14
-3 2 2 714.29 18.78
-3 2 1 885.33 22.63
3 -2 -1 864.25 22.27
-3 2 1 878.61 22.74
3 -2 -1 894.85 19.84
3 -2 -1 886.43 19.84
3 -2 -1 899.01 19.86
3 -2 -1 840.49 19.88
3 -2 -1 953.92 22.43
-3 2 1 915.4 23
-3 2 1 904.22 21.89
3 -2 -1 910.38 19.85
3 -2 -1 927.33 20.82
-3 2 1 910.69 19.95
-3 2 1 881.06 22.62
3 -2 0 2.28 0.59
-3 2 0 4.29 0.91
-3 2 0 2.05 0.33
-3 2 0 3.82 0.89
3 -2 0 2.18 0.31
3 -2 0 2.39 0.31
3 -2 0 1.96 0.28
3 -2 0 2.44 0.3
3 -2 0 1.97 0.28
3 -2 0 2.42 0.3
-3 2 0 2.53 0.77
-3 2 0 3.28 0.79
-3 2 0 1.97 0.33
-3 2 0 1.97 0.28
-3 2 0 2.48 0.75
-3 2 -1 53.41 2.95
3 -2 1 43.4 2.36
-3 2 -1 42 2.83
-3 2 -1 33.2 1.64
3 -2 1 37.77 1.69
3 -2 1 38.03 1.62
3 -2 1 37.92 1.63
3 -2 1 39.48 1.66
3 -2 1 38.12 1.65
3 -2 1 39.87 2.49
-3 2 -1 45.37 2.85
-3 2 -1 34.43 1.62
-3 2 -1 34.84 1.58
-3 2 -1 37.67 2.54
-3 2 -2 464.03 12.73
3 -2 2 496.41 12.29
-3 2 -2 493.67 13.66
3 -2 2 471.79 11.8
-3 2 -2 445.22 11.81
3 -2 2 483 11.63
3 -2 2 458.63 11.6
3 -2 2 460.74 11.61
3 -2 2 461.84 11.65
-3 2 -2 519.06 13.74
3 -2 2 491.41 12.48
3 -2 2 504.63 13.96
-3 2 -2 411.75 11.66
-3 2 -2 440.03 11.59
3 -2 2 482.77 13.47
-3 2 -2 444.52 11.55
3 -2 2 505.15 13.84
-3 2 -2 477.88 12.87
-3 2 -3 214.09 7.82
3 -2 3 221.47 8.28
3 -2 3 215.81 6.65
-3 2 -3 203.99 6.78
3 -2 3 210.6 6.73
-3 2 -3 198.52 6.68
3 -2 3 207.96 6.47
3 -2 3 207.66 6.47
3 -2 3 205.53 6.49
3 -2 3 213.41 6.55
-3 2 -3 241.31 8.15
3 -2 3 219.66 6.42
3 -2 3 214.07 7.96
-3 2 -3 195.68 6.63
-3 2 -3 197.42 6.55
3 -2 3 217.23 7.72
-3 2 -3 195.79 6.43
-3 2 -3 186.38 6.02
3 -2 3 217.33 7.87
-3 2 -3 198.29 6.81
3 -2 4 174.84 5.93
3 -2 4 170.03 7.25
-3 2 -4 163.92 5.63
3 -2 4 163.04 6.18
-3 2 -4 157.6 6.24
3 -2 4 153.9 5.85
3 -2 4 169.31 6.01
3 -2 4 159.92 5.95
3 -2 4 161.83 5.95
-3 2 -4 190.05 7.21
3 -2 4 134.98 4.24
-3 2 -4 170.95 6.86
3 -2 4 167.61 7.06
-3 2 -4 148.03 5.96
-3 2 -4 148.06 5.88
3 -2 4 181.38 7.04
-3 2 -4 148.68 5.8
-3 2 -4 161.68 5.6
-3 2 -4 178.2 5.83
3 -2 5 1282.42 32.52
-3 2 -5 1205.26 29.45
3 -2 5 1316.52 31.21
-3 2 -5 1260.99 31.21
3 -2 5 1253.94 30.65
3 -2 5 1223.59 30.65
3 -2 5 1282.68 30.69
3 -2 5 1239.48 30.66
-3 2 -5 1364.82 32.19
-3 2 -5 1231.83 30.87
-3 2 -5 1194.39 30.6
3 -2 5 1310.57 32.02
-3 2 -5 1201.18 30.49
-3 2 -5 1369.95 30.71
3 -2 5 1314.82 32.49
3 -2 6 107.96 5.48
-3 2 -6 110.78 5.63
3 -2 6 106.07 5.26
3 -2 6 99.18 5.08
3 -2 6 104.69 5.22
3 -2 6 95.44 5.09
-3 2 -6 105.9 5.73
-3 2 -6 101.06 5.22
-3 2 -6 96.66 5.07
3 -2 6 99.91 5.71
-3 2 -6 89.59 4.89
3 -2 6 105.02 5.97
-3 2 -6 108.57 5.18
3 -2 7 178.69 8.04
-3 2 -7 168.1 8
3 -2 7 188.94 7.97
3 -2 7 183 7.91
3 -2 7 196.41 8.07
3 -2 7 175.59 7.86
-3 2 -7 192.89 8.12
-3 2 -7 188.5 8
-3 2 -7 193.07 8.05
3 -2 7 183.2 8.8
-3 2 -7 174.02 7.67
-3 2 -7 173.1 8.04
3 -2 7 186.88 8.59
-3 2 -7 196.73 8.52
3 -2 8 111.16 6.44
-3 2 -8 115.47 6.71
-3 2 -8 119.19 6.51
3 -2 8 113.18 6.33
3 -2 8 105.18 6.26
3 -2 8 117.78 6.45
-3 2 -8 101.86 6.11
-3 2 -8 99.76 6.32
-3 2 -8 113.61 6.4
-3 2 -8 124.5 6.82
3 -2 8 112.14 6.89
-3 2 -8 112.17 6.32
3 -2 8 107.51 6.9
3 -2 8 104.98 6.06
-3 2 -9 275.34 11.98
3 -2 9 296.87 12.08
3 -2 9 275.86 11.52
3 -2 9 281.14 11.69
3 -2 9 265.7 11.3
-3 2 -9 309.9 11.84
-3 2 -9 281.17 11.45
-3 2 -9 272.95 11.51
-3 2 -9 271.19 11.37
-3 2 -9 303.75 12.3
3 -2 9 292.47 12.6
-3 2 -9 270.18 11.31
3 -2 9 271.39 10.95
3 -2 9 291.55 12.85
3 -2 10 13.93 2.67
-3 2 -10 17.92 2.9
3 -2 10 17.27 2.75
3 -2 10 19.22 2.87
3 -2 10 17.04 2.64
-3 2 -10 21.94 2.88
3 -2 10 14.68 2.86
-3 2 -10 15.62 2.6
-3 2 -10 15.59 2.66
-3 2 -10 19.17 2.84
3 -2 10 15.98 2.92
-3 2 -10 17.18 3.05
-3 2 -10 15.91 2.94
3 -2 11 184.23 10.19
-3 2 -11 172.13 10.03
3 -2 11 164.28 9.47
3 -2 11 169.76 9.79
3 -2 11 173.53 9.62
-3 2 -11 159.48 9.46
-3 2 -11 199.49 9.86
-3 2 -11 178.82 9.75
-3 2 -11 169.89 9.52
-3 2 -11 175.65 9.62
3 -2 11 167.07 9.84
-3 2 -11 198.34 10.87
3 -2 11 175.5 10.51
-3 2 -11 176.51 10.04
3 -2 11 175.77 10.63
3 -2 12 174.95 10.5
-3 2 -12 186.47 10.99
3 -2 12 160.86 9.97
3 -2 12 170.71 10.5
3 -2 12 175.53 10.23
-3 2 -12 153.88 9.77
-3 2 -12 191.82 9.87
-3 2 -12 174.06 10.11
-3 2 -12 158.62 9.85
-3 2 -12 170.72 10.17
-3 2 -12 207.78 11.55
3 -2 12 171.41 10.25
3 -2 12 173.85 11.02
-3 2 -12 222.07 11.39
3 -2 12 172.24 11.22
-3 2 -13 0.93 1.51
3 -2 13 4.35 2.28
3 -2 13 3.73 1.92
3 -2 13 0.47 1.08
3 -2 13 2.11 1.29
-3 2 -13 -0.39 1.1
-3 2 -13 -1.07 1.72
-3 2 -13 0.17 1.14
3 -2 13 1.32 1.14
-3 2 -13 0.76 1.17
3 -2 13 4.12 1.98
3 -2 13 0.45 1.28
-3 2 -13 -1.1 1.49
-3 2 -14 0.61 1.58
-3 2 -14 1.36 1.28
-3 2 -14 -1.48 1.65
-3 2 -14 -0.4 1.13
-3 2 -14 3.56 1.69
-3 2 -14 0.18 1.32
-3 1 13 16.03 3.2
3 -1 -13 11.82 3.02
3 -1 -12 101.33 7.76
3 -1 -12 87.55 7.14
-3 1 12 101.76 7.8
3 -1 -12 91.63 7.19
3 -1 -12 96.52 7.39
3 -1 -12 109.85 8.05
3 -1 -12 94.32 7.74
-3 1 11 65.32 5.92
3 -1 -11 62.56 5.98
-3 1 11 60.75 5.8
-3 1 11 62.49 5.73
-3 1 11 58.11 5.83
3 -1 -11 59.38 5.64
-3 1 11 75.4 6.31
3 -1 -11 68.55 5.75
3 -1 -11 61.77 5.59
3 -1 -11 69.19 6.06
3 -1 -11 64.83 5.76
3 -1 -11 72.46 6.21
3 -1 -11 71.38 6.1
-3 1 10 80.2 6.22
3 -1 -10 88.67 6.72
-3 1 10 78.75 6.18
-3 1 10 77.87 6.29
-3 1 10 78.66 6.08
3 -1 -10 82.47 6.23
-3 1 10 83.78 6.45
3 -1 -10 87.28 6.2
3 -1 -10 88.24 6.31
3 -1 -10 79.45 6.11
3 -1 -10 85.88 6.26
3 -1 -10 94.95 6.64
3 -1 -10 94.19 6.57
-3 1 9 99.34 6.52
3 -1 -9 101.49 6.72
-3 1 9 94.94 6.29
-3 1 9 90.35 6.16
-3 1 9 82.24 6.07
3 -1 -9 92.11 6.27
-3 1 9 104.65 6.91
3 -1 -9 101.52 6.41
3 -1 -9 102.53 6.5
3 -1 -9 96.21 6.27
3 -1 -9 92.68 6.27
3 -1 -9 107.39 6.65
3 -1 -9 104.47 6.51
-3 1 8 101.84 6.22
3 -1 -8 113.95 6.73
-3 1 8 99.63 6.08
-3 1 8 100.36 6.08
-3 1 8 93.03 6.11
3 -1 -8 113.86 6.44
3 -1 -8 114.9 6.46
-3 1 8 109.44 6.77
3 -1 -8 110.1 6.24
3 -1 -8 108.99 6.32
3 -1 -8 102.12 6.09
3 -1 -8 115.08 6.44
3 -1 -8 108.02 6.2
-3 1 7 553.93 16.04
-3 1 7 544.63 16.92
3 -1 -7 551.63 17.3
-3 1 7 536.97 16.91
-3 1 7 557.56 16.83
-3 1 7 571.47 16.87
3 -1 -7 576.77 17.06
-3 1 7 576.59 18.22
3 -1 -7 540.12 17.1
3 -1 -7 559.41 16.81
3 -1 -7 574.47 17.01
3 -1 -7 572.43 16.91
3 -1 -7 545.62 17.08
3 -1 -7 548.55 16.71
-3 1 6 412.32 12.39
-3 1 6 399.78 12.74
3 -1 -6 407.57 13.1
-3 1 6 396.43 12.58
-3 1 6 383.92 12.67
-3 1 6 396.92 12.52
3 -1 -6 404.92 12.73
-3 1 6 422.26 14.15
3 -1 -6 410.47 13.39
3 -1 -6 419.1 12.8
3 -1 -6 419.92 12.82
3 -1 -6 401.86 12.63
3 -1 -6 423.06 13.26
3 -1 -6 402.39 12.64
-3 1 6 386.67 13
3 -1 -5 -0.03 0.54
-3 1 5 1.21 0.56
-3 1 5 0.34 0.45
-3 1 5 -0.04 0.44
3 -1 -5 1.1 0.91
-3 1 5 -0.42 0.45
3 -1 -5 -0.32 0.73
-3 1 5 0.35 0.77
3 -1 -5 -0.25 0.43
3 -1 -5 -0.05 0.36
3 -1 -5 0.97 0.56
3 -1 -5 0.42 0.54
3 -1 -5 -0.36 0.58
3 -1 -5 1.36 0.72
-3 1 5 -0.44 0.55
3 -1 -4 322.73 10.58
-3 1 4 333.46 10.32
-3 1 4 323.08 9.78
3 -1 -4 331.12 10.06
-3 1 4 337.6 9.77
-3 1 4 337.52 9.72
-3 1 4 314.46 9.82
3 -1 -4 324.07 9.79
3 -1 -4 350.03 10.92
3 -1 -4 338.79 10.98
-3 1 4 342.92 11.49
3 -1 -4 324.53 8.9
3 -1 -4 344.43 9.83
3 -1 -4 344.76 9.81
3 -1 -4 337.76 9.8
3 -1 -4 323.42 10.37
3 -1 -4 341.11 9.83
-3 1 4 315.67 10.78
3 -1 -3 63.81 3.63
-3 1 3 77.25 4.32
-3 1 3 65.66 3.47
-3 1 3 61.53 2.85
3 -1 -3 60.29 2.92
-3 1 3 54.87 2.7
-3 1 3 59.49 2.76
3 -1 -3 68.33 3.78
3 -1 -3 59.5 2.86
3 -1 -3 65.18 3.06
-3 1 3 66.8 3.95
3 -1 -3 58.34 2.77
3 -1 -3 60.51 2.81
3 -1 -3 60.39 2.8
3 -1 -3 66.42 3.39
3 -1 -3 63.47 2.92
-3 1 3 62.48 3.76
3 -1 -2 2781.06 58.48
-3 1 2 2809.18 58.21
-3 1 2 2392.17 55.91
3 -1 -2 2623.61 56.18
-3 1 2 2422.4 55.92
-3 1 2 2442.69 55.91
3 -1 -2 2961.22 58.56
3 -1 -2 2454.37 55.97
3 -1 -2 2463.89 55.96
3 -1 -2 2579.74 55.98
3 -1 -2 2578.61 56.01
3 -1 -2 2558.89 55.95
3 -1 -2 2932.6 57.6
3 -1 -2 2666.76 56.19
-3 1 2 2835.44 58.95
3 -1 -2 2697.02 57.46
-3 1 2 2837.09 59.1
-3 1 2 2652.97 57.36
3 -1 -1 11.21 0.75
-3 1 1 12.18 1.55
3 -1 -1 15.37 1.34
-3 1 1 16.33 1.71
-3 1 1 15 1.48
-3 1 1 15.23 1.77
-3 1 1 13.22 1.48
-3 1 0 805.6 19.97
-3 1 0 804.99 19.74
-3 1 0 817 20.16
3 -1 0 742.86 18.99
-3 1 0 807.18 20.26
-3 1 0 776.11 19.9
-3 1 -1 4 0.8
-3 1 -1 4.76 0.92
-3 1 -1 5.48 1.01
-3 1 -1 1.97 0.65
-3 1 -1 4.19 0.87
3 -1 1 3.55 0.56
3 -1 2 8.31 0.77
-3 1 -2 9 1.25
-3 1 -2 8.46 1.27
3 -1 2 8.43 0.76
3 -1 2 8.52 0.73
3 -1 2 8.39 0.72
-3 1 -2 11.25 1.4
3 -1 2 7.85 0.73
-3 1 -2 8.87 0.78
-3 1 -2 7.98 0.74
-3 1 -2 8.28 0.75
-3 1 -2 6.51 0.67
3 -1 2 8.12 1.09
-3 1 -2 9.96 1.24
3 -1 2 9.97 1.31
3 -1 3 33.34 1.73
3 -1 3 35.91 2.73
-3 1 -3 33.82 2.34
3 -1 3 33.64 1.87
3 -1 3 33.81 1.91
3 -1 3 33.12 1.86
-3 1 -3 35.62 2.61
3 -1 3 32.68 1.75
-3 1 -3 30.21 2.46
3 -1 3 34 2.51
-3 1 -3 30.77 1.91
3 -1 3 32.07 1.91
-3 1 -3 30.77 1.83
-3 1 -3 31.93 1.9
-3 1 -3 31.45 1.84
3 -1 3 32.93 2.31
3 -1 3 31.75 2.36
-3 1 -3 35.06 2.3
3 -1 4 23.91 2.39
3 -1 4 22.23 1.75
3 -1 4 19.89 1.69
3 -1 4 21.9 1.74
-3 1 -4 18.98 2.03
3 -1 4 23.54 1.21
-3 1 -4 25.79 2.33
3 -1 4 24.55 2.2
3 -1 4 22.06 1.79
-3 1 -4 25.52 1.97
-3 1 -4 23.26 1.98
-3 1 -4 19.86 1.66
-3 1 -4 21.02 1.75
-3 1 -4 17.72 1.58
3 -1 4 22.45 2.03
-3 1 -4 22.05 1.76
3 -1 5 27.74 2.66
3 -1 5 25.53 2.18
-3 1 -5 29.51 2.23
-3 1 -5 25.5 2.25
-3 1 -5 22.52 2.3
3 -1 5 25.04 2.15
3 -1 5 23.32 2.12
3 -1 5 24.41 2.14
-3 1 -5 27.6 2.26
-3 1 -5 26.66 2.25
-3 1 -5 27.41 2.23
3 -1 5 26.39 2.39
3 -1 5 28.27 2.57
-3 1 -5 23.41 2.05
3 -1 6 943.08 23.69
-3 1 -6 913.74 22.62
-3 1 -6 964.59 23.92
-3 1 -6 983.27 24.28
3 -1 6 884.96 23.09
3 -1 6 858.64 23.13
3 -1 6 863.54 22.99
-3 1 -6 831.79 22.87
-3 1 -6 851.16 22.91
-3 1 -6 878.24 23.11
3 -1 6 919.06 24.1
-3 1 -6 868.67 23.22
3 -1 6 926.85 24.54
3 -1 7 238.31 9.25
-3 1 -7 222.2 8.16
-3 1 -7 230.49 9.26
-3 1 -7 243.24 9.36
3 -1 7 250.42 9.26
3 -1 7 243.34 9.19
3 -1 7 227.92 9.08
-3 1 -7 243 9.11
-3 1 -7 254.54 9.32
-3 1 -7 249.18 9.2
3 -1 7 241.11 9.62
-3 1 -7 222.74 8.93
3 -1 7 234.16 9.8
3 -1 7 240.76 9.4
3 -1 8 40.39 3.65
-3 1 -8 38.25 3.6
3 -1 8 43.73 3.65
3 -1 8 36.6 3.51
3 -1 8 42.02 3.61
-3 1 -8 47.38 3.85
-3 1 -8 39.47 3.58
-3 1 -8 36.98 3.5
-3 1 -8 39.82 3.58
-3 1 -8 38.18 3.93
3 -1 8 40 3.79
-3 1 -8 38.12 3.42
3 -1 8 36.37 3.4
3 -1 8 47.59 4.14
-3 1 -9 2.15 1.12
3 -1 9 2.08 1.11
3 -1 9 2.41 1.11
3 -1 9 1.14 0.77
3 -1 9 1.09 0.97
-3 1 -9 0.9 0.73
3 -1 9 0.15 0.68
-3 1 -9 1.4 1.03
-3 1 -9 -0.29 0.84
-3 1 -9 0.41 0.91
3 -1 9 1.75 1.01
-3 1 -9 0.14 0.89
3 -1 9 2.45 1.15
-3 1 -9 1.39 1.21
3 -1 10 42.83 4.36
-3 1 -10 36.25 4.11
3 -1 10 45.86 4.32
3 -1 10 43.55 4.22
3 -1 10 45.7 4.39
-3 1 -10 36.86 4.12
-3 1 -10 47.56 4.12
-3 1 -10 43.71 4.29
-3 1 -10 44.62 4.34
-3 1 -10 44.4 4.26
3 -1 10 38.2 4.17
-3 1 -10 48.53 4.73
3 -1 10 45.92 4.63
-3 1 -10 42.37 4.45
3 -1 10 40.45 4.43
3 -1 10 39.4 3.76
3 -1 11 208.35 10.9
-3 1 -11 212.22 11.12
3 -1 11 198.29 10.33
3 -1 11 209.95 10.65
3 -1 11 204.4 10.7
-3 1 -11 202.11 10.52
-3 1 -11 218.85 10.02
-3 1 -11 216.47 10.58
-3 1 -11 214.71 10.59
-3 1 -11 215.41 10.66
-3 1 -11 239.99 11.92
3 -1 11 213.46 11.09
3 -1 11 200.07 11.12
-3 1 -11 226.88 10.93
3 -1 11 213.1 11.53
-3 1 -12 9.76 2.49
3 -1 12 12.17 2.73
3 -1 12 9.92 2.6
3 -1 12 9.48 2.25
3 -1 12 12.52 2.71
-3 1 -12 11.45 2.22
3 -1 12 12.6 2.9
-3 1 -12 11.03 2.6
-3 1 -12 9.05 2.32
-3 1 -12 11.12 2.58
3 -1 12 8.88 2.4
-3 1 -12 9.52 2.76
-3 1 -12 11.57 2.74
3 -1 12 6.1 1.94
-3 1 -12 13.97 3
3 -1 13 298.39 14.93
-3 1 -13 300.95 15.06
3 -1 13 304.66 14.71
3 -1 13 317.18 15.16
3 -1 13 293.92 14.42
-3 1 -13 286.09 14.3
-3 1 -13 310.96 14.48
-3 1 -13 300.91 14.38
-3 1 -13 327.96 14.98
3 -1 13 269.54 14
-3 1 -13 347.38 15.67
3 -1 13 309.2 15.91
-3 1 -14 3.25 2.11
3 -1 14 -0.12 1.33
3 -1 14 0.49 1.11
3 -1 14 1.54 1.68
3 -1 14 0.71 1.3
-3 1 -14 -0.11 1.14
-3 1 -14 2.62 1.83
-3 1 -14 0.1 1.06
-3 1 -14 -0.46 1.15
-3 1 -14 0.35 1.24
3 -1 14 -0.78 1.49
-3 0 13 7.66 2.48
3 0 -12 37.2 4.85
-3 0 12 35.71 4.65
-3 0 12 40.44 4.88
-3 0 12 36.02 4.51
-3 0 12 39.9 5.09
-3 0 12 39.82 4.79
3 0 -12 35.29 4.58
3 0 -12 36.33 4.51
3 0 -12 35.95 4.5
3 0 -12 44.19 5.01
3 0 -12 41.96 5.19
3 0 -12 38.91 4.84
3 0 -11 2.45 1.52
-3 0 11 2.65 1.49
-3 0 11 2.83 1.4
-3 0 11 1.21 1.35
-3 0 11 1.06 0.94
-3 0 11 3.62 1.76
3 0 -11 1.27 1.31
3 0 -11 2.63 1.21
3 0 -11 2.72 1.45
3 0 -11 4.76 1.73
3 0 -11 0.63 1.16
3 0 -11 3.2 1.81
-3 0 10 78.56 6.15
3 0 -10 80.8 6.42
-3 0 10 78.53 6.14
-3 0 10 72.06 6.01
-3 0 10 69.81 5.71
3 0 -10 79.96 6.24
3 0 -10 92.08 6.17
-3 0 10 92.96 6.89
3 0 -10 75.8 6.04
3 0 -10 77.92 6.07
3 0 -10 75.52 6.06
3 0 -10 93.79 6.64
3 0 -10 76.32 6.06
3 0 -9 2.81 1.35
-3 0 9 3.9 1.46
-3 0 9 0.79 0.72
-3 0 9 2.36 1.05
-3 0 9 1.14 1.2
3 0 -9 3.83 1.19
-3 0 9 2.86 1.47
3 0 -9 2.54 1.26
3 0 -9 2.56 1.36
3 0 -9 0.33 0.71
3 0 -9 2.03 1.12
3 0 -9 -0.28 1.02
3 0 -9 1.13 1.23
-3 0 8 148.24 7.75
3 0 -8 149.27 7.93
-3 0 8 139.95 7.4
-3 0 8 135.81 7.4
-3 0 8 142.59 7.44
3 0 -8 138.18 7.58
-3 0 8 175.18 8.79
3 0 -8 151.04 7.55
3 0 -8 149.49 7.56
3 0 -8 150.28 7.62
3 0 -8 155.86 7.82
3 0 -8 164.2 8.06
3 0 -8 161.65 7.82
3 0 -7 8.7 1.69
-3 0 7 6.78 1.53
-3 0 7 9.62 1.75
-3 0 7 5.22 1.2
-3 0 7 8.14 1.63
-3 0 7 12.98 2.2
3 0 -7 11.31 2.06
3 0 -7 6.73 1.46
3 0 -7 8.1 1.59
3 0 -7 7.23 1.56
3 0 -7 5.99 1.38
3 0 -7 9.51 1.85
3 0 -7 7.2 1.52
-3 0 6 806.16 20.29
-3 0 6 753.32 21.29
3 0 -6 764.73 21.69
-3 0 6 763.15 21.1
-3 0 6 759.18 21.27
-3 0 6 754.6 21.05
3 0 -6 762.49 21.36
-3 0 6 820.21 23.01
3 0 -6 822.96 21.98
3 0 -6 801.54 21.38
3 0 -6 780.91 21.38
3 0 -6 797.1 21.41
3 0 -6 802.93 21.95
3 0 -6 840.6 21.61
-3 0 5 267.47 8.39
-3 0 5 249.91 8.8
3 0 -5 252.13 9.04
-3 0 5 242.5 8.59
-3 0 5 240.83 8.61
-3 0 5 246.27 8.59
3 0 -5 279.49 9.73
3 0 -5 262.07 9.48
-3 0 5 262.76 10.08
3 0 -5 253.06 8.74
3 0 -5 248.69 8.64
3 0 -5 255.65 8.76
3 0 -5 278.4 9.54
3 0 -5 266.45 8.86
3 0 -4 38.82 2.94
-3 0 4 38.36 2.48
-3 0 4 38.38 2.59
3 0 -4 37.71 2.65
-3 0 4 37.28 2.47
-3 0 4 38.29 2.54
-3 0 4 37.28 2.47
3 0 -4 43.86 3.13
-3 0 4 38.92 3.22
3 0 -4 38.3 2.56
3 0 -4 36.91 2.48
3 0 -4 35.88 2.47
3 0 -4 35.5 2.82
3 0 -4 36.63 2.52
3 0 -3 301 9.65
-3 0 3 296.99 8.75
-3 0 3 346.55 10.49
-3 0 3 274.19 8.23
3 0 -3 280.73 8.46
-3 0 3 279.53 8.18
-3 0 3 257.08 8.11
-3 0 3 275.85 8.13
3 0 -3 306.78 9.64
-3 0 3 291.44 9.97
3 0 -3 293.49 8.57
3 0 -3 281.72 8.2
3 0 -3 286.71 8.24
3 0 -3 285.39 8.31
3 0 -3 296.87 9.34
3 0 -3 303.18 8.55
-3 0 3 277.74 9.61
3 0 -2 396.93 11.27
-3 0 2 451.39 12.02
-3 0 2 385.62 10.41
-3 0 2 346.77 9.2
3 0 -2 348.32 9.33
-3 0 2 345.93 9.1
-3 0 2 322.67 9.06
-3 0 2 341.38 9.07
3 0 -2 402.91 11.19
3 0 -2 385.77 10.46
-3 0 2 402.61 11.51
3 0 -2 347.01 9.15
3 0 -2 349.25 9.15
3 0 -2 333.48 9.17
3 0 -2 381.2 10.85
3 0 -2 405.52 9.78
3 0 -2 378.2 10.59
-3 0 2 372.2 11.2
-3 0 1 29.31 1.25
3 0 -1 30.2 1.3
-3 0 1 29.75 1.23
-3 0 1 28.87 1.21
-3 0 1 29.2 1.2
3 0 -1 26.15 1.26
-3 0 1 37.89 2.54
-3 0 1 38.61 2.39
3 0 -1 38.31 1.77
-3 0 1 31.73 2.47
-3 0 1 39.5 2.73
3 0 -1 35.52 1.24
-3 0 1 36.23 2.3
3 0 -1 30.89 1.24
3 0 -1 30.31 1.24
3 0 -1 30.14 1.25
-3 0 0 1684.71 39.25
-3 0 0 1655.25 39.34
-3 0 0 1926.1 40.41
3 0 0 1441.44 37.63
-3 0 0 1665.15 39.2
3 0 0 1785.96 37.51
-3 0 0 1653.05 39.67
-3 0 -1 55.75 2.8
-3 0 -1 50.55 3.03
-3 0 -1 64.97 3.34
-3 0 -1 70.47 3.59
-3 0 -1 60.36 3.21
3 0 1 57.27 2.14
3 0 2 762.81 17.7
-3 0 -2 785.09 17.79
3 0 2 739.5 17.66
3 0 2 742.57 17.63
-3 0 -2 763.8 17.63
-3 0 -2 828.84 20.07
-3 0 -2 789.27 18.67
3 0 2 831.34 19.52
-3 0 -2 872.17 20.26
-3 0 -2 752.28 17.63
-3 0 -2 773.31 17.67
-3 0 -2 759.78 17.65
3 0 2 893.74 18.96
3 0 2 861.46 19.36
3 0 3 169.46 6.29
3 0 3 149.11 4.82
-3 0 -3 150.09 4.89
-3 0 -3 177.16 6.19
3 0 3 141.14 4.7
3 0 3 138.4 4.77
3 0 3 145.42 4.72
-3 0 -3 140.71 4.69
-3 0 -3 156.43 6.06
3 0 3 158.07 5.64
-3 0 -3 178.81 6.37
-3 0 -3 146.03 4.7
-3 0 -3 144.25 4.72
-3 0 -3 143.28 4.7
3 0 3 172.9 5.41
3 0 3 160.33 5.5
-3 0 -4 3.68 0.74
3 0 4 2.21 0.57
-3 0 -4 5.75 1.06
3 0 4 2.87 0.65
3 0 4 3.27 0.68
3 0 4 3.14 0.67
-3 0 -4 3.28 0.85
3 0 4 3.52 0.78
-3 0 -4 2.5 0.61
-3 0 -4 3.65 0.72
-3 0 -4 2.05 0.6
3 0 4 7.01 1.01
-3 0 -4 3.16 0.61
3 0 4 1.93 0.73
3 0 5 27.7 2.57
3 0 5 24.43 2.1
-3 0 -5 24.83 2.15
-3 0 -5 28.55 2.36
3 0 5 26.94 2.19
3 0 5 26.19 2.18
3 0 5 26.29 2.14
-3 0 -5 23.48 2.16
-3 0 -5 27.52 2.47
-3 0 -5 25.57 2.08
-3 0 -5 29.51 2.24
-3 0 -5 26.16 2.14
3 0 5 27.43 2.23
3 0 5 27.84 2.38
3 0 5 28.26 2.51
3 0 6 54.03 3.53
-3 0 -6 58.61 3.58
-3 0 -6 58.27 3.7
3 0 6 57.15 3.72
3 0 6 56.09 3.7
3 0 6 56.04 3.61
-3 0 -6 50.56 3.67
-3 0 -6 67.32 4
3 0 6 47.36 2.06
-3 0 -6 57.77 3.57
-3 0 -6 57.94 3.59
-3 0 -6 52.53 3.53
3 0 6 59.64 3.73
3 0 6 60.67 3.9
3 0 6 59.1 3.99
-3 0 -6 62 3.73
3 0 7 152.76 6.9
-3 0 -7 144.82 6.85
-3 0 -7 157.14 6.64
3 0 7 160.09 6.88
3 0 7 156.69 7
3 0 7 155.26 6.76
-3 0 -7 139.98 6.77
-3 0 -7 154.4 6.92
-3 0 -7 162.13 6.83
-3 0 -7 150.1 6.71
-3 0 -7 148.83 6.64
3 0 7 146.66 6.86
-3 0 -7 148.86 6.81
3 0 7 144.41 7.02
3 0 7 157.62 7.13
3 0 8 235.06 9.79
-3 0 -8 226.35 9.78
-3 0 -8 237.34 9.32
3 0 8 267.78 10.14
3 0 8 252.09 10.18
3 0 8 266.86 10.1
-3 0 -8 236.6 9.91
-3 0 -8 258.75 9.71
-3 0 -8 261.23 9.94
-3 0 -8 263.97 10.04
-3 0 -8 264.89 10.04
3 0 8 245.29 10.15
-3 0 -8 265.73 10.09
3 0 8 245.13 9.84
3 0 8 250.58 10.38
-3 0 -9 23.55 3.07
-3 0 -9 21.98 2.58
3 0 9 16.64 2.53
3 0 9 22.22 2.82
3 0 9 26.7 3.09
3 0 9 24.02 2.94
-3 0 -9 21.93 2.94
-3 0 -9 24.15 2.7
-3 0 -9 24.85 2.96
-3 0 -9 26.05 3.02
-3 0 -9 22.48 2.76
-3 0 -9 22.43 3.14
3 0 9 20.73 2.76
3 0 9 23.73 3.09
-3 0 -9 22.11 2.88
3 0 9 22 2.99
3 0 9 20.68 2.64
3 0 10 199.07 9.73
-3 0 -10 203.41 9.95
3 0 10 175.89 9.16
3 0 10 182.55 9.45
3 0 10 171.97 9
-3 0 -10 174.08 9.29
-3 0 -10 194.89 8.71
-3 0 -10 171.96 9.11
-3 0 -10 166.45 8.99
-3 0 -10 184.86 9.3
-3 0 -10 218.79 10.38
3 0 10 183.98 9.57
3 0 10 185.08 9.62
-3 0 -10 194.32 9.87
3 0 10 184.47 9.74
3 0 10 176.65 8.43
3 0 11 47.67 4.83
-3 0 -11 49.82 5.07
3 0 11 40.6 4.42
3 0 11 50.65 4.89
3 0 11 48.05 4.62
-3 0 -11 50.4 4.9
-3 0 -11 54.4 4.43
-3 0 -11 52.29 4.83
-3 0 -11 51.81 4.83
-3 0 -11 50.5 4.75
-3 0 -11 59.07 5.56
3 0 11 41.82 4.53
3 0 11 49.74 4.96
-3 0 -11 47.22 4.92
3 0 11 50.43 5.16
3 0 12 238.37 12.42
-3 0 -12 252.85 12.91
3 0 12 251.53 12.37
3 0 12 267.93 12.96
3 0 12 263.55 12.51
-3 0 -12 263.5 12.61
-3 0 -12 270.41 11.39
-3 0 -12 274.75 12.64
-3 0 -12 257.74 12.35
-3 0 -12 279.25 12.8
-3 0 -12 281.67 14.07
3 0 12 225.01 12.08
3 0 12 256.46 13.27
-3 0 -12 252.76 13.02
3 0 13 53.69 5.72
3 0 13 44.1 5.26
3 0 13 46.64 5.24
-3 0 -13 53.34 5.57
3 0 13 50.84 5.78
-3 0 -13 48.18 5.73
-3 0 -13 48.95 5.28
-3 0 -13 53.32 5.46
-3 0 -13 49.01 5.38
3 0 13 50.2 5.43
3 0 13 49.82 5.82
-3 0 -13 53.47 5.62
3 0 14 144.68 10.08
-3 0 -14 148.37 10.35
3 0 14 128.16 9.58
3 0 14 131.55 9.53
3 0 14 140.64 10.2
-3 0 -14 137.1 9.8
-3 0 -14 144.48 9.96
-3 0 -14 136.2 9.55
-3 0 -14 129.08 9.43
3 0 14 158.46 11.11
3 0 14 135.63 9.76
3 0 15 125.4 9.78
-3 -1 12 269.28 13.84
3 1 -12 250.38 13.67
-3 -1 12 239.16 12.86
-3 -1 12 265.46 13.49
-3 -1 12 245.69 13.4
3 1 -12 258.56 13.64
-3 -1 12 275.7 13.8
3 1 -12 276.8 13.6
3 1 -12 285.03 13.82
3 1 -12 289.3 13.98
3 1 -12 280.93 14.15
3 1 -12 276.06 13.85
3 1 -11 0.39 0.97
-3 -1 11 0.9 1.1
-3 -1 11 -0.62 1.14
-3 -1 11 -2.01 1.57
-3 -1 11 2.02 1.26
-3 -1 11 -0.09 1.34
3 1 -11 -0.59 1.04
3 1 -11 -1.04 1.25
3 1 -11 -0.48 1.15
3 1 -11 0.38 1.08
3 1 -11 -1.02 1.02
3 1 -11 2.92 1.35
3 1 -10 1.86 1.38
-3 -1 10 1.88 1.29
-3 -1 10 2.7 1.35
-3 -1 10 0.29 0.84
-3 -1 10 2.56 1.39
3 1 -10 -0.14 1.24
-3 -1 10 1.79 1.14
3 1 -10 -0.48 1.11
3 1 -10 2.69 1.38
3 1 -10 0.43 1.07
3 1 -10 1.15 1.12
3 1 -10 1.33 0.97
3 1 -10 2.96 1.46
3 1 -9 4.07 1.3
-3 -1 9 6.64 1.7
-3 -1 9 4.98 1.61
-3 -1 9 6.83 1.66
-3 -1 9 6.44 1.71
3 1 -9 5.88 1.72
-3 -1 9 4.93 1.76
3 1 -9 3.82 1.49
3 1 -9 9.36 2.11
3 1 -9 5.89 1.88
3 1 -9 8.77 2.03
3 1 -9 4.63 1.38
3 1 -9 8.28 1.9
3 1 -8 3.27 1.11
-3 -1 8 6.68 1.53
-3 -1 8 7.24 1.68
-3 -1 8 5.84 1.58
-3 -1 8 7.77 1.78
3 1 -8 7.34 1.67
3 1 -8 8.04 1.73
3 1 -8 5.37 1.52
3 1 -8 9.01 1.85
3 1 -8 7.28 1.67
-3 -1 8 6.56 1.77
3 1 -8 7.86 1.75
-3 -1 7 207.44 8.92
3 1 -7 202.65 9.1
-3 -1 7 189.43 8.44
-3 -1 7 193.02 8.57
-3 -1 7 193.36 8.48
3 1 -7 203.58 8.62
-3 -1 7 214.64 9.77
3 1 -7 195.16 8.55
3 1 -7 197.91 8.71
3 1 -7 192.89 8.6
3 1 -7 204.41 9.04
3 1 -7 206.38 8.81
-3 -1 6 95.11 5.32
3 1 -6 96.89 5.52
-3 -1 6 86.58 4.99
-3 -1 6 89.74 5.06
-3 -1 6 90.51 5.06
3 1 -6 106.53 5.86
-3 -1 6 105.76 6.25
3 1 -6 105.75 5.58
3 1 -6 101.25 5.33
3 1 -6 100.43 5.37
3 1 -6 105.99 5.42
3 1 -6 100.71 5.71
3 1 -6 101.45 5.36
-3 -1 5 33.52 2.12
3 1 -5 29.95 2.72
-3 -1 5 31.32 2.71
-3 -1 5 31.89 2.58
-3 -1 5 29.22 2.52
-3 -1 5 32.61 2.61
-3 -1 5 27.63 2.5
3 1 -5 33.7 2.97
-3 -1 5 34.11 3.23
3 1 -5 30.18 2.6
3 1 -5 32.31 2.7
3 1 -5 30.67 2.59
3 1 -5 32.19 2.82
3 1 -5 32.75 2.72
3 1 -4 397.12 12.32
-3 -1 4 373.61 10.34
-3 -1 4 422.94 12.65
-3 -1 4 357.75 11.18
3 1 -4 364.34 11.44
-3 -1 4 369.63 11.13
-3 -1 4 360.12 10.99
-3 -1 4 369.59 11.05
3 1 -4 403.55 12.32
-3 -1 4 339.54 11.02
-3 -1 4 406.22 12.91
3 1 -4 370.24 11.33
3 1 -4 379.15 11.25
3 1 -4 395.26 12.08
3 1 -4 372.71 11.2
3 1 -4 405.98 11.55
-3 -1 3 72.09 3.22
3 1 -3 75.05 4.2
-3 -1 3 80.28 4.32
-3 -1 3 67.72 3.35
3 1 -3 67.86 3.53
-3 -1 3 69.27 3.28
-3 -1 3 66.99 3.24
-3 -1 3 69.19 3.26
3 1 -3 75.52 4.09
-3 -1 3 69.95 3.33
-3 -1 3 74.25 4.32
3 1 -3 65.48 3.37
3 1 -3 72.55 3.39
3 1 -3 72.77 4.02
3 1 -3 75.43 3.43
3 1 -3 74.53 3.54
3 1 -3 60.71 2.71
3 1 -2 5.01 1.06
-3 -1 2 5.66 0.83
3 1 -2 5.01 0.77
-3 -1 2 6.27 1.14
-3 -1 2 5.57 0.78
-3 -1 2 4.58 0.7
-3 -1 2 4.96 0.68
-3 -1 2 4.54 0.7
-3 -1 2 4.89 0.69
3 1 -2 4.05 0.78
-3 -1 2 7.05 1.2
3 1 -2 4.57 0.7
3 1 -2 5.62 0.79
3 1 -2 6.25 0.8
3 1 -2 4.04 0.95
3 1 -2 7.46 0.96
3 1 -2 4.95 0.95
-3 -1 1 660.72 16.37
3 1 -1 649.84 15.05
-3 -1 1 757.38 18.05
3 1 -1 669.3 15.58
-3 -1 1 647.62 15.4
-3 -1 1 658.33 15.26
-3 -1 1 646.46 15.24
-3 -1 1 666.56 15.3
-3 -1 1 646.71 15.26
-3 -1 1 661.19 17.34
3 1 -1 621.85 16.92
3 1 -1 675.89 15.4
3 1 -1 556.53 15.06
3 1 -1 699.31 15.4
-3 -1 1 669.56 17.16
3 1 -1 694.4 16.1
3 1 -1 641.62 17.12
-3 -1 0 559.85 14.41
3 1 0 482.52 12.28
-3 -1 0 490.84 13.13
3 1 0 512.1 11.73
-3 -1 0 499.58 11.6
-3 -1 0 495.5 11.5
-3 -1 0 493.15 11.48
-3 -1 0 500.56 11.49
-3 -1 0 504.05 11.5
-3 -1 0 483.84 11.48
-3 -1 0 519.45 13.53
3 1 0 413.08 13.28
3 1 0 522.71 11.63
3 1 0 436.84 12.34
3 1 0 527.68 11.57
-3 -1 0 497.25 13.72
3 1 0 517.97 12.52
-3 -1 -1 3591.04 71.88
3 1 1 2887.89 69.78
-3 -1 -1 3256.69 68.46
-3 -1 -1 3280.44 68.47
-3 -1 -1 3208.73 68.45
-3 -1 -1 3135.87 68.46
-3 -1 -1 3271.67 70.72
-3 -1 -1 3218.74 70.18
-3 -1 -1 3121.75 71.08
-3 -1 -1 2979.4 68.44
3 1 1 2861.42 70.06
3 1 1 3391.88 68.56
-3 -1 -1 3300.47 71.24
3 1 2 2528.62 55.86
3 1 2 2135.4 55.24
3 1 2 2577.17 54.3
-3 -1 -2 2449.71 54.28
-3 -1 -2 2799.58 57.1
3 1 2 2218.08 54.2
-3 -1 -2 2517.33 54.13
-3 -1 -2 2436.35 54.13
-3 -1 -2 2386.1 54.6
3 1 2 2505.61 54.79
-3 -1 -2 2492.14 56.11
-3 -1 -2 2415.57 56.29
-3 -1 -2 2522.45 54.15
-3 -1 -2 2468.68 54.11
3 1 2 2547.27 54.07
3 1 2 2257.99 55.69
3 1 2 2316 56.24
3 1 2 2460.23 54.62
-3 -1 -2 2569.55 56.32
3 1 3 1479.58 33.85
3 1 3 1378.36 33.62
-3 -1 -3 1328.6 32.46
-3 -1 -3 1630.86 34.73
3 1 3 1339.46 32.38
3 1 3 1383.69 32.35
3 1 3 1369.68 32.38
-3 -1 -3 1461.31 32.45
-3 -1 -3 1308.67 32.31
-3 -1 -3 1414.39 31.69
3 1 3 1485.69 32.69
-3 -1 -3 1469.7 34.15
-3 -1 -3 1396.81 32.43
-3 -1 -3 1313.41 32.41
-3 -1 -3 1374.13 32.45
3 1 3 1485.07 32.06
3 1 3 1443.57 32.34
-3 -1 -3 1464.51 33.83
3 1 3 1626.83 34.7
3 1 4 1.3 0.51
-3 -1 -4 1.66 0.55
-3 -1 -4 1.19 0.69
3 1 4 1.65 0.5
3 1 4 1.22 0.42
3 1 4 2.48 0.64
-3 -1 -4 1.81 0.66
3 1 4 2.38 0.58
-3 -1 -4 3.32 0.75
-3 -1 -4 1.67 0.52
-3 -1 -4 2.5 0.64
3 1 4 1.95 0.49
-3 -1 -4 2.37 0.58
-3 -1 -4 2.45 0.73
3 1 4 1.52 0.6
3 1 4 1.42 0.61
-3 -1 -5 62.05 3.74
3 1 5 54.41 3.33
-3 -1 -5 52.68 3.34
3 1 5 49.37 3.04
3 1 5 47.92 3.03
3 1 5 52.56 3.21
-3 -1 -5 51.11 3.09
-3 -1 -5 53.75 3.45
-3 -1 -5 52.11 3.02
-3 -1 -5 51.29 3.05
-3 -1 -5 49.67 3.02
3 1 5 55.87 3.79
3 1 5 57.65 3.11
3 1 5 61.21 3.35
3 1 5 60.66 3.79
-3 -1 -6 15.99 1.92
3 1 6 16.24 1.89
-3 -1 -6 17.03 1.93
3 1 6 14.18 1.8
3 1 6 16.22 2.01
3 1 6 14.02 1.93
-3 -1 -6 15.58 1.96
-3 -1 -6 17.36 1.94
-3 -1 -6 16.54 1.86
-3 -1 -6 14.49 1.86
-3 -1 -6 15.41 1.89
3 1 6 21.62 2.44
3 1 6 15.29 1.76
3 1 6 18.49 1.97
3 1 6 16.93 2.06
3 1 7 43.63 3.41
-3 -1 -7 44.67 3.5
-3 -1 -7 36.35 3.21
3 1 7 38.47 3.08
3 1 7 36.84 3.04
3 1 7 35.84 3.04
-3 -1 -7 39.11 3.24
-3 -1 -7 42.82 3.26
-3 -1 -7 43.11 3.26
-3 -1 -7 44.43 3.33
-3 -1 -7 39.28 3.16
3 1 7 36.84 3.41
3 1 7 41.04 3.2
3 1 7 41.57 3.32
3 1 7 39.9 3.35
-3 -1 -8 15.4 2.18
3 1 8 14.46 2.17
-3 -1 -8 15.64 2.12
3 1 8 13.68 2.19
3 1 8 15.94 2.19
3 1 8 18.14 2.28
-3 -1 -8 14.78 2.22
-3 -1 -8 15.32 2.07
-3 -1 -8 15.59 2.11
-3 -1 -8 14.67 2.06
3 1 8 19.12 2.33
-3 -1 -8 15.43 2.12
3 1 8 13.85 2.22
3 1 8 18.28 2.42
3 1 8 15 2.14
3 1 9 205.09 9.77
-3 -1 -9 206.12 10
-3 -1 -9 210.89 9.39
3 1 9 228.93 9.68
3 1 9 233.43 9.95
3 1 9 234.8 9.75
-3 -1 -9 229.43 9.72
-3 -1 -9 218.98 8.92
-3 -1 -9 224.99 9.52
-3 -1 -9 237.01 9.7
-3 -1 -9 236.3 9.74
3 1 9 223.18 10.22
3 1 9 213.57 9.56
3 1 9 202.34 9.61
3 1 9 202.3 9.08
-3 -1 -9 234.02 10.06
3 1 10 152.84 8.3
-3 -1 -10 149.93 8.36
-3 -1 -10 140.68 7.62
3 1 10 152.24 8.16
3 1 10 153.82 8.53
3 1 10 156.91 8.26
-3 -1 -10 143.06 8.04
-3 -1 -10 153.5 7.34
-3 -1 -10 155.12 8.11
-3 -1 -10 156.43 8.14
-3 -1 -10 162.45 8.27
3 1 10 139.56 8.22
3 1 10 145.67 8.08
3 1 10 138.83 8.11
-3 -1 -10 149.62 8.42
3 1 11 42.58 4.52
-3 -1 -11 39.13 4.45
3 1 11 48.55 4.71
3 1 11 45.84 4.76
3 1 11 47.77 4.63
-3 -1 -11 40.72 4.32
-3 -1 -11 45.84 3.94
-3 -1 -11 45.27 4.5
-3 -1 -11 47.97 4.59
-3 -1 -11 49.91 4.68
3 1 11 41.74 4.47
3 1 11 46.29 4.81
-3 -1 -11 44.96 4.66
3 1 12 73.05 6.39
3 1 12 71.44 6.22
-3 -1 -12 65.28 6.12
3 1 12 69.9 6.04
3 1 12 69.45 5.98
3 1 12 75.4 6.37
-3 -1 -12 68.05 5.96
-3 -1 -12 74.22 5.25
-3 -1 -12 65.42 5.84
-3 -1 -12 78.45 6.29
-3 -1 -12 69.13 5.94
3 1 12 67.06 5.92
3 1 12 62.66 5.97
3 1 13 8.91 2.48
-3 -1 -13 8.45 2.42
3 1 13 7.39 2.36
3 1 13 8.92 2.65
3 1 13 9.09 2.31
3 1 13 9.35 2.37
3 1 13 9.65 2.56
-3 -1 -13 11.93 2.68
-3 -1 -13 10.78 2.46
-3 -1 -13 6.61 2.13
-3 -1 -13 9.71 2.53
3 1 13 10.48 2.56
3 1 14 369.08 17.53
3 1 14 411.37 18.52
-3 -1 -14 424.46 18.88
3 1 14 428.98 18.44
3 1 14 393.29 18.29
3 1 14 446.74 18.57
-3 -1 -14 428.29 18.26
-3 -1 -14 439.82 18.24
-3 -1 -14 427.67 18.01
-3 -1 -14 467.54 18.85
3 1 14 357.32 16.79
3 1 14 398.26 18.77
-3 -1 -15 17.06 3.8
3 1 15 15.2 3.43
3 1 15 9.89 3.16
3 1 15 16.44 3.65
3 1 15 16.42 3.52
3 1 15 12.74 3.31
-3 -1 -15 11.8 3.06
-3 -1 -15 20.58 3.71
-3 -1 -15 14.2 3.33
-3 -1 -15 14.2 3.28
3 1 15 14.09 3.21
-3 -2 12 98.13 7.89
-3 -2 12 101.61 8.17
-3 -2 12 98.51 7.84
3 2 -12 95.17 7.94
-3 -2 12 112.01 8.43
3 2 -12 104.36 8.05
3 2 -12 111.62 8.32
3 2 -12 108.37 8.26
3 2 -12 109.17 8.26
-3 -2 12 104.57 8.3
3 2 -12 99.04 8.29
3 2 -11 20.61 3.68
-3 -2 11 27.06 3.95
-3 -2 11 25.97 3.89
-3 -2 11 26.05 3.79
-3 -2 11 28.32 3.97
-3 -2 11 27.14 4
3 2 -11 26.79 3.81
3 2 -11 27.73 3.98
3 2 -11 23.47 3.77
3 2 -11 28.39 4.2
3 2 -11 21.33 3.44
3 2 -11 30.07 4.07
3 2 -10 5.48 1.58
-3 -2 10 6.18 1.82
-3 -2 10 6.35 1.89
-3 -2 10 5.63 1.9
-3 -2 10 5.78 1.78
3 2 -10 3.72 1.74
3 2 -10 5.04 1.66
3 2 -10 5.72 1.85
3 2 -10 3.69 1.65
3 2 -10 5.28 1.78
3 2 -10 5.82 1.94
-3 -2 10 5.35 2.08
-3 -2 9 65.8 5.53
3 2 -9 63.46 5.52
-3 -2 9 71.43 5.97
3 2 -9 79.46 5.29
-3 -2 9 60.11 5.18
-3 -2 9 62.32 5.33
-3 -2 9 61.32 5.17
3 2 -9 65.26 5.37
3 2 -9 61.69 5.27
3 2 -9 64.35 5.36
3 2 -9 66.39 5.64
3 2 -9 67.42 5.47
-3 -2 8 47.76 4.35
3 2 -8 52.89 4.69
-3 -2 8 50.09 4.28
-3 -2 8 47.82 4.27
-3 -2 8 51.52 4.33
-3 -2 8 45.57 4.59
3 2 -8 51.01 4.06
3 2 -8 49.14 4.32
3 2 -8 43.63 4.15
3 2 -8 53.92 4.52
3 2 -8 54.59 4.75
3 2 -8 52.17 4.47
-3 -2 7 174.79 8.25
3 2 -7 170.67 8.41
-3 -2 7 154.1 7.58
-3 -2 7 166.47 7.84
-3 -2 7 154.79 7.61
-3 -2 7 154.81 7.68
3 2 -7 169.1 7.68
-3 -2 7 174.41 8.91
3 2 -7 161.56 7.86
3 2 -7 162.97 7.83
3 2 -7 173.03 8.02
3 2 -7 171.61 8.34
3 2 -7 164.29 7.85
-3 -2 6 23.77 2.65
3 2 -6 26.75 2.94
-3 -2 6 27.52 2.7
-3 -2 6 25.64 2.62
-3 -2 6 28.24 2.76
-3 -2 6 23.37 2.55
3 2 -6 23.44 2.87
-3 -2 6 26.6 3.16
3 2 -6 26.58 2.76
3 2 -6 28.81 2.86
3 2 -6 28.96 3.1
3 2 -6 26.91 2.75
3 2 -6 30.55 2.99
-3 -2 5 289.32 10.35
3 2 -5 303.78 10.76
-3 -2 5 296.79 10.2
-3 -2 5 282.68 10.03
-3 -2 5 291.01 10.12
-3 -2 5 290.35 10.19
3 2 -5 316.47 10.89
-3 -2 5 320.05 11.76
3 2 -5 292.14 10.34
3 2 -5 299.53 10.32
3 2 -5 303.08 10.89
3 2 -5 297.97 10.27
3 2 -5 307.68 10.45
-3 -2 4 98.66 3.59
-3 -2 4 99.08 5.24
3 2 -4 108.07 5.28
-3 -2 4 99.01 4.93
-3 -2 4 99.19 4.74
-3 -2 4 98.84 4.72
-3 -2 4 93.71 4.66
3 2 -4 115.12 5.5
-3 -2 4 97.8 4.72
-3 -2 4 110.65 5.92
3 2 -4 95.22 4.89
3 2 -4 98.29 4.84
3 2 -4 104.41 5.34
3 2 -4 105.51 4.95
-3 -2 4 100.47 4.55
3 2 -4 108.8 5.08
3 2 -3 779.33 20.86
-3 -2 3 734.86 18.15
-3 -2 3 815.43 20.76
3 2 -3 773.56 19.99
-3 -2 3 747.26 19.58
-3 -2 3 745.53 19.29
-3 -2 3 750.4 19.31
-3 -2 3 734.3 19.28
3 2 -3 802.03 20.55
-3 -2 3 757.09 19.32
-3 -2 3 781.2 21.37
3 2 -3 807.52 19.67
3 2 -3 797.44 19.6
3 2 -3 763.7 20.6
-3 -2 3 746.31 19.66
3 2 -3 806.79 19.89
3 2 -2 142.96 6.31
-3 -2 2 158.83 6.39
-3 -2 2 143.11 4.87
3 2 -2 153.33 5.62
-3 -2 2 147.69 5.37
-3 -2 2 147.89 5.22
-3 -2 2 148.79 5.2
-3 -2 2 160.16 5.36
-3 -2 2 153.08 5.29
-3 -2 2 152.18 6.51
3 2 -2 159.86 5.46
3 2 -2 158.18 6.3
3 2 -2 157.52 5.36
3 2 -2 129.12 4.69
-3 -2 2 143.88 5.83
3 2 -2 155.9 5.69
3 2 -1 221.25 7.78
3 2 -1 208.99 6.17
-3 -2 1 229.78 7.87
3 2 -1 232.69 6.75
-3 -2 1 204.72 6.45
-3 -2 1 214.13 6.33
-3 -2 1 210.01 6.32
-3 -2 1 210.55 6.29
-3 -2 1 215.91 6.32
-3 -2 1 213.56 6.34
-3 -2 1 227.26 7.86
-3 -2 1 200.91 6.4
3 2 -1 210.9 7.46
3 2 -1 231.25 6.56
3 2 -1 182.65 5.65
3 2 -1 216.88 6.44
-3 -2 1 217.81 7.51
3 2 -1 212.93 6.94
3 2 -1 211.76 7.52
3 2 -1 189.6 6.43
3 2 0 1680.86 38.58
-3 -2 0 1931.87 40.74
-3 -2 0 1772.73 38.14
-3 -2 0 1791.54 38.13
-3 -2 0 1833.58 38.15
-3 -2 0 1715.02 38.14
3 2 0 1582.9 39.85
-3 -2 0 1790.79 39.96
-3 -2 0 1593.46 38.75
3 2 0 1527.7 38.28
3 2 0 1829.42 38.3
-3 -2 0 1851.01 40.34
3 2 0 1591.88 39
3 2 0 1850.26 39.13
3 2 0 1763.9 40.19
3 2 1 130.12 4.93
-3 -2 -1 151.37 5.95
-3 -2 -1 133.92 4.25
-3 -2 -1 132.26 4.29
-3 -2 -1 139.77 4.29
-3 -2 -1 129.91 4.24
3 2 1 141.71 5.76
-3 -2 -1 145.2 5.13
-3 -2 -1 121.88 4.23
3 2 1 127.14 4.9
3 2 1 136.6 4.36
-3 -2 -1 136.48 5.58
3 2 1 126.33 5.12
3 2 2 1203.28 26.72
3 2 2 1049.8 27.01
3 2 2 1106.32 26.45
-3 -2 -2 1107.96 26.38
-3 -2 -2 1305.7 28.67
-3 -2 -2 1067.55 26.15
-3 -2 -2 1112.02 26.09
-3 -2 -2 1161.69 26.12
3 2 2 1156.15 25.31
-3 -2 -2 1229.13 26.45
-3 -2 -2 1195.44 28.14
-3 -2 -2 1105.52 26.15
-3 -2 -2 1089.74 26.11
3 2 2 1034.92 27.12
3 2 2 1161.96 27.67
-3 -2 -2 1155.54 27.98
3 2 3 44.73 2.59
3 2 3 41.91 2.77
3 2 3 40.45 2.36
-3 -2 -3 45.27 2.51
-3 -2 -3 45.59 3.09
3 2 3 41.82 2.39
-3 -2 -3 40.91 2.28
-3 -2 -3 36.58 2.24
-3 -2 -3 41.04 1.86
-3 -2 -3 44.46 2.98
-3 -2 -3 42.49 2.32
-3 -2 -3 43.13 2.35
3 2 3 38.63 2.7
3 2 3 38.15 1.4
-3 -2 -3 38.34 2.71
3 2 3 40.27 1.86
3 2 3 48.54 3.07
-3 -2 -4 298.11 6.83
3 2 4 270.4 9.35
3 2 4 260.88 8.51
-3 -2 -4 288.61 8.89
-3 -2 -4 326.82 10.09
3 2 4 262.93 8.77
3 2 4 272.38 8.95
-3 -2 -4 296.67 8.74
-3 -2 -4 266.23 8.76
-3 -2 -4 255.95 6.52
-3 -2 -4 264.12 9.15
-3 -2 -4 297.61 8.74
-3 -2 -4 265.14 8.69
-3 -2 -4 295.81 8.76
3 2 4 325.85 9.94
3 2 4 268.87 7.41
3 2 4 290.83 7.96
-3 -2 -4 291.06 9.13
3 2 4 330.78 9.97
3 2 5 12.74 1.76
-3 -2 -5 13.85 1.8
3 2 5 11.7 1.53
-3 -2 -5 13.17 1.6
3 2 5 10 1.51
3 2 5 12.46 1.63
-3 -2 -5 12.48 1.56
-3 -2 -5 13.13 1.7
-3 -2 -5 13.41 1.55
-3 -2 -5 12.41 1.55
-3 -2 -5 12.86 1.55
3 2 5 11.9 1.22
3 2 5 13.98 1.41
3 2 5 19.02 2.08
-3 -2 -5 11.82 1.48
3 2 5 11 1.59
3 2 6 3.1 1.03
-3 -2 -6 2.93 1.02
3 2 6 5.35 1.12
-3 -2 -6 2.55 0.9
3 2 6 3.78 0.97
3 2 6 3.58 0.96
-3 -2 -6 4.53 1.05
3 2 6 4.09 0.96
-3 -2 -6 4.99 1.07
-3 -2 -6 2.86 0.89
-3 -2 -6 4.18 1.02
3 2 6 3.78 0.83
-3 -2 -6 2.42 0.86
-3 -2 -6 2.96 0.92
3 2 6 5.38 1.23
3 2 6 3.7 1.04
3 2 7 312.47 11.28
3 2 7 316.19 10.84
-3 -2 -7 329.22 11.13
-3 -2 -7 294.21 10.89
3 2 7 294.4 10.47
3 2 7 290.34 10.39
3 2 7 278.93 10.39
-3 -2 -7 293.37 10.62
-3 -2 -7 320.11 10.54
-3 -2 -7 301.93 10.6
-3 -2 -7 295.39 10.45
-3 -2 -7 290.55 10.39
3 2 7 345.46 11.8
3 2 7 293.91 10
-3 -2 -7 259.95 9.1
3 2 7 309.96 10.43
3 2 7 320.75 11.09
3 2 8 16.32 2.37
3 2 8 18.61 2.39
-3 -2 -8 21 2.58
3 2 8 19.07 2.44
3 2 8 19.04 2.38
3 2 8 13.92 2.35
-3 -2 -8 16.13 2.26
-3 -2 -8 19.16 2.19
-3 -2 -8 17.55 2.27
-3 -2 -8 22.94 2.58
-3 -2 -8 16.17 2.28
3 2 8 20.78 2.72
3 2 8 19.84 2.4
3 2 9 163.13 8.41
3 2 9 162.35 8.13
-3 -2 -9 168.2 8.36
3 2 9 175.68 8.35
3 2 9 183.03 8.37
3 2 9 160.89 8.46
-3 -2 -9 154.54 7.87
-3 -2 -9 172.56 7.54
-3 -2 -9 163.75 7.98
-3 -2 -9 169.32 8.05
-3 -2 -9 164.8 8.05
3 2 9 157.59 8.49
3 2 9 164.87 8.05
3 2 10 11.09 2.24
-3 -2 -10 16.64 2.61
3 2 10 12.11 2.25
3 2 10 9.82 2.28
3 2 10 12.88 2.43
3 2 10 12.28 2.35
-3 -2 -10 8.99 1.73
3 2 10 7.3 1.69
-3 -2 -10 12.62 2.39
-3 -2 -10 12.42 2.23
-3 -2 -10 10.5 2.22
-3 -2 -10 13.61 2.41
3 2 10 12.89 2.42
3 2 11 143.15 8.62
3 2 11 129.1 8.44
-3 -2 -11 135.86 8.74
3 2 11 158.61 8.72
3 2 11 155.07 8.58
3 2 11 153.87 8.83
-3 -2 -11 147.55 8.43
-3 -2 -11 145.04 7.31
-3 -2 -11 153.2 8.42
-3 -2 -11 160.62 8.6
-3 -2 -11 138.16 8.15
3 2 11 149.85 8.79
3 2 11 137.21 8.39
3 2 12 2.45 1.59
-3 -2 -12 0.36 0.9
3 2 12 0.44 1.36
3 2 12 1.08 1.24
3 2 12 2.22 1.21
3 2 12 -0.08 0.97
3 2 12 0.06 0.93
-3 -2 -12 1.53 1.26
-3 -2 -12 1.11 1.08
-3 -2 -12 -0.84 1.06
-3 -2 -12 2.63 1.4
3 2 12 -0.04 0.9
3 2 13 151.65 10.04
3 2 13 173.92 10.46
3 2 13 186.63 10.65
3 2 13 178.77 10.78
-3 -2 -13 169.04 10.19
3 2 13 164.55 10.56
-3 -2 -13 164.45 10.64
-3 -2 -13 182.66 10.43
-3 -2 -13 194.9 10.82
-3 -2 -13 177.69 10.27
3 2 13 154.41 9.76
3 2 13 168.39 10.63
-3 -2 -14 8.86 2.8
3 2 14 4.21 1.89
3 2 14 10.05 2.71
3 2 14 6.84 2.29
-3 -2 -14 7.48 2.2
-3 -2 -14 4.69 2.13
-3 -2 -14 5.74 1.85
3 2 14 5.97 2.12
-3 -2 -14 6.35 2.5
3 2 14 6 2.36
3 2 15 198.29 12.45
3 2 15 191.46 12.18
-3 -2 -15 177.32 11.76
-3 -2 -15 191.34 11.97
-3 -2 -15 197.4 12.23
-3 -2 -15 211.03 12.5
3 2 15 179.99 11.65
3 2 15 191.18 12.52
-3 -2 -15 201.27 12.89
3 3 -11 6.41 2.14
-3 -3 11 5.54 2.05
-3 -3 11 6.78 2.16
-3 -3 11 6.36 2.09
-3 -3 11 3.06 1.53
3 3 -11 5.15 1.91
3 3 -11 2.2 1.41
3 3 -11 8.65 2.63
3 3 -11 5.38 2.06
3 3 -11 5.72 2.08
3 3 -11 6.24 1.89
-3 -3 11 7.83 2.5
-3 -3 10 39.4 4.8
3 3 -10 33.47 4.5
-3 -3 10 37.27 4.61
-3 -3 10 34.85 4.31
-3 -3 10 35.36 4.39
-3 -3 10 40.01 4.7
3 3 -10 34.88 4.26
3 3 -10 36.06 4.39
3 3 -10 36.17 4.42
3 3 -10 33.5 4.35
3 3 -10 46.56 4.89
-3 -3 9 87.86 6.63
3 3 -9 94.14 7.01
-3 -3 9 88.48 6.46
-3 -3 9 86.32 6.4
-3 -3 9 83.82 6.29
-3 -3 9 98.93 7.24
3 3 -9 82.29 6.26
3 3 -9 89.49 6.58
3 3 -9 85.76 6.38
3 3 -9 89.89 6.72
3 3 -9 87.95 6.44
-3 -3 8 3.71 1.39
3 3 -8 2.2 1.22
-3 -3 8 0.37 0.72
-3 -3 8 0.28 0.86
-3 -3 8 0.86 0.69
-3 -3 8 2.08 1.03
-3 -3 8 0.76 1.13
3 3 -8 1.15 0.99
3 3 -8 -0.09 0.78
3 3 -8 1.5 1.06
3 3 -8 3.85 1.28
3 3 -8 1.73 1.48
3 3 -8 0.29 0.79
-3 -3 7 245.47 10.61
3 3 -7 243.75 10.81
-3 -3 7 236.55 10.07
-3 -3 7 241.25 10.19
-3 -3 7 228.32 9.94
-3 -3 7 231.88 10.09
-3 -3 7 250.18 11.31
3 3 -7 247.7 9.63
3 3 -7 230.64 10.16
3 3 -7 241.63 10.23
3 3 -7 263.23 10.95
3 3 -7 236.19 10.13
3 3 -7 245.77 10.24
-3 -3 6 90.25 5.66
3 3 -6 86.94 5.7
-3 -3 6 85.64 5.28
-3 -3 6 92.22 5.49
-3 -3 6 87.26 5.35
-3 -3 6 93.44 5.6
3 3 -6 102.57 5.81
-3 -3 6 99.09 6.44
3 3 -6 90.05 5.63
3 3 -6 86.42 5.45
3 3 -6 97.94 5.93
3 3 -6 94.05 5.57
3 3 -6 98.27 5.6
-3 -3 5 220.49 8.93
3 3 -5 224.65 9.21
-3 -3 5 218.8 8.64
-3 -3 5 217.93 8.61
-3 -3 5 215.11 8.63
-3 -3 5 212.54 8.61
3 3 -5 244.38 9.26
-3 -3 5 237.4 10.13
3 3 -5 229.15 9.11
3 3 -5 220.04 8.79
3 3 -5 230.15 9.3
3 3 -5 220.99 8.75
-3 -3 5 206.66 7.52
3 3 -5 238.28 9
-3 -3 4 491.04 15.08
3 3 -4 497.62 15.28
-3 -3 4 507.16 15.09
-3 -3 4 482 14.57
-3 -3 4 497.1 14.72
-3 -3 4 487.79 14.65
3 3 -4 524.5 15.4
-3 -3 4 490.57 14.76
-3 -3 4 534.97 16.59
3 3 -4 524.65 15.07
3 3 -4 514.03 14.92
3 3 -4 544.22 15.81
-3 -3 4 507.91 14.37
3 3 -4 527.66 15.17
3 3 -3 478.99 14.63
-3 -3 3 454.42 14.02
3 3 -3 470.69 14
-3 -3 3 460.64 13.69
-3 -3 3 467.02 13.53
-3 -3 3 465.04 13.41
-3 -3 3 457.25 13.33
3 3 -3 478.92 14.28
-3 -3 3 450.44 13.34
-3 -3 3 497.66 15.41
3 3 -3 461.92 13.61
3 3 -3 519.62 14.73
3 3 -3 467.08 13.5
-3 -3 3 534.05 14.12
3 3 -3 502.28 14.02
3 3 -2 1203.37 28.93
-3 -3 2 1105.89 28.22
3 3 -2 1137.88 27.87
-3 -3 2 1098.46 27.55
-3 -3 2 1106.2 27.24
-3 -3 2 1120.81 27.24
-3 -3 2 1097.59 27.16
-3 -3 2 1109.59 27.26
-3 -3 2 1078.26 27.22
-3 -3 2 1192.01 29.32
3 3 -2 1122.39 27.47
3 3 -2 1214.68 28.85
3 3 -2 1192.76 27.53
-3 -3 2 1185.68 28.32
3 3 -2 1187 28
-3 -3 1 2389.86 54.75
3 3 -1 2386.03 54.93
3 3 -1 2313.51 53.09
3 3 -1 2444.91 53.96
-3 -3 1 2301 53.56
-3 -3 1 2289.29 53.28
-3 -3 1 2360.25 53.29
-3 -3 1 2381.01 53.3
-3 -3 1 2357.22 53.34
-3 -3 1 2314.76 53.33
-3 -3 1 2345.34 55.05
3 3 -1 2353 53.6
3 3 -1 2485.99 53.59
3 3 -1 2082.38 52.24
-3 -3 1 2464.24 54.84
3 3 -1 2482.34 54.14
3 3 -1 2351.52 54.9
-3 -3 0 75.3 4.09
3 3 0 67.49 3.32
-3 -3 0 68.57 3.17
-3 -3 0 72.88 3.23
-3 -3 0 71.68 3.2
-3 -3 0 70.39 3.18
3 3 0 68.1 3.96
-3 -3 0 68.55 3.83
3 3 0 59.38 3.04
3 3 0 73.12 3.31
3 3 0 74.9 3.67
-3 -3 0 68.7 3.9
3 3 0 69.88 3.96
3 3 1 276.46 7.39
3 3 1 279.04 8.8
-3 -3 -1 312.6 9.77
-3 -3 -1 279.29 8.15
-3 -3 -1 285.42 8.2
-3 -3 -1 298.17 8.26
-3 -3 -1 274.35 8.2
-3 -3 -1 300.1 9.02
3 3 1 268.54 9.39
-3 -3 -1 273.52 8.17
3 3 1 247.57 8.39
3 3 1 280.04 8.39
-3 -3 -1 285.17 9.46
3 3 1 297.63 9.49
3 3 2 115.26 4.09
-3 -3 -2 113.21 4
3 3 2 109.58 4.96
3 3 2 120.63 4.79
-3 -3 -2 136.49 5.84
-3 -3 -2 117.83 4.73
-3 -3 -2 117.71 4.53
-3 -3 -2 125.74 4.6
-3 -3 -2 127.65 4.63
3 3 2 125.72 5.62
-3 -3 -2 127.18 4.75
-3 -3 -2 122.34 4.61
-3 -3 -2 122.42 4.61
3 3 2 113.19 5.01
-3 -3 -2 126.34 5.53
-3 -3 -3 17.71 1.29
3 3 3 34.73 2.73
3 3 3 30.94 2.33
-3 -3 -3 27.44 2.2
-3 -3 -3 25.64 2.55
-3 -3 -3 26.5 2.13
-3 -3 -3 26.28 2.12
-3 -3 -3 27.23 2.12
-3 -3 -3 18.64 1.51
3 3 3 33.94 2.85
-3 -3 -3 27.33 2.16
-3 -3 -3 27.84 2.12
3 3 3 35.28 2.76
-3 -3 -3 29.52 2.58
-3 -3 -4 272.97 7.24
3 3 4 277.07 9.32
3 3 4 275.04 8.96
-3 -3 -4 265.22 8.93
-3 -3 -4 277.76 9.71
3 3 4 246.66 8.49
-3 -3 -4 260.88 8.52
-3 -3 -4 278.01 8.68
-3 -3 -4 266.28 6.97
-3 -3 -4 270.83 9.28
-3 -3 -4 261.95 8.59
-3 -3 -4 272.68 8.62
-3 -3 -4 267.55 8.53
3 3 4 289.11 9.6
3 3 4 259.77 6.97
-3 -3 -4 275.2 9.12
-3 -3 -5 3.83 0.65
3 3 5 5.01 1.22
3 3 5 4.34 0.96
-3 -3 -5 3.27 0.88
-3 -3 -5 3.48 0.87
3 3 5 2.37 0.8
3 3 5 2.03 0.77
-3 -3 -5 3.02 0.88
-3 -3 -5 3.38 0.88
3 3 5 3.36 0.63
-3 -3 -5 4.78 1.01
-3 -3 -5 2.84 0.87
-3 -3 -5 3.45 0.9
-3 -3 -5 3.51 0.92
3 3 5 2.85 0.9
-3 -3 -5 3.08 0.8
-3 -3 -6 394.78 11.27
3 3 6 445.19 13.64
3 3 6 421.28 13.14
-3 -3 -6 393.62 13.18
-3 -3 -6 415.53 13.75
3 3 6 425.41 12.89
3 3 6 437.51 13.11
-3 -3 -6 416.03 12.77
-3 -3 -6 413.31 12.95
-3 -3 -6 400.05 12.78
-3 -3 -6 424.85 12.76
-3 -3 -6 432.92 12.99
-3 -3 -6 429.18 12.86
3 3 6 444.16 13.92
3 3 6 375.07 11.6
-3 -3 -6 409.75 12.34
3 3 7 298.34 10.88
3 3 7 314.64 10.67
-3 -3 -7 290.87 10.56
3 3 7 287.2 10.49
3 3 7 281.22 10.28
-3 -3 -7 267.39 10.09
-3 -3 -7 279.32 9.88
-3 -3 -7 275.52 10.11
-3 -3 -7 276.8 10.25
-3 -3 -7 283.16 10.19
3 3 7 293.67 10.99
3 3 7 268.93 9.47
-3 -3 -7 246.56 8.98
3 3 8 1530.59 39.04
3 3 8 1590.11 38.76
-3 -3 -8 1568.22 38.97
3 3 8 1620.06 38.86
3 3 8 1579.81 38.53
-3 -3 -8 1534.83 38.38
-3 -3 -8 1520.15 37.46
-3 -3 -8 1548.35 38.28
-3 -3 -8 1526.51 38.42
-3 -3 -8 1543.6 38.33
3 3 8 1574.6 39.47
3 3 8 1478.48 37.63
3 3 9 102.76 6.38
3 3 9 93.59 6.12
-3 -3 -9 103.55 6.44
3 3 9 107.57 6.24
3 3 9 103.11 6.07
-3 -3 -9 105.25 6.11
-3 -3 -9 103.82 5.6
-3 -3 -9 105.34 6.05
-3 -3 -9 105.83 6.19
-3 -3 -9 95.57 5.83
3 3 9 102.05 6.47
-3 -3 -9 77.92 4.14
3 3 9 98.12 5.87
3 3 10 369.36 14.27
3 3 10 343.47 14.14
-3 -3 -10 363.85 14.49
3 3 10 371.5 14.02
3 3 10 374.91 13.95
-3 -3 -10 363.75 13.78
-3 -3 -10 346.1 12.48
-3 -3 -10 375.08 13.81
-3 -3 -10 357.24 13.76
-3 -3 -10 377.29 13.9
3 3 10 350.02 14.16
3 3 10 338.91 13.49
3 3 11 -0.47 0.78
-3 -3 -11 0.05 0.92
3 3 11 0.36 0.71
3 3 11 0.74 1.09
3 3 11 -0.49 0.77
-3 -3 -11 -0.66 0.74
3 3 11 0.19 0.73
-3 -3 -11 0.05 0.83
-3 -3 -11 -0.49 0.79
-3 -3 -11 -0.16 0.81
-3 -3 -11 -0.2 1.07
3 3 11 1.01 0.88
3 3 12 326.38 14.46
3 3 12 335.72 14.56
3 3 12 351.28 14.69
-3 -3 -12 331.22 14.26
3 3 12 323.9 14.73
-3 -3 -12 339.1 15.18
-3 -3 -12 333.31 14.2
-3 -3 -12 340.1 14.47
-3 -3 -12 332.47 14.25
3 3 12 329.09 14.57
3 3 12 308.9 14.19
-3 -3 -13 -0.22 0.98
3 3 13 2.67 1.71
3 3 13 -0.72 1.46
3 3 13 -0.01 1
-3 -3 -13 -0.88 1.1
-3 -3 -13 1.11 1.12
-3 -3 -13 -0.15 1.11
3 3 13 -0.31 1.04
-3 -3 -13 0.27 1.27
3 3 13 1.15 1.3
3 3 14 395.18 17.89
-3 -3 -14 376.45 17.77
-3 -3 -14 393.73 17.37
3 3 14 410.95 18.08
3 3 14 413.84 17.91
-3 -3 -14 401.27 17.41
-3 -3 -14 406.59 17.78
-3 -3 -14 403.28 17.51
3 3 14 346.73 16.42
3 3 14 387.03 17.39
3 3 15 63.45 6.8
3 3 15 70.57 7.04
-3 -3 -15 55.34 6.19
-3 -3 -15 53.5 6.06
-3 -3 -15 56.75 6.29
-3 -3 -15 59.71 6.39
3 3 15 47.65 5.73
3 3 15 55.35 6.42
-3 -3 -15 50.67 6.24
3 3 16 26.61 4.6
3 4 -11 2.14 1.52
-3 -4 11 -0.27 1.09
-3 -4 11 1.65 1.68
-3 -4 11 2.01 1.43
-3 -4 11 -0.09 1.11
-3 -4 11 -0.1 1.34
3 4 -11 1.24 1.23
3 4 -11 1.59 1.64
3 4 -11 -0.82 1.33
3 4 -11 1.31 1.2
-3 -4 10 10.63 2.69
3 4 -10 10.61 2.66
-3 -4 10 9.94 2.43
-3 -4 10 10.26 2.49
-3 -4 10 8.33 2.25
-3 -4 10 9.3 2.26
3 4 -10 11.03 2.75
3 4 -10 12.54 2.81
3 4 -10 9.91 2.4
3 4 -10 11.01 2.55
3 4 -10 11.03 2.63
-3 -4 9 12.59 2.66
3 4 -9 9.25 2.29
-3 -4 9 7.33 1.92
-3 -4 9 12.91 2.62
-3 -4 9 12.73 2.52
-3 -4 9 11.64 2.45
-3 -4 9 11.25 2.44
3 4 -9 13.27 2.55
3 4 -9 9.11 2.22
3 4 -9 11.09 2.52
3 4 -9 15.67 3
3 4 -9 9.58 2.34
3 4 -8 6.32 1.87
-3 -4 8 9.36 2.14
-3 -4 8 8.38 1.92
-3 -4 8 6.88 1.74
-3 -4 8 6.14 1.81
-3 -4 8 5.85 1.65
-3 -4 8 7.54 2.12
3 4 -8 6.75 1.77
3 4 -8 8.92 2.07
3 4 -8 8.69 1.95
3 4 -8 8.5 2.18
3 4 -8 9.3 2.1
-3 -4 7 265.52 11.82
3 4 -7 276.8 12.2
-3 -4 7 263.18 11.26
-3 -4 7 285.79 11.68
-3 -4 7 267.2 11.35
-3 -4 7 256.96 11.28
-3 -4 7 299.19 12.95
3 4 -7 269.54 11.63
3 4 -7 279.33 11.65
3 4 -7 278.28 11.64
3 4 -7 316.57 12.38
3 4 -7 284.15 11.71
3 4 -6 180.28 9.04
-3 -4 6 191.23 9.09
-3 -4 6 201.34 8.88
-3 -4 6 186.69 8.62
-3 -4 6 197.25 8.87
-3 -4 6 182.41 8.65
-3 -4 6 202.19 9.94
3 4 -6 190.96 8.99
3 4 -6 183.54 8.72
3 4 -6 213.79 9.41
3 4 -6 198.72 8.95
3 4 -6 191.99 8.8
3 4 -5 19.35 2.6
-3 -4 5 19.06 2.51
-3 -4 5 19.44 2.36
-3 -4 5 19.09 2.28
-3 -4 5 18.09 2.27
-3 -4 5 19.21 2.33
3 4 -5 18.2 2.37
-3 -4 5 17.74 2.69
3 4 -5 18.3 2.48
3 4 -5 17.25 2.28
3 4 -5 17.24 2.26
3 4 -5 17.73 2.5
3 4 -5 18.17 2.32
-3 -4 4 215.13 8.62
3 4 -4 237.75 9.58
-3 -4 4 228.89 9.2
-3 -4 4 228.47 8.9
-3 -4 4 231.36 8.87
-3 -4 4 243.33 9
3 4 -4 258.37 9.54
-3 -4 4 236.44 8.97
-3 -4 4 262.57 10.64
3 4 -4 232.36 9.12
3 4 -4 242.4 9.62
3 4 -4 238.22 9.05
-3 -4 4 261.8 8.91
3 4 -4 247.33 9.34
-3 -4 4 237.59 9.93
3 4 -3 1436.52 33.88
-3 -4 3 1264.34 32.42
3 4 -3 1304.69 33.19
-3 -4 3 1301.34 32.81
-3 -4 3 1300.87 32.4
-3 -4 3 1277.45 32.3
-3 -4 3 1301.07 32.34
3 4 -3 1320.68 32.73
-3 -4 3 1295.53 32.38
-3 -4 3 1321.59 32.49
-3 -4 3 1322.93 34.38
3 4 -3 1322.84 32.67
3 4 -3 1414.45 33.67
3 4 -3 1310.03 32.45
-3 -4 3 1259.11 33.02
-3 -4 3 1427.85 32.97
3 4 -3 1373.2 33.03
-3 -4 3 1287.16 33.11
3 4 -2 2013.13 44.2
-3 -4 2 1743.15 42.88
3 4 -2 1799.75 43.33
-3 -4 2 1791.45 43.03
-3 -4 2 1797.47 42.59
-3 -4 2 1779.98 42.51
-3 -4 2 1798.63 42.52
-3 -4 2 1774.06 42.53
-3 -4 2 1791.79 42.6
-3 -4 2 1932.06 44.85
3 4 -2 1820.88 42.97
3 4 -2 1870.02 43.81
3 4 -2 1849.15 42.77
-3 -4 2 1727.18 42.82
-3 -4 2 1944.12 43.7
3 4 -2 1823.72 43.09
3 4 -1 45.53 3.31
-3 -4 1 46.5 3.22
3 4 -1 44.5 2.8
3 4 -1 47.57 3.19
-3 -4 1 43.79 3.01
-3 -4 1 45.21 2.87
-3 -4 1 45.41 2.9
-3 -4 1 46.23 2.86
-3 -4 1 45.68 2.88
-3 -4 1 44.52 2.87
-3 -4 1 48.55 3.55
3 4 -1 45.74 3.04
-3 -4 1 41.74 2.73
3 4 -1 47.83 2.98
3 4 -1 44.89 3.09
-3 -4 1 43.66 3.24
3 4 0 1658.74 37.09
-3 -4 0 1627.67 37.06
-3 -4 0 1424.31 36.24
3 4 0 1550.04 36.06
-3 -4 0 1512.63 35.78
-3 -4 0 1546.22 35.72
-3 -4 0 1530.35 35.73
-3 -4 0 1525.84 35.72
-3 -4 0 1592.07 37.11
3 4 0 1376.95 35.17
-3 -4 0 1424.66 34.73
3 4 0 1557.72 36.03
3 4 0 1561.67 36.55
-3 -4 0 1631.52 37.39
3 4 0 1625.82 37.24
-3 -4 -1 29.92 2.19
3 4 1 29.48 2.39
-3 -4 -1 32.45 2.7
-3 -4 -1 29.66 2.18
-3 -4 -1 30.91 2.21
-3 -4 -1 30.14 2.22
-3 -4 -1 29.46 2.17
3 4 1 25.49 2.47
-3 -4 -1 24.32 2.27
-3 -4 -1 29.69 2.2
3 4 1 31.39 2.34
-3 -4 -1 28.93 1.53
3 4 1 30.86 2.31
-3 -4 -1 32.96 2.79
3 4 1 29.47 2.56
-3 -4 -2 57.46 3
3 4 2 53.91 3.5
-3 -4 -2 64.48 3.95
-3 -4 -2 61.41 3.34
-3 -4 -2 62.28 3.35
-3 -4 -2 59.22 3.29
-3 -4 -2 62.75 3.39
3 4 2 56.4 3.75
-3 -4 -2 54.43 3.16
3 4 2 56.96 3.5
-3 -4 -2 56.32 3.78
-3 -4 -3 515.37 13.28
3 4 3 516.36 14.97
3 4 3 527.18 14.73
-3 -4 -3 511.03 14.66
-3 -4 -3 559.85 15.66
-3 -4 -3 499.27 14.32
-3 -4 -3 497.1 14.29
-3 -4 -3 494.76 14.22
-3 -4 -3 500.39 13.56
3 4 3 512.67 15.33
-3 -4 -3 512.49 14.43
-3 -4 -3 493.2 14.2
3 4 3 518.17 14.91
-3 -4 -3 524.3 15.17
-3 -4 -4 23.32 1.73
3 4 4 22.71 2.36
3 4 4 20.27 2.15
-3 -4 -4 22.54 2.27
-3 -4 -4 26.77 2.6
3 4 4 21.01 2.18
-3 -4 -4 24.48 2.17
-3 -4 -4 23.38 2.15
3 4 4 23.28 2.35
-3 -4 -4 23.54 1.66
-3 -4 -4 21.74 2.12
-3 -4 -4 21.47 2.09
3 4 4 24.7 2.45
-3 -4 -4 22.98 2.35
3 4 5 81.27 4.92
-3 -4 -5 87.06 3.81
3 4 5 82.37 4.64
-3 -4 -5 86.86 4.83
-3 -4 -5 91.66 5.26
3 4 5 90.91 4.8
-3 -4 -5 85.53 4.53
-3 -4 -5 86.44 4.6
3 4 5 86.07 4.75
-3 -4 -5 79.34 3.08
-3 -4 -5 84.05 4.54
-3 -4 -5 89.21 4.59
3 4 5 83.39 4.97
-3 -4 -5 78.64 4.53
-3 -4 -6 828.95 20.14
3 4 6 874.2 22.49
3 4 6 836.54 21.93
-3 -4 -6 844.2 22.24
-3 -4 -6 816.4 22.76
3 4 6 867.17 22.01
3 4 6 862.11 22.14
-3 -4 -6 847.67 21.74
-3 -4 -6 832.69 21.94
3 4 6 829.51 21.79
-3 -4 -6 847.13 21.72
-3 -4 -6 843.27 21.76
-3 -4 -6 842.45 21.97
3 4 6 873.46 22.81
-3 -4 -6 769.07 21.11
-3 -4 -7 1137.84 28.15
3 4 7 1172.66 30.36
3 4 7 1213.26 30.25
-3 -4 -7 1180.11 30.39
3 4 7 1146.01 29.92
3 4 7 1175.49 30.27
-3 -4 -7 1133.25 29.73
-3 -4 -7 1091.74 30.01
3 4 7 1139.86 29.34
-3 -4 -7 1096.56 29.17
-3 -4 -7 1172.63 29.84
-3 -4 -7 1118.66 29.61
-3 -4 -7 1160.41 30
3 4 7 1201.53 30.8
-3 -4 -7 1077.4 28.56
3 4 8 886.95 24.71
3 4 8 859.39 24.36
-3 -4 -8 856.41 24.62
3 4 8 907.08 24.33
3 4 8 885.88 24.41
-3 -4 -8 853.95 23.92
-3 -4 -8 857.15 24.18
3 4 8 833.76 23.24
-3 -4 -8 799.92 22.95
-3 -4 -8 884.67 24.07
-3 -4 -8 858.67 24.18
-3 -4 -8 850.32 23.94
3 4 8 897.91 25.12
-3 -4 -8 803.18 22.25
3 4 9 19.96 2.72
-3 -4 -9 17.1 2.71
3 4 9 18.56 2.81
3 4 9 19.26 2.69
3 4 9 21.81 2.8
-3 -4 -9 19.89 2.67
3 4 9 17.38 2.28
-3 -4 -9 19.67 2.38
-3 -4 -9 22.5 2.74
-3 -4 -9 17.57 2.5
-3 -4 -9 21.1 2.75
3 4 9 17.13 2.7
-3 -4 -9 17.37 2.52
-3 -4 -9 12.82 1.67
-3 -4 -10 -0.33 0.87
3 4 10 1.25 1.09
3 4 10 0.08 0.94
-3 -4 -10 0.48 0.78
3 4 10 0.2 0.77
3 4 10 -0.28 0.74
-3 -4 -10 1.25 0.88
-3 -4 -10 0.08 0.7
-3 -4 -10 0.17 0.77
-3 -4 -10 0.47 0.83
3 4 10 -0.73 1.11
-3 -4 -10 -0.24 0.72
3 4 10 0.9 1.09
-3 -4 -11 2.58 1.32
3 4 11 1.28 0.95
3 4 11 0.32 0.94
3 4 11 2.28 1.39
-3 -4 -11 1.21 0.81
-3 -4 -11 0.71 0.86
-3 -4 -11 1.02 0.85
-3 -4 -11 0.21 1.03
3 4 11 1.62 1.1
-3 -4 -11 1.07 0.91
3 4 11 -0.27 0.81
3 4 12 33 4.18
-3 -4 -12 33.74 4.4
-3 -4 -12 30.32 4.08
3 4 12 28.98 4.06
3 4 12 31.98 4.2
-3 -4 -12 32.63 4.19
-3 -4 -12 35.83 4.43
-3 -4 -12 36.7 4.32
3 4 12 27.39 3.87
3 4 12 38.67 4.44
3 4 13 389.62 16.77
-3 -4 -13 372.74 16.79
-3 -4 -13 353.94 15.88
3 4 13 365.49 16.58
3 4 13 378.93 16.54
-3 -4 -13 357.43 15.93
-3 -4 -13 380.8 16.6
-3 -4 -13 375.35 16.32
3 4 13 357.42 15.84
3 4 13 361.54 16.1
3 4 14 199.04 12.2
-3 -4 -14 212.8 12.72
-3 -4 -14 184.45 11.23
-3 -4 -14 197.47 11.86
3 4 14 205.01 12.09
3 4 14 216.27 12.22
-3 -4 -14 201.21 11.65
-3 -4 -14 202.31 11.85
-3 -4 -14 201.62 11.68
3 4 14 177.26 11.02
3 4 14 197.97 11.65
3 4 15 55.24 6.54
-3 -4 -15 54.86 6.61
3 4 15 47.62 5.88
3 4 15 56.02 6.37
-3 -4 -15 52.46 6.01
-3 -4 -15 44.44 5.79
-3 -4 -15 49.21 5.85
-3 -4 -15 61.63 6.6
-3 -4 -15 55.79 6.22
3 4 15 44.72 5.44
3 4 15 58.88 6.47
3 4 16 66.13 7.13
-3 -5 10 17.76 3.3
3 5 -10 12.75 2.9
-3 -5 10 19.7 3.5
-3 -5 10 15.29 3.03
-3 -5 10 15.78 3.08
-3 -5 10 14.52 3.12
3 5 -10 11.3 2.82
3 5 -10 16.03 3.06
3 5 -10 12.96 2.67
3 5 -10 17.05 3.21
3 5 -10 20.32 3.76
-3 -5 9 46.46 5.11
3 5 -9 47.97 5.29
-3 -5 9 46.48 4.98
-3 -5 9 39.11 4.6
-3 -5 9 39.91 4.58
-3 -5 9 41.14 4.75
-3 -5 9 43.48 5.21
3 5 -9 39.73 4.67
3 5 -9 43.09 4.81
3 5 -9 46.09 5.04
3 5 -9 40.31 4.7
3 5 -9 46.91 4.85
-3 -5 8 100.61 7.36
3 5 -8 106.91 7.72
-3 -5 8 108.48 7.2
-3 -5 8 110.67 7.25
-3 -5 8 100.15 6.96
-3 -5 8 101.34 7.05
-3 -5 8 97.55 7.55
3 5 -8 96.66 7.04
3 5 -8 103.73 7.11
3 5 -8 114.8 7.61
3 5 -8 98.37 6.92
3 5 -8 98.28 6.97
-3 -5 7 52.25 4.92
3 5 -7 56.42 5.32
-3 -5 7 57.83 4.94
-3 -5 7 54.39 4.79
-3 -5 7 55.38 4.89
-3 -5 7 59.15 5.06
-3 -5 7 64.38 5.76
3 5 -7 51.31 4.9
3 5 -7 52.83 4.87
3 5 -7 49.37 4.82
3 5 -7 54.58 4.84
3 5 -7 65.39 5.16
3 5 -6 17.08 2.72
-3 -5 6 15.98 2.61
-3 -5 6 16.46 2.5
-3 -5 6 16.59 2.5
-3 -5 6 14.58 2.43
-3 -5 6 15.33 2.46
-3 -5 6 21.36 3.29
-3 -5 6 20.34 3.15
3 5 -6 17.35 2.62
3 5 -6 14.7 2.51
3 5 -6 13.26 2.28
3 5 -6 19.66 2.88
3 5 -6 15.71 2.48
3 5 -5 81.11 5.65
-3 -5 5 80.74 5.46
-3 -5 5 77.52 5.11
-3 -5 5 78.35 5.15
-3 -5 5 77.76 5.12
-3 -5 5 83.24 5.33
3 5 -5 81.07 5.06
-3 -5 5 76.54 5.96
3 5 -5 73.88 5.13
3 5 -5 87.6 5.6
3 5 -5 81.11 5.29
-3 -5 5 78.6 5.7
3 5 -5 75.98 5.22
-3 -5 5 81.73 5.71
-3 -5 4 99.87 5.28
3 5 -4 97.86 6.05
-3 -5 4 102.26 5.99
-3 -5 4 98.84 5.66
-3 -5 4 108.4 5.83
-3 -5 4 108.13 5.8
3 5 -4 104.79 5.71
-3 -5 4 112.27 5.92
-3 -5 4 110.31 6.81
3 5 -4 111.14 6.08
3 5 -4 110.28 5.97
-3 -5 4 107.27 6.29
3 5 -4 114.31 6.22
-3 -5 4 117.12 5.9
3 5 -4 99.06 5.69
-3 -5 4 114.94 6.39
-3 -5 3 24.1 2.4
3 5 -3 23.57 2.77
-3 -5 3 22.03 2.57
-3 -5 3 19.52 2.34
-3 -5 3 25.28 2.54
-3 -5 3 22.67 2.5
3 5 -3 26.25 2.58
-3 -5 3 22.64 2.4
-3 -5 3 25.18 2.53
-3 -5 3 28.31 3.22
3 5 -3 20.39 2.42
3 5 -3 23.03 2.6
3 5 -3 24.24 2.6
-3 -5 3 26.27 2.72
-3 -5 3 28.96 2.81
3 5 -3 25.24 2.62
-3 -5 3 24.88 2.62
3 5 -2 12.26 1.91
3 5 -2 4.84 1.31
-3 -5 2 5.81 1.3
-3 -5 2 4.62 1.07
-3 -5 2 4.79 1.14
-3 -5 2 5.64 1.22
3 5 -2 6 1.35
-3 -5 2 4.2 1.1
-3 -5 2 5.57 1.24
-3 -5 2 4.57 1.15
-3 -5 2 6.06 1.61
-3 -5 2 3.67 0.93
3 5 -2 4.27 1.1
3 5 -2 6.55 1.34
-3 -5 2 5.26 1.27
3 5 -2 3.79 1.24
3 5 -2 5.62 1.27
-3 -5 2 6.32 1.37
3 5 -1 2053.8 47.03
-3 -5 1 1918.92 47.13
3 5 -1 2181.92 48.13
-3 -5 1 1943.23 47.06
-3 -5 1 2005.88 47.13
-3 -5 1 1978.47 47.18
-3 -5 1 2001.32 47.22
-3 -5 1 2112.49 48.98
3 5 -1 1983.64 47.3
-3 -5 1 1963.75 46.6
-3 -5 1 2096.03 48.45
-3 -5 1 1977.6 46.33
3 5 -1 2099.52 47.86
3 5 0 2091.43 48.68
-3 -5 0 2017.68 48.53
3 5 0 2039.3 48.21
-3 -5 0 2064.91 48.68
-3 -5 0 2076.21 48.14
-3 -5 0 2086.94 48.12
-3 -5 0 2067.57 48.1
-3 -5 0 2092.93 48.17
-3 -5 0 2176.66 49.56
-3 -5 0 2091.94 48.11
3 5 0 2088.31 48.34
-3 -5 0 2015.94 46.94
3 5 0 1887.67 47.6
-3 -5 0 2234.6 49.84
3 5 0 2183.17 48.89
-3 -5 0 2045.88 46.46
3 5 0 2134.47 49.21
-3 -5 -1 16.34 1.83
3 5 1 22.12 2.22
-3 -5 -1 17.76 2.04
-3 -5 -1 20.25 1.97
-3 -5 -1 18.7 1.9
-3 -5 -1 18.32 1.89
-3 -5 -1 20.45 2.01
-3 -5 -1 19.68 2.16
-3 -5 -1 21.48 2.03
3 5 1 21.92 2.1
3 5 1 18.49 2
-3 -5 -1 18.55 1.42
-3 -5 -1 18.37 2.28
3 5 1 17.15 2.08
-3 -5 -2 50.24 3.1
3 5 2 47.73 3.41
-3 -5 -2 54.43 3.74
-3 -5 -2 59.4 3.52
-3 -5 -2 53.02 3.36
-3 -5 -2 50.32 3.28
-3 -5 -2 51.4 3.36
-3 -5 -2 53.58 3.36
3 5 2 56.01 3.6
-3 -5 -2 51.42 2.18
3 5 2 54.81 3.62
-3 -5 -2 52.5 3.83
-3 -5 -3 181.67 6.64
3 5 3 175.55 7.56
-3 -5 -3 197.21 8.02
3 5 3 169.61 7.44
-3 -5 -3 181.38 7.5
-3 -5 -3 190.56 7.29
-3 -5 -3 188.19 7.24
-3 -5 -3 184.6 7.22
3 5 3 172.79 7.47
-3 -5 -3 180.82 7.23
-3 -5 -3 194.85 7.28
-3 -5 -3 175.91 4.86
3 5 3 174.51 7.33
-3 -5 -3 176.83 7.71
3 5 4 5.48 1.23
-3 -5 -4 6.72 1.08
-3 -5 -4 2.78 1.08
3 5 4 2.72 1.03
-3 -5 -4 4.08 1.1
-3 -5 -4 4.09 1.01
-3 -5 -4 2.81 0.88
3 5 4 2.42 0.94
-3 -5 -4 2.61 0.8
-3 -5 -4 1.58 0.65
-3 -5 -4 3.04 0.92
3 5 4 3.78 1.13
-3 -5 -4 3.35 0.49
-3 -5 -4 2.24 0.92
3 5 5 63.51 4.41
-3 -5 -5 66.69 3.65
3 5 5 71.36 4.51
-3 -5 -5 69.61 4.5
-3 -5 -5 64.41 4.59
3 5 5 65.27 4.29
-3 -5 -5 68.03 4.24
-3 -5 -5 63.86 4.18
3 5 5 63.24 4.2
-3 -5 -5 65.09 4.2
-3 -5 -5 65.32 4.12
3 5 5 63.25 4.52
-3 -5 -5 68.1 4.44
3 5 6 84.99 5.3
-3 -5 -6 89.5 4.47
3 5 6 91.1 5.32
-3 -5 -6 92.16 5.46
-3 -5 -6 88.21 5.62
3 5 6 84.22 5.14
-3 -5 -6 89.41 5.14
-3 -5 -6 91.16 5.28
3 5 6 85.24 4.93
-3 -5 -6 92.54 5.24
-3 -5 -6 84.95 5.01
3 5 6 86.52 5.48
-3 -5 -6 78.89 4.87
3 5 7 391.93 13.59
-3 -5 -7 381.56 12.06
3 5 7 363.53 13.44
-3 -5 -7 392.02 13.81
3 5 7 381.97 13.26
3 5 7 396.25 13.56
-3 -5 -7 379.65 13.06
-3 -5 -7 395.26 13.4
3 5 7 387.03 12.8
-3 -5 -7 383.06 13.18
-3 -5 -7 396.25 13.47
-3 -5 -7 388.63 13.15
3 5 7 395.26 13.97
-3 -5 -7 358.32 12.5
-3 -5 -8 1534.66 36.89
3 5 8 1512.99 38.78
3 5 8 1558.64 38.85
-3 -5 -8 1501.3 39.04
3 5 8 1504.17 38.75
3 5 8 1534.72 38.66
-3 -5 -8 1538.09 38.4
-3 -5 -8 1493.95 38.55
3 5 8 1412.64 37.24
-3 -5 -8 1510.75 38.31
-3 -5 -8 1475.25 38.25
-3 -5 -8 1470.9 38.5
3 5 8 1482 39.11
-3 -5 -8 1427.37 36.81
-3 -5 -9 81.81 4.99
3 5 9 84.53 5.91
3 5 9 90.27 6.04
-3 -5 -9 88.02 6.15
3 5 9 87.72 6.06
3 5 9 83.85 5.99
-3 -5 -9 88.94 6.03
-3 -5 -9 83.38 5.74
3 5 9 78.69 4.95
-3 -5 -9 84.23 5.78
-3 -5 -9 82.07 5.8
-3 -5 -9 83.75 5.77
3 5 9 87.79 6.07
-3 -5 -9 79.8 4.73
3 5 10 20.16 3.02
-3 -5 -10 20.13 3.08
3 5 10 18.97 2.87
-3 -5 -10 22.82 3.11
3 5 10 19.77 2.98
3 5 10 18.54 2.36
-3 -5 -10 22.9 3.08
-3 -5 -10 19.52 2.9
-3 -5 -10 18.91 2.83
3 5 10 17.82 2.87
-3 -5 -10 23.17 3.2
-3 -5 -10 17.4 2.42
3 5 10 24.41 3.24
-3 -5 -11 9.79 2.38
3 5 11 6.52 1.86
-3 -5 -11 10.41 2.33
3 5 11 9.73 2.22
3 5 11 6.47 1.73
-3 -5 -11 8.18 2.02
-3 -5 -11 9.01 2.18
-3 -5 -11 4.39 1.56
3 5 11 7.82 2.1
-3 -5 -11 8.07 1.93
3 5 11 7.14 2.07
3 5 12 779.39 26.32
-3 -5 -12 776.7 26.69
-3 -5 -12 804.29 25.91
-3 -5 -12 790.85 26.16
3 5 12 847.67 26.48
3 5 12 812.21 26.4
-3 -5 -12 766.81 25.53
-3 -5 -12 811.42 26.34
-3 -5 -12 799.43 25.9
3 5 12 790.63 26.09
3 5 12 783.26 25.94
-3 -5 -13 0.39 1.24
3 5 13 -0.76 1.42
-3 -5 -13 0.88 1.48
3 5 13 2.19 1.64
3 5 13 -0.81 1.26
-3 -5 -13 1.28 1.59
-3 -5 -13 -0.97 1.32
-3 -5 -13 0.38 1.26
3 5 13 -1.84 1.48
-3 -5 -13 0.43 1.34
3 5 13 0.28 0.92
-3 -5 -14 31.59 4.78
3 5 14 33.16 4.8
-3 -5 -14 41.86 5.26
3 5 14 28.42 4.4
3 5 14 31.14 4.45
-3 -5 -14 26.49 4.12
-3 -5 -14 31.19 4.41
-3 -5 -14 32.87 4.58
3 5 14 29.75 4.33
-3 -5 -14 33.99 4.74
3 5 14 31.7 4.54
3 5 15 172.44 11.63
-3 -5 -15 163.79 11.56
3 5 15 146.56 10.72
3 5 15 169.53 11.73
-3 -5 -15 165.55 11.04
-3 -5 -15 156.56 11.07
-3 -5 -15 163.92 10.95
-3 -5 -15 158.11 11.03
-3 -5 -15 167.68 11.08
3 5 15 148.32 10.1
3 5 15 167.02 10.94
3 5 16 19.48 3.86
3 6 -9 35.2 4.79
-3 -6 9 38.85 4.89
-3 -6 9 37.77 4.71
-3 -6 9 42.58 4.87
-3 -6 9 38.24 4.64
-3 -6 9 40.78 4.84
-3 -6 9 36.63 5.01
3 6 -9 40.71 4.96
3 6 -9 39.92 4.73
3 6 -9 38.75 4.7
3 6 -9 35.15 4.49
3 6 -9 39.05 4.7
3 6 -8 1.86 1.57
-3 -6 8 -2.21 1.64
-3 -6 8 0.77 1.07
-3 -6 8 1.68 1.06
-3 -6 8 1.3 1.1
-3 -6 8 1.68 1.42
-3 -6 8 -1.45 1.58
3 6 -8 0.11 0.97
3 6 -8 1.63 1.04
3 6 -8 1.22 1.36
3 6 -8 2.61 1.45
3 6 -8 -0.4 1.1
-3 -6 7 108.36 7.53
3 6 -7 94.75 7.22
-3 -6 7 98.24 6.93
-3 -6 7 99.56 6.96
-3 -6 7 102.41 7.08
-3 -6 7 103 7.17
-3 -6 7 108.56 8.11
3 6 -7 123.26 6.7
3 6 -7 88.78 6.99
3 6 -7 92.9 6.82
3 6 -7 120.84 7.53
3 6 -7 93.8 6.86
3 6 -7 98.25 6.84
-3 -6 7 107.25 7.96
3 6 -6 45.32 4.69
-3 -6 6 50.61 4.83
-3 -6 6 45.44 4.32
-3 -6 6 45.87 4.35
-3 -6 6 42.41 4.23
-3 -6 6 41.52 4.21
-3 -6 6 44.23 4.84
3 6 -6 38.22 4.26
3 6 -6 44.93 4.41
3 6 -6 51.49 4.7
3 6 -6 47.13 4.48
-3 -6 6 51.04 5.15
3 6 -6 41.65 4.14
-3 -6 6 44.05 4.68
-3 -6 5 5.29 1.53
3 6 -5 2.9 1.29
-3 -6 5 3.64 1.4
-3 -6 5 3.22 1.23
-3 -6 5 2.84 1.06
-3 -6 5 4.13 1.36
-3 -6 5 5.36 1.8
-3 -6 5 2.34 1.16
3 6 -5 1.57 0.96
3 6 -5 2.09 1.11
-3 -6 5 3.58 1.25
3 6 -5 4 1.38
3 6 -5 2.93 1.31
3 6 -4 27.61 3.36
-3 -6 4 30.06 3.34
-3 -6 4 30.57 3.22
-3 -6 4 30.66 3.22
-3 -6 4 36.46 3.4
-3 -6 4 35.75 3.42
-3 -6 4 36.02 3.39
3 6 -4 33.54 3.13
-3 -6 4 34.15 3.99
3 6 -4 34.04 3.49
3 6 -4 31.79 3.33
-3 -6 4 29.22 3.37
3 6 -4 34.86 3.43
3 6 -4 30.61 3.24
-3 -6 4 36.41 3.31
-3 -6 4 29.14 3.14
-3 -6 3 0.63 0.85
-3 -6 3 1.41 0.7
3 6 -3 1.62 0.84
-3 -6 3 1.45 0.8
-3 -6 3 1.65 0.8
3 6 -3 2.35 0.89
-3 -6 3 0.94 0.61
-3 -6 3 2.9 1.03
-3 -6 3 2.37 1.13
-3 -6 3 1.94 0.87
-3 -6 3 0.11 0.77
3 6 -3 0.84 0.8
3 6 -3 0.71 0.84
-3 -6 3 0.39 0.78
3 6 -3 0.29 0.89
3 6 -3 1.17 0.74
-3 -6 3 0.82 0.78
-3 -6 2 434.15 13.88
3 6 -2 470.98 15.55
-3 -6 2 472.95 15.27
-3 -6 2 467.82 14.87
-3 -6 2 478.38 14.84
-3 -6 2 493.67 14.94
3 6 -2 440.92 14.07
-3 -6 2 481.31 14.9
-3 -6 2 485.64 14.95
-3 -6 2 491.91 16.42
3 6 -2 449.1 15.06
3 6 -2 441.85 14.91
3 6 -2 487.04 15.07
-3 -6 2 471.47 14.78
-3 -6 2 485.07 14.53
-3 -6 2 505.53 15.75
3 6 -2 474.27 15.07
3 6 -1 387.61 13.39
-3 -6 1 419.67 14.14
-3 -6 1 409.27 13.04
-3 -6 1 416.48 13.5
-3 -6 1 422.89 13.45
-3 -6 1 430.64 13.56
-3 -6 1 442.86 13.67
-3 -6 1 468.01 15.14
3 6 -1 404.44 13.53
-3 -6 1 431.64 13.14
-3 -6 1 430.62 12.61
-3 -6 1 462.48 14.69
3 6 -1 447.77 14.04
3 6 0 501.98 14.63
-3 -6 0 478.71 15.05
3 6 0 477.66 14.71
-3 -6 0 452.31 14.39
-3 -6 0 475.67 14.54
-3 -6 0 467.57 14.36
-3 -6 0 487.94 14.57
-3 -6 0 492.38 14.67
-3 -6 0 488.69 15.62
3 6 0 484.46 14.75
-3 -6 0 462.24 13.48
-3 -6 0 475.15 12.9
-3 -6 0 504.51 15.81
3 6 0 485.96 14.92
3 6 1 2.93 1.06
-3 -6 -1 3.53 0.89
3 6 1 2.64 0.92
-3 -6 -1 3.96 1.07
-3 -6 -1 4.27 1.04
-3 -6 -1 1.74 0.73
-3 -6 -1 2.71 0.84
-3 -6 -1 3.47 0.96
-3 -6 -1 4.5 1.22
-3 -6 -1 2.81 1.01
3 6 1 4.43 1.18
3 6 1 2.26 0.79
-3 -6 -1 3.53 0.75
3 6 1 2.98 0.91
-3 -6 -1 4.07 1.26
3 6 1 2.66 0.99
-3 -6 -2 1117.33 28.71
3 6 2 1096.69 29.27
-3 -6 -2 1148.53 29.03
-3 -6 -2 1151.77 29.03
-3 -6 -2 1135.76 28.96
-3 -6 -2 1149.43 29.09
-3 -6 -2 1123.57 29.56
-3 -6 -2 1162.71 29.04
-3 -6 -2 1096.03 26.51
3 6 2 1206 29.57
3 6 2 1159.04 29.31
3 6 2 1180.11 29.32
-3 -6 -3 15.66 1.92
3 6 3 22.37 2.61
-3 -6 -3 13.13 1.91
-3 -6 -3 21.29 2.37
-3 -6 -3 17.91 2.16
-3 -6 -3 15.61 2.18
-3 -6 -3 17.91 2.15
-3 -6 -3 14.36 1.24
3 6 3 18.75 2.35
3 6 3 20.43 2.24
3 6 4 8.58 1.65
-3 -6 -4 10.8 1.53
-3 -6 -4 8.1 1.59
3 6 4 9.69 1.68
-3 -6 -4 9.15 1.76
-3 -6 -4 8.92 1.56
-3 -6 -4 9.82 1.62
-3 -6 -4 9.99 1.57
-3 -6 -4 7.71 1.47
-3 -6 -4 9.72 1.67
-3 -6 -4 8.68 0.95
3 6 4 9.38 1.67
3 6 4 9.43 1.52
3 6 5 62.29 4.46
-3 -6 -5 58.11 3.73
-3 -6 -5 59.8 4.44
3 6 5 56.26 4.35
-3 -6 -5 62.14 4.67
-3 -6 -5 63.46 4.37
-3 -6 -5 62.34 4.29
-3 -6 -5 57.52 4.15
3 6 5 62.23 4.29
-3 -6 -5 64.96 4.44
-3 -6 -5 61.14 4.2
3 6 5 62.8 4.63
-3 -6 -5 63.79 4.59
-3 -6 -6 495.03 15.03
3 6 6 517.55 16.58
3 6 6 506.67 16.5
-3 -6 -6 509.28 16.67
-3 -6 -6 503.9 17.05
-3 -6 -6 512.3 16.29
3 6 6 497.94 16.25
-3 -6 -6 506.36 16.08
-3 -6 -6 529.88 16.33
3 6 6 489.66 15.59
-3 -6 -6 514.2 16.25
-3 -6 -6 511.57 16.05
3 6 6 468.41 16.77
-3 -6 -6 489.93 16.12
3 6 7 819.74 23.92
-3 -6 -7 801.38 22.22
3 6 7 846.9 24.02
-3 -6 -7 815.33 24.13
3 6 7 830.65 23.82
-3 -6 -7 803.25 23.32
-3 -6 -7 814.31 23.55
3 6 7 821.58 22.78
-3 -6 -7 840.23 23.72
-3 -6 -7 811.39 23.38
3 6 7 858.71 24.31
-3 -6 -7 748.91 22.73
-3 -6 -8 -0.57 0.67
3 6 8 -0.48 0.89
3 6 8 1.32 1.16
-3 -6 -8 0.22 1.01
3 6 8 1.38 1.08
-3 -6 -8 -0.1 0.67
3 6 8 2.69 1.01
-3 -6 -8 2.64 1.15
-3 -6 -8 1.87 1.13
-3 -6 -8 1.05 0.84
3 6 8 2.37 1.26
-3 -6 -8 1.99 1.06
3 6 9 149.26 8.09
-3 -6 -9 144.38 7.18
3 6 9 142.01 8.01
-3 -6 -9 145.61 8.36
3 6 9 127.92 7.94
3 6 9 127.45 8.13
-3 -6 -9 133.73 7.65
-3 -6 -9 135.44 7.97
3 6 9 139.99 6.87
-3 -6 -9 142.08 7.94
-3 -6 -9 131.14 7.83
-3 -6 -9 145.24 8.28
3 6 9 138.63 8.02
-3 -6 -9 132.35 6.85
-3 -6 -10 40.84 3.82
3 6 10 41.13 4.31
3 6 10 43.23 4.5
-3 -6 -10 38.77 4.39
3 6 10 42.31 4.39
3 6 10 41.22 4.38
-3 -6 -10 42.25 4.27
-3 -6 -10 39.73 4.25
3 6 10 41.81 3.59
-3 -6 -10 47.5 4.52
-3 -6 -10 36.47 4.02
-3 -6 -10 39.99 4.28
3 6 10 41.33 4.36
-3 -6 -10 33.53 3.21
3 6 11 86.19 6.72
-3 -6 -11 80.06 6.62
-3 -6 -11 79.11 6.22
-3 -6 -11 82.8 6.51
3 6 11 82.52 6.44
3 6 11 70.15 6.05
-3 -6 -11 76.08 6.09
-3 -6 -11 83.46 6.41
-3 -6 -11 76.87 6.23
3 6 11 80.67 6.45
-3 -6 -11 73.21 5.63
3 6 11 80.83 6.37
3 6 12 18.27 3.16
-3 -6 -12 20.64 3.53
-3 -6 -12 16.61 3.16
3 6 12 25.69 3.88
3 6 12 18.18 3.19
-3 -6 -12 17.72 3.03
-3 -6 -12 21.64 3.36
-3 -6 -12 17.07 3.13
3 6 12 23.41 3.59
-3 -6 -12 24.37 3.73
3 6 12 20.37 3.39
-3 -6 -12 16.9 2.93
3 6 13 70.74 6.78
-3 -6 -13 72.42 7
-3 -6 -13 75.44 6.66
-3 -6 -13 74.01 6.79
3 6 13 65.84 6.29
3 6 13 70.57 6.63
-3 -6 -13 73.85 6.7
-3 -6 -13 65.79 6.23
-3 -6 -13 70.68 6.48
3 6 13 65.41 6.21
-3 -6 -13 60.46 5.6
3 6 13 67.8 6.3
3 6 14 252.25 13.88
-3 -6 -14 222.42 13.36
-3 -6 -14 243.31 13.15
-3 -6 -14 242.17 13.51
3 6 14 236.92 13.18
3 6 14 241.02 13.46
-3 -6 -14 225.48 13.03
-3 -6 -14 225.07 12.78
-3 -6 -14 240.3 13.14
3 6 14 230.51 12.72
3 6 14 230.04 12.77
3 6 15 31.8 4.97
-3 -6 -15 32.29 5.02
-3 -6 -15 30.49 4.81
3 6 15 35.65 5.16
3 6 15 29.01 4.58
-3 -6 -15 32.39 4.78
-3 -6 -15 34.87 5.01
-3 -6 -15 37.34 5.12
3 6 15 25.48 4.13
-3 -6 -15 34.53 4.94
3 6 15 32.67 4.73
3 6 16 2.65 1.47
-3 -7 9 1.39 1.45
-3 -7 9 0 1.08
-3 -7 9 1.67 1.39
-3 -7 9 2.12 1.35
3 7 -9 0.59 1.24
-3 -7 9 -0.67 1.9
3 7 -8 0.37 1.18
-3 -7 8 0.36 1.13
-3 -7 8 0.78 1.03
-3 -7 8 -1.37 1.09
-3 -7 8 1.74 1.34
-3 -7 8 1.79 1.12
-3 -7 8 1.33 1.56
3 7 -8 1.44 1.25
3 7 -8 0.78 1.28
3 7 -8 1.78 1.89
3 7 -8 0.31 1.3
3 7 -8 0.34 1.08
3 7 -7 12.55 2.83
-3 -7 7 17.42 3.25
-3 -7 7 13.3 2.6
-3 -7 7 11.19 2.41
-3 -7 7 9.79 2.27
-3 -7 7 13.15 2.6
3 7 -7 19.71 2.86
-3 -7 7 10.34 2.5
3 7 -7 14 2.83
3 7 -7 10.12 2.49
3 7 -7 10.95 2.47
3 7 -7 13.28 2.58
3 7 -7 8.04 1.95
3 7 -6 105.01 7.64
-3 -7 6 114.16 7.79
-3 -7 6 113.01 7.24
-3 -7 6 103.61 7.02
-3 -7 6 117.67 7.44
-3 -7 6 104.33 7.11
-3 -7 6 121.23 8.59
3 7 -6 112.25 7.36
3 7 -6 109.05 7.25
3 7 -6 97.05 6.89
-3 -7 6 111.67 7.98
3 7 -6 103.59 6.97
3 7 -5 45.63 4.69
-3 -7 5 49.38 4.65
-3 -7 5 46.76 4.36
-3 -7 5 41.87 4.2
-3 -7 5 46.29 4.38
-3 -7 5 53.91 4.75
-3 -7 5 47.02 5.16
3 7 -5 43.44 4.37
3 7 -5 43.34 4.24
3 7 -5 40.47 4.15
-3 -7 5 44.09 4.59
3 7 -5 43.35 4.25
3 7 -4 1.67 1.02
-3 -7 4 -0.54 1.03
-3 -7 4 1.07 0.93
-3 -7 4 0.91 0.95
3 7 -4 -0.11 0.74
-3 -7 4 -0.08 0.8
-3 -7 4 0.79 0.68
-3 -7 4 1.49 1.16
-3 -7 4 0.62 1.02
3 7 -4 2.35 1.28
3 7 -4 0.87 0.84
-3 -7 4 0.74 0.83
3 7 -4 -0.35 0.96
3 7 -4 1.95 1.29
-3 -7 4 2.17 0.99
3 7 -3 0.88 0.91
-3 -7 3 3.01 1.22
-3 -7 3 0.78 0.87
-3 -7 3 2.43 1.09
3 7 -3 0.96 0.74
-3 -7 3 0.45 0.73
-3 -7 3 2.37 0.9
-3 -7 3 0.8 0.82
-3 -7 3 -0.29 1.15
3 7 -3 2.09 1.11
3 7 -3 0.96 0.78
-3 -7 3 0.21 0.79
3 7 -3 0.89 0.8
3 7 -3 2.04 1.06
-3 -7 3 1.88 0.96
3 7 -2 84.78 5.78
-3 -7 2 94.97 5.91
-3 -7 2 92.57 5.63
-3 -7 2 88.71 5.49
-3 -7 2 88.04 5.44
-3 -7 2 86.82 5.49
-3 -7 2 85.53 5.46
3 7 -2 78.75 4.68
-3 -7 2 92.04 6.38
3 7 -2 82.77 5.56
3 7 -2 86.51 5.51
3 7 -2 90.42 5.64
-3 -7 2 83.7 5.32
-3 -7 2 90.91 6
3 7 -2 94.58 5.73
-3 -7 1 3.86 1.18
-3 -7 1 4.16 1.18
-3 -7 1 2.9 0.96
-3 -7 1 2.22 0.82
-3 -7 1 4.71 1.27
-3 -7 1 5.61 1.2
-3 -7 1 6.3 1.76
3 7 -1 5.14 1.3
-3 -7 1 5.24 1.18
3 7 -1 4.27 1.3
-3 -7 1 4.77 1.51
3 7 0 281.9 10.46
-3 -7 0 298.96 10.77
-3 -7 0 305.12 11.68
3 7 0 313.99 11.42
-3 -7 0 308.07 11.27
-3 -7 0 327.56 11.43
-3 -7 0 298.89 11.15
-3 -7 0 323.82 11.47
-3 -7 0 321.96 12.32
3 7 0 307.79 11.41
-3 -7 0 306.89 10.33
3 7 0 316.87 11.52
3 7 1 878.45 24.23
-3 -7 -1 952.5 25.84
3 7 1 932.58 25.46
-3 -7 -1 951.12 25.41
-3 -7 -1 954.06 25.47
-3 -7 -1 982.67 25.64
-3 -7 -1 973.18 25.61
-3 -7 -1 876.84 25
-3 -7 -1 966.69 25.51
-3 -7 -1 933.26 23.65
3 7 1 933.68 25.57
3 7 1 940.16 25.71
-3 -7 -2 1660.99 41.1
3 7 2 1661.78 41.5
-3 -7 -2 1707.83 41.18
-3 -7 -2 1695.69 41.15
-3 -7 -2 1704.87 41.21
-3 -7 -2 1719.21 41.3
-3 -7 -2 1647.65 41.31
-3 -7 -2 1743.73 41.31
-3 -7 -2 1662.34 38.67
3 7 2 1671.4 41.3
3 7 2 1686.12 41.11
3 7 2 1777.13 41.15
-3 -7 -3 172.88 7.58
3 7 3 169.54 8.08
-3 -7 -3 178.68 7.9
-3 -7 -3 174.67 7.79
-3 -7 -3 169.27 7.71
-3 -7 -3 169.99 8.08
-3 -7 -3 173.73 7.77
3 7 3 171.1 8.03
-3 -7 -3 166.12 6
3 7 3 181.36 7.6
-3 -7 -4 69.8 4.51
3 7 4 81.23 5.29
-3 -7 -4 72.67 4.83
-3 -7 -4 75.77 4.89
-3 -7 -4 72.36 4.79
-3 -7 -4 70.24 5.1
-3 -7 -4 65.08 4.59
3 7 4 72.41 5.06
-3 -7 -4 71.59 3.45
3 7 4 77.79 4.61
-3 -7 -5 2.46 0.92
3 7 5 4.6 1.28
-3 -7 -5 4.41 1.23
-3 -7 -5 1.51 0.58
-3 -7 -5 4.81 1.28
3 7 5 3.29 1.31
-3 -7 -5 3.58 1.2
-3 -7 -5 2.52 0.94
-3 -7 -5 3.15 1.1
-3 -7 -5 2.19 0.99
3 7 5 4.5 1.4
-3 -7 -5 3.53 0.82
3 7 5 4.38 1.14
-3 -7 -6 36.27 3.56
-3 -7 -6 34.07 3.46
-3 -7 -6 32.75 3.41
3 7 6 40.08 3.87
-3 -7 -6 38.69 3.88
-3 -7 -6 34.53 3.77
-3 -7 -6 37.31 3.63
-3 -7 -6 40.32 3.68
3 7 6 37.52 3.81
-3 -7 -6 37.6 3.25
3 7 6 41.8 3.9
3 7 7 2.55 1.13
-3 -7 -7 0.94 0.64
-3 -7 -7 2.23 1.1
-3 -7 -7 1.21 0.83
3 7 7 3.8 1.4
-3 -7 -7 1.19 1
-3 -7 -7 2.12 1.24
-3 -7 -7 2.16 0.96
-3 -7 -7 1.94 1.19
3 7 7 1.88 1.08
-3 -7 -7 1.71 1.09
3 7 8 319.88 12.77
-3 -7 -8 298.08 11.65
3 7 8 298.57 12.69
-3 -7 -8 297.82 12.34
-3 -7 -8 313.56 12.71
3 7 8 287.94 12.57
-3 -7 -8 295.76 12.88
-3 -7 -8 328.97 12.93
-3 -7 -8 318.96 12.63
3 7 8 301.34 12.75
-3 -7 -8 317.31 12.31
3 7 9 123.34 7.63
-3 -7 -9 113.22 6.68
3 7 9 114.53 7.44
-3 -7 -9 114.78 7.31
-3 -7 -9 114.59 7.33
3 7 9 115.35 7.5
-3 -7 -9 122.57 7.91
-3 -7 -9 128.32 7.72
-3 -7 -9 113.37 7.23
3 7 9 121.22 7.59
-3 -7 -9 104.31 6.48
3 7 10 2.8 1.41
-3 -7 -10 1.15 1.03
3 7 10 2.91 1.31
-3 -7 -10 1.99 1.38
3 7 10 3.24 1.67
-3 -7 -10 3.08 1.81
-3 -7 -10 2.85 0.99
-3 -7 -10 3.64 1.35
-3 -7 -10 1.79 1.13
3 7 10 1.98 1.2
-3 -7 -10 2.22 0.99
3 7 11 96.63 7.44
-3 -7 -11 86.47 7.14
-3 -7 -11 94.11 7.02
-3 -7 -11 103.25 7.48
3 7 11 94.66 7.2
3 7 11 98.75 7.42
-3 -7 -11 92.75 7.15
-3 -7 -11 96.37 7.19
-3 -7 -11 83.94 6.66
3 7 11 91.47 7
3 7 11 99.24 7.21
-3 -7 -11 98.56 6.72
3 7 12 68.14 6.36
-3 -7 -12 73.21 6.8
-3 -7 -12 68.91 6.23
-3 -7 -12 69.61 6.4
3 7 12 68.06 6.4
3 7 12 67.52 6.46
-3 -7 -12 67.65 6.15
-3 -7 -12 71.2 6.45
-3 -7 -12 64.6 6.02
3 7 12 62.83 6.02
-3 -7 -12 65.15 5.61
3 7 12 64.67 6.09
3 7 13 52.12 5.84
-3 -7 -13 59.46 6.38
-3 -7 -13 56.95 5.87
-3 -7 -13 61.14 6.27
3 7 13 61.01 6.27
3 7 13 60.4 6.26
-3 -7 -13 52.33 5.69
-3 -7 -13 56.67 5.94
-3 -7 -13 55.39 5.95
3 7 13 57.41 5.93
-3 -7 -13 57.19 5.56
3 7 13 60.04 5.98
3 7 14 25.11 4.28
-3 -7 -14 18.66 3.63
-3 -7 -14 24.96 4.25
3 7 14 27.02 4.36
3 7 14 24.93 4.11
-3 -7 -14 26.36 4.23
-3 -7 -14 28.84 4.37
-3 -7 -14 22.71 3.92
3 7 14 24.71 4.06
-3 -7 -14 29.43 4.52
3 7 14 28.55 4.22
3 7 15 89.52 8.42
-3 -7 -15 107.69 9.39
-3 -7 -15 93.28 8.31
-3 -7 -15 100.18 8.82
3 7 15 87.86 8.29
3 7 15 93.13 8.62
-3 -7 -15 95.25 8.38
-3 -7 -15 102.35 8.74
-3 -7 -15 93.12 8.52
3 7 15 97.21 8.23
3 7 15 96.46 8.18
3 7 16 178.44 11.76
-3 -8 8 39.75 4.92
-3 -8 8 33.93 4.59
-3 -8 8 43.4 5.1
-3 -8 8 44.44 5.21
3 8 -8 31.71 4.48
3 8 -8 43.58 5.09
3 8 -8 33.84 4.9
-3 -8 8 35.33 4.88
3 8 -7 -0.63 1.47
-3 -8 7 -0.26 1.34
-3 -8 7 -0.34 1.36
-3 -8 7 1.82 1.2
-3 -8 7 1.98 1.38
-3 -8 7 -1.72 1.37
3 8 -7 0.34 0.9
-3 -8 7 -0.83 1.34
3 8 -7 -0.81 0.94
3 8 -7 0.34 1.13
3 8 -7 3.1 1.6
-3 -8 7 0.34 1.05
3 8 -7 -0.25 1.38
3 8 -7 -0.59 1.24
3 8 -6 48.71 5.4
-3 -8 6 57.84 5.69
-3 -8 6 52.57 5.25
-3 -8 6 49.16 5.02
-3 -8 6 55.51 5.36
-3 -8 6 55.43 5.4
-3 -8 6 65.21 6.48
3 8 -6 61.64 5.27
3 8 -6 44.12 4.99
3 8 -6 49.57 4.93
3 8 -6 54.17 5.35
-3 -8 6 55.44 5.92
3 8 -6 60.82 5.46
-3 -8 5 7.97 2.16
3 8 -5 4.72 2
-3 -8 5 3.35 1.27
-3 -8 5 9.29 2.26
-3 -8 5 6.32 1.99
-3 -8 5 9.07 2.27
-3 -8 5 5.54 2
3 8 -5 7.83 2.12
3 8 -5 6.53 1.82
-3 -8 5 9.42 2.32
3 8 -5 7.35 1.81
3 8 -5 8.52 2.18
3 8 -4 135.58 8.54
-3 -8 4 154.86 8.84
-3 -8 4 146.52 8.23
-3 -8 4 138.88 7.99
-3 -8 4 140.18 8.01
-3 -8 4 153.74 8.46
-3 -8 4 153.97 8.43
-3 -8 4 152.72 9.72
3 8 -4 143.96 8.35
3 8 -4 131.97 7.89
3 8 -4 136.86 7.82
-3 -8 4 136.74 8.44
3 8 -4 143.44 8.17
3 8 -3 143.77 8.59
-3 -8 3 145.64 8.44
-3 -8 3 157.73 8.31
-3 -8 3 159.97 8.36
-3 -8 3 159.02 8.28
-3 -8 3 143.43 8
-3 -8 3 145.07 8.01
-3 -8 3 144.68 9.01
3 8 -3 143.07 8.16
3 8 -3 142.59 7.81
3 8 -3 131.41 7.73
-3 -8 3 150.21 8.26
-3 -8 3 147.36 8.52
3 8 -3 143.15 7.95
3 8 -2 1.04 1.06
-3 -8 2 1.59 0.97
-3 -8 2 2 0.98
-3 -8 2 2.33 1.05
-3 -8 2 0.82 0.7
-3 -8 2 -0.39 0.88
-3 -8 2 1.7 1.12
-3 -8 2 2.13 1.39
3 8 -2 0.88 1.11
3 8 -2 1.26 0.99
-3 -8 2 0.97 0.85
3 8 -2 1.69 1.13
3 8 -2 2.51 1.17
-3 -8 2 0.78 0.85
-3 -8 1 45.59 4.37
3 8 -1 37.23 3.94
-3 -8 1 47.94 4.33
-3 -8 1 48.93 4.08
-3 -8 1 41.57 3.84
-3 -8 1 48.67 4.1
-3 -8 1 47.31 4.07
-3 -8 1 49.41 4.16
-3 -8 1 49.26 4.78
3 8 -1 38.25 3.84
-3 -8 1 41.79 3.63
3 8 -1 46.08 4.09
3 8 -1 41.23 3.78
-3 -8 1 45.79 4.57
3 8 -1 44.12 4
-3 -8 0 2 1.1
-3 -8 0 1.13 0.6
-3 -8 0 1.01 1.01
-3 -8 0 1.96 0.98
-3 -8 0 2.03 1.24
-3 -8 0 1.56 0.72
-3 -8 0 1.26 1.26
3 8 0 1.87 1
-3 -8 0 1.63 0.72
3 8 0 3.28 1.32
3 8 1 141.13 6.75
-3 -8 -1 172.04 8.44
3 8 1 183.71 8.37
-3 -8 -1 176.97 8.23
-3 -8 -1 163.98 8.03
-3 -8 -1 173.6 8.2
-3 -8 -1 172.84 8.2
-3 -8 -1 168.95 7.75
-3 -8 -1 176.71 8.24
-3 -8 -1 171.26 7.15
3 8 1 162.06 8.1
3 8 1 181.13 8.44
3 8 2 464.12 14.83
-3 -8 -2 516.53 17.03
3 8 2 562.84 17.37
-3 -8 -2 543.23 16.98
-3 -8 -2 524.62 16.87
-3 -8 -2 526.81 16.89
-3 -8 -2 535.91 17.01
-3 -8 -2 498.67 16.53
-3 -8 -2 541.62 16.97
-3 -8 -2 505.61 14.86
3 8 2 510.65 16.93
3 8 2 557.58 17.24
3 8 2 519.94 17.02
-3 -8 -3 2.1 1.13
-3 -8 -3 3.49 1.15
-3 -8 -3 3.03 1.14
-3 -8 -3 2.35 0.98
-3 -8 -3 0.64 0.91
-3 -8 -3 1.45 0.95
3 8 3 1.09 0.78
3 8 3 0.02 0.61
3 8 3 0.37 0.69
-3 -8 -3 0.4 0.79
3 8 3 0.71 0.83
3 8 4 487.06 16.14
-3 -8 -4 472.18 15.53
-3 -8 -4 472.65 15.87
-3 -8 -4 449.92 15.61
-3 -8 -4 446.14 15.59
-3 -8 -4 472.99 16.34
-3 -8 -4 493.82 16.03
3 8 4 495.27 16.4
3 8 5 299.37 11.96
-3 -8 -5 290.22 11.29
-3 -8 -5 287.04 11.68
-3 -8 -5 278.92 11.46
-3 -8 -5 286.47 11.6
-3 -8 -5 297.44 12.4
-3 -8 -5 291.77 12.23
3 8 5 274.03 11.8
-3 -8 -5 294.56 11.79
-3 -8 -5 300.33 11.74
3 8 5 289.67 11.86
3 8 5 273.96 10.31
3 8 6 203.03 9.7
-3 -8 -6 188.41 8.68
-3 -8 -6 190.1 9.24
-3 -8 -6 184.85 9.11
-3 -8 -6 189.46 9.15
3 8 6 185.51 9.42
-3 -8 -6 193.88 9.77
-3 -8 -6 196.28 9.95
-3 -8 -6 183.7 9.1
-3 -8 -6 201.74 9.36
3 8 6 205.84 9.75
3 8 6 173.06 7.72
-3 -8 -7 40.46 3.74
3 8 7 44.78 4.36
-3 -8 -7 42.56 4.22
-3 -8 -7 38.13 3.99
-3 -8 -7 35.68 3.88
3 8 7 35.23 4
-3 -8 -7 39.49 4.26
-3 -8 -7 42.33 4.14
-3 -8 -7 39.21 4.07
3 8 7 43.62 4.33
3 8 7 37.2 3.23
3 8 8 1.94 1.15
-3 -8 -8 0.19 0.8
-3 -8 -8 -0.1 1
-3 -8 -8 0.75 1.1
3 8 8 1.35 1.06
-3 -8 -8 -0.55 0.99
-3 -8 -8 0.7 0.91
-3 -8 -8 0.4 1.12
-3 -8 -8 0.49 0.98
3 8 8 0.72 0.72
-3 -8 -8 1.06 1.02
-3 -8 -9 1.36 0.83
3 8 9 4.62 1.7
3 8 9 1.65 1.11
-3 -8 -9 1.38 1.04
3 8 9 2.35 1.36
-3 -8 -9 2.15 1.25
-3 -8 -9 0.12 0.77
-3 -8 -9 2.23 1.3
-3 -8 -9 1.37 0.95
3 8 9 1.82 1.25
-3 -8 -9 3.17 1.26
3 8 10 174.1 9.94
-3 -8 -10 168.86 9.11
3 8 10 178.83 10.28
-3 -8 -10 198.43 10.51
-3 -8 -10 183.87 10.35
3 8 10 175.61 10.23
-3 -8 -10 187.78 10.76
-3 -8 -10 192.8 10.38
-3 -8 -10 178.31 9.97
3 8 10 198.52 10.53
-3 -8 -10 169.61 9.08
3 8 11 38.5 4.73
-3 -8 -11 37.8 4.85
-3 -8 -11 30.67 4.23
-3 -8 -11 43.73 4.94
3 8 11 39.94 4.79
-3 -8 -11 40.27 4.72
-3 -8 -11 39.19 4.65
3 8 11 38.57 4.67
3 8 11 37.66 4.5
-3 -8 -11 35.84 4.07
3 8 12 114.75 8.64
-3 -8 -12 116.16 8.94
-3 -8 -12 108.06 8.12
-3 -8 -12 121.96 8.75
3 8 12 105.87 8.2
-3 -8 -12 118.81 8.52
-3 -8 -12 119.82 8.49
3 8 12 104.45 8.04
3 8 12 104.72 7.91
-3 -8 -12 111.54 7.74
3 8 13 30.79 4.6
-3 -8 -13 34.04 5
-3 -8 -13 35.4 4.94
3 8 13 31.58 4.55
-3 -8 -13 28.77 4.28
-3 -8 -13 37.88 4.91
-3 -8 -13 33.21 4.6
3 8 13 36.59 4.79
3 8 13 35.92 4.78
-3 -8 -13 33.81 4.35
3 8 14 131.22 9.95
-3 -8 -14 104.27 9.15
-3 -8 -14 120.48 9.27
-3 -8 -14 104.44 8.88
3 8 14 126.1 9.6
-3 -8 -14 124.02 9.45
-3 -8 -14 120.28 9.23
3 8 14 119.98 9.12
3 8 14 117.13 8.92
3 8 15 86.64 8.25
-3 -8 -15 77.36 8.07
3 8 15 65.34 7.27
3 8 15 77.28 7.92
-3 -8 -15 75.72 7.63
-3 -8 -15 73.19 7.68
3 8 15 74.88 7.25
3 8 15 76.98 7.35
-3 -8 -15 86.14 8.28
-3 -8 -15 79.81 7.76
-3 -8 -15 78.52 7.69
3 9 -7 1.37 1.33
3 9 -7 3.35 1.55
3 9 -6 42.34 5.23
-3 -9 6 41.29 5.04
-3 -9 6 39.81 4.88
-3 -9 6 39.54 4.8
-3 -9 6 36.35 4.6
-3 -9 6 35.93 4.72
-3 -9 6 41.91 5.51
3 9 -6 49.54 4.96
3 9 -6 35.93 4.64
3 9 -6 36.29 4.4
3 9 -6 39.48 4.78
3 9 -6 45.92 4.93
3 9 -5 37.96 4.94
-3 -9 5 37.07 4.69
-3 -9 5 45.86 5.06
-3 -9 5 42.84 4.76
-3 -9 5 36.43 4.43
-3 -9 5 49.61 5.18
-3 -9 5 50.93 5.84
3 9 -5 35.64 4.61
3 9 -5 44.06 4.59
3 9 -5 41.54 4.85
3 9 -5 40.76 4.51
3 9 -4 285.73 13.95
-3 -9 4 303.94 14.04
-3 -9 4 300.46 13.48
-3 -9 4 315.79 13.69
-3 -9 4 298.29 13.28
-3 -9 4 297.42 13.41
-3 -9 4 322.2 13.8
-3 -9 4 325.14 15.35
3 9 -4 293.11 13.59
3 9 -4 293.8 12.73
3 9 -4 303.43 13.47
3 9 -4 296.21 13.07
3 9 -3 26.09 3.73
-3 -9 3 13.62 2.6
-3 -9 3 13.73 2.54
-3 -9 3 16.62 2.82
-3 -9 3 16.66 2.8
-3 -9 3 15.91 2.78
-3 -9 3 13.26 2.54
-3 -9 3 12.5 2.55
3 9 -3 27.45 3.78
3 9 -3 25.87 3.46
3 9 -3 20.36 2.91
3 9 -3 27.5 3.57
-3 -9 3 22.62 3.46
3 9 -2 282.64 12.98
-3 -9 2 285.28 12.8
-3 -9 2 295.61 12.41
-3 -9 2 280.61 12.17
-3 -9 2 280.71 12.11
-3 -9 2 265.89 11.94
-3 -9 2 294.14 12.41
-3 -9 2 305.46 14.06
3 9 -2 269.21 12.25
3 9 -2 270.24 12.07
3 9 -2 269.76 11.48
-3 -9 2 299.21 13.19
3 9 -2 270.82 11.92
-3 -9 1 20.88 3.12
3 9 -1 24.96 3.45
-3 -9 1 28.3 3.58
-3 -9 1 24.63 3.11
-3 -9 1 21.73 3.03
-3 -9 1 26.86 3.28
-3 -9 1 27.36 3.31
-3 -9 1 22.95 3.04
-3 -9 1 23.95 3.6
3 9 -1 26.15 3.39
3 9 -1 21.97 3.09
3 9 -1 23.36 2.97
3 9 -1 26.38 3.27
-3 -9 0 96.2 6.75
-3 -9 0 100.7 6.47
-3 -9 0 105.9 6.56
-3 -9 0 102.93 6.52
-3 -9 0 109.03 6.67
-3 -9 0 95.35 7.03
3 9 0 93.56 6.4
3 9 0 95.95 6.35
-3 -9 -1 125.91 7.64
3 9 1 118.79 7.07
-3 -9 -1 124.17 7.23
-3 -9 -1 131.97 7.35
-3 -9 -1 133.99 7.51
-3 -9 -1 126.91 7.32
-3 -9 -1 123.16 6.58
-3 -9 -1 135.67 7.48
3 9 1 127.61 7.42
3 9 1 120.49 7.18
-3 -9 -2 199.42 9.71
3 9 2 201.85 9.63
-3 -9 -2 204.37 9.6
-3 -9 -2 201.82 9.61
-3 -9 -2 207.81 9.71
-3 -9 -2 198.85 9.59
-3 -9 -2 190.04 8.89
-3 -9 -2 207.8 9.68
3 9 2 194.35 9.55
3 9 2 191.88 9.31
-3 -9 -3 445.48 15.75
-3 -9 -3 442.43 15.75
-3 -9 -3 445.86 15.83
-3 -9 -3 445.42 15.84
-3 -9 -3 413.14 15.33
-3 -9 -3 458.05 15.85
3 9 3 427.02 15.79
3 9 3 466.9 16
-3 -9 -3 431.39 15.76
3 9 3 446.14 15.92
-3 -9 -4 209.85 9.81
-3 -9 -4 203.37 9.71
-3 -9 -4 203.33 9.7
-3 -9 -4 212.33 9.89
-3 -9 -4 199.97 9.84
-3 -9 -4 211.74 9.8
3 9 4 184.63 9.46
3 9 4 211.99 9.86
3 9 4 204.66 9.81
-3 -9 -4 188.05 9.36
3 9 5 38.82 4.06
-3 -9 -5 29.41 3.38
-3 -9 -5 33.4 3.67
-3 -9 -5 36.95 3.83
-3 -9 -5 30.09 3.49
-3 -9 -5 39.05 4.19
-3 -9 -5 31.9 3.59
3 9 5 40.15 4.12
3 9 5 28.52 2.88
3 9 6 6.61 1.84
-3 -9 -6 3.19 1.42
-3 -9 -6 3.46 1.49
-3 -9 -6 4.31 1.8
-3 -9 -6 5.44 1.8
-3 -9 -6 5.53 1.93
3 9 6 5.39 1.77
-3 -9 -6 2.4 1.38
-3 -9 -6 6.6 1.85
-3 -9 -6 5.81 1.75
3 9 6 7.41 2.07
3 9 6 2.94 0.95
3 9 7 22.57 3.3
-3 -9 -7 22.56 2.99
-3 -9 -7 26.14 3.49
-3 -9 -7 21.31 3.1
-3 -9 -7 18.29 2.98
-3 -9 -7 24.61 3.54
3 9 7 20.13 3.22
-3 -9 -7 20.79 3.47
-3 -9 -7 22.57 3.13
-3 -9 -7 23.22 3.39
3 9 7 28.85 3.62
3 9 7 19.01 2.33
-3 -9 -8 8.78 2.2
-3 -9 -8 7.05 1.9
-3 -9 -8 8.67 2.15
3 9 8 5.67 1.88
-3 -9 -8 10.65 2.48
-3 -9 -8 7.79 2.03
-3 -9 -8 8.63 2.18
3 9 8 9.86 2.28
3 9 8 9.8 2.22
-3 -9 -8 12.83 2.39
3 9 9 2.59 1.41
-3 -9 -9 3.22 1.21
-3 -9 -9 5.2 1.95
-3 -9 -9 4.11 1.64
3 9 9 3.96 1.6
-3 -9 -9 4.84 1.96
-3 -9 -9 3.6 1.55
-3 -9 -9 0.99 0.97
-3 -9 -9 2.83 1.42
3 9 9 5.22 1.86
-3 -9 -9 3.73 1.28
3 9 10 109.22 7.73
-3 -9 -10 114.99 7.5
-3 -9 -10 112.49 8.11
-3 -9 -10 104.93 7.68
-3 -9 -10 108.29 7.88
3 9 10 111.76 8.24
-3 -9 -10 110.1 8.37
-3 -9 -10 114.18 8.07
-3 -9 -10 102.82 7.59
3 9 10 122.88 8.26
-3 -9 -10 110.57 7.51
3 9 11 404.68 17.55
-3 -9 -11 406.39 17.91
-3 -9 -11 403.84 17.12
-3 -9 -11 406.36 17.38
-3 -9 -11 380.15 17.02
3 9 11 396.76 17.29
-3 -9 -11 408.44 17.32
-3 -9 -11 397.09 17.01
3 9 11 424.99 17.5
3 9 11 421.33 17.18
-3 -9 -11 368.4 15.81
3 9 12 125.91 9.24
-3 -9 -12 125.07 9.5
-3 -9 -12 119.68 8.83
-3 -9 -12 118.13 8.89
3 9 12 116.51 8.89
-3 -9 -12 117.67 8.82
-3 -9 -12 127.14 9.08
3 9 12 119.44 8.71
3 9 12 131.81 8.99
-3 -9 -12 122.58 8.43
3 9 13 24.93 4.46
-3 -9 -13 27.66 4.72
-3 -9 -13 26.26 4.39
3 9 13 33.05 4.87
-3 -9 -13 31.19 4.61
-3 -9 -13 28.13 4.38
-3 -9 -13 28.44 4.37
3 9 13 29.68 4.44
-3 -9 -13 26.23 3.9
3 9 13 31.44 4.48
3 9 14 116.45 9.62
-3 -9 -14 108.77 9.53
3 9 14 113.82 9.4
-3 -9 -14 118.39 9.41
-3 -9 -14 111.44 9.32
-3 -9 -14 112.26 9.17
-3 -9 -14 128.99 9.67
3 9 14 121.55 9.22
3 9 14 113.89 8.95
3 9 15 107.79 8.84
3 9 15 99.25 8.54
3 10 -5 283.19 14.74
-3 -10 5 308.27 15
-3 -10 5 300.11 14.27
-3 -10 5 286.79 13.93
-3 -10 5 287.97 14.04
-3 -10 5 306.45 14.43
-3 -10 5 280.24 15.4
3 10 -5 303.97 13.62
3 10 -5 272.89 13.88
3 10 -5 267.95 13.55
3 10 -5 265.01 13.22
3 10 -4 100.17 8.1
-3 -10 4 129.21 8.97
-3 -10 4 123.05 8.29
-3 -10 4 109.42 7.85
-3 -10 4 117.24 8.14
-3 -10 4 129.87 8.55
-3 -10 4 126.56 8.42
-3 -10 4 127.15 9.59
3 10 -4 100.38 7.78
3 10 -4 94.66 6.99
3 10 -4 115.77 8.15
3 10 -4 112.12 7.82
3 10 -3 79.57 6.93
-3 -10 3 84.38 6.91
-3 -10 3 73.86 6.09
-3 -10 3 81.51 6.45
-3 -10 3 76.55 6.24
-3 -10 3 73.84 6.15
-3 -10 3 84.27 6.62
-3 -10 3 64.22 6.6
3 10 -3 73.12 6.33
3 10 -3 64.79 5.83
3 10 -3 70.46 5.71
3 10 -3 76.79 6.24
3 10 -2 4.28 1.52
-3 -10 2 3.64 1.72
-3 -10 2 0.56 1.02
-3 -10 2 2.25 1.35
-3 -10 2 1.21 0.93
-3 -10 2 1.94 1.27
-3 -10 2 3.66 1.63
-3 -10 2 -0.63 1.25
3 10 -2 0.17 0.98
3 10 -2 3.13 1.51
3 10 -2 3.52 1.49
3 10 -2 3.04 1.4
-3 -10 2 1.29 1.5
-3 -10 1 64.23 6.05
3 10 -1 56.11 5.61
-3 -10 1 72.88 6.18
-3 -10 1 71.79 5.8
-3 -10 1 69.52 5.63
-3 -10 1 71.21 5.73
-3 -10 1 68.96 5.66
-3 -10 1 69.49 5.68
-3 -10 1 68.33 6.48
3 10 -1 62.64 5.62
3 10 -1 65.18 5.22
3 10 -1 68.64 5.73
3 10 -1 65.07 5.47
-3 -10 0 44.48 4.82
-3 -10 0 60.52 5.27
-3 -10 0 51.89 4.88
-3 -10 0 57.6 5.17
-3 -10 0 50.49 4.79
-3 -10 0 49.18 5.34
3 10 0 49.97 4.45
3 10 0 54.92 5.05
3 10 0 53.54 4.82
-3 -10 -1 27.88 3.73
-3 -10 -1 24.3 3.33
-3 -10 -1 26.24 3.45
-3 -10 -1 21.54 3.11
-3 -10 -1 27.41 3.54
3 10 1 24 3.38
3 10 1 20.67 3.02
-3 -10 -2 179.7 9.75
3 10 2 179.45 9.38
-3 -10 -2 182.92 9.49
-3 -10 -2 173.09 9.32
-3 -10 -2 177.18 9.42
-3 -10 -2 181.79 9.49
-3 -10 -2 185.37 9.6
3 10 2 184.22 9.65
3 10 2 175.15 9.27
3 10 3 25.54 3.31
-3 -10 -3 20.9 3.11
-3 -10 -3 22.48 3.1
-3 -10 -3 25.43 3.41
-3 -10 -3 18.79 2.85
-3 -10 -3 21.65 3.09
-3 -10 -3 22.04 3.01
-3 -10 -3 21.41 3.04
3 10 3 23.47 3.19
3 10 3 25.39 3.32
-3 -10 -4 3.98 1.41
-3 -10 -4 6.31 1.81
-3 -10 -4 3.78 1.57
-3 -10 -4 5.57 1.73
-3 -10 -4 4.16 1.4
-3 -10 -4 4.65 1.53
3 10 4 3.58 1.41
3 10 4 4.75 1.31
-3 -10 -4 3.73 1.55
3 10 4 4.88 1.51
-3 -10 -5 213.06 10.59
-3 -10 -5 205.99 10.43
-3 -10 -5 215.48 10.65
-3 -10 -5 201.1 10.72
-3 -10 -5 225.17 10.8
3 10 5 245.01 11.28
3 10 5 206.78 10.59
-3 -10 -5 202.19 10.45
-3 -10 -6 18.77 3.02
-3 -10 -6 21.33 3.27
-3 -10 -6 22.91 3.38
-3 -10 -6 21.35 3.36
-3 -10 -6 24.36 3.3
3 10 6 21.07 3.21
-3 -10 -6 21.58 3.17
3 10 6 22.56 3.22
-3 -10 -7 2.55 1.4
-3 -10 -7 2.61 1.2
-3 -10 -7 3.04 1.41
-3 -10 -7 0.04 0.77
-3 -10 -7 5.01 1.89
-3 -10 -7 1.63 1.27
3 10 7 3.71 1.45
3 10 7 0.23 0.92
-3 -10 -7 1.56 0.74
-3 -10 -8 42.56 4.75
-3 -10 -8 35.25 4.3
-3 -10 -8 38.44 4.43
-3 -10 -8 36.53 4.66
3 10 8 30.5 4.11
-3 -10 -8 36.78 4.77
-3 -10 -8 30.61 3.9
-3 -10 -8 40.72 4.57
3 10 8 35.25 4.35
3 10 8 35.51 4.28
-3 -10 -8 38.32 4.32
-3 -10 -9 -0.52 1.3
-3 -10 -9 -0.12 1.11
-3 -10 -9 -0.54 1.19
3 10 9 2.63 1.38
-3 -10 -9 0.89 1.04
-3 -10 -9 2.16 1.29
-3 -10 -9 0.92 1.07
-3 -10 -9 0.64 1
3 10 9 0.42 0.84
3 10 10 284.73 13.81
-3 -10 -10 290.08 13.72
-3 -10 -10 300.7 14.5
-3 -10 -10 296.6 14.34
-3 -10 -10 291.17 14.11
3 10 10 286.07 14.49
-3 -10 -10 316.62 15.39
-3 -10 -10 311.2 14.59
-3 -10 -10 318.27 14.56
3 10 10 321.72 14.88
-3 -10 -10 297.77 13.97
-3 -10 -11 6.88 2.26
-3 -10 -11 7.4 2.28
3 10 11 7.85 2.37
-3 -10 -11 10.26 2.97
-3 -10 -11 7.47 2.28
-3 -10 -11 7.18 2.11
-3 -10 -11 9.94 2.51
3 10 11 8.01 2.23
-3 -10 -11 6.5 1.96
3 10 11 9.33 2.48
3 10 12 -1.56 1.31
-3 -10 -12 2.16 1.73
-3 -10 -12 0.93 1.08
-3 -10 -12 1.28 1.68
3 10 12 2.21 1.48
-3 -10 -12 2.01 1.65
-3 -10 -12 -1.15 1.53
-3 -10 -12 1.8 1.56
-3 -10 -12 -1.94 1.75
3 10 12 -0.27 0.85
3 10 12 1.3 1.17
3 10 13 40.39 5.54
-3 -10 -13 38.73 5.57
-3 -10 -13 38.44 5.3
-3 -10 -13 42.59 5.68
-3 -10 -13 54.06 6.46
-3 -10 -13 47.45 5.86
-3 -10 -13 43.63 5.6
3 10 13 46.99 5.62
3 10 13 43.7 5.33
-3 -10 -13 40 5.02
3 10 14 5.39 2.3
-3 -10 -14 6.69 3
3 10 14 8.3 2.61
-3 -10 -14 5.43 2.94
-3 -10 -14 9.55 2.92
-3 -10 -14 6.51 2.36
-3 -10 -14 3.08 1.77
-3 -10 -14 8.16 2.81
3 10 14 7.13 2.54
3 10 14 4.36 2.06
3 10 15 189.56 11.99
3 11 -4 1.11 1.73
-3 -11 4 -0.25 1.24
-3 -11 4 -1.28 1.47
-3 -11 4 1.18 1.45
-3 -11 4 -0.17 1.36
-3 -11 4 2.79 1.66
3 11 -4 1.15 1.23
-3 -11 4 1.1 1.45
3 11 -4 -0.19 1.14
3 11 -4 1 1.17
3 11 -4 -0.12 1.09
3 11 -3 33.04 4.71
-3 -11 3 32.82 4.64
-3 -11 3 37.08 4.63
-3 -11 3 33.46 4.43
-3 -11 3 38.3 4.68
-3 -11 3 33.09 4.4
-3 -11 3 32.9 4.4
-3 -11 3 42.68 5.77
3 11 -3 34.3 4.51
3 11 -3 37.55 4.65
3 11 -3 34.98 4.37
3 11 -2 48.03 5.55
-3 -11 2 52.48 5.75
-3 -11 2 51.07 5.36
-3 -11 2 55.32 5.52
-3 -11 2 53.82 5.41
-3 -11 2 52.04 5.37
-3 -11 2 57.72 5.67
-3 -11 2 53.52 6.17
3 11 -2 54.73 5.58
3 11 -2 50.98 5.29
3 11 -2 50.53 5.14
-3 -11 2 57.13 6.09
-3 -11 1 175.93 11.11
3 11 -1 173.28 10.81
-3 -11 1 199.94 11.44
-3 -11 1 204.58 10.88
-3 -11 1 213.49 11.01
-3 -11 1 208.95 10.94
-3 -11 1 202.81 10.88
-3 -11 1 215.25 11.19
-3 -11 1 198.77 12.06
3 11 -1 182.39 10.62
3 11 -1 190.21 10.57
-3 -11 1 194.15 11.66
3 11 -1 191.21 10.35
-3 -11 0 249.06 13.09
3 11 0 238.87 12.62
-3 -11 0 273.04 13.23
-3 -11 0 270.34 12.67
-3 -11 0 252.37 12.4
-3 -11 0 249.34 12.21
-3 -11 0 259.52 12.51
-3 -11 0 262.83 12.59
-3 -11 0 251.77 13.65
3 11 0 232.23 12.26
3 11 0 244.19 12.3
3 11 0 254.27 12.04
-3 -11 -1 140.27 9.29
-3 -11 -1 158.83 9.34
-3 -11 -1 155.35 9.2
-3 -11 -1 155.47 9.17
-3 -11 -1 148.62 9.06
3 11 1 146.21 9.07
3 11 1 142.38 8.56
-3 -11 -2 -0.78 1.22
-3 -11 -2 1.21 1.2
-3 -11 -2 1.48 1.2
-3 -11 -2 1.15 1.32
-3 -11 -2 2.13 1.32
-3 -11 -2 -0.61 1.01
3 11 2 1.97 1.28
3 11 2 -1.92 1.5
-3 -11 -3 -0.44 0.88
3 11 3 2.13 1.25
-3 -11 -3 1.96 1.23
-3 -11 -3 0.11 0.94
-3 -11 -3 -1.29 1.27
-3 -11 -3 1.11 1.14
-3 -11 -3 -1.92 1.5
3 11 3 0.1 1
3 11 3 0.02 0.89
-3 -11 -4 28.55 3.73
3 11 4 21.23 3.35
-3 -11 -4 26.89 3.72
-3 -11 -4 29.47 3.96
-3 -11 -4 28.95 3.84
-3 -11 -4 26.66 3.74
-3 -11 -4 29.45 3.99
3 11 4 25.4 3.72
3 11 4 25.02 3.45
-3 -11 -5 50.04 5.09
-3 -11 -5 43.98 4.83
-3 -11 -5 44.72 4.86
-3 -11 -5 44.56 4.92
-3 -11 -5 46.91 4.93
-3 -11 -5 45.21 4.88
3 11 5 46.93 5.07
3 11 5 38.65 4.48
-3 -11 -5 47.08 4.98
-3 -11 -6 14.07 2.76
-3 -11 -6 16.07 2.92
-3 -11 -6 18.91 3.28
-3 -11 -6 18.19 3.17
-3 -11 -6 21.66 3.48
3 11 6 18.4 3.27
3 11 6 14.23 2.6
-3 -11 -6 11.11 2.43
3 11 6 17.19 3.04
-3 -11 -7 147.43 9.29
-3 -11 -7 130.03 8.72
-3 -11 -7 130.99 8.82
-3 -11 -7 139.68 9.5
-3 -11 -7 130.99 8.76
3 11 7 128.33 8.63
3 11 7 127.94 8.53
-3 -11 -7 130.59 8.6
-3 -11 -8 11.41 2.75
-3 -11 -8 11.09 2.66
-3 -11 -8 12.78 2.8
-3 -11 -8 13.47 3.19
-3 -11 -8 9.46 2.33
3 11 8 14.85 3.13
-3 -11 -8 10.15 2.46
3 11 8 13.85 2.73
-3 -11 -9 150.46 9.91
-3 -11 -9 131.93 9.26
-3 -11 -9 137.89 9.46
-3 -11 -9 143.93 10.02
-3 -11 -9 132.32 9.95
3 11 9 132.03 9.41
-3 -11 -9 148.42 9.74
-3 -11 -9 143.95 9.53
3 11 9 147.59 9.71
3 11 9 131.54 8.96
-3 -11 -9 136.71 9.06
-3 -11 -10 26.99 4.04
3 11 10 31.72 4.31
-3 -11 -10 35.41 4.83
-3 -11 -10 33.4 4.58
-3 -11 -10 34.47 4.77
3 11 10 30.23 4.66
-3 -11 -10 28.48 4.53
-3 -11 -10 30.93 4.49
-3 -11 -10 36 4.72
3 11 10 38.48 4.9
-3 -11 -10 35.89 4.73
3 11 11 6.62 2.21
-3 -11 -11 4.23 1.8
-3 -11 -11 5.4 2
-3 -11 -11 4.41 2.08
-3 -11 -11 6.08 2.08
3 11 11 6.08 2.41
-3 -11 -11 8.98 2.57
-3 -11 -11 4.72 2.12
-3 -11 -11 4.04 1.74
3 11 11 4.56 1.81
-3 -11 -11 4.48 1.78
3 11 12 93.25 7.74
-3 -11 -12 68.58 6.83
-3 -11 -12 69.44 7.25
-3 -11 -12 81.55 7.73
-3 -11 -12 74.09 7.28
3 11 12 76.32 7.72
-3 -11 -12 77.59 7.91
-3 -11 -12 86.63 7.95
-3 -11 -12 76.39 7.39
3 11 12 79.73 7.72
3 11 12 67.6 5.58
3 11 13 7.83 2.86
-3 -11 -13 6.03 2.73
-3 -11 -13 3.81 1.85
-3 -11 -13 5.59 2.5
-3 -11 -13 10.08 2.81
-3 -11 -13 5.62 2.18
-3 -11 -13 8.49 2.64
3 11 13 9.04 2.63
3 11 13 5.61 2.29
-3 -11 -13 4.08 1.85
3 11 14 267.14 14.57
3 12 -2 -1.9 1.22
-3 -12 2 0 1.2
-3 -12 2 1.36 1.43
-3 -12 2 1.59 1.27
-3 -12 2 0.29 1.43
-3 -12 2 -0.67 1.02
-3 -12 2 -0.62 1.15
-3 -12 2 2.63 2.01
3 12 -2 -0.24 1.55
3 12 -2 2.24 1.77
3 12 -2 1.27 1.3
-3 -12 2 -1.23 1.4
-3 -12 1 57.45 6.43
3 12 -1 50.56 6.02
-3 -12 1 61.68 6.48
-3 -12 1 65.22 6.25
-3 -12 1 59.3 5.97
-3 -12 1 64.38 6.16
-3 -12 1 59.8 6
-3 -12 1 64.38 6.23
-3 -12 1 60.21 6.89
3 12 -1 51.17 5.72
3 12 -1 53.23 5.67
3 12 -1 63.46 5.81
-3 -12 1 63.21 6.78
-3 -12 0 53.97 6.12
3 12 0 63.24 6.49
-3 -12 0 63.63 6.41
-3 -12 0 64.27 6.12
-3 -12 0 59.38 5.77
-3 -12 0 68.95 6.25
-3 -12 0 67.09 6.25
-3 -12 0 62.91 6.01
-3 -12 0 60.54 6.63
3 12 0 52.89 5.73
3 12 0 54.08 5.69
3 12 0 63.48 5.81
-3 -12 -1 58.1 6.21
-3 -12 -1 69.98 6.35
-3 -12 -1 62.03 5.96
-3 -12 -1 63.1 6
-3 -12 -1 54.79 5.53
-3 -12 -1 59.77 6.67
3 12 1 59.81 5.85
3 12 1 60.93 5.63
-3 -12 -2 85.79 7.42
-3 -12 -2 82.92 6.91
-3 -12 -2 84.06 6.89
-3 -12 -2 83.06 6.94
-3 -12 -2 85.1 6.96
3 12 2 79.23 6.81
3 12 2 84.51 6.64
-3 -12 -3 22.64 3.81
-3 -12 -3 28.04 3.9
-3 -12 -3 23.47 3.65
-3 -12 -3 24.3 3.77
-3 -12 -3 21.98 3.45
-3 -12 -3 26.71 3.99
3 12 3 20.18 3.56
3 12 3 23.69 3.42
-3 -12 -4 112.43 8.35
3 12 4 88.2 7.09
-3 -12 -4 94.32 7.53
-3 -12 -4 104.25 7.87
-3 -12 -4 105.76 7.99
-3 -12 -4 95.38 7.54
-3 -12 -4 98.3 7.66
3 12 4 95.11 7.59
3 12 4 100.53 7.39
-3 -12 -5 36.32 4.63
3 12 5 26.4 3.84
-3 -12 -5 39.4 4.64
-3 -12 -5 37.65 4.58
-3 -12 -5 40.31 4.72
-3 -12 -5 38.55 4.68
-3 -12 -5 35.37 4.48
3 12 5 36.6 4.7
3 12 5 32.1 4.19
-3 -12 -6 12.11 2.7
-3 -12 -6 9.45 2.55
-3 -12 -6 6.08 1.98
-3 -12 -6 9.64 2.46
-3 -12 -6 7.15 2.06
-3 -12 -6 7.14 2.2
3 12 6 5.69 1.77
-3 -12 -6 9.66 2.6
3 12 6 7.11 2.11
-3 -12 -7 5.31 2
-3 -12 -7 4.83 1.95
-3 -12 -7 4.44 1.97
-3 -12 -7 1.92 1.06
-3 -12 -7 6.12 2.07
3 12 7 3.43 1.53
-3 -12 -7 6.16 2.13
3 12 7 5.88 2.2
-3 -12 -8 256.23 13.67
-3 -12 -8 258.14 13.72
-3 -12 -8 268.13 13.89
-3 -12 -8 272.34 14.65
-3 -12 -8 271.58 13.89
3 12 8 283.92 13.98
3 12 8 253.39 13.17
-3 -12 -8 265.74 13.68
3 12 8 260.48 12.39
-3 -12 -9 44.78 5.52
-3 -12 -9 41.73 5.31
-3 -12 -9 41.43 5.23
-3 -12 -9 25.59 4.35
-3 -12 -9 36.04 4.85
3 12 9 43.4 5.31
-3 -12 -9 32.42 4.61
3 12 9 39.84 4.91
3 12 9 38.31 4.43
3 12 10 81.4 7.1
-3 -12 -10 70.85 6.9
3 12 10 82.1 6.68
-3 -12 -10 74.86 7.24
-3 -12 -10 72.39 7.1
-3 -12 -10 69.16 6.86
-3 -12 -10 72.87 7.78
3 12 10 62.72 6.78
-3 -12 -10 63.77 7.03
-3 -12 -10 74.58 7.23
-3 -12 -10 71.31 6.97
3 12 10 68.89 7.1
-3 -12 -10 79.71 7.49
3 12 11 19.37 3.59
3 12 11 20.98 3.68
-3 -12 -11 18.67 3.64
-3 -12 -11 18.56 3.77
-3 -12 -11 16.61 3.44
-3 -12 -11 15.68 3.24
-3 -12 -11 19.37 3.98
3 12 11 12.67 3.35
-3 -12 -11 16.68 3.9
-3 -12 -11 18.11 3.6
-3 -12 -11 19.01 3.73
3 12 11 17.05 3.72
3 12 11 16.96 2.88
-3 -12 -11 17.75 3.48
3 12 12 1.72 1.68
-3 -12 -12 0.04 1.05
3 12 12 2.02 1.65
-3 -12 -12 3.53 2.17
-3 -12 -12 2.03 1.91
-3 -12 -12 2.37 1.69
-3 -12 -12 0.89 1.4
-3 -12 -12 1.76 1.63
3 12 12 2.2 2.12
3 12 12 2.03 1.29
-3 -12 -12 0.41 1.45
3 12 12 1.26 1.66
3 12 13 -1.66 1.92
-3 -13 0 6.24 2.33
3 13 0 7.55 2.32
-3 -13 0 1.95 1.74
-3 -13 0 3.35 1.86
-3 -13 -1 73.02 7.38
3 13 1 75.2 7.5
-3 -13 -1 82.86 7.68
-3 -13 -1 81.64 7.22
-3 -13 -1 76.96 7.04
-3 -13 -1 69.07 6.57
-3 -13 -1 77.53 7.03
-3 -13 -1 90.1 7.61
-3 -13 -1 85.09 8.21
3 13 1 62.71 6.58
3 13 1 67.65 6.65
3 13 1 67.99 6.32
-3 -13 -2 141.29 10.39
-3 -13 -2 139.36 9.62
-3 -13 -2 144.24 9.81
3 13 2 130.42 9.46
3 13 2 137.47 9.01
-3 -13 -2 149.66 10.04
-3 -13 -2 157.78 10.25
-3 -13 -3 32.53 4.74
-3 -13 -3 31.7 4.51
-3 -13 -3 27.33 4.12
-3 -13 -3 34.98 4.69
-3 -13 -3 33.77 4.51
3 13 3 31.99 4.52
3 13 3 26.97 3.86
-3 -13 -4 126.83 9.49
-3 -13 -4 125.49 9.2
-3 -13 -4 133.18 9.42
-3 -13 -4 130.53 9.32
-3 -13 -4 141.89 9.63
-3 -13 -4 138.98 9.67
3 13 4 133.34 9.42
3 13 4 136.52 9.05
-3 -13 -5 11.2 2.71
3 13 5 13.93 3.1
-3 -13 -5 15.98 3.14
-3 -13 -5 17.68 3.37
-3 -13 -5 12.18 2.91
-3 -13 -5 17.86 3.46
-3 -13 -5 13.87 2.97
3 13 5 14.68 3.19
3 13 5 13.91 2.85
-3 -13 -6 0.9 0.98
3 13 6 -0.43 1.28
-3 -13 -6 0.2 1.11
-3 -13 -6 -0.01 1.58
-3 -13 -6 -0.06 1.13
-3 -13 -6 -1.05 1.58
-3 -13 -6 2.35 1.52
3 13 6 -0.58 1.03
3 13 6 4.21 1.84
-3 -13 -7 14.48 3.23
-3 -13 -7 13.12 2.89
-3 -13 -7 13.24 3.07
-3 -13 -7 10.71 2.49
-3 -13 -7 17.5 3.44
3 13 7 12.19 2.86
-3 -13 -7 11.53 2.73
3 13 7 14.57 3.09
-3 -13 -8 39.02 5.17
-3 -13 -8 38.15 5.03
-3 -13 -8 43.71 5.49
-3 -13 -8 50.53 5.88
-3 -13 -8 41.74 5.58
-3 -13 -8 41.72 5.38
3 13 8 41.55 5.36
3 13 8 50.46 5.63
-3 -13 -8 46.22 5.72
3 13 8 47.89 4.74
-3 -13 -9 85.35 7.73
-3 -13 -9 76.54 7.33
-3 -13 -9 88.14 7.97
-3 -13 -9 85.71 7.75
3 13 9 77.23 7.26
-3 -13 -9 75.93 7.28
3 13 9 84.21 6.73
-3 -13 -9 80.1 8.13
-3 -13 -10 83.76 8.54
-3 -13 -10 73.63 7.39
-3 -13 -10 87 8
-3 -13 -10 86.38 8.04
3 13 10 84.93 6.67
-3 -13 -10 89.63 8.37
3 13 10 74.13 7.18
-3 -13 -10 80.07 7.65
3 13 10 89.1 7.17
-3 -13 -10 91.83 8.15
-3 -13 -11 4.33 2
3 13 11 4.88 1.64
-3 -13 -11 2.61 1.5
3 13 11 6.49 2.22
-3 -13 -11 4.47 2.02
3 13 11 5.11 2.08
3 14 4 16.55 3.15
-3 -14 -4 25.33 4.38
3 14 5 3.17 1.77
-3 -14 -5 3.95 1.71
3 14 6 19.62 3.37
-3 -14 -6 11.03 2.98
3 14 7 7.86 2.29
-3 -14 -7 9.55 2.79
3 14 7 8.06 2.23
-3 -14 -8 159.2 11.34
4 -11 -5 -0.32 1.38
4 -11 -4 10.54 2.92
-4 11 4 8.94 2.56
4 -11 -4 7.72 2.52
4 -11 -4 12.68 3.21
4 -11 -3 1.5 2.17
-4 11 3 0.55 0.97
4 -11 -3 -4.63 2.08
4 -11 -3 0.93 1.51
-4 11 3 -0.29 1.3
4 -11 -3 1.57 1.34
-4 11 2 13.3 2.82
4 -11 -2 9.87 2.63
4 -11 -2 9.03 2.93
-4 11 2 13.94 2.7
4 -11 -2 9.88 2.84
4 -11 -2 8.36 2.68
4 -11 -1 75.26 7.48
-4 11 1 77.97 6.68
4 -11 -1 74.06 7.6
4 -11 -1 71.75 7.18
4 -11 -1 74.63 7.26
-4 11 1 82.9 7.11
4 -11 -1 69.06 7.39
-4 11 0 3.89 1.53
4 -11 0 3.33 1.76
4 -11 0 3.33 1.51
-4 11 0 1.32 1.15
-4 11 -1 48.96 5.3
-4 10 7 13.2 2.88
-4 10 7 8.99 2.44
4 -10 -7 10.14 2.7
-4 10 6 10.67 2.54
-4 10 6 7.48 2.25
4 -10 -6 9.1 2.81
-4 10 5 8.74 2.37
4 -10 -5 8.58 2.57
-4 10 5 5.38 2.06
4 -10 -5 7.74 2.58
-4 10 4 3.62 1.61
4 -10 -4 1.19 1.44
4 -10 -4 0.88 1.5
-4 10 4 -0.13 1.15
4 -10 -4 0.76 1.32
4 -10 -4 1.37 1.52
4 -10 -3 46.31 5.71
-4 10 3 54.08 5.38
4 -10 -3 48.26 5.88
4 -10 -3 44.95 5.38
-4 10 3 46.21 5.07
4 -10 -3 51.48 6.12
4 -10 -2 57.61 6.38
-4 10 2 74.64 6.2
4 -10 -2 58.93 6.55
-4 10 2 65.01 6.11
4 -10 -2 53.81 5.87
4 -10 -2 59.45 6.53
-4 10 1 0.59 0.94
4 -10 -1 1.8 1.67
4 -10 -1 0.61 1.28
-4 10 1 0.15 1.1
4 -10 -1 1.37 1.32
4 -10 -1 2.03 1.75
4 -10 0 41.12 5.42
-4 10 0 48.9 5.01
4 -10 0 48.12 5.83
4 -10 0 54.35 5.9
4 -10 0 48.74 5.5
-4 10 0 40.74 4.86
-4 10 0 45.51 4.64
4 -10 0 44.99 5.7
-4 10 -1 20.93 3.27
4 -10 1 12.09 3.16
4 -10 1 14.33 3.05
4 -10 1 16.06 3.16
-4 10 -1 18.47 3.4
4 -10 1 16.09 3.42
-4 10 -1 18.88 3.12
4 -10 2 4.95 2.16
4 -10 2 2.4 1.61
4 -10 2 4.66 1.85
-4 10 -2 2.7 1.68
4 -10 3 72.23 7.51
4 -10 3 75.02 7.58
-4 10 -3 80.81 6.96
4 -9 -9 0.39 0.95
-4 9 9 1.61 1.71
-4 9 8 14.81 2.96
4 -9 -8 16.31 3.61
-4 9 8 19.83 3.52
-4 9 7 4.21 2.09
4 -9 -7 3.84 1.91
-4 9 7 1.83 1.3
-4 9 6 1.51 1.13
4 -9 -6 0.24 0.92
-4 9 6 0.75 1.16
-4 9 5 60.68 5.83
4 -9 -5 73.76 6.89
-4 9 5 69.07 6
-4 9 4 85.84 6.92
4 -9 -4 89.5 7.48
4 -9 -4 84.41 7.49
-4 9 4 102.65 7.18
4 -9 -3 37.63 4.95
-4 9 3 40.47 4.46
4 -9 -3 38.63 5.06
4 -9 -3 39.32 4.83
-4 9 3 46.95 4.94
-4 9 2 9.22 2.34
4 -9 -2 10.21 2.66
4 -9 -2 7.26 2.3
-4 9 2 11.69 2.43
4 -9 -2 9.19 2.3
4 -9 -2 8.59 2.52
4 -9 -1 177.38 10.94
-4 9 1 184.03 9.61
4 -9 -1 189.68 11.41
4 -9 -1 176.08 10.4
-4 9 1 179.44 10.14
4 -9 -1 181.83 11.33
-4 9 0 4.52 1.61
4 -9 0 6.26 2.25
4 -9 0 4.22 1.92
4 -9 0 7.76 2.02
-4 9 0 4.02 1.67
-4 9 0 7.29 2.07
4 -9 0 3.86 2.04
-4 9 -1 6.82 1.75
4 -9 1 3.77 1.71
4 -9 1 3.31 2.02
4 -9 1 5.02 1.85
4 -9 1 3.65 1.61
-4 9 -1 7.09 2.07
-4 9 -1 6.27 1.65
4 -9 1 5.26 1.84
4 -9 2 18.36 3.65
4 -9 2 18.66 3.29
4 -9 2 19.4 3.19
-4 9 -2 16.05 2.96
-4 9 -2 24.71 3.58
4 -9 2 23.69 3.94
4 -9 3 -0.92 1.41
4 -9 3 -1.65 1.34
-4 9 -3 1.91 1.44
-4 9 -3 -0.31 1.14
4 -9 3 -0.17 1.13
4 -9 4 25.58 4.06
4 -9 4 23.93 3.86
-4 9 -4 34.71 4.52
4 -9 4 24.74 4.25
4 -9 5 16.04 3.7
4 -9 5 14.77 3.05
-4 9 -5 20.02 3.46
4 -9 5 18.09 3.88
-4 8 10 29.48 4.21
-4 8 10 21.62 3.58
4 -8 -10 25.2 4.56
-4 8 9 24.14 3.8
-4 8 9 20.75 3.61
4 -8 -9 21.27 4.2
4 -8 -9 26.14 4.4
-4 8 8 4.3 1.78
-4 8 8 9.46 2.49
4 -8 -8 4.44 1.84
4 -8 -8 4.42 1.65
-4 8 7 31.32 4.11
-4 8 7 36.96 4.51
4 -8 -7 37.86 4.97
4 -8 -7 32.79 4.66
-4 8 6 9.27 2.45
-4 8 6 5.41 1.78
4 -8 -6 8.41 2.54
4 -8 -6 6.42 2.14
-4 8 5 214.79 10.68
-4 8 5 201.02 10.7
4 -8 -5 197.39 11.32
4 -8 -5 193.72 11.31
-4 8 4 3.91 1.63
4 -8 -4 6.73 2.11
-4 8 4 1.45 1.27
4 -8 -3 52.95 5.28
-4 8 3 51.36 4.97
-4 8 3 55.95 5.04
-4 8 2 12.75 2.35
4 -8 -2 15.13 2.92
4 -8 -2 15.97 2.98
-4 8 2 16.59 2.76
4 -8 -2 17.38 2.96
-4 8 1 18.08 2.83
4 -8 -1 14.02 2.9
4 -8 -1 19.7 3.4
-4 8 1 19.27 2.98
4 -8 -1 13.79 2.5
-4 8 1 19.14 2.72
4 -8 -1 14.21 3
4 -8 0 117.85 8.36
-4 8 0 134.44 7.64
4 -8 0 112.96 8.2
-4 8 0 130.57 7.98
4 -8 0 110.94 7.47
-4 8 0 117.79 7.05
4 -8 0 116.18 8.44
4 -8 1 81.82 6.91
-4 8 -1 87.47 5.97
4 -8 1 93.74 7.37
4 -8 1 81.19 6.73
4 -8 1 90.34 6.53
-4 8 -1 91.48 6.52
-4 8 -1 89.43 6.22
4 -8 1 84.52 7.13
-4 8 -2 7.55 1.84
4 -8 2 4.64 1.85
4 -8 2 4.97 1.84
4 -8 2 4.91 1.63
-4 8 -2 5.83 1.76
-4 8 -2 3.57 1.55
4 -8 2 4.37 2.14
4 -8 3 68.47 6.46
4 -8 3 66.93 6.18
4 -8 3 67.73 5.69
-4 8 -3 66.86 5.56
-4 8 -3 71.07 5.91
4 -8 3 68.59 6.48
4 -8 4 37.52 4.96
4 -8 4 38.82 4.89
4 -8 4 35 4.45
-4 8 -4 42.6 4.71
-4 8 -4 35.3 4.06
4 -8 5 -0.4 1.27
4 -8 5 0.5 1.1
4 -8 5 1.12 1.23
-4 8 -5 0.35 1.15
4 -8 6 62.79 6.64
4 -8 6 67.56 7
-4 8 -6 72.38 6.57
4 -8 7 1.73 1.21
-4 8 -7 1.18 1.35
-4 7 11 81.38 6.93
-4 7 10 166.47 10.09
4 -7 -10 170.31 11.76
-4 7 10 152.78 9.53
4 -7 -10 157.74 10.73
-4 7 9 11.24 2.54
-4 7 9 8.3 2.15
4 -7 -9 10.31 2.75
4 -7 -9 9.62 2.79
-4 7 8 11.86 2.4
-4 7 8 12.36 2.77
4 -7 -8 11.72 2.82
4 -7 -8 15.31 3.13
-4 7 7 82.46 6.35
4 -7 -7 83.06 7.12
-4 7 7 72.01 6.02
4 -7 -7 76.09 6.64
-4 7 6 241.6 11.39
-4 7 6 210.57 10.87
4 -7 -6 230.65 12.08
4 -7 -6 238.9 12.27
-4 7 5 38.54 4.13
-4 7 5 29.99 3.8
4 -7 -5 40.4 4.64
4 -7 -5 31.69 4.07
-4 7 4 11.7 2.33
-4 7 4 10.8 2.35
4 -7 -4 13.36 2.62
4 -7 -4 13.63 2.73
-4 7 3 82.94 5.92
4 -7 -3 66.06 5.65
-4 7 3 74.23 5.81
4 -7 -3 79.08 6.17
-4 7 2 43.76 4.11
4 -7 -2 37.8 4.13
-4 7 2 38.17 4.05
4 -7 -2 44.77 4.53
4 -7 -1 115.62 7.83
-4 7 1 126.84 7.17
4 -7 -1 124 8.09
4 -7 -1 123.84 7.54
-4 7 1 122.47 7.44
-4 7 1 122.62 6.65
4 -7 -1 125.92 8.37
4 -7 0 162.26 9.44
-4 7 0 187.65 8.77
4 -7 0 169.04 9.64
4 -7 0 170.18 8.86
-4 7 0 181.89 9.08
-4 7 0 166.61 8.21
4 -7 0 165.21 9.69
-4 7 -1 12.18 2.07
4 -7 1 10.6 2.4
4 -7 1 15.68 2.83
4 -7 1 9.46 2.02
-4 7 -1 11.61 2.14
-4 7 -1 13.67 2.28
4 -7 1 12.91 2.74
4 -7 2 340.91 14.79
-4 7 -2 362.76 13.15
4 -7 2 348.11 15.02
4 -7 2 345.82 14.83
4 -7 2 349.87 13.74
-4 7 -2 361.05 13.93
-4 7 -2 399.19 14.42
4 -7 2 345.41 15.16
4 -7 3 224.86 11.73
4 -7 3 239.63 11.88
4 -7 3 238.56 10.79
-4 7 -3 221.13 10.58
-4 7 -3 253.05 11.32
4 -7 3 214.57 11.74
4 -7 4 1.62 1.15
4 -7 4 2.41 0.91
4 -7 4 0.67 1.22
-4 7 -4 2.86 1.3
-4 7 -4 3.63 1.76
4 -7 4 1.35 1.48
4 -7 5 141.6 9.6
4 -7 5 145.33 9.47
4 -7 5 122.11 8.49
-4 7 -5 130.31 7.82
4 -7 6 7.34 2.32
-4 7 -6 11.63 2.59
4 -7 6 8.23 2.45
4 -7 7 59.98 6.33
4 -7 7 45.3 5.73
-4 7 -7 63.06 5.97
4 -7 8 8.78 2.76
-4 7 -8 11.85 2.81
4 -7 8 11.21 3.24
4 -7 9 8.33 2.2
4 -6 -11 365.92 18.04
4 -6 -11 347.72 16.47
-4 6 10 4.62 1.86
-4 6 10 2.09 1.47
4 -6 -10 2.13 1.59
4 -6 -10 1.5 1.46
-4 6 9 53.07 5.22
4 -6 -9 56.68 6.13
-4 6 9 54.09 5.18
4 -6 -9 55.84 5.84
-4 6 8 2.18 1.18
-4 6 8 1.99 1.03
4 -6 -8 1.66 1.09
4 -6 -8 1.67 1.06
-4 6 7 294.42 12.8
4 -6 -7 286.3 13.98
-4 6 7 291.93 12.73
4 -6 -7 287.98 13.58
-4 6 6 30.5 3.74
-4 6 6 27.5 3.51
4 -6 -6 29.5 4.01
4 -6 -6 32.77 4.13
-4 6 5 151.47 8.26
-4 6 5 152.23 8.41
4 -6 -5 157.78 9.08
4 -6 -5 148.29 8.82
-4 6 4 57.45 4.96
-4 6 4 64 5.14
4 -6 -4 64.25 5.41
4 -6 -4 65.89 5.45
-4 6 3 56.32 4.68
-4 6 3 49.12 4.46
4 -6 -3 57.22 4.88
4 -6 -3 51.1 4.64
-4 6 2 167.57 8.26
4 -6 -2 156.09 8.26
-4 6 2 163.52 8.35
-4 6 2 141.13 6.76
4 -6 -2 171.31 8.63
-4 6 1 47.47 4.09
4 -6 -1 45.15 4.09
-4 6 1 43.74 4.08
-4 6 1 41.77 3.55
4 -6 -1 46.47 4.24
4 -6 0 239.79 11.26
-4 6 0 272.09 10.5
4 -6 0 240.13 11.16
4 -6 0 240.42 10.25
-4 6 0 255.03 10.7
-4 6 0 232.5 9.76
4 -6 0 223 11.1
4 -6 1 1072.58 31.4
4 -6 1 1056.32 31.18
-4 6 -1 1091.36 30.3
4 -6 1 1056.8 29.58
-4 6 -1 1083.34 29.6
4 -6 1 1026.68 31.31
4 -6 2 67.5 5.55
-4 6 -2 73.78 4.79
4 -6 2 65.3 5.41
-4 6 -2 68.39 5.08
4 -6 2 59.37 5.24
4 -6 2 59.24 4.52
-4 6 -2 68.04 5.03
4 -6 2 60.04 5.35
4 -6 3 237.05 11.46
-4 6 -3 279.15 10.16
4 -6 3 250.81 11.6
-4 6 -3 252.83 10.8
4 -6 3 235.95 11.42
4 -6 3 238.71 10.15
-4 6 -3 243.85 10.76
4 -6 3 250.01 11.93
4 -6 4 254.89 12.04
4 -6 4 255.83 12.04
4 -6 4 254.71 10.63
-4 6 -4 261.11 11.12
-4 6 -4 272.13 11.7
4 -6 4 260.64 12.45
4 -6 5 76.46 6.5
-4 6 -5 91.47 6.55
-4 6 -5 75.25 5.52
4 -6 5 80.38 6.38
4 -6 5 70.35 6.06
-4 6 -6 11.41 2.44
4 -6 6 9.19 2.36
4 -6 6 11.24 2.47
4 -6 6 12.76 2.66
4 -6 7 1.01 1.05
-4 6 -7 3.42 1.46
4 -6 7 3.14 1.56
4 -6 8 53.11 5.04
-4 6 -8 70.34 6.34
4 -6 8 57.39 5.09
4 -6 8 57.89 5.08
4 -6 8 63.97 5.35
4 -6 8 57.99 6.07
4 -6 8 61.59 6.48
4 -6 9 39 5.26
-4 6 -9 37.44 4.93
4 -6 9 35.05 5.21
4 -6 10 3.52 1.94
-4 6 -10 6.36 2.16
4 -6 10 1.98 1.58
-4 5 11 144.29 9.97
4 -5 -11 133.4 9.44
-4 5 10 1.79 1.49
4 -5 -10 1.1 1.23
-4 5 10 2.16 1.22
-4 5 10 1.3 1.39
-4 5 9 56.22 5.75
4 -5 -9 62.63 5.92
-4 5 9 48.75 4.75
-4 5 9 56.92 5.27
4 -5 -8 29.74 4.05
-4 5 8 27.79 3.79
4 -5 -8 25.36 3.81
-4 5 8 27.69 3.42
-4 5 8 26.98 3.56
-4 5 7 39.97 4.5
4 -5 -7 37.98 4.34
4 -5 -7 36.72 4.39
-4 5 7 37.23 3.97
-4 5 7 42.03 4.24
4 -5 -6 53.61 4.92
-4 5 6 45.41 4.69
4 -5 -6 45.06 4.81
-4 5 6 55.84 4.74
-4 5 6 55.71 4.77
4 -5 -5 161.7 8.29
4 -5 -5 159.12 8.64
4 -5 -5 160.55 8.79
-4 5 5 150.3 8.09
-4 5 5 161.57 8.32
4 -5 -4 -0.25 0.85
4 -5 -4 -0.41 0.88
-4 5 4 -0.32 0.93
4 -5 -4 0.97 1.11
-4 5 4 0.39 0.7
4 -5 -3 12.58 2.03
4 -5 -3 7.58 1.73
-4 5 3 8.35 1.78
-4 5 3 9.2 1.93
4 -5 -3 6.56 1.56
4 -5 -2 6.4 1.39
-4 5 2 6.78 1.31
4 -5 -2 5.92 1.56
-4 5 2 6.56 1.5
4 -5 -2 5.29 1.08
-4 5 2 9.39 1.83
4 -5 -2 4.52 1.28
-4 5 1 69.18 4.83
4 -5 -1 55.18 4.26
-4 5 1 63.93 4.72
-4 5 1 65.66 4.2
4 -5 -1 55.32 3.94
4 -5 -1 63.84 4.71
4 -5 0 32.09 3.5
-4 5 0 33.07 3.18
4 -5 0 27.48 3.23
4 -5 0 28.87 2.91
-4 5 0 32.27 3.25
-4 5 0 28.57 2.9
4 -5 0 30.38 3.08
4 -5 1 44.16 4.13
-4 5 -1 48.62 3.77
4 -5 1 46.59 4.15
-4 5 -1 41.49 3.8
4 -5 1 41.66 3.46
4 -5 1 44.09 3.71
-4 5 -1 50.04 3.99
4 -5 1 45.14 4.25
4 -5 2 167.7 8.64
-4 5 -2 172.59 7.56
4 -5 2 179.1 8.75
4 -5 2 171.79 7.58
-4 5 -2 173.4 8.25
-4 5 -2 170.53 8.1
4 -5 2 161.13 8.65
4 -5 3 629.87 20.74
-4 5 -3 681.17 20.35
4 -5 3 620.57 20.93
4 -5 3 652.08 20.76
4 -5 3 656.78 21.15
4 -5 3 630.06 18.93
-4 5 -3 635.75 19.88
4 -5 4 229.7 10.78
4 -5 4 216.63 9.07
-4 5 -4 227.61 9.92
4 -5 4 217.92 8.47
4 -5 4 218.88 8.49
4 -5 4 221.97 8.58
4 -5 4 216.08 8.53
4 -5 4 225.78 10.86
4 -5 4 226.34 10.57
-4 5 -4 250.99 9.09
4 -5 5 519.81 16.63
4 -5 5 515.81 18.67
4 -5 5 546.75 16.78
-4 5 -5 533.36 16.8
4 -5 5 545.93 16.35
4 -5 5 529.87 16.28
4 -5 5 527.83 16.32
4 -5 5 532.37 16.38
-4 5 -5 527.55 17.44
-4 5 -5 509.91 16.34
-4 5 -5 529.5 16.27
-4 5 -5 514.77 16.15
4 -5 5 510.74 18.38
4 -5 5 528.08 19.08
-4 5 -6 0.72 0.85
4 -5 6 -0.24 0.73
4 -5 6 1.53 1.12
4 -5 6 -0.21 0.64
4 -5 6 -0.04 0.77
4 -5 6 0.55 0.67
4 -5 6 1.84 1.33
-4 5 -6 2.56 1.3
-4 5 -6 -0.32 0.68
-4 5 -6 -0.8 0.94
-4 5 -6 -0.57 0.82
4 -5 6 0.31 0.95
4 -5 6 0.82 0.97
4 -5 7 18.13 2.57
4 -5 7 21.81 2.8
4 -5 7 22.94 2.88
4 -5 7 20.71 2.74
4 -5 7 17.11 3.07
-4 5 -7 22.96 3.27
-4 5 -7 20.88 2.87
-4 5 -7 15.76 2.59
-4 5 -7 19.55 2.73
4 -5 7 20.51 3.25
-4 5 -7 19.97 3
4 -5 7 16.54 2.64
4 -5 8 5.23 1.55
4 -5 8 4.33 1.39
4 -5 8 8.37 2.08
4 -5 8 7.95 1.87
-4 5 -8 7.15 2.15
4 -5 8 5.18 1.96
-4 5 -8 8.43 2.07
-4 5 -8 6.61 1.84
-4 5 -8 6.36 1.71
4 -5 8 4.62 1.62
4 -5 8 7.67 2.1
-4 5 -8 4.35 1.39
4 -5 9 4.08 1.5
4 -5 9 5.69 1.8
4 -5 9 4.44 1.57
4 -5 9 5.62 2.14
-4 5 -9 6.93 2.11
-4 5 -9 7.23 1.95
-4 5 -9 0.83 1.09
-4 5 -9 3.48 1.32
4 -5 9 3.11 1.73
4 -5 9 4.55 1.69
-4 5 -9 2.77 1.36
4 -5 10 26.32 3.66
4 -5 10 27.81 3.74
4 -5 10 27.2 3.72
-4 5 -10 27.3 4.11
4 -5 10 27.58 4.38
-4 5 -10 23.7 3.48
-4 5 -10 25.59 3.6
-4 5 -10 23.15 3.45
4 -5 10 23.47 4.07
4 -5 10 22.24 3.45
-4 5 -10 24.1 3.79
4 -5 11 13.9 2.96
4 -5 11 15.81 3.16
4 -5 11 11.99 2.78
-4 5 -11 15.21 3.02
-4 5 -11 18.55 3.48
-4 5 -11 20.17 3.51
4 -5 11 19.08 3.9
4 -5 11 14.5 3.12
-4 5 -11 17.41 3.36
-4 5 -11 27.56 4.15
4 -5 11 16.34 3.73
4 -4 -12 21.05 3.71
-4 4 11 47.62 5.55
4 -4 -11 47.49 5.45
-4 4 10 11.87 2.88
4 -4 -10 12.94 2.88
-4 4 9 210.92 11.24
4 -4 -9 213.28 11.19
-4 4 9 185.48 9.52
-4 4 9 189.62 10.09
4 -4 -8 109.22 7.27
-4 4 8 117.02 7.78
4 -4 -8 101.54 7.26
-4 4 8 102.64 6.63
-4 4 8 100.31 6.88
-4 4 7 218.28 10.84
4 -4 -7 209.99 10.23
4 -4 -7 226.93 10.91
-4 4 7 221.36 9.94
-4 4 7 214.23 10.24
-4 4 6 81.49 6.02
4 -4 -6 75.15 5.53
4 -4 -6 79.86 5.9
-4 4 6 72.98 5.27
-4 4 6 79.16 5.66
-4 4 5 166.84 8.87
4 -4 -5 174.29 8.49
4 -4 -5 168.32 8.7
4 -4 -5 169.47 9.04
-4 4 5 175.94 8.39
-4 4 5 177.08 8.64
4 -4 -4 7.97 1.83
4 -4 -4 6.2 1.49
-4 4 4 7.46 1.73
-4 4 4 8.05 1.69
-4 4 4 6.51 1.51
4 -4 -4 5.2 1.51
-4 4 3 30.58 3.44
4 -4 -3 35.02 3.21
4 -4 -3 37.26 3.54
4 -4 -3 29.51 2.67
-4 4 3 31.73 3.14
4 -4 -3 32.94 3.29
4 -4 -3 29.04 2.43
-4 4 3 31.86 3.21
4 -4 -2 0.74 0.87
4 -4 -2 0.75 0.86
-4 4 2 0.51 0.58
4 -4 -2 1.45 0.73
-4 4 2 -0.37 0.64
4 -4 -2 -0.38 0.65
4 -4 -2 0.39 0.43
-4 4 1 208.39 7.98
4 -4 -1 195.25 7.86
4 -4 -1 232.35 9.08
4 -4 -1 182.37 7
-4 4 1 219.09 8.89
-4 4 1 216.53 8.98
4 -4 -1 213.6 8.57
-4 4 0 187.82 7.65
4 -4 0 197.22 8.04
4 -4 0 201.19 7.3
-4 4 0 195.78 8.11
-4 4 0 189.36 8.2
4 -4 0 188.63 7.66
4 -4 1 84.48 5.45
-4 4 -1 81.99 4.8
4 -4 1 72.47 4.97
4 -4 1 76.72 4.4
-4 4 -1 81.51 5.08
-4 4 -1 85.12 4.94
4 -4 1 79.98 4.67
4 -4 1 76.99 4
4 -4 1 78.36 5.34
4 -4 2 345.13 12.69
-4 4 -2 373.78 11.73
-4 4 -2 336.01 11.96
4 -4 2 347.27 11.35
4 -4 2 301.58 9.68
4 -4 2 351.06 12.94
4 -4 2 347.17 12.52
-4 4 -2 343.05 12.18
4 -4 2 334.97 11.01
4 -4 3 22.02 2.91
-4 4 -3 25.37 2.78
4 -4 3 23.53 2.32
4 -4 3 20.43 1.98
4 -4 3 21.89 1.89
4 -4 3 23.02 1.98
4 -4 3 23.94 2.01
4 -4 3 23.78 2.04
-4 4 -3 25.23 2.89
4 -4 3 22.23 2.85
4 -4 3 23.2 2.79
4 -4 3 23.66 2.9
-4 4 -3 25 2.53
4 -4 4 794.46 23.7
4 -4 4 771.21 20.93
4 -4 4 802.29 20.84
-4 4 -4 752.84 20.8
4 -4 4 791.09 20.43
4 -4 4 747.71 20.32
4 -4 4 792.31 20.51
4 -4 4 724.18 20.38
4 -4 4 781.79 23.46
-4 4 -4 785.58 22.46
-4 4 -4 826.21 23.18
-4 4 -4 732.65 20.4
-4 4 -4 760.03 20.37
4 -4 4 779.83 23.01
-4 4 -4 738.75 20.26
-4 4 -4 878.37 21.33
4 -4 5 42.93 3.35
4 -4 5 51.31 4.62
4 -4 5 43.71 3.48
-4 4 -5 43.12 3.54
4 -4 5 41.47 3.2
4 -4 5 43.83 3.29
4 -4 5 42.81 3.24
4 -4 5 46.07 3.36
-4 4 -5 49.44 4.39
-4 4 -5 40.31 3.71
-4 4 -5 38.89 3.22
-4 4 -5 40.18 3.2
4 -4 5 39.01 3.85
-4 4 -5 39.4 3.19
4 -4 5 38.68 4.04
-4 4 -6 13.58 2.06
4 -4 6 16.31 2.21
4 -4 6 14.86 2.08
4 -4 6 14.71 2.01
4 -4 6 15.14 2.11
4 -4 6 14.39 1.97
-4 4 -6 17.61 2.63
4 -4 6 16.19 2.72
-4 4 -6 12.95 1.85
-4 4 -6 11.48 1.83
-4 4 -6 15.68 2.03
4 -4 6 12.79 2.32
4 -4 6 16.98 2.75
4 -4 7 74.13 5.3
-4 4 -7 78.48 5.5
4 -4 7 72.64 5.14
4 -4 7 75.92 5.16
4 -4 7 82.17 5.35
4 -4 7 71.21 5.18
-4 4 -7 74.08 5.3
-4 4 -7 71.32 5.15
4 -4 7 76.63 6.25
4 -4 7 76.51 5.99
-4 4 -7 71.22 5.04
-4 4 -7 77.06 5.87
4 -4 8 17.74 2.67
4 -4 8 19.4 2.77
4 -4 8 20.22 2.86
-4 4 -8 23.61 3.33
4 -4 8 19.23 3.19
-4 4 -8 21.08 2.98
-4 4 -8 16.71 2.73
-4 4 -8 20.48 2.79
4 -4 8 22.09 3.46
4 -4 8 29.12 3.48
-4 4 -8 20.72 3.13
4 -4 9 2.5 1.15
-4 4 -9 3.8 1.46
4 -4 9 4.35 1.61
4 -4 9 5.3 1.72
4 -4 9 3.73 1.6
-4 4 -9 2.9 1.46
-4 4 -9 1.07 1.11
4 -4 9 3.4 1.56
-4 4 -9 3.32 1.39
4 -4 9 7.68 2.12
-4 4 -9 5.5 1.87
4 -4 9 4.6 1.7
4 -4 10 45.64 4.83
-4 4 -10 46.69 4.92
4 -4 10 39.68 4.43
4 -4 10 43.1 4.73
4 -4 10 40.77 4.48
-4 4 -10 47.45 5.06
-4 4 -10 40.99 4.45
-4 4 -10 34.97 4.26
-4 4 -10 44.49 4.67
4 -4 10 45.5 5.29
4 -4 10 43.39 5.41
4 -4 11 2.36 1.58
4 -4 11 4.79 1.62
4 -4 11 5.7 1.9
-4 4 -11 9.33 2.62
4 -4 11 8.21 2.75
-4 4 -11 1.48 1.1
-4 4 -11 2.68 1.42
-4 4 -11 2.62 1.36
4 -4 11 3.93 1.54
-4 4 -11 4.83 1.9
4 -4 11 2.47 1.06
-4 4 -12 7.84 2.4
4 -4 12 10.31 2.65
4 -4 12 10.1 2.85
4 -4 12 7.74 2.43
4 -4 12 7.35 2.33
-4 4 -12 10.97 2.68
-4 4 -12 6.89 2.22
-4 4 -12 2.8 1.74
-4 4 -12 6.91 2.24
4 -4 12 7.19 2.73
4 -4 12 10.21 2.81
4 -4 12 10.88 2.87
-4 4 -12 10.33 2.72
4 -3 -12 48.77 5.54
-4 3 12 66.04 6.63
4 -3 -12 56.98 5.93
4 -3 -11 1 1.35
-4 3 11 -0.63 1.2
4 -3 -11 -0.59 1.32
4 -3 -10 59.25 5.43
-4 3 10 67.26 6.22
4 -3 -10 57.88 5.79
4 -3 -9 1.06 0.99
-4 3 9 1.5 1.12
4 -3 -9 2.53 1.52
-4 3 9 2.87 1.59
4 -3 -9 5.96 2.01
-4 3 8 17.36 2.72
4 -3 -8 16.52 2.53
-4 3 8 16.83 2.45
4 -3 -8 17.58 3.01
4 -3 -8 17.77 2.75
-4 3 8 16.91 2.92
-4 3 7 0.71 0.87
4 -3 -7 0.97 0.75
-4 3 7 -0.06 0.7
4 -3 -7 0.9 0.8
4 -3 -7 -0.77 0.98
-4 3 7 0.32 0.9
-4 3 6 1138.62 31.21
-4 3 6 1171.57 32.14
4 -3 -6 1180.02 31.37
4 -3 -6 1170.17 32.11
4 -3 -6 1086.82 29.15
-4 3 6 1127.24 30.53
-4 3 5 211 9.3
-4 3 5 209.84 9.69
4 -3 -5 219.99 9.31
4 -3 -5 209.47 9.57
4 -3 -5 201.12 8.56
4 -3 -5 184.05 7.57
-4 3 5 202.34 8.78
-4 3 4 7.97 1.65
4 -3 -4 5.93 1.58
-4 3 4 9.54 1.96
4 -3 -4 8.37 1.75
4 -3 -4 7.9 1.52
4 -3 -4 6.1 1.06
-4 3 4 7.33 1.6
4 -3 -4 6.77 1.35
-4 3 3 157.61 7.51
-4 3 3 155.14 7.66
-4 3 3 151.53 5.93
4 -3 -3 156.11 7.05
4 -3 -3 158.13 7.53
4 -3 -3 168.13 6.8
4 -3 -3 132.79 5.36
4 -3 -3 153.03 7.22
4 -3 -3 144.57 6.32
-4 3 3 149.92 7.12
-4 3 2 155.85 7.17
-4 3 2 153.39 7.33
4 -3 -2 154.74 7.19
4 -3 -2 154.97 6.79
-4 3 2 148.34 6.11
4 -3 -2 154.83 6.29
4 -3 -2 126.16 4.84
4 -3 -2 153.62 7.01
4 -3 -2 150 6.16
-4 3 2 154.99 7.07
4 -3 -1 7.16 1.49
-4 3 1 4.29 1.18
4 -3 -1 4.86 1.3
-4 3 1 3.4 0.92
4 -3 -1 5.63 1.06
-4 3 1 4.38 1.21
-4 3 1 5.43 1.25
4 -3 -1 5.84 1.28
-4 3 0 111.63 5.76
-4 3 0 108.38 5.56
-4 3 0 114.6 5.94
4 -3 0 118.88 5.4
-4 3 0 109.51 5.45
4 -3 0 125.63 5.91
4 -3 0 125.38 5.39
4 -3 1 431.19 14.16
-4 3 -1 459.19 13.69
4 -3 1 415.46 13.71
-4 3 -1 376.05 12.76
4 -3 1 427.42 12.49
-4 3 -1 428.36 13.84
-4 3 -1 475.94 13.83
4 -3 1 414.78 12.9
4 -3 1 444.31 12.5
4 -3 2 37.72 3.3
-4 3 -2 43.28 3.17
4 -3 2 36.39 2.73
-4 3 -2 35.84 3.15
4 -3 2 30.95 2.21
4 -3 2 33.57 3.17
4 -3 2 33.42 3.02
-4 3 -2 35.68 3.19
4 -3 2 37.7 2.58
-4 3 -2 33.41 2.63
4 -3 3 51.38 4.17
-4 3 -3 55.08 4.02
4 -3 3 53.05 3.11
-4 3 -3 48.64 3.13
4 -3 3 49.95 2.83
-4 3 -3 48.54 2.81
4 -3 3 49.53 2.73
4 -3 3 51.81 2.76
4 -3 3 52.45 2.78
4 -3 3 45.6 2.73
-4 3 -3 56.68 4.06
4 -3 3 55.46 4.18
4 -3 3 53.73 3.19
4 -3 3 47.31 2.54
-4 3 -3 47.26 2.74
-4 3 -3 46.92 2.67
4 -3 3 51.03 3.83
-4 3 -3 47.07 2.67
4 -3 3 51.63 3.96
-4 3 -3 50.83 3.47
4 -3 4 134.88 5.58
4 -3 4 136.68 7.31
-4 3 -4 127.64 5.31
4 -3 4 140.97 5.69
-4 3 -4 134.57 5.7
4 -3 4 128.81 5.42
4 -3 4 136.35 5.44
4 -3 4 140.11 5.49
4 -3 4 130.22 5.52
-4 3 -4 143.37 7.02
-4 3 -4 134.58 6.75
4 -3 4 137.62 7.18
-4 3 -4 121.33 5.4
-4 3 -4 132.77 5.4
4 -3 4 135.2 6.8
-4 3 -4 131.01 5.36
-4 3 -4 138.4 5.96
4 -3 5 165.94 8.41
4 -3 5 158.43 6.8
-4 3 -5 156.94 6.86
4 -3 5 164.19 6.65
4 -3 5 170.55 6.71
4 -3 5 167.5 6.67
4 -3 5 161.95 6.65
-4 3 -5 193.14 8.58
-4 3 -5 162.23 7.74
-4 3 -5 149.76 6.54
-4 3 -5 155.31 6.54
4 -3 5 160.47 7.76
-4 3 -5 155.54 6.54
4 -3 5 168.79 8.31
-4 3 -5 175.97 6.63
4 -3 6 319.48 12.77
4 -3 6 322.83 11.14
-4 3 -6 302.25 11.04
4 -3 6 309.05 10.74
4 -3 6 302.66 10.74
4 -3 6 310.9 10.78
4 -3 6 291.06 10.71
-4 3 -6 295.89 10.67
-4 3 -6 310.61 10.79
-4 3 -6 293.81 10.59
4 -3 6 293.48 12.32
4 -3 6 307.04 12.05
-4 3 -6 352.77 12.88
4 -3 7 59.22 4.37
-4 3 -7 54.2 4.28
-4 3 -7 65 5.06
4 -3 7 53.87 4.12
4 -3 7 57.08 4.22
4 -3 7 59.47 4.24
-4 3 -7 53.16 4.1
-4 3 -7 50.78 3.94
-4 3 -7 56.46 4.2
4 -3 7 58.2 4.88
4 -3 7 51.35 4.79
4 -3 8 44 4.09
-4 3 -8 41.47 4.05
-4 3 -8 48.12 4.5
4 -3 8 43.05 3.86
4 -3 8 37.68 3.75
4 -3 8 41.51 3.79
-4 3 -8 34.9 3.59
-4 3 -8 43.35 3.88
-4 3 -8 40.06 3.84
4 -3 8 47.56 4.61
4 -3 8 36.16 4.23
4 -3 9 140.69 8.16
-4 3 -9 135.35 8.13
-4 3 -9 168.1 8.99
4 -3 9 130.83 7.69
4 -3 9 130.01 7.77
4 -3 9 131.27 7.61
-4 3 -9 136.28 7.8
-4 3 -9 120.04 7.6
-4 3 -9 132.46 7.71
4 -3 9 143.23 8.81
4 -3 9 143.47 9.04
4 -3 9 135.59 7.95
4 -3 10 37.4 4.35
-4 3 -10 36.26 4.41
4 -3 10 37.97 4.16
4 -3 10 38.08 4.19
4 -3 10 34.98 3.97
-4 3 -10 42.2 4.59
-4 3 -10 35.42 4.02
-4 3 -10 36.47 4.06
-4 3 -10 39.49 4.42
4 -3 10 38.95 4.69
4 -3 10 39.73 4.83
4 -3 11 4.25 1.55
4 -3 11 4.24 1.58
4 -3 11 6.26 1.92
-4 3 -11 8.93 2.48
4 -3 11 8.87 2.49
-4 3 -11 6.07 1.82
-4 3 -11 5.9 2.01
-4 3 -11 5.79 2.04
-4 3 -11 7.33 2.01
4 -3 11 7.57 2.35
-4 3 -11 6.34 1.98
4 -3 11 8.93 2.25
-4 3 -12 1.54 1.56
4 -3 12 2.33 1.63
4 -3 12 -0.29 1.03
4 -3 12 -0.81 1.09
4 -3 12 -1.52 1.08
4 -3 12 0.16 1.2
-4 3 -12 2.13 1.63
-4 3 -12 0.06 1.12
-4 3 -12 4.27 1.92
-4 3 -12 0.01 1.3
4 -3 12 -1.51 1.48
-4 3 -12 -0.1 1.31
4 -3 12 0.2 1.39
-4 3 -13 0.32 1.55
4 -3 13 2.04 1.72
4 -3 13 2.56 1.81
4 -3 13 2.6 1.7
4 -3 13 0.85 1.4
-4 3 -13 2.83 1.62
-4 3 -13 1.91 1.6
-4 3 -13 0.49 1.01
4 -3 13 0.86 1.18
-4 3 -13 0.41 1.4
4 -3 13 0.79 1.48
-4 3 -13 6.65 2.42
4 -2 -12 23.45 3.81
-4 2 12 28.93 4.46
4 -2 -12 22.15 3.69
4 -2 -11 97.31 7.5
-4 2 11 117.48 8.63
4 -2 -11 114.36 8.2
4 -2 -10 110.09 7.56
4 -2 -10 119.19 7.96
-4 2 10 130.27 8.78
4 -2 -10 118.73 8.05
4 -2 -9 40.32 4.09
-4 2 9 42.78 4.73
4 -2 -9 38.68 4.06
4 -2 -9 38.66 4.45
4 -2 -8 160.26 8.37
-4 2 8 179.87 9.63
4 -2 -8 160.84 8.79
-4 2 7 19.26 2.83
4 -2 -7 15.18 2.36
-4 2 7 18.11 2.42
-4 2 7 20.13 2.95
4 -2 -7 20.61 2.82
-4 2 6 58.56 4.61
-4 2 6 59.93 4.98
4 -2 -6 50.06 4.3
4 -2 -6 48.45 3.81
-4 2 6 54.52 4.03
-4 2 5 5 1.43
-4 2 5 5.36 1.48
4 -2 -5 4.7 1.48
4 -2 -5 2.84 1.05
4 -2 -5 5.71 1.34
-4 2 5 2.95 1.02
-4 2 4 35.81 3.42
-4 2 4 36.25 3.48
4 -2 -4 39.23 3.44
4 -2 -4 37.8 3.18
4 -2 -4 32.47 2.6
4 -2 -4 36.13 2.96
-4 2 4 33.39 3.04
-4 2 3 10.2 1.72
4 -2 -3 9.23 1.25
4 -2 -3 9.54 1.72
-4 2 3 10.01 1.86
4 -2 -3 10.67 1.61
4 -2 -3 11.27 1.44
4 -2 -3 10.75 1.59
-4 2 3 11.12 1.79
4 -2 -2 202.08 7.19
-4 2 2 220.76 8.75
4 -2 -2 223.67 8.43
-4 2 2 230.6 8.89
-4 2 2 210.34 7.59
4 -2 -2 219.92 8.01
4 -2 -2 200.06 6.91
4 -2 -2 212.9 7.98
-4 2 2 190.05 8.46
-4 2 2 215.57 8.44
-4 2 1 1223.64 29.57
-4 2 1 1074.61 28.03
4 -2 -1 1056.06 26.74
4 -2 -1 1171.13 28.48
-4 2 1 1221.27 29.69
-4 2 1 1172.68 29.21
-4 2 1 1164.83 29.36
-4 2 0 290.4 10.16
-4 2 0 280.54 10.03
-4 2 0 290.18 9.65
-4 2 0 277.1 9.95
-4 2 0 254.75 9.68
4 -2 0 284.75 8.97
-4 2 -1 -0.11 0.47
-4 2 -1 -0.05 0.46
4 -2 1 -0.18 0.3
-4 2 -1 0.18 0.7
4 -2 1 0.2 0.43
-4 2 -1 1.06 0.74
-4 2 -2 15.27 2
4 -2 2 12.81 1.26
4 -2 2 8.95 0.77
4 -2 2 8.56 0.8
4 -2 2 7.63 0.75
4 -2 2 11.12 1.4
-4 2 -2 14.06 1.83
4 -2 2 11.78 1.74
-4 2 -2 10.86 1.55
4 -2 2 11.85 1.65
-4 2 -2 12.59 1.63
4 -2 2 13.16 1.8
4 -2 3 127.26 6.52
4 -2 3 125.81 4.6
-4 2 -3 124.07 5.48
-4 2 -3 129.47 6.24
4 -2 3 123.02 4.35
4 -2 3 118.6 4.35
4 -2 3 123.46 4.37
-4 2 -3 145.71 6.62
4 -2 3 142.36 5.16
4 -2 3 127.78 6.2
4 -2 3 127.24 4.51
-4 2 -3 111.71 4.41
-4 2 -3 109.16 4.2
-4 2 -3 109.6 4.28
-4 2 -3 114.66 4.23
4 -2 3 129.04 5.91
4 -2 3 132.34 6.18
-4 2 -3 123.59 5.61
4 -2 4 13.78 1.37
4 -2 4 12.89 2.01
-4 2 -4 13.84 1.66
4 -2 4 14.93 1.45
4 -2 4 13.61 1.47
4 -2 4 13.92 1.44
4 -2 4 12.84 1.33
-4 2 -4 16.65 2.21
-4 2 -4 14.52 2.09
4 -2 4 12.42 1.92
4 -2 4 12.78 1.41
-4 2 -4 11.83 1.43
-4 2 -4 12.81 1.38
-4 2 -4 13.91 1.46
-4 2 -4 10.79 1.32
4 -2 4 12.77 1.78
4 -2 4 14.36 1.95
-4 2 -4 12.84 1.61
-4 2 -5 308.66 10.01
4 -2 5 326.69 12.25
4 -2 5 333.47 10.19
4 -2 5 320.94 10.16
4 -2 5 326.43 10.16
-4 2 -5 324.06 11.65
4 -2 5 330.9 10.42
-4 2 -5 299.62 10.3
-4 2 -5 309.49 10.01
-4 2 -5 306.65 9.97
-4 2 -5 310.32 10.07
4 -2 5 318.84 11.37
4 -2 5 329.38 11.91
4 -2 6 61.42 4.83
4 -2 6 70.22 4.21
-4 2 -6 64.66 4.12
-4 2 -6 68.51 4.86
4 -2 6 62.03 3.89
4 -2 6 60.78 3.91
4 -2 6 59.44 3.82
-4 2 -6 61.15 3.82
-4 2 -6 61.29 3.85
-4 2 -6 59.75 3.79
4 -2 6 58.23 4.33
4 -2 6 51.97 4.33
-4 2 -6 61.06 3.86
4 -2 7 394.05 13.48
-4 2 -7 391.72 13.55
-4 2 -7 443.09 15.03
4 -2 7 403.52 13.25
4 -2 7 403.05 13.35
4 -2 7 399.17 13.2
-4 2 -7 394.65 13.09
-4 2 -7 397.86 13.18
-4 2 -7 386.68 13.06
4 -2 7 389.12 14.24
-4 2 -7 424.72 13.5
4 -2 7 402.58 14.79
4 -2 8 271.73 11.08
-4 2 -8 271.11 11.22
4 -2 8 259.08 10.5
4 -2 8 270.49 10.84
4 -2 8 261.91 10.52
-4 2 -8 311.54 12.07
-4 2 -8 255.34 10.36
-4 2 -8 262.29 10.57
-4 2 -8 252.34 10.44
4 -2 8 267.49 11.6
-4 2 -8 307.46 11.16
4 -2 8 274.54 12.02
4 -2 8 258.68 11.22
4 -2 9 2.82 1.15
-4 2 -9 4.32 1.61
4 -2 9 1.64 1.03
4 -2 9 3.32 1.17
4 -2 9 2.72 1.4
4 -2 9 2.53 1.23
-4 2 -9 2.23 1.3
-4 2 -9 2.47 1.11
-4 2 -9 2.08 1.07
-4 2 -9 2.08 1.15
4 -2 9 2.07 1.17
-4 2 -9 2.06 1.24
4 -2 9 1.81 1.01
-4 2 -10 4.68 1.62
4 -2 10 3.73 1.53
4 -2 10 4.19 1.55
4 -2 10 4.54 1.62
4 -2 10 7.36 1.84
-4 2 -10 3.73 1.5
4 -2 10 3.59 1.6
-4 2 -10 3.73 1.35
-4 2 -10 3.93 1.51
-4 2 -10 3.77 1.54
-4 2 -10 4.35 1.53
4 -2 10 3.05 1.52
4 -2 10 4.58 1.53
-4 2 -10 3.15 1.4
-4 2 -11 9.33 2.45
4 -2 11 7.96 2.13
4 -2 11 6.39 1.95
4 -2 11 6.24 1.89
4 -2 11 3.04 1.41
-4 2 -11 7.66 1.91
4 -2 11 7.24 2.12
-4 2 -11 8.4 2.19
-4 2 -11 4.95 1.71
-4 2 -11 7.96 2.12
4 -2 11 10.4 2.58
-4 2 -11 6.65 1.95
-4 2 -11 7.85 2.46
4 -2 11 8.61 2.44
-4 2 -12 0.59 1.11
4 -2 12 0.97 0.99
4 -2 12 1.71 1.27
4 -2 12 0.26 1.17
4 -2 12 2.18 1.51
4 -2 12 1.52 1.47
-4 2 -12 0.78 1.05
-4 2 -12 -0.49 1.13
-4 2 -12 -1.3 1.5
-4 2 -12 1.84 1.5
4 -2 12 0.83 1.36
-4 2 -12 -0.54 1.31
4 -2 12 -1.88 1.21
-4 2 -12 -0.99 1.38
4 -2 13 195.02 11.64
-4 2 -13 204.22 12.14
4 -2 13 186.94 11.28
4 -2 13 174.9 11.29
4 -2 13 177.75 10.97
-4 2 -13 172.84 10.94
-4 2 -13 202.41 10.91
4 -2 13 185.95 11.67
4 -2 13 179.62 11.83
4 -2 13 201.81 12.62
-4 2 -13 185.46 11.05
-4 2 -13 170.01 10.76
-4 2 -13 184.42 11.13
4 -2 14 84.48 7.83
-4 1 12 2.14 1.36
4 -1 -12 2.13 1.45
4 -1 -11 175.48 10.3
4 -1 -11 177.65 10.44
4 -1 -10 1.25 1.71
-4 1 10 -2.07 1.34
4 -1 -10 -0.54 1.25
-4 1 9 399.87 15.97
4 -1 -9 386.3 14.73
4 -1 -9 347.96 13.88
4 -1 -9 336.41 14.13
-4 1 8 148.25 8.65
4 -1 -8 138.83 7.83
4 -1 -8 121.98 7.07
4 -1 -8 128.57 7.41
-4 1 7 81.36 5.97
4 -1 -7 69.71 5.23
4 -1 -7 64.69 4.86
4 -1 -7 72.32 4.81
4 -1 -6 51.7 4.21
4 -1 -6 45.54 3.48
-4 1 6 56.78 4.72
4 -1 -6 49.05 4.13
4 -1 -6 50.25 3.91
-4 1 6 49.21 3.64
4 -1 -5 201.44 8.6
4 -1 -5 190.67 7.3
-4 1 5 197.18 8.77
-4 1 5 196.05 9.06
4 -1 -5 203 8.78
4 -1 -5 188.42 8.03
-4 1 5 194.66 7.89
4 -1 -4 79.76 4.73
4 -1 -4 71.77 3.6
-4 1 4 76.23 4.92
4 -1 -4 66.97 4.6
-4 1 4 76.48 5.05
4 -1 -4 64.81 4.12
4 -1 -4 68.96 4.41
-4 1 4 68.88 4.27
4 -1 -3 26.24 2.57
4 -1 -3 19.6 1.6
4 -1 -3 22.44 2.05
-4 1 3 22.22 2.58
4 -1 -3 23.27 2.08
-4 1 3 29.32 2.95
4 -1 -3 27 2.31
4 -1 -3 23.37 2.4
-4 1 3 26.5 2.8
-4 1 3 24.98 2.38
4 -1 -2 248.44 8.88
-4 1 2 251.15 9.21
-4 1 2 239.4 8.2
4 -1 -2 204.6 6.43
4 -1 -2 240.51 8.13
-4 1 2 246.66 9.28
4 -1 -2 241.93 8.01
4 -1 -2 248.41 8.85
-4 1 2 239.96 9.36
-4 1 2 240.46 8.68
-4 1 1 3.27 0.94
-4 1 1 1.39 0.68
-4 1 1 2.2 0.85
4 -1 -1 1.48 0.31
-4 1 1 2.27 0.86
4 -1 -1 1.56 0.63
-4 1 1 1.95 0.82
-4 1 0 76.63 4.24
-4 1 0 69.05 4.03
-4 1 0 73.69 4.35
-4 1 0 79.07 4.5
4 -1 0 69.8 3.47
-4 1 0 73.28 4.21
-4 1 -1 162.73 6.61
-4 1 -1 186.76 7.27
-4 1 -1 177.45 7.17
-4 1 -1 175.34 7.24
-4 1 -1 170.51 7.11
4 -1 1 185 5.69
-4 1 -2 0.47 0.55
-4 1 -2 0.28 0.39
4 -1 2 0.22 0.42
-4 1 -2 0.29 0.61
4 -1 2 0.24 0.51
4 -1 2 0 0.32
4 -1 2 0.52 0.24
-4 1 -2 0.5 0.52
-4 1 -3 28.83 2.53
4 -1 3 29.91 1.5
4 -1 3 34.42 3.06
4 -1 3 31.81 1.75
-4 1 -3 30.62 1.76
4 -1 3 30.84 1.7
4 -1 3 29.49 1.65
4 -1 3 28.55 1.74
-4 1 -3 26.46 1.62
4 -1 3 33.45 2.75
-4 1 -3 31.46 2.77
-4 1 -3 33.6 2.88
-4 1 -3 29.7 1.66
-4 1 -3 28.65 1.66
-4 1 -3 27.76 1.63
4 -1 3 31.96 2.49
4 -1 3 31.72 2.59
-4 1 -4 560.41 15.37
4 -1 4 571.16 16.61
4 -1 4 528.08 13.86
-4 1 -4 513.08 13.87
4 -1 4 518.56 13.67
4 -1 4 515.6 13.78
4 -1 4 538.17 13.73
-4 1 -4 499.1 13.66
-4 1 -4 624.86 16.79
4 -1 4 556.83 15.82
4 -1 4 525.31 13.31
-4 1 -4 559.33 16.17
-4 1 -4 502.16 13.55
-4 1 -4 500.54 13.63
-4 1 -4 497.36 13.54
4 -1 4 536.25 15.07
4 -1 4 548.58 15.44
4 -1 5 106.04 5.96
-4 1 -5 100.74 5.03
4 -1 5 109.6 4.81
-4 1 -5 98.15 4.69
4 -1 5 103.81 4.61
4 -1 5 99.76 4.63
4 -1 5 103.32 4.59
-4 1 -5 100.33 4.58
-4 1 -5 105.25 5.81
-4 1 -5 103.69 4.57
-4 1 -5 96.1 4.49
-4 1 -5 103.89 4.59
4 -1 5 113.95 5.44
4 -1 5 98.35 5.51
4 -1 6 267.28 10.77
4 -1 6 265.72 9.37
-4 1 -6 236.99 9.14
-4 1 -6 248.61 9.15
4 -1 6 264.08 9.12
4 -1 6 263.86 9.23
4 -1 6 258.58 9.03
-4 1 -6 256.16 9.16
-4 1 -6 279.81 10.56
-4 1 -6 268.37 9.13
-4 1 -6 265.94 9.15
-4 1 -6 265 9.12
4 -1 6 263.75 9.79
4 -1 6 279.08 10.43
-4 1 -7 941.37 25.7
4 -1 7 997.75 26.65
-4 1 -7 944.51 26.55
4 -1 7 1004.3 26.4
4 -1 7 992.38 26.59
4 -1 7 1022.66 26.44
-4 1 -7 996.62 26.45
-4 1 -7 1047.73 27.94
-4 1 -7 1041.44 26.45
-4 1 -7 1024.58 26.53
-4 1 -7 1050.32 26.55
4 -1 7 1010.86 27.32
4 -1 7 1004.69 27.87
4 -1 7 1009.41 27.91
4 -1 8 60.28 4.49
-4 1 -8 55.34 4.4
4 -1 8 60.43 4.39
4 -1 8 59.81 4.4
4 -1 8 63.63 4.45
-4 1 -8 58.04 4.4
-4 1 -8 56.15 4.65
-4 1 -8 63.25 4.41
-4 1 -8 59.84 4.35
-4 1 -8 60.63 4.36
4 -1 8 57.72 4.59
4 -1 8 57.85 4.78
4 -1 8 60.75 4.81
4 -1 9 267.73 11.28
-4 1 -9 260.87 11.32
4 -1 9 274.17 11.4
4 -1 9 261.01 11.31
4 -1 9 271.09 11.24
-4 1 -9 247.75 11.25
-4 1 -9 306.03 12.06
-4 1 -9 271.72 11.21
-4 1 -9 281.12 11.44
-4 1 -9 264.06 11.21
4 -1 9 283.05 11.91
4 -1 9 261.74 11.45
4 -1 9 281.79 12.3
-4 1 -9 280.03 11.77
-4 1 -10 0.68 1.09
4 -1 10 -0.79 0.9
4 -1 10 -0.12 0.99
4 -1 10 -0.23 0.92
4 -1 10 1.73 1.26
-4 1 -10 -0.08 0.86
4 -1 10 -0.23 0.73
-4 1 -10 0.92 1.06
-4 1 -10 2.71 1.35
-4 1 -10 2.36 1.06
4 -1 10 1.24 0.98
-4 1 -10 1.92 1.16
-4 1 -10 -1.41 1.04
4 -1 10 0.02 0.73
4 -1 10 -1.1 1.06
4 -1 11 95.61 7.15
-4 1 -11 86.61 6.98
4 -1 11 93.61 6.74
4 -1 11 93.21 6.88
4 -1 11 94.98 6.76
-4 1 -11 92.1 6.84
-4 1 -11 98.52 6.89
-4 1 -11 98.68 6.87
-4 1 -11 100.25 6.96
-4 1 -11 90.08 6.6
4 -1 11 88.44 7.15
4 -1 11 101.58 7.53
4 -1 11 102.42 7.66
4 -1 11 89.21 6.42
-4 1 -12 3.12 1.66
4 -1 12 -0.84 1.55
4 -1 12 -0.06 1.1
4 -1 12 -1.25 1.12
4 -1 12 0.57 0.9
-4 1 -12 1.77 1.32
4 -1 12 -0.56 1.26
-4 1 -12 0.61 0.99
-4 1 -12 -0.93 1.23
-4 1 -12 0.54 1.32
4 -1 12 0.2 1.01
-4 1 -12 -0.7 0.98
4 -1 12 2.48 1.8
4 -1 13 75.97 7.08
-4 1 -13 80.68 7.36
4 -1 13 86.21 7.31
4 -1 13 84.29 7.46
4 -1 13 85.75 7.21
-4 1 -13 80.29 7.07
-4 1 -13 91.89 6.92
-4 1 -13 89.27 7.26
-4 1 -13 87.49 7.23
-4 1 -13 87.26 7.25
4 -1 13 87.09 7.69
4 -1 13 82.16 7.49
4 -1 13 85.23 7.79
4 -1 14 72.35 7.12
-4 1 -14 59.14 6.55
4 -1 14 60.21 6.44
4 -1 14 68.18 6.76
4 -1 14 64.19 6.86
-4 1 -14 57.44 6.33
4 -1 14 55.26 6.46
4 -1 14 66.92 7.39
-4 1 -14 72.53 7.01
-4 1 -14 66.97 6.52
-4 1 -14 71.45 6.92
4 0 -11 203.42 10.6
4 0 -11 181.78 10.61
4 0 -11 177.44 10.9
-4 0 10 477.08 18.71
4 0 -10 477.37 17.23
4 0 -10 423.63 16.79
4 0 -10 418.84 17.08
-4 0 9 112.19 7.82
4 0 -9 108.86 7.08
4 0 -9 97.83 6.63
4 0 -9 111.36 7.23
-4 0 8 47.92 4.84
4 0 -8 48.53 4.5
4 0 -8 46.06 4.12
4 0 -8 53.17 4.62
-4 0 7 34.51 3.93
4 0 -7 33.87 3.57
4 0 -7 32.89 3.44
4 0 -7 27.18 3
4 0 -6 63.75 4.32
4 0 -6 79.7 5.28
-4 0 6 86.46 5.9
4 0 -6 76.01 5.26
4 0 -6 68.69 4.24
4 0 -6 70.77 4.82
4 0 -6 71.56 4.53
4 0 -5 43.68 3.23
4 0 -5 44.24 3.24
4 0 -5 40.92 3.09
4 0 -5 51.62 3.99
4 0 -5 49.59 3.97
-4 0 5 48.42 4.2
4 0 -5 44.96 3.09
4 0 -5 46.63 3.13
4 0 -5 45.42 3.12
4 0 -5 46.78 3.75
-4 0 5 49.4 3.35
4 0 -4 262.19 9.55
-4 0 4 273.44 10.27
-4 0 4 247.35 8.44
-4 0 4 209.12 7.48
4 0 -4 219.32 7.79
-4 0 4 220.19 7.43
-4 0 4 215.05 7.44
-4 0 4 218.7 7.37
4 0 -4 266.04 9.55
4 0 -4 199.94 7.58
-4 0 4 257.38 10.02
4 0 -4 221.64 7.52
4 0 -4 226.65 7.56
4 0 -4 224.26 7.49
4 0 -4 255.67 9.06
4 0 -4 234.04 7.98
4 0 -3 116.6 5.66
-4 0 3 116.2 5.96
-4 0 3 100.87 4.79
-4 0 3 86.67 3.73
4 0 -3 94.23 3.93
-4 0 3 89.8 3.65
-4 0 3 83.78 3.64
-4 0 3 87.91 3.62
4 0 -3 119.16 5.66
4 0 -3 89.43 3.8
-4 0 3 104.01 5.68
4 0 -3 112.89 4.86
4 0 -3 92.95 3.72
4 0 -3 93.8 3.74
4 0 -3 92.15 3.75
4 0 -3 100.51 5.09
4 0 -3 99.84 4.21
4 0 -2 244.48 6.81
4 0 -2 288.67 9.14
4 0 -2 281.05 7.7
4 0 -2 314.02 9.96
4 0 -2 237.09 6.67
4 0 -2 250.27 6.71
4 0 -2 248.78 6.68
4 0 -2 300.38 9.25
4 0 -2 302.53 9.96
-4 0 2 296.38 9.18
-4 0 2 304.95 10.32
4 0 -2 299.35 9.25
-4 0 2 300.53 10.15
4 0 -1 597.54 14.56
4 0 -1 684.59 17.09
-4 0 1 667.82 17.94
4 0 -1 569.21 13.5
-4 0 1 614.72 16.69
-4 0 1 664.84 17.35
4 0 0 101.04 3.31
-4 0 0 104.64 5.32
-4 0 0 101.56 4.9
4 0 0 92.03 3.55
-4 0 0 93.86 4.69
-4 0 0 104.87 5.07
4 0 1 144.25 4.11
4 0 1 131.31 4.32
-4 0 -1 145.26 6.09
4 0 1 122.09 4.9
-4 0 -1 146.72 6.34
-4 0 -1 141.78 5.72
-4 0 -1 127.63 5.89
4 0 2 7.81 1.21
-4 0 -2 6.86 1.06
-4 0 -2 6.98 1.31
4 0 2 8.06 1.09
4 0 2 10.43 0.57
-4 0 -2 8.45 1.44
-4 0 -3 2136.31 48.37
4 0 3 2094.32 48.48
4 0 3 2031.2 45.1
-4 0 -3 2072.55 45.23
4 0 3 2015.59 45.01
4 0 3 1944.45 45.03
-4 0 -3 2013.02 44.95
-4 0 -3 2003.88 45.01
4 0 3 2117.77 47.39
-4 0 -3 2159.58 48.56
-4 0 -3 2075.29 48.42
-4 0 -3 2009.13 44.96
-4 0 -3 2068.65 45.06
-4 0 -3 2053.26 44.99
4 0 3 2020.42 46.47
4 0 3 2100.92 47.05
4 0 4 73.11 3.33
-4 0 -4 71.08 3.36
-4 0 -4 75.24 4.31
4 0 4 67.77 3.17
4 0 4 67.28 3.13
-4 0 -4 67.23 3.14
4 0 4 74.52 4.07
-4 0 -4 80.51 4.72
-4 0 -4 68.09 3.14
-4 0 -4 74.01 3.24
-4 0 -4 69.75 3.16
4 0 4 75.33 3.69
4 0 4 67.75 4.34
4 0 5 838.3 22.65
4 0 5 815.18 20.53
-4 0 -5 846.04 20.8
-4 0 -5 792.23 21.63
4 0 5 811.26 20.32
4 0 5 811.31 20.31
4 0 5 780.61 20.41
-4 0 -5 785.48 20.21
4 0 5 737.62 18.36
-4 0 -5 913.93 22.96
-4 0 -5 799.71 20.22
-4 0 -5 797.91 20.25
-4 0 -5 813.15 20.29
4 0 5 857.97 21.01
4 0 5 840.74 21.62
4 0 6 592.22 17.12
-4 0 -6 591.4 17.22
-4 0 -6 587.12 17.57
4 0 6 613.07 17.08
4 0 6 553.78 16.9
4 0 6 627.61 17.05
-4 0 -6 615.15 17.18
-4 0 -6 636.28 18.55
-4 0 -6 626.46 17.16
-4 0 -6 675.18 17.3
-4 0 -6 663.74 17.26
4 0 6 621.24 17.42
4 0 6 621.45 18
4 0 6 634.8 18.92
-4 0 -7 5.94 1.35
4 0 7 7.43 1.44
-4 0 -7 4.98 1.24
4 0 7 7.04 1.48
4 0 7 4.96 1.22
4 0 7 5.55 1.28
-4 0 -7 6.19 1.54
4 0 7 6.61 1.41
-4 0 -7 3.97 1.19
-4 0 -7 4.41 1.14
-4 0 -7 2.92 1.04
4 0 7 5.39 1.24
-4 0 -7 4.18 1.14
4 0 7 8.61 1.8
4 0 8 220.93 9.36
-4 0 -8 208.25 9.28
-4 0 -8 212.07 8.99
4 0 8 225.61 9.35
4 0 8 222.54 9.52
4 0 8 236.72 9.41
-4 0 -8 239.08 9.51
-4 0 -8 255.09 10.27
-4 0 -8 245.67 9.48
-4 0 -8 244.79 9.47
-4 0 -8 237.65 9.44
4 0 8 228.68 9.63
4 0 8 237.57 10.06
4 0 8 212.39 9.91
-4 0 -9 7.93 1.93
4 0 9 9.89 2
4 0 9 7.94 1.76
4 0 9 8.92 1.67
4 0 9 9 1.77
4 0 9 7.06 1.79
-4 0 -9 10.52 2.02
-4 0 -9 6.79 1.52
-4 0 -9 10.26 1.85
-4 0 -9 12.36 2.22
4 0 9 9.9 1.94
-4 0 -9 7.29 1.61
4 0 9 9.27 2.11
4 0 9 8.88 1.9
4 0 10 144.39 8.36
-4 0 -10 147.81 8.47
4 0 10 155.71 8.37
4 0 10 152.31 8.58
4 0 10 168.59 8.56
-4 0 -10 150.16 8.35
-4 0 -10 166.62 8.49
-4 0 -10 166.04 8.47
-4 0 -10 161.35 8.47
-4 0 -10 158.11 8.37
4 0 10 152.61 9.1
4 0 10 139.02 8.22
4 0 10 154.6 8.91
4 0 10 146.03 8.27
4 0 11 32.39 4.06
-4 0 -11 26.12 3.76
4 0 11 37.53 4.11
4 0 11 33.54 4.04
4 0 11 32.75 3.86
-4 0 -11 31.68 3.89
-4 0 -11 34.01 3.9
-4 0 -11 34.98 3.96
-4 0 -11 35.69 3.97
4 0 11 32.66 4.15
4 0 11 28.01 3.56
4 0 11 37.48 4.56
4 0 11 32.75 4.02
-4 0 -11 36.51 4.08
-4 0 -12 24.23 3.77
4 0 12 27.93 4
4 0 12 26.14 3.94
4 0 12 30.97 4.19
4 0 12 29.75 3.97
4 0 12 25.59 3.9
-4 0 -12 33.05 3.91
-4 0 -12 27.68 3.93
-4 0 -12 28.05 4.03
-4 0 -12 32.83 4.19
-4 0 -12 21.72 3.6
4 0 12 25.06 3.76
4 0 12 26.18 3.94
-4 0 -13 10.35 2.55
4 0 13 12.69 2.82
4 0 13 9.5 2.57
4 0 13 13.22 2.85
4 0 13 12.5 2.82
-4 0 -13 18.32 2.97
4 0 13 12.95 3.06
-4 0 -13 9.17 2.34
-4 0 -13 10.51 2.61
-4 0 -13 8.79 2.26
-4 0 -13 9.85 2.48
4 0 13 13.02 2.95
4 0 14 6 2.26
-4 0 -14 10.33 2.85
4 0 14 5.93 2.14
4 0 14 8.7 2.69
4 0 14 7.1 2.36
4 0 14 5.95 2.15
4 0 14 12.19 3.04
-4 0 -14 5.45 2.24
4 0 14 2.36 1.37
-4 0 -14 8.87 2.53
-4 0 -14 7.26 2.28
-4 0 -14 7.63 2.33
4 0 15 -0.89 1.1
-4 -1 11 30.71 4.36
4 1 -11 29.67 4.24
4 1 -11 35.32 4.55
-4 -1 10 59.27 5.96
4 1 -10 50.16 4.84
4 1 -10 54.17 5.31
4 1 -10 53.32 5.37
-4 -1 9 56.51 5.61
4 1 -9 45.63 4.48
4 1 -9 45.14 4.47
4 1 -9 49.3 4.95
-4 -1 8 767.79 24.64
4 1 -8 802.7 23.06
4 1 -8 711.21 23.03
4 1 -8 694.3 22.28
4 1 -7 2.21 1.07
-4 -1 7 1.51 0.78
-4 -1 7 0.91 0.84
-4 -1 7 2.72 1.14
-4 -1 7 0.03 0.68
4 1 -7 1.96 1.22
-4 -1 7 3.16 1.4
4 1 -7 1.43 0.85
4 1 -7 -0.13 0.66
4 1 -7 -0.28 0.79
4 1 -7 0.83 0.7
4 1 -7 2.2 0.91
4 1 -7 0.49 0.84
-4 -1 6 19.7 2.37
4 1 -6 23.2 2.64
-4 -1 6 18.09 2.2
-4 -1 6 16.6 2.14
-4 -1 6 17.55 2.18
4 1 -6 22.83 2.82
4 1 -6 18.47 2.57
-4 -1 6 19.55 2.87
4 1 -6 19.01 2.28
4 1 -6 19.86 2.27
4 1 -6 20.34 2.36
4 1 -6 19.9 2.66
4 1 -6 23.68 2.6
-4 -1 5 416.27 13.33
4 1 -5 445.63 13.78
-4 -1 5 425.8 13.18
-4 -1 5 419.72 13.23
-4 -1 5 421.96 13.13
4 1 -5 489.63 15.18
-4 -1 5 515.22 16.3
4 1 -5 446.24 13.37
4 1 -5 445.72 13.51
4 1 -5 426.78 13.27
4 1 -5 490.4 14.92
4 1 -5 461.48 13.84
4 1 -4 355.44 11.92
-4 -1 4 341.06 12.04
-4 -1 4 331.63 10.06
-4 -1 4 303.82 9.89
4 1 -4 317.46 10.27
-4 -1 4 296.44 9.65
-4 -1 4 293.81 9.74
-4 -1 4 298.28 9.65
4 1 -4 348.21 11.69
-4 -1 4 368.44 12.63
4 1 -4 301.06 9.85
4 1 -4 316.73 9.95
4 1 -4 317.97 9.89
4 1 -4 347.02 11.39
4 1 -4 320.95 10.35
4 1 -3 99.62 5.36
-4 -1 3 95.17 5.38
-4 -1 3 88.64 4.3
-4 -1 3 82.1 3.84
4 1 -3 85.7 4.06
-4 -1 3 86.39 3.76
-4 -1 3 81.11 3.7
-4 -1 3 88.06 3.79
4 1 -3 96.17 5.25
-4 -1 3 99.29 5.59
4 1 -3 98.55 4.66
4 1 -3 91.82 3.91
4 1 -3 84.58 3.83
4 1 -3 86.1 3.81
4 1 -3 87.75 4.95
4 1 -3 96.39 4.38
4 1 -3 83.25 3.85
4 1 -2 87.22 4.87
-4 -1 2 75.72 3.98
-4 -1 2 75.64 4.7
-4 -1 2 74.99 3.18
4 1 -2 89.96 3.51
-4 -1 2 74.85 3.1
-4 -1 2 70.42 3.05
-4 -1 2 76.42 3.13
-4 -1 2 79.51 4.71
4 1 -2 83.94 4.41
4 1 -2 81.48 3.23
4 1 -2 83.79 3.27
4 1 -2 78.13 3.31
4 1 -2 73.81 4.34
4 1 -2 76.94 3.65
4 1 -2 74.93 4.28
-4 -1 1 52.23 3.65
4 1 -1 48.19 1.87
-4 -1 1 48.21 3.04
-4 -1 1 41.11 1.86
4 1 -1 42.74 1.94
-4 -1 1 40.21 1.76
-4 -1 1 42.7 1.81
-4 -1 1 40.47 1.78
-4 -1 1 42.94 1.83
4 1 -1 44.78 3.22
-4 -1 1 52.4 3.52
4 1 -1 43.77 1.86
4 1 -1 43.33 1.88
4 1 -1 43.19 1.85
4 1 -1 40.38 2.13
4 1 -1 47.42 2.53
4 1 -1 48.41 3.31
-4 -1 0 808.2 17.89
-4 -1 0 833.52 19.26
-4 -1 0 608.88 14.1
4 1 0 638.43 14.21
-4 -1 0 599.95 13.99
-4 -1 0 644.77 14.04
-4 -1 0 576.49 13.98
-4 -1 0 640.81 14.04
4 1 0 600.04 14.03
4 1 0 574.67 14.06
4 1 0 605.72 14.05
4 1 0 724.71 16.43
4 1 0 766.28 18.5
4 1 1 314.43 8.56
-4 -1 -1 329.05 9.65
-4 -1 -1 291.05 9.8
-4 -1 -1 321.87 10.56
4 1 1 285.19 9.24
-4 -1 -1 321.17 10.71
4 1 1 279.32 8.83
-4 -1 -2 136.81 3.71
-4 -1 -2 139.51 3.72
-4 -1 -2 134.72 3.7
-4 -1 -2 129.44 5.05
-4 -1 -2 143.41 6.08
4 1 2 138.29 5.13
-4 -1 -2 145.66 6.32
-4 -1 -2 131.71 3.72
4 1 2 129.56 4.44
4 1 2 134.41 5.73
4 1 2 139.26 5.8
4 1 2 130.61 5.37
4 1 3 285.24 9.6
4 1 3 293.23 9.5
4 1 3 294.54 7.84
-4 -1 -3 284.68 7.86
-4 -1 -3 295.99 10.21
4 1 3 286.15 7.79
-4 -1 -3 288.52 7.66
-4 -1 -3 278.97 7.65
4 1 3 284.92 8.59
-4 -1 -3 276.35 8.15
-4 -1 -3 249.44 9.6
-4 -1 -3 291.16 7.68
-4 -1 -3 288.05 7.66
4 1 3 273.65 9.6
4 1 3 270.55 7.79
4 1 3 275.81 8.38
4 1 3 283.93 10.06
4 1 4 1992.62 46.07
4 1 4 2009.07 46.08
4 1 4 1924.58 44
-4 -1 -4 1881.05 44.02
-4 -1 -4 1962.25 46.53
4 1 4 1936.07 43.85
4 1 4 1848.86 43.89
-4 -1 -4 2045.1 43.87
-4 -1 -4 1819.45 43.88
-4 -1 -4 1960.86 46.41
-4 -1 -4 2028.98 43.86
-4 -1 -4 1932.21 43.95
-4 -1 -4 1991.6 43.87
4 1 4 1885.37 46.44
4 1 4 1879.02 43.62
4 1 4 1918.71 44.48
4 1 4 2125.61 47.03
4 1 5 1757.74 43.83
4 1 5 1688.68 42.06
-4 -1 -5 1773.47 42.38
-4 -1 -5 1784.68 43.95
4 1 5 1750.02 42.07
4 1 5 1774.11 42.09
-4 -1 -5 1937.64 42.38
-4 -1 -5 1917.09 44.39
-4 -1 -5 1917.54 42.24
-4 -1 -5 1812.54 42.13
-4 -1 -5 1818.73 42.13
4 1 5 2006.33 44.9
4 1 5 1792.37 41.8
4 1 5 1838.46 42.64
4 1 5 1943.36 44.8
4 1 6 39.42 3.02
-4 -1 -6 40.01 3.09
-4 -1 -6 38.55 3.35
4 1 6 44.83 3.13
4 1 6 45.16 3.16
-4 -1 -6 48.4 3.21
-4 -1 -6 43.85 3.59
-4 -1 -6 49.14 3.18
-4 -1 -6 46.74 3.12
-4 -1 -6 44.05 3.06
4 1 6 42.63 2.94
4 1 6 49.62 3.97
4 1 6 50.63 3.94
4 1 6 44.34 3.23
4 1 7 1594.16 41.16
-4 -1 -7 1712.66 41.63
-4 -1 -7 1559.44 41.67
4 1 7 1638.83 41.29
4 1 7 1637.95 41.36
4 1 7 1543.55 40.99
-4 -1 -7 1836.62 41.49
-4 -1 -7 1750.6 42.32
-4 -1 -7 1867 41.46
-4 -1 -7 1741.18 41.3
-4 -1 -7 1801.35 41.32
4 1 7 1818.56 43.68
4 1 7 1633.71 40.82
4 1 7 1700.78 41.54
4 1 7 1792.56 43.05
4 1 8 200.88 8.71
-4 -1 -8 177.85 8.31
-4 -1 -8 169.82 8.15
4 1 8 186.41 8.62
4 1 8 193.3 8.49
4 1 8 198.34 8.44
-4 -1 -8 195.41 8.46
-4 -1 -8 207.91 8.5
-4 -1 -8 194.84 8.33
-4 -1 -8 204.42 8.5
4 1 8 178.59 8.7
4 1 8 193.55 8.53
4 1 8 183.18 9.12
4 1 8 181.49 8.05
-4 -1 -8 190.54 8.66
-4 -1 -9 13.75 2.26
-4 -1 -9 13.51 2.44
4 1 9 14.01 2.39
4 1 9 11.27 2.04
4 1 9 20.22 2.62
4 1 9 14.2 2.09
-4 -1 -9 15.09 2.38
4 1 9 15.52 2.34
-4 -1 -9 12.93 2.1
-4 -1 -9 16.29 2.34
-4 -1 -9 13.17 2.13
4 1 9 13.26 2.13
-4 -1 -9 14.38 2.21
4 1 9 12.04 2.32
4 1 9 15.92 2.45
-4 -1 -10 -0.21 0.95
4 1 10 1.46 1.16
-4 -1 -10 -0.16 0.68
4 1 10 -0.02 0.78
4 1 10 -0.65 0.89
4 1 10 -1.08 1.09
-4 -1 -10 0.41 0.83
4 1 10 -0.07 0.66
-4 -1 -10 -0.51 0.99
-4 -1 -10 -0.08 0.78
-4 -1 -10 -0.35 0.89
4 1 10 0 0.82
-4 -1 -10 1.52 1.24
4 1 10 0.32 0.89
4 1 10 1.34 1.19
4 1 11 81.88 6.3
-4 -1 -11 80.68 6.37
4 1 11 79.75 6.25
4 1 11 83.08 6.28
4 1 11 80.54 6.66
-4 -1 -11 77.38 6.26
-4 -1 -11 80.8 5.83
-4 -1 -11 84.5 6.27
-4 -1 -11 86.33 6.35
-4 -1 -11 81.16 6.25
4 1 11 74.47 6.36
4 1 11 71.8 5.88
4 1 11 77.51 6.18
4 1 12 41.63 5.11
4 1 12 45.8 4.95
-4 -1 -12 43.25 4.93
4 1 12 35.47 4.48
4 1 12 43.41 4.79
4 1 12 38.08 4.79
-4 -1 -12 44.27 4.84
-4 -1 -12 46.38 4.52
-4 -1 -12 44.44 4.83
-4 -1 -12 42.4 4.7
-4 -1 -12 47.4 5.06
4 1 12 46.2 5.13
4 1 12 45.83 5
4 1 13 37.26 4.94
4 1 13 43.82 5.16
-4 -1 -13 41.4 5.21
4 1 13 40.42 5
4 1 13 47.97 5.27
4 1 13 45.28 5.51
-4 -1 -13 45.34 5.16
-4 -1 -13 46.92 5.17
-4 -1 -13 51.29 5.45
-4 -1 -13 52.58 5.45
4 1 13 44.82 5.31
4 1 13 40.84 5.14
4 1 14 17.07 3.54
-4 -1 -14 18.52 3.88
4 1 14 18.61 3.55
4 1 14 19.16 3.58
4 1 14 18.98 3.49
4 1 14 22.3 3.98
-4 -1 -14 15.88 3.52
-4 -1 -14 23.2 3.99
-4 -1 -14 19.82 3.65
-4 -1 -14 16.07 3.51
4 1 14 18.43 3.53
4 1 15 15.53 3.55
-4 -1 -15 18.19 3.82
4 1 15 20.42 3.93
4 1 15 14.23 3.27
4 1 15 15.65 3.43
4 1 15 16.34 3.71
-4 -1 -15 26.67 4.3
4 1 15 9.3 2.51
-4 -1 -15 13.68 3.18
-4 -1 -15 18.49 3.74
-4 -1 -15 14.31 3.29
-4 -2 11 1.52 1.11
4 2 -11 6.51 2.11
4 2 -11 4 1.78
-4 -2 10 140.56 9.49
4 2 -10 129.37 8.42
4 2 -10 138.96 9.04
-4 -2 9 172.78 10.19
4 2 -9 158.64 8.54
4 2 -9 151.53 9.17
4 2 -9 152.77 8.85
-4 -2 8 14.8 2.51
4 2 -8 20.56 3.02
-4 -2 8 19.85 2.85
-4 -2 8 17.86 2.65
-4 -2 8 19.17 2.76
-4 -2 8 22.16 3.37
4 2 -8 22.46 3.08
4 2 -8 16.02 2.49
4 2 -8 18.87 2.72
4 2 -8 22.17 3.02
4 2 -8 16.43 2.87
4 2 -8 18.31 2.77
-4 -2 7 0.6 0.82
4 2 -7 1.26 1.05
-4 -2 7 1.01 0.75
-4 -2 7 2.58 0.91
-4 -2 7 0.96 0.92
4 2 -7 2.24 1.22
-4 -2 7 0.82 1.1
4 2 -7 0.65 0.72
4 2 -7 1.86 0.98
4 2 -7 0.17 0.66
4 2 -7 1.24 1.18
4 2 -7 1.94 0.94
-4 -2 6 51.99 4.04
4 2 -6 60.29 4.45
-4 -2 6 48.27 3.78
-4 -2 6 50.24 3.88
-4 -2 6 51.82 3.88
4 2 -6 60.2 4.69
-4 -2 6 64.1 5.26
4 2 -6 53.39 3.98
4 2 -6 51.72 3.95
4 2 -6 54.63 4.06
4 2 -6 57.46 4.54
4 2 -6 49.92 4.02
-4 -2 5 64.9 4.22
4 2 -5 63.14 4.25
-4 -2 5 61.94 4.02
-4 -2 5 65.62 4.09
-4 -2 5 68.4 4.18
4 2 -5 75.02 5.02
-4 -2 5 61.63 4.01
-4 -2 5 74.03 5.39
4 2 -5 71.38 4.36
4 2 -5 70.59 4.24
4 2 -5 68.22 4.75
4 2 -5 68.77 4.2
4 2 -5 66.33 4.38
4 2 -4 12.11 2.15
4 2 -4 9.78 1.52
-4 -2 4 8.35 1.62
-4 -2 4 8.8 1.41
-4 -2 4 8.74 1.31
-4 -2 4 8.85 1.32
4 2 -4 10.46 1.83
-4 -2 4 7.31 1.27
-4 -2 4 8.4 1.32
-4 -2 4 9.18 1.85
4 2 -4 7.83 1.26
4 2 -4 10.33 1.49
4 2 -4 8.84 1.35
4 2 -4 8.67 1.62
4 2 -4 9.99 1.56
4 2 -3 42.05 3.57
-4 -2 3 40.23 2.57
-4 -2 3 43.6 3.56
-4 -2 3 42.08 2.8
4 2 -3 43.25 2.94
-4 -2 3 42.72 2.71
-4 -2 3 40.93 2.64
-4 -2 3 41.43 2.64
4 2 -3 44.69 3.5
-4 -2 3 39.29 2.67
-4 -2 3 47.42 3.85
4 2 -3 42.15 2.85
4 2 -3 40.2 2.69
4 2 -3 46.04 3.53
4 2 -3 43.41 2.79
4 2 -3 45.26 3.04
-4 -2 2 424.97 13.68
4 2 -2 469.71 14.03
-4 -2 2 415.29 11.8
4 2 -2 399.93 11.72
-4 -2 2 406.05 11.52
-4 -2 2 416.09 11.29
-4 -2 2 404.77 11.24
-4 -2 2 408.88 11.28
-4 -2 2 407.6 11.31
4 2 -2 463.66 13.31
-4 -2 2 451.65 13.92
4 2 -2 423.48 11.64
4 2 -2 415.13 11.43
4 2 -2 435.26 13.49
4 2 -2 421.43 11.43
4 2 -2 384.56 11.53
-4 -2 2 422.36 13.06
4 2 -2 424.97 12.2
4 2 -2 431.2 13.27
4 2 -1 414 13.01
4 2 -1 400.65 10.24
-4 -2 1 424.84 13.12
4 2 -1 395.11 10.71
-4 -2 1 383.82 10.46
-4 -2 1 385.98 10.26
-4 -2 1 385.39 10.22
-4 -2 1 384.21 10.25
-4 -2 1 381.52 10.28
-4 -2 1 438.71 12.97
-4 -2 1 376.54 11.28
4 2 -1 435.01 12.81
4 2 -1 395.12 10.43
4 2 -1 357.9 9.92
4 2 -1 397.66 10.36
-4 -2 1 408.34 12.61
4 2 -1 423.14 11.52
4 2 -1 370.65 11.35
4 2 -1 411.05 12.7
-4 -2 0 870.92 22.48
4 2 0 860.84 19.93
4 2 0 805.3 19.28
-4 -2 0 808.92 19.15
-4 -2 0 779 18.95
-4 -2 0 804.88 18.98
-4 -2 0 804.5 18.94
-4 -2 0 794.03 18.97
-4 -2 0 767.75 18.98
4 2 0 902.15 22.38
-4 -2 0 789.05 20.74
-4 -2 0 895.84 21.76
4 2 0 822.71 19.13
4 2 0 843.12 19.06
4 2 0 744.21 19.77
4 2 0 899.76 20.48
-4 -2 0 862.12 22.08
4 2 0 894.8 22.33
4 2 0 788.75 20.92
-4 -2 -1 137.09 6.29
4 2 1 135.29 5.16
-4 -2 -1 124.67 3.98
-4 -2 -1 127.65 3.96
-4 -2 -1 125.43 3.97
-4 -2 -1 126.69 4.01
4 2 1 134.68 6.2
-4 -2 -1 139.72 5.53
-4 -2 -1 121.94 5.41
4 2 1 109.69 4.9
4 2 1 134.96 4.11
-4 -2 -1 136.25 6.1
4 2 1 131.54 5.09
4 2 1 122.36 5.57
4 2 2 10.1 1.29
4 2 2 10.88 1.37
-4 -2 -2 11.38 1.69
-4 -2 -2 9.99 0.94
-4 -2 -2 9.93 0.93
-4 -2 -2 9.32 0.91
-4 -2 -2 10.33 1.29
-4 -2 -2 10.94 1.66
4 2 2 10.57 1.04
-4 -2 -2 9.85 0.93
4 2 2 9.87 0.68
-4 -2 -2 10.31 1.58
4 2 2 9.65 1.37
4 2 2 9.53 1.5
4 2 3 1556.71 36.45
4 2 3 1521.26 36.66
4 2 3 1518.11 35.27
-4 -2 -3 1511 35.26
-4 -2 -3 1609.28 38.09
-4 -2 -3 1485.04 35.02
-4 -2 -3 1561.99 34.94
-4 -2 -3 1594.68 34.92
-4 -2 -3 1498.72 34.91
4 2 3 1540.97 34.67
-4 -2 -3 1497.5 37.51
-4 -2 -3 1544.26 34.95
-4 -2 -3 1570.25 34.88
4 2 3 1426.68 36.83
4 2 3 1346.88 33.32
4 2 3 1526.2 34.43
-4 -2 -3 1660.95 37.67
4 2 3 1513.49 37.37
4 2 4 647.52 17.94
4 2 4 718.77 18.69
4 2 4 697.18 17.14
-4 -2 -4 663.18 17.11
-4 -2 -4 668.05 19.04
4 2 4 647.4 16.94
-4 -2 -4 691.27 16.86
-4 -2 -4 696.14 17
-4 -2 -4 604.89 15.49
-4 -2 -4 703.6 19.12
-4 -2 -4 692.74 16.91
-4 -2 -4 686.78 16.84
4 2 4 658.72 18.65
4 2 4 602.67 15.3
-4 -2 -4 680.51 18.5
4 2 4 716.94 19.32
4 2 4 625.41 16.28
4 2 5 1107.8 27.63
4 2 5 1003.47 25.85
-4 -2 -5 1108.64 26.38
-4 -2 -5 999.22 27.52
4 2 5 1077.85 26.03
4 2 5 1048.79 26.01
-4 -2 -5 1110.63 25.94
-4 -2 -5 1003.35 25.71
-4 -2 -5 1019.63 27.41
-4 -2 -5 1084.79 25.81
-4 -2 -5 1047.47 25.94
-4 -2 -5 1041.81 25.77
4 2 5 1130.73 28.03
4 2 5 980.09 24.39
-4 -2 -5 1067.03 26.86
4 2 5 1021.44 25.31
4 2 5 1083.63 28
4 2 6 2173.11 51.67
4 2 6 2284.1 50.26
-4 -2 -6 2125.53 50.2
-4 -2 -6 2021.22 51.04
4 2 6 2030.92 49.54
4 2 6 1992.94 49.37
-4 -2 -6 2132.08 49.53
-4 -2 -6 2154.51 49.75
-4 -2 -6 2223.15 51.28
-4 -2 -6 2125.32 49.42
-4 -2 -6 2177.32 49.72
-4 -2 -6 2175.89 49.61
4 2 6 2356.01 52.18
4 2 6 1982.51 48.19
4 2 6 2068.43 49.07
-4 -2 -6 2089.57 49.86
4 2 6 2388.5 52.11
4 2 7 22.9 2.86
4 2 7 29.7 2.87
-4 -2 -7 30.66 2.96
-4 -2 -7 25.23 2.83
4 2 7 26.15 2.62
4 2 7 25.81 2.57
-4 -2 -7 27.83 2.66
-4 -2 -7 31.19 3.06
-4 -2 -7 29.26 2.67
-4 -2 -7 32.11 2.87
-4 -2 -7 27.63 2.64
4 2 7 24.81 2.97
4 2 7 24.51 2.26
4 2 7 26.91 2.56
4 2 7 27.84 3.04
4 2 8 514.05 17.15
4 2 8 529.83 16.48
-4 -2 -8 521.31 16.6
-4 -2 -8 489.21 16.59
4 2 8 503.52 16.36
4 2 8 523.84 16.22
-4 -2 -8 521.03 16.17
-4 -2 -8 512.81 16.44
-4 -2 -8 525.66 16.09
-4 -2 -8 492.24 15.96
-4 -2 -8 523.23 16.07
4 2 8 498.8 17.31
4 2 8 474.85 15.07
4 2 8 495.06 15.73
4 2 8 519.97 17.02
4 2 9 104.77 6.79
4 2 9 99.71 6.27
-4 -2 -9 107.44 6.53
-4 -2 -9 91.48 6.1
4 2 9 111.18 6.56
4 2 9 109.34 6.45
-4 -2 -9 106.07 6.3
-4 -2 -9 100.42 6.21
-4 -2 -9 115.61 6.43
-4 -2 -9 104.25 6.28
-4 -2 -9 107.1 6.25
4 2 9 107.45 7
4 2 9 96.13 5.66
4 2 9 99.81 6
4 2 9 104.14 6.53
4 2 10 18.64 3.32
4 2 10 29.85 3.59
-4 -2 -10 26.88 3.58
-4 -2 -10 24.38 3.21
4 2 10 29.83 3.46
4 2 10 30.72 3.45
-4 -2 -10 34.53 3.63
-4 -2 -10 27.36 3.21
-4 -2 -10 32.69 3.48
-4 -2 -10 34.71 3.71
-4 -2 -10 28.45 3.34
4 2 10 30.15 3.83
4 2 10 27.93 3.24
4 2 11 332.94 14.69
4 2 11 315 13.89
-4 -2 -11 324.88 14.24
-4 -2 -11 286.5 13.02
4 2 11 347.79 14.24
4 2 11 337.98 13.97
-4 -2 -11 339.21 13.88
-4 -2 -11 342.42 13.27
-4 -2 -11 354.47 13.95
-4 -2 -11 354.84 14.1
-4 -2 -11 338.97 13.76
4 2 11 331.45 14.61
4 2 11 308.23 13.57
4 2 12 15.57 3.16
-4 -2 -12 18.33 3.44
4 2 12 20.73 3.61
4 2 12 18.77 3.12
4 2 12 15.11 2.79
-4 -2 -12 21 2.96
4 2 12 22.27 3.48
-4 -2 -12 16.06 2.77
-4 -2 -12 20.72 3.2
-4 -2 -12 19.11 3.15
-4 -2 -12 17.53 3.05
4 2 12 14.67 2.91
4 2 13 20.48 3.66
-4 -2 -13 18.27 3.55
4 2 13 13.93 3.13
4 2 13 21.75 3.62
4 2 13 18.95 3.52
4 2 13 22.79 3.73
-4 -2 -13 20.23 3.45
-4 -2 -13 17.49 3.17
-4 -2 -13 24.64 3.8
-4 -2 -13 23.65 3.73
4 2 13 20.26 3.62
4 2 14 47.23 5.83
4 2 14 60.89 6.65
-4 -2 -14 63.79 7
4 2 14 60.67 6.42
4 2 14 47.56 5.6
-4 -2 -14 64.21 6.35
-4 -2 -14 55.35 5.93
-4 -2 -14 61.5 6.34
-4 -2 -14 65.76 6.4
4 2 14 56.69 6.14
4 2 14 52.28 5.89
4 2 15 19.71 4
-4 -2 -15 22.84 4.42
4 2 15 23.05 4.38
4 2 15 23.79 4.27
4 2 15 18.02 3.72
-4 -2 -15 20.93 4.07
-4 -2 -15 18.55 3.91
-4 -2 -15 19.28 3.82
4 2 15 18.4 3.61
4 2 15 20.43 4.01
-4 -2 -15 22.2 4.12
4 3 -10 13.4 2.88
4 3 -10 9.84 2.52
-4 -3 10 8.73 2.43
-4 -3 9 6.3 2.2
4 3 -9 3.42 1.55
4 3 -9 5.22 1.72
4 3 -9 3.91 1.4
4 3 -9 2.39 1.38
4 3 -9 5.4 1.92
4 3 -9 2.74 1.34
-4 -3 8 51.29 4.83
4 3 -8 49.73 4.88
-4 -3 8 71.46 6.16
4 3 -8 59.41 4.75
-4 -3 8 50.69 4.68
-4 -3 8 59.05 5.04
-4 -3 8 53.27 4.71
4 3 -8 55.19 4.9
4 3 -8 66.26 5.29
4 3 -8 54.48 4.84
4 3 -8 55.22 5.07
4 3 -8 57.54 4.97
4 3 -7 55.77 4.83
-4 -3 7 51.78 4.57
-4 -3 7 51.35 4.38
-4 -3 7 52.31 4.41
-4 -3 7 48.51 4.26
4 3 -7 59.73 4.66
-4 -3 7 56.11 5.35
4 3 -7 58.25 4.62
4 3 -7 54.25 4.56
4 3 -7 53.94 4.49
4 3 -7 55.81 4.89
4 3 -7 58.16 4.79
4 3 -6 7.14 1.56
-4 -3 6 6.94 1.63
-4 -3 6 4.67 1.03
-4 -3 6 4.92 1.25
4 3 -6 4.97 1.68
-4 -3 6 4.34 1.25
-4 -3 6 4.77 1.23
-4 -3 6 6.75 1.89
4 3 -6 3.95 1.24
4 3 -6 3.41 1.25
4 3 -6 4.68 1.26
4 3 -6 7.38 1.85
4 3 -6 5.77 1.72
-4 -3 5 73.43 4.75
4 3 -5 74.14 4.91
-4 -3 5 68.24 4.44
-4 -3 5 68.05 4.41
-4 -3 5 66.19 4.37
4 3 -5 79 5.31
-4 -3 5 68.04 4.49
-4 -3 5 82.84 5.89
4 3 -5 72.31 4.72
4 3 -5 81.95 4.86
4 3 -5 70.62 5
4 3 -5 73.28 4.6
4 3 -5 76.55 4.9
4 3 -4 103.19 6.02
-4 -3 4 87.93 5.44
-4 -3 4 87.72 4.95
4 3 -4 94.58 5.26
-4 -3 4 94.17 4.87
-4 -3 4 87.91 4.73
-4 -3 4 94.74 4.91
4 3 -4 92.59 5.64
-4 -3 4 90.26 4.88
-4 -3 4 110 6.48
4 3 -4 87.5 4.97
4 3 -4 91.52 4.95
4 3 -4 89.27 5.53
4 3 -4 87.44 4.81
-4 -3 4 91.72 4.92
4 3 -4 97.87 5.24
4 3 -3 645.25 18.43
-4 -3 3 588.93 17.78
4 3 -3 570.83 16.61
-4 -3 3 579.86 16.36
-4 -3 3 562.08 15.93
-4 -3 3 555.42 15.9
-4 -3 3 562.14 15.97
4 3 -3 630.86 17.9
-4 -3 3 559.04 16.07
-4 -3 3 638.63 18.78
4 3 -3 580.42 16.27
4 3 -3 620.06 17.98
4 3 -3 587.71 16.23
-4 -3 3 593.62 17.01
4 3 -3 591.03 16.83
4 3 -2 18.86 2.37
-4 -3 2 22.13 2.48
4 3 -2 18.51 1.92
-4 -3 2 21.02 1.98
-4 -3 2 22.6 1.95
-4 -3 2 19.57 1.82
-4 -3 2 24.37 1.98
-4 -3 2 19.7 1.81
-4 -3 2 24.36 2.71
4 3 -2 18.58 1.83
4 3 -2 21.48 2.46
4 3 -2 21.17 1.94
-4 -3 2 26.53 2.6
4 3 -2 26.79 2.36
4 3 -1 99.25 5.37
4 3 -1 87.86 3.8
-4 -3 1 93.51 5.15
4 3 -1 86.16 4.16
-4 -3 1 85.4 3.98
-4 -3 1 86.81 3.82
-4 -3 1 90.03 3.9
-4 -3 1 90.56 3.86
-4 -3 1 89.24 3.89
-4 -3 1 82.09 3.86
-4 -3 1 97.02 5.26
4 3 -1 82.89 4.86
4 3 -1 78.74 3.89
4 3 -1 85.39 3.34
4 3 -1 89.66 3.94
-4 -3 1 98.64 5.25
4 3 -1 97.08 4.54
4 3 -1 92.51 5.14
-4 -3 0 95.79 5.29
4 3 0 97.79 4.28
4 3 0 93.82 4.2
-4 -3 0 96.82 4.1
-4 -3 0 91.62 3.85
-4 -3 0 95.7 3.88
-4 -3 0 101.17 3.94
-4 -3 0 98.53 3.95
-4 -3 0 91.01 3.94
-4 -3 0 102.32 5.11
4 3 0 105.03 5.44
4 3 0 93.62 4.03
4 3 0 93.33 4.05
4 3 0 108.14 4.14
-4 -3 0 110.58 5.53
4 3 0 88.44 4.48
4 3 0 100.97 4.63
4 3 0 102.52 5.38
4 3 1 101.14 4.12
4 3 1 101.42 4.64
-4 -3 -1 106.56 5.58
-4 -3 -1 106.23 4.04
-4 -3 -1 104.53 3.99
-4 -3 -1 104.51 4.02
-4 -3 -1 102.97 4.03
4 3 1 94.4 5.36
-4 -3 -1 103.92 4.93
-4 -3 -1 103.91 4.05
4 3 1 102.41 4.64
4 3 1 108.29 4.23
-4 -3 -1 107.93 5.51
4 3 1 99.29 4.9
4 3 1 108.51 5.55
4 3 1 113.56 4.89
4 3 2 1.41 0.56
-4 -3 -2 0.85 0.7
-4 -3 -2 -0.11 0.35
-4 -3 -2 0.23 0.32
-4 -3 -2 0.19 0.24
-4 -3 -2 -0.13 0.28
-4 -3 -2 -0.02 0.43
4 3 2 -0.11 0.14
-4 -3 -2 0.21 0.26
4 3 2 -0.02 0.3
4 3 2 0.07 0.35
-4 -3 -2 0.55 0.74
4 3 2 0.09 0.35
4 3 3 171.19 6.25
4 3 3 187.11 7.16
4 3 3 182.54 6.48
-4 -3 -3 174.25 6.3
-4 -3 -3 182.04 7.74
-4 -3 -3 180.84 6.1
-4 -3 -3 176.92 6.06
-4 -3 -3 180.15 6.11
4 3 3 166.19 7.4
-4 -3 -3 164 5.81
-4 -3 -3 163.8 6.03
-4 -3 -3 170.52 6
4 3 3 179.42 7.22
4 3 3 158.46 4.53
-4 -3 -3 174.08 7.37
4 3 3 162.47 7.25
4 3 4 282.31 9.78
4 3 4 278.72 8.89
-4 -3 -4 266.18 8.82
-4 -3 -4 264.58 10.14
4 3 4 266.12 8.71
-4 -3 -4 277.43 8.57
-4 -3 -4 279.95 8.62
4 3 4 236.77 9.59
-4 -3 -4 246.47 7.3
-4 -3 -4 271.79 9.99
-4 -3 -4 267.39 8.57
-4 -3 -4 281.21 8.63
4 3 4 253.96 9.57
-4 -3 -4 269.02 9.72
4 3 4 270.22 9.91
4 3 4 242.38 6.92
4 3 5 1938.85 46.9
4 3 5 1944.36 45.74
-4 -3 -5 1900.62 45.83
-4 -3 -5 1843.5 47.27
4 3 5 1974.69 45.82
4 3 5 1936.53 45.95
-4 -3 -5 2049.82 45.58
-4 -3 -5 2032.26 45.75
-4 -3 -5 2012.42 47.28
-4 -3 -5 1989.94 45.82
-4 -3 -5 1969.04 45.62
-4 -3 -5 1986.4 45.53
4 3 5 2096.52 47.61
-4 -3 -5 1955.54 46.58
4 3 5 1819.26 43.61
4 3 5 2069.85 47.63
4 3 6 163.89 7.65
4 3 6 158.96 6.92
-4 -3 -6 158.73 7.08
-4 -3 -6 149.5 7.55
4 3 6 177.07 7.16
4 3 6 176.8 7.26
-4 -3 -6 175.83 6.99
-4 -3 -6 165.08 6.94
-4 -3 -6 167.91 7.59
-4 -3 -6 162.1 6.78
-4 -3 -6 164.93 6.86
-4 -3 -6 171.84 7.06
4 3 6 168.42 7.94
-4 -3 -6 158.04 6.97
4 3 6 155.36 5.91
4 3 6 172.44 7.96
4 3 7 408.43 14.04
4 3 7 405.33 13.48
-4 -3 -7 400.57 13.71
-4 -3 -7 370.43 13.84
4 3 7 384.69 12.85
4 3 7 363.3 12.84
-4 -3 -7 412.21 13.03
-4 -3 -7 408.44 13.26
-4 -3 -7 406.86 13.62
-4 -3 -7 397 12.82
-4 -3 -7 407.42 13.18
-4 -3 -7 407.64 12.98
4 3 7 387.9 14.25
4 3 7 372.56 11.85
4 3 7 412.49 14.09
-4 -3 -7 376.28 12.52
4 3 8 341.16 12.71
4 3 8 318.32 11.83
-4 -3 -8 316.9 11.89
-4 -3 -8 262.94 11.59
4 3 8 301.55 11.32
4 3 8 303.75 11.26
-4 -3 -8 315.99 11.37
-4 -3 -8 297.14 11.24
-4 -3 -8 310.72 11.57
-4 -3 -8 313.25 11.25
-4 -3 -8 310.68 11.38
-4 -3 -8 305.02 11.21
4 3 8 326.44 12.79
4 3 8 293.91 10.54
-4 -3 -8 260.71 10.15
4 3 9 40.51 4.17
4 3 9 41.62 3.88
-4 -3 -9 40.3 3.91
-4 -3 -9 36 3.86
4 3 9 40.23 3.95
4 3 9 41.88 3.95
-4 -3 -9 44.44 3.98
-4 -3 -9 39.26 3.66
-4 -3 -9 43.53 3.93
-4 -3 -9 42.13 3.98
-4 -3 -9 39.1 3.78
4 3 9 44.43 4.4
4 3 9 42.58 3.64
4 3 10 37.74 4.41
4 3 10 36.52 4.24
-4 -3 -10 38.5 4.26
-4 -3 -10 38.15 4.08
4 3 10 40.69 4.08
4 3 10 43.77 4.17
-4 -3 -10 39.43 3.93
-4 -3 -10 37.19 3.6
-4 -3 -10 41.42 4
-4 -3 -10 39.28 3.98
-4 -3 -10 35.68 3.74
4 3 10 40.98 4.48
4 3 10 34.35 3.55
4 3 11 65.39 5.79
4 3 11 71.76 5.98
-4 -3 -11 58.08 5.46
-4 -3 -11 51.09 5.06
4 3 11 65.14 5.72
4 3 11 62.27 5.5
-4 -3 -11 57.68 5.22
-4 -3 -11 54.8 4.66
-4 -3 -11 64.4 5.47
-4 -3 -11 58.25 5.31
-4 -3 -11 56.83 5.18
4 3 11 64.66 5.85
4 3 11 52.47 4.79
4 3 12 5.45 1.94
-4 -3 -12 5.87 1.9
4 3 12 7.24 2.13
-4 -3 -12 6.99 1.98
4 3 12 5.12 1.76
4 3 12 9.87 2.48
-4 -3 -12 6.7 1.76
4 3 12 6.31 1.87
-4 -3 -12 6.97 1.93
-4 -3 -12 5.73 1.68
-4 -3 -12 8.65 2.19
-4 -3 -12 7.06 2
4 3 12 7.57 2.28
4 3 13 397.28 17.85
4 3 13 402.05 18.14
4 3 13 421.43 17.94
-4 -3 -13 425.49 17.5
4 3 13 449.94 18.23
-4 -3 -13 428.41 18.07
-4 -3 -13 360.22 16.42
-4 -3 -13 399.34 17.04
-4 -3 -13 406.19 17.61
-4 -3 -13 408.71 17.3
4 3 13 409.39 17.82
4 3 13 375.12 16.58
-4 -3 -14 15.37 3.51
4 3 14 18.4 3.82
4 3 14 16.1 3.39
4 3 14 20.88 3.69
-4 -3 -14 22.26 3.77
-4 -3 -14 19.25 3.54
-4 -3 -14 18.7 3.45
4 3 14 22.63 4.03
-4 -3 -14 24.12 4
4 3 14 21.96 4.01
-4 -3 -15 35.58 5.36
4 3 15 30.01 4.86
4 3 15 28.61 4.59
4 3 15 26.04 4.55
-4 -3 -15 29.28 4.61
-4 -3 -15 24.48 4.32
-4 -3 -15 28.35 4.46
4 3 15 24.54 4.15
-4 -3 -15 23.4 4.07
4 3 15 33.58 5.08
4 4 -10 1.39 1.11
4 4 -10 -0.49 1.16
-4 -4 10 1.27 1.45
-4 -4 9 35.3 4.36
4 4 -9 35.54 4.48
-4 -4 9 44.04 4.61
-4 -4 9 38.34 4.35
-4 -4 9 34.86 4.17
-4 -4 9 42.46 5.12
4 4 -9 33.22 4.07
4 4 -9 42.34 4.62
4 4 -9 33.09 4.08
4 4 -9 37.28 4.58
4 4 -9 36.51 4.42
-4 -4 8 0.61 0.93
4 4 -8 2.71 1.37
-4 -4 8 1.81 0.9
-4 -4 8 0.54 0.85
-4 -4 8 1.49 1.02
-4 -4 8 0.19 1.06
4 4 -8 3.19 1.48
4 4 -8 2.89 1.27
4 4 -8 1.24 1.09
4 4 -8 -0.01 1.1
4 4 -8 3.58 1.67
-4 -4 7 44.26 4.35
4 4 -7 42.93 4.43
-4 -4 7 42.09 4.06
-4 -4 7 44.93 4.2
-4 -4 7 37.24 3.83
-4 -4 7 39.69 3.96
-4 -4 7 43.77 4.79
4 4 -7 44.65 4.29
4 4 -7 40.39 4.09
4 4 -7 37.43 4.19
4 4 -7 37.07 3.9
4 4 -7 42.1 4.14
-4 -4 6 187.17 9.13
4 4 -6 183.34 9.22
-4 -4 6 187.43 8.74
-4 -4 6 189.47 8.78
-4 -4 6 183.49 8.64
-4 -4 6 185.98 8.77
4 4 -6 180.01 9.15
-4 -4 6 203.2 10.45
4 4 -6 187.91 8.96
4 4 -6 192.64 8.93
4 4 -6 184.53 9.22
4 4 -6 192.66 8.92
4 4 -6 187.36 9
-4 -4 5 30.3 3.19
4 4 -5 33.63 3.42
-4 -4 5 28.38 2.91
-4 -4 5 30.72 3.06
-4 -4 5 33.65 3.18
-4 -4 5 30.87 3.08
4 4 -5 31.8 3.46
-4 -4 5 32.5 3.89
4 4 -5 31.52 3.24
4 4 -5 31.23 3.11
4 4 -5 34.69 3.67
4 4 -5 30.77 3.08
4 4 -5 33.37 3.29
-4 -4 4 115.23 6.2
4 4 -4 109.05 6.09
-4 -4 4 116.98 6.08
-4 -4 4 109.74 5.69
-4 -4 4 113.23 5.78
-4 -4 4 113.37 5.81
4 4 -4 108.88 6.29
-4 -4 4 101.63 5.63
-4 -4 4 126.61 7.31
4 4 -4 108.07 5.83
4 4 -4 118.94 6.58
4 4 -4 108.81 5.79
-4 -4 4 109.88 5.7
4 4 -4 113.24 6.11
4 4 -3 11.36 2.05
4 4 -3 12.71 1.88
-4 -4 3 12.05 1.91
-4 -4 3 11.09 1.65
-4 -4 3 12.1 1.65
-4 -4 3 10.61 1.6
4 4 -3 14.46 2
-4 -4 3 11.28 1.61
-4 -4 3 11.87 1.65
-4 -4 3 15.18 2.48
4 4 -3 12.6 1.78
4 4 -3 11.66 1.73
4 4 -3 14.23 2.23
4 4 -3 11.97 1.85
-4 -4 3 14.11 1.99
4 4 -2 2.46 1.15
4 4 -2 3.36 1.05
-4 -4 2 2.02 0.85
-4 -4 2 2.71 0.82
-4 -4 2 2.35 0.71
-4 -4 2 2.14 0.66
-4 -4 2 3.45 0.95
-4 -4 2 3.34 0.83
-4 -4 2 3.5 0.9
-4 -4 2 2.57 1.28
4 4 -2 2.74 0.85
4 4 -2 1.82 0.66
4 4 -2 2.65 1.06
4 4 -2 3.36 0.91
-4 -4 2 2.98 1.08
4 4 -1 51.93 3.96
4 4 -1 47.19 2.98
-4 -4 1 48.57 3.71
4 4 -1 49.03 3.36
-4 -4 1 47.59 3.16
-4 -4 1 51.52 3.14
-4 -4 1 52.78 3.17
-4 -4 1 48.05 3.01
-4 -4 1 52.34 3.15
-4 -4 1 52.85 3.21
-4 -4 1 59.52 4.24
4 4 -1 50.31 3.23
4 4 -1 51.4 3.19
4 4 -1 50.23 2.62
-4 -4 1 52.57 3.84
4 4 -1 55.45 3.63
4 4 -1 53.64 3.96
4 4 0 3.74 1.22
4 4 0 1.8 0.44
4 4 0 2.41 0.72
-4 -4 0 2.12 0.89
-4 -4 0 3.01 0.73
-4 -4 0 2.24 0.7
-4 -4 0 3.04 0.74
-4 -4 0 3.09 0.75
4 4 0 2.6 1
-4 -4 0 2.92 0.98
4 4 0 3.59 0.86
4 4 0 3.04 0.72
4 4 0 2.6 0.71
-4 -4 0 3.65 1.17
4 4 0 2.66 1.15
4 4 1 1485.53 35.12
4 4 1 1722.03 37.81
-4 -4 -1 1533.7 38.99
-4 -4 -1 1554.86 36.59
-4 -4 -1 1566.04 36.64
-4 -4 -1 1490.54 36.64
-4 -4 -1 1564.2 36.66
-4 -4 -1 1605.53 38.2
4 4 1 1698.02 39.47
-4 -4 -1 1495.87 36.66
4 4 1 1519.71 37.16
4 4 1 1592.12 37.01
-4 -4 -1 1748.09 39.53
4 4 1 1707.33 39.34
4 4 1 1663.85 38.13
4 4 2 3.72 1
-4 -4 -2 6.03 1.35
-4 -4 -2 6.01 1.04
-4 -4 -2 5.64 0.99
-4 -4 -2 4.47 0.85
-4 -4 -2 5.02 0.94
4 4 2 4.32 1.25
-4 -4 -2 5.76 1.12
-4 -4 -2 5.07 0.96
4 4 2 5.12 0.94
4 4 2 5.5 1.09
-4 -4 -2 5.15 1.32
-4 -4 -3 23.76 1.62
4 4 3 19.91 2.26
-4 -4 -3 20.86 2.48
-4 -4 -3 23.55 2.09
-4 -4 -3 25.94 2.14
-4 -4 -3 24.39 2.12
4 4 3 22.54 2.55
-4 -4 -3 23.61 2
-4 -4 -3 22.15 2.03
4 4 3 22.18 2.33
-4 -4 -3 25.8 2.65
-4 -4 -4 93.68 3.56
4 4 4 108.56 5.62
4 4 4 102.57 5.12
-4 -4 -4 105.83 5.17
-4 -4 -4 98.1 5.77
-4 -4 -4 100.43 4.98
-4 -4 -4 107.01 4.98
-4 -4 -4 104.97 4.9
4 4 4 109.3 5.95
-4 -4 -4 98.05 4.11
-4 -4 -4 105.21 5.01
-4 -4 -4 101.42 4.85
4 4 4 97.76 5.42
-4 -4 -4 106.9 5.71
-4 -4 -5 82.99 3.23
4 4 5 86.73 5.22
4 4 5 90.71 4.88
-4 -4 -5 96.18 5.1
-4 -4 -5 83.41 5.38
4 4 5 87.15 4.81
-4 -4 -5 88.28 4.67
-4 -4 -5 90.48 4.76
4 4 5 91.66 5.52
-4 -4 -5 79.93 3.19
-4 -4 -5 90.27 4.75
-4 -4 -5 93.42 4.78
4 4 5 90.71 5.37
-4 -4 -5 94.21 5.31
-4 -4 -6 420.91 11.33
4 4 6 460.8 14.87
4 4 6 452.16 14.07
-4 -4 -6 442.52 14.18
-4 -4 -6 430.84 15.08
4 4 6 466.86 14.22
-4 -4 -6 448.07 13.82
-4 -4 -6 450.2 13.93
4 4 6 452.25 14.84
-4 -4 -6 456.51 13.94
-4 -4 -6 439.1 13.72
4 4 6 481.23 15.25
-4 -4 -6 452.75 14.25
4 4 6 385.91 11.26
4 4 7 701.21 20.81
4 4 7 715.68 20.12
-4 -4 -7 712.02 20.4
-4 -4 -7 647.8 20.77
4 4 7 692.49 19.92
4 4 7 626.12 19.98
-4 -4 -7 674.65 19.6
-4 -4 -7 644.93 19.84
4 4 7 698.03 20.41
-4 -4 -7 691.49 20.16
-4 -4 -7 697.06 19.63
-4 -4 -7 697.39 19.74
-4 -4 -7 652.1 19.75
4 4 7 708.11 21.21
-4 -4 -7 659.11 19.29
4 4 7 621.93 17.35
4 4 8 11.56 2.23
4 4 8 8.89 1.81
-4 -4 -8 8.98 1.96
-4 -4 -8 9.34 1.93
4 4 8 8.7 1.73
-4 -4 -8 8.95 1.82
4 4 8 10.83 1.99
4 4 8 12.8 2.13
-4 -4 -8 10.85 2.02
4 4 8 10.84 1.56
-4 -4 -8 11 1.82
-4 -4 -8 9.5 1.79
-4 -4 -8 10.66 1.9
-4 -4 -8 11.84 1.93
-4 -4 -8 9.49 1.71
4 4 8 12.88 2.38
4 4 9 558.82 18.89
4 4 9 572.34 18.42
-4 -4 -9 564.98 18.51
-4 -4 -9 502.97 18.51
4 4 9 576.24 18.26
4 4 9 568.63 18.42
-4 -4 -9 568.75 17.99
-4 -4 -9 545.84 18.24
4 4 9 564.05 17.9
-4 -4 -9 544.18 17.66
-4 -4 -9 570.16 17.99
-4 -4 -9 541.9 18.01
-4 -4 -9 567.95 18.02
4 4 9 566.98 19.13
-4 -4 -9 476.52 16.01
4 4 9 512.36 16.44
4 4 10 19.55 3
-4 -4 -10 21.41 3.12
4 4 10 21.79 3.1
-4 -4 -10 16.5 2.89
4 4 10 17.49 2.79
-4 -4 -10 17.46 2.83
4 4 10 16.58 2.8
4 4 10 19.56 2.71
-4 -4 -10 16.38 2.39
4 4 10 16.1 2.4
-4 -4 -10 18.23 2.75
-4 -4 -10 17.95 2.77
-4 -4 -10 17.67 2.76
-4 -4 -10 19.31 3
4 4 10 19.09 3.1
-4 -4 -11 8.52 2.43
4 4 11 11.87 2.73
-4 -4 -11 11.95 2.5
4 4 11 12.86 2.48
-4 -4 -11 12.92 2.46
4 4 11 13.66 2.63
4 4 11 14.14 2.37
-4 -4 -11 15.2 2.41
-4 -4 -11 11.63 2.31
-4 -4 -11 16.51 2.75
-4 -4 -11 16.91 2.82
4 4 11 13.7 2.86
-4 -4 -11 16.09 2.71
4 4 11 14.99 2.89
4 4 12 251.79 12.53
-4 -4 -12 262.41 13.01
-4 -4 -12 222.42 12.08
4 4 12 243.14 13
4 4 12 248.9 12.73
-4 -4 -12 235.01 12.02
-4 -4 -12 239.47 12.38
-4 -4 -12 251.19 10.98
-4 -4 -12 245.99 12.29
-4 -4 -12 227.27 12.32
-4 -4 -12 227.05 12.04
4 4 12 245.06 12.65
4 4 12 265.24 12.97
4 4 13 50.04 5.73
-4 -4 -13 49.58 5.8
-4 -4 -13 46.51 5.41
-4 -4 -13 53.04 5.56
-4 -4 -13 48.75 5.39
4 4 13 44.92 5.36
4 4 13 50.15 5.42
-4 -4 -13 48.04 5.26
-4 -4 -13 53.34 5.72
-4 -4 -13 42.4 5
4 4 13 45.35 5.33
4 4 13 39.74 5.08
4 4 14 47.91 5.8
-4 -4 -14 41.84 5.44
-4 -4 -14 42.22 5.2
-4 -4 -14 43.1 5.43
-4 -4 -14 37.78 5.34
4 4 14 40.13 5.69
4 4 14 38.16 5.35
-4 -4 -14 42.51 5.34
-4 -4 -14 40.3 5.41
-4 -4 -14 46.51 5.52
4 4 14 38.1 5.12
4 4 14 46.54 5.69
4 4 15 43.95 5.96
-4 -4 -15 48.52 6.2
4 4 15 50.72 6.39
4 4 15 43.71 5.85
-4 -4 -15 43.71 5.59
-4 -4 -15 41.15 5.61
-4 -4 -15 47.24 5.73
-4 -4 -15 54.46 6.33
-4 -4 -15 47.61 5.75
4 4 15 46.96 5.83
4 4 15 48.79 5.96
4 4 16 23.45 4.17
-4 -5 9 50.48 5.26
4 5 -9 48.12 5.45
-4 -5 9 51.96 5.22
-4 -5 9 44.95 4.92
-4 -5 9 41.61 4.68
-4 -5 9 55.16 5.96
4 5 -9 49.92 5.1
4 5 -9 52.29 5.33
4 5 -9 38.22 4.54
4 5 -9 51.25 5.52
4 5 -9 43.25 4.95
-4 -5 8 74.77 6.34
4 5 -8 74.5 6.55
-4 -5 8 76.3 6.14
-4 -5 8 78.37 6.23
-4 -5 8 75.18 6.11
-4 -5 8 68.74 5.94
-4 -5 8 77.37 6.93
4 5 -8 76.85 6.3
4 5 -8 75.94 6.18
4 5 -8 77.21 6.61
4 5 -8 72.26 6.09
4 5 -8 76.69 6.16
-4 -5 7 35.6 4.06
4 5 -7 35.48 4.17
-4 -5 7 30.39 3.7
-4 -5 7 26.57 3.44
-4 -5 7 37.2 3.96
-4 -5 7 30.78 3.62
-4 -5 7 41.59 4.97
4 5 -7 28.69 3.67
4 5 -7 30.5 3.66
4 5 -7 35.58 4.21
4 5 -7 35.79 4.01
4 5 -7 29.96 3.7
4 5 -6 -0.96 0.8
-4 -5 6 0.31 0.9
-4 -5 6 -0.49 0.72
-4 -5 6 -0.24 0.99
4 5 -6 1.23 1.06
-4 -5 6 1.08 1.11
-4 -5 6 0.39 1.01
-4 -5 6 -0.02 1.09
4 5 -6 0.13 1.04
4 5 -6 0.09 0.75
4 5 -6 1.6 0.78
4 5 -6 0.15 0.99
4 5 -6 1.03 0.96
4 5 -5 217.06 10.07
-4 -5 5 230.76 10.06
-4 -5 5 215.43 9.49
-4 -5 5 219.24 9.57
-4 -5 5 205.39 9.4
-4 -5 5 211.59 9.53
4 5 -5 217.19 9.7
-4 -5 5 250.43 11.66
4 5 -5 199.79 9.62
4 5 -5 214.48 9.71
4 5 -5 230.99 10.37
4 5 -5 219.27 9.69
4 5 -5 237.01 10.09
-4 -5 4 163.74 7.84
4 5 -4 174.77 8.43
-4 -5 4 173.31 8.19
-4 -5 4 175.31 7.93
-4 -5 4 178.5 7.93
-4 -5 4 173.75 7.86
4 5 -4 181.78 8.29
-4 -5 4 182.72 8.1
-4 -5 4 201.37 9.96
4 5 -4 179.79 8.11
4 5 -4 185.67 8.82
4 5 -4 166.74 7.82
-4 -5 4 173.27 7.91
4 5 -4 170.97 8.2
4 5 -3 2.98 1.27
4 5 -3 0.8 0.67
-4 -5 3 2.3 0.99
-4 -5 3 2.9 1.07
-4 -5 3 1.76 0.83
-4 -5 3 1.41 0.69
4 5 -3 2.2 1.07
-4 -5 3 0.99 0.85
-4 -5 3 2.04 0.9
-4 -5 3 2.49 1.16
4 5 -3 1.19 0.76
4 5 -3 2.45 1.02
4 5 -3 0.62 0.72
4 5 -3 -0.56 0.99
-4 -5 3 2.58 1.02
4 5 -2 13.52 2.15
-4 -5 2 13.19 1.97
4 5 -2 14.47 2.05
-4 -5 2 15.22 2
-4 -5 2 16.49 2
-4 -5 2 16.06 1.98
-4 -5 2 18.4 2.11
4 5 -2 14.98 2.21
-4 -5 2 15.24 1.94
-4 -5 2 17.18 2.05
-4 -5 2 17.51 2.63
4 5 -2 15.4 2.02
4 5 -2 12.7 1.85
4 5 -2 13.59 2.12
4 5 -2 15.6 2.09
-4 -5 2 14.45 2.09
4 5 -1 178.58 7.91
4 5 -1 149.74 6.44
-4 -5 1 153.87 7.26
4 5 -1 163.98 7.2
-4 -5 1 169.89 7.13
-4 -5 1 162.97 6.75
-4 -5 1 159.14 6.66
-4 -5 1 160.4 6.66
-4 -5 1 164.54 6.77
-4 -5 1 173.88 6.92
-4 -5 1 164.67 7.88
4 5 -1 149.12 6.79
4 5 -1 164.46 6.86
-4 -5 1 183.22 8.04
4 5 -1 161.99 7.15
-4 -5 0 617.01 18.53
4 5 0 556.38 18.18
4 5 0 629.75 17.54
-4 -5 0 638.13 17.31
-4 -5 0 632.52 17.24
-4 -5 0 633.6 17.29
-4 -5 0 633.12 17.31
-4 -5 0 656.95 18.97
4 5 0 634.17 17.44
4 5 0 617.94 16.88
-4 -5 0 697.14 19.47
4 5 0 664.18 19.09
4 5 0 606.84 17.92
4 5 1 464.61 13.84
-4 -5 -1 434.92 14.59
-4 -5 -1 452.76 13.2
-4 -5 -1 455.46 13.23
-4 -5 -1 445.02 13.21
-4 -5 -1 445.74 13.18
-4 -5 -1 456.59 14.27
-4 -5 -1 460.35 13.31
4 5 1 399.65 13.05
4 5 1 467.4 13.55
4 5 1 479.02 14.99
-4 -5 -1 481.37 15.18
4 5 1 454.94 14.07
-4 -5 -2 330.09 10.44
4 5 2 344.17 11.48
-4 -5 -2 336.18 12.21
-4 -5 -2 336.14 10.76
-4 -5 -2 342.55 10.81
-4 -5 -2 345 10.84
-4 -5 -2 337.86 10.9
-4 -5 -2 354.77 11.44
4 5 2 333.23 12.65
-4 -5 -2 341.06 10.87
4 5 2 324.54 11.19
4 5 2 356.98 11.19
-4 -5 -2 370.24 12.61
4 5 2 357.36 12.35
-4 -5 -3 492.75 13.43
4 5 3 473.01 15.05
-4 -5 -3 476.73 15.76
-4 -5 -3 494.45 14.42
-4 -5 -3 504.18 14.37
-4 -5 -3 494.61 14.32
-4 -5 -3 501.55 14.28
4 5 3 456.46 15.48
-4 -5 -3 495.86 14.38
4 5 3 478.73 15.04
-4 -5 -3 500.29 16.01
-4 -5 -4 556.85 15.04
4 5 4 595.99 17.69
4 5 4 546.68 17.04
-4 -5 -4 558.54 16.92
-4 -5 -4 559.35 18.04
-4 -5 -4 601.27 16.84
-4 -5 -4 597.24 16.65
-4 -5 -4 597.56 16.63
-4 -5 -4 557.19 15.54
4 5 4 539.88 17.51
-4 -5 -4 589.17 16.78
-4 -5 -4 589.42 16.61
4 5 4 620.73 17.99
-4 -5 -4 608.01 18.12
-4 -5 -5 49.32 2.79
4 5 5 54.07 4.17
4 5 5 51.76 3.9
-4 -5 -5 54.61 4
-4 -5 -5 47.04 4.16
-4 -5 -5 50.39 3.7
-4 -5 -5 55.3 3.83
-4 -5 -5 57.78 3.85
-4 -5 -5 49.07 2.82
4 5 5 48.78 4.12
-4 -5 -5 56 3.88
-4 -5 -5 55.07 3.76
4 5 5 55.1 4.27
-4 -5 -5 54.81 4.21
-4 -5 -6 414.14 11.87
4 5 6 421.38 14.59
4 5 6 454.16 14.42
-4 -5 -6 443.69 14.55
-4 -5 -6 423.92 15.23
4 5 6 415.72 14.02
-4 -5 -6 419.97 13.88
-4 -5 -6 411.82 13.92
4 5 6 428.33 14.51
-4 -5 -6 431.22 14.02
-4 -5 -6 424.94 13.88
4 5 6 459.12 15.25
-4 -5 -6 421.43 14.28
4 5 7 140.78 7.55
-4 -5 -7 122.72 5.34
4 5 7 130.51 6.96
-4 -5 -7 125.85 6.96
-4 -5 -7 127.65 7.53
4 5 7 132.37 6.85
-4 -5 -7 135.71 6.81
-4 -5 -7 130.52 6.79
4 5 7 142.4 7.25
-4 -5 -7 131.56 6.77
-4 -5 -7 127.41 6.62
4 5 7 150.54 7.8
-4 -5 -7 136.03 6.89
4 5 8 1365.19 35.35
4 5 8 1348.72 34.6
-4 -5 -8 1315.82 34.87
-4 -5 -8 1208.04 35.27
4 5 8 1299.06 34.29
4 5 8 1225.25 34.18
-4 -5 -8 1299.95 33.98
-4 -5 -8 1268.17 34.22
4 5 8 1302.89 34.15
-4 -5 -8 1274.56 33.94
-4 -5 -8 1271.73 34.24
-4 -5 -8 1266.15 33.82
4 5 8 1347.19 35.5
-4 -5 -8 1247.32 33.19
4 5 9 220.2 10.49
4 5 9 218.92 10.11
-4 -5 -9 224.67 10.44
-4 -5 -9 203.94 10.64
4 5 9 231.07 10.34
4 5 9 214.65 10.18
-4 -5 -9 223.94 10.06
-4 -5 -9 218.07 10.19
4 5 9 214.36 9.74
-4 -5 -9 214.61 9.86
-4 -5 -9 228.12 10.17
-4 -5 -9 221.33 10.2
4 5 9 228.7 10.84
-4 -5 -9 200.06 8.84
4 5 10 250.93 11.91
4 5 10 237.98 11.56
-4 -5 -10 248.61 11.8
-4 -5 -10 217.19 11.49
4 5 10 251.49 11.25
4 5 10 263.4 11.68
-4 -5 -10 268.51 11.44
-4 -5 -10 262.73 11.64
4 5 10 247.96 10.74
-4 -5 -10 251.62 11.15
-4 -5 -10 247.3 11.12
-4 -5 -10 239.43 11.17
4 5 10 239.01 11.78
-4 -5 -10 218.65 9.26
4 5 11 60.57 5.73
-4 -5 -11 56.8 5.54
-4 -5 -11 59.16 5.75
4 5 11 68.56 5.7
4 5 11 66.64 5.72
-4 -5 -11 68.27 5.61
-4 -5 -11 59.29 5.42
4 5 11 61.51 4.92
-4 -5 -11 59.61 5.28
-4 -5 -11 58.79 5.31
-4 -5 -11 68.59 5.66
4 5 11 64.42 5.96
4 5 11 68 5.93
4 5 12 11.7 2.7
-4 -5 -12 12.2 2.79
-4 -5 -12 11.24 2.64
-4 -5 -12 16.71 3.14
4 5 12 12.4 2.78
4 5 12 12.53 2.66
-4 -5 -12 13.88 2.74
-4 -5 -12 16.95 2.96
-4 -5 -12 15.3 2.92
-4 -5 -12 13.01 2.75
4 5 12 15.05 3.02
4 5 12 15.17 3.07
4 5 13 59.82 6.17
-4 -5 -13 58.1 6.27
-4 -5 -13 46.64 5.59
-4 -5 -13 65.87 6.23
-4 -5 -13 62 6.19
4 5 13 61.34 6.22
4 5 13 57.44 6.11
-4 -5 -13 64.01 6.08
-4 -5 -13 60.7 6.11
-4 -5 -13 59.4 5.93
4 5 13 60.65 6.19
4 5 13 63.34 6.28
-4 -5 -14 2.58 1.68
4 5 14 0.2 1.14
-4 -5 -14 0.96 1.07
-4 -5 -14 3 1.7
4 5 14 3.5 1.77
4 5 14 0.12 1.14
-4 -5 -14 3.17 1.58
-4 -5 -14 0.47 1.12
-4 -5 -14 0.29 1.12
4 5 14 2.85 1.82
-4 -5 -14 4.28 1.94
4 5 14 -0.43 1.04
4 5 15 7.33 2.52
-4 -5 -15 3.58 1.83
-4 -5 -15 16.22 3.63
-4 -5 -15 7.18 2.44
4 5 15 5.9 2.55
4 5 15 7.08 2.79
-4 -5 -15 10.03 2.78
-4 -5 -15 11.2 2.96
-4 -5 -15 6.23 1.95
4 5 15 4.72 2.03
-4 -5 -15 9.24 2.8
4 5 15 6.45 2.34
4 5 16 2.97 2
4 5 16 -0.27 1.37
-4 -6 9 149.5 9.65
4 6 -9 145.39 9.64
4 6 -9 154.63 9.7
4 6 -9 145.32 9.43
-4 -6 9 148.6 9.53
-4 -6 9 155.63 9.81
-4 -6 9 164.96 9.94
-4 -6 9 155.09 10.03
4 6 -9 167.28 10.54
-4 -6 8 37.53 4.72
4 6 -8 36.05 4.7
-4 -6 8 44.21 4.83
-4 -6 8 36.81 4.44
-4 -6 8 39.02 4.48
-4 -6 8 38.35 4.44
-4 -6 8 42.83 5.3
4 6 -8 40.38 4.69
4 6 -8 32.01 4.37
4 6 -8 40.39 4.82
4 6 -8 32.36 4.3
4 6 -8 32.7 4.21
4 6 -7 8.01 2.32
-4 -6 7 6.25 1.86
-4 -6 7 6.12 1.85
-4 -6 7 5.9 1.73
-4 -6 7 7.5 2.01
-4 -6 7 8.61 2.14
-4 -6 7 10.89 2.78
4 6 -7 7.93 2.15
4 6 -7 4.85 1.62
4 6 -7 7.92 2.14
4 6 -7 10.55 2.45
4 6 -7 6.22 1.97
-4 -6 6 144.3 8.41
4 6 -6 126.58 8.08
-4 -6 6 125.23 7.57
-4 -6 6 119.56 7.39
-4 -6 6 126.11 7.6
-4 -6 6 119.41 7.48
-4 -6 6 116.79 8.36
4 6 -6 121.76 7.8
4 6 -6 124.01 7.64
4 6 -6 109.99 7.51
4 6 -6 115.41 7.34
4 6 -6 122.21 7.65
4 6 -5 -0.49 1.12
-4 -6 5 -0.89 1.19
-4 -6 5 1.43 1.1
-4 -6 5 -0.06 0.74
4 6 -5 1.63 1.28
-4 -6 5 -1.1 1.19
-4 -6 5 0.23 0.79
-4 -6 5 -0.82 1.43
4 6 -5 -0.13 0.93
4 6 -5 1.47 1.16
4 6 -5 1.6 0.97
4 6 -5 1.14 0.88
-4 -6 4 8.52 1.63
-4 -6 4 9.68 2.03
4 6 -4 8.24 1.98
-4 -6 4 8.12 1.73
-4 -6 4 8.02 1.78
4 6 -4 9.99 1.84
-4 -6 4 7.56 1.73
-4 -6 4 10.01 1.86
-4 -6 4 10.68 2.21
4 6 -4 8.17 1.8
4 6 -4 5.53 1.43
4 6 -4 11.39 2.22
4 6 -4 8.99 1.79
4 6 -3 1.06 0.92
-4 -6 3 0.72 0.82
-4 -6 3 3.46 1.27
-4 -6 3 2.45 1.01
-4 -6 3 1.68 0.85
4 6 -3 2.4 0.99
-4 -6 3 1.74 0.96
-4 -6 3 1.99 0.97
-4 -6 3 3 0.98
-4 -6 3 2.88 1.43
4 6 -3 2.98 1.21
4 6 -3 1.11 0.78
4 6 -3 -0.41 1.13
4 6 -3 2.69 1.11
-4 -6 3 4.51 1.39
4 6 -2 20.75 2.72
4 6 -2 22.15 2.72
-4 -6 2 21.81 2.57
-4 -6 2 15.9 2.16
-4 -6 2 19.04 2.37
-4 -6 2 18.74 2.35
-4 -6 2 16.74 2.16
4 6 -2 14.91 2.21
-4 -6 2 18.82 2.33
-4 -6 2 18.1 2.3
-4 -6 2 15.27 2.59
4 6 -2 20.08 2.52
4 6 -2 14.77 2.31
4 6 -2 21.62 2.49
4 6 -2 19.09 2.54
-4 -6 2 18.56 2.62
4 6 -1 3.83 1.39
4 6 -1 3.3 1.32
-4 -6 1 2.59 0.96
-4 -6 1 2.25 0.96
-4 -6 1 3.42 1.11
-4 -6 1 5.51 1.31
-4 -6 1 5.74 1.26
-4 -6 1 2.92 0.91
-4 -6 1 3.6 1.03
-4 -6 1 5.06 1.34
4 6 -1 3.64 1.18
4 6 -1 3.97 1.19
4 6 -1 4.9 1.26
-4 -6 1 4.03 1.28
4 6 0 27.01 2.96
-4 -6 0 27.46 2.9
4 6 0 29.86 2.71
-4 -6 0 26.31 2.63
-4 -6 0 32.42 2.83
-4 -6 0 28.33 2.71
-4 -6 0 29.7 2.73
-4 -6 0 28.04 3.16
4 6 0 33.67 2.98
-4 -6 0 31.35 3.29
4 6 0 26.76 2.87
4 6 1 62.96 4.51
-4 -6 -1 59.62 4
4 6 1 58.95 4.14
-4 -6 -1 57.86 4.36
-4 -6 -1 61.14 3.95
-4 -6 -1 65.08 4.04
-4 -6 -1 65.51 4.07
-4 -6 -1 57.27 3.83
-4 -6 -1 57.37 4.26
-4 -6 -1 63.98 4.03
4 6 1 57.4 3.95
4 6 1 62.36 4.05
-4 -6 -1 66.58 4.9
4 6 1 63.41 4.54
4 6 1 57.98 4.2
-4 -6 -2 741.26 21.29
4 6 2 784.21 22.18
-4 -6 -2 780.09 22.97
-4 -6 -2 788.41 21.62
-4 -6 -2 785.96 21.61
-4 -6 -2 802.17 21.68
-4 -6 -2 805.29 21.75
-4 -6 -2 785.67 22.21
-4 -6 -2 821.44 21.79
4 6 2 838.14 22.42
4 6 2 809.02 22.03
4 6 2 851.23 23.09
-4 -6 -2 870.61 23.95
-4 -6 -3 20.36 2.08
4 6 3 17.38 2.42
-4 -6 -3 20.62 2.67
-4 -6 -3 19.74 2.25
-4 -6 -3 19.59 2.22
-4 -6 -3 19.95 2.25
-4 -6 -3 21.72 2.38
4 6 3 20.81 2.68
-4 -6 -3 19.34 2.19
4 6 3 22.08 2.52
-4 -6 -3 20.29 2.61
4 6 3 18.79 2.43
-4 -6 -4 48.19 3.17
4 6 4 54 4.22
-4 -6 -4 49.44 4.25
-4 -6 -4 49.28 3.72
-4 -6 -4 51.25 3.76
-4 -6 -4 50.7 3.74
-4 -6 -4 51.62 3.48
4 6 4 55.47 4.48
-4 -6 -4 57.38 3.91
4 6 4 50.3 4.03
-4 -6 -4 59.21 4.56
4 6 4 45.77 3.9
-4 -6 -5 25.64 2.23
4 6 5 23.89 2.86
4 6 5 25.77 2.9
-4 -6 -5 23.7 2.83
-4 -6 -5 22.49 2.92
-4 -6 -5 25.59 2.79
-4 -6 -5 23.53 2.65
-4 -6 -5 26.47 2.82
-4 -6 -5 24.14 2.14
4 6 5 26.48 3.02
-4 -6 -5 25.71 2.74
-4 -6 -5 27.84 2.82
4 6 5 27.68 3.08
-4 -6 -5 29.42 3.24
-4 -6 -6 53.09 3.41
4 6 6 57.35 4.64
4 6 6 58.85 4.43
-4 -6 -6 55.42 4.43
-4 -6 -6 62.34 5.09
-4 -6 -6 61.16 4.53
-4 -6 -6 52.13 4.16
-4 -6 -6 56.11 4.26
4 6 6 63.07 4.7
-4 -6 -6 55.09 4.23
-4 -6 -6 58.91 4.31
4 6 6 65.65 4.96
-4 -6 -6 57.53 4.58
4 6 7 1051.2 29.48
-4 -6 -7 984.73 26.25
4 6 7 1093.48 29.22
-4 -6 -7 1072.65 29.46
-4 -6 -7 981.05 29.82
4 6 7 982.8 28.48
-4 -6 -7 1039 28.47
-4 -6 -7 1039.83 28.62
4 6 7 1067.21 29.1
-4 -6 -7 1057.65 28.71
-4 -6 -7 1042.98 28.48
4 6 7 1107.54 29.9
-4 -6 -7 1056.3 28.95
4 6 8 260.04 11.39
-4 -6 -8 233.88 9.03
4 6 8 262.35 11.09
-4 -6 -8 248.12 11.19
-4 -6 -8 222.74 11.26
4 6 8 246.36 10.75
-4 -6 -8 247.68 10.6
-4 -6 -8 247.27 10.7
4 6 8 248.15 10.53
-4 -6 -8 249.2 10.66
-4 -6 -8 256.91 10.71
4 6 8 251.07 11.52
-4 -6 -8 252.84 10.5
4 6 9 756.95 24.03
4 6 9 804.51 24.12
-4 -6 -9 762.82 24.22
-4 -6 -9 694.24 24.3
4 6 9 761.27 23.69
-4 -6 -9 776.28 23.53
-4 -6 -9 763.71 23.65
4 6 9 781.6 23.02
-4 -6 -9 742.75 23.42
-4 -6 -9 761.74 23.43
4 6 9 801.91 24.77
-4 -6 -9 733.04 22.35
4 6 10 407.56 16.31
4 6 10 402.46 15.79
-4 -6 -10 410.34 16.33
-4 -6 -10 365.16 16.28
4 6 10 406.48 15.83
4 6 10 404.19 16.01
-4 -6 -10 411.88 15.64
-4 -6 -10 399.16 15.7
4 6 10 419.48 14.92
-4 -6 -10 408.95 15.69
-4 -6 -10 416.7 15.97
-4 -6 -10 399.57 15.5
4 6 10 433.99 16.74
-4 -6 -10 374.69 13.85
4 6 11 3.69 1.38
-4 -6 -11 7.42 2.18
-4 -6 -11 6.74 2.22
4 6 11 3.36 1.5
-4 -6 -11 3.35 1.21
4 6 11 3.95 1.61
4 6 11 4.82 1.41
-4 -6 -11 2.27 1.3
-4 -6 -11 4.74 1.69
-4 -6 -11 5.04 1.65
4 6 11 6.06 1.8
-4 -6 -11 6.4 1.87
4 6 11 5.92 1.88
4 6 12 63.18 6
-4 -6 -12 51.51 5.59
-4 -6 -12 51.28 5.74
-4 -6 -12 55.73 5.65
-4 -6 -12 49.99 5.43
4 6 12 58.11 5.85
4 6 12 49.25 5.52
-4 -6 -12 54.83 5.52
-4 -6 -12 49.12 5.3
-4 -6 -12 56.18 5.8
4 6 12 60.96 6.09
4 6 12 51.68 5.52
4 6 13 43.27 5.28
-4 -6 -13 47.54 5.72
-4 -6 -13 35.79 5.1
-4 -6 -13 43.71 5.25
-4 -6 -13 41.61 5.17
4 6 13 33.47 4.89
4 6 13 41.08 5.46
-4 -6 -13 48.99 5.54
-4 -6 -13 42.46 5.23
-4 -6 -13 40.26 5.03
4 6 13 43.71 5.31
4 6 13 39.42 5.06
4 6 14 11.47 2.97
-4 -6 -14 13.11 3.29
-4 -6 -14 7.63 2.59
-4 -6 -14 7.22 2.32
4 6 14 7.93 2.41
4 6 14 6.17 2.17
-4 -6 -14 6.24 2.19
-4 -6 -14 8.47 2.42
-4 -6 -14 13.2 3.15
-4 -6 -14 13.89 3.19
4 6 14 9.91 2.67
4 6 14 8.4 2.52
4 6 15 27.3 4.9
-4 -6 -15 25.01 4.5
-4 -6 -15 17.95 3.88
-4 -6 -15 30.47 4.85
4 6 15 29.09 4.7
-4 -6 -15 25.95 4.31
-4 -6 -15 33.07 4.79
-4 -6 -15 26.59 4.37
4 6 15 26.59 4.41
-4 -6 -15 26.28 4.43
4 6 15 27.08 4.51
4 6 15 31.43 4.88
4 6 16 10.86 2.85
-4 -6 -16 9.17 2.8
-4 -7 8 10.19 2.43
-4 -7 8 6.81 2.16
-4 -7 8 8.41 2.43
-4 -7 8 11.15 2.69
4 7 -8 10.82 2.6
4 7 -8 6.91 2.29
4 7 -8 4.56 1.55
4 7 -8 11.85 2.97
4 7 -8 10.7 2.83
-4 -7 8 11.43 2.81
-4 -7 7 105.47 7.83
4 7 -7 111.45 8.25
-4 -7 7 116.71 7.89
-4 -7 7 105.98 7.56
-4 -7 7 107.52 7.59
-4 -7 7 107.5 7.63
-4 -7 7 109.49 8.7
4 7 -7 91.45 7.39
4 7 -7 102.39 7.6
4 7 -7 103.34 7.7
4 7 -7 102.97 7.54
4 7 -7 110.14 7.74
-4 -7 6 167.99 9.79
4 7 -6 182.03 10.34
-4 -7 6 173.17 9.45
-4 -7 6 189.51 9.87
-4 -7 6 163.87 9.26
-4 -7 6 179.96 9.68
-4 -7 6 170.05 10.73
4 7 -6 155.14 9.45
4 7 -6 182.05 9.9
4 7 -6 177.98 9.8
4 7 -6 166.1 9.39
4 7 -6 164.72 9.35
4 7 -5 247.9 11.95
-4 -7 5 247.12 11.66
-4 -7 5 242.09 11.21
-4 -7 5 239.97 11.1
-4 -7 5 253.71 11.37
-4 -7 5 237.08 11.15
4 7 -5 246.69 10.78
-4 -7 5 275.5 13.37
4 7 -5 246.06 11.47
4 7 -5 257.99 11.74
4 7 -5 244.68 11.32
4 7 -5 247.05 11.4
4 7 -4 20.05 3.05
-4 -7 4 24.25 3.22
-4 -7 4 18.66 2.62
-4 -7 4 20.83 2.87
4 7 -4 20.55 2.73
-4 -7 4 24.74 3.07
-4 -7 4 18.9 2.66
-4 -7 4 21.27 3.38
4 7 -4 20.66 2.94
4 7 -4 17.23 2.52
4 7 -4 21.79 3.1
4 7 -4 23.49 3.11
4 7 -3 47.61 4.58
-4 -7 3 52.68 4.72
-4 -7 3 56.56 4.52
-4 -7 3 47.91 4.17
-4 -7 3 54.61 4.36
4 7 -3 48.5 4.1
-4 -7 3 50.73 4.28
-4 -7 3 47.82 4.16
-4 -7 3 54.66 5.21
4 7 -3 49.33 4.39
4 7 -3 49.77 4.49
4 7 -3 49.5 4.25
-4 -7 3 51.75 4.5
4 7 -3 46.61 4.26
4 7 -2 0.94 0.82
-4 -7 2 2.05 0.94
-4 -7 2 1.27 0.74
-4 -7 2 0.84 0.62
-4 -7 2 1.71 1.03
4 7 -2 -1.55 1.08
-4 -7 2 0.19 0.81
-4 -7 2 0.1 0.63
-4 -7 2 0.9 0.77
-4 -7 2 1.54 1.27
4 7 -2 0.17 0.73
4 7 -2 1.08 0.62
4 7 -2 0.59 1.03
4 7 -2 0.53 0.78
-4 -7 2 0.66 0.96
4 7 -1 11.28 2.15
4 7 -1 9.51 1.87
-4 -7 1 7.76 1.61
-4 -7 1 9.14 1.88
-4 -7 1 9.58 1.71
-4 -7 1 11.1 1.85
-4 -7 1 10.47 1.76
-4 -7 1 12.5 1.93
-4 -7 1 8.75 1.65
-4 -7 1 7.87 1.88
4 7 -1 6.65 1.6
4 7 -1 12.42 2.02
4 7 -1 9.72 1.96
-4 -7 1 9.41 2
4 7 0 6.78 1.59
4 7 0 8.34 1.65
-4 -7 0 9.98 1.73
-4 -7 0 8.74 1.63
-4 -7 0 10.9 1.81
-4 -7 0 8.49 1.6
-4 -7 0 10.39 1.77
-4 -7 0 10.25 2.06
4 7 0 10.57 1.86
4 7 0 10.75 1.88
-4 -7 0 9.73 1.98
4 7 1 56.38 4.29
-4 -7 -1 47.17 3.93
4 7 1 52.02 4.06
-4 -7 -1 56.91 4.38
-4 -7 -1 57.24 4.23
-4 -7 -1 57.84 4.13
-4 -7 -1 54.47 4.05
-4 -7 -1 56.08 4.1
-4 -7 -1 52.94 4.47
-4 -7 -1 60.94 4.27
4 7 1 51.14 4.11
4 7 1 59.28 4.16
-4 -7 -1 59.64 4.93
4 7 1 60.56 4.48
4 7 2 263.41 10.52
-4 -7 -2 275.33 10.59
4 7 2 284.92 11.08
-4 -7 -2 291.06 11.6
-4 -7 -2 297.62 10.91
-4 -7 -2 304.12 11.01
-4 -7 -2 298.29 10.92
-4 -7 -2 292.02 11.06
-4 -7 -2 302.41 11.42
-4 -7 -2 309.52 11.03
4 7 2 307.61 11.15
4 7 2 285.49 11.17
-4 -7 -2 317.8 12.48
4 7 2 305.11 11.52
4 7 2 270.42 11.22
-4 -7 -3 194.41 8.17
4 7 3 211.94 9.15
-4 -7 -3 185.33 9.09
-4 -7 -3 203.22 8.65
-4 -7 -3 197.49 8.56
-4 -7 -3 197.24 8.51
-4 -7 -3 205.87 8.83
-4 -7 -3 207.99 8.72
-4 -7 -3 212.71 8.73
4 7 3 199.81 8.77
4 7 3 176.31 8.52
-4 -7 -3 222.95 10.05
4 7 3 204.86 9.01
-4 -7 -4 192.21 7.95
4 7 4 189.53 8.91
-4 -7 -4 202.28 9.63
-4 -7 -4 187.55 8.51
-4 -7 -4 202.91 8.73
-4 -7 -4 197.76 8.61
-4 -7 -4 185.37 8.05
-4 -7 -4 211.89 8.81
4 7 4 225.39 9.5
-4 -7 -4 214.19 9.92
4 7 4 200.2 8.83
4 7 5 9.11 1.9
-4 -7 -5 10.15 1.65
-4 -7 -5 9.24 1.85
4 7 5 7.38 1.64
-4 -7 -5 7.84 2
-4 -7 -5 11.16 1.98
-4 -7 -5 10.22 1.9
-4 -7 -5 15.46 2.25
-4 -7 -5 9.47 1.58
-4 -7 -5 14.34 2.18
-4 -7 -5 9.98 1.87
4 7 5 9.97 1.99
-4 -7 -5 9.45 2.13
4 7 5 8.97 1.79
-4 -7 -6 989.64 26.36
4 7 6 1083.39 29.23
4 7 6 1008.36 28.55
-4 -7 -6 1038.41 28.98
-4 -7 -6 996.19 29.57
-4 -7 -6 998.15 28.17
-4 -7 -6 999.03 28.03
-4 -7 -6 1006.79 28
-4 -7 -6 917.16 25.47
4 7 6 998.77 28.28
-4 -7 -6 1009.35 28.14
-4 -7 -6 1016.58 28.01
4 7 6 1134.3 29.57
-4 -7 -6 1075.51 29.3
4 7 7 -0.16 0.81
-4 -7 -7 -0.42 0.65
4 7 7 0.7 0.93
-4 -7 -7 0.44 0.9
-4 -7 -7 0.25 0.81
-4 -7 -7 -0.29 0.91
-4 -7 -7 0.64 0.92
4 7 7 1.16 0.98
-4 -7 -7 0.75 1.03
-4 -7 -7 0.63 0.74
-4 -7 -7 -0.12 0.91
4 7 7 0.17 0.72
-4 -7 -7 0.5 0.81
-4 -7 -8 285.3 10.88
4 7 8 299.98 12.98
4 7 8 295.63 12.63
-4 -7 -8 301.2 12.96
-4 -7 -8 278.7 13.27
-4 -7 -8 299.43 12.61
4 7 8 320.75 12.94
-4 -7 -8 311.86 12.55
-4 -7 -8 311.57 12.66
4 7 8 307.34 12.24
-4 -7 -8 310.93 12.64
-4 -7 -8 304.44 12.44
4 7 8 311.03 13.22
-4 -7 -8 308.44 12.5
4 7 9 651.92 21.63
4 7 9 668.27 21.65
-4 -7 -9 644.65 21.76
-4 -7 -9 593.35 22.05
4 7 9 648.59 21.35
-4 -7 -9 638.32 20.94
-4 -7 -9 639.72 21.15
4 7 9 622.62 20.18
-4 -7 -9 632.11 21.02
-4 -7 -9 628.96 20.85
4 7 9 645.51 21.79
-4 -7 -9 596.58 20.03
4 7 10 44.09 4.67
4 7 10 36.78 4.25
-4 -7 -10 34.72 4.33
-4 -7 -10 34.71 4.59
4 7 10 25.39 3.83
-4 -7 -10 35.28 4.13
-4 -7 -10 31.69 4
4 7 10 36.74 3.75
-4 -7 -10 36.17 4.26
-4 -7 -10 32.19 3.93
4 7 10 39.27 4.65
-4 -7 -10 34.87 3.72
4 7 11 32.07 4.17
-4 -7 -11 31.59 4.31
-4 -7 -11 30.35 4.4
4 7 11 28.33 3.99
-4 -7 -11 34.06 4.18
-4 -7 -11 30.67 4.1
4 7 11 34.63 3.69
-4 -7 -11 36.9 4.42
-4 -7 -11 35.24 4.27
4 7 11 32.2 4.31
4 7 11 30.5 4.2
4 7 12 2.59 1.38
-4 -7 -12 4.57 1.95
-4 -7 -12 2.18 1.56
-4 -7 -12 2.68 1.34
4 7 12 2.36 1.32
-4 -7 -12 1.46 1.07
-4 -7 -12 0.52 0.88
-4 -7 -12 3.18 1.59
4 7 12 2.48 1.62
-4 -7 -12 5.76 2.06
4 7 12 4.92 1.86
4 7 13 49.89 5.72
-4 -7 -13 51.77 5.96
-4 -7 -13 40 5.61
-4 -7 -13 46.81 5.4
-4 -7 -13 48.06 5.76
4 7 13 48.07 5.67
4 7 13 43.4 5.43
-4 -7 -13 50.78 5.79
-4 -7 -13 55.46 5.86
-4 -7 -13 48.28 5.48
4 7 13 55.44 6.01
4 7 13 55.38 5.98
4 7 14 2.08 1.61
-4 -7 -14 -0.46 1.42
-4 -7 -14 0.32 1.21
-4 -7 -14 0.78 1
4 7 14 -0.99 0.94
4 7 14 0.33 1.41
-4 -7 -14 -1.31 1.35
-4 -7 -14 -0.82 1.29
-4 -7 -14 0.89 1.27
4 7 14 0.17 1.23
-4 -7 -14 0.79 1.19
4 7 14 0.24 1
4 7 15 13.23 3.38
-4 -7 -15 21.09 4.24
-4 -7 -15 7.01 2.58
4 7 15 10.42 3.11
-4 -7 -15 15.73 3.52
4 7 15 10.73 3
-4 -7 -15 9.72 2.63
-4 -7 -15 8.47 2.52
-4 -7 -15 10.2 2.79
4 7 15 12.41 2.97
-4 -7 -15 11.13 3.1
4 7 15 11.22 3.08
-4 -8 7 52.94 5.53
-4 -8 7 59.86 5.82
-4 -8 7 62.27 5.95
-4 -8 7 67.76 6.22
-4 -8 7 60.32 6.56
4 8 -7 53.39 5.73
4 8 -7 62.13 6.01
4 8 -7 51.29 5.46
4 8 -7 53.9 5.72
-4 -8 7 61.3 6.2
4 8 -7 58.9 6.22
4 8 -6 77.79 6.97
-4 -8 6 85.28 7.11
-4 -8 6 87.15 6.79
-4 -8 6 84.08 6.72
-4 -8 6 99.78 7.32
-4 -8 6 100.1 7.24
-4 -8 6 94.68 8.12
4 8 -6 74.25 6.64
4 8 -6 80.31 6.67
4 8 -6 79.89 6.69
4 8 -6 82.88 6.77
4 8 -6 86.35 6.84
4 8 -5 109.75 7.9
-4 -8 5 104.1 7.46
-4 -8 5 107.01 7.31
-4 -8 5 106.75 7.31
-4 -8 5 111.94 7.45
-4 -8 5 103.55 7.23
-4 -8 5 115.86 8.82
4 8 -5 93.84 7.03
4 8 -5 102.73 7.3
4 8 -5 96.85 7.01
4 8 -5 98.03 7.11
4 8 -4 70.27 6.15
-4 -8 4 81.49 6.33
-4 -8 4 79.82 6.07
-4 -8 4 88.66 6.3
-4 -8 4 85.63 6.19
-4 -8 4 81.93 6.13
-4 -8 4 87.49 7.4
4 8 -4 77.73 6.11
4 8 -4 72.05 5.87
4 8 -4 76.24 5.93
4 8 -4 73.25 5.86
-4 -8 3 29.44 3.62
4 8 -3 26.27 3.57
-4 -8 3 29.05 3.44
-4 -8 3 29.82 3.46
-4 -8 3 26.73 3.19
-4 -8 3 28.68 3.41
-4 -8 3 27.19 3.31
-4 -8 3 30.08 4.13
4 8 -3 24.76 3.36
4 8 -3 22.79 3.14
4 8 -3 25.93 3.3
-4 -8 3 30.99 3.71
4 8 -3 27.25 3.49
4 8 -2 4.31 1.49
-4 -8 2 5.71 1.49
-4 -8 2 4.8 1.41
-4 -8 2 3.46 1.24
4 8 -2 3.9 1.41
-4 -8 2 7.81 1.74
-4 -8 2 4.72 1.54
-4 -8 2 2.96 1.18
-4 -8 2 2.64 1.46
4 8 -2 3.58 1.55
4 8 -2 3.62 1.03
4 8 -2 7.61 1.86
4 8 -2 5.07 1.5
-4 -8 2 6.71 1.92
-4 -8 1 51.12 4.01
4 8 -1 46.96 4.51
-4 -8 1 52.01 4.59
-4 -8 1 54.77 4.55
-4 -8 1 50.39 4.34
-4 -8 1 48.13 4.22
4 8 -1 45.02 3.81
-4 -8 1 49.13 4.32
-4 -8 1 52.63 4.44
-4 -8 1 51.42 4.99
4 8 -1 46.91 4.46
4 8 -1 53.68 4.58
4 8 -1 46.03 4.27
-4 -8 1 62.44 5.3
4 8 -1 52.46 4.54
4 8 0 151.62 7.95
-4 -8 0 171.6 8.92
-4 -8 0 169.08 8.27
-4 -8 0 181.62 8.59
-4 -8 0 189.66 8.67
-4 -8 0 191.56 8.75
-4 -8 0 193.85 8.83
-4 -8 0 188.33 9.68
4 8 0 184.94 8.84
-4 -8 0 211.65 10.34
4 8 0 196.76 9.19
4 8 1 161.53 7.99
-4 -8 -1 177.46 8.71
4 8 1 168.61 8.4
-4 -8 -1 168.14 8.33
-4 -8 -1 184.33 8.58
-4 -8 -1 186.54 8.55
-4 -8 -1 187.44 8.57
-4 -8 -1 192.73 8.69
-4 -8 -1 193.64 9.5
4 8 1 181.6 8.72
-4 -8 -1 198.59 9.99
4 8 1 183.6 8.84
4 8 2 6.37 1.48
-4 -8 -2 10.3 2
4 8 2 7.09 1.7
-4 -8 -2 8.96 1.81
-4 -8 -2 8.03 1.66
-4 -8 -2 12.56 2.01
-4 -8 -2 8.61 1.8
-4 -8 -2 10.86 1.91
-4 -8 -2 9.98 2.07
-4 -8 -2 11.53 1.98
4 8 2 6.09 1.63
4 8 2 8.82 1.86
4 8 2 8.44 1.88
-4 -8 -2 10.41 2.3
4 8 3 118.56 6.41
-4 -8 -3 123.95 6.76
4 8 3 132.89 7.33
-4 -8 -3 121.45 7.29
-4 -8 -3 134.71 7.1
-4 -8 -3 128.68 7.06
-4 -8 -3 128.22 6.97
-4 -8 -3 129.96 7.01
-4 -8 -3 135.31 7.22
-4 -8 -3 140.41 7.23
4 8 3 143.99 7.42
4 8 3 134.24 7.31
-4 -8 -3 140.7 8.21
4 8 3 115.09 6.7
-4 -8 -4 148.85 7.4
4 8 4 166.92 8.48
-4 -8 -4 151.22 8.48
-4 -8 -4 161.85 8.09
-4 -8 -4 164.67 8.15
-4 -8 -4 165.07 8.12
-4 -8 -4 155.18 7.7
-4 -8 -4 158.22 7.97
4 8 4 169.08 8.35
-4 -8 -4 180.14 9.35
4 8 4 153.04 7.83
-4 -8 -5 409.01 14.14
4 8 5 426.05 15.62
-4 -8 -5 427.28 15.24
-4 -8 -5 431.66 15.24
-4 -8 -5 412.91 15.01
-4 -8 -5 410.11 16
-4 -8 -5 434.76 15.23
4 8 5 473.68 16.13
-4 -8 -5 453.09 16.6
4 8 5 411.13 14.6
4 8 6 2.13 1.39
-4 -8 -6 1.29 0.93
-4 -8 -6 0.16 0.8
-4 -8 -6 0.6 0.94
-4 -8 -6 -0.28 0.78
-4 -8 -6 0.8 0.83
4 8 6 -0.55 1.06
-4 -8 -6 1.19 1.16
-4 -8 -6 0.57 1.02
-4 -8 -6 2.87 1.27
4 8 6 0.23 0.83
-4 -8 -6 1.26 0.98
4 8 6 0.02 0.82
4 8 7 517.02 17.92
-4 -8 -7 453.09 15.66
-4 -8 -7 480.59 17.2
-4 -8 -7 489.75 17.24
-4 -8 -7 485.98 17.09
4 8 7 470.5 17.42
-4 -8 -7 512.11 18.2
-4 -8 -7 458.28 18.16
-4 -8 -7 502.85 17.41
-4 -8 -7 494.65 17.17
4 8 7 558.27 18.47
4 8 7 439.76 15.76
-4 -8 -7 536.99 18.33
4 8 8 335.75 14.32
-4 -8 -8 333.94 12.59
-4 -8 -8 352.02 14.27
-4 -8 -8 342.92 13.99
-4 -8 -8 343.59 13.92
4 8 8 336.88 14.27
-4 -8 -8 346.58 14.6
-4 -8 -8 331.95 15
-4 -8 -8 330.92 13.84
-4 -8 -8 327.45 13.67
4 8 8 378.9 15.08
-4 -8 -8 356.62 14.3
4 8 9 -1.37 1.28
-4 -8 -9 0.43 0.61
-4 -8 -9 0.51 0.91
-4 -8 -9 0.96 1.21
4 8 9 0.39 1.01
-4 -8 -9 -0.26 0.86
-4 -8 -9 2.43 1.68
-4 -8 -9 -0.73 0.85
-4 -8 -9 -0.74 0.91
-4 -8 -9 1.93 1.23
4 8 9 0.53 1.05
-4 -8 -9 0.42 1.16
4 8 10 1.65 1.31
4 8 10 -0.35 0.88
-4 -8 -10 -0.41 1.06
4 8 10 -0.37 1.31
-4 -8 -10 -1.56 1.6
-4 -8 -10 -1.39 1.08
-4 -8 -10 0.93 1.16
-4 -8 -10 1.79 1.12
-4 -8 -10 1.15 1.28
4 8 10 -0.3 0.86
-4 -8 -10 0.16 0.89
4 8 11 216.97 11.77
-4 -8 -11 207.59 11.84
-4 -8 -11 204.46 12.43
-4 -8 -11 208.61 11.32
-4 -8 -11 196.48 11.25
4 8 11 199.28 11.44
-4 -8 -11 221.87 11.72
-4 -8 -11 200.79 11.13
4 8 11 218.82 12.07
4 8 11 215.64 11.66
4 8 12 78.61 7.08
-4 -8 -12 72.92 7
-4 -8 -12 67.71 7.11
-4 -8 -12 76.27 6.8
-4 -8 -12 70.4 6.8
4 8 12 80.26 7.15
-4 -8 -12 74.71 6.71
-4 -8 -12 66.22 6.34
4 8 12 82.75 7.3
4 8 12 82.42 7.08
4 8 13 68.12 7
-4 -8 -13 69.54 7.15
-4 -8 -13 66.96 7.55
-4 -8 -13 74.6 6.96
-4 -8 -13 62.17 6.59
4 8 13 77.19 7.27
-4 -8 -13 73.69 6.96
-4 -8 -13 76.69 7.03
4 8 13 68.83 6.98
4 8 13 67.35 6.72
4 8 14 8.53 2.69
-4 -8 -14 7.23 2.62
-4 -8 -14 11.43 3.25
-4 -8 -14 8.06 2.58
4 8 14 14.87 3.49
-4 -8 -14 14.7 3.22
-4 -8 -14 12.78 3.02
-4 -8 -14 13.43 3.19
4 8 14 9.25 2.42
4 8 14 17.11 3.45
4 8 15 45.79 6.2
-4 -8 -15 57.5 7.02
-4 -8 -15 40.36 6.27
4 8 15 47.22 6.2
-4 -8 -15 50.95 6.21
-4 -8 -15 48.27 6.24
-4 -8 -15 50.39 6.16
-4 -8 -15 52.11 6.38
4 8 15 46.25 5.89
4 8 15 45.56 5.91
-4 -9 6 84.83 7.08
-4 -9 6 80.71 7.02
-4 -9 6 81.67 6.87
-4 -9 6 86.18 7.16
4 9 -6 99.16 7.13
4 9 -6 63.76 6.53
4 9 -6 77.74 6.89
4 9 -6 79.52 6.76
4 9 -6 71.07 6.6
4 9 -6 90.53 7.78
-4 -9 6 97.92 7.91
4 9 -5 82.91 7.25
-4 -9 5 85.65 7.14
-4 -9 5 86.89 6.9
-4 -9 5 81.86 6.69
-4 -9 5 70.07 6.31
-4 -9 5 87.66 6.94
-4 -9 5 92.68 8.16
4 9 -5 79.03 6.68
4 9 -5 80.76 6.63
4 9 -5 79.43 6.6
4 9 -5 76.2 6.48
4 9 -4 77.96 6.79
-4 -9 4 86.29 6.91
-4 -9 4 83.08 6.57
-4 -9 4 76.63 6.34
-4 -9 4 76.87 6.31
-4 -9 4 86.5 6.69
-4 -9 4 76.84 7.27
4 9 -4 77.69 6.52
4 9 -4 69.76 6
4 9 -4 74.45 6.3
4 9 -4 79.12 6.35
4 9 -3 31.03 4.12
-4 -9 3 32.59 4.1
-4 -9 3 36.31 4.05
-4 -9 3 33.88 3.97
-4 -9 3 31.45 3.71
-4 -9 3 36.18 4.11
-4 -9 3 33.03 3.87
-4 -9 3 32.79 4.66
4 9 -3 34.65 4.05
4 9 -3 33.09 3.91
4 9 -3 35.84 4.06
4 9 -3 30.15 3.88
4 9 -2 119.85 8.14
-4 -9 2 142.82 8.61
-4 -9 2 137.84 8.15
-4 -9 2 130.94 7.92
-4 -9 2 132.76 7.93
-4 -9 2 126.58 7.84
-4 -9 2 152.64 8.48
-4 -9 2 144.82 9.43
4 9 -2 121.71 7.92
4 9 -2 136.88 7.99
4 9 -2 132.86 8.06
-4 -9 2 153.21 9.04
4 9 -2 142.84 8.37
-4 -9 1 -1.22 1.24
4 9 -1 0.91 1.35
-4 -9 1 0.06 0.72
-4 -9 1 -0.63 0.85
-4 -9 1 0.3 0.85
-4 -9 1 1.46 1.13
-4 -9 1 -0.24 1.04
-4 -9 1 0.03 1.14
4 9 -1 -2.23 1.55
4 9 -1 -0.24 0.89
4 9 -1 -1.2 1.36
4 9 -1 1.34 1.15
-4 -9 1 0.59 0.98
-4 -9 0 81.59 6.21
-4 -9 0 81.03 5.94
-4 -9 0 84.38 5.94
-4 -9 0 84.11 5.97
-4 -9 0 81.85 5.85
-4 -9 0 85.55 6.74
4 9 0 77.36 5.9
-4 -9 0 88.74 6.82
4 9 0 74.69 5.68
4 9 1 7.34 1.56
-4 -9 -1 7.81 1.84
4 9 1 8.68 1.86
-4 -9 -1 8.99 1.77
-4 -9 -1 9.74 2.01
-4 -9 -1 11.17 2.08
-4 -9 -1 10.91 2.09
-4 -9 -1 13.92 2.3
-4 -9 -1 13.78 2.77
4 9 1 10.43 2.18
4 9 1 8.65 2.01
-4 -9 -1 8.51 2.3
4 9 2 256.44 10.52
-4 -9 -2 281.96 12.04
4 9 2 287.53 12.12
-4 -9 -2 269.93 11.73
-4 -9 -2 295.46 11.99
-4 -9 -2 298.03 12.1
-4 -9 -2 295 11.99
-4 -9 -2 287.04 11.93
-4 -9 -2 314.12 12.97
-4 -9 -2 301.5 12.06
4 9 2 274.16 11.92
-4 -9 -2 327.78 13.97
4 9 2 284.91 12.23
4 9 3 0.47 0.66
-4 -9 -3 0.23 0.63
4 9 3 0.42 0.67
-4 -9 -3 -0.18 0.73
-4 -9 -3 0.03 0.78
-4 -9 -3 -0.6 0.9
-4 -9 -3 1.39 1.06
-4 -9 -3 1.95 1.13
-4 -9 -3 1.84 1.12
-4 -9 -3 2.2 1.23
4 9 3 1.9 1.25
4 9 3 0.11 0.88
-4 -9 -3 1.09 1.31
4 9 3 0.74 0.82
4 9 4 69.95 4.66
-4 -9 -4 77.09 5.51
4 9 4 76.4 5.83
-4 -9 -4 76.38 5.6
-4 -9 -4 70.74 5.45
-4 -9 -4 76.21 5.63
-4 -9 -4 75.91 5.74
-4 -9 -4 84.6 6.24
-4 -9 -4 77.5 5.68
4 9 4 75.14 5.78
4 9 4 71.6 5.66
-4 -9 -4 79.32 6.49
4 9 4 61.98 4.91
4 9 5 11.12 2.4
-4 -9 -5 9.78 1.92
-4 -9 -5 9.16 1.96
-4 -9 -5 9.85 2.11
-4 -9 -5 8.27 1.93
-4 -9 -5 4.86 1.6
-4 -9 -5 8.32 1.91
4 9 5 10.78 2.27
4 9 5 4 1.36
-4 -9 -5 11.5 2.46
-4 -9 -6 760.94 22.92
4 9 6 754.31 24.13
-4 -9 -6 744.77 23.83
-4 -9 -6 777.36 24.05
-4 -9 -6 770.86 23.94
-4 -9 -6 729.11 24.84
-4 -9 -6 761.85 23.84
4 9 6 846.55 25.09
4 9 6 681.33 21.98
-4 -9 -6 815.47 25.57
-4 -9 -7 238.92 10.63
4 9 7 256.74 12
-4 -9 -7 260.37 11.91
-4 -9 -7 248.65 11.69
-4 -9 -7 262.27 11.87
-4 -9 -7 252.57 12.2
-4 -9 -7 250.46 12.71
4 9 7 242.2 11.78
-4 -9 -7 244.4 11.62
-4 -9 -7 251.73 11.63
4 9 7 273.63 12.41
4 9 7 222.22 10.09
-4 -9 -7 258.16 12.51
4 9 8 2.04 1.25
-4 -9 -8 0.76 0.95
-4 -9 -8 2.67 1.63
-4 -9 -8 1.36 0.92
-4 -9 -8 1.44 1.06
4 9 8 0.88 1.19
-4 -9 -8 0.02 0.94
-4 -9 -8 1.77 1.56
-4 -9 -8 1.87 0.92
-4 -9 -8 0.36 1.06
4 9 8 -0.06 0.91
-4 -9 -8 3.74 1.58
4 9 8 1.28 1
4 9 9 119.15 8.18
-4 -9 -9 111.71 7.02
-4 -9 -9 128.12 8.38
-4 -9 -9 115.26 7.88
-4 -9 -9 110.99 7.74
4 9 9 111.67 8.08
-4 -9 -9 113.44 8.24
-4 -9 -9 110.21 8.59
-4 -9 -9 121.18 8.06
-4 -9 -9 118.41 7.89
4 9 9 131.53 8.65
-4 -9 -9 115.53 8.01
4 9 10 120.07 8.35
-4 -9 -10 109.34 8.07
-4 -9 -10 109.19 7.94
-4 -9 -10 105.45 7.89
4 9 10 106.86 8.08
-4 -9 -10 121.16 8.7
-4 -9 -10 112.95 8.91
-4 -9 -10 121.21 8.35
-4 -9 -10 110.34 7.93
4 9 10 124.98 8.64
-4 -9 -10 107.64 7.73
4 9 11 26.19 3.96
-4 -9 -11 30.02 4.29
-4 -9 -11 28.83 4.22
4 9 11 25.67 3.97
-4 -9 -11 32.07 4.5
-4 -9 -11 23.07 4.21
-4 -9 -11 28.16 3.97
-4 -9 -11 28.56 4.16
-4 -9 -11 28.53 4.1
4 9 11 28.11 4.17
-4 -9 -11 27.86 3.8
4 9 12 12.22 2.84
-4 -9 -12 11.44 3.06
-4 -9 -12 3.54 1.87
-4 -9 -12 11.31 2.77
4 9 12 10.84 2.83
-4 -9 -12 9.36 2.47
-4 -9 -12 12.77 2.93
-4 -9 -12 14.41 3.14
4 9 12 9.19 2.61
4 9 12 8.05 2.41
4 9 13 23.11 4.11
-4 -9 -13 29.69 4.73
-4 -9 -13 26.15 4.86
-4 -9 -13 29.49 4.57
4 9 13 30.04 4.67
-4 -9 -13 28.88 4.36
-4 -9 -13 23.48 4.09
-4 -9 -13 22.73 3.96
4 9 13 30.5 4.58
4 9 13 31.06 4.56
4 9 14 -0.22 1.28
-4 -9 -14 -0.69 1.57
-4 -9 -14 0 1.94
-4 -9 -14 1.9 1.57
4 9 14 3.11 1.86
-4 -9 -14 -0.06 1.01
-4 -9 -14 3 1.89
-4 -9 -14 -1.08 1.31
4 9 14 1.17 1.25
4 9 14 1.36 1.4
4 9 15 392.4 18.79
4 9 15 383.44 18.63
-4 -10 5 -0.72 1.48
-4 -10 5 1.65 1.74
-4 -10 5 0.64 1.16
-4 -10 5 1.4 1.43
4 10 -5 0.81 1.16
-4 -10 5 -0.52 1.39
4 10 -4 92.92 7.82
-4 -10 4 95.31 7.74
-4 -10 4 100.9 7.54
-4 -10 4 101.13 7.51
-4 -10 4 95 7.33
-4 -10 4 103.83 7.62
-4 -10 4 100.37 8.64
4 10 -4 89.18 7.23
4 10 -4 88.14 7.16
4 10 -4 86.62 6.9
4 10 -4 85.74 7.05
4 10 -3 -0.2 1.06
-4 -10 3 0.52 1.16
-4 -10 3 -0.57 1.33
-4 -10 3 0.61 1.11
-4 -10 3 1.03 1.19
-4 -10 3 0.83 0.97
-4 -10 3 -0.97 1.32
-4 -10 3 0.18 1.31
4 10 -3 0.78 1.15
4 10 -3 -0.05 1.3
4 10 -3 1.95 1.15
4 10 -3 1.22 1.54
4 10 -2 34.81 4.54
-4 -10 2 30.67 4.25
-4 -10 2 29.66 3.93
-4 -10 2 31.19 3.92
-4 -10 2 33.79 4.19
-4 -10 2 34.09 4.14
-4 -10 2 26.02 3.71
-4 -10 2 32.05 4.66
4 10 -2 33.09 4.29
4 10 -2 27.33 3.82
4 10 -2 32.38 3.85
4 10 -2 26.16 3.57
-4 -10 2 38.65 4.68
4 10 -1 -0.28 1.28
-4 -10 1 -0.98 1.19
-4 -10 1 1.25 1.17
-4 -10 1 0.02 1.15
-4 -10 1 0.42 1.17
-4 -10 1 1.58 1.25
-4 -10 1 -0.97 0.94
-4 -10 1 -1.1 1.4
4 10 -1 0.43 1.2
4 10 -1 -0.91 1.07
4 10 -1 0.92 1.09
4 10 -1 0.03 1.19
-4 -10 1 0.88 1.29
-4 -10 0 299.08 13.91
4 10 0 314.39 14.26
-4 -10 0 324.53 14.23
-4 -10 0 309.51 13.44
-4 -10 0 324.41 13.7
-4 -10 0 345.24 13.9
-4 -10 0 325.59 13.69
-4 -10 0 311.45 13.38
-4 -10 0 305.39 14.69
4 10 0 288.41 13.39
4 10 0 302.75 13.09
4 10 0 300.23 13.34
-4 -10 0 351.55 15.57
4 10 0 313.53 13.59
-4 -10 -1 0.13 0.85
-4 -10 -1 2.18 1.37
-4 -10 -1 0.46 0.94
-4 -10 -1 1.38 1.02
-4 -10 -1 -0.83 0.97
-4 -10 -1 1.31 1.59
4 10 1 0.24 0.96
4 10 1 0.82 0.93
-4 -10 -1 2.32 1.8
-4 -10 -2 3.14 1.49
4 10 2 2.45 1.23
-4 -10 -2 5.32 1.73
-4 -10 -2 2.99 1.33
-4 -10 -2 5.61 1.92
-4 -10 -2 3.42 1.47
-4 -10 -2 2 1.29
-4 -10 -2 2.2 1.39
4 10 2 1.65 1.28
4 10 2 2.79 1.43
-4 -10 -2 5.12 2.27
-4 -10 -3 15.66 2.67
4 10 3 22.19 3.31
-4 -10 -3 15.81 2.7
-4 -10 -3 22.03 3.05
-4 -10 -3 23.24 3.19
-4 -10 -3 24.69 3.27
-4 -10 -3 23.88 3.2
-4 -10 -3 26.74 3.63
-4 -10 -3 21.17 3.07
4 10 3 20.37 3.07
-4 -10 -3 27.18 3.99
4 10 3 21.24 3
-4 -10 -4 4.76 1.6
4 10 4 4.55 1.65
-4 -10 -4 4.35 1.44
-4 -10 -4 5.51 1.77
-4 -10 -4 4.82 1.56
-4 -10 -4 4.4 1.58
-4 -10 -4 4.74 1.71
-4 -10 -4 1.85 1.02
4 10 4 1.24 1.15
4 10 4 4.62 1.69
-4 -10 -4 3.83 1.6
-4 -10 -5 34.89 3.83
4 10 5 34.74 4
-4 -10 -5 34.7 3.99
-4 -10 -5 32.16 3.91
-4 -10 -5 39.8 4.28
-4 -10 -5 39.41 4.39
-4 -10 -5 37.52 4.4
-4 -10 -5 35.99 4.1
4 10 5 37.71 4.28
4 10 5 35.71 4.41
-4 -10 -5 35.81 4.63
-4 -10 -6 207.42 10.31
4 10 6 216.83 11.03
-4 -10 -6 217.35 10.96
-4 -10 -6 205.9 10.76
-4 -10 -6 215.85 10.95
-4 -10 -6 188.11 10.98
-4 -10 -6 215.43 10.85
4 10 6 218.36 11.11
-4 -10 -6 230.69 12.1
4 10 6 187.65 9.14
4 10 7 70.07 6.08
-4 -10 -7 68.92 5.6
-4 -10 -7 66.2 5.85
-4 -10 -7 64.39 5.81
-4 -10 -7 70.83 6.05
-4 -10 -7 62.09 6.26
-4 -10 -7 71.42 6.06
4 10 7 73.62 6.25
-4 -10 -7 64.6 6.16
4 10 7 53.57 4.53
4 10 8 305.08 13.89
-4 -10 -8 269.41 12.35
-4 -10 -8 277.39 13.43
-4 -10 -8 268.02 13.18
-4 -10 -8 300.36 13.74
-4 -10 -8 287.07 14.14
-4 -10 -8 290.62 14.63
4 10 8 267.96 13.6
-4 -10 -8 298.59 13.79
-4 -10 -8 290.39 13.5
4 10 8 323.67 14.55
-4 -10 -8 311.7 14.48
4 10 9 144.38 9.36
-4 -10 -9 144.46 8.72
-4 -10 -9 139.9 9.28
-4 -10 -9 147.61 9.48
-4 -10 -9 153.74 9.59
4 10 9 146.02 9.76
-4 -10 -9 163.8 10.34
-4 -10 -9 140.07 10.18
-4 -10 -9 147.41 9.48
-4 -10 -9 149.45 9.39
4 10 9 159.39 9.97
-4 -10 -9 152.61 9.77
4 10 10 1.36 0.87
-4 -10 -10 0.47 1.38
-4 -10 -10 0.04 0.97
-4 -10 -10 -1.25 1.35
4 10 10 0.66 0.96
-4 -10 -10 2.19 1.63
-4 -10 -10 0.24 1.51
-4 -10 -10 -0.11 1.51
-4 -10 -10 1.34 1.08
4 10 10 -0.63 0.96
-4 -10 -10 1.38 1.46
4 10 11 65.75 6.42
-4 -10 -11 59.93 6.25
-4 -10 -11 53.68 5.91
-4 -10 -11 59.17 6.07
4 10 11 54.22 6.16
-4 -10 -11 64.33 6.78
-4 -10 -11 57.45 6.92
-4 -10 -11 57.06 5.99
-4 -10 -11 58.22 6
4 10 11 65.61 6.55
-4 -10 -11 54.25 5.5
4 10 12 0.84 1.74
-4 -10 -12 1.42 1.75
-4 -10 -12 3.87 2.3
-4 -10 -12 4.54 1.98
-4 -10 -12 1.12 1.07
-4 -10 -12 1.17 1.57
-4 -10 -12 3.3 1.77
-4 -10 -12 2.13 1.75
4 10 12 4.31 2.04
4 10 12 2.61 1.81
4 10 13 84.01 8.09
-4 -10 -13 85.27 8.31
-4 -10 -13 81.93 8.79
-4 -10 -13 85.03 7.89
-4 -10 -13 84.5 7.91
-4 -10 -13 88.17 8.07
-4 -10 -13 93.69 8.31
-4 -10 -13 95.28 8.26
4 10 13 102.11 8.6
4 10 13 86.39 7.87
4 10 14 208.93 13.52
-4 -10 -14 208.83 13.78
-4 -10 -14 201.32 14.47
-4 -10 -14 210.9 13.57
-4 -10 -14 199.87 12.84
-4 -10 -14 198.37 13.06
-4 -10 -14 209.79 13.11
-4 -10 -14 209.02 13.03
4 10 14 221.13 13.5
4 10 14 221.39 13.25
4 11 -3 58.71 6.4
-4 -11 3 57.82 6.11
-4 -11 3 60.88 6
-4 -11 3 65.73 6.21
-4 -11 3 54.86 5.69
-4 -11 3 63.08 6.08
-4 -11 3 69.17 6.44
-4 -11 3 62.49 6.93
4 11 -3 55.29 5.75
4 11 -3 51.42 5.13
4 11 -3 54.57 5.62
4 11 -3 58.12 5.78
4 11 -2 -0.47 1.59
-4 -11 2 0.06 1.1
-4 -11 2 0.11 0.87
-4 -11 2 -0.61 1.46
-4 -11 2 2.75 1.76
-4 -11 2 0.89 0.92
-4 -11 2 -0.63 1.12
-4 -11 2 1.71 1.75
4 11 -2 -2.35 1.99
4 11 -2 -0.06 0.95
4 11 -2 1.37 1.1
4 11 -2 2.05 1.84
-4 -11 2 1.44 1.27
4 11 -1 20.59 3.89
-4 -11 1 25.09 3.98
-4 -11 1 22.54 3.52
-4 -11 1 21.53 3.51
-4 -11 1 19.81 3.35
-4 -11 1 19.99 3.46
-4 -11 1 21.72 3.48
-4 -11 1 19.44 3.99
4 11 -1 17.99 3.3
4 11 -1 17.94 3.22
4 11 -1 19.38 3.24
4 11 -1 19.59 3.28
-4 -11 1 24.44 3.98
-4 -11 0 0.13 0.87
4 11 0 2.27 1.6
-4 -11 0 5.05 1.89
-4 -11 0 2.25 1.15
-4 -11 0 0.77 0.97
-4 -11 0 2.13 1.32
-4 -11 0 4.78 1.61
-4 -11 0 1.14 1.06
-4 -11 0 -0.85 1.51
4 11 0 3.92 1.76
4 11 0 0.85 1.12
4 11 0 2.57 1.6
4 11 0 1.85 1.26
-4 -11 0 2.72 1.52
-4 -11 -1 35.81 4.54
-4 -11 -1 36.49 4.32
-4 -11 -1 40.37 4.44
-4 -11 -1 37.9 4.43
-4 -11 -1 42 4.68
-4 -11 -1 38.74 5.03
4 11 1 30.94 3.84
4 11 1 37.3 4.31
-4 -11 -1 47.23 5.62
4 11 1 40.3 4.52
-4 -11 -2 30.85 4.16
-4 -11 -2 31.21 4.05
-4 -11 -2 33.81 4.14
-4 -11 -2 34.76 4.17
-4 -11 -2 28.81 3.87
-4 -11 -2 30.61 4.26
4 11 2 38.59 4.46
4 11 2 38.7 4.41
-4 -11 -2 31.43 4.72
-4 -11 -3 9.66 2.33
4 11 3 12.76 2.57
-4 -11 -3 7.68 1.93
-4 -11 -3 7.76 1.88
-4 -11 -3 9.89 2.29
-4 -11 -3 10.57 2.47
-4 -11 -3 9.91 2.58
-4 -11 -3 9.79 2.2
4 11 3 5.21 1.73
4 11 3 10.01 2.45
-4 -11 -3 9.44 2.92
-4 -11 -4 47.51 4.94
4 11 4 51.01 5.27
-4 -11 -4 50.06 4.98
-4 -11 -4 55.48 5.33
-4 -11 -4 60.38 5.51
-4 -11 -4 53.03 5.16
-4 -11 -4 52.45 5.11
-4 -11 -4 57.54 5.35
4 11 4 53.62 5.31
-4 -11 -4 48.95 5.79
4 11 4 53.53 5.25
-4 -11 -5 224.38 11.64
4 11 5 218.78 11.8
-4 -11 -5 244.99 12.11
-4 -11 -5 240.26 12.01
-4 -11 -5 245.92 12.09
-4 -11 -5 238.54 11.99
-4 -11 -5 242.79 12.36
-4 -11 -5 263.06 12.37
4 11 5 246.06 12.33
4 11 5 220.6 11.73
-4 -11 -5 272.24 14.03
-4 -11 -6 6.19 1.83
4 11 6 7.91 2.14
-4 -11 -6 8.11 2.29
-4 -11 -6 5.97 1.88
-4 -11 -6 5.62 1.86
-4 -11 -6 4.47 1.84
-4 -11 -6 4.17 1.82
-4 -11 -6 4.22 1.8
4 11 6 4.11 1.62
4 11 6 4.88 1.75
-4 -11 -6 6.01 2.4
-4 -11 -7 281.34 13.12
4 11 7 290.74 13.81
-4 -11 -7 280.91 13.7
-4 -11 -7 284.55 13.82
-4 -11 -7 270.42 13.5
-4 -11 -7 277.15 14.4
-4 -11 -7 311.63 14.19
4 11 7 312.38 14.37
-4 -11 -7 317.9 15.34
4 11 8 86.08 7.18
-4 -11 -8 81.1 6.58
-4 -11 -8 91.16 7.38
-4 -11 -8 93.75 7.49
-4 -11 -8 89.84 7.3
-4 -11 -8 78.62 7.54
-4 -11 -8 91.17 7.32
4 11 8 94.93 7.52
-4 -11 -8 99.25 8.17
4 11 9 142.22 9.51
-4 -11 -9 129.7 8.55
-4 -11 -9 140.08 9.57
-4 -11 -9 132.84 9.32
-4 -11 -9 137.42 9.43
-4 -11 -9 138.01 10.27
4 11 9 127.61 9.32
-4 -11 -9 150.09 10.26
-4 -11 -9 142.59 9.68
-4 -11 -9 134.43 9.24
4 11 9 148.44 9.83
-4 -11 -9 140.46 9.73
4 11 10 188.56 11.18
-4 -11 -10 173.73 11.08
-4 -11 -10 179.74 11.17
-4 -11 -10 168.94 10.8
4 11 10 159.41 10.95
-4 -11 -10 170.4 11.46
-4 -11 -10 181.59 12.32
-4 -11 -10 163.24 10.8
-4 -11 -10 176.66 10.97
4 11 10 171.97 11.37
-4 -11 -10 196.79 11.61
4 11 11 3.07 1.78
-4 -11 -11 2.86 1.65
-4 -11 -11 2.92 1.63
-4 -11 -11 1.54 1.51
4 11 11 2.24 1.7
-4 -11 -11 2.57 1.96
-4 -11 -11 2.55 2.36
-4 -11 -11 2.94 1.71
-4 -11 -11 1.79 1.89
4 11 11 1.26 1.4
-4 -11 -11 3.16 1.54
4 11 12 27.91 4.7
-4 -11 -12 35.52 5.37
-4 -11 -12 31.4 5.36
-4 -11 -12 39.02 5.07
-4 -11 -12 34.98 5.12
-4 -11 -12 38.68 5.37
-4 -11 -12 39.61 5.27
-4 -11 -12 37.06 5.03
4 11 12 35.33 5.26
4 11 12 32.74 4.85
4 11 13 0.24 1.34
-4 -11 -13 1.76 1.26
-4 -11 -13 -0.04 1.66
-4 -11 -13 2.67 2.05
-4 -11 -13 3.24 1.95
-4 -11 -13 1.67 1.28
-4 -11 -13 0.63 1.54
-4 -11 -13 4.49 1.93
4 11 13 0.56 1.2
4 11 13 4.58 1.98
4 12 -1 13.75 3.29
-4 -12 1 23.61 4
-4 -12 1 18.68 3.43
-4 -12 1 16.34 3.19
-4 -12 1 15.28 3.26
-4 -12 1 19.71 3.44
-4 -12 1 20.58 3.63
-4 -12 1 15.75 3.59
4 12 -1 12.35 2.91
4 12 -1 17.39 3.31
4 12 -1 21.15 3.54
-4 -12 1 19.75 3.89
4 12 0 11.4 2.82
-4 -12 0 11.13 2.8
-4 -12 0 8.13 2.51
-4 -12 0 6.87 2.27
-4 -12 0 9.03 2.41
-4 -12 0 7.31 2.36
-4 -12 0 9.41 2.55
-4 -12 0 9.94 2.8
4 12 0 7.14 2.54
4 12 0 9.9 2.59
4 12 0 8.74 2.16
-4 -12 0 10.6 2.93
-4 -12 -1 -0.91 0.99
4 12 1 -1.84 1.52
-4 -12 -1 3.95 1.99
-4 -12 -1 0.16 0.93
-4 -12 -1 0.26 1.34
-4 -12 -1 1.13 1.5
-4 -12 -1 -0.55 1.01
-4 -12 -1 -0.91 1.06
-4 -12 -1 -1.76 2.05
4 12 1 0.39 1.31
4 12 1 0.87 1.1
-4 -12 -1 0.48 1.99
4 12 1 1.37 1.55
-4 -12 -2 14.59 3.11
-4 -12 -2 10.44 2.5
-4 -12 -2 12.1 2.67
-4 -12 -2 12.66 2.78
-4 -12 -2 12.19 2.83
-4 -12 -2 7.26 2.5
4 12 2 12.76 2.91
4 12 2 11.18 2.53
-4 -12 -2 12.93 3.27
-4 -12 -3 27.8 4.11
-4 -12 -3 36.12 4.53
-4 -12 -3 35.14 4.48
-4 -12 -3 26.7 3.98
-4 -12 -3 32.74 4.37
-4 -12 -3 33.5 4.55
4 12 3 34.83 4.49
4 12 3 27.06 3.83
-4 -12 -3 34.22 5.05
-4 -12 -4 107.81 8.18
4 12 4 101.03 7.8
-4 -12 -4 110.44 8.08
-4 -12 -4 111.48 8.2
-4 -12 -4 102.78 7.78
-4 -12 -4 98.98 7.75
-4 -12 -4 105.56 8.21
-4 -12 -4 109.88 8.06
4 12 4 96.94 7.7
-4 -12 -4 124.47 9.8
4 12 4 105.5 7.83
-4 -12 -5 1.4 1.22
4 12 5 0.34 0.94
-4 -12 -5 3.85 1.66
-4 -12 -5 -0.34 1.26
-4 -12 -5 -0.6 1.03
-4 -12 -5 1.82 1.08
-4 -12 -5 -0.71 1.09
4 12 5 5.21 2.09
-4 -12 -5 3.42 2.29
4 12 5 2.09 1.82
-4 -12 -6 25.87 3.9
4 12 6 22.15 3.72
-4 -12 -6 22.59 3.61
-4 -12 -6 26.86 4
-4 -12 -6 26.41 3.96
-4 -12 -6 22.35 3.64
-4 -12 -6 24.02 3.84
-4 -12 -6 23.43 3.81
4 12 6 25.83 3.99
-4 -12 -6 30.96 4.88
-4 -12 -7 8.43 2.22
4 12 7 9.74 2.53
-4 -12 -7 6.77 1.95
-4 -12 -7 7.74 2.15
-4 -12 -7 5.34 1.74
-4 -12 -7 7.32 2.21
-4 -12 -7 6.22 2.03
-4 -12 -7 10.66 2.69
4 12 7 8.27 2.27
4 12 7 7.54 2.32
-4 -12 -7 6.14 2.63
-4 -12 -8 2.13 1.5
4 12 8 2.35 1.58
-4 -12 -8 2.76 1.9
-4 -12 -8 2.38 1.9
-4 -12 -8 1.39 1.2
-4 -12 -8 -0.02 1.14
-4 -12 -8 3.1 1.77
4 12 8 2.44 1.42
-4 -12 -8 0.84 1.43
4 12 9 608.29 23.18
-4 -12 -9 586.94 23.24
-4 -12 -9 550.95 22.63
-4 -12 -9 572.57 22.9
-4 -12 -9 608.44 24.67
-4 -12 -9 587.84 22.98
4 12 9 661.3 23.99
-4 -12 -9 629.88 24.39
4 12 10 25.1 4.2
-4 -12 -10 31.79 4.73
-4 -12 -10 33.75 4.82
-4 -12 -10 34.48 4.88
-4 -12 -10 27.67 4.85
-4 -12 -10 38.41 5.06
4 12 10 38.96 5.15
-4 -12 -10 34.84 4.97
4 12 11 199.06 12.34
-4 -12 -11 214.04 13.04
-4 -12 -11 194.93 12.45
-4 -12 -11 196.34 12.43
-4 -12 -11 190.66 13.55
4 12 11 171.46 12.02
-4 -12 -11 208.96 13.42
-4 -12 -11 221.79 13.17
-4 -12 -11 196.65 12.35
4 12 11 231.46 13.46
-4 -12 -11 191.25 12.11
-4 -12 -12 13.9 3.46
4 12 12 14.01 3.4
-4 -12 -12 13.75 3.67
-4 -12 -12 15.77 3.63
-4 -12 -12 15.9 3.53
-4 -12 -12 11.35 3.15
-4 -12 -12 9.73 2.72
-4 -12 -12 10.92 3.08
4 12 12 16.72 3.69
4 12 12 9.2 2.58
-4 -13 -1 1.25 1.14
-4 -13 -1 -0.8 1.32
-4 -13 -1 -1 1.58
-4 -13 -1 0.98 1.4
-4 -13 -1 1.9 1.36
-4 -13 -1 1.92 1.86
-4 -13 -1 -0.51 1.39
-4 -13 -1 -1.23 1.73
-4 -13 -1 -0.92 1.22
-4 -13 -2 17.95 3.69
-4 -13 -2 20.55 3.56
-4 -13 -2 18.57 3.46
-4 -13 -2 15.13 3.17
-4 -13 -2 12.54 2.92
-4 -13 -2 19.58 3.92
4 13 2 16.76 3.44
4 13 2 21.26 3.6
-4 -13 -2 18.78 4.17
-4 -13 -3 13.02 3.11
-4 -13 -3 17.69 3.43
-4 -13 -3 14.98 3.04
-4 -13 -3 14.98 3.3
-4 -13 -3 13.7 2.96
-4 -13 -3 16.65 3.97
4 13 3 15.19 3.25
4 13 3 11.57 2.73
-4 -13 -3 13.54 3.69
-4 -13 -4 -1.23 1.72
-4 -13 -4 1.14 1.16
-4 -13 -4 0.38 1.08
-4 -13 -4 -0.27 0.94
-4 -13 -4 0.55 1.15
-4 -13 -4 3.58 2.46
-4 -13 -4 2.23 1.62
4 13 4 0.23 1.04
4 13 4 1.99 1.53
-4 -13 -4 -0.69 1.78
-4 -13 -5 75.06 7.09
4 13 5 70.07 6.75
-4 -13 -5 79.83 7.17
-4 -13 -5 77.34 7.03
-4 -13 -5 61.73 6.36
-4 -13 -5 67.12 6.54
-4 -13 -5 78.13 6.97
4 13 5 64.8 6.48
-4 -13 -5 75.13 8.1
4 13 5 66.01 6.38
-4 -13 -6 51.52 5.79
4 13 6 65.83 6.5
-4 -13 -6 67.61 6.74
-4 -13 -6 62.35 6.46
-4 -13 -6 67.4 6.73
-4 -13 -6 62.62 6.43
-4 -13 -6 72.64 6.84
4 13 6 61.9 6.54
4 13 6 60.53 6.17
-4 -13 -6 67.66 7.7
-4 -13 -7 -0.05 0.95
4 13 7 0.27 1.47
-4 -13 -7 2.08 1.67
-4 -13 -7 0.05 1.25
-4 -13 -7 1.63 1.4
-4 -13 -7 0.13 1.24
-4 -13 -7 0.34 1.11
4 13 7 1.88 1.77
-4 -13 -7 3.73 2.38
4 13 8 302 15.44
-4 -13 -8 312.3 15.56
-4 -13 -8 314.57 15.89
-4 -13 -8 343.42 16.51
-4 -13 -8 324.4 16.09
-4 -13 -8 315.79 16.09
-4 -13 -8 337.06 17.03
-4 -13 -8 352.48 16.5
4 13 8 305.6 15.87
-4 -13 -8 344.05 17.82
4 13 9 276.6 14.66
4 13 9 294.45 13.57
-4 -13 -9 264.07 14.67
-4 -13 -9 255.25 14.41
-4 -13 -9 262.82 14.56
-4 -13 -9 268.97 15.66
-4 -13 -9 276.41 14.82
4 13 9 311.01 15.43
-4 -13 -9 284.53 15.87
4 13 10 60.52 6.53
4 13 10 57.74 5.7
-4 -13 -10 62.01 6.82
-4 -13 -10 56.35 6.45
-4 -13 -10 52.88 6.19
-4 -13 -10 48.76 5.96
4 13 10 62.65 6.7
-4 -13 -10 48.33 6.42
-4 -13 -10 50.68 6.35
-4 -13 -11 25.46 4.46
4 13 11 27.5 4.23
-4 -14 -4 97.53 8.89
-4 -14 -5 0.6 1.78
-4 -14 -5 1.65 1.49
-4 -14 -6 22.83 4
-4 -14 -7 5.48 2.16
-5 10 2 9.78 2.65
-5 10 2 13.57 3.07
-5 10 1 -0.15 1.11
5 -10 -1 0.89 1.41
-5 10 0 89.18 7.26
-5 10 0 79.25 7.09
5 -10 1 22.42 4.11
-5 10 -1 17.3 3.31
-5 10 -2 9.86 2.47
5 -9 -7 33.12 5.05
-5 9 6 1.45 1.19
5 -9 -6 -0.79 1.5
-5 9 6 2.9 1.55
5 -9 -5 160.18 10.7
-5 9 5 149.66 10.26
-5 9 5 175.23 10.58
-5 9 4 17.94 3.37
5 -9 -4 11.74 3.05
5 -9 -4 14.91 3.33
-5 9 4 11.35 2.81
-5 9 3 0.42 1.23
5 -9 -3 -1.17 1.68
5 -9 -3 1.03 1.05
-5 9 3 -0.72 1.34
5 -9 -3 2.05 1.88
-5 9 2 2.64 1.41
5 -9 -2 6.86 2.14
5 -9 -2 4.36 2.01
-5 9 2 3.46 1.71
5 -9 -2 2.33 1.16
-5 9 1 6.38 2.19
5 -9 -1 -0.64 1.75
5 -9 -1 4.34 1.85
-5 9 1 5.23 2.07
5 -9 -1 6.47 2.59
5 -9 0 203.55 12.53
-5 9 0 240.78 11.69
5 -9 0 207.33 12.53
-5 9 0 199.58 11.44
5 -9 0 186 12.28
5 -9 1 55.69 6.32
-5 9 -1 66.52 5.88
5 -9 1 52.15 6.11
5 -9 1 53.61 6.15
-5 9 -1 55.85 5.74
-5 9 -1 59.43 5.53
5 -9 1 57.79 6.59
5 -9 2 30.01 4.67
5 -9 2 29.15 4.61
-5 9 -2 26.07 3.97
-5 9 -2 31.44 4.14
5 -9 2 28.74 4.55
5 -9 3 1.13 1.34
5 -9 3 2.36 1.52
-5 9 -3 1.16 1.11
-5 9 -3 1.6 1.62
5 -9 3 3.31 2.03
5 -9 4 0.47 1.34
5 -9 4 -1.92 1.75
5 -8 -8 21.92 4.02
-5 8 7 3.68 1.96
-5 8 7 0.36 1.17
5 -8 -7 2.5 1.21
5 -8 -7 1.3 1.43
-5 8 6 161.26 10.02
-5 8 6 139.18 9.53
5 -8 -6 129.94 9.6
5 -8 -6 171.88 11.04
-5 8 5 27.25 4.16
-5 8 5 21.44 3.7
5 -8 -5 17.9 3.46
5 -8 -5 23.91 4.09
-5 8 4 48.92 5.36
5 -8 -4 42.99 5.12
-5 8 4 45.6 5.16
5 -8 -4 57.72 6.03
5 -8 -3 119.36 9.09
-5 8 3 118.37 8.1
5 -8 -3 111.81 8.81
5 -8 -3 107.12 7.91
-5 8 3 117.49 8.34
5 -8 -2 28.31 4.31
-5 8 2 37.44 4.46
5 -8 -2 41.85 5.2
-5 8 2 34.74 4.35
5 -8 -2 39.25 5.23
5 -8 -1 188.28 11.56
-5 8 1 220.29 11.18
5 -8 -1 191.33 11.58
-5 8 1 214.58 11.38
5 -8 -1 193.51 11.98
5 -8 0 306.93 15.19
-5 8 0 339.38 14.1
5 -8 0 303.79 15.09
-5 8 0 303.68 14.28
-5 8 0 323.77 13.36
5 -8 0 298.44 15.22
-5 8 -1 13.33 2.64
5 -8 1 11.54 2.74
5 -8 1 5.86 1.97
-5 8 -1 9.71 2.54
5 -8 1 10.05 2.61
5 -8 1 9.76 2.64
-5 8 -1 11.57 2.39
-5 8 -2 9.96 2.13
5 -8 2 7.87 2.56
5 -8 2 10.55 2.73
5 -8 2 5.38 1.99
-5 8 -2 7.59 2.24
-5 8 -2 7.85 2.14
5 -8 2 7.81 2.28
5 -8 3 0.67 1.24
5 -8 3 3.18 2.04
-5 8 -3 0.38 0.96
-5 8 -3 0.58 0.98
5 -8 3 3.09 1.89
5 -8 4 2.09 1.57
5 -8 4 -0.06 1.12
-5 8 -4 2.85 1.54
-5 8 -4 2.46 1.49
5 -8 4 2.22 1.75
5 -8 5 0.86 1.01
5 -8 5 4.24 2
-5 8 -5 4.19 1.74
5 -8 5 2.83 1.32
5 -8 6 5.56 2.29
-5 8 -6 5.57 2.04
5 -8 6 2.84 1.8
-5 7 9 22.75 3.71
5 -7 -9 26.49 4.55
-5 7 9 17.69 3.25
-5 7 8 31.57 4.47
-5 7 8 25.37 3.86
5 -7 -8 25.29 4.37
5 -7 -8 36.17 5.06
-5 7 7 185.86 10.97
-5 7 7 170.46 10.32
5 -7 -7 185.87 11.64
5 -7 -7 192.27 11.65
-5 7 6 1.08 1.76
-5 7 6 1.2 1.52
5 -7 -6 0.61 0.96
5 -7 -6 1.34 1.62
-5 7 5 13.63 2.73
-5 7 5 12.67 2.6
5 -7 -5 14.27 2.81
5 -7 -5 14.4 3.13
-5 7 4 25.2 3.62
-5 7 4 18.26 3.16
5 -7 -4 22.09 3.43
5 -7 -4 19.45 3.43
-5 7 3 27.31 3.78
-5 7 3 29.88 3.98
5 -7 -3 27.99 3.74
5 -7 -3 34.86 4.31
5 -7 -2 130.83 9.13
-5 7 2 141.32 8.65
5 -7 -2 140.36 9.27
-5 7 2 142.05 8.83
5 -7 -2 131.72 8.25
5 -7 -2 151 9.06
-5 7 1 0.67 0.89
5 -7 -1 3.96 1.9
5 -7 -1 0.72 1.1
-5 7 1 1.16 0.97
5 -7 -1 3.17 1.61
-5 7 0 3.67 1.56
5 -7 0 4.86 1.97
5 -7 0 5.59 2.05
-5 7 0 3.82 1.81
-5 7 0 2.77 1.08
5 -7 0 1.57 1.41
5 -7 1 49.8 5.42
-5 7 -1 72.17 5.59
5 -7 1 51.34 5.42
-5 7 -1 58.47 5.48
-5 7 -1 64.46 5.35
5 -7 1 58 5.97
5 -7 2 73.24 6.55
-5 7 -2 93.88 6.4
5 -7 2 81.86 6.87
5 -7 2 82.45 7.05
-5 7 -2 79.45 6.45
-5 7 -2 75.46 6.08
5 -7 2 76.56 6.9
-5 7 -3 20.18 2.85
5 -7 3 23.99 3.65
5 -7 3 23.52 3.92
-5 7 -3 24.25 3.5
-5 7 -3 20.39 3.27
5 -7 3 22 3.65
5 -7 4 60.12 6
5 -7 4 53.54 5.83
-5 7 -4 64.59 5.85
-5 7 -4 58.12 5.4
5 -7 4 56.79 6.09
5 -7 5 4.05 1.69
5 -7 5 7.35 2.26
-5 7 -5 2.76 1.36
-5 7 -5 2.64 1.17
5 -7 5 5.13 1.75
5 -7 6 44.51 5.67
5 -7 6 47.72 5.6
5 -7 6 50.73 5.78
-5 7 -6 52.85 5.62
5 -7 7 0.66 1.23
-5 7 -7 1.99 1.23
5 -7 7 2.38 1.18
5 -7 8 46.09 5.74
-5 6 10 5.76 2.09
-5 6 10 5.58 1.7
-5 6 9 2.02 1.15
-5 6 9 3.05 1.31
5 -6 -9 4.2 2.06
5 -6 -9 7.09 2.51
-5 6 8 138.65 9.34
5 -6 -8 154.37 10.51
-5 6 8 139.18 9.01
5 -6 -8 164.44 10.55
-5 6 7 153.31 9.53
5 -6 -7 148.48 9.99
-5 6 7 133.09 8.71
5 -6 -7 147.4 9.83
-5 6 6 302.35 14.03
-5 6 6 288 13.58
5 -6 -6 330.47 14.9
5 -6 -6 326.21 14.96
-5 6 5 3.9 1.41
-5 6 5 7.3 2.11
5 -6 -5 4.11 1.66
5 -6 -5 2.83 1.64
-5 6 4 75.91 6.28
-5 6 4 76.03 6.15
5 -6 -4 77.27 6.27
5 -6 -4 80.17 6.53
-5 6 3 95.19 6.77
-5 6 3 78.09 6.27
5 -6 -3 86.37 6.41
5 -6 -3 95.4 6.96
-5 6 2 0.16 0.99
-5 6 2 0.82 1.19
5 -6 -2 0.31 0.67
5 -6 -2 1.52 1.12
5 -6 -1 30.39 3.96
-5 6 1 28.55 3.55
5 -6 -1 33.79 4.16
-5 6 1 26.71 3.45
5 -6 -1 27.49 3.29
-5 6 1 25.85 3.07
5 -6 -1 32.8 3.8
5 -6 0 56.94 5.42
-5 6 0 66.74 5.31
5 -6 0 54.19 5.26
-5 6 0 58.87 5.24
-5 6 0 60.36 4.82
5 -6 0 65.3 5.32
5 -6 0 55.99 5.49
-5 6 -1 8.44 1.94
5 -6 1 5.21 1.64
5 -6 1 3.1 1.46
-5 6 -1 3.71 1.25
-5 6 -1 6.44 1.63
5 -6 1 2.63 1.41
-5 6 -2 19.77 2.86
5 -6 2 20.85 3.33
5 -6 2 16.21 3.03
5 -6 2 20.27 3.25
-5 6 -2 20.74 3.27
-5 6 -2 24.63 3.24
5 -6 2 20.19 3.32
5 -6 3 42.98 4.77
-5 6 -3 47.9 4.21
5 -6 3 43.33 4.69
5 -6 3 44.53 4.98
-5 6 -3 40.24 4.35
-5 6 -3 40.25 4.32
5 -6 3 39.91 4.71
5 -6 4 14.79 2.8
5 -6 4 14.66 2.94
-5 6 -4 17.85 2.96
5 -6 4 15.63 3.08
-5 6 -4 15.35 2.79
5 -6 5 144.05 9.54
5 -6 5 135.35 8.98
5 -6 5 138.4 9.27
-5 6 -5 131.46 8.29
-5 6 -5 160.63 9.4
5 -6 6 19.79 3.5
5 -6 6 25.03 3.87
-5 6 -6 32.56 4.31
5 -6 6 21.06 3.7
5 -6 7 17.07 3.29
-5 6 -7 13.63 2.96
5 -6 7 15.8 3.31
5 -6 8 37.27 5.06
-5 6 -8 43.19 5.21
5 -6 8 36.6 5.13
5 -6 9 24.11 4.18
5 -6 9 21.31 4.08
-5 5 10 17.68 3.31
5 -5 -10 13.78 3.3
5 -5 -10 15.58 3.34
-5 5 9 107.9 8.17
5 -5 -9 118.04 9.16
-5 5 9 100.55 7.51
-5 5 9 119.05 9.31
5 -5 -9 122.1 9.03
-5 5 8 7.32 2.49
-5 5 8 6.16 2.01
5 -5 -8 6.59 2.32
-5 5 8 3.35 1.74
5 -5 -8 1.11 1.44
-5 5 7 414.2 17.11
5 -5 -7 461.47 18.47
-5 5 7 415.83 16.65
-5 5 7 428.98 18.22
5 -5 -7 455.48 18.25
-5 5 6 77.46 6.37
5 -5 -6 81.96 6.88
-5 5 6 72.23 5.99
5 -5 -6 77.12 6.45
5 -5 -6 80.23 6.65
-5 5 5 31.7 4.03
5 -5 -5 33.57 4.04
-5 5 5 33.04 3.91
5 -5 -5 31.53 3.86
5 -5 -5 28.12 3.88
-5 5 4 207.14 10.41
-5 5 4 187.07 9.87
5 -5 -4 210.14 10.3
5 -5 -4 208 9.97
5 -5 -4 196.85 10.29
-5 5 3 31.2 3.74
-5 5 3 20.38 2.94
5 -5 -3 29.78 3.54
5 -5 -3 29 3.43
5 -5 -3 28.68 3.56
-5 5 2 62.49 5.18
-5 5 2 63.63 5.3
5 -5 -2 65.23 5.03
5 -5 -2 69.69 5.04
5 -5 -2 75.39 5.63
-5 5 1 150.87 8.16
5 -5 -1 149.45 7.6
-5 5 1 150.94 8.35
5 -5 -1 130.28 6.93
5 -5 -1 168.93 8.4
-5 5 1 133.47 7.01
-5 5 0 0.92 0.86
5 -5 0 0.34 0.96
5 -5 0 -0.74 0.92
-5 5 0 2.56 1.01
5 -5 0 -1.24 0.8
-5 5 0 1.41 0.9
5 -5 0 1.41 0.94
5 -5 1 62.4 5.35
-5 5 -1 61.31 4.9
5 -5 1 56.61 5.02
-5 5 -1 68.67 5.33
-5 5 -1 57.84 4.68
5 -5 1 60.6 4.63
5 -5 1 58.94 5.29
-5 5 -2 1.42 0.94
5 -5 2 3.24 1.31
5 -5 2 1.55 1.06
-5 5 -2 2.2 1.14
-5 5 -2 0.88 0.87
5 -5 2 4.13 1.78
5 -5 3 122.24 7.81
-5 5 -3 124.03 6.91
5 -5 3 116.32 7.49
-5 5 -3 127.22 7.55
5 -5 3 134.29 8.39
-5 5 -3 132.03 7.7
5 -5 3 120.9 7.85
-5 5 -4 30.72 3.19
5 -5 4 31.74 3.79
5 -5 4 30.44 3.96
-5 5 -4 26.31 3.38
-5 5 -4 33.29 3.9
5 -5 4 30.39 3.92
5 -5 5 83.02 6.76
5 -5 5 91.51 6.7
5 -5 5 89.99 7.06
-5 5 -5 98.07 6.94
-5 5 -5 90.7 6.48
5 -5 6 92.27 7.34
5 -5 6 93.67 7.06
5 -5 6 84.77 7.03
-5 5 -6 113.22 7.7
5 -5 7 1.38 1.21
-5 5 -7 0.53 1.06
5 -5 7 2.81 1.59
5 -5 8 13.42 2.87
-5 5 -8 22.23 3.6
5 -5 8 12.9 3.01
5 -5 9 1.69 1.38
5 -5 9 1.01 0.93
5 -5 9 3.81 2.17
-5 5 -9 4.53 1.98
5 -5 10 23.91 4.07
-5 5 -10 30.87 4.57
5 -5 10 21.59 4.11
-5 4 10 31.91 4.74
5 -4 -10 27.93 4.33
-5 4 9 5.36 2.18
5 -4 -9 1.6 1.34
5 -4 -8 0.37 1.46
-5 4 8 -0.64 1
5 -4 -8 0.9 1.28
-5 4 8 0.68 0.88
-5 4 8 0.5 0.98
5 -4 -7 -1.81 1.49
-5 4 7 1.27 1.38
5 -4 -7 0.82 1.24
-5 4 7 -1.54 1.37
-5 4 7 2.67 1.4
5 -4 -6 0.98 1.08
-5 4 6 -0.14 0.95
5 -4 -6 2.8 1.64
-5 4 6 1.71 1.13
5 -4 -6 1.26 1.05
-5 4 6 1.02 1.08
-5 4 5 886.67 27.68
5 -4 -5 903.55 26.49
5 -4 -5 912.4 27.47
-5 4 5 864.44 26.95
5 -4 -5 883.8 27.26
-5 4 5 856.32 26.23
-5 4 4 31.94 3.95
5 -4 -4 35.02 3.86
5 -4 -4 38.21 4.18
5 -4 -4 29.56 3.13
-5 4 4 34.59 3.9
5 -4 -4 26.85 3.4
-5 4 4 30.23 3.5
5 -4 -3 285.43 11.24
5 -4 -3 290.49 11.99
-5 4 3 309.32 12.3
5 -4 -3 293.23 11.62
-5 4 3 270.71 11.52
5 -4 -2 25.99 2.98
5 -4 -2 28.86 3.31
5 -4 -2 22.83 2.38
-5 4 2 24.3 3.13
-5 4 2 21.34 2.92
5 -4 -2 21.98 2.75
5 -4 -1 31.13 3.3
5 -4 -1 23.2 2.59
-5 4 1 23.79 2.63
5 -4 -1 20.07 2.15
-5 4 1 24.6 3.11
-5 4 1 23.66 2.99
5 -4 -1 23.05 2.69
-5 4 0 53.05 4.38
-5 4 0 48.92 4.36
5 -4 0 57.51 4.36
5 -4 0 48.04 3.68
-5 4 0 50.72 4.05
-5 4 -1 1.95 1.03
5 -4 1 0.63 1
5 -4 1 0.65 0.77
-5 4 -1 0.8 0.69
5 -4 1 0.71 0.64
-5 4 -1 -0.14 0.76
5 -4 1 0.11 0.55
5 -4 1 1.24 0.93
5 -4 2 288.66 12.27
-5 4 -2 331.74 11.98
5 -4 2 291.36 11.98
-5 4 -2 313.76 12.4
-5 4 -2 285.96 11.78
5 -4 2 319.04 11.24
5 -4 2 287.56 12.44
5 -4 3 40.99 4.13
-5 4 -3 49.56 4.09
5 -4 3 38.31 3.85
5 -4 3 39.97 4.3
-5 4 -3 46.91 4.31
-5 4 -3 40.47 3.97
5 -4 3 40.67 4.17
-5 4 -4 29.66 3.1
5 -4 4 29.69 3.41
5 -4 4 27.7 3.65
-5 4 -4 29.53 3.49
-5 4 -4 27.54 3.36
5 -4 4 30.06 3.73
5 -4 5 118.13 7.32
5 -4 5 113.42 7.65
-5 4 -5 130.38 7.82
5 -4 5 110.4 7.44
-5 4 -5 112.43 7.1
5 -4 6 12.58 2.41
5 -4 6 12.03 2.54
-5 4 -6 17.26 2.94
5 -4 6 12.24 2.52
5 -4 7 11.12 2.39
5 -4 7 12.43 2.69
-5 4 -7 13.37 2.75
5 -4 7 9.41 2.18
5 -4 8 16.37 3.03
-5 4 -8 11.9 2.58
5 -4 8 13.11 2.91
5 -4 9 5.54 2.12
5 -4 9 5.96 1.9
-5 4 -9 6.2 2.09
5 -4 9 9.02 2.66
5 -4 10 77 7.17
5 -4 10 77.49 7.45
-5 4 -10 83.64 7.19
5 -4 11 22.69 4.04
-5 4 -11 28.82 4.37
5 -4 11 20.89 4.05
-5 3 10 4.22 2.2
5 -3 -10 1.23 1.41
5 -3 -9 3.09 1.75
-5 3 9 1.16 1.18
5 -3 -9 4.03 1.78
5 -3 -8 9.11 2.35
5 -3 -8 4.09 1.7
-5 3 8 6.24 2.24
5 -3 -7 1.96 1.32
5 -3 -7 6.93 2.09
-5 3 7 7.3 2.2
-5 3 7 3.41 1.28
-5 3 7 3.37 1.56
-5 3 6 49.36 4.84
5 -3 -6 50.74 4.69
5 -3 -6 37.24 4.35
-5 3 6 40.83 4.37
-5 3 6 39.87 4.02
-5 3 5 61.21 5.27
5 -3 -5 56.22 4.79
5 -3 -5 59.36 5.23
5 -3 -5 52.58 4.37
-5 3 5 54.75 4.95
-5 3 5 59.19 4.77
-5 3 4 484.79 16.72
5 -3 -4 462.46 15.71
5 -3 -4 472.44 16.55
5 -3 -4 421.34 14.56
-5 3 4 465.52 16.37
5 -3 -4 461.67 15.95
-5 3 4 440.85 15.51
-5 3 3 895.7 25.07
5 -3 -3 838.83 23.66
5 -3 -3 861.21 24.56
5 -3 -3 786.83 22.58
-5 3 3 850.58 24.7
5 -3 -3 868.51 24.11
-5 3 3 792.17 23.84
-5 3 2 240.27 10.3
5 -3 -2 235.57 9.91
5 -3 -2 229.61 9.4
-5 3 2 206.19 8.37
5 -3 -2 196.59 8.36
-5 3 2 235.14 10.21
5 -3 -2 227.8 9.24
5 -3 -2 186.74 8.13
-5 3 2 205.05 9.44
5 -3 -1 399.23 13.39
5 -3 -1 335.88 11.99
-5 3 1 343.47 12.14
5 -3 -1 326.78 11.45
-5 3 1 367.92 13.6
-5 3 1 352.58 13.1
5 -3 -1 371.39 12.17
5 -3 0 193.63 8.36
5 -3 0 179.32 7.59
-5 3 0 174.89 7.98
5 -3 0 152.12 6.84
-5 3 0 203.05 9
-5 3 0 163.48 7.95
-5 3 0 185.94 8.65
-5 3 -1 311.43 11.4
5 -3 1 274.62 11.29
5 -3 1 280.69 10.97
-5 3 -1 255.98 10.33
-5 3 -1 284.78 11.34
5 -3 1 286.08 10.42
5 -3 1 255.73 9.54
-5 3 -1 321.49 11.39
5 -3 2 46.97 4.08
-5 3 -2 49.63 4.05
5 -3 2 49.7 3.98
-5 3 -2 46.21 3.6
-5 3 -2 56.67 4.49
5 -3 2 52.49 3.68
5 -3 2 48.12 3.26
5 -3 2 55.39 4.51
-5 3 -2 44.99 3.95
5 -3 3 198.18 9.37
-5 3 -3 228.52 9.21
5 -3 3 211.36 9.24
-5 3 -3 199.21 8.32
5 -3 3 212.56 10.21
-5 3 -3 218.61 9.75
-5 3 -3 253.45 10.33
5 -3 3 241.1 8.53
5 -3 3 212.81 9.75
5 -3 4 127.83 7.2
-5 3 -4 140.69 6.74
5 -3 4 126.49 6.94
5 -3 4 117.19 7.38
-5 3 -4 138.76 7.59
-5 3 -4 127.52 7.23
5 -3 4 126.99 7.28
5 -3 5 15.07 2.34
5 -3 5 16.52 2.71
-5 3 -5 15.3 2.49
5 -3 5 18.62 2.76
-5 3 -5 22 3.06
5 -3 6 15.66 2.52
5 -3 6 14.27 2.59
5 -3 6 15.17 2.58
-5 3 -6 17.18 2.78
5 -3 7 20.2 2.98
5 -3 7 19.53 3.23
-5 3 -7 21.12 3.13
5 -3 7 24.36 3.42
5 -3 8 7.79 2.02
-5 3 -8 7.43 2.16
5 -3 8 7.97 2.06
5 -3 9 42.9 4.71
5 -3 9 48.07 5.17
5 -3 9 42.89 4.76
-5 3 -9 56.09 5.49
5 -3 10 50.4 5.48
5 -3 10 54.66 5.92
5 -3 10 48.93 5.19
-5 3 -10 63.53 6.06
5 -3 11 4.01 1.47
-5 3 -11 5.64 2.21
5 -3 11 4.27 2.27
5 -3 12 87.97 7.87
5 -3 12 74.56 7.53
5 -3 12 84.54 8.06
-5 3 -12 81.46 7.41
5 -2 -10 54.52 5.69
-5 2 10 51.25 5.91
5 -2 -10 48.82 5.58
5 -2 -10 41.89 4.71
-5 2 9 62.37 6.27
5 -2 -9 58.05 5.65
5 -2 -9 59.97 5.97
5 -2 -9 47.4 4.83
5 -2 -8 0.44 0.94
5 -2 -8 0.99 1.17
-5 2 8 1.39 1.02
5 -2 -8 1.88 1.11
-5 2 7 23.83 3.58
5 -2 -7 20.22 3.13
5 -2 -7 14.48 2.36
-5 2 6 2.11 1.17
5 -2 -6 -0.21 1
5 -2 -6 1.2 0.8
-5 2 6 0.23 0.88
-5 2 5 355.97 13.98
-5 2 5 367.89 14.32
5 -2 -5 381.9 13.79
5 -2 -5 344.96 12.88
-5 2 5 338.74 12.69
-5 2 4 821.42 24.44
-5 2 4 918.3 25.19
5 -2 -4 864.02 23.97
5 -2 -4 811.22 23.11
5 -2 -4 729.41 21.23
5 -2 -4 720.96 22.3
-5 2 4 828.53 23.38
-5 2 3 1.31 1.01
5 -2 -3 3.95 1.31
-5 2 3 1.66 1.14
5 -2 -3 2.03 0.9
5 -2 -3 0.49 0.6
-5 2 3 0.06 0.86
5 -2 -3 1.57 1.09
5 -2 -2 711.16 19.02
-5 2 2 699.33 21.4
5 -2 -2 734.46 20.62
-5 2 2 763.64 21.62
-5 2 2 726.41 19.67
5 -2 -2 684.97 19.79
5 -2 -2 622.24 18.02
5 -2 -2 663.16 19.81
5 -2 -2 740.26 20.42
-5 2 2 708.32 21.31
-5 2 2 669.55 20.47
-5 2 1 28.1 3.15
-5 2 1 32.63 3.35
5 -2 -1 30.68 2.94
-5 2 1 30.43 2.9
5 -2 -1 25.71 2.57
5 -2 -1 27.83 2.16
5 -2 -1 29.36 2.72
-5 2 1 23.45 2.87
-5 2 1 29.47 3.13
-5 2 0 142.73 7.25
-5 2 0 134.76 7.04
-5 2 0 156.64 7.33
-5 2 0 149.41 6.98
-5 2 -1 51.43 4.13
5 -2 1 49.41 3.78
-5 2 -1 54.13 4.21
-5 2 -1 49.38 3.88
5 -2 1 52.96 3.74
-5 2 -1 51.05 3.99
5 -2 2 1121.97 29.88
-5 2 -2 1220.59 30.3
5 -2 2 1099.87 29.18
-5 2 -2 1068 29.25
-5 2 -2 1173.07 30.51
5 -2 2 1117.89 28.53
5 -2 2 1110.4 30.02
-5 2 -2 1148.76 30.17
5 -2 3 26.59 2.85
-5 2 -3 27.21 2.91
5 -2 3 26.3 2.69
-5 2 -3 24.57 2.54
5 -2 3 24 3.01
-5 2 -3 24.1 2.84
5 -2 3 22.89 2.17
5 -2 3 25.13 2.85
-5 2 -3 25.11 2.86
5 -2 4 171.54 8.05
-5 2 -4 185.47 8.65
5 -2 4 175.17 8.39
-5 2 -4 184.22 8.71
5 -2 4 187.48 8.05
5 -2 4 178.99 8.9
-5 2 -4 183.76 7.69
-5 2 -5 4.07 1.45
5 -2 5 4.16 1.32
-5 2 -5 4.33 1.17
5 -2 5 2.65 0.96
5 -2 5 5.17 1.53
-5 2 -5 2.33 1.05
5 -2 6 8.22 1.68
5 -2 6 4.05 1.37
5 -2 6 4.84 1.46
-5 2 -6 7 1.87
5 -2 7 4.76 1.48
5 -2 7 8.54 2.05
-5 2 -7 8.47 2.05
5 -2 7 10.33 2.13
-5 2 -8 116.92 7.59
5 -2 8 104.05 7.14
5 -2 8 101.62 7.1
5 -2 8 97.06 6.62
-5 2 -9 4.52 1.94
5 -2 9 6.25 1.77
5 -2 9 3.7 1.68
5 -2 9 5.26 1.88
-5 2 -10 95.24 7.16
5 -2 10 76.23 6.36
5 -2 10 79.54 6.85
5 -2 10 85.11 6.78
-5 2 -11 224.21 11.8
5 -2 11 207.09 12.12
5 -2 11 193.84 10.91
5 -2 11 216.75 11.82
5 -2 11 216.58 12.38
-5 2 -12 57.7 6
5 -2 12 52.54 6.1
5 -2 12 48.7 5.98
5 -2 12 58.37 6.22
-5 2 -13 26.27 4.1
5 -2 13 28.81 4.85
5 -2 13 20.67 4.1
5 -2 13 23.02 4.08
5 -1 -10 5.3 1.93
5 -1 -10 4.28 2.01
5 -1 -10 10.47 2.71
-5 1 10 8.72 2.85
-5 1 9 98.43 7.86
5 -1 -9 92.01 6.93
5 -1 -8 13.02 2.49
-5 1 8 21.86 3.53
5 -1 -8 18.07 3.11
5 -1 -7 3.9 1.08
-5 1 7 6.11 2.03
5 -1 -7 9.07 2.16
5 -1 -6 46.36 4.1
-5 1 6 60.04 5.32
5 -1 -6 63.38 5.16
5 -1 -6 61.89 4.98
-5 1 5 278.49 11.86
5 -1 -5 274.3 11.25
5 -1 -5 258.65 10.66
5 -1 -5 220.5 9.46
-5 1 5 241.09 9.94
5 -1 -4 94.86 5.95
-5 1 4 102.52 6.5
5 -1 -4 94.15 5.72
5 -1 -4 80.56 4.89
5 -1 -4 93.25 5.6
-5 1 4 89.39 5.47
5 -1 -3 548.95 16.05
5 -1 -3 585.54 17.62
5 -1 -3 524.47 16.02
5 -1 -3 574.91 17.4
-5 1 3 528.74 18.14
-5 1 3 561.31 17.39
5 -1 -2 370.37 12.33
-5 1 2 409.52 14.24
5 -1 -2 417.92 13.14
-5 1 2 417.55 14.01
5 -1 -2 391.45 13.14
5 -1 -2 361.66 11.82
5 -1 -2 388.57 13.28
-5 1 2 399.37 14.14
-5 1 2 376.72 13.13
-5 1 1 179.04 8.36
-5 1 1 195.3 8.37
-5 1 1 188.12 7.82
5 -1 -1 160.31 6.71
-5 1 1 177.1 8.39
-5 1 1 175.39 7.91
-5 1 0 14.3 2.02
-5 1 0 11.71 1.88
-5 1 0 13.55 2.19
5 -1 0 10.75 1.39
-5 1 0 13.17 2
-5 1 0 16.97 2.28
-5 1 -1 224.16 9.29
-5 1 -1 245.45 9.55
-5 1 -1 239.35 9.06
-5 1 -1 238.51 9.36
5 -1 2 117.01 5.97
5 -1 2 119.25 6.07
-5 1 -2 125.41 6.53
5 -1 2 115.33 5.46
-5 1 -2 118.42 6.35
-5 1 -2 116.85 6.16
-5 1 -3 1.95 0.89
5 -1 3 1.16 0.66
5 -1 3 1.4 0.65
5 -1 3 2.9 1.13
-5 1 -3 2.11 1.22
-5 1 -3 3.38 1.42
5 -1 3 1.29 0.79
5 -1 4 397.88 12.97
5 -1 4 392.86 11.31
5 -1 4 378.52 13.17
-5 1 -4 397.51 13.78
-5 1 -4 394.33 13.89
5 -1 4 394.06 14.12
-5 1 -4 376.64 12.94
5 -1 4 409.29 12.57
5 -1 5 40.3 3.55
-5 1 -5 41.68 3.89
5 -1 5 38.31 3.16
5 -1 5 44.39 4.06
-5 1 -5 38.96 3.29
5 -1 6 0.28 0.66
5 -1 6 1.05 0.89
5 -1 6 0.26 0.57
-5 1 -6 -0.25 0.74
5 -1 7 145.75 7.55
-5 1 -7 180.94 8.99
5 -1 7 168.23 8.4
5 -1 7 160.73 8.73
5 -1 8 121.98 6.63
5 -1 8 118.02 6.39
5 -1 8 115.66 6.44
5 -1 8 109.99 6.15
-5 1 -8 138.69 7.95
5 -1 8 114.38 6.84
5 -1 8 118.14 7.3
5 -1 8 117.26 7.46
5 -1 9 118.35 7.25
-5 1 -9 119.76 7.43
5 -1 9 122.06 7.06
5 -1 9 128.92 7.33
5 -1 9 129.52 7.11
-5 1 -9 112.64 7.24
-5 1 -9 150.5 8.61
-5 1 -9 114.34 7.06
-5 1 -9 111.56 7
-5 1 -9 124.1 6.99
5 -1 9 126.14 7.48
5 -1 9 134.6 8.11
5 -1 9 127.93 7.98
5 -1 10 314.54 13.28
-5 1 -10 292.22 13.11
5 -1 10 300.52 12.69
5 -1 10 314.29 13.1
5 -1 10 300.4 12.62
-5 1 -10 281.97 12.66
-5 1 -10 307.29 12.66
-5 1 -10 276.29 12.42
-5 1 -10 315.08 12.83
5 -1 10 319.98 13.59
5 -1 10 307.89 14.4
5 -1 10 295.4 13.64
5 -1 10 312.1 13.94
-5 1 -11 21.3 3.36
5 -1 11 23 3.39
5 -1 11 17.4 3.05
5 -1 11 21.92 3.22
5 -1 11 17.8 2.97
-5 1 -11 23.07 3.5
5 -1 11 24.41 3.71
-5 1 -11 22.1 3.21
-5 1 -11 21.08 3.19
-5 1 -11 16.37 2.97
5 -1 11 23.25 3.53
-5 1 -11 17.77 3.06
5 -1 11 22.82 3.71
5 -1 11 18.47 3.08
5 -1 12 151.93 9.68
-5 1 -12 156.88 9.93
5 -1 12 161.1 9.76
5 -1 12 163.3 9.64
5 -1 12 147.83 9.71
-5 1 -12 146.48 9.31
-5 1 -12 191.38 10.82
-5 1 -12 168.61 9.74
-5 1 -12 160.16 9.44
-5 1 -12 167.47 9.76
5 -1 12 154.02 10.54
5 -1 12 143.03 9.64
5 -1 12 167.86 10.78
5 -1 13 60.19 6.24
-5 1 -13 62.96 6.38
5 -1 13 60.03 6.1
5 -1 13 56.55 5.92
5 -1 13 52.63 5.96
-5 1 -13 52.83 5.8
-5 1 -13 68.04 6.58
-5 1 -13 61.16 6.06
-5 1 -13 54.78 5.78
-5 1 -13 60.48 6.09
5 -1 13 58.19 6.51
5 -1 13 49.33 5.78
5 -1 13 58.49 6.42
5 -1 14 1.36 1.08
5 -1 14 3.17 1.99
5 -1 14 2.2 1.49
5 -1 14 0.94 1.37
5 0 -10 9.52 2.41
-5 0 10 7.3 2.47
5 0 -10 6.49 2.14
-5 0 9 49.95 5.61
5 0 -9 41.86 4.62
5 0 -9 41.37 4.54
-5 0 8 56.24 5.69
5 0 -8 47.36 4.87
5 0 -8 45.72 4.56
-5 0 7 573.48 20.09
5 0 -7 559.26 18.73
-5 0 6 122.32 7.8
5 0 -6 114.91 6.92
5 0 -6 110.95 6.92
5 0 -5 32.44 3.6
-5 0 5 35.53 3.9
5 0 -5 30.66 3.18
5 0 -5 34.59 3.63
-5 0 4 183.43 8.94
5 0 -4 178 8.33
-5 0 4 161.38 7.35
5 0 -4 156.93 7.46
5 0 -4 176.35 8.27
5 0 -3 3.32 1.2
5 0 -3 1.91 0.98
-5 0 3 2.54 0.87
5 0 -3 2.52 0.85
-5 0 3 2.06 1.05
5 0 -3 3.06 1.15
-5 0 3 1.02 0.87
5 0 -2 136.48 6.81
5 0 -2 138.22 6.52
-5 0 2 142.96 7.2
5 0 -2 137.76 6.52
5 0 -2 130.64 6.2
5 0 -2 144.04 7.07
-5 0 2 125.45 7.02
-5 0 2 137.33 6.62
5 0 -1 456.32 14.34
-5 0 1 490.36 14.77
5 0 -1 447.94 13.99
5 0 -1 410.47 13.15
-5 0 1 413.2 13.75
-5 0 1 404.14 14.49
-5 0 0 23.57 2.5
-5 0 0 20.82 2.46
-5 0 0 21.45 2.54
-5 0 0 18.6 2.45
-5 0 -1 127.12 5.93
-5 0 -1 132.66 6.58
-5 0 -1 126.51 6.31
-5 0 -1 117.97 6.36
5 0 1 115.7 4.94
-5 0 -2 2.83 0.89
-5 0 -2 2.72 1.12
5 0 2 4.36 1.05
5 0 2 3.91 1.03
-5 0 -2 5.59 1.37
5 0 2 3.13 0.79
-5 0 -2 4.91 1.2
-5 0 -3 189.61 7.09
-5 0 -3 181.12 8.08
5 0 3 185.88 7.41
5 0 3 183.82 7.23
5 0 3 177.46 6.65
-5 0 -3 169.31 7.88
5 0 3 185.43 8.22
5 0 3 172.22 7.37
-5 0 -4 5.49 1.29
-5 0 -4 6.62 1.65
5 0 4 7.11 1.34
5 0 4 5.2 1.05
5 0 4 6.59 1.13
5 0 4 5.16 1.26
-5 0 -4 7.72 1.58
-5 0 -5 3.05 1
-5 0 -5 2.91 1.25
5 0 5 2.57 0.86
5 0 5 2.62 1.13
5 0 5 2 0.76
5 0 5 1.7 0.84
-5 0 -6 6.31 1.44
5 0 6 3.05 1.17
-5 0 -6 4.29 1.34
5 0 6 4.2 1.15
5 0 6 5.06 1.15
5 0 6 3.25 1.27
5 0 7 637.47 18.23
-5 0 -7 637.63 18.42
-5 0 -7 593.61 18.88
5 0 7 613.61 17.99
5 0 7 606.61 17.8
5 0 7 592.72 18.09
-5 0 -7 644.79 18.16
-5 0 -7 692.01 20.7
-5 0 -7 651.74 17.98
-5 0 -7 625.91 17.99
-5 0 -7 630.78 17.86
5 0 7 644.15 18.53
5 0 7 622.99 20.58
5 0 7 635.93 19.35
5 0 8 592.43 18.05
-5 0 -8 589.88 18.11
-5 0 -8 527.92 17.53
5 0 8 544.09 17.5
5 0 8 568.04 17.52
5 0 8 583.48 18.02
-5 0 -8 572.17 17.54
-5 0 -8 658.95 20.2
-5 0 -8 567.3 17.38
-5 0 -8 578.35 17.45
-5 0 -8 572.96 17.57
5 0 8 612.11 20.42
5 0 8 576.25 18.02
5 0 8 590.16 18.8
5 0 8 564.68 19.44
-5 0 -9 2.78 1.16
5 0 9 3.82 1.35
5 0 9 2.32 1.17
5 0 9 1.33 0.93
5 0 9 1.26 0.89
-5 0 -9 4.17 1.58
5 0 9 4.57 1.52
-5 0 -9 2.66 1.2
-5 0 -9 2.03 0.84
-5 0 -9 2.4 1.08
5 0 9 3.94 1.34
-5 0 -9 2.19 1.1
5 0 9 4.73 1.75
5 0 9 3.79 1.6
-5 0 -10 13.78 2.57
5 0 10 13.49 2.51
5 0 10 12.01 2.5
5 0 10 8.9 1.84
5 0 10 13.55 2.33
-5 0 -10 12.72 2.55
5 0 10 13 2.51
-5 0 -10 9.44 2
-5 0 -10 11.7 2.18
-5 0 -10 9.9 2.11
5 0 10 11.57 2.21
-5 0 -10 12.83 2.35
5 0 10 12.14 2.65
5 0 10 10.28 2.43
5 0 11 133.12 8.34
-5 0 -11 136.08 8.55
5 0 11 135.48 8.36
5 0 11 130.7 8.16
5 0 11 116.94 8.12
-5 0 -11 130.82 8.23
-5 0 -11 148.03 9.04
-5 0 -11 149.96 8.52
-5 0 -11 139.1 8.31
-5 0 -11 144.22 8.53
5 0 11 148.64 9.72
5 0 11 138.44 8.52
5 0 11 138.41 8.9
5 0 11 121.26 8.27
5 0 12 105.01 7.7
-5 0 -12 95.25 7.55
5 0 12 93.02 7.2
5 0 12 90.11 7
5 0 12 87.29 7.21
-5 0 -12 83.51 6.93
-5 0 -12 104.12 7.56
-5 0 -12 90.83 7.06
-5 0 -12 93.69 7.1
-5 0 -12 98.16 7.24
5 0 12 89.12 7.73
5 0 12 86.47 7.06
5 0 12 87.91 6.95
5 0 12 93.05 7.58
5 0 13 1.35 1.75
-5 0 -13 2.5 1.69
5 0 13 0.88 1.1
5 0 13 -1.02 1.42
5 0 13 1.58 1.74
5 0 13 -0.28 1.11
-5 0 -13 -1.5 1.33
5 0 13 0.61 1.2
-5 0 -13 -0.35 1.24
-5 0 -13 -1.7 1.12
-5 0 -13 -1.9 1.48
-5 0 -13 -1.26 1.84
5 0 13 -5.84 2.25
5 0 14 27.19 4.64
-5 0 -14 21.17 4.03
5 0 14 17.7 3.6
5 0 14 26.61 4.2
5 0 14 22.29 3.82
5 0 14 18.97 3.83
-5 0 -14 23.64 3.9
5 0 14 22.14 4.13
-5 0 -14 27.9 4.23
-5 0 -14 17.37 3.31
-5 0 -14 17.96 3.53
5 1 -10 5.24 1.98
-5 -1 10 8.29 2.47
5 1 -10 3.97 1.5
-5 -1 9 19.61 3.54
5 1 -9 11.9 2.54
5 1 -9 16.42 3.12
-5 -1 8 260.42 13.1
5 1 -8 246.83 11.53
5 1 -8 223.69 11.28
-5 -1 7 88.95 6.92
5 1 -7 81.07 5.99
5 1 -7 77.93 5.78
5 1 -7 81.5 5.54
5 1 -6 29.15 3.56
-5 -1 6 26.17 3.55
5 1 -6 21.4 3.05
5 1 -6 19.21 2.81
5 1 -6 18.85 2.45
-5 -1 5 344.32 13.56
5 1 -5 325.27 12.54
5 1 -5 311.79 11.95
5 1 -4 17.89 2.02
5 1 -4 22.76 2.79
-5 -1 4 24.33 3.08
5 1 -4 22.47 2.62
5 1 -4 19.05 2.63
-5 -1 4 22.79 2.98
5 1 -3 9.58 1.37
5 1 -3 10.72 1.87
-5 -1 3 6.1 1.56
5 1 -3 11.25 1.73
-5 -1 3 13.11 2.2
5 1 -3 9.6 1.67
5 1 -3 11.71 2.02
-5 -1 3 11.74 1.75
5 1 -2 174.75 6.55
5 1 -2 193.43 8.23
5 1 -2 172.54 7.33
-5 -1 2 212.67 9.01
5 1 -2 197.31 8.15
5 1 -2 205.12 8.62
5 1 -2 186.6 8.02
5 1 -2 209.29 8.86
-5 -1 2 185.83 7.69
-5 -1 2 191.92 8.83
5 1 -1 35.51 2.33
5 1 -1 43.29 3.48
5 1 -1 32.53 2.91
-5 -1 1 42.64 3.75
5 1 -1 38.5 3.5
-5 -1 1 34.32 3.01
5 1 -1 42.09 3.49
-5 -1 1 38.68 3.36
5 1 0 467.98 12.58
5 1 0 479.84 14.92
5 1 0 449.83 13.29
-5 -1 0 528.31 16.17
-5 -1 0 485.46 14.86
5 1 0 492.71 15.57
-5 -1 0 534.1 15.26
5 1 1 684.43 17.16
5 1 1 676.31 19.91
5 1 1 675.13 18.72
5 1 1 753.43 18.28
-5 -1 -1 696.52 20.53
-5 -1 -1 694.51 19.74
-5 -1 -1 714.66 19.44
-5 -1 -1 698.93 20.28
5 1 2 155.46 5.42
5 1 2 156.56 7.38
5 1 2 152.48 5.48
5 1 2 165.48 7.03
-5 -1 -2 154.94 7.51
5 1 2 152.38 6.95
5 1 2 168.35 6.57
-5 -1 -2 172.73 6.6
5 1 2 158.55 6.3
-5 -1 -2 177.83 7.88
-5 -1 -2 151.72 7.12
5 1 3 92.1 4.38
5 1 3 95.41 5.68
5 1 3 85.23 3.7
5 1 3 92.54 5.3
-5 -1 -3 94.49 5.58
5 1 3 91.48 5.22
5 1 3 88.42 4.86
-5 -1 -3 95.71 4.35
5 1 3 96.55 4.52
-5 -1 -3 84.64 5.47
5 1 4 301.93 9.54
5 1 4 323.98 11.82
5 1 4 297.39 9.8
-5 -1 -4 316.7 11.69
5 1 4 287.18 8.8
5 1 4 324.68 11.56
5 1 4 311.91 11.18
-5 -1 -4 301.44 11.39
5 1 4 290.77 10.82
5 1 5 245.56 9.95
5 1 5 233.5 9.61
5 1 5 256.68 8.07
-5 -1 -5 241.52 9.96
5 1 5 237.16 7.84
-5 -1 -5 266.7 10.61
5 1 5 233.66 7.85
5 1 5 247.27 10.26
5 1 5 234.24 8.65
5 1 5 255.21 10.54
5 1 6 8.97 1.88
5 1 6 12.08 2.07
-5 -1 -6 12.92 1.75
5 1 6 12.11 1.61
-5 -1 -6 12.41 2.07
5 1 6 12.79 1.65
-5 -1 -6 11.51 1.6
5 1 6 11.08 1.52
-5 -1 -6 12.97 2.28
5 1 6 9.48 1.53
-5 -1 -6 10.43 1.47
-5 -1 -6 11.6 1.6
-5 -1 -6 11.59 1.48
5 1 6 12.79 1.6
-5 -1 -6 12.65 1.64
5 1 6 13.71 2.3
5 1 6 13.03 2.31
5 1 7 265.23 11.21
5 1 7 227.67 9
-5 -1 -7 228.44 9.13
-5 -1 -7 217.15 9.7
5 1 7 231.48 9.23
5 1 7 238.1 9.08
-5 -1 -7 239.84 9.06
-5 -1 -7 258.8 10.88
-5 -1 -7 256.3 9.1
-5 -1 -7 235.38 9.15
-5 -1 -7 244.46 9.04
5 1 7 231.72 10.74
5 1 7 229.97 8.73
5 1 7 229.97 9.31
5 1 7 223.54 10.53
5 1 8 0.85 1.09
-5 -1 -8 0.04 0.68
5 1 8 0.42 0.57
-5 -1 -8 0.4 0.74
5 1 8 -0.04 0.58
5 1 8 0.79 0.71
-5 -1 -8 1.2 1.08
5 1 8 0.78 0.65
-5 -1 -8 0.2 0.81
-5 -1 -8 -0.13 0.65
-5 -1 -8 0.39 0.64
5 1 8 -0.39 0.84
-5 -1 -8 1.02 0.69
5 1 8 2.5 1.29
5 1 8 1.77 1.38
5 1 9 101.28 7.34
5 1 9 119.8 6.88
-5 -1 -9 124.2 7.09
-5 -1 -9 112.98 6.75
5 1 9 108.79 6.53
5 1 9 108.25 6.42
-5 -1 -9 118.83 6.7
-5 -1 -9 115.94 7.44
-5 -1 -9 108.84 6.33
-5 -1 -9 109.01 6.47
-5 -1 -9 117.31 6.59
5 1 9 116.99 7.83
5 1 9 111.22 6.34
5 1 9 106.88 6.64
5 1 9 112.37 7.36
5 1 10 57.65 5.85
5 1 10 53.01 4.99
-5 -1 -10 55.9 5.34
5 1 10 53.88 4.7
5 1 10 52.08 4.53
-5 -1 -10 51.5 4.99
-5 -1 -10 58.02 5.17
-5 -1 -10 50.27 4.66
-5 -1 -10 55.54 4.72
-5 -1 -10 54.5 4.75
5 1 10 50.01 5.23
5 1 10 57.22 5.02
5 1 10 55.27 5.21
5 1 11 231.26 12.62
5 1 11 236.46 11.74
-5 -1 -11 226.74 11.75
5 1 11 215.88 10.85
5 1 11 224.29 10.94
-5 -1 -11 223.54 10.96
-5 -1 -11 258.23 11.89
-5 -1 -11 214.2 10.71
-5 -1 -11 228.04 10.95
-5 -1 -11 223.25 10.78
5 1 11 214.38 12.08
5 1 11 227.16 11.36
5 1 11 215.8 11.23
5 1 12 156.13 10.61
5 1 12 163.52 9.84
-5 -1 -12 158.61 9.94
5 1 12 158.55 9.78
5 1 12 150.52 9.55
-5 -1 -12 163.91 9.85
-5 -1 -12 169.14 9.73
-5 -1 -12 162.26 9.69
-5 -1 -12 181.08 10.14
-5 -1 -12 175.51 9.92
5 1 12 163.15 10.58
5 1 12 166.31 10.01
5 1 13 56.65 6.38
5 1 13 57.58 6.04
-5 -1 -13 63.85 6.44
5 1 13 60.55 6.05
5 1 13 57.62 5.81
-5 -1 -13 65.81 6.15
-5 -1 -13 66.65 6.02
-5 -1 -13 56.39 5.63
-5 -1 -13 59.75 5.86
-5 -1 -13 55.04 5.58
5 1 13 46.21 5.73
5 1 13 62.04 6.32
5 1 14 24 4.52
-5 -1 -14 20.78 4.17
5 1 14 23.28 4.13
5 1 14 25.28 4.04
5 1 14 24.68 4.04
5 1 14 22.59 4.06
-5 -1 -14 30.17 4.4
5 1 14 22.83 4.19
-5 -1 -14 24.75 4.06
-5 -1 -14 21.09 3.84
-5 -1 -14 27.31 4.17
5 2 -10 35.09 4.31
-5 -2 9 19.68 3.58
5 2 -9 15.53 2.7
5 2 -9 12.11 2.54
5 2 -9 15.09 2.97
-5 -2 8 17.54 3.34
5 2 -8 13.73 2.66
5 2 -8 16.78 2.74
5 2 -8 13.82 2.54
-5 -2 7 51.74 5.41
5 2 -7 55.24 4.9
5 2 -7 40.39 4.3
5 2 -7 44.03 4.14
-5 -2 6 185.94 9.97
5 2 -6 156.46 7.85
5 2 -6 163.91 8.66
5 2 -6 172.9 9.05
-5 -2 5 91.05 6.51
5 2 -5 69.55 4.7
5 2 -5 78.11 5.55
5 2 -5 78.59 5.7
-5 -2 4 15.16 2.51
5 2 -4 17.43 2.5
5 2 -4 14.69 1.91
-5 -2 4 20.42 2.9
5 2 -4 15.71 2.28
5 2 -4 16.02 2.64
5 2 -3 349.99 12.57
-5 -2 3 358.37 13.2
5 2 -3 316.45 10.74
5 2 -3 319.71 11.88
5 2 -3 344.02 12.78
-5 -2 3 307.71 12.4
-5 -2 2 191.56 7.62
-5 -2 2 224.85 9.42
5 2 -2 203.35 8.52
5 2 -2 185.97 7.34
5 2 -2 187.35 7.28
5 2 -2 218.77 8.85
5 2 -2 196.42 8.63
5 2 -2 227.47 9.47
-5 -2 2 195.75 9.07
-5 -2 1 391.86 12.86
-5 -2 1 343.34 11.4
5 2 -1 348.79 12.48
5 2 -1 347.28 10.65
5 2 -1 378.09 12.69
5 2 -1 334.62 11.35
5 2 -1 376.23 13.11
-5 -2 1 341.47 12.81
5 2 0 15.7 2.27
-5 -2 0 19.31 2.31
-5 -2 0 15.74 1.91
5 2 0 20.32 1.79
5 2 0 17.29 2.08
5 2 0 15.95 2.18
5 2 0 16.76 1.66
-5 -2 0 13.97 2.17
5 2 1 4 1.27
-5 -2 -1 5.66 1.27
-5 -2 -1 7.06 1.52
5 2 1 5.82 0.99
5 2 1 7.59 1.28
5 2 1 5.53 1.25
5 2 1 5.31 1.02
-5 -2 -1 5.98 1.31
-5 -2 -1 5.4 1.37
5 2 2 894.62 24.56
-5 -2 -2 912 22.04
5 2 2 822.87 20.75
-5 -2 -2 899.15 23.79
5 2 2 839.32 23.26
5 2 2 830.69 21.17
5 2 2 769.81 22.07
5 2 2 831.5 22.2
5 2 2 812.98 21.79
-5 -2 -2 822.22 23.7
-5 -2 -3 1.91 1.03
-5 -2 -3 1.88 0.66
5 2 3 0.7 0.46
5 2 3 1.42 0.48
-5 -2 -3 1.42 0.79
5 2 3 1.64 0.8
5 2 3 2.68 1.08
5 2 3 2.62 0.86
5 2 3 1.84 0.7
-5 -2 -3 1.34 1.05
5 2 4 237.57 7.61
-5 -2 -4 230.84 9.77
5 2 4 233.31 7.6
5 2 4 236.2 9.87
-5 -2 -4 228.33 7.29
-5 -2 -4 255.56 10.18
5 2 4 228.31 9.4
5 2 4 223.82 8.92
5 2 4 237.97 9.42
5 2 5 71.36 4.74
5 2 5 83.24 5.22
5 2 5 86.28 4.19
-5 -2 -5 83.35 4.25
-5 -2 -5 68.16 5.02
5 2 5 79.66 4.07
-5 -2 -5 86.73 4.02
-5 -2 -5 85.36 4.1
-5 -2 -5 82.37 5.42
-5 -2 -5 89.27 4.13
-5 -2 -5 84.3 4
5 2 5 76.51 5.27
5 2 5 80.43 4.04
5 2 5 84.32 5.54
5 2 6 864.3 23.27
5 2 6 803.52 20.81
-5 -2 -6 776.83 20.77
-5 -2 -6 653.06 21.9
5 2 6 778.04 20.62
5 2 6 711.71 20.82
-5 -2 -6 790.26 20.57
-5 -2 -6 729.14 20.61
-5 -2 -6 766.11 22.73
-5 -2 -6 796.95 20.51
-5 -2 -6 817.38 20.62
-5 -2 -6 726.92 20.69
5 2 6 781.41 23.05
5 2 6 722 20.1
5 2 6 818.35 23.38
5 2 7 160.57 8.2
5 2 7 140.02 7.02
-5 -2 -7 145.21 7.07
-5 -2 -7 133.95 7.41
5 2 7 144.63 6.69
5 2 7 132.5 6.65
-5 -2 -7 146.33 6.58
-5 -2 -7 137.75 6.7
-5 -2 -7 150.49 7.88
-5 -2 -7 143.1 6.52
-5 -2 -7 146.67 6.85
-5 -2 -7 154.75 6.77
5 2 7 142.76 8.08
5 2 7 142.62 6.51
5 2 7 144.29 7.93
5 2 8 38.84 4.13
5 2 8 38.95 3.59
-5 -2 -8 34.34 3.5
-5 -2 -8 38.57 3.88
5 2 8 39.44 3.76
5 2 8 41.43 3.83
-5 -2 -8 46.45 3.79
-5 -2 -8 38.52 3.55
-5 -2 -8 41.94 4.08
-5 -2 -8 49.67 3.86
-5 -2 -8 43.7 3.78
-5 -2 -8 35.91 3.45
5 2 8 33.18 3.94
5 2 8 39.6 3.46
5 2 8 39.69 4.09
5 2 9 1.88 1.03
-5 -2 -9 3.07 1.25
5 2 9 2.6 1.07
-5 -2 -9 1.28 0.82
5 2 9 2.17 1.06
5 2 9 1.16 1.12
-5 -2 -9 2.44 1.3
5 2 9 1.58 0.91
-5 -2 -9 5.64 1.44
-5 -2 -9 3.88 1.35
-5 -2 -9 2.53 1.1
-5 -2 -9 2.47 1.06
5 2 9 4.31 1.69
5 2 9 0.99 1.14
5 2 10 52.06 5.38
5 2 10 57.61 5.19
-5 -2 -10 53.25 4.96
-5 -2 -10 46.17 4.6
5 2 10 51.11 4.78
5 2 10 47.4 4.43
-5 -2 -10 52.39 4.68
-5 -2 -10 59.18 5.23
-5 -2 -10 52.85 4.56
-5 -2 -10 57.7 5.01
-5 -2 -10 57.04 4.73
5 2 10 59.18 5.7
5 2 10 50.43 4.44
5 2 10 54.45 5.13
5 2 11 31.66 4.39
5 2 11 39.16 4.61
-5 -2 -11 39.75 4.63
-5 -2 -11 28.82 3.7
5 2 11 35.66 4.09
5 2 11 34.12 3.99
-5 -2 -11 34.81 4
-5 -2 -11 39.95 4.36
-5 -2 -11 33.3 3.92
-5 -2 -11 39.53 4.27
-5 -2 -11 36.28 3.97
5 2 11 33.38 4.45
5 2 11 29.5 3.6
5 2 12 7.36 2.29
-5 -2 -12 4.89 1.93
5 2 12 5.2 1.97
5 2 12 4.67 1.76
5 2 12 3.7 1.68
-5 -2 -12 6.83 1.91
5 2 12 3.4 1.53
-5 -2 -12 4.5 1.7
-5 -2 -12 3.62 1.74
-5 -2 -12 3.86 1.84
-5 -2 -12 7.67 2.25
5 2 12 2.76 1.29
5 2 13 167.27 10.96
5 2 13 161.25 10.32
-5 -2 -13 156.9 10.38
5 2 13 153.55 9.96
5 2 13 155.32 9.82
-5 -2 -13 146.61 9.65
-5 -2 -13 162.72 9.67
-5 -2 -13 150.63 9.52
-5 -2 -13 157.47 9.89
-5 -2 -13 154.97 9.69
5 2 13 149.22 10.48
5 2 13 149.45 9.7
5 2 14 116.82 9.35
-5 -2 -14 135.49 10.07
-5 -2 -14 125.55 9.13
5 2 14 136.77 9.67
5 2 14 127.35 9.26
-5 -2 -14 132.62 9.27
-5 -2 -14 131.24 9.35
-5 -2 -14 133.16 9.36
5 2 14 115.2 9.36
5 2 14 125.83 9.98
5 2 15 98.97 8.65
5 2 15 106.91 8.85
-5 -2 -15 103.25 8.49
-5 -2 -15 94.21 8.14
-5 -2 -15 100.81 8.52
-5 -2 -15 96.97 8.42
5 2 15 90.96 8.46
5 2 15 99.95 8.99
-5 -2 -15 88.07 8.59
-5 -3 9 -1.28 1.86
5 3 -9 1.03 1.37
5 3 -9 0.83 1.16
5 3 -9 0.68 1.29
5 3 -8 5.22 1.69
-5 -3 8 6.83 2.27
5 3 -8 5.66 1.75
5 3 -8 3.08 1.38
5 3 -7 18.78 2.88
-5 -3 7 26.61 3.91
5 3 -7 18.8 3.05
5 3 -7 22.07 3.11
-5 -3 6 8.38 2.15
5 3 -6 9.68 1.96
5 3 -6 8.41 2.06
5 3 -6 10.38 2.25
-5 -3 5 42.06 4.46
5 3 -5 30.6 3.09
5 3 -5 28.3 3.4
5 3 -5 39.11 3.95
5 3 -4 240 10.21
5 3 -4 202.28 8.74
-5 -3 4 234.4 10.78
5 3 -4 209.99 9.66
5 3 -4 228.6 10.42
-5 -3 4 201.87 9.76
-5 -3 3 6.42 1.68
5 3 -3 5.33 1.43
-5 -3 3 3.65 1.37
5 3 -3 4.74 1.23
5 3 -3 5.34 1.43
5 3 -3 6 1.76
-5 -3 2 408.82 14.27
-5 -3 2 403.24 13.53
5 3 -2 380.16 12.29
5 3 -2 377.23 13.59
-5 -3 2 364.04 13.79
5 3 -2 440.22 14.59
-5 -3 1 181.99 8.2
5 3 -1 162.85 7.83
-5 -3 1 179.8 8.08
5 3 -1 163.86 6.79
5 3 -1 159.29 6.77
5 3 -1 173.84 8.04
5 3 -1 191.75 8.59
-5 -3 1 164.48 8.07
-5 -3 0 15.56 2.22
5 3 0 17.74 2.42
-5 -3 0 15.24 2.3
5 3 0 16.1 1.82
5 3 0 16.78 2.05
5 3 0 20.91 2.6
5 3 0 17.41 1.68
-5 -3 0 14.99 2.2
-5 -3 -1 2007.87 47.22
5 3 1 1846.72 45.95
5 3 1 1936.03 44.74
5 3 1 2053.8 47.55
5 3 1 1824.73 44.67
5 3 1 1792.39 44.36
-5 -3 -1 1857.09 47.16
5 3 1 1921.42 44.59
5 3 1 2109.74 47.86
-5 -3 -1 1977.88 45.86
-5 -3 -2 678.97 19.12
5 3 2 590.86 18.11
5 3 2 624.11 16.99
5 3 2 578.97 18.75
-5 -3 -2 650.3 17.28
5 3 2 594.48 15.28
5 3 2 607.96 17.43
5 3 2 608.68 16.77
5 3 2 643.08 17.51
-5 -3 -2 591.21 18.8
5 3 3 53.73 3.47
5 3 3 52.78 3.72
-5 -3 -3 50.1 4.14
-5 -3 -3 46.87 2.61
-5 -3 -3 51.83 2.69
-5 -3 -3 50.81 2.65
5 3 3 62.88 4.73
-5 -3 -3 53.42 3.16
-5 -3 -3 48.96 2.65
5 3 3 47.74 3.7
-5 -3 -3 55.2 4.18
5 3 3 47.23 3.85
5 3 4 60.76 3.9
5 3 4 57.95 4.23
5 3 4 66.25 3.61
-5 -3 -4 63.19 3.54
-5 -3 -4 62.33 4.76
-5 -3 -4 66.67 3.49
-5 -3 -4 64.87 3.38
-5 -3 -4 69.71 3.44
5 3 4 60.45 4.63
-5 -3 -4 60.36 3.14
-5 -3 -4 72.52 5.04
-5 -3 -4 64.23 3.4
-5 -3 -4 66.65 3.38
5 3 4 59.23 4.33
-5 -3 -4 66.56 4.65
5 3 4 61.37 4.56
5 3 5 386.88 13.04
5 3 5 374.49 11.42
-5 -3 -5 354.54 11.35
-5 -3 -5 326.08 12.96
-5 -3 -5 352.25 11.07
-5 -3 -5 370.53 11.05
-5 -3 -5 354.88 10.98
-5 -3 -5 364.57 13.26
-5 -3 -5 361.16 10.99
-5 -3 -5 366.85 10.97
5 3 5 363.57 13.14
-5 -3 -5 341.34 12.55
5 3 5 326.96 12.85
5 3 6 27.51 3.14
5 3 6 27.61 2.62
-5 -3 -6 27.79 2.68
-5 -3 -6 21.29 2.85
5 3 6 28.66 2.64
-5 -3 -6 26.63 2.46
-5 -3 -6 28.37 2.57
-5 -3 -6 27.58 3.25
-5 -3 -6 28.65 2.56
-5 -3 -6 27.07 2.48
5 3 6 27.27 3.13
-5 -3 -6 23.6 2.84
5 3 6 26.4 3.23
5 3 7 67.29 5.15
5 3 7 64 4.53
-5 -3 -7 62.15 4.47
-5 -3 -7 53.18 4.64
5 3 7 62.63 4.29
5 3 7 60.48 4.35
-5 -3 -7 64.8 4.29
-5 -3 -7 63.22 4.41
-5 -3 -7 70.93 5.25
-5 -3 -7 66.71 4.27
-5 -3 -7 62.06 4.19
-5 -3 -7 59.97 4.35
5 3 7 74.96 5.58
-5 -3 -7 57.67 4.41
5 3 7 54.48 4.82
5 3 8 52.88 4.71
5 3 8 50.88 4.33
-5 -3 -8 53.16 4.36
-5 -3 -8 41.47 4.18
5 3 8 48.9 4.02
5 3 8 43.79 4.12
-5 -3 -8 47.26 3.89
-5 -3 -8 50.34 4.21
-5 -3 -8 48.47 4.44
-5 -3 -8 49.47 4.21
-5 -3 -8 51.95 4.08
-5 -3 -8 50.28 4.01
5 3 8 55.85 5.02
5 3 8 46.35 4.57
5 3 9 42.74 4.22
-5 -3 -9 48.62 4.57
-5 -3 -9 37.45 4.17
5 3 9 45.87 4.21
5 3 9 45.48 4.29
-5 -3 -9 49.98 4.22
-5 -3 -9 49.52 4.32
-5 -3 -9 50.21 4.59
-5 -3 -9 45.33 4.17
-5 -3 -9 52.57 4.46
-5 -3 -9 46.23 4.15
5 3 9 51.18 5
5 3 9 48.44 4.94
5 3 10 7.33 2.15
-5 -3 -10 6.07 1.72
5 3 10 7.73 1.89
-5 -3 -10 4.88 1.79
5 3 10 3.62 1.52
-5 -3 -10 6.95 1.87
5 3 10 7.37 1.93
-5 -3 -10 9.3 2.05
-5 -3 -10 6.04 1.7
-5 -3 -10 9.65 2.12
-5 -3 -10 8.38 1.9
-5 -3 -10 7.63 1.8
5 3 10 5.66 1.82
5 3 11 47.84 4.9
-5 -3 -11 52.63 5.21
-5 -3 -11 34.37 4.28
5 3 11 56.81 5.42
5 3 11 53.87 5.2
-5 -3 -11 50.93 5.02
-5 -3 -11 39.05 4.5
-5 -3 -11 56.25 5.1
-5 -3 -11 36.78 4.38
-5 -3 -11 50.71 4.98
-5 -3 -11 42.91 4.63
5 3 11 50.29 5.43
5 3 11 49.3 5.34
5 3 12 52.68 5.45
-5 -3 -12 50.65 5.47
-5 -3 -12 55.08 5.47
5 3 12 65.93 6.04
5 3 12 69.54 6.09
-5 -3 -12 58.8 5.67
-5 -3 -12 61.43 5.91
-5 -3 -12 58.87 5.4
-5 -3 -12 56.55 5.5
-5 -3 -12 60.49 5.75
-5 -3 -12 57.5 5.52
5 3 12 53.28 5.89
5 3 12 52.13 5.87
5 3 13 150.8 9.86
-5 -3 -13 166.97 10.53
5 3 13 154.86 10.27
5 3 13 155.34 10.03
-5 -3 -13 145.76 9.65
-5 -3 -13 125.47 9.43
-5 -3 -13 156.64 9.2
-5 -3 -13 148.9 9.76
-5 -3 -13 161.4 10.19
-5 -3 -13 149.49 9.65
5 3 13 133.17 9.93
5 3 13 162.43 10.88
5 3 14 291.6 14.79
5 3 14 280.11 14.39
-5 -3 -14 290.14 14.34
-5 -3 -14 289.46 14.67
5 3 14 252.47 14.4
-5 -3 -14 268.21 14.85
-5 -3 -14 275.33 13.96
-5 -3 -14 285.48 14.43
-5 -3 -14 297.27 14.46
5 3 14 244.32 14.29
5 3 14 274.41 15.23
5 3 15 -0.21 1.55
-5 -3 -15 -0.84 1.12
5 3 15 -0.19 1.47
-5 -3 -15 0.53 1.3
-5 -3 -15 3.37 2.1
-5 -3 -15 -0.81 1.06
-5 -3 -15 2.49 1.82
5 3 15 1.19 1.34
5 3 15 -1.84 1.83
-5 -3 -15 0.75 1.61
5 3 15 1.31 1.61
5 4 -9 2.08 1.52
-5 -4 8 74.03 6.91
5 4 -8 61.81 5.36
5 4 -8 64.69 5.72
5 4 -8 62.22 5.99
5 4 -7 6.08 1.93
-5 -4 7 8.4 2.46
5 4 -7 6.38 2.01
5 4 -7 8.02 1.97
-5 -4 6 13.5 2.79
5 4 -6 15.38 2.67
5 4 -6 12.17 2.45
5 4 -6 12.41 2.39
-5 -4 5 112.39 7.71
5 4 -5 105.25 6.88
5 4 -5 111.9 7.06
5 4 -5 103.09 6.29
5 4 -4 25.22 2.92
-5 -4 4 31.8 3.84
5 4 -4 27.43 3.22
5 4 -4 25.74 3.24
-5 -4 4 28.6 3.37
-5 -4 3 825.14 24.16
5 4 -3 853.85 23.95
5 4 -3 879.51 25.07
-5 -4 3 917.12 26.46
5 4 -3 851.03 25.18
5 4 -3 962.84 26.23
-5 -4 3 826.28 25.07
5 4 -2 198.1 7.96
-5 -4 2 215.3 9.21
5 4 -2 198.84 8.35
5 4 -2 189.27 8.98
-5 -4 2 231.05 10.09
5 4 -2 203.41 7.74
5 4 -2 210.14 9.43
5 4 -2 200.76 7.62
-5 -4 2 211.6 9.44
5 4 -2 231.63 9.98
5 4 -1 424.4 14.33
-5 -4 1 373.79 13.71
5 4 -1 376.1 11.82
-5 -4 1 377.41 11.6
-5 -4 1 379.56 11.32
-5 -4 1 368.4 11.21
-5 -4 1 367.07 11.19
-5 -4 1 372.69 11.3
-5 -4 1 363.3 11.22
-5 -4 1 426.59 14.26
5 4 -1 374.59 11.51
5 4 -1 377.65 11.4
-5 -4 1 429.12 14.07
5 4 -1 384.01 12.49
5 4 -1 408.65 14
-5 -4 0 350.01 13.08
5 4 0 335.67 12.92
5 4 0 383.85 11.28
5 4 0 353.02 11.09
-5 -4 0 359.96 10.89
-5 -4 0 364.33 10.71
-5 -4 0 362.39 10.59
-5 -4 0 360.09 10.54
-5 -4 0 350.09 10.54
-5 -4 0 366.99 10.69
-5 -4 0 377.97 12.88
5 4 0 352.7 13.11
5 4 0 349.6 10.79
5 4 0 355.49 10.66
-5 -4 0 400.99 13.52
5 4 0 363.63 11.92
5 4 0 385.97 13.45
5 4 1 244.88 8.45
-5 -4 -1 205.05 9.34
-5 -4 -1 218.28 7.23
-5 -4 -1 211.48 7.14
-5 -4 -1 214.79 7.21
-5 -4 -1 220.88 7.24
-5 -4 -1 211.81 8.7
5 4 1 246.41 10.1
5 4 1 215.51 7.97
5 4 1 219.49 7.38
-5 -4 -1 234.44 9.77
5 4 1 211.34 8.27
5 4 1 228.41 9.69
5 4 2 77.35 3.81
-5 -4 -2 79.24 5.37
5 4 2 77.24 4.58
-5 -4 -2 78.94 3.75
-5 -4 -2 82.67 3.82
-5 -4 -2 83.45 3.83
-5 -4 -2 78.93 3.78
-5 -4 -2 77.29 4.49
5 4 2 92.34 5.76
-5 -4 -2 80.82 3.8
5 4 2 74.73 4.47
5 4 2 80.48 3.96
-5 -4 -2 89.08 5.58
5 4 2 77.19 5.25
5 4 2 82.19 4.69
5 4 3 0.24 0.62
-5 -4 -3 -0.14 0.61
-5 -4 -3 0.17 0.37
-5 -4 -3 0.19 0.38
-5 -4 -3 0.14 0.44
-5 -4 -3 0.43 0.49
5 4 3 -0.03 0.63
-5 -4 -3 0.93 0.66
-5 -4 -3 0.25 0.38
5 4 3 0.21 0.39
5 4 3 2.51 0.94
-5 -4 -3 0.35 0.68
5 4 4 212.48 8.97
-5 -4 -4 212 9.64
-5 -4 -4 204.16 7.52
-5 -4 -4 215.55 7.57
-5 -4 -4 221.99 7.64
5 4 4 206.49 9.46
-5 -4 -4 197.13 7.09
-5 -4 -4 211.33 7.54
5 4 4 203.25 8.95
-5 -4 -4 226.39 9.51
5 4 5 363.92 13.35
5 4 5 380.4 12.47
-5 -4 -5 395.26 12.64
-5 -4 -5 358.67 13.99
-5 -4 -5 403.55 12.4
-5 -4 -5 390.56 12.16
-5 -4 -5 419.7 12.32
5 4 5 363.5 13.92
-5 -4 -5 382.9 12.15
-5 -4 -5 401.52 12.19
5 4 5 409.58 14.12
-5 -4 -5 390.57 13.84
5 4 6 122.85 6.77
5 4 6 106.66 5.75
-5 -4 -6 109.09 5.84
-5 -4 -6 92.74 6.3
5 4 6 99.02 5.74
-5 -4 -6 108.71 5.56
-5 -4 -6 105.93 5.61
5 4 6 106.78 6.68
-5 -4 -6 104.9 5.59
-5 -4 -6 109.33 5.59
5 4 6 120.66 6.88
-5 -4 -6 105.12 6.21
5 4 7 93.54 6.31
5 4 7 89.47 5.49
-5 -4 -7 86.41 5.53
-5 -4 -7 69.86 5.6
5 4 7 92.06 5.59
-5 -4 -7 90.27 5.27
-5 -4 -7 89.46 5.41
5 4 7 87.17 6.17
-5 -4 -7 88.44 5.98
-5 -4 -7 85.75 5.23
-5 -4 -7 90.38 5.26
5 4 7 91.54 6.18
-5 -4 -7 76.95 5.34
5 4 8 4.37 1.53
5 4 8 6.34 1.57
-5 -4 -8 4.76 1.36
-5 -4 -8 1.6 0.98
5 4 8 4.24 1.35
-5 -4 -8 5.96 1.53
5 4 8 3.25 1.22
5 4 8 3.54 1.33
-5 -4 -8 5.56 1.68
-5 -4 -8 4.85 1.34
-5 -4 -8 5.93 1.43
-5 -4 -8 4.45 1.31
-5 -4 -8 7.21 1.73
-5 -4 -8 6.66 1.75
5 4 8 6.99 1.87
5 4 9 5.7 1.79
5 4 9 6.02 1.63
-5 -4 -9 8.16 1.79
-5 -4 -9 2.45 1.09
5 4 9 3.93 1.3
-5 -4 -9 6.15 1.6
5 4 9 5.26 1.54
5 4 9 5.68 1.69
-5 -4 -9 3.08 1.26
-5 -4 -9 6.51 1.53
-5 -4 -9 6.47 1.6
-5 -4 -9 5.53 1.56
-5 -4 -9 4.62 1.55
-5 -4 -9 2.23 0.93
5 4 9 8.01 2.18
5 4 10 81.89 6.22
-5 -4 -10 76.14 6.09
-5 -4 -10 72.11 6.15
5 4 10 81.63 5.92
5 4 10 85.8 6.17
-5 -4 -10 73.58 5.57
-5 -4 -10 73.73 5.75
5 4 10 75.03 5.98
-5 -4 -10 80.48 6.06
-5 -4 -10 77.79 5.9
-5 -4 -10 75.3 5.64
-5 -4 -10 87.33 6.03
5 4 10 78.32 6.51
5 4 10 72.27 6.33
5 4 11 2.25 1.51
5 4 11 1.67 1.14
-5 -4 -11 0.57 1.01
-5 -4 -11 0.6 1.17
5 4 11 2.31 1.28
-5 -4 -11 -0.77 0.91
5 4 11 2.05 1.25
5 4 11 3.52 1.51
-5 -4 -11 3.01 1.26
-5 -4 -11 1.45 1.14
-5 -4 -11 0.68 0.86
-5 -4 -11 1.29 1
-5 -4 -11 -0.66 0.95
5 4 11 1.83 1.5
5 4 12 94.37 7.36
-5 -4 -12 89.65 7.29
-5 -4 -12 75.75 6.87
5 4 12 90.83 7.02
5 4 12 99.56 7.41
-5 -4 -12 95.34 7.07
-5 -4 -12 87.22 6.96
5 4 12 87.19 6.67
-5 -4 -12 89.95 6.69
-5 -4 -12 95.57 7.03
-5 -4 -12 86.67 6.91
-5 -4 -12 94.51 7.06
5 4 12 71.83 6.97
5 4 12 91.63 7.72
5 4 13 375.98 16.69
-5 -4 -13 364.82 16.83
-5 -4 -13 299.7 15.29
5 4 13 351.64 16.03
5 4 13 362.88 16.39
-5 -4 -13 361.08 15.98
-5 -4 -13 352.01 16.09
-5 -4 -13 358.68 14.94
-5 -4 -13 344.33 15.87
-5 -4 -13 349.04 16
-5 -4 -13 359.9 15.99
5 4 13 352.95 16.9
5 4 13 369.42 17.05
-5 -4 -14 12.86 3.22
5 4 14 17.67 3.79
-5 -4 -14 18.11 3.47
5 4 14 15.31 3.48
5 4 14 16.92 3.39
-5 -4 -14 17.76 3.39
-5 -4 -14 17 3.42
-5 -4 -14 17.95 3.4
5 4 14 17.41 3.72
-5 -4 -14 12.73 2.88
5 4 14 9.23 2.93
5 4 15 161 11.46
-5 -4 -15 166.12 11.5
5 4 15 146.07 11.04
5 4 15 140.78 11.12
-5 -4 -15 147.8 10.7
-5 -4 -15 141.82 10.72
-5 -4 -15 144.47 10.48
-5 -4 -15 140.68 10.71
-5 -4 -15 149.58 10.74
5 4 15 148.46 11.03
5 4 15 143.16 11
5 5 -8 7.7 2.51
5 5 -8 7 2.17
-5 -5 8 6.17 2.4
5 5 -7 12.37 2.62
5 5 -7 10.21 2.41
-5 -5 7 14.77 3.26
5 5 -6 5.72 1.74
5 5 -6 6.13 1.92
5 5 -6 6.91 1.75
-5 -5 6 6.46 2.06
5 5 -5 17.29 2.9
-5 -5 5 19.25 3.23
5 5 -5 18.97 3.04
5 5 -5 17.5 2.64
5 5 -4 138.98 7.52
5 5 -4 138.78 7.61
5 5 -4 148.86 8
-5 -5 4 162.28 9.23
5 5 -4 131.04 7.25
5 5 -4 144.46 7.31
5 5 -4 140.47 8.09
5 5 -4 135.87 7.05
-5 -5 4 147.77 7.94
5 5 -3 67.48 5.4
-5 -5 3 62.52 4.9
5 5 -3 66.99 4.7
-5 -5 3 67 4.58
-5 -5 3 63.8 4.28
-5 -5 3 66.06 4.3
-5 -5 3 63.64 4.28
5 5 -3 67.1 5.07
-5 -5 3 62.82 4.29
-5 -5 3 71.98 5.8
5 5 -3 67.42 4.48
5 5 -3 66.26 5.14
5 5 -3 64.42 4.37
-5 -5 3 64.57 4.77
5 5 -3 65.84 4.75
-5 -5 2 424.68 15.08
5 5 -2 407.86 13.88
-5 -5 2 418.35 13.74
-5 -5 2 411.85 13.29
-5 -5 2 418.75 13.3
-5 -5 2 427.08 13.36
5 5 -2 431.13 14.91
-5 -5 2 423.38 13.4
-5 -5 2 447.06 15.97
5 5 -2 419.3 13.55
5 5 -2 434.9 15.34
5 5 -2 425.48 13.48
-5 -5 2 444.14 15.1
5 5 -2 425.95 14.33
5 5 -1 1130.01 30.68
-5 -5 1 1063.64 30.06
5 5 -1 1060.96 28.33
-5 -5 1 1115.73 28.19
-5 -5 1 1085.46 27.66
-5 -5 1 1106.59 27.77
-5 -5 1 1116.25 27.77
-5 -5 1 1092.52 27.74
-5 -5 1 1101.66 27.85
-5 -5 1 1193.7 30.98
5 5 -1 1056.65 27.89
5 5 -1 1083.46 27.8
-5 -5 1 1193.83 30.68
5 5 -1 1064.44 28.84
-5 -5 0 24.65 2.96
5 5 0 29.73 3.23
5 5 0 23.36 2.26
5 5 0 26.68 2.59
-5 -5 0 25.05 2.43
-5 -5 0 28.11 2.43
-5 -5 0 26.6 2.37
-5 -5 0 23.43 2.21
-5 -5 0 28.15 2.41
-5 -5 0 29.25 2.46
-5 -5 0 28.23 3.12
5 5 0 27.12 2.48
5 5 0 27.43 2.43
-5 -5 0 29.89 3.32
5 5 0 28.21 2.78
5 5 0 25.78 3.05
-5 -5 -1 168.47 8.45
5 5 1 175.09 7.39
-5 -5 -1 174.74 6.77
-5 -5 -1 173.49 6.71
-5 -5 -1 180.71 6.84
-5 -5 -1 180.98 6.91
-5 -5 -1 172.75 7.99
5 5 1 161.52 8.4
5 5 1 185.11 7.39
5 5 1 175.85 6.94
-5 -5 -1 189.65 8.82
5 5 1 176.83 8.53
5 5 1 171.81 7.69
5 5 2 224.32 8.66
-5 -5 -2 199.52 9.41
-5 -5 -2 197.42 7.42
-5 -5 -2 202.48 7.51
-5 -5 -2 209.79 7.6
-5 -5 -2 202.77 7.53
-5 -5 -2 207.88 8.47
5 5 2 218.7 9.72
-5 -5 -2 204.48 7.55
5 5 2 199.8 8.23
5 5 2 200.22 7.73
-5 -5 -2 225.07 9.73
5 5 2 209.92 9.39
5 5 2 209.94 8.68
5 5 3 298.2 10.73
-5 -5 -3 253.26 11.15
-5 -5 -3 273.21 9.27
-5 -5 -3 273.39 9.29
-5 -5 -3 273.07 9.29
-5 -5 -3 272.45 9.36
-5 -5 -3 272.63 9.68
5 5 3 282.53 11.57
-5 -5 -3 294.04 9.52
5 5 3 267.09 10.36
5 5 3 253.09 9.39
-5 -5 -3 295.52 11.59
5 5 3 287.04 11.42
5 5 4 9.54 1.82
-5 -5 -4 7.72 1.79
-5 -5 -4 10.53 1.51
-5 -5 -4 8.65 1.39
-5 -5 -4 11.89 1.62
5 5 4 8.28 1.87
-5 -5 -4 7.37 1.28
-5 -5 -4 11.05 1.55
5 5 4 9.76 1.86
-5 -5 -4 9.98 2.02
5 5 5 213.98 9.45
5 5 5 208.89 8.79
-5 -5 -5 215.55 8.83
-5 -5 -5 201.31 9.86
-5 -5 -5 200.87 8.25
-5 -5 -5 214.46 8.42
-5 -5 -5 211.52 8.34
5 5 5 208.78 9.75
-5 -5 -5 210.4 8.43
-5 -5 -5 211.3 8.31
5 5 5 222.73 9.74
-5 -5 -5 219.08 9.73
5 5 6 4.7 1.43
5 5 6 5.89 1.33
-5 -5 -6 5.15 1.4
-5 -5 -6 3.95 1.43
-5 -5 -6 5.13 1.26
-5 -5 -6 5.08 1.23
5 5 6 5.3 1.41
-5 -5 -6 6.65 1.46
-5 -5 -6 4.44 1.17
-5 -5 -6 6.81 1.56
5 5 6 6.44 1.59
-5 -5 -6 3.16 1.16
5 5 7 588.42 18.66
5 5 7 553.11 17.75
-5 -5 -7 534.61 17.59
-5 -5 -7 470.02 18.02
5 5 7 502.24 17.09
-5 -5 -7 549.24 16.9
-5 -5 -7 519.81 16.81
5 5 7 560.87 18.46
-5 -5 -7 527.96 17.08
-5 -5 -7 548.84 16.96
5 5 7 525.66 18.21
-5 -5 -7 480.23 17.04
5 5 8 1.73 1.2
5 5 8 2.81 1.17
-5 -5 -8 1.37 1.04
-5 -5 -8 1.2 0.81
5 5 8 1.83 1.02
-5 -5 -8 1.82 1
5 5 8 2.17 1.04
-5 -5 -8 0.96 0.86
-5 -5 -8 2.34 1.21
-5 -5 -8 0 0.6
5 5 8 1.06 0.9
-5 -5 -8 1.48 0.94
5 5 9 46.17 4.88
5 5 9 37.39 4.04
-5 -5 -9 37.37 4.12
-5 -5 -9 37.21 4.34
5 5 9 44.47 4.48
5 5 9 37.41 4.21
-5 -5 -9 36.55 3.89
-5 -5 -9 41.03 4.12
5 5 9 40.52 4.26
-5 -5 -9 39.84 4.18
-5 -5 -9 42.21 4.14
-5 -5 -9 36.74 3.91
5 5 9 43.23 4.64
-5 -5 -9 37.71 3.73
5 5 10 -0.4 0.96
5 5 10 2.97 1.34
-5 -5 -10 0.71 0.94
-5 -5 -10 0.78 0.91
5 5 10 0.72 0.83
-5 -5 -10 1.54 1.16
5 5 10 1.9 1.16
5 5 10 -0.42 0.89
-5 -5 -10 1.08 0.99
-5 -5 -10 0.5 0.91
-5 -5 -10 0.36 0.88
5 5 10 1.65 1.43
-5 -5 -10 0.02 0.97
-5 -5 -10 1.07 0.95
5 5 11 342.28 14.38
-5 -5 -11 330.44 14.47
5 5 11 327.4 14.28
5 5 11 320.22 14.48
-5 -5 -11 312.63 13.7
-5 -5 -11 309.06 14.1
5 5 11 315.22 13.58
-5 -5 -11 336.16 14.1
-5 -5 -11 298.47 13.56
-5 -5 -11 314.63 14.13
5 5 11 335.75 15.34
5 5 11 319.8 14.75
5 5 12 113.93 8.66
-5 -5 -12 118.27 8.89
-5 -5 -12 108.61 8.49
5 5 12 125.35 8.5
5 5 12 136.88 8.99
-5 -5 -12 145.85 8.93
-5 -5 -12 130.06 8.66
5 5 12 122.5 8.03
-5 -5 -12 131.92 8.55
-5 -5 -12 130.82 8.54
-5 -5 -12 128.32 8.64
5 5 12 126.35 9.2
5 5 12 131.88 9.31
5 5 13 24.42 4.05
-5 -5 -13 22.16 3.89
-5 -5 -13 16.26 3.41
-5 -5 -13 25.24 3.9
5 5 13 21.26 3.68
5 5 13 24.87 3.93
-5 -5 -13 28.96 4.07
-5 -5 -13 25.27 3.76
-5 -5 -13 24.2 3.7
5 5 13 23.8 4.18
-5 -5 -13 22.66 3.78
5 5 13 23.5 4
5 5 14 341.19 16.22
-5 -5 -14 302.43 15.76
-5 -5 -14 251.82 14.63
-5 -5 -14 300.93 15.11
-5 -5 -14 306.72 15.76
5 5 14 309.39 15.83
5 5 14 321.38 16.48
-5 -5 -14 312.71 15.41
-5 -5 -14 292.55 15.18
-5 -5 -14 292.92 15.5
5 5 14 294.22 15.86
5 5 14 325.76 16.39
5 5 15 51.29 6.27
-5 -5 -15 44.4 5.85
5 5 15 50.97 6.44
5 5 15 39.09 5.89
-5 -5 -15 44.9 5.72
-5 -5 -15 48.67 6.22
-5 -5 -15 51.15 6.09
-5 -5 -15 37.13 5.32
-5 -5 -15 45.35 5.91
5 5 15 40.7 5.73
5 5 15 37.64 5.52
-5 -6 7 48.63 5.69
5 6 -7 49.06 5.09
5 6 -7 41.6 4.91
-5 -6 6 52.79 5.68
5 6 -6 48.59 5.16
5 6 -6 47.49 4.79
5 6 -5 415.1 15.63
5 6 -5 418.9 15.73
-5 -6 5 455.1 18.09
5 6 -5 377.73 15.07
5 6 -5 404.15 15.13
5 6 -5 412.63 16.36
5 6 -5 420.75 15.97
-5 -6 4 164.69 8.52
5 6 -4 156.8 8.48
-5 -6 4 150.28 8.13
-5 -6 4 151.2 7.86
-5 -6 4 154.26 7.85
-5 -6 4 153.43 7.93
5 6 -4 160.08 8.43
-5 -6 4 160.64 8.07
-5 -6 4 175.49 10.02
5 6 -4 139.37 7.78
5 6 -4 141.42 7.74
5 6 -4 159.1 8.95
5 6 -4 166.06 8.66
-5 -6 3 117.42 7.01
5 6 -3 123.24 7.07
-5 -6 3 120.91 6.77
-5 -6 3 123.01 6.62
-5 -6 3 110.74 6.3
-5 -6 3 114.65 6.43
5 6 -3 131.93 7.29
-5 -6 3 120.64 6.61
-5 -6 3 129.37 8.19
5 6 -3 111.93 6.56
5 6 -3 130.12 7.65
5 6 -3 115.33 6.5
-5 -6 3 124.84 7.21
5 6 -3 121.54 6.99
5 6 -2 178.4 9.18
-5 -6 2 170.66 8.7
5 6 -2 186.82 8.72
-5 -6 2 186.01 8.42
-5 -6 2 189.43 8.21
-5 -6 2 186.13 8.08
-5 -6 2 195.24 8.2
5 6 -2 163.29 8.48
-5 -6 2 177.46 7.97
-5 -6 2 189.99 8.22
-5 -6 2 180.94 9.66
5 6 -2 178.37 8.17
5 6 -2 190.51 9.37
5 6 -2 187.58 8.21
-5 -6 2 221.3 9.93
5 6 -2 183.89 8.67
5 6 -1 9.56 2.13
5 6 -1 7.62 1.62
-5 -6 1 8.16 1.81
-5 -6 1 9.5 1.76
-5 -6 1 9.56 1.59
-5 -6 1 10.28 1.76
-5 -6 1 8.43 1.55
-5 -6 1 9.01 1.49
-5 -6 1 8.9 1.59
-5 -6 1 12.46 2.26
5 6 -1 9.33 1.75
5 6 -1 7.17 1.41
5 6 -1 7.82 1.74
-5 -6 1 9.57 2.03
5 6 0 215.79 10.02
-5 -6 0 223.35 10.12
5 6 0 241.03 9.18
5 6 0 229.53 9.43
-5 -6 0 239.51 9.34
-5 -6 0 240.83 9.06
-5 -6 0 231.49 8.92
-5 -6 0 238.65 8.97
-5 -6 0 231.2 8.9
-5 -6 0 236.62 9
-5 -6 0 248.88 10.65
5 6 0 214.59 9.01
5 6 0 222.95 8.96
-5 -6 0 255.98 10.93
5 6 0 219.58 9.49
5 6 1 124.31 6.99
5 6 1 120.08 6.26
-5 -6 -1 107.9 6.68
-5 -6 -1 110.09 5.63
-5 -6 -1 122.99 5.83
-5 -6 -1 127.3 5.96
-5 -6 -1 124.71 5.9
-5 -6 -1 134.06 7.03
5 6 1 120.32 5.87
5 6 1 111.49 5.8
-5 -6 -1 131.29 7.45
5 6 1 121.34 7.07
5 6 1 120.73 6.53
5 6 2 4.3 1.27
-5 -6 -2 5.94 1.63
-5 -6 -2 7.54 1.43
-5 -6 -2 4.85 1.14
-5 -6 -2 4.51 1.18
-5 -6 -2 5.41 1.17
-5 -6 -2 6.99 1.54
-5 -6 -2 6.16 1.24
5 6 2 4.3 1.13
5 6 2 5.2 1.37
-5 -6 -2 5.81 1.65
5 6 2 6.3 1.48
5 6 2 4.5 1.52
5 6 3 0.83 0.6
-5 -6 -3 0.19 0.86
-5 -6 -3 0.19 0.46
-5 -6 -3 1.12 0.77
-5 -6 -3 0.68 0.6
-5 -6 -3 0.44 0.57
5 6 3 1.39 1.01
-5 -6 -3 0.71 0.69
-5 -6 -3 -0.31 0.69
5 6 3 1.26 0.92
5 6 3 -0.49 0.7
-5 -6 -3 -1.83 1.37
5 6 3 -0.05 1.03
5 6 4 290.61 11.19
-5 -6 -4 245.31 11.26
-5 -6 -4 256.59 9.75
-5 -6 -4 274.18 9.93
-5 -6 -4 251.37 9.66
-5 -6 -4 253.64 9.41
5 6 4 269.94 11.62
-5 -6 -4 260.07 9.87
5 6 4 255.89 10.68
-5 -6 -4 272.06 11.5
5 6 4 270.94 11.24
5 6 5 271.51 11.32
-5 -6 -5 250.08 11.65
-5 -6 -5 262.5 10.36
-5 -6 -5 266.7 10.25
-5 -6 -5 278.01 10.4
5 6 5 274.55 11.89
-5 -6 -5 281.61 10.43
5 6 5 296.61 11.69
-5 -6 -5 276.67 11.7
5 6 6 228.57 10.37
5 6 6 223.52 9.96
-5 -6 -6 230.76 10.1
-5 -6 -6 219.62 10.86
-5 -6 -6 227.7 9.61
-5 -6 -6 233.16 9.6
-5 -6 -6 242.27 9.7
5 6 6 226.69 10.54
-5 -6 -6 231.65 9.76
-5 -6 -6 238.1 9.64
5 6 6 222.44 10.34
-5 -6 -6 244.58 10.72
5 6 7 4.87 1.68
5 6 7 2.32 1.17
-5 -6 -7 2.41 1.08
-5 -6 -7 0.98 0.97
-5 -6 -7 2.05 1.23
-5 -6 -7 1.14 1.02
5 6 7 1.46 0.81
-5 -6 -7 2.68 1.07
-5 -6 -7 1.48 0.97
-5 -6 -7 1.99 1.05
5 6 7 0.87 0.91
-5 -6 -7 0.63 0.85
5 6 8 107.02 7.2
5 6 8 94.45 6.65
-5 -6 -8 98.05 6.67
-5 -6 -8 80.6 6.61
5 6 8 92.91 6.38
-5 -6 -8 103.9 6.35
-5 -6 -8 97.32 6.28
5 6 8 97.09 6.73
-5 -6 -8 97.08 6.29
-5 -6 -8 100.51 6.29
5 6 8 93.96 6.75
-5 -6 -8 101.03 6.57
5 6 9 48.51 5.06
5 6 9 58.88 5.08
-5 -6 -9 57.48 5.14
-5 -6 -9 49.75 5.24
5 6 9 50.03 4.93
-5 -6 -9 53.28 4.84
-5 -6 -9 47.14 4.69
5 6 9 56.24 5.03
-5 -6 -9 52.29 4.75
-5 -6 -9 56.86 4.91
5 6 9 52.15 5.24
-5 -6 -9 49.69 4.5
5 6 10 428.88 17.14
5 6 10 397.78 16.2
-5 -6 -10 404.51 16.48
-5 -6 -10 336.51 16.12
5 6 10 424.18 16.18
-5 -6 -10 419.99 15.8
-5 -6 -10 404.79 15.83
5 6 10 416.99 15.96
-5 -6 -10 432.17 16.08
-5 -6 -10 425.96 15.86
5 6 10 425.8 17.26
-5 -6 -10 342.62 14.09
5 6 11 12.18 2.75
-5 -6 -11 10.94 2.54
-5 -6 -11 9.57 2.59
5 6 11 16.29 2.94
-5 -6 -11 15.86 2.88
5 6 11 13.05 2.87
5 6 11 13.39 2.57
-5 -6 -11 11.56 2.44
-5 -6 -11 16.47 3.07
-5 -6 -11 9.43 2.38
5 6 11 8.86 2.53
-5 -6 -11 13.76 2.77
5 6 11 9.88 2.48
5 6 12 97.62 7.66
-5 -6 -12 99.91 7.97
-5 -6 -12 82.31 7.59
5 6 12 106.05 8.14
5 6 12 84.98 7.62
-5 -6 -12 101.23 7.71
-5 -6 -12 108.81 7.96
5 6 12 102.6 7.24
-5 -6 -12 101.01 7.72
-5 -6 -12 93.23 7.61
-5 -6 -12 99.11 7.55
5 6 12 99.92 8.14
5 6 12 104.31 8.24
5 6 13 285.44 14.81
-5 -6 -13 276.79 14.78
-5 -6 -13 258.18 14.72
-5 -6 -13 304.22 14.45
-5 -6 -13 288.86 14.42
5 6 13 319.13 15.02
5 6 13 303.35 15.02
-5 -6 -13 286.42 14.1
-5 -6 -13 288.72 14.28
-5 -6 -13 305.47 14.86
5 6 13 302.55 15.44
5 6 13 284.6 14.98
5 6 14 39.66 5.54
-5 -6 -14 44.26 5.88
-5 -6 -14 31.96 5.06
-5 -6 -14 43.7 5.39
-5 -6 -14 44.36 5.52
5 6 14 39.59 5.31
5 6 14 44.79 5.61
-5 -6 -14 45.54 5.43
-5 -6 -14 41.99 5.26
-5 -6 -14 39.42 5.3
5 6 14 35.61 5.2
5 6 14 36.25 5.28
5 6 15 0.18 1.18
-5 -6 -15 3.96 2.08
-5 -6 -15 1.28 1.2
5 6 15 0.82 1.15
-5 -6 -15 0.34 1.63
5 6 15 -0.58 2
-5 -6 -15 0.99 1.46
-5 -6 -15 -2.29 1.71
-5 -6 -15 2.86 1.72
5 6 15 -0.33 1.64
-5 -6 -15 2.03 1.62
5 6 15 0.59 1.18
-5 -7 6 146.04 10.11
5 7 -6 140.57 9.12
5 7 -6 138 8.82
-5 -7 5 62.02 5.49
5 7 -5 56.33 5.32
-5 -7 5 55.68 4.91
-5 -7 5 56.98 4.96
-5 -7 5 55.06 4.93
5 7 -5 53.12 4.9
-5 -7 5 65.81 6.44
5 7 -5 52.1 5.02
5 7 -5 50.25 4.79
5 7 -5 56.44 5.46
5 7 -5 55.76 5.1
5 7 -5 55.35 5.17
5 7 -4 20.74 3.14
-5 -7 4 22.12 3.12
-5 -7 4 20.85 2.88
-5 -7 4 16.88 2.67
5 7 -4 19.98 3.05
-5 -7 4 16.11 2.58
-5 -7 4 16.61 2.64
-5 -7 4 21.27 3.44
5 7 -4 18.78 2.9
5 7 -4 17.76 2.77
5 7 -4 20.93 3.35
5 7 -4 24.45 3.33
5 7 -3 85.39 6.18
-5 -7 3 87.02 6.09
-5 -7 3 87.28 5.84
-5 -7 3 89.04 5.86
-5 -7 3 86.2 5.77
5 7 -3 80.6 5.87
-5 -7 3 90.07 5.97
-5 -7 3 106.07 7.65
5 7 -3 86.33 6.02
5 7 -3 88.17 6.57
5 7 -3 88.09 5.91
-5 -7 3 97.94 6.55
5 7 -3 89.1 6.24
5 7 -2 2.44 1.42
5 7 -2 2.96 1.19
-5 -7 2 2.52 1.16
-5 -7 2 3.84 1.21
-5 -7 2 4.58 1.34
-5 -7 2 4.91 1.42
5 7 -2 4.1 1.4
-5 -7 2 5.26 1.48
-5 -7 2 4.82 1.32
-5 -7 2 5.26 1.36
-5 -7 2 5.94 1.97
5 7 -2 3.27 1.26
5 7 -2 4.38 1.41
5 7 -2 2.36 1.17
5 7 -2 6.34 1.88
-5 -7 2 4.74 1.48
5 7 -1 410.98 15.29
-5 -7 1 386.09 14.53
5 7 -1 401.04 14.58
-5 -7 1 401.51 14.26
-5 -7 1 416.12 13.97
-5 -7 1 391.39 13.62
-5 -7 1 387.52 13.57
-5 -7 1 404.33 13.83
-5 -7 1 409.83 13.99
-5 -7 1 408.35 15.84
5 7 -1 398.13 14.14
5 7 -1 399.63 15.22
5 7 -1 405.84 13.97
-5 -7 1 444.96 15.88
5 7 -1 397.23 14.59
5 7 0 120.14 7.22
-5 -7 0 111.06 6.85
5 7 0 127.26 6.58
5 7 0 115.73 6.68
-5 -7 0 117.85 6.6
-5 -7 0 125.41 6.45
-5 -7 0 117.23 6.26
-5 -7 0 123.6 6.36
-5 -7 0 119.54 6.31
-5 -7 0 116.05 6.26
-5 -7 0 125.65 7.61
5 7 0 116.9 6.48
5 7 0 122.86 6.46
-5 -7 0 143.59 8.17
5 7 0 127.38 7.05
5 7 1 54.46 4.59
5 7 1 52.7 4.16
-5 -7 -1 48.39 4.37
-5 -7 -1 56.3 4.16
-5 -7 -1 49.95 3.86
-5 -7 -1 51.11 3.97
-5 -7 -1 52.04 3.95
-5 -7 -1 59.7 4.84
5 7 1 52.29 4.11
5 7 1 56.41 4.07
-5 -7 -1 61.03 5.2
5 7 1 59.79 4.96
5 7 1 55.6 4.55
5 7 2 73.09 5.38
5 7 2 77.89 5.57
-5 -7 -2 75.65 5.71
-5 -7 -2 83.33 5.1
-5 -7 -2 84.83 5.1
-5 -7 -2 87.91 5.18
-5 -7 -2 86.52 5.14
-5 -7 -2 88.9 5.8
-5 -7 -2 83.57 5.1
5 7 2 81.61 5.19
5 7 2 94.32 5.48
-5 -7 -2 88.21 6.36
5 7 2 73.65 5.56
5 7 2 78.82 5.44
5 7 3 1.14 0.93
-5 -7 -3 -0.6 0.59
-5 -7 -3 0.28 0.64
-5 -7 -3 -0.72 0.82
-5 -7 -3 -0.8 0.79
-5 -7 -3 0.37 0.79
-5 -7 -3 0.13 0.66
-5 -7 -3 0.84 0.85
-5 -7 -3 0.2 0.64
5 7 3 1.59 1.01
5 7 3 -0.46 0.61
-5 -7 -3 0.27 0.79
5 7 3 -0.14 0.81
5 7 4 270.12 11.11
-5 -7 -4 228.69 11.16
-5 -7 -4 263.76 10.21
-5 -7 -4 252.57 10.07
-5 -7 -4 255.93 10.11
-5 -7 -4 243.36 10.06
-5 -7 -4 262.57 10.03
5 7 4 239.64 11.11
-5 -7 -4 259.89 10.15
5 7 4 259.13 11.08
5 7 4 246.94 10.34
-5 -7 -4 275.84 12.02
5 7 4 252.56 11.12
5 7 5 15.04 2.43
-5 -7 -5 15.06 2.68
-5 -7 -5 12.81 2.07
-5 -7 -5 16.28 2.31
-5 -7 -5 14.29 2.17
5 7 5 10.51 2.14
-5 -7 -5 15.21 2.22
5 7 5 16.81 2.7
-5 -7 -5 14.19 2.57
5 7 5 11.87 2.27
5 7 6 116.79 7.17
-5 -7 -6 104.64 6.63
-5 -7 -6 106.31 7.37
5 7 6 104.21 6.54
-5 -7 -6 112.1 6.62
-5 -7 -6 108.47 6.49
-5 -7 -6 116.81 6.66
5 7 6 113.69 7.29
-5 -7 -6 112.62 6.56
-5 -7 -6 116.95 6.62
5 7 6 112.76 7.11
-5 -7 -6 115.3 7.38
5 7 7 252.37 11.64
5 7 7 235.55 11.02
-5 -7 -7 253.08 11.46
-5 -7 -7 230.98 11.91
-5 -7 -7 254.71 11.08
-5 -7 -7 238.8 10.72
-5 -7 -7 255.34 10.89
5 7 7 263.74 11.83
-5 -7 -7 267.53 11.22
-5 -7 -7 259.37 10.93
5 7 7 254.15 11.76
-5 -7 -7 260.65 11.72
5 7 8 2.21 1.35
5 7 8 4.48 1.52
-5 -7 -8 5.19 1.7
-5 -7 -8 3.87 1.51
-5 -7 -8 3.14 1.34
-5 -7 -8 4.88 1.52
5 7 8 2.56 1.24
-5 -7 -8 3.6 1.19
-5 -7 -8 2.68 0.95
-5 -7 -8 4.88 1.48
5 7 8 2.99 1.47
-5 -7 -8 3.24 1.49
5 7 9 27.17 3.82
5 7 9 29.94 3.83
-5 -7 -9 32.2 4.02
-5 -7 -9 25.24 3.85
-5 -7 -9 28.65 3.72
-5 -7 -9 25.8 3.46
-5 -7 -9 24 3.43
5 7 9 28.89 3.67
-5 -7 -9 28.61 3.58
-5 -7 -9 29.63 3.62
5 7 9 27.66 3.91
-5 -7 -9 35.9 4.03
5 7 10 2.54 1.74
5 7 10 1.01 0.96
-5 -7 -10 -0.54 0.78
-5 -7 -10 -1.64 1.37
5 7 10 -0.38 0.8
-5 -7 -10 0.48 0.92
5 7 10 -0.12 0.84
-5 -7 -10 0.18 1.13
-5 -7 -10 -0.33 0.78
-5 -7 -10 -0.41 0.96
5 7 10 0.75 0.93
-5 -7 -10 0.94 1.23
5 7 11 5.1 1.92
5 7 11 5.16 1.95
-5 -7 -11 6.51 2.09
-5 -7 -11 4.58 1.96
5 7 11 4.46 1.99
-5 -7 -11 5.72 2.07
5 7 11 8.01 2.06
-5 -7 -11 7.79 2.01
-5 -7 -11 5.21 1.75
-5 -7 -11 5.99 2.23
5 7 11 5.15 2.16
-5 -7 -11 6.5 1.68
5 7 12 352.72 15.83
-5 -7 -12 347.76 16.07
-5 -7 -12 289.44 15.87
5 7 12 324.42 15.38
-5 -7 -12 323.87 14.96
-5 -7 -12 330.95 15.6
5 7 12 331.21 14.17
-5 -7 -12 320.78 15.08
-5 -7 -12 322.47 14.97
5 7 12 331.53 16.17
5 7 12 340.49 16.06
5 7 13 26.45 4.32
-5 -7 -13 38.29 5.13
-5 -7 -13 30.86 5.09
-5 -7 -13 28.13 4.34
5 7 13 44.31 5.36
-5 -7 -13 32.05 4.45
-5 -7 -13 30.26 4.26
-5 -7 -13 36.63 4.77
5 7 13 40.34 5.37
5 7 13 35.26 4.95
5 7 14 315.48 16.42
-5 -7 -14 321.72 16.77
-5 -7 -14 282.79 16.54
-5 -7 -14 338.09 16.24
-5 -7 -14 316.95 16.11
5 7 14 334.58 16.53
5 7 14 337.87 16.73
-5 -7 -14 329.18 16.47
-5 -7 -14 341.55 16.38
-5 -7 -14 329.32 16.03
5 7 14 341.67 17.16
5 7 14 324.36 16.57
5 7 15 9.28 2.82
-5 -7 -15 12.89 3.34
-5 -7 -15 11.81 3.49
5 7 15 6.47 2.51
-5 -7 -15 10.53 2.88
5 7 15 8.43 2.72
-5 -7 -15 9.83 2.85
-5 -7 -15 13.39 3.09
-5 -7 -15 8.65 2.8
5 7 15 11.98 3.33
-5 -7 -15 5.59 2.39
5 7 15 13.98 3.3
5 8 -5 150.95 9.49
-5 -8 5 149.76 9.21
-5 -8 5 138.79 8.61
-5 -8 5 147.15 8.8
-5 -8 5 145.32 8.76
-5 -8 5 149.8 8.93
-5 -8 5 160.59 10.72
5 8 -5 115.67 8.38
5 8 -5 138.24 8.74
5 8 -5 146.35 9.25
5 8 -5 149.91 8.93
5 8 -5 154.21 9.36
5 8 -4 60.19 5.85
-5 -8 4 62.69 5.72
-5 -8 4 72.84 5.83
-5 -8 4 67.46 5.57
-5 -8 4 68.53 5.61
-5 -8 4 70.33 5.7
-5 -8 4 74.7 6.92
5 8 -4 71.69 5.88
5 8 -4 71.21 6.08
5 8 -4 61.89 5.42
5 8 -4 69.73 5.9
5 8 -3 3.97 1.33
-5 -8 3 4.96 1.6
-5 -8 3 2.51 1.17
-5 -8 3 3.37 1.4
5 8 -3 3.46 1.24
-5 -8 3 2.99 1.33
-5 -8 3 3.89 1.23
-5 -8 3 3.82 1.85
5 8 -3 3.81 1.28
5 8 -3 5.02 1.64
5 8 -3 2.71 1.69
5 8 -3 5.05 1.92
5 8 -2 18.14 2.89
-5 -8 2 20.18 2.95
-5 -8 2 19.02 2.67
-5 -8 2 18.98 2.68
5 8 -2 16.73 2.52
-5 -8 2 18.46 2.58
-5 -8 2 14.74 2.4
-5 -8 2 15.17 2.46
-5 -8 2 19.97 3.3
5 8 -2 15.56 2.57
5 8 -2 18.94 2.76
5 8 -2 15.32 2.71
5 8 -2 17.65 2.95
-5 -8 2 21.57 3.2
5 8 -1 8.34 2.12
5 8 -1 12.59 2.33
-5 -8 1 13.31 2.28
-5 -8 1 10.93 2.08
-5 -8 1 11.14 2.07
-5 -8 1 8.78 1.89
5 8 -1 9.24 2.05
-5 -8 1 8.67 1.92
-5 -8 1 13.59 2.19
-5 -8 1 11.7 2.08
-5 -8 1 8.61 2.1
5 8 -1 13.94 2.38
5 8 -1 12.13 2.16
5 8 -1 10.26 2.29
5 8 -1 12.81 2.34
-5 -8 1 11.06 2.36
5 8 0 10.91 2.14
-5 -8 0 13.59 2.33
5 8 0 11.18 2.21
-5 -8 0 13.05 2.37
-5 -8 0 12.84 2.12
-5 -8 0 11.64 2.12
-5 -8 0 12.14 2.12
-5 -8 0 9.17 1.85
-5 -8 0 10.21 1.97
-5 -8 0 13.82 2.59
5 8 0 8.52 1.91
5 8 0 9.57 1.93
5 8 0 10 2.02
-5 -8 0 10.71 2.47
5 8 1 422.32 15.87
-5 -8 -1 431.38 16.25
5 8 1 437.67 15.52
-5 -8 -1 455.52 15.6
-5 -8 -1 458.17 15.51
-5 -8 -1 460.3 15.63
-5 -8 -1 473.21 15.67
-5 -8 -1 475.69 17
5 8 1 447.6 15.7
-5 -8 -1 513.43 18.05
5 8 1 453.92 16.3
5 8 2 50.75 4.51
5 8 2 55.46 4.61
-5 -8 -2 47.76 4.55
-5 -8 -2 54.9 4.39
-5 -8 -2 51.77 4.22
-5 -8 -2 53.57 4.32
-5 -8 -2 54.13 4.34
-5 -8 -2 52.86 4.71
-5 -8 -2 54.78 4.39
5 8 2 47.65 4.18
5 8 2 52.06 4.28
-5 -8 -2 59.44 5.46
5 8 2 50.64 4.74
5 8 2 46.08 4.35
5 8 3 242.75 11.04
-5 -8 -3 274.61 10.75
5 8 3 291.08 11.9
-5 -8 -3 277.17 12.34
-5 -8 -3 276.39 11.13
-5 -8 -3 276.5 11.17
-5 -8 -3 283.24 11.25
-5 -8 -3 282.03 11.33
-5 -8 -3 280.48 11.58
-5 -8 -3 303.67 11.5
5 8 3 294.97 11.82
5 8 3 270.03 11.36
5 8 3 274.51 11.84
-5 -8 -3 321.24 13.53
5 8 3 265.19 11.74
5 8 4 76.87 5.75
-5 -8 -4 71.13 5.92
-5 -8 -4 69.77 5.14
-5 -8 -4 74.98 5.29
-5 -8 -4 79.28 5.37
-5 -8 -4 77.97 5.39
-5 -8 -4 69.15 5.06
-5 -8 -4 87.49 5.62
5 8 4 70.53 5.45
5 8 4 72.89 5.33
5 8 4 71.5 5.48
-5 -8 -4 85.1 6.53
5 8 5 246.54 11.27
-5 -8 -5 243.22 10.65
-5 -8 -5 245.59 10.63
-5 -8 -5 242.59 10.56
-5 -8 -5 230.98 11.7
-5 -8 -5 260.22 10.83
5 8 5 253.58 11.34
-5 -8 -5 284.56 12.64
5 8 5 237.4 10.96
5 8 6 34.46 4.02
-5 -8 -6 30.47 4.09
-5 -8 -6 37 3.87
-5 -8 -6 32.51 3.6
-5 -8 -6 31.92 3.54
-5 -8 -6 37.95 3.87
5 8 6 40.6 4.38
-5 -8 -6 35.31 4.23
5 8 6 28.26 3.38
5 8 7 90.15 6.85
5 8 7 84.31 6.33
-5 -8 -7 86.98 6.52
-5 -8 -7 87.17 7.13
-5 -8 -7 88.59 6.28
-5 -8 -7 85.48 6.15
-5 -8 -7 85.32 6.06
5 8 7 92.51 6.71
-5 -8 -7 82.93 6.06
-5 -8 -7 86.92 6.09
5 8 7 98.9 7.07
-5 -8 -7 91.83 6.87
5 8 8 128.55 8.34
5 8 8 121.76 8.03
-5 -8 -8 136.33 8.52
-5 -8 -8 132.33 9.15
-5 -8 -8 127.06 8.03
-5 -8 -8 126.89 7.9
-5 -8 -8 129.44 7.95
5 8 8 128.19 8.09
-5 -8 -8 140.8 8.26
-5 -8 -8 127.71 7.82
5 8 8 155.66 9.15
-5 -8 -8 148.09 8.75
5 8 9 20.45 3.39
5 8 9 16.02 3.02
-5 -8 -9 22.35 3.57
-5 -8 -9 17.36 3.26
-5 -8 -9 20.78 3.29
-5 -8 -9 18.8 3.02
5 8 9 19.64 3.08
-5 -8 -9 20.11 3.05
-5 -8 -9 24.22 3.41
-5 -8 -9 21.41 3.3
5 8 9 20.34 3.36
-5 -8 -9 19.17 3.02
5 8 10 5.63 1.97
5 8 10 7.98 2.15
-5 -8 -10 3.84 1.96
-5 -8 -10 6.8 2.56
-5 -8 -10 6.08 1.93
-5 -8 -10 7.88 2.06
5 8 10 7.68 2
-5 -8 -10 7.29 2.08
-5 -8 -10 8.37 2.24
-5 -8 -10 9.4 2.43
5 8 10 8.29 2.43
-5 -8 -10 7.76 2.12
5 8 11 56.79 6.02
5 8 11 66.65 6.44
-5 -8 -11 56.82 5.99
-5 -8 -11 56.12 6.42
-5 -8 -11 57.26 5.84
5 8 11 56.9 5.76
-5 -8 -11 52.45 5.53
-5 -8 -11 55.15 5.65
5 8 11 63.36 5.57
-5 -8 -11 67.71 6.22
-5 -8 -11 55.61 5.51
5 8 11 50.53 5.97
-5 -8 -11 60.85 5.37
5 8 12 0.88 1.03
-5 -8 -12 -0.07 1.41
-5 -8 -12 -0.89 1.49
-5 -8 -12 0.87 1.32
5 8 12 -1.11 1.12
-5 -8 -12 -1.26 1.19
-5 -8 -12 -1.18 1.43
-5 -8 -12 2.88 1.53
5 8 12 -0.42 1.33
5 8 12 -1.02 1.2
5 8 13 116.93 9.33
-5 -8 -13 130.02 9.87
-5 -8 -13 99.5 9.31
-5 -8 -13 124.31 9.11
-5 -8 -13 130.46 9.5
5 8 13 122.16 9.32
-5 -8 -13 139.58 9.69
-5 -8 -13 132.88 9.42
5 8 13 133.75 10.35
5 8 13 126.53 9.88
5 8 14 -0.92 1.5
-5 -8 -14 3.04 1.79
-5 -8 -14 1.93 2.53
-5 -8 -14 2.59 1.87
5 8 14 2.45 1.7
-5 -8 -14 1.37 1.43
-5 -8 -14 2.08 1.82
-5 -8 -14 2.4 1.69
5 8 14 4.57 1.97
5 8 14 3.64 1.94
5 8 15 229.89 14.49
-5 -8 -15 227.12 14.5
-5 -8 -15 199.17 14.3
-5 -8 -15 246.28 14.14
-5 -8 -15 249.17 14.65
5 8 15 241.07 14.46
-5 -8 -15 245.79 14.35
-5 -8 -15 243.84 14.08
5 8 15 231.92 14.23
5 8 15 248.4 14.74
-5 -9 5 32.22 4.16
-5 -9 5 32.05 4.07
-5 -9 5 33.96 4.18
-5 -9 5 33.07 4.19
5 9 -5 33.14 4.28
5 9 -5 25.17 3.94
5 9 -5 33.59 4.32
5 9 -5 36.65 4.54
5 9 -5 34.19 4.66
-5 -9 5 35.08 4.58
5 9 -4 6.71 2.22
-5 -9 4 9.28 2.41
-5 -9 4 7.17 1.86
-5 -9 4 8.1 2.18
-5 -9 4 5.88 1.78
-5 -9 4 5.02 1.61
-5 -9 4 3.65 2.32
5 9 -4 4.15 1.86
5 9 -4 6.42 2.07
5 9 -4 8.25 1.99
5 9 -4 3.93 1.2
5 9 -3 81.02 6.86
-5 -9 3 86.49 6.82
-5 -9 3 83.81 6.44
-5 -9 3 75.89 6.16
-5 -9 3 81.18 6.28
-5 -9 3 80 6.31
-5 -9 3 85.62 7.61
5 9 -3 69.24 6.11
5 9 -3 83.72 6.64
5 9 -3 76.14 6.29
5 9 -3 87.45 6.68
5 9 -2 51.03 5.17
-5 -9 2 44.41 4.68
-5 -9 2 51.26 4.74
-5 -9 2 45.83 4.5
-5 -9 2 42.95 4.33
-5 -9 2 49.73 4.64
-5 -9 2 52.28 4.86
-5 -9 2 43.73 5.24
5 9 -2 45.4 4.65
5 9 -2 46.45 4.84
5 9 -2 46.19 4.56
-5 -9 2 57.33 5.45
5 9 -2 49.71 5.01
5 9 -1 7.17 1.97
-5 -9 1 5.41 1.77
-5 -9 1 6.38 1.62
-5 -9 1 5.7 1.48
-5 -9 1 8.21 1.84
-5 -9 1 7.82 1.92
-5 -9 1 5.2 1.67
-5 -9 1 6.53 2.38
5 9 -1 5.02 1.63
5 9 -1 4.24 1.43
5 9 -1 4.7 1.72
5 9 -1 9.1 2.09
-5 -9 1 7.19 2.17
5 9 0 100.47 6.83
5 9 0 109.73 7.57
-5 -9 0 112.84 7.45
-5 -9 0 122.13 7.29
-5 -9 0 119.13 7.11
-5 -9 0 120.14 7.12
-5 -9 0 111.24 6.94
-5 -9 0 114.73 7.04
-5 -9 0 116.56 8.22
5 9 0 104.87 7.03
5 9 0 118.33 7.22
-5 -9 0 130.11 8.51
5 9 0 113.33 7.32
5 9 1 26.63 3.31
5 9 1 25.28 3.26
-5 -9 -1 26.25 3.14
-5 -9 -1 28.27 3.33
-5 -9 -1 23.25 2.98
-5 -9 -1 23.2 2.98
-5 -9 -1 25.1 3.26
-5 -9 -1 27.82 3.8
5 9 1 20.33 2.89
5 9 1 25.84 3.33
-5 -9 -1 30.1 3.98
5 9 2 187.66 9.33
-5 -9 -2 190.01 9.43
5 9 2 197.24 9.74
-5 -9 -2 183.86 9.85
-5 -9 -2 203.5 9.66
-5 -9 -2 184.99 9.23
-5 -9 -2 203.99 9.65
-5 -9 -2 206.61 9.72
-5 -9 -2 195.7 10.15
5 9 2 185.2 9.55
-5 -9 -2 228.37 11.69
5 9 2 203.86 10.21
5 9 3 357.03 14.06
-5 -9 -3 357.92 13.98
5 9 3 411.67 15.39
-5 -9 -3 380.08 15.6
-5 -9 -3 410.76 14.86
-5 -9 -3 387.84 14.63
-5 -9 -3 391.72 14.68
-5 -9 -3 392.67 14.73
-5 -9 -3 399.26 15.35
-5 -9 -3 413.42 14.9
5 9 3 389.75 14.95
5 9 3 402.44 15.02
-5 -9 -3 463.38 17.56
5 9 3 376.7 15.18
5 9 4 172.42 8.94
5 9 4 202.53 10.07
-5 -9 -4 190.91 10.46
-5 -9 -4 196.04 9.53
-5 -9 -4 206.1 9.72
-5 -9 -4 209.97 9.81
-5 -9 -4 198.07 9.67
-5 -9 -4 186.95 9.42
-5 -9 -4 214.57 9.9
5 9 4 192.13 10.03
5 9 4 198 9.83
-5 -9 -4 223.41 11.56
5 9 4 175.36 9.4
5 9 5 0.27 0.82
-5 -9 -5 -0.02 0.79
-5 -9 -5 0.6 0.72
-5 -9 -5 0.04 0.76
-5 -9 -5 -0.98 0.76
-5 -9 -5 0 0.89
-5 -9 -5 1.12 0.93
5 9 5 0.65 0.84
5 9 5 -1.14 1.02
-5 -9 -5 0.56 1.27
5 9 5 0.42 0.9
5 9 6 61.11 5.56
-5 -9 -6 53.06 4.95
-5 -9 -6 56.13 4.94
-5 -9 -6 62.73 5.23
-5 -9 -6 52.91 5.47
-5 -9 -6 54.04 4.83
5 9 6 53.67 5.24
-5 -9 -6 53.76 5.48
5 9 6 48.87 4.7
5 9 7 160.88 9.51
-5 -9 -7 150.54 8.84
-5 -9 -7 155.89 8.86
-5 -9 -7 156.73 8.93
-5 -9 -7 149.37 9.78
-5 -9 -7 164.57 9.04
5 9 7 165.8 9.49
-5 -9 -7 170.99 10.03
5 9 7 144.47 8.4
5 9 8 32.73 4.21
-5 -9 -8 36.57 4.3
-5 -9 -8 26.65 3.59
-5 -9 -8 34.6 4.07
-5 -9 -8 34 4.42
5 9 8 25.04 3.81
-5 -9 -8 32.61 4.76
-5 -9 -8 31.32 3.88
-5 -9 -8 36.36 4.1
5 9 8 33.64 4.41
-5 -9 -8 23.95 3.59
5 9 8 27.18 3.5
5 9 9 14.44 3.02
-5 -9 -9 16.18 3.09
-5 -9 -9 13.44 2.76
-5 -9 -9 11.94 2.59
5 9 9 13.85 2.86
-5 -9 -9 13.18 2.86
-5 -9 -9 8.3 2.36
-5 -9 -9 13.52 2.71
-5 -9 -9 8.41 2.13
5 9 9 12.15 2.95
-5 -9 -9 11.56 2.64
5 9 10 41.95 5.04
-5 -9 -10 32.74 4.34
-5 -9 -10 41.36 4.84
-5 -9 -10 44.93 4.95
5 9 10 40.94 5.09
-5 -9 -10 43.27 5.24
-5 -9 -10 44.41 5.66
-5 -9 -10 45 5.1
-5 -9 -10 44.45 4.86
5 9 10 38.26 4.87
-5 -9 -10 47.26 5.03
5 9 11 83.79 7.42
-5 -9 -11 88.15 7.45
-5 -9 -11 85.05 7.24
-5 -9 -11 87.75 7.29
5 9 11 90.95 7.71
-5 -9 -11 90.98 7.83
-5 -9 -11 68.06 7.39
-5 -9 -11 84.98 7.18
-5 -9 -11 84.9 7.15
5 9 11 96.33 8.12
-5 -9 -11 87.91 6.92
5 9 12 8.88 2.51
-5 -9 -12 4.32 1.87
-5 -9 -12 8.25 2.65
-5 -9 -12 6.33 2.05
-5 -9 -12 4.58 1.88
-5 -9 -12 7.37 2.26
-5 -9 -12 8.17 2.39
-5 -9 -12 10.64 2.65
5 9 12 7.85 2.52
5 9 12 10.74 2.92
5 9 13 110.67 9.08
-5 -9 -13 114.18 9.4
-5 -9 -13 110.39 10.02
-5 -9 -13 111.28 8.8
-5 -9 -13 116.76 9.23
-5 -9 -13 117.67 9.5
-5 -9 -13 120.27 9.24
-5 -9 -13 114.94 8.99
5 9 13 115.52 9.42
5 9 13 114.23 9.2
5 9 14 -1.57 1.26
-5 -9 -14 2.53 1.59
-5 -9 -14 1.17 1.6
-5 -9 -14 -0.32 1.09
5 9 14 0.91 1.42
-5 -9 -14 -2.03 1.82
-5 -9 -14 1.04 1.67
-5 -9 -14 1.14 1.18
5 9 14 1.12 1.71
5 9 14 1.16 1.11
-5 -10 4 38.21 4.56
-5 -10 4 32.89 4.28
-5 -10 4 39.14 4.62
-5 -10 4 31.4 4.23
5 10 -4 29.05 4.19
5 10 -4 34.2 4.32
5 10 -4 22.38 3.96
-5 -10 4 35.59 4.53
5 10 -3 79.98 7.06
-5 -10 3 101.65 7.63
-5 -10 3 96.7 7.25
-5 -10 3 81.29 6.61
-5 -10 3 83.56 6.72
-5 -10 3 94.16 7.1
-5 -10 3 94.43 8.29
5 10 -3 85.53 6.97
5 10 -3 83.8 6.97
5 10 -3 82.93 6.73
5 10 -3 81.03 6.78
-5 -10 2 38.44 4.8
5 10 -2 35.2 4.59
-5 -10 2 37.93 4.45
-5 -10 2 34.95 4.31
-5 -10 2 31.92 4.09
-5 -10 2 36.9 4.35
-5 -10 2 45.33 4.82
-5 -10 2 49.35 5.88
5 10 -2 32.15 4.29
5 10 -2 40.42 4.6
5 10 -2 36.02 4.38
5 10 -2 44.94 4.9
5 10 -1 46.99 5.19
-5 -10 1 37.46 4.59
-5 -10 1 44.3 4.68
-5 -10 1 45.5 4.65
-5 -10 1 50.1 4.82
-5 -10 1 49.58 4.83
-5 -10 1 45.37 4.68
-5 -10 1 46.9 5.55
5 10 -1 39.9 4.61
5 10 -1 50.14 5.11
5 10 -1 40.72 4.55
-5 -10 1 57.64 5.84
5 10 -1 47.56 5.03
5 10 0 4.27 1.88
-5 -10 0 2.21 1.58
-5 -10 0 6.58 1.95
-5 -10 0 3.79 1.37
-5 -10 0 5.01 1.77
-5 -10 0 0.87 1.05
-5 -10 0 4.09 1.46
-5 -10 0 5.82 1.98
5 10 0 2.35 1.19
5 10 0 2.8 1.33
5 10 0 0.45 1.01
5 10 0 1.62 1.14
-5 -10 0 0.8 1.43
-5 -10 -1 156.14 8.9
-5 -10 -1 162.99 9
-5 -10 -1 145.63 8.62
-5 -10 -1 160.68 8.98
-5 -10 -1 170.25 10.22
5 10 1 156.45 8.97
-5 -10 -1 175.52 10.64
5 10 1 147.59 9.03
-5 -10 -2 21.88 3.18
5 10 2 22.56 3.21
-5 -10 -2 22.81 3.27
-5 -10 -2 28.05 3.49
-5 -10 -2 27.98 3.51
-5 -10 -2 24.08 3.33
-5 -10 -2 23.46 3.25
-5 -10 -2 28.83 4.01
5 10 2 28.22 3.62
5 10 2 23.51 3.45
-5 -10 -2 22.46 3.9
-5 -10 -3 67.74 5.5
5 10 3 71.6 5.92
-5 -10 -3 63.02 5.75
-5 -10 -3 70.69 5.66
-5 -10 -3 79.28 5.96
-5 -10 -3 71.81 5.69
-5 -10 -3 72.81 5.73
-5 -10 -3 74.46 6.23
-5 -10 -3 73.75 5.79
5 10 3 71.14 5.82
-5 -10 -3 73.36 6.82
5 10 3 64.03 5.68
5 10 4 10.24 2.3
-5 -10 -4 10.78 2.5
-5 -10 -4 10.67 2.23
-5 -10 -4 14.25 2.55
-5 -10 -4 7.43 1.96
-5 -10 -4 10.78 2.26
-5 -10 -4 9.97 2.21
-5 -10 -4 13.24 2.53
5 10 4 8.9 2.2
5 10 4 10.6 2.38
-5 -10 -4 12.73 3.1
5 10 4 11.17 2.59
5 10 5 75.46 6.31
-5 -10 -5 73.9 5.92
-5 -10 -5 66.02 5.67
-5 -10 -5 66.73 5.64
-5 -10 -5 76.35 6.09
-5 -10 -5 62.21 6.09
-5 -10 -5 73.14 5.93
5 10 5 79.48 6.43
5 10 5 66.46 5.78
-5 -10 -5 79.16 7.07
5 10 5 71.49 5.74
5 10 6 64.89 6.16
-5 -10 -6 72.84 6.02
-5 -10 -6 70.85 5.94
-5 -10 -6 72.35 5.99
-5 -10 -6 72.3 6.06
-5 -10 -6 65.24 6.31
-5 -10 -6 71.85 5.99
5 10 6 77.71 6.49
5 10 6 66.4 5.93
-5 -10 -6 76.9 7.14
5 10 6 59.93 5.31
5 10 7 2.9 1.59
-5 -10 -7 -0.69 1.19
-5 -10 -7 0.81 0.9
-5 -10 -7 1.76 1.32
-5 -10 -7 0.57 1.06
-5 -10 -7 0.85 1.16
5 10 7 1.54 1.27
-5 -10 -7 0.54 1.2
5 10 7 0.99 1.09
5 10 8 377.8 16.56
-5 -10 -8 390.98 16.36
-5 -10 -8 398.97 16.41
-5 -10 -8 377.77 16.04
-5 -10 -8 370.38 17.57
-5 -10 -8 401.06 16.34
5 10 8 451.35 17.83
-5 -10 -8 412.26 17.67
5 10 8 346.11 14.58
5 10 9 3.24 1.48
-5 -10 -9 9.16 2.53
-5 -10 -9 7.66 2.26
-5 -10 -9 7.79 2.22
-5 -10 -9 5.57 2.27
5 10 9 5.71 1.75
-5 -10 -9 4.7 1.82
-5 -10 -9 6.53 2.1
-5 -10 -9 8.09 2.29
5 10 9 8.61 2.46
-5 -10 -9 8.08 2.4
5 10 9 3.72 1.22
5 10 10 19.95 3.5
-5 -10 -10 18.72 3.55
-5 -10 -10 18.39 3.41
-5 -10 -10 15.9 3.04
5 10 10 11.76 2.85
-5 -10 -10 18.75 3.7
-5 -10 -10 14.09 3.45
-5 -10 -10 24.13 3.78
-5 -10 -10 13.33 2.93
5 10 10 16.79 3.34
-5 -10 -10 16.46 3.23
5 10 11 1.48 1.5
-5 -10 -11 2.74 1.49
-5 -10 -11 3.55 1.59
-5 -10 -11 1.18 1.17
5 10 11 1.44 1.41
-5 -10 -11 3.19 1.85
-5 -10 -11 2.05 2.26
-5 -10 -11 0.83 1.11
-5 -10 -11 3.18 1.93
5 10 11 1.2 1.13
-5 -10 -11 1.56 1.47
5 10 12 51.76 6.09
-5 -10 -12 51 6.25
-5 -10 -12 41.05 6.02
-5 -10 -12 53.02 6
-5 -10 -12 47.25 5.62
-5 -10 -12 48.38 5.88
-5 -10 -12 57.41 6.28
-5 -10 -12 55.53 6.05
5 10 12 48.79 6.03
5 10 12 46.93 5.93
5 10 13 2.19 1.49
-5 -10 -13 4.16 1.88
-5 -10 -13 2.03 1.37
-5 -10 -13 2.47 1.11
-5 -10 -13 5.29 2.19
-5 -10 -13 2.97 1.45
-5 -10 -13 8.41 2.48
-5 -10 -13 4.55 2.18
5 10 13 2.25 1.81
5 10 13 5.48 2.35
-5 -10 -14 94.84 8.56
-5 -10 -14 85.14 8.33
-5 -10 -14 101.52 8.92
-5 -10 -14 98.3 8.63
-5 -10 -14 91.5 8.75
-5 -10 -14 99.42 9.19
-5 -11 2 132.09 8.88
-5 -11 2 109.81 8.2
-5 -11 2 107.44 7.98
-5 -11 2 137.4 9.02
-5 -11 2 144.98 9.28
-5 -11 2 143.15 10.67
5 11 -2 107.62 8.3
5 11 -2 124.1 8.56
5 11 -2 97.39 7.94
5 11 -2 117.23 8.97
-5 -11 2 136.5 9.31
-5 -11 1 6.18 2.13
5 11 -1 4.31 2.09
-5 -11 1 3.06 1.71
-5 -11 1 7.73 2.38
-5 -11 1 5.29 2.02
-5 -11 1 3.7 1.75
-5 -11 1 7.17 2.13
-5 -11 1 9.02 2.85
5 11 -1 2.15 1.27
5 11 -1 3.28 1.53
5 11 -1 4.2 1.8
5 11 -1 2.75 1.71
-5 -11 1 9.24 2.58
5 11 0 119.51 8.9
-5 -11 0 133.58 9.16
-5 -11 0 138 8.8
-5 -11 0 128.05 8.5
-5 -11 0 138.65 8.69
-5 -11 0 141.03 8.8
-5 -11 0 161.96 9.41
-5 -11 0 136.62 9.92
5 11 0 122.64 8.62
5 11 0 125.33 8.5
5 11 0 126.33 8.54
-5 -11 0 153.77 10.25
5 11 0 133.11 8.86
5 11 1 6.82 2.27
-5 -11 -1 13.29 2.75
-5 -11 -1 9.04 2.21
-5 -11 -1 9.24 2.4
-5 -11 -1 9.72 2.43
-5 -11 -1 11 2.44
-5 -11 -1 12.84 2.72
-5 -11 -1 3.71 1.61
5 11 1 6.91 2.01
5 11 1 7.66 2.17
5 11 1 9.25 2.26
5 11 1 11.42 2.64
-5 -11 -1 10.39 2.79
-5 -11 -2 44.53 4.88
-5 -11 -2 45.99 4.83
-5 -11 -2 49.27 5
-5 -11 -2 46.13 4.88
-5 -11 -2 43.96 4.7
-5 -11 -2 49.78 5.42
5 11 2 44.04 4.83
-5 -11 -2 59.33 6.34
5 11 2 47.65 5.14
-5 -11 -3 31.21 3.95
5 11 3 31.21 4.07
-5 -11 -3 31.51 4.01
-5 -11 -3 28.11 3.63
-5 -11 -3 31.34 3.98
-5 -11 -3 36.75 4.23
-5 -11 -3 30.85 4.23
5 11 3 31.95 4.02
-5 -11 -3 43.48 5.57
5 11 3 29.01 3.89
5 11 4 1.67 1.36
-5 -11 -4 1.56 1.19
-5 -11 -4 1.14 0.93
-5 -11 -4 1.66 1.02
-5 -11 -4 0.55 0.81
-5 -11 -4 0.8 0.84
-5 -11 -4 -0.86 1.08
-5 -11 -4 0.8 1.1
5 11 4 -0.03 1.25
-5 -11 -4 2.29 1.81
5 11 4 1.23 1.32
5 11 5 21.02 3.35
-5 -11 -5 20.35 3.29
-5 -11 -5 21.7 3.35
-5 -11 -5 17.8 3.09
-5 -11 -5 15.35 2.86
-5 -11 -5 19.92 3.47
-5 -11 -5 20.56 3.39
5 11 5 22.49 3.61
5 11 5 20.2 3.42
-5 -11 -5 20.44 3.75
5 11 5 23.61 3.61
5 11 6 -0.06 0.87
-5 -11 -6 1.29 1
-5 -11 -6 -0.7 0.86
-5 -11 -6 0.35 0.88
-5 -11 -6 0.12 1.2
-5 -11 -6 1.22 0.9
-5 -11 -6 -1 1.24
5 11 6 -1.84 1.19
5 11 6 -1.38 1.35
-5 -11 -6 0.7 1.4
5 11 7 84.08 7.09
-5 -11 -7 90.81 7.22
-5 -11 -7 85.82 7.03
-5 -11 -7 95.68 7.32
-5 -11 -7 96.6 7.45
-5 -11 -7 86.5 7.71
-5 -11 -7 93.23 7.23
5 11 7 90.07 7.42
5 11 7 82.8 7.01
-5 -11 -7 104.91 8.52
5 11 7 70.86 5.75
5 11 8 22.45 3.75
-5 -11 -8 26.58 3.96
-5 -11 -8 22.18 3.62
-5 -11 -8 19.4 3.36
-5 -11 -8 20.72 4.03
-5 -11 -8 25.3 3.94
5 11 8 31.01 4.31
-5 -11 -8 25.2 4.03
5 11 9 243.23 13.18
-5 -11 -9 235.36 12.9
-5 -11 -9 239.62 12.95
-5 -11 -9 231.06 12.72
-5 -11 -9 222.4 13.77
-5 -11 -9 258.06 13.23
5 11 9 239.2 13.47
-5 -11 -9 249.65 13.75
5 11 10 254.32 13.56
-5 -11 -10 231.85 12.97
-5 -11 -10 233.32 12.87
-5 -11 -10 223.53 12.63
-5 -11 -10 204.66 13.6
5 11 10 213.6 12.86
-5 -11 -10 232.17 13.6
-5 -11 -10 242.41 13.2
-5 -11 -10 230.69 12.73
5 11 10 275.57 14.13
-5 -11 -10 238.15 13.35
5 11 11 88.17 7.85
-5 -11 -11 65.61 6.73
-5 -11 -11 65.07 6.74
-5 -11 -11 60.83 6.39
5 11 11 60.44 6.6
-5 -11 -11 70.83 7.37
-5 -11 -11 69.51 7.82
-5 -11 -11 70.65 6.94
-5 -11 -11 78.19 7.22
5 11 11 75.22 7.44
-5 -11 -11 67.5 6.8
5 11 12 4.13 1.99
-5 -11 -12 4.86 2.09
-5 -11 -12 6.14 2.75
-5 -11 -12 2.2 1.35
-5 -11 -12 5.95 2.27
-5 -11 -12 4.56 2.01
-5 -11 -12 6.25 2.1
-5 -11 -12 7.15 2.25
5 11 12 8.42 2.65
5 11 12 7.15 2.56
-5 -11 -13 44.75 5.9
-5 -11 -13 45.79 5.76
-5 -11 -13 47.48 6.08
-5 -11 -13 53.74 6.24
5 11 13 48.19 6.42
-5 -11 -13 50.9 6.62
5 11 13 54.59 6.41
-5 -11 -13 48.35 6.22
5 12 -1 31.21 4.08
5 12 0 72.49 7.03
-5 -12 0 73.5 7
-5 -12 0 83.2 7.06
-5 -12 0 81.55 6.8
-5 -12 0 80.05 6.84
-5 -12 0 74.84 6.6
-5 -12 0 77.92 6.86
-5 -12 0 77.06 7.71
5 12 0 61.49 6.27
5 12 0 63.69 5.98
5 12 0 72.58 6.59
-5 -12 0 78.15 7.69
5 12 1 59.2 6.24
-5 -12 -1 45.29 5.44
-5 -12 -1 48.37 5.37
-5 -12 -1 59 5.75
-5 -12 -1 51.34 5.39
-5 -12 -1 49.92 5.32
-5 -12 -1 54.04 5.58
-5 -12 -1 44.19 5.84
5 12 1 41.36 5.11
5 12 1 43.05 4.91
5 12 1 46.13 5.28
5 12 1 38.72 4.8
-5 -12 -1 50.49 6.2
-5 -12 -2 15.38 2.98
-5 -12 -2 14.72 3.08
-5 -12 -2 19.57 3.63
-5 -12 -2 15.03 2.98
-5 -12 -2 13.44 2.77
-5 -12 -2 14.23 2.91
5 12 2 14.7 2.91
5 12 2 15.27 3.07
-5 -12 -2 18.23 3.95
-5 -12 -3 0.69 1.23
-5 -12 -3 1.49 0.95
-5 -12 -3 0.09 1.07
-5 -12 -3 -3.57 1.63
-5 -12 -3 1.53 1.36
5 12 3 -0.58 1.16
5 12 3 -1.3 1.45
-5 -12 -3 -0.09 1.39
5 12 4 0.16 1.01
-5 -12 -4 -0.41 1.39
-5 -12 -4 0.03 0.88
-5 -12 -4 0.46 1.12
-5 -12 -4 -1.3 1.46
-5 -12 -4 3.99 2
-5 -12 -4 0.26 1.24
5 12 4 0.57 1.12
5 12 4 0.72 1.34
-5 -12 -4 0.02 1.47
5 12 5 5.47 1.96
-5 -12 -5 0.92 1.05
-5 -12 -5 2.75 1.3
-5 -12 -5 5.15 1.94
-5 -12 -5 3.03 1.38
-5 -12 -5 3.06 1.52
5 12 5 0.4 1.23
-5 -12 -5 4.71 2.35
5 12 5 4.83 1.97
5 12 6 6.9 2.26
-5 -12 -6 5.61 2.01
-5 -12 -6 8.2 2.45
-5 -12 -6 2.44 1.45
-5 -12 -6 4.55 1.6
-5 -12 -6 6.46 2.24
-5 -12 -6 5.71 2.05
5 12 6 5.91 2.18
5 12 6 3.63 1.72
-5 -12 -6 6.79 2.65
5 12 6 5.68 1.81
5 12 7 71.28 6.83
-5 -12 -7 64.27 6.24
-5 -12 -7 68.64 6.46
-5 -12 -7 75.3 6.77
-5 -12 -7 64.58 6.34
-5 -12 -7 60 6.65
-5 -12 -7 74.74 6.75
5 12 7 65.05 6.45
5 12 7 67 6.59
-5 -12 -7 67.57 7.35
5 12 8 42.57 5.3
-5 -12 -8 50.89 5.61
-5 -12 -8 35.44 4.67
-5 -12 -8 45.18 5.31
-5 -12 -8 46.31 5.42
-5 -12 -8 47.28 6.01
-5 -12 -8 51.24 5.55
5 12 8 47.46 5.47
5 12 8 56.16 6.21
-5 -12 -8 52.61 6.36
5 12 9 312.47 15.68
-5 -12 -9 297.43 15.35
-5 -12 -9 300.13 15.3
-5 -12 -9 321.83 15.63
-5 -12 -9 294.84 16.53
-5 -12 -9 328.04 15.81
5 12 9 340.82 16.27
-5 -12 -9 320.92 16.65
5 12 10 -1.62 1.35
-5 -12 -10 0.33 1.6
-5 -12 -10 -0.25 1.5
-5 -12 -10 -2.03 1.66
-5 -12 -10 1.18 1.34
-5 -12 -10 -0.24 1.2
5 12 10 2.08 1.53
-5 -12 -10 4.04 2.12
5 12 11 10.02 2.86
-5 -12 -11 9.43 2.98
-5 -12 -11 12.59 3.2
-5 -12 -11 8.08 2.37
-5 -12 -11 8.49 2.49
5 12 11 7.35 2.66
-5 -12 -11 9.05 2.61
-5 -12 -11 12.45 2.99
-5 -13 -2 -1.08 2.08
-5 -13 -3 1.5 1.57
-5 -13 -3 0.23 1.27
-5 -13 -3 1.56 1.24
-5 -13 -3 3.53 2
-5 -13 -3 2.48 1.4
5 13 3 2.72 1.43
-5 -13 -3 0.68 1.5
-5 -13 -4 2.1 1.69
-5 -13 -4 -0.22 1.04
-5 -13 -4 -2.24 1.46
-5 -13 -4 -1.2 1.5
-5 -13 -4 -0.12 1.4
5 13 4 -1.53 1.44
5 13 4 1.03 1.42
-5 -13 -4 -0.38 1.18
5 13 5 17.07 3.42
-5 -13 -5 18.85 3.53
-5 -13 -5 20.75 3.79
-5 -13 -5 17.34 3.34
-5 -13 -5 20.49 3.73
-5 -13 -5 19.72 3.62
5 13 5 20.16 3.67
5 13 5 17.77 3.42
-5 -13 -5 21.51 4.48
5 13 6 11.66 2.64
-5 -13 -6 10.84 2.8
-5 -13 -6 10.09 2.47
-5 -13 -6 10.5 2.6
-5 -13 -6 7.73 2.25
-5 -13 -6 5.97 2.35
5 13 6 10.38 2.68
5 13 6 13.81 3.22
-5 -13 -6 13.93 3.75
5 13 7 0.22 0.98
-5 -13 -7 0.2 1.35
-5 -13 -7 3.57 1.85
-5 -13 -7 -1.33 1.44
-5 -13 -7 -0.32 1.26
-5 -13 -7 0.81 1.55
-5 -13 -7 -0.61 1.44
5 13 7 0.63 1.07
-5 -13 -7 2.65 1.57
5 13 7 0.71 1.63
5 13 8 15.62 3.4
-5 -13 -8 17.67 3.55
-5 -13 -8 16.91 3.41
-5 -13 -8 16.44 3.37
-5 -13 -8 16.91 3.38
-5 -13 -8 12.56 3.39
-5 -13 -8 16.38 3.44
5 13 8 21.14 3.94
5 13 8 18.57 3.75
-5 -13 -8 20.8 4.33
5 13 9 100.65 8.48
-5 -13 -9 106.79 9.45
-5 -13 -9 96.22 8.47
-5 -13 -9 98.17 8.49
-5 -13 -9 91.11 8.19
-5 -13 -9 98.33 8.57
-5 -13 -9 111.62 8.97
5 13 9 108.52 9.08
5 13 9 116.97 9.43
-5 -13 -9 117.1 9.92
-5 -13 -10 4.48 2.52
-6 8 4 -0.47 1.39
6 -8 -4 -0.6 1.11
6 -8 -4 -1.15 1.74
-6 8 4 -2.17 1.61
6 -8 -4 -1.76 1.57
6 -8 -3 36.43 5.25
-6 8 3 43.97 5.41
6 -8 -3 29.35 4.78
-6 8 3 42.91 5.37
6 -8 -3 37.41 5.4
-6 8 2 28.7 4.23
6 -8 -2 30.66 4.67
6 -8 -2 24.87 4.24
-6 8 2 23.18 4.04
6 -8 -2 22.17 4.13
6 -8 -1 37.13 5.12
-6 8 1 39.29 5.25
6 -8 -1 33.53 4.86
-6 8 1 42.13 5.23
6 -8 -1 33.41 5.13
-6 8 0 27.64 4.1
6 -8 0 27.85 4.56
6 -8 0 22.43 3.98
-6 8 0 26.98 4.17
6 -8 0 20.4 3.94
-6 8 -1 0.52 1.09
6 -8 1 0.69 1.11
6 -8 1 1.84 1.57
6 -8 1 -1.83 2.06
-6 8 -1 3.72 1.94
6 -8 1 1.04 1.42
6 -8 2 12.5 3.1
6 -8 2 13.35 3.19
-6 8 -2 11.52 2.68
-6 8 -2 13.57 2.81
6 -8 2 17.4 3.78
6 -8 3 11.67 3.01
6 -8 3 16.34 3.76
-6 8 -3 16.87 3.29
-6 8 -3 19.59 3.59
6 -8 3 16.3 3.49
6 -8 4 17.61 3.54
-6 8 -4 13.96 3.13
-6 8 -4 19.46 3.62
-6 7 6 359.42 16.92
-6 7 6 330.07 15.97
6 -7 -6 381.28 17.75
-6 7 5 144.44 9.99
-6 7 5 137.43 9.55
6 -7 -5 142.21 10.05
-6 7 4 37.79 4.93
-6 7 4 45.67 5.49
6 -7 -4 47.83 5.67
-6 7 3 3.12 1.83
-6 7 3 -0.16 0.98
6 -7 -3 3.72 1.78
-6 7 2 15.24 2.97
6 -7 -2 19.97 3.6
6 -7 -2 17.36 3.5
-6 7 2 21.4 3.7
6 -7 -2 19.3 3.42
6 -7 -2 20.92 3.72
-6 7 1 -0.01 1.19
6 -7 -1 1.01 1.37
6 -7 -1 0.9 1.31
-6 7 1 0.67 1.39
6 -7 -1 0.22 1.03
-6 7 0 10.91 2.59
6 -7 0 11.47 2.66
6 -7 0 11.05 2.81
-6 7 0 9.08 2.42
6 -7 0 2.38 1.45
6 -7 1 60.11 6.31
-6 7 -1 62.02 5.9
6 -7 1 46 5.47
6 -7 1 50.81 5.99
-6 7 -1 57.91 5.89
6 -7 1 53.07 5.98
-6 7 -1 63.09 5.66
6 -7 2 57.95 6.28
-6 7 -2 55.77 5.4
6 -7 2 57.35 6.05
6 -7 2 47.93 5.87
-6 7 -2 52.72 5.59
-6 7 -2 53.57 5.38
6 -7 2 48.94 5.88
6 -7 3 1.79 1.6
6 -7 3 -0.72 1.34
-6 7 -3 1.63 1.5
-6 7 -3 0.69 1.22
6 -7 3 0.15 1.04
6 -7 4 -1.27 1.11
6 -7 4 -0.13 0.99
-6 7 -4 -0.59 1.01
6 -7 4 -1.61 1.27
-6 7 -4 -0.34 1.1
6 -7 5 21.9 3.75
6 -7 5 25.19 4.23
-6 7 -5 23.72 3.71
-6 7 -5 26.94 4.18
6 -7 5 27.27 4.53
6 -7 6 8.11 2.45
6 -7 6 10.46 2.75
-6 7 -6 7.01 2.3
-6 6 7 73.64 7.08
-6 6 7 70.34 6.68
6 -6 -7 78.43 7.53
-6 6 6 513.32 20.52
6 -6 -6 525.59 21.07
-6 6 5 25.21 4.07
-6 6 5 23.52 3.86
6 -6 -5 24.44 4.01
-6 6 4 34.2 4.68
-6 6 4 25.75 3.83
6 -6 -4 31.25 4.33
-6 6 3 4.57 1.99
-6 6 3 2.58 1.44
6 -6 -3 3.37 1.46
-6 6 2 3.26 1.59
6 -6 -2 1.75 0.96
-6 6 2 3.1 1.83
6 -6 -2 3.93 1.62
6 -6 -1 30.9 4.35
-6 6 1 30.25 4.18
6 -6 -1 40.39 4.85
-6 6 1 40.2 4.75
6 -6 -1 36.69 4.4
6 -6 -1 30.47 4.43
6 -6 0 55.82 5.9
-6 6 0 68.19 5.98
6 -6 0 68.42 6.2
-6 6 0 64.64 6.07
6 -6 0 64.83 5.68
6 -6 0 65.28 6.43
6 -6 1 30.75 4.33
-6 6 -1 29.6 3.9
6 -6 1 33.46 4.36
-6 6 -1 38.85 4.68
6 -6 1 29.75 4.28
-6 6 -1 33.58 3.99
-6 6 -2 -0.02 0.9
6 -6 2 0.68 0.99
6 -6 2 1.52 1.32
6 -6 2 1.19 1.72
-6 6 -2 1.72 1.46
-6 6 -2 0.52 1.23
6 -6 2 0.65 1.11
6 -6 3 142.39 9.52
-6 6 -3 165.82 9.09
6 -6 3 141.88 9.33
6 -6 3 148.66 10.19
-6 6 -3 152.79 9.56
-6 6 -3 138.02 8.93
6 -6 3 141.16 9.75
6 -6 4 40.06 4.9
6 -6 4 43.52 5.41
-6 6 -4 45.03 5.06
6 -6 4 42.8 5.23
-6 6 -4 38.62 4.61
6 -6 5 0.1 0.88
6 -6 5 1.15 1.29
-6 6 -5 1.34 1.23
-6 6 -5 0.95 1.62
6 -6 5 0.27 0.94
6 -6 6 11.76 2.85
6 -6 6 8.51 2.55
-6 6 -6 6.24 2.16
6 -6 6 6.16 1.9
6 -6 7 49.43 5.79
6 -6 7 56.12 6.51
-6 6 -7 66.06 6.68
6 -6 8 51.44 6.1
-6 5 8 13.26 2.99
-6 5 8 7.88 2.43
-6 5 7 115.51 8.68
-6 5 7 94.27 7.64
6 -5 -7 111.94 8.81
-6 5 6 225.96 12.41
-6 5 6 196.28 11.19
6 -5 -6 227.58 12.52
-6 5 5 -1.53 1.65
-6 5 5 1.05 1.14
6 -5 -5 3.01 1.85
6 -5 -5 3.72 2.08
-6 5 4 129.93 8.78
-6 5 4 128.44 8.52
6 -5 -4 112.59 8.01
6 -5 -4 125.05 8.57
-6 5 3 25.24 3.79
-6 5 3 25.36 3.69
6 -5 -3 26.26 3.5
6 -5 -3 28.91 3.91
-6 5 2 95.2 7.23
-6 5 2 90.38 6.95
6 -5 -2 89.71 6.32
6 -5 -2 97.74 7.02
-6 5 1 40.55 4.67
6 -5 -1 45.23 4.87
-6 5 1 44.25 4.82
6 -5 -1 48.02 4.31
6 -5 -1 47.23 4.7
-6 5 0 24.32 3.52
6 -5 0 16.96 2.98
6 -5 0 18.78 3.06
-6 5 0 23.66 3.52
6 -5 0 21.2 3.08
-6 5 0 24.1 3.22
6 -5 0 22.92 3.6
-6 5 -1 18.49 3.1
6 -5 1 19.06 3.21
6 -5 1 16.59 2.89
-6 5 -1 17.53 3.07
6 -5 1 22.33 3.07
-6 5 -1 19.56 2.98
6 -5 1 17.22 3.14
6 -5 2 251.07 12.53
-6 5 -2 277.03 12.07
6 -5 2 252.32 12.13
6 -5 2 247.82 12.96
-6 5 -2 257.09 12.42
6 -5 2 249.92 12.66
-6 5 -2 267.24 12.1
6 -5 3 137.47 8.88
-6 5 -3 138.75 8
6 -5 3 129.58 8.33
6 -5 3 130.69 9.06
-6 5 -3 137.86 8.7
6 -5 3 135.67 9.01
-6 5 -3 146.41 8.86
-6 5 -4 10.3 2.11
6 -5 4 12.07 2.5
6 -5 4 15.76 3.26
-6 5 -4 13.27 2.58
-6 5 -4 22.89 3.53
6 -5 4 15.04 2.97
6 -5 5 38.66 4.87
6 -5 5 32.31 4.2
6 -5 5 34.57 4.63
-6 5 -5 34.75 4.46
-6 5 -5 35.64 4.35
6 -5 6 10.69 2.57
6 -5 6 9.78 2.58
-6 5 -6 9.41 2.4
6 -5 6 8.6 2.47
6 -5 7 41.81 5.34
6 -5 7 36.6 4.67
6 -5 7 45.54 5.54
-6 5 -7 46.18 5.36
6 -5 8 15.42 3.23
-6 5 -8 28.21 4.45
6 -5 8 20.64 3.92
6 -5 9 67.44 6.84
-6 5 -9 84.07 7.75
6 -5 9 67.73 7.2
6 -5 9 77.55 7.21
6 -4 -8 53.46 5.85
-6 4 8 52.04 6.13
6 -4 -8 46.93 5.73
6 -4 -7 27.95 4.17
-6 4 7 28.4 4.46
6 -4 -7 29.87 4.36
-6 4 7 27.38 4.06
6 -4 -6 6.2 2.14
-6 4 6 5.6 2.01
6 -4 -6 5.21 2.08
-6 4 6 7.15 2.32
-6 4 6 10.37 2.82
-6 4 5 93.32 7.54
6 -4 -5 79.21 6.62
6 -4 -5 96.31 7.47
-6 4 5 85.89 7.1
-6 4 5 89.2 6.9
6 -4 -4 47.76 4.68
6 -4 -4 44.58 4.84
6 -4 -4 36.83 3.83
-6 4 4 49.68 5.36
-6 4 4 44.2 4.69
6 -4 -3 34.73 3.89
6 -4 -3 34.73 4.23
6 -4 -3 26.79 3.09
-6 4 3 39.51 4.58
-6 4 3 36.4 4.23
-6 4 2 12.45 2.59
-6 4 2 12.64 2.53
6 -4 -2 7 1.75
6 -4 -2 9.49 2.24
-6 4 1 45.46 4.7
-6 4 1 36.64 4.21
6 -4 -1 41.66 4.28
6 -4 -1 40.21 3.95
-6 4 0 21.19 3.11
6 -4 0 14.09 2.72
6 -4 0 17.56 2.91
-6 4 0 15.73 2.83
6 -4 0 16.17 2.41
-6 4 0 16.02 2.63
6 -4 0 20.09 2.83
6 -4 1 66.83 5.65
-6 4 -1 71.23 5.69
6 -4 1 54.76 4.99
-6 4 -1 71.83 5.83
6 -4 1 68.7 5.17
6 -4 1 69.68 5.86
-6 4 -1 63.36 5.2
6 -4 2 138.54 8.42
-6 4 -2 143.95 8.13
6 -4 2 128.18 7.74
6 -4 2 132.74 8.74
-6 4 -2 135.86 8.35
6 -4 2 130.6 8.33
-6 4 -2 142.48 8.22
6 -4 3 277.2 12.69
-6 4 -3 301.17 12.31
6 -4 3 266.24 12.21
6 -4 3 255.41 13
-6 4 -3 281.87 12.84
6 -4 3 280.59 13.01
6 -4 4 102.91 7.17
6 -4 4 91.78 6.58
6 -4 4 90.49 7.21
6 -4 4 97.9 7.2
-6 4 -4 85.66 6.66
-6 4 -4 109.77 7.56
6 -4 5 0.24 0.88
6 -4 5 0.65 0.87
-6 4 -5 1.35 1.52
-6 4 -5 0.07 1.08
6 -4 5 2.24 1.38
6 -4 6 53.25 5.46
6 -4 6 52.03 5.02
6 -4 6 48.26 5.46
-6 4 -6 52.96 5.42
6 -4 7 63.54 6.15
6 -4 7 59.87 5.71
6 -4 7 62.16 6.37
6 -4 8 19.78 3.18
-6 4 -8 26.22 4.03
6 -4 8 23.99 3.93
6 -4 9 10.01 2.48
6 -4 9 5.36 1.73
-6 4 -9 8.65 2.56
6 -4 9 9.47 2.65
6 -4 10 12.08 2.86
6 -4 10 8.39 2.38
-6 4 -10 14.71 3.34
6 -4 10 8.15 2.58
-6 3 8 100.16 8.52
6 -3 -8 98.82 7.87
6 -3 -8 99.67 8.26
6 -3 -7 0.58 0.99
6 -3 -7 2.49 1.51
-6 3 7 4.93 1.99
-6 3 6 32.48 4.08
-6 3 6 49.57 5.53
6 -3 -6 41.68 4.67
6 -3 -6 44.22 5.09
6 -3 -5 -1.07 1.07
-6 3 5 1.16 1.21
-6 3 5 0.06 0.91
6 -3 -5 1.3 1.69
-6 3 5 -1.1 1.24
6 -3 -5 1.98 1.42
6 -3 -4 16.13 2.5
-6 3 4 22.01 3.5
-6 3 4 17.73 2.94
6 -3 -4 17.67 3.05
-6 3 4 22.4 3.54
6 -3 -4 19.3 2.98
6 -3 -3 252.44 10.89
-6 3 3 292.95 13.16
6 -3 -3 223.43 10.17
-6 3 3 278.31 12.28
-6 3 3 300.37 13.2
6 -3 -3 310.01 12.41
6 -3 -3 318.42 13.21
6 -3 -2 12.21 2.02
-6 3 2 14.28 2.72
6 -3 -2 8.73 1.76
-6 3 2 10.28 2.29
6 -3 -2 16.45 2.7
-6 3 2 14.07 2.65
6 -3 -2 12.27 2.38
6 -3 -1 47.03 3.92
-6 3 1 59.82 5.32
6 -3 -1 46.52 4.07
-6 3 1 58.78 5.09
6 -3 -1 63.92 5.06
6 -3 -1 69.11 4.99
6 -3 0 150.16 7.43
6 -3 0 195.6 8.97
6 -3 0 173.63 8.09
-6 3 0 164.44 8.55
-6 3 0 176.08 9.43
-6 3 0 151.55 8.29
-6 3 0 178 9.26
-6 3 -1 1.52 1.1
6 -3 1 2.96 1.22
-6 3 -1 3.7 1.41
6 -3 1 4.07 1.31
6 -3 1 3.52 1.31
6 -3 1 1.55 0.98
-6 3 -1 4.44 1.45
6 -3 1 1.07 0.67
-6 3 -1 3.38 1.59
6 -3 2 55.1 4.82
-6 3 -2 65.51 5.15
6 -3 2 66.27 4.63
6 -3 2 62.4 5.27
-6 3 -2 67.28 5.39
6 -3 2 58.05 4.72
-6 3 -2 53.37 4.46
-6 3 -2 56.13 5.08
6 -3 3 5.26 1.75
-6 3 -3 3.61 1.44
6 -3 3 5.73 1.62
-6 3 -3 3.31 1.06
6 -3 3 3.42 1.14
6 -3 3 6.01 1.78
-6 3 -3 9.05 2.14
6 -3 4 16.95 2.76
6 -3 4 20.79 2.77
6 -3 4 20.42 3.3
-6 3 -4 15.75 2.78
-6 3 -4 22.62 3.29
6 -3 4 18.26 2.94
6 -3 5 176.93 9.14
6 -3 5 185.61 10.51
-6 3 -5 189.89 9.95
6 -3 5 187.35 9.91
6 -3 6 64.7 5.69
6 -3 6 55.68 4.94
6 -3 6 55.77 5.65
-6 3 -6 72.37 6.21
6 -3 7 142.92 9.17
6 -3 7 144.43 8.56
6 -3 7 137.67 9.33
-6 3 -7 164.36 9.76
-6 3 -8 0.39 1.26
6 -3 8 -0.23 0.99
6 -3 8 -0.3 1.06
6 -3 8 0.87 0.99
-6 3 -9 54.91 5.96
6 -3 9 46.71 5.44
6 -3 9 50.7 5.73
6 -3 9 45.94 5.04
6 -3 10 15.67 2.97
-6 3 -10 23.49 4.1
6 -3 10 20.75 3.68
6 -3 11 1.87 1.85
6 -3 11 1.4 1.21
-6 3 -11 2.8 1.65
6 -3 11 2.27 1.44
6 -2 -8 28.2 4.32
-6 2 8 39.38 5.3
6 -2 -8 40.17 4.89
6 -2 -7 0.3 1.19
-6 2 7 -1.08 1.79
6 -2 -7 1.94 1.53
6 -2 -6 13.58 2.79
-6 2 6 17.93 3.31
6 -2 -6 16.44 3.04
-6 2 5 2.62 1.41
6 -2 -5 1.88 1.18
-6 2 5 3.03 1.32
6 -2 -5 3.04 1.41
-6 2 4 124.02 8.02
6 -2 -4 123.79 7.52
6 -2 -4 99.06 6.37
-6 2 4 118.03 7.26
6 -2 -4 107.15 6.75
6 -2 -3 2.01 1.36
-6 2 3 0.87 1.13
6 -2 -3 -0.52 1.08
-6 2 3 3.01 1.33
6 -2 -3 1.23 1.17
6 -2 -2 256.96 11.14
6 -2 -2 226.03 10.19
-6 2 2 254.02 11.22
6 -2 -2 240.32 10.24
6 -2 -1 364.27 13.08
-6 2 1 387.17 14.15
-6 2 1 365.16 13.01
6 -2 -1 318.36 12.21
6 -2 -1 303.33 12.42
-6 2 1 309.95 13.26
-6 2 1 370.55 13.87
6 -2 0 9.39 1.92
6 -2 0 7.75 1.61
-6 2 0 8.69 1.95
-6 2 0 7.21 1.67
-6 2 0 6.53 1.84
-6 2 0 6.63 1.69
6 -2 1 49.73 4.16
-6 2 -1 56.05 4.69
6 -2 1 55.33 4.3
-6 2 -1 48.13 4.33
-6 2 -1 63 5.05
6 -2 2 9.62 1.85
-6 2 -2 11.78 2.24
6 -2 2 8.53 1.86
6 -2 2 9.55 1.74
-6 2 -2 8.5 1.81
6 -2 2 9.57 1.79
-6 2 -2 10.59 2.16
6 -2 3 4.32 1.34
-6 2 -3 4.88 1.62
6 -2 3 2.88 1.15
-6 2 -3 3.55 1.18
6 -2 3 3.73 1.19
6 -2 3 5.03 1.57
-6 2 -3 5.89 1.59
6 -2 4 135.54 7.51
6 -2 4 138.07 7.14
-6 2 -4 133.92 7.15
6 -2 4 141.37 8.43
-6 2 -4 145.01 8.21
6 -2 4 135.19 7.69
-6 2 -4 168.07 8.89
6 -2 5 2.31 0.98
6 -2 5 4.79 1.62
-6 2 -5 3.87 1.42
-6 2 -5 6.99 1.92
6 -2 5 3.64 1.34
6 -2 6 178.18 9.42
6 -2 6 178.1 8.86
6 -2 6 177.66 10.07
6 -2 7 21.2 3.49
6 -2 7 12.84 2.27
6 -2 7 15.43 2.92
-6 2 -7 12.41 2.72
6 -2 7 12.73 2.47
-6 2 -8 195.22 10.88
6 -2 8 167.89 10.06
6 -2 8 170.71 9.79
6 -2 8 171.48 9.2
6 -2 9 119.98 8.39
6 -2 9 114.85 8.48
-6 2 -9 130.83 8.95
6 -2 10 0.86 1.14
6 -2 10 2.5 1.56
-6 2 -10 3.62 1.88
6 -2 10 1.49 1.52
-6 2 -11 84.64 7.6
6 -2 11 73.32 6.91
6 -2 11 83.84 7.56
6 -2 11 84.91 7.96
6 -2 12 36.35 5.33
6 -2 12 33.55 4.94
-6 2 -12 45.79 5.64
6 -1 -9 6.87 2.5
6 -1 -9 11.88 3.08
-6 1 8 10.66 2.89
6 -1 -8 12.4 2.79
6 -1 -7 64.91 5.44
6 -1 -7 78.75 6.54
-6 1 6 91.34 7.4
6 -1 -6 88.22 6.67
6 -1 -6 78.43 6.1
6 -1 -5 42.13 3.88
6 -1 -5 45.23 4.56
6 -1 -5 52.09 4.71
6 -1 -4 16.14 2.8
-6 1 4 20.94 3.18
6 -1 -4 19.64 2.81
6 -1 -4 18.84 2.47
6 -1 -4 16.34 2.55
-6 1 4 22.21 2.94
6 -1 -3 459 15.79
-6 1 3 491.19 16.8
6 -1 -3 419.48 14.9
6 -1 -3 356.36 13.05
6 -1 -3 388.54 14.61
-6 1 3 420.55 15.03
6 -1 -2 97.02 5.5
6 -1 -2 92.61 5.88
6 -1 -2 83.9 4.95
-6 1 2 97.54 6.2
6 -1 -2 87.04 5.77
-6 1 2 89.45 6.44
6 -1 -1 2.24 1.21
-6 1 1 -0.54 0.96
-6 1 1 1.83 1.27
6 -1 -1 1.86 1.16
-6 1 1 0.73 0.77
6 -1 -1 0.85 0.78
-6 1 0 322.35 12.33
-6 1 0 347.36 12.74
-6 1 0 317.86 12.53
-6 1 -1 -0.33 0.8
-6 1 -1 -0.28 0.74
-6 1 -1 -0.19 0.89
6 -1 1 0.12 0.64
-6 1 -1 -0.39 0.91
6 -1 2 0.12 0.6
-6 1 -2 0.23 1
6 -1 2 1.43 0.83
-6 1 -2 0.02 0.72
6 -1 2 0.56 0.43
-6 1 -2 0.82 0.81
6 -1 3 8.09 1.59
-6 1 -3 9.78 2.01
6 -1 3 9.62 1.85
-6 1 -3 7.34 1.7
6 -1 3 7.78 1.52
6 -1 3 8.36 1.67
6 -1 3 9.98 2.04
-6 1 -3 10.74 2.19
-6 1 -4 9.65 2.02
6 -1 4 12.55 2.04
-6 1 -4 12.24 2.06
6 -1 4 7.97 1.63
6 -1 4 9.73 2.06
-6 1 -4 11.71 2.18
6 -1 5 22.52 3.2
-6 1 -5 22.12 2.71
6 -1 5 26.14 3.06
-6 1 -5 27.17 3.51
6 -1 6 208.48 9.71
6 -1 6 216.14 10.87
6 -1 6 206.75 10.56
-6 1 -6 180.01 8.81
6 -1 7 128.08 7.68
6 -1 7 125.24 8.39
6 -1 7 130.63 8.42
6 -1 8 491.61 18.19
6 -1 8 517.51 19.56
-6 1 -8 550.54 19.78
6 -1 9 33.35 4.08
6 -1 9 32.26 4.51
6 -1 9 31.04 4.27
-6 1 -9 38.29 4.57
6 -1 10 114.61 8.36
6 -1 10 112.44 8
6 -1 10 107.88 8.61
6 -1 11 0.89 1.13
6 -1 11 -0.29 1.03
-6 1 -11 2.06 1.64
6 -1 11 0.38 1.02
6 -1 12 13.69 3.13
6 -1 12 7.94 2.41
-6 1 -12 16.96 3.35
6 -1 12 13.17 3.31
6 -1 13 63.73 6.84
6 0 -9 1.48 1.37
6 0 -9 8.52 2.56
6 0 -8 23.52 3.45
-6 0 8 33.27 4.74
6 0 -8 28.33 3.97
6 0 -7 29.62 3.71
-6 0 7 41.69 5
6 0 -7 33.61 4.15
6 0 -6 171.33 9.14
6 0 -6 186.23 9.92
-6 0 6 206.63 11.33
6 0 -6 189.95 10.13
6 0 -5 19.88 2.76
6 0 -5 24.88 3.37
6 0 -5 23.6 3.43
-6 0 5 25.57 3.68
6 0 -4 547.83 18.51
6 0 -4 561.44 18.82
6 0 -4 518.35 18.24
6 0 -3 24.44 3.24
-6 0 3 17.65 3.21
-6 0 3 36.12 4.15
6 0 -3 15.99 2.4
6 0 -3 25.45 3.22
-6 0 3 10.62 2
6 0 -2 29.83 3.04
6 0 -2 30.64 3.26
-6 0 2 36.58 3.86
6 0 -2 31.36 3.38
6 0 -2 26.27 2.85
6 0 -2 28.58 3.25
-6 0 2 26.61 3.57
-6 0 2 28.46 3.14
6 0 -1 62.09 4.56
6 0 -1 58.81 4.11
6 0 -1 61.75 4.86
-6 0 1 61.52 4.68
-6 0 1 53.99 4.78
6 0 -1 56.48 4.57
-6 0 1 68.31 5.06
-6 0 0 95.89 6.06
-6 0 0 95.45 6.46
6 0 0 124.72 7.02
-6 0 0 122.85 6.67
6 0 1 88.8 5.15
-6 0 -1 86.69 5.95
-6 0 -1 106.32 5.89
-6 0 -1 87.89 5.73
-6 0 -1 98.79 6.15
6 0 2 111.88 6.08
-6 0 -2 133.21 6.47
-6 0 -2 113.13 6.68
6 0 2 121.84 6.28
-6 0 -2 128.54 7.31
6 0 2 117.95 6.36
6 0 2 113.09 6.73
-6 0 -2 106.81 6.69
6 0 3 2.49 0.93
-6 0 -3 2.72 1.06
6 0 3 2.39 0.88
6 0 3 0.55 0.51
-6 0 -3 0.95 0.81
6 0 4 73.51 4.64
6 0 4 71.55 5.34
6 0 4 76.18 5.02
-6 0 -4 70.38 5.2
6 0 4 79.49 5
-6 0 -4 87.81 6.07
6 0 5 163.21 8.9
-6 0 -5 165.2 8.28
6 0 5 160.2 8.59
6 0 5 157.65 8.06
6 0 5 153.58 7.54
-6 0 -5 171.19 9.02
6 0 6 31.26 3.2
6 0 6 30.36 3.75
6 0 6 29.25 3.62
6 0 6 37.73 3.97
-6 0 -6 30.27 3.35
6 0 6 31.73 3.55
-6 0 -6 35.08 3.96
6 0 7 92.02 6.06
6 0 7 102.32 7.19
6 0 7 98.3 7.11
-6 0 -7 91.54 6.01
6 0 7 96.71 6.81
6 0 8 41.62 4.74
6 0 8 45.72 4.35
6 0 8 41.34 4.62
-6 0 -8 43.89 4.71
6 0 9 85.32 6.38
6 0 9 100.91 7.55
6 0 9 81.88 7.03
6 0 9 96.39 7.63
-6 0 -9 99.64 7.51
6 0 10 33.38 4.44
6 0 10 35.71 4.21
6 0 10 38.45 4.9
6 0 10 31.12 4.48
-6 0 -10 34.88 4.58
6 0 11 19.55 3.71
6 0 11 22.04 3.64
6 0 11 22.62 4
-6 0 -11 30.59 4.28
6 0 11 19.83 3.37
6 0 12 331.9 15.63
6 0 12 319.76 15.63
6 0 12 335.44 16.94
6 0 12 335.64 16.95
6 0 13 44.9 6.09
6 0 13 42.44 5.88
-6 0 -13 51.71 5.9
6 1 -8 6.89 1.84
-6 -1 8 11.55 2.96
6 1 -8 6.2 1.95
6 1 -7 37.28 4.29
-6 -1 7 44.57 5.22
6 1 -7 39.94 4.63
6 1 -6 35.43 3.92
6 1 -6 42.31 4.54
-6 -1 6 42.83 5.03
6 1 -6 44.76 4.6
6 1 -5 486.83 17.27
6 1 -5 519.75 18.37
6 1 -5 511.25 18.32
6 1 -4 128.61 7.64
6 1 -4 126.84 7.16
6 1 -4 139.71 8.04
-6 -1 4 125.03 8.14
6 1 -3 30.44 3.49
-6 -1 3 25.32 3.39
-6 -1 3 26.27 3.4
6 1 -3 23.66 2.91
6 1 -3 25.92 3.22
6 1 -2 153.33 7.74
6 1 -2 161.31 8.26
-6 -1 2 173.38 8.68
6 1 -2 165.21 7.94
6 1 -2 145.75 7.5
6 1 -2 146.34 8.08
-6 -1 2 154.46 8.57
-6 -1 2 149.83 7.46
6 1 -1 2.03 1.02
6 1 -1 0.82 0.56
6 1 -1 1.03 0.71
-6 -1 1 1.44 1
-6 -1 1 2.42 1.15
6 1 -1 1.76 0.82
6 1 -1 -0.22 1.06
-6 -1 1 1.28 0.83
6 1 0 71.5 5.05
6 1 0 71.66 5.02
-6 -1 0 56.97 4.87
-6 -1 0 59.65 4.55
6 1 0 76.5 5.36
-6 -1 0 76.44 5.09
6 1 1 265.21 10.99
6 1 1 259.45 9.68
-6 -1 -1 257.07 11.25
6 1 1 265.06 11.42
-6 -1 -1 298.75 10.87
-6 -1 -1 268.37 10.81
6 1 2 274.03 11.31
6 1 2 269.4 10.31
6 1 2 264.78 10.73
-6 -1 -2 253.81 11.12
-6 -1 -2 297.43 10.29
-6 -1 -2 264.49 10.91
6 1 2 263.12 9.66
-6 -1 -2 283.76 11.58
6 1 3 444.5 13.55
6 1 3 451.72 16.03
6 1 3 446.53 15.18
-6 -1 -3 430.25 15.61
6 1 3 446.18 15.32
6 1 3 431.89 14.16
-6 -1 -3 465.17 13.76
6 1 3 432.66 13.74
6 1 4 670.97 18.85
6 1 4 721.83 22.26
6 1 4 682.18 19.28
-6 -1 -4 746.5 22.36
6 1 4 719.45 21.51
6 1 4 689.62 21.18
-6 -1 -4 661.75 21.31
6 1 4 721.77 20.72
-6 -1 -5 20.77 3.01
-6 -1 -5 17.54 2.59
6 1 5 19.99 2.32
6 1 5 18.1 2.7
6 1 5 16.78 2.79
6 1 5 19.4 2.64
6 1 5 18.48 2.67
6 1 6 245.31 9.74
6 1 6 252.44 11.74
-6 -1 -6 275.45 11.98
6 1 6 253.95 11.6
6 1 6 248.2 11.09
-6 -1 -6 240.13 10.87
6 1 6 288.19 11.68
6 1 7 28.67 2.98
6 1 7 29.26 3.73
-6 -1 -7 28.52 3.82
-6 -1 -7 28.48 3.35
6 1 7 34.84 4.05
6 1 7 27.96 3.57
6 1 8 111.53 6.63
6 1 8 125.12 8.15
-6 -1 -8 136.54 8.52
-6 -1 -8 101.06 6.77
6 1 8 118.93 8.12
6 1 8 125.26 8.34
-6 -1 -9 7.38 2.11
6 1 9 7.6 1.82
-6 -1 -9 7.56 1.77
6 1 9 6.07 1.91
6 1 9 9.01 2.27
6 1 9 3.34 1.54
6 1 10 100.24 6.84
6 1 10 98.25 7.61
6 1 10 94.47 7.75
6 1 10 100.63 8.03
-6 -1 -10 120.11 8.26
6 1 11 214.82 12.07
6 1 11 233.72 13.16
6 1 11 245.54 13.41
6 1 12 13.83 3.3
6 1 12 13.63 3.28
-6 -1 -12 13.8 2.96
6 1 13 13.95 3.58
6 1 13 9.84 2.96
-6 -1 -13 13.8 3.01
-6 -1 -14 4.65 2.06
6 2 -8 3.05 1.83
-6 -2 8 2.23 1.71
6 2 -8 -1 1.49
6 2 -7 2.77 1.46
6 2 -7 1.14 1.34
-6 -2 7 2.01 1.47
6 2 -6 189.68 9.99
6 2 -6 192.79 10.41
6 2 -6 212.51 10.85
6 2 -5 1.34 1.21
-6 -2 5 2.25 1.75
6 2 -5 2.01 1.6
-6 -2 4 209.01 10.6
6 2 -4 189.22 9.62
6 2 -4 187.98 9.2
6 2 -4 198.31 9.98
-6 -2 4 176.46 9.84
-6 -2 3 306.6 12.67
6 2 -3 265 11.54
6 2 -3 254.02 11.07
6 2 -3 303.37 12.41
-6 -2 3 245.88 11.77
6 2 -2 53.7 4.41
-6 -2 2 56.8 4.86
6 2 -2 57.8 4.49
6 2 -2 49.25 4.41
6 2 -2 47.71 4.22
6 2 -2 52.53 4.64
-6 -2 2 53.84 4.81
6 2 -1 23.53 2.91
6 2 -1 23.56 2.58
-6 -2 1 30.43 3.33
-6 -2 1 20.93 2.49
6 2 -1 21.32 2.85
6 2 -1 22.98 2.87
-6 -2 1 25.47 3.23
6 2 -1 26.42 3.22
6 2 0 26.16 3.09
6 2 0 24.55 2.83
6 2 0 29.2 3.36
-6 -2 0 26.49 2.99
-6 -2 0 21.39 2.56
-6 -2 0 21.07 3
6 2 1 210.61 9.61
6 2 1 189.62 8.89
-6 -2 -1 181.41 9.26
6 2 1 213.94 9.85
-6 -2 -1 222.93 8.96
6 2 2 1004.47 27.87
6 2 2 952.86 26.33
-6 -2 -2 919.53 27.93
6 2 2 970.13 26.61
-6 -2 -2 1021.71 26.22
6 2 3 107.03 6.57
6 2 3 99.64 5.95
6 2 3 105.47 5.95
-6 -2 -3 102.7 6.56
6 2 3 113.95 5.98
6 2 3 113.24 7.08
-6 -2 -3 113.67 5.45
-6 -2 -3 118.4 7.07
6 2 4 48.32 4.49
6 2 4 47.16 4.12
6 2 4 46.76 3.93
-6 -2 -4 42.76 4.1
6 2 4 51.04 4.18
-6 -2 -4 48.98 4.53
6 2 5 401.11 15.02
6 2 5 372.86 14.24
-6 -2 -5 359.95 14.3
6 2 5 373.41 13.71
6 2 5 390.62 14.01
6 2 6 280.42 12.54
-6 -2 -6 274.81 12.29
-6 -2 -6 275.21 12.06
6 2 6 291.61 12.46
-6 -2 -7 8.25 2.06
-6 -2 -7 7.79 1.88
6 2 7 7.09 1.87
6 2 7 8.81 2.17
6 2 7 9.51 2.15
-6 -2 -8 7.11 2.05
-6 -2 -8 7.82 1.88
6 2 8 8.66 2.21
6 2 8 9.23 2.2
6 2 8 11.05 2.32
6 2 9 191.4 10.75
-6 -2 -9 215.42 10.93
-6 -2 -9 169.15 9.52
6 2 9 200.22 11.08
6 2 9 210.03 11.17
6 2 10 113.23 8.07
-6 -2 -10 118.62 8.06
-6 -2 -10 92.25 6.83
6 2 10 110.85 8.33
6 2 10 103.99 7.9
6 2 11 0.1 1.34
6 2 11 2.84 1.53
-6 -2 -11 3.75 2.08
6 2 12 101.57 8.53
6 2 12 105.85 8.77
-6 -2 -12 106.51 8.03
6 2 13 22.44 4.16
6 2 13 16.58 3.85
-6 -2 -13 20.49 3.67
6 2 14 1.58 1.95
-6 -2 -14 0.39 1.27
6 3 -8 26.72 3.9
6 3 -8 34.39 4.19
6 3 -7 8.82 2.47
6 3 -7 3.27 1.85
-6 -3 7 5.25 2.15
6 3 -6 18.17 3.15
6 3 -6 20.52 3.44
6 3 -5 48.87 4.74
6 3 -5 49.16 4.88
-6 -3 5 47.58 5.18
6 3 -4 248.47 11.4
-6 -3 4 253.75 12.07
6 3 -4 236.97 10.95
6 3 -4 257.7 11.94
-6 -3 4 227.66 11.39
6 3 -3 15.24 2.14
6 3 -3 19.27 2.91
-6 -3 3 13.56 2.65
-6 -3 3 23.5 3.39
6 3 -3 20.87 2.94
6 3 -3 22.52 3.35
6 3 -2 184.61 7.78
-6 -3 2 214.9 10
6 3 -2 179.31 9.09
6 3 -2 181.71 9.05
6 3 -2 192.58 9.68
-6 -3 2 191.22 9.7
-6 -3 1 95.2 6.06
6 3 -1 91.32 6.01
6 3 -1 81.5 4.65
6 3 -1 78.99 5.76
-6 -3 1 76.3 5.85
6 3 -1 87.43 6.19
6 3 0 2.33 1.17
-6 -3 0 2.62 1.24
-6 -3 0 0.11 0.78
6 3 0 1.26 0.72
6 3 0 2.5 1.23
6 3 0 0.38 0.56
6 3 0 0.63 0.89
6 3 1 1.6 0.98
-6 -3 -1 2.38 0.91
-6 -3 -1 2.07 1.05
6 3 1 3.39 0.88
6 3 1 1.83 0.97
6 3 1 1.8 0.96
6 3 1 5.13 1.21
-6 -3 -2 10.68 1.96
6 3 2 9.82 1.5
6 3 2 10.7 1.91
6 3 2 8.89 1.98
-6 -3 -2 9.57 1.63
-6 -3 -2 6.94 1.7
6 3 2 6.82 1.38
6 3 2 10.03 1.64
6 3 2 9.49 1.55
-6 -3 -3 52.15 4.55
6 3 3 54.49 4.66
6 3 3 48.85 3.56
6 3 3 55.5 4.25
-6 -3 -3 46.62 4.56
6 3 3 35.3 3.12
6 3 3 58.23 4.16
-6 -3 -3 44.74 3.4
-6 -3 -4 645.63 19.97
6 3 4 640.96 20.33
6 3 4 589.81 20.3
6 3 4 615.79 19.25
6 3 4 569.13 18.2
-6 -3 -4 585.67 20.04
6 3 5 593.46 19.83
6 3 5 591.97 20.09
-6 -3 -5 631.94 20.25
-6 -3 -5 552.36 19.43
6 3 5 593.48 19.28
6 3 5 594.26 18.83
6 3 6 378.52 15.22
-6 -3 -6 429.63 15.73
-6 -3 -6 361.46 14.82
6 3 6 380.85 14.94
6 3 6 432.6 15.13
-6 -3 -7 18.32 3.01
-6 -3 -7 19.71 3.04
6 3 7 15.65 2.71
6 3 7 17.91 2.82
6 3 7 22 3.1
-6 -3 -8 26.91 3.61
-6 -3 -8 27.34 3.51
6 3 8 23.39 3.5
6 3 8 23.34 3.41
6 3 8 27 3.69
-6 -3 -9 19.38 3.23
-6 -3 -9 12.96 2.51
6 3 9 14.34 2.91
6 3 9 15.02 2.8
6 3 9 16.64 3.04
-6 -3 -10 30.56 4.01
-6 -3 -10 25.45 3.6
6 3 10 24.68 3.82
6 3 10 21.96 3.6
-6 -3 -11 149.72 9.34
-6 -3 -11 122.38 8.41
6 3 11 142.63 9.92
6 3 11 157.56 10.13
6 3 12 91.38 8.13
6 3 12 110.78 8.83
-6 -3 -12 94.78 7.6
6 3 13 2.13 1.41
6 3 13 3.5 1.84
-6 -3 -13 3.67 1.91
6 3 14 22.49 4.16
6 3 14 26.7 4.82
-6 -3 -14 29.75 4.25
6 4 -8 81.76 6.7
6 4 -7 11.05 2.73
6 4 -7 20.23 3.17
-6 -4 7 19.43 3.57
-6 -4 6 71.01 6.62
6 4 -6 73.03 6.18
6 4 -6 68.01 6
6 4 -6 74.09 5.64
-6 -4 5 74.83 6.52
6 4 -5 72.28 5.93
6 4 -5 68.66 5.87
6 4 -5 65.21 5.15
6 4 -4 117.68 6.69
-6 -4 4 128.3 8.39
6 4 -4 118.23 7.56
6 4 -4 111.64 7.25
-6 -4 4 102.25 7.21
6 4 -3 99.15 5.95
-6 -4 3 113.67 7.52
6 4 -3 102.94 6.8
6 4 -3 99.94 6.67
6 4 -3 102.56 7.13
-6 -4 3 92.61 6.66
6 4 -2 256.87 10.2
6 4 -2 253.25 11.55
-6 -4 2 298.53 12.42
6 4 -2 265.93 11.51
6 4 -2 281.98 12.23
-6 -4 2 257.1 11.83
-6 -4 1 15.02 2.54
6 4 -1 19.9 2.37
-6 -4 1 18.74 2.78
6 4 -1 17.47 2.8
-6 -4 1 16.72 2.65
6 4 -1 18.72 3.02
-6 -4 0 404.45 14.78
6 4 0 369.86 12.69
6 4 0 435.22 15.3
6 4 0 404.19 15.16
-6 -4 0 359.38 14.6
-6 -4 0 409.69 14.42
6 4 0 402.29 15.03
-6 -4 -1 75.91 5.51
6 4 1 64.74 4.27
6 4 1 68.3 5.37
-6 -4 -1 64.27 5.29
-6 -4 -1 74.86 5.01
6 4 1 78.55 5.74
-6 -4 -2 103.28 6.44
6 4 2 85.94 4.99
6 4 2 85.08 6.09
6 4 2 87.3 5.1
6 4 2 94.82 5.23
-6 -4 -2 79.89 5.94
-6 -4 -2 88.88 5.23
6 4 2 92.35 6.49
-6 -4 -3 36.82 3.81
6 4 3 30.89 3.41
6 4 3 25.8 2.71
6 4 3 29.18 3.56
-6 -4 -3 31.61 2.85
6 4 3 32.69 3.23
6 4 3 29.63 3.06
-6 -4 -3 30.12 3.57
-6 -4 -4 27.85 3.44
-6 -4 -4 30.36 3.47
6 4 4 28.78 3.38
6 4 4 29.25 3.61
6 4 4 24.92 2.93
6 4 4 29.78 3.11
-6 -4 -5 169.41 9.37
-6 -4 -5 203.92 9.67
6 4 5 187.96 9.52
6 4 5 187.95 9.75
6 4 5 181.43 9.08
6 4 5 220.36 9.6
-6 -4 -6 144.11 8.54
-6 -4 -6 148.91 8.32
6 4 6 173.92 9.24
6 4 6 165.95 9.31
6 4 6 157.39 8.51
6 4 6 156.46 8.4
-6 -4 -7 49.47 4.88
-6 -4 -7 65.2 5.17
6 4 7 63.22 5.62
6 4 7 65.11 5.61
6 4 7 65.22 5.48
-6 -4 -8 128.21 8.32
-6 -4 -8 128.76 7.63
6 4 8 158.03 9.19
-6 -4 -8 146.26 8.74
6 4 8 139.53 8.67
6 4 8 158.48 9.04
6 4 9 8.07 1.87
-6 -4 -9 5.16 1.73
6 4 9 5.54 1.81
6 4 9 9.11 2.32
-6 -4 -9 5.84 1.94
6 4 9 12.14 2.68
6 4 9 5.77 1.86
6 4 10 11.1 2.4
-6 -4 -10 11.83 2.37
-6 -4 -10 11.99 2.53
6 4 10 11.55 2.3
-6 -4 -10 12.82 2.35
6 4 10 16.31 2.92
6 4 10 14.22 2.85
-6 -4 -10 13.32 2.64
-6 -4 -10 13.74 2.54
-6 -4 -10 12.79 2.38
6 4 10 15.49 3.03
6 4 10 8.92 2.69
6 4 11 159.49 9.36
-6 -4 -11 167.81 9.73
-6 -4 -11 131.09 9.23
6 4 11 163.61 9.5
6 4 11 164.57 9.79
-6 -4 -11 164.52 9.23
-6 -4 -11 155.55 9.4
6 4 11 175.4 10.3
-6 -4 -11 150.98 9.59
-6 -4 -11 163.19 9.26
-6 -4 -11 165.4 9.26
-6 -4 -11 165.77 9.51
6 4 11 164.09 10.65
6 4 11 172.04 10.62
6 4 12 50.82 5.42
-6 -4 -12 42.61 4.97
-6 -4 -12 35.6 4.65
6 4 12 38.75 4.66
6 4 12 43.15 5.1
-6 -4 -12 34.52 4.35
-6 -4 -12 42.45 4.87
6 4 12 39.19 4.85
-6 -4 -12 43.87 4.97
-6 -4 -12 47.64 4.97
-6 -4 -12 42.59 4.78
-6 -4 -12 43.09 4.88
6 4 12 40.24 5.32
6 4 12 43.54 5.64
6 4 13 102.32 8.17
-6 -4 -13 117.53 8.86
-6 -4 -13 79.95 7.34
6 4 13 110.65 8.5
6 4 13 102.62 8.44
-6 -4 -13 110.21 8.07
-6 -4 -13 105.46 8.25
6 4 13 99.44 7.92
-6 -4 -13 105.56 8.07
-6 -4 -13 114.12 8.31
-6 -4 -13 110.53 8.23
-6 -4 -13 111.35 8.49
6 4 13 96.77 8.65
6 4 13 111.91 9.34
6 4 14 57.31 6.29
6 4 14 62.06 6.49
6 4 14 66.33 6.99
-6 -4 -14 65.03 6.56
6 4 14 61.51 6.96
6 4 14 63.79 7.33
6 4 15 59.48 6.59
6 4 15 59.51 6.62
6 4 15 62.08 7.01
6 5 -7 6.22 2.21
6 5 -7 2.81 1.64
-6 -5 6 6.95 2.36
6 5 -6 6.72 1.82
6 5 -6 11.3 2.66
6 5 -6 8.28 2.23
-6 -5 5 310.68 14.75
6 5 -5 303.78 12.7
6 5 -5 282.15 13.24
6 5 -5 301.82 13.44
6 5 -4 232.25 11.38
6 5 -4 246.45 10.86
-6 -5 4 247.19 12.51
6 5 -4 239.4 11.57
-6 -5 4 239.45 11.59
-6 -5 3 0.6 1.07
6 5 -3 2.03 1.35
6 5 -3 1.35 1.1
-6 -5 3 0.84 1.06
6 5 -3 1.71 1.35
6 5 -3 0.07 1.04
6 5 -2 129.43 7.78
-6 -5 2 143.24 8.37
-6 -5 2 120.72 7.34
6 5 -2 125.78 6.98
6 5 -2 142.69 8.18
-6 -5 2 129.74 7.92
6 5 -2 143.11 8.42
-6 -5 1 250.19 11.25
-6 -5 1 235.43 10.73
6 5 -1 222.83 9.62
6 5 -1 250.49 11.42
-6 -5 1 233.16 11.04
-6 -5 0 66.06 5.11
-6 -5 0 68.22 5.36
6 5 0 69.28 4.7
6 5 0 69.71 5.47
6 5 0 59.99 5.27
-6 -5 0 61.64 5.26
-6 -5 -1 70.76 5.02
6 5 1 72.61 5.66
-6 -5 -1 74.41 5.6
6 5 1 58.98 4.3
6 5 1 64.5 5.32
-6 -5 -1 59.69 5.16
6 5 1 67.5 5.46
-6 -5 -2 181.84 8.18
6 5 2 191.88 9.74
-6 -5 -2 182.26 9.31
6 5 2 182.27 9.38
6 5 2 169.82 7.95
6 5 2 185.61 8.06
-6 -5 -2 157.81 8.9
-6 -5 -3 0.52 0.73
6 5 3 1.06 0.97
-6 -5 -3 0.43 0.68
-6 -5 -3 0.06 0.85
6 5 3 -0.62 0.74
6 5 3 1.21 1.1
6 5 3 0.45 0.63
6 5 3 0.12 0.5
-6 -5 -4 2.88 1.53
6 5 4 1.78 1.16
-6 -5 -4 1.9 1.25
6 5 4 3.05 1.12
6 5 4 1.06 0.7
-6 -5 -5 78.1 6.13
6 5 5 81.33 6.26
-6 -5 -5 93.28 6.41
6 5 5 86.57 6.11
6 5 5 85.04 5.93
-6 -5 -6 1.01 0.96
6 5 6 0.32 0.78
-6 -5 -6 1.4 1.03
6 5 6 -0.11 0.72
6 5 6 0.93 0.86
6 5 7 210.33 9.56
-6 -5 -7 196.13 10.81
-6 -5 -7 220.85 10.6
6 5 7 249.27 11.73
6 5 7 224.94 11.12
6 5 7 247.85 11.27
6 5 8 274.79 12.65
6 5 8 282.74 11.9
-6 -5 -8 274.04 11.83
-6 -5 -8 240.39 12.43
-6 -5 -8 287.37 11.42
-6 -5 -8 277.51 11.25
-6 -5 -8 273.67 11.23
6 5 8 291.12 13.23
-6 -5 -8 286.09 11.43
-6 -5 -8 290.18 11.27
6 5 8 280.94 13.17
-6 -5 -8 269.14 11.92
6 5 9 38.43 4.42
6 5 9 36.81 3.99
-6 -5 -9 38.56 4.14
-6 -5 -9 29.54 4.06
6 5 9 29.11 3.6
-6 -5 -9 37.51 3.79
-6 -5 -9 39.42 3.9
6 5 9 34.55 4.4
-6 -5 -9 34.97 3.65
-6 -5 -9 37.19 3.75
6 5 9 34.55 4.41
-6 -5 -9 28.14 3.62
6 5 10 228.65 12.46
6 5 10 257.29 11.82
-6 -5 -10 236.89 11.56
-6 -5 -10 202.34 11.82
6 5 10 250.87 11.6
-6 -5 -10 249.15 11.2
-6 -5 -10 239.19 11.18
6 5 10 250.14 12.37
-6 -5 -10 252.74 11.33
-6 -5 -10 250.13 11.22
6 5 10 245.59 12.86
-6 -5 -10 181.61 10.04
6 5 11 270.63 12.79
-6 -5 -11 251.15 12.66
-6 -5 -11 212.89 12.42
6 5 11 261.17 12.38
6 5 11 250.88 12.45
-6 -5 -11 256.98 12.12
-6 -5 -11 259.52 12.33
6 5 11 274.27 13.32
-6 -5 -11 277.14 12.76
-6 -5 -11 264.74 12.28
-6 -5 -11 257.03 12.09
6 5 11 242.37 13.35
6 5 11 259.4 13.59
6 5 12 71.74 6.47
-6 -5 -12 91.81 7.41
-6 -5 -12 65.31 6.61
6 5 12 77.53 6.86
6 5 12 78.24 7
-6 -5 -12 82.97 6.75
-6 -5 -12 79.18 6.85
6 5 12 73.43 6.73
-6 -5 -12 81.04 6.9
-6 -5 -12 87.52 6.91
-6 -5 -12 80.32 6.65
6 5 12 82.03 7.63
6 5 12 73.51 7.38
6 5 13 3.48 1.9
-6 -5 -13 3.25 1.89
-6 -5 -13 1.8 2.01
6 5 13 3.23 1.61
-6 -5 -13 1.88 1.23
6 5 13 3.95 1.91
6 5 13 5 1.84
-6 -5 -13 3.48 1.48
-6 -5 -13 3.41 1.44
-6 -5 -13 2.44 1.24
6 5 13 3.45 2.07
-6 -5 -13 0.21 1.16
6 5 13 3.96 1.84
6 5 14 24.41 4.15
-6 -5 -14 15.51 3.41
-6 -5 -14 17.05 3.83
-6 -5 -14 16.83 3.4
6 5 14 14.56 3.62
6 5 14 17.57 3.92
-6 -5 -14 17.39 3.67
-6 -5 -14 14.3 3.38
-6 -5 -14 18.36 3.56
6 5 14 24.76 4.5
-6 -5 -14 17.43 3.64
6 5 14 14.68 3.78
-6 -5 -15 89.06 7.89
-6 -5 -15 86.14 7.94
-6 -5 -15 86.42 7.72
-6 -5 -15 90.68 8.01
-6 -5 -15 86.16 7.95
6 5 15 83.92 8.16
-6 -5 -15 75.39 7.96
6 5 15 93.81 8.43
6 5 15 76.88 7.7
-6 -6 6 0.31 1.52
6 6 -6 -1.09 1.5
6 6 -6 3.48 1.91
6 6 -6 1.84 1.48
-6 -6 5 46.37 5.36
6 6 -5 40.16 4.32
6 6 -5 35.15 4.44
6 6 -5 34.37 4.27
6 6 -4 0.42 1.09
6 6 -4 0.97 1.04
-6 -6 4 1.22 1.57
6 6 -4 1.43 1.12
-6 -6 4 1.12 1.06
6 6 -3 7.23 1.93
6 6 -3 6.19 1.65
-6 -6 3 6.19 2.04
6 6 -3 3.52 1.82
-6 -6 3 3.03 1.29
6 6 -2 48.84 4.74
-6 -6 2 53.25 5.27
-6 -6 2 52.12 4.72
6 6 -2 52.39 4.52
6 6 -2 48.74 4.8
-6 -6 2 52.93 4.92
6 6 -2 57.83 5.28
-6 -6 1 87.02 6.39
-6 -6 1 82.49 6.07
6 6 -1 71.13 5.24
6 6 -1 81.97 6.2
6 6 -1 72.42 5.98
-6 -6 1 71.45 5.73
-6 -6 0 555.72 18.99
-6 -6 0 570.12 19.44
6 6 0 547.03 17.81
6 6 0 564.25 19.44
-6 -6 0 535.49 19
-6 -6 -1 230.93 10.35
6 6 1 228.07 9.81
-6 -6 -1 246.02 11.33
6 6 1 240.16 11.25
6 6 1 235.93 11
-6 -6 -1 207.47 10.59
6 6 2 2.28 1.12
-6 -6 -2 2.11 1.11
-6 -6 -2 1.49 1.17
6 6 2 0.95 0.72
6 6 2 1.16 1.33
6 6 2 1.6 0.93
-6 -6 -2 0.25 0.78
-6 -6 -3 2.37 1.21
6 6 3 7.1 1.86
-6 -6 -3 2.57 1.04
-6 -6 -3 3.28 1.36
6 6 3 6.18 1.61
6 6 3 3.86 1.51
6 6 3 4.86 1.4
6 6 3 5.16 1.5
-6 -6 -4 13.14 2.56
6 6 4 15.39 2.85
-6 -6 -4 15.98 2.74
6 6 4 16.2 2.8
6 6 4 16.83 2.56
6 6 4 13.26 2.31
-6 -6 -5 0.75 1.03
-6 -6 -5 1.32 1.15
6 6 5 0 0.87
6 6 5 0.43 0.83
6 6 5 0.23 0.73
6 6 6 97.04 6.66
-6 -6 -6 81.89 6.7
-6 -6 -6 96.22 5.67
-6 -6 -6 94.64 5.61
-6 -6 -6 93.54 5.53
6 6 6 101.75 7.17
-6 -6 -6 93.49 5.54
6 6 6 97.52 6.86
-6 -6 -6 98.63 6.86
6 6 7 208.83 10.58
6 6 7 202.46 9.47
-6 -6 -7 208.9 9.71
-6 -6 -7 182.66 10.51
-6 -6 -7 197.85 9.17
-6 -6 -7 196.52 9.04
-6 -6 -7 206.81 9.13
6 6 7 208.19 10.82
-6 -6 -7 204.63 9.24
-6 -6 -7 206.05 9.11
6 6 7 188.66 10.11
-6 -6 -7 194.32 10.07
6 6 8 92.9 7.03
6 6 8 100.01 6.46
-6 -6 -8 99.94 6.56
-6 -6 -8 80.45 6.85
-6 -6 -8 82.87 5.87
-6 -6 -8 88.93 5.99
-6 -6 -8 90.14 5.98
6 6 8 89.91 7
-6 -6 -8 93.13 6.12
-6 -6 -8 87.86 5.87
6 6 8 76.6 6.5
-6 -6 -8 83.43 6.41
6 6 9 366.97 15.63
6 6 9 378.32 14.82
-6 -6 -9 383.73 15.08
-6 -6 -9 323.23 15.53
-6 -6 -9 372.37 14.56
-6 -6 -9 360.42 14.31
-6 -6 -9 351.76 14.29
6 6 9 402.1 16.2
-6 -6 -9 386.92 14.62
-6 -6 -9 372.13 14.36
6 6 9 340.15 15.46
-6 -6 -9 328.38 14.21
6 6 10 0.74 1.12
6 6 10 0.26 0.88
-6 -6 -10 0.39 1.1
-6 -6 -10 -0.04 1.06
6 6 10 2.42 1.57
-6 -6 -10 -0.52 1.1
6 6 10 -0.38 1.06
-6 -6 -10 -0.2 1.08
-6 -6 -10 0.15 0.72
-6 -6 -10 -0.16 1.11
6 6 10 -0.45 1.04
-6 -6 -10 0.79 1.22
6 6 11 80.98 7.19
6 6 11 75.97 6.64
-6 -6 -11 72.75 6.53
-6 -6 -11 68.76 6.82
6 6 11 70.01 6.16
-6 -6 -11 73.98 6.15
-6 -6 -11 75.11 6.26
6 6 11 77.27 6.69
-6 -6 -11 78.13 6.31
-6 -6 -11 73.92 6.07
6 6 11 65.17 6.82
-6 -6 -11 61.81 5.3
6 6 12 3.16 1.58
-6 -6 -12 1.28 1.14
-6 -6 -12 3.35 1.91
6 6 12 3.54 1.61
-6 -6 -12 1.22 1.2
6 6 12 1.88 1.36
-6 -6 -12 3.64 1.77
-6 -6 -12 4.4 1.82
-6 -6 -12 0.6 1.21
6 6 12 2.34 1.78
6 6 12 8.25 2.82
6 6 13 161.76 11.05
-6 -6 -13 162.91 10.88
-6 -6 -13 140.9 10.65
6 6 13 181.21 11.03
-6 -6 -13 173.61 10.5
-6 -6 -13 167.84 10.59
6 6 13 168.83 10.35
-6 -6 -13 179.16 10.78
-6 -6 -13 169.8 10.44
6 6 13 152.05 11.06
6 6 13 160.44 11.26
6 6 14 316.86 15.88
-6 -6 -14 332.54 16.51
-6 -6 -14 304.19 15.23
-6 -6 -14 294.35 15.49
6 6 14 338.31 16.33
6 6 14 286.46 15.87
-6 -6 -14 297.28 15.64
-6 -6 -14 318.57 15.61
-6 -6 -14 311.75 15.36
6 6 14 297.5 16.33
6 6 14 316.55 17.06
-6 -6 -15 261.26 14.34
-6 -6 -15 255.25 14.49
-6 -6 -15 257.49 14.58
-6 -6 -15 264.08 14.48
-6 -6 -15 252.3 14.1
6 6 15 282.24 15.56
-6 -6 -15 279.35 15.75
6 6 15 269.05 15.02
6 6 15 278.53 15.36
-6 -7 5 69.32 6.89
6 7 -5 62.36 5.74
6 7 -5 67.16 6.32
6 7 -5 67.39 5.99
-6 -7 4 111.69 8.47
6 7 -4 96.07 7.06
6 7 -4 103.69 7.67
6 7 -4 96.42 7.13
6 7 -3 52.74 4.97
6 7 -3 56.24 5.1
-6 -7 3 55.12 5.66
6 7 -3 56.02 5.45
-6 -7 3 49.79 4.8
-6 -7 2 4.54 1.56
6 7 -2 6.47 1.87
6 7 -2 6.19 1.91
-6 -7 2 2.01 1.05
-6 -7 2 5.57 1.88
6 7 -2 6.29 1.8
6 7 -2 6.74 2.09
6 7 -1 125.23 7.62
-6 -7 1 121.87 8.1
-6 -7 1 121.2 7.93
6 7 -1 118.67 7.24
6 7 -1 130.86 8.11
6 7 -1 115.95 7.7
-6 -7 1 119.46 7.69
-6 -7 0 5.07 1.78
6 7 0 5.42 1.71
-6 -7 0 5.9 1.84
-6 -7 0 4.68 1.75
6 7 0 6.8 1.82
-6 -7 -1 64.19 5.6
6 7 1 54.41 4.71
6 7 1 50.44 5.04
6 7 1 55.58 5.05
-6 -7 -1 53.47 5.08
6 7 1 49.83 4.15
-6 -7 -1 57.51 5.04
-6 -7 -2 135.46 8.33
6 7 2 117.17 7.65
6 7 2 119.4 7.06
6 7 2 119.06 7.58
-6 -7 -2 112.78 7.6
6 7 2 116.38 6.9
-6 -7 -2 116.92 7.03
-6 -7 -3 50.67 4.98
6 7 3 41.47 4.52
6 7 3 41.97 4.11
-6 -7 -3 51.33 4.23
6 7 3 51.9 4.31
6 7 3 51.34 3.95
-6 -7 -3 47.96 4.93
6 7 3 57.71 4.71
6 7 4 49.67 4.45
-6 -7 -4 52.41 5.14
-6 -7 -4 48.43 3.83
-6 -7 -4 45.36 3.73
-6 -7 -4 50.48 3.9
-6 -7 -4 45.2 3.78
6 7 4 55.15 5.27
-6 -7 -4 46.85 3.79
6 7 4 48.99 4.47
6 7 4 47.9 3.9
-6 -7 -4 45.8 4.73
6 7 4 45.91 4.86
6 7 5 236.29 11
-6 -7 -5 202.48 11.02
-6 -7 -5 209.76 9.19
-6 -7 -5 207.22 9.15
-6 -7 -5 207.8 9.09
-6 -7 -5 210.79 9.22
6 7 5 242.25 11.68
-6 -7 -5 211.23 9.12
6 7 5 215.83 10.42
6 7 5 195.17 9.26
-6 -7 -5 228.04 11.3
6 7 5 205.1 10.58
6 7 6 15.84 2.69
-6 -7 -6 10.88 2.61
-6 -7 -6 13.35 2.13
-6 -7 -6 12.25 2.08
-6 -7 -6 15.75 2.33
6 7 6 8.53 2.26
-6 -7 -6 13.77 2.15
6 7 6 11.32 2.32
-6 -7 -6 13.94 2.81
6 7 7 51.29 5.03
-6 -7 -7 42.43 4.96
6 7 7 49.75 4.52
-6 -7 -7 50.93 4.64
-6 -7 -7 47.56 4.28
-6 -7 -7 54.24 4.57
-6 -7 -7 51.63 4.47
6 7 7 53.74 5.39
-6 -7 -7 49.2 4.38
-6 -7 -7 53.32 4.44
6 7 7 50.98 5.1
-6 -7 -7 62.13 5.65
6 7 8 557.04 20.24
6 7 8 546.08 19.01
-6 -7 -8 559.79 19.35
-6 -7 -8 480.19 20.27
-6 -7 -8 566.71 18.86
-6 -7 -8 542.09 18.56
-6 -7 -8 560.2 18.64
6 7 8 527.78 19.87
-6 -7 -8 569.03 18.88
-6 -7 -8 567.15 18.64
6 7 8 547.9 20.24
-6 -7 -8 516.12 19.45
6 7 9 0.56 1.25
6 7 9 -0.52 1.27
-6 -7 -9 -1.05 1.34
-6 -7 -9 -0.52 1.54
-6 -7 -9 0.23 0.9
-6 -7 -9 -0.4 0.8
6 7 9 0.43 0.94
-6 -7 -9 1.63 1.22
-6 -7 -9 -1.5 1.09
-6 -7 -9 -0.26 0.82
6 7 9 -1.7 1.28
-6 -7 -9 1.91 1.31
6 7 10 181.14 10.7
6 7 10 180 10.1
-6 -7 -10 182.81 10.4
-6 -7 -10 154.09 10.49
-6 -7 -10 164.35 9.82
-6 -7 -10 164.25 9.49
-6 -7 -10 157.59 9.49
6 7 10 174.3 10.14
-6 -7 -10 163.25 9.52
-6 -7 -10 153.67 9.22
6 7 10 170.75 10.78
-6 -7 -10 151.66 9.12
6 7 11 0.22 0.98
6 7 11 -0.2 1.29
-6 -7 -11 1.52 1.28
-6 -7 -11 0.19 1.29
6 7 11 -0.07 0.8
-6 -7 -11 0.24 1.09
6 7 11 0.85 1.06
-6 -7 -11 1.99 1.35
-6 -7 -11 1.91 1.27
-6 -7 -11 0.22 0.92
6 7 11 -0.22 1.01
-6 -7 -11 0.53 0.86
6 7 12 218.6 12.12
-6 -7 -12 208.63 12.09
-6 -7 -12 171.51 11.96
6 7 12 195.56 11.91
-6 -7 -12 197.6 11.41
-6 -7 -12 194.51 11.59
6 7 12 214.99 11.73
-6 -7 -12 207.87 11.68
-6 -7 -12 208.73 11.64
6 7 12 209.93 12.73
6 7 12 205.25 12.51
6 7 13 19.71 3.7
-6 -7 -13 13.28 3.04
-6 -7 -13 12.8 3.33
-6 -7 -13 9.36 2.69
6 7 13 12.93 3.19
-6 -7 -13 15.88 3.1
-6 -7 -13 18.65 3.44
-6 -7 -13 12.63 3.01
6 7 13 9.63 2.78
6 7 13 14.66 3.45
6 7 14 169 11.59
-6 -7 -14 162.46 11.59
-6 -7 -14 141.78 11.38
-6 -7 -14 157.08 10.66
-6 -7 -14 184.66 11.6
6 7 14 179.25 11.72
-6 -7 -14 180.67 11.42
-6 -7 -14 165.95 10.91
6 7 14 169.49 12.07
6 7 14 179.74 12.34
-6 -7 -15 7.57 2.49
-6 -7 -15 3.57 1.89
-6 -7 -15 6.89 2.38
-6 -7 -15 5.74 2.56
-6 -7 -15 5.25 2.08
-6 -8 4 99.42 8.31
6 8 -4 96.36 7.28
6 8 -4 95.51 7.5
6 8 -4 78.61 6.31
-6 -8 3 16.07 3.28
6 8 -3 10 2.4
6 8 -3 15.43 2.86
6 8 -3 13.05 2.69
-6 -8 2 72.24 6.64
-6 -8 2 63.96 5.71
6 8 -2 61.89 5.42
6 8 -2 66.2 5.99
6 8 -2 54.64 5.11
6 8 -1 48.48 4.68
-6 -8 1 47.08 5.14
-6 -8 1 58.83 5.5
6 8 -1 50.62 4.87
6 8 -1 50.43 5.2
6 8 -1 51.11 5.07
-6 -8 1 47.63 4.72
-6 -8 0 1.06 0.92
6 8 0 3.13 1.29
-6 -8 0 0.04 1
-6 -8 0 0.92 0.91
6 8 0 4.65 1.9
-6 -8 -1 10.3 2.38
6 8 1 6.89 1.81
-6 -8 -1 12.29 2.67
6 8 1 8.04 2.02
6 8 1 8.13 1.85
-6 -8 -1 8.72 2.19
6 8 2 55.02 5.28
6 8 2 70.4 5.48
-6 -8 -2 64.85 5.44
6 8 2 64.78 4.86
-6 -8 -2 65.57 5.8
6 8 2 64.66 5.54
6 8 2 64.83 5.22
6 8 3 4.93 1.84
6 8 3 4.69 1.58
-6 -8 -3 6.97 2
-6 -8 -3 7.12 1.55
-6 -8 -3 6.06 1.41
-6 -8 -3 6.17 1.6
-6 -8 -3 3.86 1.18
-6 -8 -3 6.94 1.79
-6 -8 -3 4.74 1.37
6 8 3 4.62 1.3
-6 -8 -3 6.97 2.19
6 8 3 9.46 2
6 8 3 6.75 2.03
6 8 4 586.11 19.32
-6 -8 -4 544.94 17.55
-6 -8 -4 535.72 17.54
-6 -8 -4 565.43 17.84
-6 -8 -4 538.71 17.71
-6 -8 -4 504.44 19.75
-6 -8 -4 552.53 17.66
6 8 4 579.35 18.96
6 8 4 487.86 17.46
-6 -8 -4 602.48 20.91
6 8 4 517.32 19.21
6 8 4 507.03 18.64
6 8 5 8.99 2.09
-6 -8 -5 9.28 2.57
-6 -8 -5 7.18 1.75
-6 -8 -5 7.59 1.73
-6 -8 -5 10.81 2.08
-6 -8 -5 8.3 1.77
-6 -8 -5 8.17 1.77
6 8 5 8.56 1.82
6 8 5 9.71 2.15
-6 -8 -5 8.84 2.34
6 8 5 7.16 2.15
6 8 6 93 6.78
-6 -8 -6 73.83 6.63
-6 -8 -6 80.61 5.69
-6 -8 -6 79.81 5.62
-6 -8 -6 75.16 5.49
6 8 6 96.11 7.13
-6 -8 -6 84.92 5.8
6 8 6 81.68 6.46
-6 -8 -6 79.6 6.69
6 8 6 69.18 6.03
6 8 7 154.11 9.18
-6 -8 -7 121.33 8.93
-6 -8 -7 135.19 7.92
-6 -8 -7 144.9 8.05
-6 -8 -7 131.86 7.73
6 8 7 154.55 9.35
-6 -8 -7 144.52 8
6 8 7 137.87 8.79
-6 -8 -7 142.48 9.08
6 8 7 121.15 8.21
6 8 8 22.7 3.56
-6 -8 -8 24.14 3.49
6 8 8 25.94 3.6
-6 -8 -8 17.74 3.48
-6 -8 -8 16.83 2.82
-6 -8 -8 17.33 2.8
-6 -8 -8 16.9 2.78
6 8 8 23.3 3.69
-6 -8 -8 18.09 2.85
-6 -8 -8 24.58 3.32
6 8 8 22.46 3.72
-6 -8 -8 18.32 3.25
6 8 9 106.49 8.09
6 8 9 102.27 7.53
-6 -8 -9 98.98 7.55
-6 -8 -9 95.39 8.12
-6 -8 -9 107.58 7.41
-6 -8 -9 101.04 7.13
-6 -8 -9 105.12 7.23
6 8 9 106.85 7.87
-6 -8 -9 109.97 7.53
-6 -8 -9 100.52 7.08
6 8 9 112.17 8.32
-6 -8 -9 113.85 8.03
6 8 10 28.74 4.33
6 8 10 19.84 3.31
-6 -8 -10 21.18 3.46
-6 -8 -10 23.11 4.03
-6 -8 -10 23.42 3.7
-6 -8 -10 22.24 3.49
-6 -8 -10 21.95 3.41
6 8 10 27.08 4.01
-6 -8 -10 20.15 3.29
-6 -8 -10 23.57 3.59
6 8 10 23.09 4.01
-6 -8 -10 23.65 3.67
6 8 11 66.3 6.6
6 8 11 47.86 5.5
-6 -8 -11 57.12 6.14
-6 -8 -11 49.89 6.12
-6 -8 -11 55.33 5.7
-6 -8 -11 54.27 5.55
-6 -8 -11 54.19 5.59
6 8 11 64.01 6.09
-6 -8 -11 61.08 5.88
-6 -8 -11 56.1 5.6
6 8 11 58.44 6.35
-6 -8 -11 47.97 5.06
6 8 12 42.29 5.35
-6 -8 -12 38.67 5.19
-6 -8 -12 30.53 5.12
-6 -8 -12 40.51 5.15
-6 -8 -12 37.27 4.83
-6 -8 -12 38.7 4.9
6 8 12 47.03 5.24
-6 -8 -12 46.07 5.39
-6 -8 -12 37.92 4.78
6 8 12 52.2 6.29
6 8 12 42.27 5.56
6 8 13 73.27 7.24
-6 -8 -13 62.7 6.87
-6 -8 -13 53.22 6.81
-6 -8 -13 69.86 6.83
-6 -8 -13 67.61 6.73
-6 -8 -13 62 6.64
6 8 13 65.46 6.93
-6 -8 -13 69.24 6.85
-6 -8 -13 64.08 6.55
6 8 13 76.29 7.71
6 8 13 70.05 7.32
6 8 14 144.1 10.55
-6 -8 -14 145.37 10.86
-6 -8 -14 112.8 10.34
6 8 14 142.48 10.41
-6 -8 -14 132.28 9.85
-6 -8 -14 144.4 10.44
-6 -8 -14 127.83 9.79
-6 -8 -14 140.38 10.07
6 8 14 139.09 10.88
6 8 14 146.65 11.1
-6 -9 3 70.32 7.06
6 9 -3 72.22 6.3
6 9 -3 71.06 6.58
-6 -9 2 64.02 6.53
6 9 -2 69.34 6.24
6 9 -2 73.42 6.34
-6 -9 1 2.88 1.71
6 9 -1 2.53 1.26
-6 -9 1 7.21 2.31
6 9 -1 3.7 1.74
6 9 -1 3.56 1.51
-6 -9 0 14.88 2.7
6 9 0 14.92 2.87
-6 -9 0 14.81 2.94
6 9 0 14.8 2.75
6 9 0 12.56 2.53
6 9 0 13.23 2.68
-6 -9 0 10.44 2.56
6 9 1 40.78 4.44
-6 -9 -1 44.16 4.43
-6 -9 -1 42.01 4.91
6 9 1 43.63 4.5
-6 -9 -1 40.53 4.68
6 9 1 36.35 4.03
6 9 1 36.89 3.95
-6 -9 -1 39.47 4.39
6 9 1 43.93 4.58
6 9 2 -0.39 0.93
6 9 2 1.11 0.98
-6 -9 -2 -0.16 0.9
-6 -9 -2 0.53 1.03
-6 -9 -2 0.71 0.9
-6 -9 -2 0.44 0.83
-6 -9 -2 1.85 1.25
-6 -9 -2 0.72 1.09
6 9 2 -0.05 0.79
6 9 2 1.81 1.51
-6 -9 -2 1.58 1.45
6 9 3 49.8 4.88
6 9 3 61.11 5.26
-6 -9 -3 49.52 5.22
-6 -9 -3 51.99 4.61
-6 -9 -3 51.55 4.54
-6 -9 -3 55.54 4.73
-6 -9 -3 52.49 4.56
-6 -9 -3 52.34 4.96
6 9 3 53.38 4.84
-6 -9 -3 64.67 6.22
6 9 3 49.05 5.16
6 9 3 48.93 4.92
6 9 4 1.24 1.21
6 9 4 3.87 1.33
-6 -9 -4 4.98 1.56
-6 -9 -4 2.83 1.33
-6 -9 -4 4.67 1.48
-6 -9 -4 4.05 1.48
-6 -9 -4 3.51 1.61
-6 -9 -4 2.2 1.2
6 9 4 4.02 1.48
6 9 4 3.53 1.48
-6 -9 -4 1.9 1.48
6 9 4 1.95 1.01
6 9 4 2.58 1.48
6 9 5 119.07 7.83
-6 -9 -5 113.65 7.01
-6 -9 -5 107.67 6.89
-6 -9 -5 112.21 7.06
-6 -9 -5 114.16 7.14
-6 -9 -5 117.9 8.53
-6 -9 -5 120.34 7.23
6 9 5 126.91 7.92
6 9 5 105.24 7.07
-6 -9 -5 117.38 8.53
6 9 5 102.27 7.41
6 9 6 404.88 16.26
-6 -9 -6 393.75 14.93
-6 -9 -6 372.92 14.73
-6 -9 -6 383.4 14.85
-6 -9 -6 377.7 14.88
-6 -9 -6 326.91 16.06
-6 -9 -6 389.79 14.86
6 9 6 397.18 15.94
6 9 6 351.57 14.77
-6 -9 -6 398.56 16.98
6 9 6 346.98 15.23
6 9 7 21.7 3.4
-6 -9 -7 17.83 2.89
-6 -9 -7 22 3.2
-6 -9 -7 21.67 3.19
-6 -9 -7 19.36 3.61
-6 -9 -7 22.4 3.19
6 9 7 27.33 3.9
-6 -9 -7 19.09 3.56
6 9 7 14.21 2.86
6 9 8 541.51 20.37
-6 -9 -8 525.11 19.17
-6 -9 -8 521.93 19.02
-6 -9 -8 532.79 19.17
-6 -9 -8 492.49 21.02
-6 -9 -8 552.33 19.27
6 9 8 542.85 20.44
-6 -9 -8 493.13 20
6 9 9 121.42 8.69
-6 -9 -9 107.5 7.78
-6 -9 -9 109.64 7.78
-6 -9 -9 115.3 7.93
-6 -9 -9 118.47 8.43
-6 -9 -9 111.52 9.13
6 9 9 102.14 7.79
-6 -9 -9 105.95 7.69
-6 -9 -9 125.82 8.21
6 9 9 105.39 8.25
-6 -9 -9 114 8.42
6 9 9 95.47 7.31
6 9 10 3.7 1.81
6 9 10 4.66 1.87
-6 -9 -10 7.89 2.34
-6 -9 -10 4.38 2.24
-6 -9 -10 5.79 1.97
-6 -9 -10 8.69 2.42
-6 -9 -10 4.43 1.76
-6 -9 -10 4.89 2.1
-6 -9 -10 7.58 2.3
6 9 10 7.26 2.29
-6 -9 -10 7.67 2.33
6 9 11 1.09 1.24
6 9 11 1.24 1.15
-6 -9 -11 1.13 1.72
-6 -9 -11 1.64 1.54
-6 -9 -11 0.56 1.14
-6 -9 -11 -0.56 1.27
6 9 11 0.83 0.89
-6 -9 -11 -0.04 1
-6 -9 -11 2.56 1.65
6 9 11 -1.24 1.34
-6 -9 -11 0.72 1.27
6 9 12 13.81 3.19
-6 -9 -12 8.98 2.71
-6 -9 -12 10.68 2.93
-6 -9 -12 11.12 2.88
-6 -9 -12 10.84 2.8
-6 -9 -12 7.88 2.3
-6 -9 -12 10.32 2.81
-6 -9 -12 11.97 3.04
6 9 12 17.15 3.62
6 9 12 12.87 3.28
6 9 13 71.43 7.43
-6 -9 -13 80.91 7.98
-6 -9 -13 65.59 7.77
-6 -9 -13 77.4 7.27
-6 -9 -13 82.28 7.67
-6 -9 -13 78.79 7.64
-6 -9 -13 82.56 7.59
-6 -9 -13 87.23 7.7
6 9 13 87.2 8.31
6 9 13 84.07 8.09
-6 -9 -14 30.41 4.76
-6 -9 -14 26.06 4.3
-6 -9 -14 31.05 4.77
-6 -9 -14 29.33 4.61
-6 -9 -14 33.13 5.01
6 9 14 30.77 5.05
-6 -9 -14 37.23 5.57
6 10 -2 1.96 1.48
-6 -10 2 -1.84 1.88
6 10 -1 243.31 12.62
-6 -10 1 266.55 13.57
6 10 -1 234.35 12.23
-6 -10 1 251.26 13.79
6 10 0 17.37 3.09
-6 -10 0 22.01 3.64
-6 -10 0 20.45 3.55
6 10 0 13.53 2.88
6 10 0 15.58 3.09
6 10 1 2.2 1.52
6 10 1 -0.83 1.33
-6 -10 -1 -0.93 1.25
-6 -10 -1 1.25 1.24
-6 -10 -1 0.53 0.92
-6 -10 -1 1.07 1.12
-6 -10 -1 0.79 0.9
-6 -10 -1 0.03 0.99
-6 -10 -1 0.94 1.02
6 10 1 -1.66 1.68
6 10 1 0.73 0.81
6 10 1 1.77 1.67
-6 -10 -1 0.12 1.1
6 10 2 36.22 4.15
6 10 2 37.26 4.25
-6 -10 -2 36.03 4.4
-6 -10 -2 36.02 4.09
-6 -10 -2 38.19 4.11
-6 -10 -2 37.86 4.16
-6 -10 -2 41.3 4.3
-6 -10 -2 41.8 4.95
6 10 2 34.51 4.05
-6 -10 -2 51.48 5.75
6 10 2 44.43 4.79
6 10 3 1.41 1.3
6 10 3 1.95 1.34
-6 -10 -3 -0.44 1.08
-6 -10 -3 2.26 1.26
-6 -10 -3 0.02 0.9
-6 -10 -3 1.16 1.02
-6 -10 -3 1.25 1.23
-6 -10 -3 1.67 1.19
6 10 3 -0.45 1.06
6 10 3 0.14 1.5
-6 -10 -3 -0.12 1.15
6 10 4 88.34 6.62
6 10 4 104.12 7.37
-6 -10 -4 91.81 6.64
-6 -10 -4 97.52 6.85
-6 -10 -4 110.74 7.24
-6 -10 -4 105.07 7.04
-6 -10 -4 90.1 7.47
-6 -10 -4 95.11 6.73
6 10 4 96.53 6.97
6 10 4 110.68 7.48
-6 -10 -4 112.15 8.62
6 10 4 100 7.48
6 10 5 68.68 5.93
6 10 5 80.65 6.63
-6 -10 -5 87.6 6.37
-6 -10 -5 89.36 6.49
-6 -10 -5 93.39 6.62
-6 -10 -5 86.93 6.46
-6 -10 -5 87.58 7.39
-6 -10 -5 91.54 6.57
6 10 5 84.65 6.69
6 10 5 79.62 6.33
-6 -10 -5 81.73 7.4
6 10 5 64.71 5.97
6 10 5 74.85 6.49
6 10 6 16.3 3.15
-6 -10 -6 16.71 2.89
-6 -10 -6 14.9 2.77
-6 -10 -6 18.38 3.09
-6 -10 -6 14.56 2.79
-6 -10 -6 12.25 2.91
-6 -10 -6 15.85 2.83
6 10 6 13.66 2.84
6 10 6 12.7 2.8
-6 -10 -6 14.31 3.22
6 10 6 14.87 2.96
6 10 7 224.29 11.83
-6 -10 -7 204.68 10.84
-6 -10 -7 208.41 10.92
-6 -10 -7 206.93 10.84
-6 -10 -7 193.22 10.74
-6 -10 -7 189.54 11.96
-6 -10 -7 211.31 10.88
6 10 7 218.4 11.63
6 10 7 190.12 10.94
-6 -10 -7 211.65 12.5
6 10 7 171.1 10.22
6 10 8 0.12 0.89
-6 -10 -8 -0.58 1.06
-6 -10 -8 1.59 1.3
-6 -10 -8 1.86 1.29
-6 -10 -8 0.82 1.22
-6 -10 -8 0.78 1.31
6 10 8 0.59 1.15
-6 -10 -8 1.46 1.29
6 10 8 -0.24 1.21
6 10 9 165.93 10.73
-6 -10 -9 163.8 10.1
-6 -10 -9 169.71 10.21
-6 -10 -9 163.07 9.96
-6 -10 -9 154.43 11.12
-6 -10 -9 155.78 9.68
6 10 9 165.62 10.6
-6 -10 -9 165.7 10.72
6 10 9 136.62 9.09
6 10 10 148.18 10.17
-6 -10 -10 146.42 9.75
-6 -10 -10 126.55 9.06
-6 -10 -10 134.76 9.24
-6 -10 -10 130.01 10.5
6 10 10 132.58 9.5
-6 -10 -10 161.78 10.61
-6 -10 -10 140.61 9.59
-6 -10 -10 135.91 9.25
6 10 10 168.36 10.86
-6 -10 -10 123.59 9.33
6 10 10 120.16 8.36
6 10 11 10.37 2.96
-6 -10 -11 10.84 2.65
-6 -10 -11 6.51 2.25
-6 -10 -11 11.36 2.77
-6 -10 -11 7.77 2.5
6 10 11 7.68 2.56
-6 -10 -11 11.37 3.19
-6 -10 -11 10.21 2.64
-6 -10 -11 11.5 2.76
6 10 11 11.43 2.85
-6 -10 -11 13.79 2.91
6 10 12 140.89 10.57
-6 -10 -12 156.73 11.19
-6 -10 -12 126.45 10.99
-6 -10 -12 153.22 10.54
-6 -10 -12 157.48 10.58
-6 -10 -12 139.68 10.22
-6 -10 -12 159.61 10.75
-6 -10 -12 156.41 10.51
6 10 12 167.84 11.81
6 10 12 160.78 11.23
-6 -10 -13 0.43 1.35
-6 -10 -13 1.02 1.43
-6 -10 -13 2.46 1.66
-6 -10 -13 1.48 2.25
-6 -10 -13 1.6 1.86
6 10 13 2.74 1.95
-6 -10 -13 1.07 1.46
-6 -11 0 57.26 6.17
6 11 0 49.43 5.51
-6 -11 0 44.04 5.61
6 11 0 43.21 4.86
6 11 0 48.5 5.37
6 11 0 40.87 5.09
6 11 1 53.29 5.59
-6 -11 -1 57.62 5.63
-6 -11 -1 56.39 5.42
-6 -11 -1 54.57 5.29
-6 -11 -1 56.9 5.36
-6 -11 -1 56.06 5.28
-6 -11 -1 56.34 5.41
-6 -11 -1 55.92 6.19
6 11 1 47.39 5.29
6 11 1 53.44 5.68
6 11 1 44.24 4.87
-6 -11 -1 76.02 7.23
6 11 1 56.87 5.63
6 11 2 -0.55 1.43
-6 -11 -2 2.11 1.42
-6 -11 -2 0.39 1.05
-6 -11 -2 -0.54 0.92
-6 -11 -2 -0.61 1.15
-6 -11 -2 0.28 0.86
-6 -11 -2 1.18 1.05
-6 -11 -2 -0.63 1.09
6 11 2 0.8 1.17
6 11 2 1.15 0.99
6 11 2 0.58 1.19
-6 -11 -2 2.81 1.85
6 11 3 9.77 2.39
-6 -11 -3 14.22 2.74
-6 -11 -3 13.11 2.61
-6 -11 -3 12.59 2.44
-6 -11 -3 8.28 2.19
-6 -11 -3 11.33 2.85
6 11 3 10.3 2.66
6 11 3 8.71 2.23
6 11 4 9.22 2.48
-6 -11 -4 6.61 1.91
-6 -11 -4 6.76 1.85
-6 -11 -4 6.27 1.94
-6 -11 -4 4.36 1.61
-6 -11 -4 7.15 2.26
6 11 4 6.03 1.97
-6 -11 -4 5.93 1.99
6 11 4 6.21 1.98
6 11 5 3.98 1.42
-6 -11 -5 0.01 0.88
-6 -11 -5 0.31 0.96
-6 -11 -5 2.82 1.61
-6 -11 -5 -0.13 0.84
-6 -11 -5 -0.64 0.94
-6 -11 -5 3.9 1.66
6 11 5 0 0.96
6 11 5 -0.14 1.1
-6 -11 -5 1.7 1.77
6 11 5 -0.18 1.44
6 11 6 104.14 7.99
-6 -11 -6 99.92 7.43
-6 -11 -6 101.43 7.53
-6 -11 -6 110.66 7.83
-6 -11 -6 104.89 7.71
-6 -11 -6 110.51 8.78
-6 -11 -6 108.33 7.76
6 11 6 92.09 7.5
6 11 6 109.68 8.2
-6 -11 -6 125.39 9.82
6 11 6 90.31 7.26
6 11 6 102.9 8.14
6 11 7 111.71 8.51
-6 -11 -7 109.01 7.94
-6 -11 -7 103.33 7.75
-6 -11 -7 102.88 7.69
-6 -11 -7 107.04 8.05
-6 -11 -7 100.72 8.81
-6 -11 -7 99.3 7.65
6 11 7 108.08 8.31
6 11 7 87.24 7.49
-6 -11 -7 121.91 9.53
6 11 7 89.9 7.08
6 11 8 30.69 4.5
-6 -11 -8 24.77 3.87
-6 -11 -8 24.72 3.86
-6 -11 -8 23.28 3.81
-6 -11 -8 27.17 3.95
-6 -11 -8 29.44 4.76
-6 -11 -8 28.31 3.99
6 11 8 31.95 4.75
6 11 8 24.37 3.7
-6 -11 -8 25.79 4.43
6 11 8 19.96 3.22
6 11 9 106.25 8.53
-6 -11 -9 103.39 8.15
-6 -11 -9 98.5 7.89
-6 -11 -9 88.99 7.48
-6 -11 -9 96.63 8.85
-6 -11 -9 93.13 7.61
6 11 9 107.55 8.56
-6 -11 -9 100.95 8.66
6 11 10 5.06 2.2
-6 -11 -10 7.95 2.42
-6 -11 -10 6.23 1.85
-6 -11 -10 7.8 2.3
-6 -11 -10 5.73 2.37
-6 -11 -10 6.72 2.12
6 11 10 6.24 2.26
-6 -11 -10 3.07 1.78
6 11 11 18.73 3.75
-6 -11 -11 19.63 3.95
-6 -11 -11 17.34 3.81
-6 -11 -11 15.92 3.26
-6 -11 -11 13.98 3.17
-6 -11 -11 18.2 3.53
-6 -11 -11 19.88 3.74
-6 -11 -11 22.96 3.97
6 11 11 18.33 3.86
-6 -11 -11 17.28 3.39
-6 -11 -12 11.92 2.94
-6 -11 -12 9.9 2.76
-6 -11 -12 6.24 2.1
-6 -11 -12 5.42 2.61
6 11 12 5.35 2.4
-6 -11 -12 10.7 2.84
-6 -11 -12 8.69 2.93
-6 -12 -1 2.04 1.67
-6 -12 -1 2.71 1.67
-6 -12 -1 1.91 1.35
-6 -12 -1 -0.19 1.12
-6 -12 -1 -1.09 1.49
-6 -12 -1 -1.18 1.58
6 12 2 350.99 16.74
-6 -12 -2 371.4 16.79
-6 -12 -2 345.05 15.71
-6 -12 -2 366.08 16.05
-6 -12 -2 368.66 15.93
-6 -12 -2 363.06 15.91
-6 -12 -2 375.74 16.18
-6 -12 -2 353.13 17.08
6 12 2 313.9 15.66
6 12 2 362.68 16.34
6 12 2 306.1 15.17
-6 -12 -2 420.51 19.18
-6 -12 -3 16.92 3.11
6 12 3 16.45 3.21
6 12 3 20.1 3.5
-6 -12 -3 21.32 4.11
-6 -12 -3 17.21 3.2
-6 -12 -3 20.52 3.31
-6 -12 -3 20.66 3.41
6 12 4 -0.4 1.16
-6 -12 -4 3.88 1.7
-6 -12 -4 0.87 1.06
-6 -12 -4 2.52 1.55
-6 -12 -4 4.03 1.67
6 12 4 -0.57 1.45
6 12 4 1.51 1.25
-6 -12 -4 1.73 1.73
6 12 5 0.54 0.88
-6 -12 -5 0.48 1.36
-6 -12 -5 -2.8 1.77
-6 -12 -5 -0.56 0.93
-6 -12 -5 2.06 1.45
-6 -12 -5 1.63 1.93
-6 -12 -5 -0.82 1.3
6 12 5 0.73 1.03
-6 -12 -5 -1.23 2.27
6 12 5 -0.94 1.46
6 12 6 22.1 3.72
-6 -12 -6 17.6 3.16
-6 -12 -6 24.3 3.84
-6 -12 -6 25.37 4.04
-6 -12 -6 25.48 3.87
-6 -12 -6 22.62 4.12
-6 -12 -6 21.04 3.62
6 12 6 20.45 3.78
6 12 6 19.36 3.5
-6 -12 -6 24.87 4.6
6 12 6 21.53 3.65
6 12 7 0.14 1.1
-6 -12 -7 0.55 1.12
-6 -12 -7 0.11 0.92
-6 -12 -7 -0.31 1.22
-6 -12 -7 1.89 1.25
-6 -12 -7 -0.01 1.15
-6 -12 -7 -1.07 1.53
6 12 7 -0.98 1.36
6 12 7 1.9 1.76
-6 -12 -7 -0.04 1.33
6 12 8 92.4 8.09
-6 -12 -8 101.33 8.06
-6 -12 -8 101.18 8.03
-6 -12 -8 102.31 8.09
-6 -12 -8 103.98 8.32
-6 -12 -8 98.27 8.89
-6 -12 -8 114.29 8.54
6 12 8 100.59 8.34
6 12 8 99.55 8.17
-6 -12 -8 110.44 9.5
6 12 9 53.43 6.19
-6 -12 -9 54.3 6.02
-6 -12 -9 51.03 5.77
-6 -12 -9 51.62 5.75
-6 -12 -9 50.24 5.89
-6 -12 -9 53.34 6.75
-6 -12 -9 53.64 5.91
6 12 9 70.05 7.22
6 12 9 46.33 5.75
-6 -12 -9 55.36 6.74
6 12 10 156.73 10.94
-6 -12 -10 140.36 11.49
-6 -12 -10 140.91 10.14
-6 -12 -10 150.92 10.43
-6 -12 -10 130.5 9.87
-6 -12 -10 148.39 10.44
6 12 10 179.89 11.8
-6 -12 -10 149.78 10.99
-6 -12 -11 14.32 3.16
-6 -13 -6 9.8 2.41
-6 -13 -6 8.78 2.61
-6 -13 -6 15 3.11
-6 -13 -6 6.02 1.83
-6 -13 -6 7.54 2.34
-6 -13 -7 6.21 2.05
7 -7 -2 21.76 3.96
7 -7 -2 24.41 4.08
7 -7 -1 126.75 9.71
7 -7 0 2.06 1.48
-7 7 0 4.16 1.78
7 -7 0 6.74 2.38
7 -7 0 4.64 2.3
7 -7 1 47.61 5.83
7 -7 1 53.91 6.28
-7 7 -1 65.35 6.44
7 -7 1 59.39 6.69
7 -7 2 31.8 4.72
-7 7 -2 32.36 4.6
7 -7 3 0.64 1.2
-7 7 -3 0.08 1.21
-7 6 4 26.14 4.33
7 -6 -4 21.04 3.87
-7 6 3 2.27 1.78
7 -6 -3 -1.49 1.4
-7 6 3 -3.28 2.06
7 -6 -3 0 1.26
7 -6 -2 91.72 8.16
-7 6 2 116.14 8.97
7 -6 -2 86.66 7.62
-7 6 2 93.46 7.99
7 -6 -2 107.02 8.17
7 -6 -2 86.75 8.13
-7 6 1 -0.07 1.1
7 -6 -1 -1.41 1.42
7 -6 -1 0.52 0.94
-7 6 1 1.05 1.37
7 -6 -1 1.04 1.16
-7 6 0 -0.99 1.47
7 -6 0 0.8 1.1
7 -6 0 -0.43 1.56
-7 6 0 -1.19 1.59
7 -6 0 0.45 1.54
7 -6 1 48.36 5.73
-7 6 -1 46.31 5.3
7 -6 1 40.29 5.12
7 -6 1 50.5 6.14
-7 6 -1 46.1 5.59
7 -6 1 47.61 5.77
-7 6 -2 26.55 4.02
7 -6 2 18.75 3.65
7 -6 2 17.48 3.38
7 -6 2 18.57 3.87
-7 6 -2 22.81 3.99
-7 6 -2 23.04 3.65
7 -6 2 22.12 3.89
7 -6 3 27.9 4.19
7 -6 3 27.25 4.53
-7 6 -3 31.02 4.57
7 -6 3 33.93 5.04
-7 6 -3 38.64 4.86
7 -6 4 38.02 4.94
7 -6 4 36.91 5.3
-7 6 -4 39.14 5.06
7 -6 4 43.64 5.66
-7 6 -4 49.94 5.74
-7 6 -5 1.04 1.17
7 -6 5 1.22 1.13
-7 5 5 28.18 4.31
7 -5 -5 29.59 4.59
-7 5 4 25.31 4.21
-7 5 4 18.97 3.63
7 -5 -4 19.02 3.37
7 -5 -4 20.05 3.7
-7 5 3 33.14 4.79
-7 5 3 37.35 4.99
7 -5 -3 35.4 4.48
7 -5 -3 50.05 5.52
-7 5 2 16.97 3.37
7 -5 -2 10 2.57
-7 5 2 13.48 2.85
7 -5 -2 12.15 2.54
7 -5 -2 14.29 2.92
-7 5 1 5.06 1.8
7 -5 -1 3.46 1.67
7 -5 -1 2.08 1.06
-7 5 1 1.59 1.05
7 -5 -1 3.5 1.53
7 -5 -1 4.92 1.75
-7 5 0 10.08 2.65
7 -5 0 12.96 2.87
7 -5 0 9.86 2.35
-7 5 0 12.58 2.97
7 -5 0 10.67 2.79
-7 5 -1 1.83 1.6
7 -5 1 -0.03 1.09
7 -5 1 1.73 1.54
7 -5 1 0.54 1.17
-7 5 -1 0.33 1.24
7 -5 1 -0.37 1.14
7 -5 2 33.62 4.53
-7 5 -2 40.23 4.89
7 -5 2 33.63 4.3
7 -5 2 36.01 5.11
-7 5 -2 38.11 4.91
7 -5 2 38.87 4.99
-7 5 -2 39 4.67
7 -5 3 165.37 10.38
7 -5 3 156.92 9.87
7 -5 3 164.69 11.2
-7 5 -3 180.86 10.92
7 -5 3 173.39 10.86
-7 5 -3 187.16 10.75
7 -5 4 90.79 8.17
-7 5 -4 89.51 7.58
7 -5 4 96.53 8.04
-7 5 -4 104.16 8.18
7 -5 5 78.95 7.24
7 -5 5 68.06 7.11
-7 5 -5 64.77 6.47
-7 5 -5 80.75 7.34
7 -5 6 4.39 2
-7 5 -6 0.72 1.53
7 -5 6 1.16 1.1
-7 5 -7 0.17 1.36
7 -5 7 2.67 1.43
-7 4 6 22.01 3.72
-7 4 5 4.21 2.15
7 -4 -5 6.1 2.12
7 -4 -5 1.69 1.41
-7 4 4 7.47 2.24
7 -4 -4 6.77 2.13
7 -4 -4 10.16 2.51
-7 4 3 30.3 4.19
7 -4 -3 31.39 4.14
7 -4 -3 31.71 4.31
-7 4 2 18.39 3.54
-7 4 2 18.67 3.44
7 -4 -2 12.85 2.6
7 -4 -2 17.6 3.1
-7 4 1 20.78 3.56
7 -4 -1 17.15 3.02
7 -4 -1 15.16 2.58
7 -4 -1 16.62 2.97
-7 4 1 17.09 3.28
7 -4 0 0.88 1.36
7 -4 0 0.89 0.87
-7 4 0 0.27 0.96
-7 4 0 2.92 1.89
7 -4 0 -0.71 1.11
7 -4 1 102.68 7.74
-7 4 -1 97.64 7.1
-7 4 -1 85.01 7.15
7 -4 1 84.43 7.03
7 -4 2 64.78 6.04
-7 4 -2 79.53 6.55
7 -4 2 54.53 5.94
-7 4 -2 68.9 6.38
7 -4 2 52.74 5.47
-7 4 -3 55.91 5.72
7 -4 3 54.91 5.71
-7 4 -3 66.88 6.09
7 -4 3 45.14 5.44
7 -4 3 54.3 5.52
-7 4 -4 78.58 6.91
7 -4 4 87.8 7.24
-7 4 -4 82.03 7.03
7 -4 4 77.32 7.18
-7 4 -5 27.54 4.21
7 -4 5 28.72 4.18
7 -4 5 27.95 4.47
-7 4 -5 32.29 4.41
-7 4 -6 8.18 2.71
7 -4 6 8.48 2.44
7 -4 6 10.48 2.81
7 -4 7 125.64 9.78
7 -4 7 147.72 10.2
-7 4 -8 117.74 9.44
7 -4 8 101.45 8.83
7 -4 8 103.24 8.56
7 -3 -6 0.96 1.36
-7 3 6 3.19 2.02
7 -3 -6 4 2.01
-7 3 5 21.37 3.8
-7 3 5 31.7 4.67
7 -3 -5 30.74 4.31
7 -3 -5 35.13 4.75
-7 3 4 45.27 5
-7 3 4 56.99 6
7 -3 -4 51.82 5.29
7 -3 -4 59.8 5.99
7 -3 -3 33.84 3.86
-7 3 3 36.06 4.49
-7 3 3 45.93 5.27
7 -3 -3 44.62 4.76
7 -3 -3 42.99 4.97
7 -3 -2 29.25 3.35
7 -3 -2 30.39 3.82
7 -3 -2 33.26 4.14
-7 3 2 30.84 4.07
7 -3 -1 7.23 1.92
7 -3 -1 8.33 2.17
7 -3 0 100.19 6.87
7 -3 0 82.48 5.92
7 -3 0 89.84 7.08
-7 3 0 92.2 7.11
7 -3 0 91.45 7.03
7 -3 1 160.56 8.63
7 -3 1 162.15 9.57
-7 3 -1 179.09 9.61
-7 3 -1 148.07 9.32
7 -3 1 143.49 8.98
-7 3 -2 98.71 7.48
7 -3 2 108.77 7.54
-7 3 -2 109.89 7.64
7 -3 2 113.57 8.3
-7 3 -2 92.35 6.62
7 -3 2 98.79 7.15
7 -3 3 230.75 11.82
-7 3 -3 244.7 12.32
7 -3 3 233.39 12.65
7 -3 3 236.97 11.7
-7 3 -4 22.39 3.5
7 -3 4 15.98 2.99
7 -3 4 20.83 3.62
-7 3 -4 16.6 2.99
7 -3 4 17.05 2.93
7 -3 5 92.26 7.12
7 -3 5 87.96 7.52
-7 3 -6 33.07 4.56
7 -3 6 29.27 4.04
7 -3 6 23.11 3.86
-7 3 -7 213.28 12.17
7 -3 7 181.93 11.56
7 -3 7 176.85 10.75
7 -3 7 177.84 11.52
7 -3 8 42.36 5.53
7 -3 8 47.14 5.54
-7 3 -8 48.92 5.89
7 -3 9 45.24 5.53
7 -3 9 54.03 6.18
-7 3 -9 66.13 6.93
7 -3 10 0.54 1.19
7 -3 10 0.4 1.09
7 -2 -6 27.63 4.28
-7 2 6 30.26 4.71
7 -2 -6 25.82 3.96
-7 2 5 55.74 6.15
7 -2 -5 46.94 5.21
7 -2 -5 48.44 5.5
7 -2 -5 39.07 4.57
-7 2 4 127.09 8.77
7 -2 -4 109.39 7.65
7 -2 -4 99.47 7.68
7 -2 -4 85.97 6.3
-7 2 4 105.84 7.63
7 -2 -4 85.67 6.6
-7 2 3 252.74 12.41
7 -2 -3 253.19 12.25
7 -2 -3 220.27 11.01
7 -2 -3 182.41 9.65
-7 2 3 210.73 11.09
7 -2 -3 194.22 10.08
7 -2 -2 0.2 1.02
7 -2 -2 -0.11 1.07
-7 2 2 0.32 0.93
7 -2 -2 -0.04 0.83
-7 2 2 -0.09 1.23
7 -2 -2 0.42 0.91
-7 2 1 47.48 5.07
7 -2 -1 55.59 5.18
7 -2 -1 47.32 4.59
7 -2 -1 42.07 4.23
-7 2 1 52.62 5.21
7 -2 -1 46.84 4.36
7 -2 0 11.88 2.38
7 -2 0 10.19 2.15
-7 2 0 9.65 2.19
7 -2 0 7.25 2.05
-7 2 0 13.38 2.49
-7 2 0 5.82 1.52
7 -2 0 8.92 1.82
7 -2 1 353.72 13.58
7 -2 1 334.83 14.14
-7 2 -1 377.65 14.77
7 -2 1 303.13 12.66
7 -2 1 342.32 14.03
-7 2 -1 324.91 13.94
-7 2 -1 354.56 14.81
7 -2 2 268.67 11.04
-7 2 -2 305.48 13.51
7 -2 2 284.93 12.69
-7 2 -2 324.62 13.69
7 -2 2 300.34 12.69
7 -2 2 277.29 13.42
-7 2 -2 271.18 12.31
-7 2 -3 28.82 3.82
7 -2 3 24.94 3.38
7 -2 3 26.65 3.4
-7 2 -3 25.45 3.32
7 -2 3 30.64 4.1
-7 2 -3 28.32 3.79
7 -2 4 36.8 4.03
7 -2 4 36.82 4.54
-7 2 -4 38.67 3.97
-7 2 -4 39.84 4.6
7 -2 4 35.01 4.03
-7 2 -4 47.29 5.19
7 -2 5 17.27 3.21
-7 2 -5 24.71 3.69
7 -2 5 23.28 3.29
7 -2 6 14.7 3.21
7 -2 6 17.86 3.26
-7 2 -6 15.48 3.09
7 -2 6 19.68 3.08
7 -2 7 12.56 2.8
7 -2 7 15.35 3.16
-7 2 -7 11.22 2.81
7 -2 7 15.39 2.89
7 -2 8 6.51 2.3
-7 2 -8 8.67 2.48
7 -2 8 9.05 2.38
-7 2 -9 58.95 6.42
7 -2 9 47.72 5.38
7 -2 9 49.13 5.81
7 -2 9 46.35 5.84
7 -2 10 31.88 4.99
7 -2 10 29.29 4.66
-7 2 -10 32.12 4.86
7 -2 10 26.51 4.12
7 -2 11 -0.05 1.27
-7 1 6 7.62 2.64
7 -1 -6 4.95 1.8
-7 1 5 9.22 2.48
7 -1 -5 10.25 2.77
7 -1 -5 7.24 2.18
7 -1 -4 93.21 7.06
7 -1 -4 74.76 6.07
7 -1 -4 87.32 6.54
7 -1 -3 24.37 3.44
-7 1 3 33.7 4.22
7 -1 -3 23.07 3.23
-7 1 3 27.45 3.57
7 -1 -3 21.31 3.15
7 -1 -2 9.92 2.32
-7 1 2 19.05 3.12
7 -1 -2 12.2 2.42
-7 1 2 13.42 2.55
-7 1 2 10.85 2.41
7 -1 -2 10.8 2.17
-7 1 1 44.76 4.68
7 -1 -1 37.95 4.02
7 -1 -1 33.89 3.79
-7 1 1 43.02 4.44
-7 1 1 28.46 3.82
7 -1 -1 34.97 3.83
7 -1 0 22.51 3.06
-7 1 0 26.84 3.55
7 -1 0 26.6 3.3
-7 1 0 23.14 3.37
7 -1 0 30.89 3.68
-7 1 0 22.85 3.35
-7 1 -1 1037.41 28.51
7 -1 1 928.63 27.92
-7 1 -1 1080.59 29.75
-7 1 -1 937.84 28.92
7 -1 1 963.76 28.03
-7 1 -1 883.66 28.53
-7 1 -2 116.04 7.7
7 -1 2 117.56 7.1
-7 1 -2 130.14 8.17
7 -1 2 115.68 6.95
7 -1 2 119.77 7.92
-7 1 -2 117.56 7.54
7 -1 3 262.79 11.37
-7 1 -3 276.48 12.6
7 -1 3 253.29 11.07
-7 1 -3 249.05 11.6
7 -1 3 257.96 12.41
7 -1 4 53.4 4.67
-7 1 -4 58.63 5.62
7 -1 4 53.49 4.51
-7 1 -4 50.28 4.64
7 -1 4 57.81 5.38
-7 1 -5 7.47 2.33
7 -1 5 2.39 0.98
7 -1 5 6.37 2.14
-7 1 -5 2.2 1.02
7 -1 5 3.78 1.64
7 -1 6 3.97 1.65
7 -1 6 2.26 1.22
7 -1 6 1.98 1.44
-7 1 -6 5.23 1.86
7 -1 6 2.46 0.85
7 -1 7 5.13 1.94
7 -1 7 2.12 1.33
7 -1 7 1.02 1.18
7 -1 7 1.32 1.33
-7 1 -7 1.81 1.32
7 -1 7 2.66 1.2
7 -1 8 14.37 3.18
7 -1 8 12.61 3
7 -1 8 14.44 3.1
-7 1 -8 13.32 3.02
7 -1 8 13.28 2.65
7 -1 9 107.32 8.63
7 -1 9 105.64 8.77
-7 1 -9 126.56 9.24
7 -1 9 98.55 8.19
-7 1 -10 9.89 2.91
7 -1 10 7.81 2.78
7 -1 10 10.61 3.06
7 -1 10 6.93 2.16
-7 1 -11 -0.15 1.35
7 -1 11 2.01 1.7
7 -1 11 4.45 1.91
7 -1 11 2.77 1.87
-7 0 6 0.3 1.16
7 0 -6 -0.28 1.26
7 0 -6 -1.68 1.59
-7 0 5 85.72 7.33
7 0 -5 68.87 6.19
7 0 -5 65.77 5.97
7 0 -4 -2.6 1.71
-7 0 4 -1.18 1.58
7 0 -4 0.34 0.89
7 0 -4 0.84 1.37
7 0 -3 41.89 4.37
-7 0 3 47.52 5.13
7 0 -3 47.98 4.7
7 0 -3 49.29 4.78
-7 0 2 74.76 6.2
7 0 -2 60.47 5.27
-7 0 2 55.96 5.49
-7 0 2 75.68 5.74
7 0 -2 64.04 5.39
7 0 -1 17 2.7
7 0 -1 24.33 3.2
-7 0 1 20.01 3.12
7 0 -1 16.83 2.5
7 0 -1 15.52 2.66
-7 0 1 19.2 3.17
7 0 -1 19.18 2.96
-7 0 1 17.8 2.71
7 0 0 278.8 12.08
-7 0 0 262.84 11.47
-7 0 0 229.93 10.92
7 0 0 250.25 10.96
7 0 0 220.5 10.86
7 0 0 209.03 10.64
-7 0 0 211.91 11.09
7 0 1 373.33 14.75
-7 0 -1 379.95 13.57
-7 0 -1 310.61 13.35
7 0 1 294.56 13.41
-7 0 -1 300.35 13.51
-7 0 -2 8.68 2.29
-7 0 -2 7.14 1.67
7 0 2 6.1 1.88
7 0 2 4.84 1.56
-7 0 -2 6.17 1.91
-7 0 -2 5.61 1.75
-7 0 -3 342.56 14.18
7 0 3 327.97 14.37
7 0 3 333.87 13.48
-7 0 -3 307.87 13.49
7 0 3 345.8 14.27
-7 0 -4 15.77 2.84
7 0 4 16.35 2.74
7 0 4 18.01 3.07
7 0 4 14.01 2.56
-7 0 -4 17.8 2.9
7 0 5 147.59 9.26
7 0 5 142.19 8.74
7 0 5 138.14 8.53
-7 0 -5 133.71 8.02
-7 0 -6 4.88 2.04
7 0 6 4.83 1.75
7 0 6 5.68 1.84
-7 0 -6 5.4 1.61
7 0 6 3.03 1.34
7 0 6 4.87 1.74
-7 0 -7 28.78 4.11
7 0 7 23.01 3.77
7 0 7 23.77 3.76
-7 0 -7 23.29 3.13
7 0 7 19.71 3.24
7 0 7 28.31 3.89
7 0 8 12.64 3.07
7 0 8 19.83 3.61
7 0 8 19.44 3.46
7 0 9 -1.4 1.4
7 0 9 0.62 1.09
7 0 9 0.27 1.12
-7 0 -9 0.9 1.23
7 0 10 92.39 7.94
7 0 10 90.87 8.23
7 0 10 87.08 7.87
-7 0 -10 103.35 8.4
7 0 11 56.55 6.38
7 0 11 59.61 6.97
7 0 11 60.48 6.83
-7 0 -11 60.11 6.59
7 0 12 -1.14 1.67
7 0 12 1.61 1.43
7 0 12 -1.24 1.31
7 1 -7 -1.02 0.99
-7 -1 6 59.72 6.37
7 1 -6 51.68 5.41
7 1 -6 41.84 4.91
7 1 -6 46.09 4.83
7 1 -5 10.6 2.55
-7 -1 5 12.47 3.05
7 1 -5 7.14 1.87
7 1 -5 9.87 2.35
-7 -1 4 11.94 2.78
7 1 -4 9.24 2.31
7 1 -4 7.42 1.84
7 1 -4 8.66 2.54
7 1 -3 -0.81 1.03
7 1 -3 0.37 0.86
-7 -1 3 0.22 0.91
7 1 -3 0.4 0.77
-7 -1 3 1.3 1.21
-7 -1 2 17.98 3.14
7 1 -2 15.7 2.67
7 1 -2 16.53 2.64
-7 -1 2 19.7 3.13
7 1 -2 11.42 2.17
7 1 -2 14 2.71
7 1 -1 70.7 5.71
-7 -1 1 90.65 6.45
-7 -1 1 83.15 5.86
7 1 -1 95.32 6.44
7 1 -1 84.58 5.96
7 1 -1 71.22 5.14
7 1 -1 73.97 6
-7 -1 1 69.45 6.07
7 1 0 43.69 4.43
-7 -1 0 43.69 4.3
-7 -1 0 36.65 3.84
7 1 0 42.16 4.2
7 1 0 41.68 4.13
7 1 0 36.41 3.55
7 1 0 39.88 4.38
-7 -1 0 34.44 4.17
7 1 1 22.95 3.26
-7 -1 -1 25.79 3.06
7 1 1 18.32 2.86
7 1 1 15.38 2.62
-7 -1 -1 14.87 2.74
7 1 1 15.89 2.57
-7 -1 -1 15.19 2.44
7 1 2 221.75 11.46
7 1 2 255.54 11.65
7 1 2 228.61 10.74
-7 -1 -2 218.72 11.01
7 1 3 232.15 11.39
7 1 3 227.46 10.43
7 1 3 231.76 10.79
-7 -1 -3 226.2 11.06
-7 -1 -4 406.73 15.99
7 1 4 403.67 15.89
7 1 4 373.91 14.79
7 1 4 368.84 14.62
-7 -1 -4 354.11 14.64
-7 -1 -5 11.94 2.65
7 1 5 9.78 2.15
7 1 5 10.99 2.41
-7 -1 -5 11.24 2.28
7 1 5 8.39 1.92
7 1 5 11.14 2.39
-7 -1 -6 4.23 1.87
7 1 6 6.37 1.96
7 1 6 3.26 1.83
7 1 6 5.23 1.73
7 1 6 4.56 1.7
-7 -1 -6 3.9 1.39
-7 -1 -7 134.19 8.9
7 1 7 121.7 8.51
7 1 7 120 8.41
-7 -1 -7 114.01 7.47
7 1 7 119.58 8.11
-7 -1 -8 -0.49 1.37
7 1 8 -0.37 1.07
7 1 8 -0.53 1.03
7 1 8 1.14 1.46
-7 -1 -8 0.3 0.9
7 1 9 73.84 6.94
7 1 9 71.58 6.9
7 1 9 68.06 6.6
-7 -1 -9 88.27 7.52
7 1 10 6.95 2.46
7 1 10 13.6 3.12
7 1 10 6.84 2.43
-7 -1 -10 10.56 2.84
7 1 11 5.67 2.22
7 1 11 3.22 1.81
-7 -1 -11 8.12 2.58
7 1 12 51.15 5.97
-7 -1 -12 66.24 6.89
7 1 12 50.5 6.38
7 1 12 58.09 6.84
7 2 -6 108.12 7.93
7 2 -6 95.54 7.74
7 2 -6 100.82 7.46
7 2 -5 98.32 7.39
7 2 -5 92.7 6.97
7 2 -5 110.88 7.87
-7 -2 4 13.02 2.77
7 2 -4 14.33 2.9
7 2 -4 12.16 2.51
7 2 -4 14.45 2.93
-7 -2 3 87.48 6.81
7 2 -3 72.25 6.04
-7 -2 3 74.8 6.47
7 2 -3 78.79 5.86
7 2 -3 79.68 6.29
-7 -2 2 52.27 5.08
7 2 -2 44.56 4.69
-7 -2 2 41.88 4.69
7 2 -2 41.73 4.17
7 2 -2 42.88 4.5
-7 -2 1 -0.2 1.13
7 2 -1 0.42 0.94
-7 -2 1 2.75 1.53
7 2 -1 0.75 0.79
7 2 -1 -0.2 0.84
7 2 -1 -0.23 0.97
7 2 0 10.43 2.23
-7 -2 0 12.21 2.33
7 2 0 9.6 2.05
7 2 0 13.5 2.34
-7 -2 0 13.33 2.58
7 2 0 10.02 2.04
-7 -2 -1 65.37 4.93
7 2 1 52.29 4.73
7 2 1 63.03 5.34
-7 -2 -1 53.35 5.14
7 2 1 55.63 4.55
7 2 2 15.3 2.8
-7 -2 -2 19.33 2.49
7 2 2 15.53 2.61
7 2 2 14.09 2.28
-7 -2 -2 11.59 2.38
7 2 3 247.08 11.94
7 2 3 249.29 11.5
7 2 3 231.55 10.18
7 2 3 226.43 10.28
-7 -2 -3 219.37 11.02
7 2 4 1.01 1.22
-7 -2 -4 1.39 1.24
7 2 4 1.33 0.94
7 2 4 1.53 0.99
7 2 4 1.64 0.93
-7 -2 -4 -0.24 1.05
-7 -2 -5 318.33 13.8
7 2 5 283.39 13.15
7 2 5 283.26 12.48
7 2 5 264.37 11.75
-7 -2 -5 256.13 12.3
7 2 5 298.34 12.08
-7 -2 -6 686.14 22.45
7 2 6 579.97 21.41
7 2 6 593.88 21
-7 -2 -6 524.94 19.97
7 2 6 645.39 20.76
-7 -2 -7 82.43 6.79
7 2 7 78.64 6.68
7 2 7 72.91 6.43
7 2 7 91.35 6.72
-7 -2 -7 76.79 6.15
-7 -2 -8 26.27 3.97
7 2 8 22.17 3.75
7 2 8 26.38 3.9
-7 -2 -8 22.33 3.33
7 2 8 26 3.77
-7 -2 -9 5.86 1.91
7 2 9 5.78 2.16
7 2 9 3.25 1.46
7 2 9 1.42 1.3
-7 -2 -9 2.27 1.06
7 2 10 51.33 5.72
7 2 10 41.41 5.3
-7 -2 -10 56.89 6.1
7 2 10 52.8 5.91
-7 -2 -11 1.59 1.43
7 2 11 1.32 1.21
7 2 11 -1.15 1.63
7 2 11 1.6 1.26
-7 -2 -12 6.06 2.23
7 2 12 5.29 2.18
7 2 12 6.49 2.47
-7 -2 -13 15.2 3.31
7 2 13 7.37 2.47
7 2 13 12.57 3.27
7 3 -6 70.53 6.38
-7 -3 6 65.56 6.77
7 3 -6 52.83 5.68
7 3 -6 51.99 5.35
-7 -3 5 94.61 7.77
7 3 -5 89.33 6.86
7 3 -5 87.61 7.05
-7 -3 4 151.68 9.61
7 3 -4 117.54 8.41
-7 -3 4 136.47 9.01
7 3 -4 136.87 8.41
7 3 -4 135.97 8.63
-7 -3 3 84.8 6.77
7 3 -3 73.56 6.25
-7 -3 3 78.56 6.64
7 3 -3 71.65 5.78
7 3 -3 76.65 6.25
7 3 -2 16.67 2.95
-7 -3 2 16.28 2.85
7 3 -2 18.51 3.21
7 3 -2 15.22 2.59
-7 -3 2 12.75 2.72
-7 -3 1 132.88 8.01
7 3 -1 140.16 8.12
7 3 -1 112.57 7.44
7 3 -1 115.77 7.33
7 3 -1 127.68 8.18
-7 -3 1 111.91 7.83
-7 -3 0 160.43 8.49
7 3 0 150.11 8.69
7 3 0 150.98 8.66
7 3 0 130.94 8.55
-7 -3 0 135.53 8.66
-7 -3 -1 3.54 1.62
7 3 1 7.76 2.01
-7 -3 -1 3.67 1.4
7 3 1 4.69 1.53
7 3 1 2.59 1.01
7 3 2 106.47 7.46
-7 -3 -2 112.09 6.32
7 3 2 94.89 6.6
7 3 2 114.98 7.49
-7 -3 -2 87.25 6.72
7 3 3 6.07 1.94
7 3 3 7 1.88
7 3 3 6.79 1.53
-7 -3 -3 6.66 1.87
7 3 4 372.43 15.9
7 3 4 382.81 15.4
7 3 4 379.32 14.3
7 3 4 369.79 13.72
-7 -3 -4 373.6 15.39
7 3 5 255.34 12.56
7 3 5 266.72 12.43
7 3 5 261.45 11.8
7 3 5 240.45 10.67
-7 -3 -5 226.88 11.63
7 3 5 270.75 11.35
7 3 6 78.12 6.81
-7 -3 -6 95.83 7.2
7 3 6 77 6.51
7 3 6 72.99 6.08
-7 -3 -6 70.01 6.04
7 3 6 79.19 6.08
7 3 7 293.76 14.11
-7 -3 -7 331.38 14.62
7 3 7 280.79 13.65
7 3 7 285.86 13.59
-7 -3 -7 255.81 12.85
7 3 7 340.07 13.96
-7 -3 -8 5.01 1.92
7 3 8 6.44 2.11
7 3 8 5.98 2.03
-7 -3 -8 3.77 1.57
7 3 8 4.46 1.67
-7 -3 -9 26.65 4.04
7 3 9 25.39 4.08
7 3 9 26.99 4.18
7 3 9 25.75 3.98
-7 -3 -9 22.19 3.49
-7 -3 -10 45.91 5.38
7 3 10 36.86 5.01
7 3 10 40.39 5.24
-7 -3 -10 39.8 4.82
-7 -3 -11 30.55 4.42
7 3 11 28.69 4.53
7 3 11 29.54 4.75
-7 -3 -11 24.66 3.74
-7 -3 -12 35.03 4.95
7 3 12 37.24 5.21
7 3 12 45.54 5.95
-7 -3 -13 74.61 7.21
7 3 13 76.04 7.92
7 3 13 67.56 7.44
7 3 14 3.52 1.92
7 4 -6 3.07 2
-7 -4 5 17.31 3.51
7 4 -5 15.28 2.99
7 4 -5 15.1 3.06
-7 -4 4 174.57 10.5
-7 -4 4 163.77 10.13
7 4 -4 137.38 8.97
7 4 -4 172.91 9.99
7 4 -3 0.52 1.12
7 4 -3 1.97 1.62
-7 -4 3 2.6 1.44
7 4 -3 5.61 1.79
-7 -4 3 3.85 1.63
-7 -4 2 58.24 5.56
7 4 -2 47.72 5.1
-7 -4 2 48.52 5.12
7 4 -2 50.82 4.93
7 4 -2 46.09 4.83
-7 -4 1 12.66 2.61
7 4 -1 8.4 2.23
7 4 -1 7.9 1.93
-7 -4 1 8.28 2.14
7 4 0 7.64 2.02
-7 -4 0 4.95 1.62
7 4 0 5.85 1.71
-7 -4 0 4.84 1.8
7 4 0 3.43 1.62
-7 -4 -1 138.84 7.65
7 4 1 147.6 8.81
7 4 1 128.79 8.21
7 4 1 125.21 8.23
-7 -4 -1 134.72 8.52
-7 -4 -2 12.89 2.35
7 4 2 14.41 2.76
-7 -4 -2 15.78 2.39
7 4 2 18.13 3.04
7 4 3 411.96 16.3
7 4 3 379.51 14.99
7 4 3 404.37 16.19
-7 -4 -3 358.82 15.47
7 4 4 105.2 7.64
7 4 4 98.06 6.94
7 4 4 101.7 6.56
-7 -4 -4 83.83 6.73
7 4 5 41.57 4.79
7 4 5 42.79 4.62
7 4 5 40.17 4.13
-7 -4 -5 40.69 4.63
7 4 5 48.68 4.39
-7 -4 -6 357.5 15.92
7 4 6 459.73 18.13
7 4 6 397.34 16.58
7 4 6 391.15 15.97
7 4 6 463.78 16.39
7 4 7 6.83 2.19
7 4 7 8.13 1.98
-7 -4 -7 8.87 2.3
7 4 7 9.92 2.35
7 4 8 27.25 4.06
7 4 8 21.14 3.48
-7 -4 -8 20.43 3.39
7 4 8 18.85 3.39
7 4 9 13.77 3.13
7 4 9 15.93 3.25
-7 -4 -9 10.49 2.61
7 4 9 15.63 3.16
7 4 10 0.33 1.31
-7 -4 -10 -0.11 1.04
7 4 10 -0.26 1.49
7 4 10 -0.36 0.98
-7 -4 -10 2.01 1.68
7 4 11 51.42 5.99
-7 -4 -11 64.44 6.39
7 4 11 58.94 6.46
7 4 11 45.19 5.75
-7 -4 -11 51.99 5.64
7 4 12 4.02 1.84
-7 -4 -12 1 1.05
7 4 12 1.97 1.48
7 4 12 4.76 2.31
-7 -4 -12 1.48 1.19
7 4 13 -0.87 1.32
-7 -4 -13 1.9 1.84
7 4 13 -1.16 1.71
7 4 13 1.9 1.81
-7 -5 5 1.21 1.38
7 5 -5 0.45 0.98
7 5 -5 -0.89 1.42
-7 -5 4 23.76 3.88
-7 -5 4 22.45 3.6
7 5 -4 27.53 3.85
7 5 -4 24.52 3.64
7 5 -3 12.68 2.61
7 5 -3 13.85 2.93
-7 -5 3 22.71 3.79
7 5 -3 16.97 3.08
-7 -5 3 15.64 3
-7 -5 2 191.42 10.51
7 5 -2 183.24 10.32
-7 -5 2 165.75 9.88
7 5 -2 165.14 9.63
7 5 -2 169.11 9.78
-7 -5 1 67.73 5.76
-7 -5 1 57.38 5.55
7 5 -1 61.02 5.87
7 5 -1 69.62 5.79
7 5 -1 64.26 5.68
-7 -5 0 304.09 12.73
-7 -5 0 278.78 12.67
7 5 0 281.19 12.99
7 5 0 270.13 13.05
-7 -5 0 274.92 13.1
-7 -5 -1 57.67 4.9
7 5 1 62.84 5.77
-7 -5 -1 66.2 5.68
7 5 1 66.83 5.75
7 5 1 57.04 5.44
-7 -5 -1 55.25 5.41
-7 -5 -2 285.87 11.68
7 5 2 323.32 13.96
-7 -5 -2 307.14 13.32
7 5 2 275.16 10.96
7 5 2 314.71 13.79
-7 -5 -2 264.74 12.95
7 5 3 103.29 7.52
-7 -5 -3 106.72 7.3
7 5 3 90.88 5.68
7 5 3 94.44 7.1
-7 -5 -3 84.47 6.79
7 5 4 193 10.79
-7 -5 -4 203.43 10.51
7 5 4 213.26 11.11
7 5 4 165.73 8.37
7 5 4 196.17 9.52
7 5 4 226.05 9.87
-7 -5 -4 179.23 10.27
7 5 5 157.82 9.63
-7 -5 -5 179.87 9.74
7 5 5 166.14 9.01
-7 -5 -5 144.69 9.25
7 5 5 166.03 8.94
-7 -5 -6 57.8 5.77
7 5 6 75.63 6.62
-7 -5 -6 62.5 5.69
7 5 6 70.01 5.82
7 5 6 64.84 5.61
-7 -5 -7 37.6 4.63
7 5 7 44.63 5.09
-7 -5 -7 40.87 4.56
7 5 7 41.01 4.7
7 5 7 38.49 4.43
-7 -5 -8 5.83 1.95
7 5 8 12.15 2.83
-7 -5 -8 4.18 1.72
7 5 8 8.21 2.29
7 5 8 5.87 1.84
7 5 9 -0.32 0.91
7 5 9 1 1.1
-7 -5 -9 1.34 0.88
7 5 9 0.18 1.1
7 5 10 40.54 5.2
7 5 10 43.75 5.4
-7 -5 -10 30.53 4.42
7 5 10 42.37 5.19
7 5 11 32.07 4.74
7 5 11 39.4 5.21
-7 -5 -11 28.76 4.41
7 5 11 39.3 5.05
7 5 12 -1.37 1.01
7 5 12 1.36 1.43
-7 -5 -12 1.13 1.21
7 5 12 -0.69 1.3
7 5 13 85.05 8.38
7 5 13 76.46 7.33
7 5 13 71.71 7.72
-7 -5 -13 60.14 6.57
-7 -6 4 48.96 5.57
-7 -6 4 43.58 5.08
7 6 -4 40.68 4.99
7 6 -4 46.94 5.11
-7 -6 3 56.74 5.83
-7 -6 3 48.32 5.17
7 6 -3 61.5 5.75
7 6 -3 45.99 5.04
-7 -6 2 0.83 1.07
7 6 -2 1.58 1.12
7 6 -2 3.52 1.22
-7 -6 2 4.77 1.87
7 6 -2 3.32 1.71
7 6 -2 1.39 1.11
7 6 -1 51.78 5.19
-7 -6 1 54.34 5.28
-7 -6 1 39.27 4.53
7 6 -1 47.11 4.27
7 6 -1 48.92 5.14
-7 -6 1 47.9 5.14
7 6 -1 48.88 5.28
-7 -6 0 12.06 2.43
7 6 0 10.94 2.11
-7 -6 0 12.08 2.62
-7 -6 0 10.06 2.4
7 6 0 9.06 2.56
-7 -6 -1 48.42 4.62
-7 -6 -1 48.05 5.02
7 6 1 45.38 4.17
7 6 1 56.71 5.37
7 6 1 53.79 5.33
-7 -6 -1 47.18 5
-7 -6 -2 25.4 3.18
7 6 2 30.39 4.08
-7 -6 -2 30.14 3.93
7 6 2 26.62 3.11
7 6 2 22.89 3.37
-7 -6 -2 23.25 3.61
7 6 2 27.36 4.08
7 6 3 458.77 17.7
-7 -6 -3 440.47 16.91
7 6 3 373.4 14.28
7 6 3 400.07 16.53
-7 -6 -3 373.54 16.24
7 6 4 95.64 7.4
-7 -6 -4 97.03 7.28
7 6 4 104.19 7.77
7 6 4 91.82 6.27
7 6 4 118.24 7.03
-7 -6 -4 99.56 7.65
-7 -6 -5 175.86 10.53
7 6 5 180.98 10.62
-7 -6 -5 191.75 10.65
7 6 5 182.39 10.44
7 6 5 182.06 9.71
7 6 5 219.33 10.34
-7 -6 -6 54.11 5.67
7 6 6 58.96 5.96
-7 -6 -6 61.42 5.67
7 6 6 64.44 5.65
7 6 6 74.65 5.94
-7 -6 -7 58.96 5.96
7 6 7 70.12 6.45
-7 -6 -7 55.27 5.34
7 6 7 60.17 5.81
7 6 7 62.64 5.75
-7 -6 -8 5.38 2.05
7 6 8 8.91 2.48
-7 -6 -8 7.9 2.37
7 6 8 5.99 1.91
7 6 8 10.98 2.52
-7 -6 -9 85.96 7.58
7 6 9 102.19 8.11
-7 -6 -9 85.8 7.07
7 6 9 102.75 8.19
7 6 9 109.63 8.32
-7 -6 -10 10.75 2.68
7 6 10 9.7 2.61
-7 -6 -10 9.02 2.16
7 6 10 10.2 2.65
7 6 10 7.56 2.67
7 6 11 72.87 7.03
7 6 11 66.71 6.98
-7 -6 -11 58.28 6.47
7 6 11 67.74 6.78
7 6 12 120.03 9.44
7 6 12 116.09 9.58
-7 -6 -12 92.6 8.47
7 6 12 118.82 9.13
7 6 13 20.13 4.06
7 6 13 25.57 4.37
7 6 13 21.91 4.29
-7 -6 -13 16.05 3.36
-7 -6 -14 6.46 2.63
7 7 -4 22.26 3.41
7 7 -4 19.96 3.41
7 7 -3 41.82 4.72
7 7 -3 40.03 4.41
-7 -7 3 44.95 5.35
7 7 -3 41.27 4.98
-7 -7 3 41.78 4.85
-7 -7 2 17.49 3.11
7 7 -2 18.62 3.31
7 7 -2 18.05 2.77
-7 -7 2 21.39 3.66
7 7 -2 17.7 3.37
7 7 -2 15.31 3.14
7 7 -1 39.02 4.64
-7 -7 1 43.4 5.01
-7 -7 1 38.28 4.67
7 7 -1 43.38 4.41
7 7 -1 42.83 4.91
-7 -7 1 44.5 4.98
7 7 -1 41.54 5.02
-7 -7 0 11.77 2.53
-7 -7 0 12.85 2.66
7 7 0 13.97 2.51
-7 -7 0 10.53 2.45
7 7 0 14.17 3
7 7 0 10.79 2.61
-7 -7 -1 9.21 2.09
7 7 1 8.02 1.86
-7 -7 -1 11.51 2.5
-7 -7 -1 7.83 2.23
7 7 1 8.66 2.35
-7 -7 -2 17.85 2.76
7 7 2 20.34 2.92
-7 -7 -2 24.29 3.7
7 7 2 15.59 2.84
7 7 2 23.46 3.65
-7 -7 -2 16.33 3.04
-7 -7 -3 196.64 10.8
7 7 3 174.4 9.16
7 7 3 184.3 10.71
-7 -7 -3 174.63 10.46
7 7 4 31.13 4.29
-7 -7 -4 30.99 4.24
7 7 4 26.47 3.41
7 7 4 26.73 4
7 7 4 33.33 3.71
-7 -7 -4 24.09 3.92
-7 -7 -5 377.47 17.38
7 7 5 440 18.08
-7 -7 -5 426.21 17.67
7 7 5 437.86 17.88
7 7 5 456.46 16.98
7 7 5 510.91 17.51
-7 -7 -6 88.09 7.59
7 7 6 103.92 8.03
-7 -7 -6 103.51 7.72
7 7 6 101.47 7.66
7 7 6 97.86 7.23
7 7 6 104.43 7.3
-7 -7 -7 4.85 2.31
7 7 7 7.7 2.31
-7 -7 -7 9.15 2.35
7 7 7 10.62 2.51
7 7 7 6.72 2.04
-7 -7 -8 27.35 4.36
7 7 8 23.94 3.93
-7 -7 -8 24.04 3.69
7 7 8 30.1 4.21
7 7 8 26.37 3.97
-7 -7 -9 160.4 10.91
7 7 9 187.97 11.32
-7 -7 -9 156.94 9.91
7 7 9 188.24 11.32
7 7 9 183.24 11.17
-7 -7 -10 82.8 7.86
7 7 10 86.38 7.74
-7 -7 -10 92.99 7.3
7 7 10 95.32 8.12
7 7 10 99.55 8.16
-7 -7 -11 141.92 10.69
7 7 11 169.94 11.08
-7 -7 -11 136.58 9.18
7 7 11 171.03 11.46
7 7 11 164.22 11.18
7 7 12 2.92 1.79
7 7 12 5.06 2.27
-7 -7 -12 2.79 1.3
7 7 12 3.01 1.63
7 7 13 85.74 8.45
7 7 13 79.36 7.37
7 7 13 89.1 8.49
-7 -7 -13 72.33 7.77
7 8 -3 0.79 1.09
7 8 -3 4.1 1.77
-7 -8 2 16.61 3.27
7 8 -2 12.7 2.53
7 8 -2 13.8 2.9
7 8 -2 18.51 3.29
-7 -8 1 3.37 1.48
7 8 -1 4.19 1.74
-7 -8 1 4.83 1.92
7 8 -1 3.59 1.4
-7 -8 1 3.25 1.58
7 8 -1 3.86 1.82
7 8 -1 3 1.61
-7 -8 0 30.92 4.18
-7 -8 0 32.02 4.07
7 8 0 34.71 4.01
-7 -8 0 24.53 3.76
7 8 0 39.08 4.75
7 8 0 33.69 4.41
-7 -8 -1 3.12 1.81
7 8 1 0.91 1.02
-7 -8 -1 1.98 1.46
-7 -8 -1 0.31 0.89
7 8 1 5 1.91
-7 -8 -2 23.6 3.37
-7 -8 -2 19.02 3.28
7 8 2 21.2 3.53
7 8 2 17.08 2.87
-7 -8 -2 17.79 3.35
7 8 2 23.15 3.82
-7 -8 -3 19.98 3.5
7 8 3 20.12 3.21
-7 -8 -3 21.23 3.65
7 8 3 17.8 2.89
7 8 3 26.23 3.89
-7 -8 -4 117.11 8.51
7 8 4 116.23 7.53
-7 -8 -4 108.12 8.16
7 8 4 105.84 7.88
7 8 4 110.43 7.4
-7 -8 -5 180.9 11.07
-7 -8 -5 186.63 11.12
7 8 5 185.27 10.8
7 8 5 176.11 9.75
7 8 5 184.48 9.9
7 8 5 176.96 9.87
-7 -8 -6 7.37 2.42
7 8 6 5.96 2.07
-7 -8 -6 7.41 2.46
7 8 6 10.27 2.63
7 8 6 7.01 1.89
7 8 6 6.91 2.02
-7 -8 -7 136.37 9.93
7 8 7 161.31 10.22
-7 -8 -7 145.95 9.78
7 8 7 132.54 9.28
7 8 7 159.53 9.66
7 8 7 157.31 9.8
-7 -8 -8 255.71 14.56
7 8 8 313.79 15.09
-7 -8 -8 267.21 13.85
7 8 8 310.07 14.7
7 8 8 291.36 14.15
-7 -8 -9 412.26 19.54
7 8 9 498.17 19.9
-7 -8 -9 406.52 17.92
7 8 9 483.57 19.82
7 8 9 457.83 19.11
-7 -8 -10 16.48 3.51
7 8 10 11.96 2.9
-7 -8 -10 12.25 2.8
7 8 10 11.93 2.82
7 8 10 16.49 3.47
-7 -8 -11 2.52 1.72
7 8 11 2.16 1.2
-7 -8 -11 0.01 1.1
7 8 11 0.2 1.15
7 8 11 -2.15 1.58
7 8 12 17.14 3.61
7 8 12 18.47 3.83
-7 -8 -12 17.67 4.03
7 8 12 20.64 3.69
7 8 13 60.4 7
7 8 13 65.93 6.78
7 8 13 54.98 6.83
-7 -8 -13 52.17 6.8
-7 -9 1 28.19 4.24
7 9 -1 27.63 3.86
-7 -9 1 25.26 3.91
7 9 -1 30.04 4.45
7 9 -1 25.57 3.68
-7 -9 0 22.15 3.62
7 9 0 20.77 3.36
-7 -9 0 19.49 3.56
7 9 0 21.85 3.35
-7 -9 0 23.78 3.82
7 9 0 24.54 3.95
7 9 0 24.12 3.86
-7 -9 -1 31.76 4.28
7 9 1 37.36 4.72
-7 -9 -1 34.03 4.37
-7 -9 -1 34.37 4.66
7 9 1 36.1 4.41
-7 -9 -2 98.02 7.72
7 9 2 97.08 7.64
-7 -9 -2 119.98 8.87
7 9 2 104.36 7.52
-7 -9 -3 21.83 3.7
7 9 3 26.25 3.81
7 9 3 29.04 3.85
-7 -9 -3 23.93 3.84
7 9 4 88.35 7.11
7 9 4 103.35 7.33
-7 -9 -4 97.37 7.98
-7 -9 -4 115.4 8.8
7 9 4 96.53 7.54
7 9 4 97.5 7.21
-7 -9 -5 54.18 6.09
7 9 5 57.93 5.42
-7 -9 -5 71.51 6.8
7 9 5 53.8 5.54
7 9 5 56.31 5.49
-7 -9 -6 292.33 15.38
7 9 6 354.77 15.11
7 9 6 324.54 14.63
-7 -9 -6 347.34 16.1
7 9 6 271.67 14.1
-7 -9 -7 13.41 3.19
7 9 7 7.01 2.27
7 9 7 9.62 2.47
-7 -9 -7 8.16 2.61
7 9 7 4.26 2.08
-7 -9 -8 129.39 10.05
-7 -9 -8 156.47 10.39
7 9 8 142.22 9.8
7 9 8 140.88 9.67
7 9 8 160.75 10.4
-7 -9 -9 4.48 2.04
7 9 9 3.94 1.65
-7 -9 -9 3.4 1.93
7 9 9 2.14 1.59
7 9 9 2.06 1.09
7 9 9 3.95 1.92
-7 -9 -10 41.01 5.88
7 9 10 48.71 5.67
-7 -9 -10 35.76 4.94
7 9 10 40.35 5.41
7 9 10 45.02 5.62
-7 -9 -11 10.56 3.26
7 9 11 17.16 3.36
-7 -9 -11 12.03 3.03
7 9 11 18.99 3.86
7 9 11 16.34 3.62
7 9 12 55.06 6.12
7 9 12 58.32 6.68
7 9 12 56.03 6.63
-7 -9 -12 48.77 6.6
7 10 0 15.7 2.96
-7 -10 0 20.43 3.69
7 10 1 0.47 1.2
-7 -10 -1 3.56 1.89
7 10 1 3.36 2.16
7 10 1 2.04 1.38
7 10 1 4.16 2.04
-7 -10 -1 3.06 1.61
-7 -10 -2 9.4 2.39
7 10 2 3.5 1.44
7 10 2 4.28 1.73
-7 -10 -2 4.73 2.26
-7 -10 -3 162.79 10.46
-7 -10 -3 187.68 11.73
7 10 3 173.68 10.19
-7 -10 -4 2.53 1.78
7 10 4 -0.6 1.42
7 10 4 -1.02 1.26
-7 -10 -4 -1.16 1.97
7 10 4 -2.67 1.42
7 10 5 100.16 7.65
7 10 5 115.28 8.17
-7 -10 -5 110.2 8.84
-7 -10 -5 126.44 9.61
7 10 5 125.32 8.75
7 10 5 123.71 8.61
-7 -10 -6 5.24 2.43
7 10 6 5.08 2.02
7 10 6 4.58 1.92
-7 -10 -6 2.54 1.35
7 10 6 3.91 1.95
7 10 6 3.11 1.47
-7 -10 -7 252.53 14.53
7 10 7 265.58 13.38
7 10 7 278.96 13.99
-7 -10 -7 265.62 14.53
7 10 7 233.74 12.9
-7 -10 -8 192.52 12.74
7 10 8 216.63 12.21
7 10 8 196.54 11.73
-7 -10 -8 191.48 12.13
7 10 8 180.43 11.02
-7 -10 -9 20.79 4.16
7 10 9 27.58 4.43
7 10 9 16.58 3.35
-7 -10 -9 24.21 4.05
7 10 9 21.42 3.68
-7 -10 -10 1.19 1.7
7 10 10 3.64 1.93
7 10 10 1.13 1.52
-7 -10 -10 3.32 2.41
7 10 10 2.68 1.62
-7 -10 -11 4.41 2.34
7 10 11 1.41 1.58
7 10 11 1.63 1.86
-7 -10 -11 0.63 1.72
7 10 11 2.59 1.63
-7 -11 -3 229.89 13.61
7 11 3 221.45 12.29
-7 -11 -4 -1.13 1.75
7 11 4 -0.78 1.2
7 11 4 -0.55 1.11
-7 -11 -4 -0.16 1.14
-7 -11 -5 3.06 1.98
7 11 5 2.6 1.82
-7 -11 -5 0.49 1.44
7 11 5 2.63 1.73
-7 -11 -6 26.49 4.43
7 11 6 24.66 4.06
-7 -11 -6 30.82 4.81
7 11 6 33.43 4.57
7 11 6 26.05 4
-7 -11 -7 64.56 7.09
7 11 7 79.62 7.15
7 11 7 75.34 7.18
-7 -11 -7 79.63 7.98
7 11 7 63.06 6.33
7 11 7 65.87 6.6
-7 -11 -8 -1.29 1.74
7 11 8 0.13 1.16
7 11 8 0.68 1.22
-7 -11 -8 0.58 1.35
7 11 8 0.98 1.27
-7 -11 -9 75.1 8.09
7 11 9 91.31 8.22
7 11 9 85.22 7.8
-7 -11 -9 83.56 8.06
7 11 9 70.49 6.7
-7 -11 -10 39.35 5.58
7 11 10 30.78 4.58
-7 -12 -5 32.78 4.82
-7 -12 -6 91.29 8.31
7 12 7 35.69 4.82
7 12 8 33.96 4.7
8 -5 0 35.53 4.98
8 -5 0 28.84 4.46
8 -5 1 4.66 2.08
8 -5 1 2.12 1.43
8 -5 2 17.79 3.77
8 -5 2 22.38 3.89
8 -5 3 -0.42 1.17
8 -4 -2 -0.69 1.24
8 -4 -2 -1.55 1.73
-8 4 2 0.52 1.6
8 -4 -2 2.31 1.91
8 -4 -1 25.46 3.95
8 -4 -1 25.23 4.28
-8 4 1 34.88 4.87
8 -4 -1 31.6 4.61
8 -4 0 0.92 1.37
-8 4 0 0.02 1.31
8 -4 0 0.48 1.17
8 -4 1 7.87 2.12
8 -4 1 10.36 2.83
-8 4 -1 6.74 2.41
8 -4 1 8.49 2.39
8 -4 2 16.76 3.28
8 -4 2 19.76 3.93
-8 4 -2 25.71 4.25
8 -4 2 24.23 3.89
-8 4 -3 18.75 3.61
8 -4 3 12.37 3.46
8 -4 3 7.32 2.53
-8 4 -3 13.97 2.95
8 -4 3 13.17 2.94
-8 4 -4 2.54 1.86
8 -4 4 -0.29 1.33
8 -4 4 0.87 1.51
-8 4 -4 0.74 1.55
-8 4 -5 9.08 2.82
8 -4 5 11.02 2.9
8 -4 6 1.99 1.5
-8 3 4 27.6 4.38
8 -3 -3 55.35 5.78
8 -3 -3 64.53 6.53
-8 3 3 54.7 6.05
8 -3 -2 63.99 5.95
8 -3 -2 85.12 7.19
-8 3 2 80.03 7.24
8 -3 -1 2.05 1.28
8 -3 -1 5.32 1.86
8 -3 -1 -0.02 1.12
-8 3 1 2.59 1.72
8 -3 -1 2.57 1.63
-8 3 0 40.51 5.13
8 -3 0 31.68 4.36
8 -3 0 39.65 4.81
8 -3 1 6.47 2.02
8 -3 1 8.75 2.47
-8 3 -1 0.88 1.3
8 -3 1 4.42 1.62
-8 3 -2 15.5 3.02
8 -3 2 14.98 3.03
8 -3 2 9.04 2.49
-8 3 -2 8.69 2.52
8 -3 2 10 2.44
-8 3 -3 1.7 1.5
8 -3 3 -0.23 0.72
8 -3 3 1.29 1.37
-8 3 -3 0.31 1.23
-8 3 -4 29.44 4.48
8 -3 4 21.73 3.62
8 -3 4 21.08 3.84
-8 3 -5 3.25 1.67
8 -3 5 6.25 2.17
-8 3 -6 75.63 7.46
8 -3 6 61.34 6.74
8 -3 6 58.17 6.77
-8 3 -7 5.14 2.45
-8 2 4 4.23 1.99
8 -2 -4 5.68 2.06
8 -2 -3 42.77 5.29
8 -2 -3 38.59 4.8
-8 2 3 39.94 4.91
8 -2 -3 30.84 4.06
-8 2 2 66.86 6.48
8 -2 -2 59.4 5.93
8 -2 -2 50.69 5.28
-8 2 2 48.26 5.44
8 -2 -2 39.59 4.4
8 -2 -1 15.02 2.96
8 -2 -1 11.99 2.64
-8 2 1 16.79 3.3
8 -2 -1 9.15 2.09
-8 2 0 2.07 1.6
8 -2 0 1.18 1.34
8 -2 0 1.52 1.47
8 -2 1 100.67 8.1
-8 2 -1 98.1 7.56
-8 2 -1 107.03 8.11
8 -2 2 309.18 15.09
-8 2 -2 302.04 14.8
-8 2 -2 332 14.97
-8 2 -3 1.68 1.04
-8 2 -3 1.16 1.61
8 -2 3 2.19 1.36
-8 2 -3 0.51 1.49
-8 2 -4 6.62 2.27
8 -2 4 6.44 2.06
8 -2 4 2.44 1.48
8 -2 4 8.3 2.52
8 -2 5 10.68 2.6
8 -2 5 16.02 3.38
8 -2 5 12.64 2.97
-8 2 -6 8.6 2.66
8 -2 6 5.3 1.81
8 -2 6 2.26 1.6
8 -2 6 3.33 1.64
-8 2 -7 0.06 1.17
8 -2 7 3.68 1.76
8 -2 7 1.13 1.65
8 -2 7 2.4 1.7
8 -2 8 26.08 4.47
8 -2 8 28.33 4.84
-8 2 -8 32.67 5.1
-8 1 4 95.76 8.16
8 -1 -4 86.43 7.23
8 -1 -4 86.69 7.64
8 -1 -4 73.07 6.44
-8 1 3 115.06 8.7
8 -1 -3 108.25 7.81
8 -1 -3 80.83 6.73
8 -1 -3 81.3 6.75
8 -1 -2 -1.64 1.39
-8 1 2 0.75 1.05
8 -1 -2 2.23 1.32
-8 1 2 -0.74 1.34
8 -1 -2 -0.88 1.13
-8 1 1 64.32 5.95
8 -1 -1 70.6 6.06
8 -1 -1 55.95 5.58
-8 1 1 60.84 6.26
8 -1 -1 60.5 5.57
8 -1 0 10.99 2.43
8 -1 0 11.44 2.62
8 -1 0 11.67 2.49
8 -1 0 12.13 2.65
-8 1 0 11.98 2.77
-8 1 0 11.13 2.58
8 -1 0 9.03 2.04
-8 1 0 15.83 3.05
8 -1 1 115.3 8.34
8 -1 1 117.6 7.46
-8 1 -1 105.16 7.88
8 -1 1 108.55 7.3
8 -1 1 111.42 8.37
8 -1 1 97.37 6.97
8 -1 1 109.23 8.23
-8 1 -1 102.39 7.78
-8 1 -2 73.03 6.58
-8 1 -2 83.15 6.91
8 -1 2 76.12 6.93
8 -1 2 64.08 6.25
-8 1 -2 68.26 6.17
-8 1 -3 4.1 2.06
8 -1 3 -0.96 1.24
-8 1 -3 2.14 1.57
8 -1 3 1.23 1.08
-8 1 -4 36.1 4.82
8 -1 4 24.42 4.02
8 -1 4 28.87 4.23
-8 1 -4 26.92 3.72
8 -1 5 67.21 6.77
8 -1 5 55.23 5.95
-8 1 -5 72.05 6.85
8 -1 5 62.1 6.23
-8 1 -6 13.53 3.03
8 -1 6 11.7 2.77
8 -1 6 11.89 2.83
8 -1 6 14.79 3.45
-8 1 -7 15.65 3.35
8 -1 7 7.8 2.69
8 -1 7 10.34 2.66
8 -1 7 9.62 2.78
-8 1 -8 0.66 1.32
8 -1 8 0.24 1.19
8 -1 8 -1.42 1.42
-8 1 -9 29.28 4.78
8 -1 9 33.05 5.15
8 -1 9 25.91 4.51
8 -1 9 26.99 4.32
8 -1 10 52.79 6.36
8 0 -4 77.64 6.97
8 0 -4 65.13 6.18
8 0 -3 3.76 2.25
-8 0 3 0.99 1.23
8 0 -3 0.57 1.32
8 0 -3 -1.32 1.55
8 0 -2 47.55 5.16
-8 0 2 65.94 6.19
8 0 -2 50.59 5.4
8 0 -2 53.19 5.35
-8 0 1 31.85 4.25
8 0 -1 22.85 3.55
-8 0 1 25.64 3.69
-8 0 1 21.07 3.59
8 0 -1 21.02 3.19
8 0 0 23.86 3.42
-8 0 0 35.27 4.25
8 0 0 32.89 4.14
-8 0 0 20.08 3.46
8 0 0 26.14 3.66
-8 0 0 28.34 3.94
8 0 1 19.25 3.49
8 0 1 17.42 2.93
8 0 1 16.02 3.08
-8 0 -1 17.23 3.04
8 0 1 14.74 2.84
-8 0 -1 20.51 3.2
8 0 2 39.13 4.91
8 0 2 47.86 5.29
-8 0 -2 31.41 4.23
8 0 2 42.15 4.85
-8 0 -3 44.92 5.13
8 0 3 35.55 4.71
8 0 3 36.45 4.44
-8 0 -3 36.37 4.37
-8 0 -4 -0.52 1.09
8 0 4 3.32 1.9
8 0 4 1.01 1.29
-8 0 -4 -0.7 1.38
-8 0 -5 48.43 5.57
8 0 5 37.74 4.96
8 0 5 46.14 5.19
-8 0 -5 38.09 4.5
8 0 5 40.62 4.85
-8 0 -6 13.81 3.17
8 0 6 7.63 2.25
8 0 6 13.49 3.02
8 0 6 11.57 2.74
-8 0 -6 8.74 2.14
8 0 7 72.99 7.05
8 0 7 76.16 7.42
-8 0 -7 82.84 7.54
8 0 8 27.58 4.41
8 0 8 25.68 4.45
-8 0 -8 25.83 4.38
8 0 9 46.61 5.9
8 0 9 50.24 6.25
-8 0 -9 57.99 6.55
8 0 9 47.1 5.73
-8 0 -10 12.69 3.39
8 0 10 10.07 3.05
8 0 10 9.14 3.17
8 0 10 14.01 3.35
8 1 -4 132.02 9.14
-8 -1 4 151.76 10.32
8 1 -3 54.47 5.56
-8 -1 3 65.39 6.24
8 1 -3 48.69 5.2
8 1 -3 46.64 5.13
-8 -1 2 4.06 1.7
8 1 -2 1.23 1.4
-8 -1 2 1.89 1.54
8 1 -2 3.67 2.03
-8 -1 1 17.59 3.12
8 1 -1 14.81 2.95
-8 -1 1 11.71 2.77
8 1 -1 17.92 3.17
8 1 0 1.59 1.08
-8 -1 0 5.55 1.79
8 1 0 3.12 1.33
-8 -1 0 1.47 1.1
8 1 0 3.27 1.33
8 1 1 14.2 2.91
8 1 1 15.3 2.83
8 1 1 8.87 2.31
-8 -1 -1 14.67 2.99
8 1 1 10.35 2.54
8 1 1 10.1 2.21
8 1 2 23.35 3.83
8 1 2 21.76 3.44
8 1 2 19.11 3.22
-8 -1 -2 19.21 3.34
8 1 2 19.16 3.03
8 1 3 25.75 3.98
8 1 3 23.06 3.66
-8 -1 -3 21.59 3.55
8 1 3 20.5 3.21
8 1 4 5.24 2.2
-8 -1 -4 2.28 1.57
8 1 4 3.24 1.39
-8 -1 -4 3.51 1.52
8 1 4 -0.3 0.84
-8 -1 -5 10.37 2.64
8 1 5 8.09 2.2
8 1 5 13.11 2.96
-8 -1 -5 9.75 2.06
8 1 5 8.84 2.17
-8 -1 -6 19.74 3.54
8 1 6 15.49 3.25
8 1 6 19.07 3.6
-8 -1 -6 15.85 2.89
8 1 6 16.76 3.05
-8 -1 -7 29.3 3.96
8 1 7 33.66 4.63
8 1 7 26.96 4.23
8 1 8 23.51 4.1
8 1 8 23.31 4.04
8 1 8 27.13 4.07
-8 -1 -8 24.78 4.23
8 1 9 7.82 2.54
8 1 9 4.31 2.27
8 1 9 3.04 1.28
-8 -1 -9 8.78 2.69
8 1 10 302.97 16.24
8 1 10 312.93 16.63
-8 -1 -10 353.61 17.18
8 1 10 295.78 15.76
8 1 11 0.47 1.51
8 1 11 1.47 1.51
8 2 -4 24.74 3.98
-8 -2 4 26.13 4.22
8 2 -4 22.82 3.46
8 2 -4 23.32 3.78
-8 -2 3 118.59 8.65
8 2 -3 100.33 7.9
-8 -2 3 114.09 8.72
8 2 -3 101.24 7.25
8 2 -3 104.89 7.9
8 2 -2 4.17 1.88
8 2 -2 2.52 1.58
-8 -2 2 3.47 1.72
8 2 -2 0.03 0.95
-8 -2 2 2.03 1.7
-8 -2 1 6.67 2.15
8 2 -1 7.15 2
-8 -2 1 13.21 2.68
8 2 -1 10.32 2.33
8 2 -1 7.47 1.83
8 2 -1 8.46 2.12
-8 -2 0 79.15 6.34
8 2 0 88.33 6.91
8 2 0 65.58 5.85
8 2 0 67.72 5.53
8 2 0 66.94 6.2
-8 -2 0 72.25 6.62
8 2 1 45.25 5.03
8 2 1 37.47 4.4
8 2 1 39.32 4.62
-8 -2 -1 36.35 4.58
8 2 1 32.08 4.24
-8 -2 -2 0.31 0.95
8 2 2 0.33 0.99
8 2 2 -0.22 0.93
8 2 2 0.66 1.17
-8 -2 -3 0.69 1.17
8 2 3 1.7 1.63
8 2 3 -0.1 1.18
8 2 4 118.05 8.76
8 2 4 128.3 8.73
8 2 4 108.28 7.31
-8 -2 -4 96.28 7.54
8 2 5 19.32 3.7
8 2 5 12.27 2.73
8 2 5 12.29 2.67
-8 -2 -5 11.91 2.65
8 2 5 12.37 2.51
8 2 6 4.25 2.09
-8 -2 -6 2.23 1.64
8 2 6 0.98 1.46
8 2 6 3.08 1.6
-8 -2 -6 0.13 0.94
-8 -2 -7 23.01 3.94
8 2 7 20.43 3.57
8 2 7 19.69 3.57
-8 -2 -7 18 3.16
8 2 8 97.96 8.22
8 2 8 91.43 7.89
-8 -2 -8 89.69 7.15
8 2 8 97.66 7.67
-8 -2 -8 111.24 8.88
8 2 9 132.18 9.95
8 2 9 128.5 9.82
-8 -2 -9 117.28 8.5
8 2 9 150.29 10.15
-8 -2 -9 160.8 10.92
8 2 10 1.62 1.78
8 2 10 3.8 2.09
-8 -2 -10 -0.9 1.81
8 2 11 21.56 4.06
8 2 11 28.31 4.64
8 2 11 27.93 4.78
-8 -2 -11 20.71 4.13
8 3 -4 31.76 4.11
-8 -3 4 40.12 5.22
-8 -3 3 75.54 6.83
8 3 -3 55.69 5.93
-8 -3 3 59.09 6.33
8 3 -3 70.31 6
8 3 -3 59.83 5.99
-8 -3 2 66.23 6.13
8 3 -2 49.62 5.59
-8 -3 2 50.43 5.76
8 3 -2 56.87 5.32
8 3 -2 46.48 5.18
-8 -3 1 56.75 5.44
8 3 -1 44.27 5.05
-8 -3 1 40.63 5.06
8 3 -1 49.79 4.85
8 3 -1 41.86 4.83
-8 -3 0 21.16 3.6
-8 -3 0 22.85 3.33
8 3 0 29.36 3.96
8 3 0 23.28 3.55
8 3 0 29.11 3.67
8 3 0 21.46 3.6
8 3 1 -0.07 0.93
8 3 1 0.33 0.83
-8 -3 -1 2.71 1.61
8 3 1 1.14 1.31
-8 -3 -2 20.97 3.48
8 3 2 34.41 4.47
8 3 2 29.84 3.83
8 3 2 28.45 3.97
8 3 3 124.94 8.96
8 3 3 113.19 7.99
8 3 3 121.68 8.56
-8 -3 -3 114.38 8.3
8 3 4 63.77 6.25
8 3 4 51.1 5.42
-8 -3 -4 51.81 5.41
8 3 5 20.06 3.82
8 3 5 18.68 3.37
-8 -3 -5 16.9 3.15
8 3 6 21.74 3.83
8 3 6 25.32 3.78
8 3 6 24.5 3.87
-8 -3 -6 18.41 3.24
8 3 7 29.86 4.76
8 3 7 23.81 3.95
8 3 7 25.57 4.12
-8 -3 -7 25.95 3.87
8 3 8 118.37 9.29
-8 -3 -8 106.05 8.62
8 3 8 98.62 8.32
8 3 8 98.76 8.12
-8 -3 -8 76.82 6.97
8 3 8 104.36 7.91
8 3 9 18.27 3.82
-8 -3 -9 17.16 3.64
8 3 9 16.13 3.46
8 3 9 14.21 3.4
8 3 9 17.05 3.41
-8 -3 -9 14.98 2.86
8 3 10 152.16 11.12
-8 -3 -10 178.65 11.64
-8 -3 -10 136.32 9.58
8 3 10 180.78 11.58
8 3 10 171.47 11.62
8 3 11 113.64 9.69
-8 -3 -11 130.54 10.07
8 3 11 109.86 9.31
8 3 11 105.68 9.34
8 3 12 5.47 2.51
8 3 12 4.01 2.02
-8 -4 3 119.39 8.77
8 4 -3 103.39 8.23
-8 -4 3 115.6 8.79
8 4 -3 101.13 7.59
8 4 -3 107.43 8.08
8 4 -2 0.34 1.48
8 4 -2 0.81 1.2
-8 -4 2 4.7 1.96
8 4 -2 4.18 1.62
-8 -4 2 7.9 2.48
-8 -4 1 52.55 5.39
8 4 -1 35.73 4.63
-8 -4 1 42.31 5.03
8 4 -1 40.41 4.51
8 4 -1 47.23 5.08
-8 -4 0 40.2 4.42
8 4 0 32.45 4.26
8 4 0 39.85 4.64
8 4 0 31.24 3.92
-8 -4 0 34.75 4.57
8 4 0 33.54 4.48
8 4 1 75.87 6.68
8 4 1 73.18 6.5
8 4 1 71.94 6.64
-8 -4 -1 70.56 6.59
-8 -4 -2 2.14 1.76
8 4 2 4.01 1.88
8 4 2 4.51 1.68
-8 -4 -3 5.69 2.02
8 4 3 0.73 1.09
8 4 3 3.26 1.86
8 4 4 221.71 12.36
8 4 4 204.45 11.6
-8 -4 -5 4.47 2.08
8 4 5 0.82 1.02
8 4 6 1.16 1.08
-8 -4 -6 1.04 1.28
8 4 7 44.57 5.29
-8 -4 -7 41.52 5.09
8 4 7 54.82 5.48
8 4 7 55.64 6.32
8 4 8 37.95 4.92
8 4 8 25.66 4.19
-8 -4 -8 28.41 4.27
8 4 8 35.59 5.12
8 4 9 51.08 5.87
8 4 9 54.54 6
-8 -4 -9 48.2 5.6
8 4 9 58.78 6.55
8 4 10 80.1 7.35
8 4 10 61.65 7.03
-8 -4 -10 54.41 6.14
8 4 10 78.88 7.77
8 4 11 9.06 2.85
8 4 11 1.46 1.24
-8 -4 -11 4.51 1.98
8 4 11 6.05 2.34
8 4 12 91.65 8.89
8 4 12 96.43 8.78
8 4 12 104.64 9.47
-8 -5 3 1.32 1.54
8 5 -3 -2.39 1.61
-8 -5 3 0.82 1.15
-8 -5 2 181.44 10.72
8 5 -2 161.87 10.5
-8 -5 2 171.95 10.72
8 5 -2 157.47 9.74
8 5 -2 141.98 9.62
-8 -5 1 58.76 5.7
8 5 -1 52.69 5.74
-8 -5 1 46.06 5.42
8 5 -1 49.66 5.25
8 5 -1 47.87 5.24
-8 -5 0 14.93 2.82
8 5 0 12.62 2.96
8 5 0 16.03 2.8
-8 -5 0 10.69 2.53
8 5 1 81.47 6.99
8 5 1 82.19 6.94
8 5 1 79.79 6.93
-8 -5 -1 60.89 6.21
8 5 2 19.25 3.5
8 5 2 19.45 3.47
-8 -5 -2 24.39 3.96
8 5 2 18.64 3.35
8 5 3 61.86 6.12
8 5 3 52.8 5.45
8 5 4 46.5 5.48
8 5 4 45.7 5.35
-8 -5 -4 41.07 4.98
-8 -5 -5 6.3 2.12
8 5 5 6.8 2.11
8 5 6 83.59 6.78
-8 -5 -6 73.41 6.94
8 5 6 97.31 8.2
8 5 7 42.73 5.04
-8 -5 -7 35.55 4.81
8 5 7 48.6 5.16
8 5 7 49.05 5.92
8 5 8 106.42 8.38
-8 -5 -8 92.96 7.92
8 5 8 113.87 8.43
8 5 8 98.73 8.42
8 5 9 4.54 1.96
8 5 9 4.78 2.01
-8 -5 -9 6.46 2.51
8 5 9 1.45 1.51
8 5 10 26.12 4.23
8 5 10 22.89 4.33
-8 -5 -10 22.04 3.98
8 5 10 25.58 4.35
8 5 11 141.85 10.49
8 5 11 113.12 9.61
-8 -5 -11 116.14 9.29
8 5 11 117.97 9.61
8 5 12 12.81 3.21
8 5 12 21.34 4.19
8 5 12 14.61 3.73
-8 -5 -12 14.28 3.53
8 6 -2 13 2.83
8 6 -2 13.59 3.23
-8 -6 2 11.29 2.77
8 6 -2 15.76 3.15
-8 -6 2 16.34 3.39
-8 -6 1 58.19 5.74
8 6 -1 57.98 6.15
-8 -6 1 68.4 6.56
8 6 -1 52.59 5.66
8 6 -1 60.1 5.97
8 6 0 156.56 9.98
-8 -6 0 166.44 9.77
-8 -6 0 156.47 10.22
8 6 0 154.77 10.34
8 6 1 7.16 2.39
8 6 1 3.73 1.75
-8 -6 -1 7.07 2.21
8 6 2 25.22 3.98
-8 -6 -2 28.82 4.28
8 6 2 25.08 4.06
-8 -6 -3 4.61 1.83
8 6 3 11.12 2.71
-8 -6 -3 7.72 2.21
8 6 3 9.04 2.43
-8 -6 -4 56.58 5.82
8 6 4 57.65 6.17
-8 -6 -4 59.54 6.13
8 6 5 24.5 4.16
-8 -6 -5 17.01 3.32
8 6 5 17.55 3.42
-8 -6 -5 24.65 4.08
8 6 6 9.09 2.53
-8 -6 -6 6.84 2.26
-8 -6 -6 7.87 2.33
-8 -6 -7 28.49 4.44
8 6 7 33.65 4.87
-8 -6 -7 31.54 4.44
8 6 7 31.22 4.28
8 6 7 35.66 4.39
8 6 8 15.11 3.11
8 6 8 7.16 2.26
-8 -6 -8 9.85 2.76
8 6 8 9.99 2.8
8 6 9 240.75 13.6
-8 -6 -9 226.29 13.5
8 6 9 255.59 14.19
8 6 10 306.09 15.42
8 6 10 297.75 15.57
8 6 10 304.87 15.82
8 6 11 10.64 2.9
8 6 11 8.91 2.81
-8 -6 -11 8.16 2.44
8 6 11 8.45 2.8
8 6 12 212.51 13.28
8 6 12 202.62 12.91
8 6 12 188.7 12.95
8 7 -1 15.19 3.22
8 7 -1 16.19 3.31
-8 -7 1 12.9 2.85
8 7 -1 13.1 2.8
-8 -7 1 13.4 2.97
8 7 0 5.46 2.07
-8 -7 0 5.43 1.91
8 7 0 2.17 1.32
8 7 0 3.47 2.06
-8 -7 0 7.02 2.35
8 7 1 61.89 6.32
-8 -7 -1 59.73 6.21
-8 -7 -1 60.82 6.08
-8 -7 -2 -1.69 1.63
8 7 2 -4.18 1.83
8 7 2 0.1 1.2
-8 -7 -2 0.35 1.15
-8 -7 -3 0.81 1.27
8 7 3 0.84 0.99
-8 -7 -3 -1.57 1.72
8 7 3 -0.59 1.54
8 7 4 -0.04 0.98
-8 -7 -4 0.78 1.31
8 7 4 -0.06 1.5
-8 -7 -4 0.91 1.38
8 7 5 9.43 2.71
-8 -7 -5 7.4 2.32
8 7 5 7.48 2.57
-8 -7 -5 10.23 3
8 7 6 34.66 4.8
-8 -7 -6 30.11 4.38
8 7 6 29.32 4.4
-8 -7 -6 27.48 4.41
8 7 7 76.7 7.3
-8 -7 -7 62.29 6.19
8 7 7 65.79 6.75
8 7 7 64.99 6.2
-8 -7 -7 55.04 6.15
8 7 7 68.27 6.39
-8 -7 -8 43.75 5.68
8 7 8 56.6 6.48
-8 -7 -8 45.61 5.46
8 7 8 48.04 5.7
8 7 8 63.98 6.32
-8 -7 -9 264.79 14.99
8 7 9 321.52 15.97
-8 -7 -9 228.1 13.32
8 7 9 254.52 14.35
8 7 9 318.03 15.3
-8 -7 -10 13.54 3.34
8 7 10 19.26 3.9
-8 -7 -10 16.61 3.56
8 7 10 14.06 3.26
8 7 10 17.16 3.49
8 7 11 85.69 8.02
8 7 11 75.96 7.56
-8 -7 -11 64.1 7.31
8 7 11 67.24 7.29
8 7 12 43.12 5.79
-8 -8 0 30.07 4.41
8 8 0 40.2 5.17
-8 -8 0 35.05 4.85
8 8 0 33.99 4.43
-8 -8 -1 21.81 3.82
8 8 1 26.4 4.07
8 8 1 21.75 3.74
-8 -8 -1 30.99 4.6
-8 -8 -2 15.99 3.26
8 8 2 18.43 3.4
-8 -8 -2 18.11 3.59
-8 -8 -3 4.3 2.01
8 8 3 7.41 2.4
8 8 3 5.84 2.4
-8 -8 -3 2.61 1.65
-8 -8 -4 3.15 1.96
8 8 4 3.13 1.42
8 8 4 3.16 2.07
8 8 4 2.04 1.19
-8 -8 -4 4.16 1.9
-8 -8 -5 39.2 5.1
8 8 5 29.79 3.82
8 8 5 36.79 4.81
-8 -8 -5 31.74 4.66
8 8 6 7.09 2.42
-8 -8 -6 9.57 2.89
8 8 6 9.54 2.3
8 8 6 12.77 2.81
-8 -8 -6 9.86 2.65
-8 -8 -7 0.58 1.24
8 8 7 2.03 1.42
-8 -8 -7 1.58 1.11
8 8 7 2.21 1.29
8 8 7 4.97 1.7
8 8 7 3.31 1.48
-8 -8 -8 23.25 4.22
8 8 8 30.78 4.74
-8 -8 -8 23.97 4.09
8 8 8 28.15 4.56
8 8 8 32.7 4.66
8 8 8 29.24 4.31
-8 -8 -9 33.61 5.19
8 8 9 37.75 5.33
-8 -8 -9 32.95 4.8
8 8 9 30.8 4.78
8 8 9 33.57 4.74
-8 -8 -10 24.12 4.45
8 8 10 30.2 4.88
-8 -8 -10 21.01 3.89
8 8 10 24.8 4.23
8 8 10 28.49 4.52
-8 -8 -11 56.89 7.06
-8 -8 -11 47.96 6.07
8 8 11 66.77 7.1
8 8 11 65.76 7.09
8 8 11 73.06 7.43
-8 -9 -1 26.13 4.22
8 9 1 21.3 3.36
8 9 1 18.25 3.48
8 9 2 61.34 6.31
-8 -9 -2 73.77 6.94
-8 -9 -2 77.84 7.47
8 9 2 67.38 5.93
8 9 3 130.1 9.47
-8 -9 -3 129.56 9.69
-8 -9 -3 153.32 10.48
8 9 3 136.17 8.78
8 9 4 75.91 7.06
-8 -9 -4 87.13 7.78
-8 -9 -4 87.73 7.87
8 9 4 80.87 6.69
8 9 4 84.26 7.5
-8 -9 -5 70.48 7.27
8 9 5 75.46 7.09
-8 -9 -5 76.31 7.36
8 9 5 73.14 7.14
8 9 5 66.3 6.1
-8 -9 -6 12.81 3.18
-8 -9 -6 16.47 3.55
8 9 6 9.15 2.39
8 9 6 11.68 2.81
-8 -9 -7 90.32 8.34
8 9 7 84.43 7.22
-8 -9 -7 81.79 7.68
8 9 7 68.57 7.04
8 9 7 76.59 6.73
-8 -9 -8 -0.64 1.01
-8 -9 -8 -0.89 1.92
8 9 8 1.13 1.13
8 9 8 -0.17 1.52
8 9 8 -1 1.3
-8 -9 -9 49.46 6.38
8 9 9 65.44 6.9
-8 -9 -9 69.12 7.16
8 9 9 56.61 6.53
8 9 9 63.27 6.75
8 9 9 68.28 6.84
8 9 10 5.33 2.28
8 9 10 5.39 2.56
8 9 10 0.78 1.38
-8 -9 -10 0.92 1.33
8 9 10 2.05 1.45
-8 -9 -11 13.94 3.27
8 10 3 185.2 11.21
-8 -10 -4 5.44 2.04
8 10 4 4.75 2.12
8 10 4 4.97 1.69
-8 -10 -5 5.96 2.31
8 10 5 2.3 1.22
8 10 5 5.72 2.07
8 10 5 5.38 2.4
-8 -10 -6 17.66 3.85
8 10 6 9.32 2.59
-8 -10 -6 13.55 3.29
8 10 6 12.09 2.7
8 10 6 9.96 2.81
-8 -10 -7 27.75 4.57
8 10 7 32.22 4.47
-8 -10 -7 29.26 4.76
8 10 7 27.51 4.23
8 10 7 30.07 4.53
-8 -10 -8 14.2 3.29
8 10 8 18.8 3.79
8 10 8 17.24 3.71
8 10 8 20.36 3.69
8 10 9 9.36 2.76
8 10 9 15.57 3.44
8 10 9 14 3.46
9 -2 1 123.1 9.64
-9 2 -4 21.28 4.05
-9 1 0 174.43 11.13
9 -1 0 167.47 9.99
9 -1 0 150.32 9.47
9 -1 1 18.6 3.76
9 -1 1 17.94 3.63
-9 1 -1 16.12 3.42
9 -1 2 81.02 7.32
9 -1 2 96.03 8.2
-9 1 -2 86.8 7.7
9 -1 3 39.95 5.63
9 -1 3 52.86 6.01
-9 1 -3 48.26 5.4
9 -1 3 45.75 5.88
-9 1 -4 1.32 1.81
9 -1 4 -0.28 0.99
9 -1 4 0.02 1.06
-9 1 -5 23.25 4.24
9 -1 5 19.54 4.09
9 -1 5 21.95 4.14
9 0 -1 7.93 2.27
9 0 0 1.83 1.38
9 0 0 3.26 1.34
-9 0 0 2.01 1.8
9 0 0 3.31 1.75
9 0 1 58.75 5.65
9 0 1 65.61 6.39
-9 0 -1 64.98 6.59
9 0 1 78.48 6.65
9 0 2 162.68 10.73
9 0 2 140.94 9.7
9 0 2 146.38 9.9
-9 0 -2 139.94 9.87
9 0 2 157.9 10.78
9 0 3 8.83 2.53
-9 0 -3 5.24 1.82
9 0 3 4.22 1.82
9 0 3 7.48 2.35
9 0 4 18.9 3.73
-9 0 -4 16.21 3.1
9 0 4 21.59 3.82
9 0 4 22.34 4.33
9 0 5 1.56 2.06
-9 0 -5 0.35 1.4
-9 0 -5 -2.8 2.02
9 0 5 0.93 0.91
-9 0 -6 27.8 4.6
9 0 6 16.84 3.5
9 0 6 27.12 4.59
-9 0 -7 -0.15 1.74
9 0 7 0.3 1.43
9 1 -1 24.76 4.13
9 1 0 83.47 7.11
9 1 0 84.89 7.38
-9 -1 0 83.37 7.63
9 1 1 17.81 3.45
-9 -1 -1 15.45 3.23
9 1 1 13.97 3.09
9 1 2 19.81 3.45
9 1 2 16.43 3.2
-9 -1 -2 13.84 3.08
9 1 2 12.55 3.07
9 1 2 19.86 3.77
9 1 3 74.11 7.11
9 1 3 57.88 6.06
-9 -1 -3 62.74 6.39
-9 -1 -4 29.7 4.43
9 1 4 38.43 5.26
9 1 5 17.32 3.53
-9 -1 -5 21 3.69
9 1 5 20.56 3.57
9 1 5 19.97 3.97
9 1 6 5.05 2.11
-9 -1 -6 5.57 2.22
9 1 6 6.87 2.63
-9 -1 -6 9.06 2.91
9 1 6 4.89 1.59
-9 -1 -7 7.14 2.67
9 1 7 2.87 1.49
9 1 7 8.32 2.84
9 1 8 15.21 3.46
-9 -2 0 2.76 1.65
9 2 0 0.79 1.22
9 2 0 2.26 1.72
9 2 1 11.08 2.63
-9 -2 -1 5.46 1.97
9 2 1 9.71 2.89
9 2 2 56.31 6.25
9 2 2 53.66 5.71
9 2 2 48.53 5.66
-9 -2 -2 48.37 5.68
-9 -2 -3 6.69 2.42
9 2 3 6.94 2.28
9 2 3 5.63 1.84
9 2 3 7.4 2.31
-9 -2 -4 18.88 3.64
9 2 4 10.89 3.02
9 2 4 11.82 3.18
9 2 5 200.68 12.52
-9 -2 -5 181.41 11.33
9 2 6 -1.48 1.76
-9 -2 -6 -1.5 1.53
9 2 6 1.47 1.76
9 2 7 15.44 3.47
-9 -2 -7 14.7 3.02
9 2 7 14.39 3.44
9 2 8 6.14 2.31
9 2 8 7.18 2.71
-9 -2 -8 7.49 2.41
9 2 8 7.78 2.78
9 2 9 94.16 8.77
9 3 0 2.31 1.51
9 3 0 0.5 1.3
9 3 0 0.51 1.15
-9 -3 0 -0.72 1.36
9 3 1 3.79 1.4
-9 -3 -1 10.61 2.66
9 3 1 7.21 2.38
9 3 2 9.88 2.7
9 3 2 8 2.41
-9 -3 -2 13.84 3.3
9 3 2 6.64 1.96
-9 -3 -3 16.95 3.58
9 3 3 28.87 4.65
9 3 3 21.4 3.74
9 3 3 19.47 3.59
9 3 4 292.84 15.13
9 3 4 302.59 15.52
-9 -3 -4 266.88 14.54
-9 -3 -5 28.6 4.42
9 3 5 30.1 4.53
9 3 6 79.87 7.69
-9 -3 -6 75.31 7.13
9 3 7 12.41 3.29
9 3 7 9.49 2.89
-9 -3 -7 8.15 2.32
9 3 8 18.18 4.01
-9 -3 -8 20.06 3.77
9 3 8 21.36 3.94
9 3 8 14.34 3.33
-9 -3 -9 2.12 1.76
9 3 9 1.97 1.98
9 4 0 25.52 3.92
-9 -4 -1 7.75 2.59
9 4 1 13.96 2.82
9 4 1 14.54 2.95
9 4 1 14.19 2.91
9 4 1 13.36 3.28
9 4 2 30.97 4.64
9 4 2 36.43 4.87
-9 -4 -2 29.15 4.54
9 4 2 25.88 4.31
9 4 3 71.25 7.07
9 4 3 64.43 6.66
-9 -4 -3 61.58 6.48
-9 -4 -4 4.64 2.01
9 4 4 9.1 2.86
9 4 4 7.27 2.58
9 4 5 86.02 8.01
9 4 5 76.93 7.51
-9 -4 -5 74.69 7.17
9 4 6 108.97 9.31
-9 -4 -6 91.69 7.94
9 4 7 5.79 2.4
-9 -4 -7 10.1 2.78
9 4 8 153.14 10.61
-9 -4 -8 138.12 10.07
9 4 9 269.33 14.91
-9 -4 -9 216.79 13.28
-9 -4 -10 0.58 1.64
9 5 1 35.81 4.72
9 5 1 36.15 4.8
-9 -5 -1 40.31 5.36
9 5 1 33.93 4.86
9 5 2 152.46 10.4
9 5 2 145.56 10.04
9 5 2 121.66 9.48
-9 -5 -2 133.75 9.91
9 5 3 31.51 4.66
9 5 3 29.98 4.64
-9 -5 -3 22.67 3.99
9 5 3 26.88 4.6
9 5 4 148.25 10.78
9 5 4 140.81 10.16
-9 -5 -4 127.55 9.75
-9 -5 -5 17.63 3.63
9 5 5 18.67 3.86
9 5 5 23.58 4.4
-9 -5 -6 29.13 4.5
9 5 6 35.37 5.08
9 5 7 33.32 5.14
-9 -5 -7 24.4 4.09
9 5 8 89.05 8.7
-9 -5 -8 84.59 7.86
9 5 9 28.27 4.54
-9 -5 -9 28.85 4.43
9 5 9 37.31 5.79
9 6 2 32.92 4.91
-9 -6 -2 29.06 4.58
9 6 2 33.86 5.2
9 6 3 146.16 10.39
9 6 3 128.28 9.62
9 6 3 118.61 9.41
-9 -6 -3 143.46 10.29
9 6 4 41.35 5.65
9 6 4 39.28 5.32
-9 -6 -4 28.58 4.4
9 6 5 12.65 3.22
9 6 5 17.56 3.53
-9 -6 -5 6.03 2.15
9 6 6 36.67 5.26
9 6 6 30.92 4.93
-9 -6 -6 39.18 5.33
9 6 7 2.39 2.39
9 6 7 1.27 1.77
-9 -6 -7 1.58 1.42
9 6 8 23.42 4.54
-9 -6 -8 15.22 3.5
9 6 9 4.68 2.29
-9 -6 -9 2.95 1.67
9 6 10 103.23 8.81
9 7 4 30.26 4.84
-9 -7 -4 30.87 4.72
9 7 4 35.04 5.17
9 7 5 37.24 5.39
-9 -7 -5 41.33 5.51
9 7 6 2.24 1.28
-9 -7 -6 1.54 1.39
9 7 6 1.47 1.19
9 7 7 -2.61 1.73
-9 -7 -7 -0.2 1.43
9 7 7 -0.67 1.6
9 7 9 4.62 1.96
loop_
_exptl_crystal_face_index_h
_exptl_crystal_face_index_k
_exptl_crystal_face_index_l
_exptl_crystal_face_perp_dist
0 0 -1 0.0579
0 0 1 0.0348
-1 1 0 0.0577
1 -1 0 0.0814
0 1 0 0.0883
0 -1 0 0.0760
1 0 -1 0.1123
1 0 1 0.1248
loop_
_geom_angle_atom_site_label_1
_geom_angle_atom_site_label_2
_geom_angle_atom_site_label_3
_geom_angle
_geom_angle_site_symmetry_1
_geom_angle_site_symmetry_3
_geom_angle_publ_flag
O2 S1 O1 112.08(2) . . ?
O3 S1 O1 106.13(2) . . ?
O3 S1 O2 122.63(3) . . ?
C8 S1 O1 101.33(2) . . ?
C8 S1 O2 106.72(2) . . ?
C8 S1 O3 105.74(2) . . ?
C1 O1 S1 121.68(3) . . ?
C2 C1 O1 119.83(4) . . ?
C6 C1 O1 116.30(4) . . ?
C6 C1 C2 123.71(4) . . ?
H2 C2 C1 121.2(5) . . ?
C3 C2 C1 118.72(4) . . ?
C3 C2 H2 120.0(5) . . ?
H3 C3 C2 118.6(5) . . ?
C4 C3 C2 120.72(4) . . ?
C4 C3 H3 120.6(5) . . ?
H4 C4 C3 122.5(5) . . ?
C5 C4 C3 120.75(4) . . ?
C5 C4 H4 116.8(5) . . ?
C6 C5 C4 119.60(4) . . ?
C7 C5 C4 121.00(4) . . ?
C7 C5 C6 119.38(4) . . ?
C5 C6 C1 116.43(4) . . ?
C7 C6 C1 123.78(4) 2_666 . ?
C7 C6 C5 119.77(4) 2_666 . ?
C6 C7 C5 120.85(4) 2_666 . ?
H7 C7 C5 118.3(5) . . ?
H7 C7 C6 120.9(5) . 2_666 ?
F1 C8 S1 108.37(3) . . ?
F2 C8 S1 110.11(4) . . ?
F2 C8 F1 109.28(4) . . ?
F3 C8 S1 109.84(3) . . ?
F3 C8 F1 109.63(4) . . ?
F3 C8 F2 109.60(4) . . ?
loop_
_geom_bond_atom_site_label_1
_geom_bond_atom_site_label_2
_geom_bond_distance
_geom_bond_site_symmetry_2
_geom_bond_publ_flag
S1 O1 1.5691(4) . ?
S1 O2 1.4158(4) . ?
S1 O3 1.4162(4) . ?
S1 C8 1.8367(5) . ?
F1 C8 1.3215(6) . ?
F2 C8 1.3209(6) . ?
F3 C8 1.3220(6) . ?
O1 C1 1.4232(5) . ?
C1 C2 1.3602(6) . ?
C1 C6 1.4239(6) . ?
C2 H2 1.075(8) . ?
C2 C3 1.4241(6) . ?
C3 H3 1.075(8) . ?
C3 C4 1.3645(7) . ?
C4 H4 1.084(9) . ?
C4 C5 1.4282(6) . ?
C5 C6 1.4354(6) . ?
C5 C7 1.3969(6) . ?
C6 C7 1.3971(6) 2_666 ?
C7 H7 1.083(8) . ?
loop_
_geom_torsion_atom_site_label_1
_geom_torsion_atom_site_label_2
_geom_torsion_atom_site_label_3
_geom_torsion_atom_site_label_4
_geom_torsion
_geom_torsion_site_symmetry_1
_geom_torsion_site_symmetry_2
_geom_torsion_site_symmetry_3
_geom_torsion_site_symmetry_4
_geom_torsion_publ_flag
S1 O1 C1 C2 68.36(4) . . . . ?
S1 O1 C1 C6 -115.96(4) . . . . ?
O1 C1 C2 C3 177.72(4) . . . . ?
O1 C1 C6 C5 -178.19(4) . . . . ?
O1 C1 C6 C7 0.36(5) . . . 2_666 ?
C1 C2 C3 C4 -0.13(6) . . . . ?
C1 C6 C5 C4 0.84(5) . . . . ?
C1 C6 C5 C7 179.42(4) . . . . ?
C1 C6 C7 C5 -179.32(5) . . 2_666 2_666 ?
C2 C3 C4 C5 -1.63(6) . . . . ?
C3 C4 C5 C6 1.23(6) . . . . ?
C3 C4 C5 C7 -177.33(5) . . . . ?
C4 C5 C6 C7 -177.77(4) . . . 2_666 ?
C4 C5 C7 C6 177.74(5) . . . 2_666 ?
C5 C6 C7 C5 -0.82(4) . . 2_666 2_666 ?
C5 C7 C6 C5 0.82(5) . . 2_666 2_666 ?
loop_
_exptl_oxdiff_crystal_face_indexfrac_h
_exptl_oxdiff_crystal_face_indexfrac_k
_exptl_oxdiff_crystal_face_indexfrac_l
_exptl_oxdiff_crystal_face_x
_exptl_oxdiff_crystal_face_y
_exptl_oxdiff_crystal_face_z
-0.0001 -0.0000 -0.9998 0.0447 -0.0653 -0.0113
0.0001 0.0000 0.9998 -0.0447 0.0653 0.0113
-1.0001 1.0011 -0.0006 -0.0473 -0.0546 0.1501
1.0001 -1.0011 0.0006 0.0473 0.0546 -0.1501
-0.0005 1.0006 -0.0001 -0.0496 -0.0702 0.0222
0.0005 -1.0006 0.0001 0.0496 0.0702 -0.0222
0.9994 -0.0005 -0.9993 0.0424 -0.0809 -0.1391
0.9997 -0.0005 1.0003 -0.0471 0.0496 -0.1166
