#------------------------------------------------------------------------------
#$Date: 2022-06-24 02:18:55 +0300 (Fri, 24 Jun 2022) $
#$Revision: 276212 $
#$URL: file:///home/coder/svn-repositories/cod/cif/7/71/05/7710587.cif $
#------------------------------------------------------------------------------
#
# This file is available in the Crystallography Open Database (COD),
# http://www.crystallography.net/
#
# All data on this site have been placed in the public domain by the
# contributors.
#
data_7710587
loop_
_publ_author_name
'Yeung, Jason'
'Becker, Matthias'
'Stephan, Douglas W.'
_publ_section_title
;
 Towards macrocyclic frustrated Lewis pairs
;
_journal_name_full               'Dalton Transactions'
_journal_paper_doi               10.1039/D2DT01716D
_journal_year                    2022
_chemical_formula_moiety         'C30 H28 B2 N2 O4'
_chemical_formula_sum            'C30 H28 B2 N2 O4'
_chemical_formula_weight         502.216
_space_group_crystal_system      triclinic
_space_group_IT_number           2
_space_group_name_Hall           '-P 1'
_space_group_name_H-M_alt        'P -1'
_symmetry_Int_Tables_number      2
_audit_creation_date             2021-10-15
_audit_creation_method
;
Olex2 1.3
(compiled 2020.11.12 svn.r5f609507 for OlexSys, GUI svn.r6408)
;
_audit_update_record
;
2021-10-15 deposited with the CCDC.	2022-06-23 downloaded from the CCDC.
;
_cell_angle_alpha                112.635(3)
_cell_angle_beta                 99.067(4)
_cell_angle_gamma                108.572(4)
_cell_formula_units_Z            1
_cell_length_a                   7.8349(13)
_cell_length_b                   9.0678(13)
_cell_length_c                   10.3304(16)
_cell_measurement_reflns_used    3708
_cell_measurement_temperature    149.49
_cell_measurement_theta_max      26.98
_cell_measurement_theta_min      2.68
_cell_volume                     608.31(17)
_computing_cell_refinement       'SAINT V8.38A (Bruker, 2018)'
_computing_data_reduction        'SAINT V8.38A (Bruker, 2018)'
_computing_molecular_graphics    'Olex2 1.3 (Dolomanov et al., 2009)'
_computing_publication_material  'Olex2 1.3 (Dolomanov et al., 2009)'
_computing_structure_refinement  'olex2.refine 1.3 (Bourhis et al., 2015)'
_diffrn_ambient_temperature      149.49
_diffrn_measured_fraction_theta_full 0.9977
_diffrn_measured_fraction_theta_max 0.9929
_diffrn_measurement_device_type  'Bruker APEX-II CCD'
_diffrn_measurement_method       '\f and \w scans'
_diffrn_radiation_type           'Mo K\a'
_diffrn_radiation_wavelength     0.71073
_diffrn_reflns_av_R_equivalents  0.0323
_diffrn_reflns_av_unetI/netI     0.0317
_diffrn_reflns_Laue_measured_fraction_full 0.9977
_diffrn_reflns_Laue_measured_fraction_max 0.9929
_diffrn_reflns_limit_h_max       9
_diffrn_reflns_limit_h_min       -10
_diffrn_reflns_limit_k_max       11
_diffrn_reflns_limit_k_min       -7
_diffrn_reflns_limit_l_max       12
_diffrn_reflns_limit_l_min       -13
_diffrn_reflns_number            11686
_diffrn_reflns_point_group_measured_fraction_full 0.9977
_diffrn_reflns_point_group_measured_fraction_max 0.9929
_diffrn_reflns_theta_full        25.2417
_diffrn_reflns_theta_max         27.12
_diffrn_reflns_theta_min         3.02
_exptl_absorpt_coefficient_mu    0.090
_exptl_absorpt_correction_T_max  0.7455
_exptl_absorpt_correction_T_min  0.7066
_exptl_absorpt_correction_type   none
_exptl_absorpt_process_details
;
SADABS-2016/2 (Bruker,2016/2) was used for absorption correction.
wR2(int) was 0.0907 before and 0.0448 after correction.
The Ratio of minimum to maximum transmission is 0.9478.
The \l/2 correction factor is Not present.
;
_exptl_crystal_colour            yellow
_exptl_crystal_colour_primary    yellow
_exptl_crystal_density_diffrn    1.371
_exptl_crystal_description       BLOCK
_exptl_crystal_F_000             264.124
_exptl_crystal_size_max          0.09
_exptl_crystal_size_mid          0.08
_exptl_crystal_size_min          0.08
_refine_diff_density_max         0.2864
_refine_diff_density_min         -0.2895
_refine_diff_density_rms         0.0585
_refine_ls_d_res_high            0.7795
_refine_ls_d_res_low             6.7531
_refine_ls_goodness_of_fit_ref   1.0584
_refine_ls_hydrogen_treatment    constr
_refine_ls_matrix_type           full
_refine_ls_number_constraints    26
_refine_ls_number_parameters     172
_refine_ls_number_reflns         2672
_refine_ls_number_restraints     0
_refine_ls_restrained_S_all      1.0584
_refine_ls_R_factor_all          0.0591
_refine_ls_R_factor_gt           0.0411
_refine_ls_shift/su_max          0.0001
_refine_ls_shift/su_mean         0.0000
_refine_ls_structure_factor_coef Fsqd
_refine_ls_weighting_details
'w=1/[\s^2^(Fo^2^)+(0.0430P)^2^+0.2015P] where P=(Fo^2^+2Fc^2^)/3'
_refine_ls_weighting_scheme      calc
_refine_ls_wR_factor_gt          0.0941
_refine_ls_wR_factor_ref         0.1055
_reflns_Friedel_coverage         0.0
_reflns_limit_h_max              9
_reflns_limit_h_min              -10
_reflns_limit_k_max              10
_reflns_limit_k_min              -11
_reflns_limit_l_max              13
_reflns_limit_l_min              0
_reflns_number_gt                2051
_reflns_number_total             2672
_reflns_threshold_expression     I>=2u(I)
_iucr_refine_instructions_details
;
TITL FINAL_a.res in P-1
REM Old TITL FINAL in P-1
REM SHELXT solution in P-1
REM R1 0.135, Rweak 0.004, Alpha 0.032, Orientation as input
REM Formula found by SHELXT: C15 B N O2
CELL 0.71073 7.8349 9.0678 10.3304 112.635 99.067 108.572
ZERR 1 0.0013 0.0013 0.0016 0.003 0.004 0.004
LATT 1
SFAC C H B N O
UNIT 30 28 2 2 4

L.S. 10
PLAN  20
SIZE 0.08 0.08 0.09
TEMP -123.66
CONF
BOND $H
LIST 6
FMAP 2
ACTA 
MORE -1
OMIT -2 -4 13
OMIT 0 0 1
OMIT 1 -1 2
WGHT 0.042969 0.201492
FVAR 1.091321
REM <olex2.extras>
REM <HklSrc "%.\\FINAL_a.hkl">
REM </olex2.extras>

O001  5     0.45227  0.39538  0.09598  11.00000  0.02459  0.02052  0.02253 =
 0.01004  0.00794  0.01175 
O002  5     0.61888  0.56857  0.36029  11.00000  0.03789  0.02124  0.01912 =
 0.00950  0.01197  0.01551 
N003  4     0.75642  0.66116  0.18616  11.00000  0.02069  0.01969  0.01940 =
 0.00948  0.00559  0.00905 
C004  1     0.64622  0.73409  0.44284  11.00000  0.02394  0.02314  0.01690 =
 0.00572  0.00168  0.01476 
C005  1     0.75437  0.37683  0.19861  11.00000  0.02611  0.02052  0.02118 =
 0.01157  0.00983  0.00999 
C006  1     0.73282  0.86635  0.40486  11.00000  0.01905  0.02082  0.02335 =
 0.00541  0.00174  0.00981 
C007  1     0.78941  0.82044  0.27499  11.00000  0.01822  0.01941  0.03041 =
 0.01199  0.00448  0.00649 
AFIX 43
H007  2     0.85427  0.91147  0.25317  11.00000 -1.20000 
AFIX 0
C008  1     0.82759  0.62933  0.05824  11.00000  0.02284  0.02630  0.02772 =
 0.01542  0.01278  0.01143 
AFIX 23
H00a  2     0.90429  0.74369  0.06448  11.00000 -1.20000 
H00b  2     0.91195  0.56902  0.06332  11.00000 -1.20000 
AFIX 0
C009  1     0.69713  0.21049  0.08212  11.00000  0.02828  0.02397  0.02142 =
 0.00775  0.00532  0.01310 
AFIX 43
H009  2     0.58064  0.16139  0.00524  11.00000 -1.20000 
AFIX 0
C00A  1     0.33015  0.48073  0.08910  11.00000  0.02669  0.02329  0.02255 =
 0.01214  0.01293  0.01365 
AFIX 23
H00c  2     0.27544  0.49576  0.17095  11.00000 -1.20000 
H00d  2     0.40294  0.59848  0.09966  11.00000 -1.20000 
AFIX 0
C00B  1     0.92778  0.44311  0.30832  11.00000  0.03147  0.02208  0.02310 =
 0.01005  0.00536  0.01041 
AFIX 43
H00e  2     0.97113  0.55624  0.39015  11.00000 -1.20000 
AFIX 0
C00C  1     0.97796  0.18404  0.18385  11.00000  0.03387  0.03217  0.03884 =
 0.02504  0.01951  0.02175 
AFIX 43
H00f  2     1.05380  0.11966  0.17785  11.00000 -1.20000 
AFIX 0
C00D  1     0.77011  1.04216  0.49760  11.00000  0.02428  0.02015  0.03639 =
 0.00380  0.00168  0.00883 
AFIX 43
H00g  2     0.82877  1.13119  0.47175  11.00000 -1.20000 
AFIX 0
C00E  1     1.03883  0.34883  0.30154  11.00000  0.02557  0.03530  0.03063 =
 0.01889  0.00587  0.01199 
AFIX 43
H00h  2     1.15603  0.39779  0.37765  11.00000 -1.20000 
AFIX 0
C00F  1     0.59542  0.77906  0.57185  11.00000  0.03403  0.03665  0.02096 =
 0.01291  0.00719  0.02221 
AFIX 43
H00i  2     0.53491  0.69119  0.59833  11.00000 -1.20000 
AFIX 0
C00G  1     0.80539  0.11285  0.07429  11.00000  0.03889  0.02421  0.02877 =
 0.01018  0.01352  0.01718 
AFIX 43
H00j  2     0.76098 -0.00178 -0.00574  11.00000 -1.20000 
AFIX 0
C00H  1     0.72202  1.08545  0.62527  11.00000  0.02997  0.02652  0.02972 =
 -0.00450 -0.00195  0.01661 
AFIX 43
H00k  2     0.74847  1.20420  0.68838  11.00000 -1.20000 
AFIX 0
C00I  1     0.63453  0.95423  0.66118  11.00000  0.03921  0.04696  0.01845 =
 0.00638  0.00515  0.03131 
AFIX 43
H00l  2     0.60036  0.98461  0.74904  11.00000 -1.20000 
AFIX 0
B00J  3     0.63576  0.49460  0.20854  11.00000  0.02607  0.01936  0.01865 =
 0.00974  0.00950  0.00983 
HKLF 4

END
Q1 1 0.68 0.9 0.638889 11 0.05 0.29
Q2 1 0.76 1.033333 0.666667 11 0.05 0.27
Q3 1 0.68 0.433333 0.194444 11 0.05 0.27
Q4 1 1 0.233333 0.277778 11 0.05 0.26
Q5 1 0.32 0.3 0.055556 11 0.05 0.25

  REM The information below was added by Olex2.
  REM
  REM R1 = 0.0411 for 2051 Fo > 4sig(Fo) and 0.0591 for all 2672 data
  REM 172 parameters refined using 0 restraints
  REM Highest difference peak 0.2864, deepest hole -0.2895
  REM Mean Shift 0.0000, Max Shift 0.0001.

  REM +++ Tabular Listing of Refinement Information +++
  REM R1_all = 0.0591
  REM R1_gt = 0.0411
  REM wR_ref = 0.1055
  REM GOOF = 1.0584
  REM Shift_max = 0.0001
  REM Shift_mean = 0.0000
  REM Reflections_all = 2672
  REM Reflections_gt = 2051
  REM Parameters = 172
  REM Hole = -0.2895
  REM Peak = 0.2864
  REM Flack = n/a

  
;
_cod_data_source_file            d2dt01716d2.cif
_cod_data_source_block           FINAL_a
_cod_database_code               7710587
_olex2_refinement_description
;
1. Fixed Uiso
 At 1.2 times of:
  All C(H) groups, All C(H,H) groups
2.a Secondary CH2 refined with riding coordinates:
 C008(H00a,H00b), C00A(H00c,H00d)
2.b Aromatic/amide H refined with riding coordinates:
 C007(H007), C009(H009), C00B(H00e), C00C(H00f), C00D(H00g), C00E(H00h),
 C00F(H00i), C00G(H00j), C00H(H00k), C00I(H00l)
;
_iucr_refine_fcf_details
;
data_FINAL_a_CCDC1
_computing_structure_refinement   'olex2.refine 1.3 (Bourhis et al., 2015)'
_shelx_refln_list_code            4
loop_
  _space_group_symop_id
  _space_group_symop_operation_xyz
  1  x,y,z
  2  -x,-y,-z

_space_group_crystal_system       triclinic
_space_group_IT_number            2
_space_group_name_H-M_alt         'P -1'
_space_group_name_Hall            '-P 1'
_symmetry_space_group_name_H-M    'P -1'
_symmetry_space_group_name_Hall   '-P 1'
_symmetry_Int_Tables_number       2
_cell_length_a                    7.8349(13)
_cell_length_b                    9.0678(13)
_cell_length_c                    10.3304(16)
_cell_angle_alpha                 112.635(3)
_cell_angle_beta                  99.067(4)
_cell_angle_gamma                 108.572(4)
_cell_volume                      608.31(17)
loop_
  _refln_index_h
  _refln_index_k
  _refln_index_l
  _refln_F_squared_calc
  _refln_F_squared_meas
  _refln_F_squared_sigma
  _refln_F_squared_weight
  _refln_observed_status
-10 3 2 0.218 -0.121 1.799 104.914 o
-10 3 3 3.044 -1.092 4.534 16.341 o
-10 4 1 4.025 -3.275 4.954 13.658 o
-10 4 2 4.967 6.066 4.389 16.811 o
-9 -1 2 0.980 -2.496 1.531 138.427 o
-9 -1 3 6.506 7.584 2.739 38.200 o
-9 -1 4 26.370 29.742 3.087 20.820 o
-9 -1 5 0.022 4.188 3.065 35.397 o
-9 -1 6 169.710 196.668 7.886 2.181 o
-9 0 1 2.944 3.233 1.734 94.244 o
-9 0 2 0.006 -0.085 2.039 82.422 o
-9 0 3 29.945 31.135 3.004 20.357 o
-9 0 4 304.900 316.585 8.706 1.091 o
-9 0 5 11.522 12.139 2.476 39.190 o
-9 0 6 43.125 50.920 3.811 12.421 o
-9 0 7 11.633 14.187 7.137 6.378 o
-9 1 1 0.542 -0.083 1.491 149.181 o
-9 1 2 1.561 2.265 1.582 119.439 o
-9 1 3 6.378 7.568 2.690 39.448 o
-9 1 4 1.084 0.970 1.757 103.835 o
-9 1 5 9.732 7.324 4.101 18.263 o
-9 1 6 8.580 7.981 2.318 47.662 o
-9 1 7 4.515 4.240 2.434 50.013 o
-9 2 1 21.656 23.970 2.139 34.201 o
-9 2 2 95.011 109.754 4.563 5.771 o
-9 2 3 7.006 7.881 1.687 77.625 o
-9 2 4 0.222 -1.753 1.548 141.192 o
-9 2 5 0.139 -1.073 1.331 191.451 o
-9 2 6 63.416 58.305 3.076 11.849 o
-9 2 7 4.366 9.990 2.689 40.034 o
-9 3 1 72.951 73.631 3.406 9.459 o
-9 3 2 5.163 5.844 2.557 44.634 o
-9 3 3 31.021 33.499 2.368 24.659 o
-9 3 4 29.102 30.482 3.369 18.114 o
-9 3 5 0.177 -1.174 2.133 74.942 o
-9 3 6 1.375 2.369 1.785 96.953 o
-9 3 7 13.918 11.964 2.424 38.622 o
-9 4 1 5.506 1.396 1.657 94.941 o
-9 4 2 3.782 3.319 2.325 55.643 o
-9 4 3 0.079 -2.415 1.746 112.002 o
-9 4 4 3.426 -0.059 2.005 76.348 o
-9 4 5 14.565 18.714 2.403 36.245 o
-9 4 6 23.124 21.721 2.850 25.138 o
-9 5 1 0.602 -0.381 2.325 62.485 o
-9 5 2 10.183 6.116 1.704 71.031 o
-9 5 3 25.945 22.250 2.612 26.505 o
-9 5 4 0.004 1.931 1.900 91.626 o
-9 5 5 19.530 18.994 2.638 29.681 o
-9 6 1 0.000 -2.702 1.344 189.740 o
-9 6 2 193.658 208.417 6.143 2.277 o
-9 6 3 44.572 47.782 3.736 12.692 o
-9 6 4 10.284 8.270 2.137 51.339 o
-9 7 1 25.726 26.539 2.553 26.357 o
-9 7 2 1.369 1.714 2.729 44.226 o
-9 7 3 0.669 2.225 3.485 27.676 o
-8 -3 2 0.224 -0.282 1.805 104.179 o
-8 -3 3 1.600 1.180 1.589 121.442 o
-8 -3 4 39.136 43.215 3.004 16.959 o
-8 -3 5 3.687 8.238 1.898 72.879 o
-8 -3 6 2.117 7.845 2.089 65.821 o
-8 -3 7 8.143 8.459 2.662 38.623 o
-8 -3 8 0.136 3.177 2.221 66.327 o
-8 -2 1 0.158 -0.712 1.790 106.249 o
-8 -2 2 20.473 19.227 2.545 30.435 o
-8 -2 3 0.202 0.048 1.463 157.867 o
-8 -2 4 6.751 9.318 1.905 65.071 o
-8 -2 5 47.729 48.569 3.089 14.602 o
-8 -2 6 17.577 15.998 4.450 14.415 o
-8 -2 7 1.034 0.997 1.907 89.153 o
-8 -2 8 0.004 -0.403 2.057 80.980 o
-8 -2 9 1.989 1.855 2.687 44.991 o
-8 -1 1 3.948 5.323 2.169 60.879 o
-8 -1 2 14.918 15.676 2.107 43.262 o
-8 -1 3 0.438 0.394 1.342 181.788 o
-8 -1 4 3.050 3.193 2.031 71.910 o
-8 -1 5 26.283 27.957 3.859 15.848 o
-8 -1 6 0.317 -2.404 2.561 51.922 o
-8 -1 7 0.194 -1.588 2.128 75.287 o
-8 -1 8 0.531 0.239 3.065 36.153 o
-8 -1 9 17.824 23.006 3.378 21.347 o
-8 0 1 23.561 22.670 1.962 35.935 o
-8 0 2 132.111 135.317 3.742 4.658 o
-8 0 3 138.084 146.322 4.432 4.050 o
-8 0 4 7.811 10.834 2.958 32.122 o
-8 0 5 275.644 285.273 6.672 1.403 o
-8 0 6 27.823 29.822 2.739 23.249 o
-8 0 7 1.703 2.646 2.331 58.606 o
-8 0 8 18.608 18.021 3.047 25.166 o
-8 0 9 5.676 7.899 2.737 38.673 o
-8 1 1 1.000 -1.406 1.251 201.661 o
-8 1 2 68.271 71.529 3.854 9.089 o
-8 1 3 293.789 305.006 6.919 1.263 o
-8 1 4 20.889 27.901 2.763 25.748 o
-8 1 5 26.373 26.451 2.206 29.879 o
-8 1 6 12.462 11.632 1.712 60.559 o
-8 1 7 9.068 7.263 2.271 48.980 o
-8 1 8 17.965 24.309 6.717 6.867 o
-8 1 9 3.016 2.079 2.404 54.080 o
-8 2 1 43.438 42.950 2.391 19.152 o
-8 2 2 99.976 104.944 3.517 6.602 o
-8 2 3 13.167 14.844 2.654 33.741 o
-8 2 4 8.652 7.726 1.570 80.195 o
-8 2 5 8.415 7.167 1.583 80.918 o
-8 2 6 41.255 40.556 2.754 18.080 o
-8 2 7 13.948 12.840 2.297 41.028 o
-8 2 8 39.684 35.262 3.642 14.485 o
-8 2 9 4.089 4.948 2.771 39.879 o
-8 3 1 14.095 14.158 2.609 34.216 o
-8 3 2 1.119 1.190 1.822 96.465 o
-8 3 3 1.465 2.320 1.302 167.012 o
-8 3 4 28.288 31.554 3.805 15.583 o
-8 3 5 69.147 70.983 3.527 9.661 o
-8 3 6 5.571 3.272 1.860 76.686 o
-8 3 7 17.567 16.451 2.218 38.380 o
-8 3 8 25.349 26.906 2.680 25.142 o
-8 4 1 29.332 27.735 1.868 31.664 o
-8 4 2 19.647 19.702 1.769 43.900 o
-8 4 3 4.371 2.269 1.300 139.630 o
-8 4 4 46.336 48.423 2.455 17.497 o
-8 4 5 15.819 17.930 2.558 33.027 o
-8 4 6 5.749 4.982 1.762 80.324 o
-8 4 7 0.015 -3.574 1.869 98.008 o
-8 5 1 16.753 15.285 1.839 47.961 o
-8 5 2 37.376 30.939 2.303 23.325 o
-8 5 3 25.940 26.672 2.181 30.331 o
-8 5 4 27.910 27.367 2.664 24.303 o
-8 5 5 25.207 26.683 3.862 16.079 o
-8 5 6 6.533 6.174 4.114 18.734 o
-8 5 7 6.058 7.369 2.267 52.519 o
-8 6 1 15.090 15.015 3.341 23.448 o
-8 6 2 70.644 72.790 4.551 7.703 o
-8 6 3 236.858 256.303 7.896 1.553 o
-8 6 4 49.046 49.765 6.087 6.659 o
-8 6 5 1.797 1.120 1.769 99.297 o
-8 6 6 16.326 21.327 3.946 17.313 o
-8 7 1 66.778 66.373 3.050 11.081 o
-8 7 2 268.249 272.814 8.193 1.340 o
-8 7 3 0.787 4.480 1.889 86.046 o
-8 7 4 1.287 -0.756 2.351 60.114 o
-8 8 1 26.608 29.052 2.426 26.782 o
-8 8 2 13.732 22.922 3.275 23.430 o
-8 8 3 16.864 22.838 3.526 20.290 o
-8 9 1 1.046 -0.420 1.763 105.445 o
-7 -5 4 5.214 5.692 2.003 66.585 o
-7 -5 5 3.280 8.224 2.229 57.069 o
-7 -5 6 3.653 5.698 2.147 62.134 o
-7 -5 7 33.574 38.344 3.247 17.212 o
-7 -4 1 0.365 -0.937 3.321 30.944 o
-7 -4 2 0.124 -2.970 1.639 126.775 o
-7 -4 3 0.004 -0.759 1.428 168.102 o
-7 -4 4 13.192 14.109 1.808 54.190 o
-7 -4 5 0.459 2.683 1.567 126.911 o
-7 -4 6 0.139 -0.540 1.624 129.042 o
-7 -4 7 8.068 8.248 1.805 68.298 o
-7 -4 8 0.684 -2.431 1.790 104.001 o
-7 -4 9 1.341 0.407 1.962 84.480 o
-7 -3 1 1.067 0.390 1.749 106.164 o
-7 -3 2 0.019 -0.460 1.447 163.529 o
-7 -3 3 0.832 1.985 1.337 168.431 o
-7 -3 4 5.714 5.211 2.486 46.606 o
-7 -3 5 24.456 22.788 2.363 29.920 o
-7 -3 6 0.075 -0.228 1.435 165.743 o
-7 -3 7 12.723 11.400 2.885 30.946 o
-7 -3 8 17.349 18.050 2.572 31.943 o
-7 -3 9 1.162 2.496 1.996 79.445 o
-7 -3 10 30.992 29.505 3.556 16.711 o
-7 -2 1 33.280 39.587 2.595 21.188 o
-7 -2 2 33.453 34.423 2.242 24.586 o
-7 -2 3 0.103 0.379 1.257 211.590 o
-7 -2 4 1.182 0.425 1.337 173.507 o
-7 -2 5 2.468 2.602 1.175 180.643 o
-7 -2 6 152.292 161.079 5.300 3.300 o
-7 -2 7 23.689 22.975 2.493 28.669 o
-7 -2 8 35.863 35.127 2.827 19.571 o
-7 -2 9 28.174 23.217 2.985 22.035 o
-7 -2 10 0.407 2.034 2.033 79.219 o
-7 -1 1 70.163 66.934 2.668 11.482 o
-7 -1 2 27.407 26.994 1.877 32.979 o
-7 -1 3 7.331 6.531 1.183 117.564 o
-7 -1 4 84.509 99.487 3.210 7.947 o
-7 -1 5 330.455 328.996 6.388 1.112 o
-7 -1 6 16.927 15.151 2.029 43.375 o
-7 -1 7 0.053 -2.397 1.607 132.379 o
-7 -1 8 8.199 11.544 2.558 39.952 o
-7 -1 9 20.849 18.345 4.828 12.205 o
-7 -1 10 15.885 20.155 3.140 24.657 o
-7 0 1 105.926 104.003 3.537 6.325 o
-7 0 2 33.101 32.105 1.757 29.367 o
-7 0 3 8.514 8.560 1.312 95.857 o
-7 0 4 76.638 76.120 2.640 10.333 o
-7 0 5 1.899 4.283 1.177 176.497 o
-7 0 6 17.020 15.456 2.733 30.347 o
-7 0 7 0.839 0.512 1.443 153.720 o
-7 0 8 2.252 6.800 6.885 7.112 o
-7 0 9 34.879 32.496 3.370 16.825 o
-7 0 10 0.032 0.901 2.391 59.285 o
-7 1 1 173.671 174.607 4.494 3.084 o
-7 1 2 113.317 115.113 3.214 5.987 o
-7 1 3 2.058 3.635 1.126 190.262 o
-7 1 4 2.184 1.714 1.147 197.890 o
-7 1 5 0.051 -0.378 1.130 267.122 o
-7 1 6 1.289 -0.181 1.406 159.276 o
-7 1 7 0.679 0.524 1.294 190.210 o
-7 1 8 62.423 61.231 3.422 10.946 o
-7 1 9 56.447 59.454 4.434 9.182 o
-7 1 10 71.579 72.097 14.400 1.482 o
-7 2 1 10.107 8.729 1.394 84.441 o
-7 2 2 8.584 8.582 1.368 91.739 o
-7 2 3 178.953 184.809 4.472 2.933 o
-7 2 4 9.331 6.492 1.372 92.585 o
-7 2 5 22.878 25.707 2.561 27.624 o
-7 2 6 81.355 90.217 3.828 7.656 o
-7 2 7 8.663 7.446 2.962 32.441 o
-7 2 8 6.614 8.728 1.898 66.239 o
-7 2 9 6.605 6.543 2.561 43.031 o
-7 2 10 80.286 64.476 7.137 4.484 o
-7 3 1 571.380 562.804 10.481 0.417 o
-7 3 2 11.506 10.611 1.403 76.862 o
-7 3 3 9.826 8.061 1.298 92.514 o
-7 3 4 3.901 2.050 1.175 166.143 o
-7 3 5 27.087 23.416 1.835 34.925 o
-7 3 6 81.688 84.643 3.458 8.312 o
-7 3 7 29.867 31.285 2.565 23.815 o
-7 3 8 3.785 1.588 1.569 110.761 o
-7 3 9 54.165 64.493 12.385 2.003 o
-7 4 1 5.345 4.194 1.130 147.644 o
-7 4 2 1.833 1.066 1.034 246.376 o
-7 4 3 47.818 41.779 2.087 19.631 o
-7 4 4 121.396 114.300 3.842 5.281 o
-7 4 5 1.755 4.190 1.451 130.067 o
-7 4 6 44.317 40.554 2.767 17.349 o
-7 4 7 2.824 2.066 2.288 59.458 o
-7 4 8 4.181 2.330 2.115 65.713 o
-7 5 1 93.468 83.826 2.687 8.474 o
-7 5 2 19.250 17.476 1.504 51.417 o
-7 5 3 442.308 411.583 9.177 0.664 o
-7 5 4 52.439 54.817 3.049 13.573 o
-7 5 5 44.261 42.865 3.147 15.392 o
-7 5 6 19.574 19.817 2.494 31.468 o
-7 5 7 4.064 9.740 3.191 29.945 o
-7 6 1 11.713 9.080 1.440 76.602 o
-7 6 2 0.565 0.827 1.280 193.562 o
-7 6 3 0.386 2.276 2.813 42.217 o
-7 6 4 9.090 8.372 1.841 64.479 o
-7 6 5 5.328 5.038 2.519 46.007 o
-7 6 6 5.477 6.213 2.939 34.797 o
-7 6 7 7.951 10.747 3.443 24.860 o
-7 7 1 8.921 12.871 1.496 76.256 o
-7 7 2 35.452 33.928 2.519 21.916 o
-7 7 3 78.957 82.948 5.374 6.018 o
-7 7 4 50.408 48.271 4.534 9.756 o
-7 7 5 5.548 2.435 2.603 44.388 o
-7 8 1 0.130 -1.679 1.595 133.746 o
-7 8 2 15.051 20.991 3.107 25.167 o
-7 8 3 7.903 3.023 2.267 52.918 o
-7 8 4 14.536 18.304 3.359 22.968 o
-7 9 1 6.174 5.878 2.099 60.145 o
-7 9 2 1.021 3.610 2.183 66.525 o
-6 -6 3 0.235 3.540 1.911 87.297 o
-6 -6 4 5.875 4.071 1.911 71.891 o
-6 -6 5 31.834 31.502 3.388 17.374 o
-6 -6 6 9.243 12.550 2.195 48.268 o
-6 -6 7 9.519 11.106 2.174 49.417 o
-6 -6 8 5.556 7.022 2.981 33.692 o
-6 -6 9 30.580 25.449 7.095 5.941 o
-6 -5 1 3.975 5.957 1.719 87.246 o
-6 -5 2 1.378 -0.485 1.372 165.736 o
-6 -5 3 9.631 6.678 1.583 78.147 o
-6 -5 4 58.794 56.406 2.894 13.046 o
-6 -5 5 0.140 2.538 1.527 135.861 o
-6 -5 6 83.969 82.208 3.296 8.463 o
-6 -5 7 6.718 9.123 1.927 64.272 o
-6 -5 8 34.236 32.972 2.815 20.340 o
-6 -5 9 36.243 41.149 5.537 8.371 o
-6 -5 10 1.539 4.176 2.558 48.686 o
-6 -4 1 0.693 -1.055 1.297 193.106 o
-6 -4 2 0.677 -0.476 1.294 194.251 o
-6 -4 3 0.071 -0.196 1.213 231.314 o
-6 -4 4 16.087 16.234 1.670 52.564 o
-6 -4 5 1.157 1.195 1.404 155.114 o
-6 -4 6 7.926 6.825 1.567 83.946 o
-6 -4 7 11.453 12.664 1.623 64.861 o
-6 -4 8 4.093 3.704 1.376 125.979 o
-6 -4 9 0.282 0.450 1.699 115.944 o
-6 -4 10 0.935 1.238 2.449 55.209 o
-6 -4 11 16.161 21.092 3.442 21.394 o
-6 -3 1 11.294 11.196 1.511 71.613 o
-6 -3 2 0.808 -0.922 1.019 298.735 o
-6 -3 3 0.416 -0.936 1.157 245.568 o
-6 -3 4 0.022 0.087 1.335 191.287 o
-6 -3 5 70.213 66.588 3.830 9.174 o
-6 -3 6 165.325 166.221 4.581 3.264 o
-6 -3 7 66.336 66.883 2.873 11.492 o
-6 -3 8 0.821 2.098 1.564 126.928 o
-6 -3 9 4.795 3.905 1.628 95.338 o
-6 -3 10 2.693 6.159 1.997 71.539 o
-6 -3 11 43.272 51.651 3.557 13.259 o
-6 -2 1 3.904 4.703 1.352 126.937 o
-6 -2 2 1.712 0.947 1.029 252.515 o
-6 -2 3 0.115 -0.487 0.947 375.330 o
-6 -2 4 1.080 -0.607 0.896 360.989 o
-6 -2 5 110.004 113.215 2.878 6.413 o
-6 -2 6 0.015 -1.196 1.042 314.925 o
-6 -2 7 3.034 3.051 1.538 114.467 o
-6 -2 8 0.291 0.733 1.451 156.196 o
-6 -2 9 9.102 8.664 1.967 58.868 o
-6 -2 10 0.293 1.261 1.631 123.016 o
-6 -2 11 6.137 13.295 2.939 32.680 o
-6 -1 1 196.791 192.409 3.857 2.749 o
-6 -1 2 9.025 6.472 1.133 112.186 o
-6 -1 3 12.873 13.390 1.189 78.684 o
-6 -1 4 6.540 6.134 1.015 143.053 o
-6 -1 5 27.371 28.901 1.701 34.460 o
-6 -1 6 198.520 205.519 7.304 2.036 o
-6 -1 7 20.246 18.367 1.663 46.135 o
-6 -1 8 87.755 97.263 4.044 6.864 o
-6 -1 9 0.008 2.549 1.790 101.495 o
-6 -1 10 2.819 4.133 2.271 58.737 o
-6 -1 11 3.662 8.878 2.642 42.211 o
-6 0 1 1.755 0.505 0.784 385.919 o
-6 0 2 1.006 0.753 0.851 376.197 o
-6 0 3 0.212 -0.317 0.976 349.154 o
-6 0 4 1.759 3.011 1.026 228.478 o
-6 0 5 59.589 59.190 2.278 14.465 o
-6 0 6 149.359 140.408 3.755 4.122 o
-6 0 7 9.360 8.136 1.373 89.357 o
-6 0 8 9.578 10.387 1.539 75.623 o
-6 0 9 0.597 1.418 1.805 99.756 o
-6 0 10 0.222 1.786 2.393 58.318 o
-6 0 11 0.323 2.855 3.778 23.614 o
-6 1 1 0.060 0.102 0.691 696.516 o
-6 1 2 240.801 262.320 5.313 1.788 o
-6 1 3 164.873 174.818 3.426 3.503 o
-6 1 4 1.803 0.650 1.020 257.656 o
-6 1 5 5.601 5.395 1.304 119.403 o
-6 1 6 43.620 38.620 2.112 21.207 o
-6 1 7 21.018 20.166 1.771 42.277 o
-6 1 8 151.223 127.770 4.489 3.939 o
-6 1 9 3.722 1.522 2.107 67.756 o
-6 1 10 13.334 11.839 4.114 17.295 o
-6 1 11 4.807 3.303 3.610 24.591 o
-6 2 1 1.049 -0.197 0.674 575.079 o
-6 2 2 13.485 13.273 1.052 82.743 o
-6 2 3 118.902 113.365 3.761 5.438 o
-6 2 4 134.268 134.017 6.364 3.401 o
-6 2 5 24.621 22.844 1.510 41.859 o
-6 2 6 263.501 264.450 6.608 1.521 o
-6 2 7 10.950 7.369 2.162 50.294 o
-6 2 8 26.367 23.812 2.426 28.025 o
-6 2 9 124.015 125.405 5.558 4.052 o
-6 2 10 19.477 18.881 3.140 23.752 o
-6 3 1 34.963 35.380 1.456 29.884 o
-6 3 2 1.759 1.753 0.715 393.689 o
-6 3 3 11.379 11.165 1.343 79.365 o
-6 3 4 9.841 12.099 1.224 89.232 o
-6 3 5 13.225 11.321 1.521 66.635 o
-6 3 6 81.653 80.340 3.302 8.690 o
-6 3 7 136.324 139.803 4.579 4.102 o
-6 3 8 39.590 48.042 3.718 13.343 o
-6 3 9 6.880 8.519 2.475 44.386 o
-6 3 10 132.923 157.307 9.320 2.255 o
-6 4 1 1.804 2.716 0.688 378.361 o
-6 4 2 1.774 1.634 0.744 377.692 o
-6 4 3 15.301 15.243 1.309 65.625 o
-6 4 4 1.959 1.001 1.023 247.968 o
-6 4 5 81.189 79.114 3.146 9.000 o
-6 4 6 22.964 24.026 3.328 20.431 o
-6 4 7 33.697 36.398 3.232 17.462 o
-6 4 8 96.909 111.117 5.878 4.625 o
-6 4 9 47.197 57.499 2.979 14.395 o
-6 5 1 3.020 2.848 0.831 262.937 o
-6 5 2 11.633 13.487 1.233 80.353 o
-6 5 3 52.909 54.696 2.104 16.726 o
-6 5 4 427.519 433.565 9.533 0.662 o
-6 5 5 147.343 151.383 5.626 3.346 o
-6 5 6 0.323 -0.629 1.973 87.059 o
-6 5 7 0.003 -2.183 2.519 54.014 o
-6 5 8 12.789 17.178 4.089 17.168 o
-6 6 1 41.445 37.502 1.793 24.009 o
-6 6 2 34.410 33.586 3.364 16.844 o
-6 6 3 640.492 646.254 16.268 0.296 o
-6 6 4 0.487 1.259 2.015 81.376 o
-6 6 5 6.964 4.450 2.519 44.810 o
-6 6 6 0.870 -0.266 2.193 69.545 o
-6 6 7 51.109 52.565 3.921 11.168 o
-6 7 1 54.627 47.099 2.160 16.983 o
-6 7 2 25.321 23.426 3.023 22.494 o
-6 7 3 26.855 26.121 2.254 29.172 o
-6 7 4 12.127 7.053 2.603 37.751 o
-6 7 5 2.346 2.497 1.558 117.315 o
-6 7 6 0.789 -0.164 1.434 158.410 o
-6 8 1 20.131 18.626 2.855 26.742 o
-6 8 2 1.014 3.694 2.015 76.987 o
-6 8 3 9.793 8.759 2.599 38.850 o
-6 8 4 5.390 7.712 1.633 86.105 o
-6 8 5 48.638 59.669 3.371 12.714 o
-6 9 1 81.025 87.696 3.166 8.657 o
-6 9 2 24.314 30.372 2.191 30.095 o
-6 9 3 7.476 9.842 1.671 74.790 o
-6 10 1 6.791 11.643 2.144 53.371 o
-5 -7 3 2.596 4.636 2.160 64.142 o
-5 -7 4 116.710 127.534 5.064 4.473 o
-5 -7 5 113.970 131.732 5.046 4.500 o
-5 -7 6 0.237 1.091 1.729 110.795 o
-5 -7 7 2.280 2.104 2.218 63.761 o
-5 -7 8 9.629 8.159 2.470 42.322 o
-5 -7 9 17.849 16.272 3.820 18.387 o
-5 -6 1 10.813 11.316 2.266 45.289 o
-5 -6 2 63.467 70.477 4.017 9.167 o
-5 -6 3 117.082 142.196 5.149 4.239 o
-5 -6 4 21.042 25.953 2.650 27.326 o
-5 -6 5 5.740 7.622 1.928 67.527 o
-5 -6 6 3.532 6.894 1.846 78.162 o
-5 -6 7 6.382 12.562 2.303 48.012 o
-5 -6 8 1.894 2.374 2.677 45.167 o
-5 -6 9 20.591 19.430 2.977 25.044 o
-5 -6 10 95.274 112.020 5.751 4.749 o
-5 -6 11 0.000 0.544 2.400 59.143 o
-5 -5 1 160.945 157.327 4.210 3.533 o
-5 -5 2 1.964 1.613 1.213 185.203 o
-5 -5 3 77.082 81.731 3.124 9.258 o
-5 -5 4 8.959 8.566 1.532 80.267 o
-5 -5 5 5.122 4.628 1.318 123.231 o
-5 -5 6 0.000 1.733 1.199 220.516 o
-5 -5 7 0.254 2.069 1.294 185.352 o
-5 -5 8 1.842 1.367 1.769 98.621 o
-5 -5 9 0.118 3.009 2.393 57.637 o
-5 -5 10 1.284 1.364 2.519 51.833 o
-5 -5 11 0.324 -0.342 2.295 64.537 o
-5 -4 1 6.604 5.111 1.364 108.513 o
-5 -4 2 0.710 1.953 1.245 192.750 o
-5 -4 3 51.441 48.454 2.278 17.092 o
-5 -4 4 18.487 18.941 1.752 45.913 o
-5 -4 5 6.355 5.554 1.316 113.184 o
-5 -4 6 1.998 2.229 1.247 173.083 o
-5 -4 7 27.620 30.060 2.339 27.003 o
-5 -4 8 68.536 64.387 3.321 10.423 o
-5 -4 9 22.338 26.233 2.395 29.727 o
-5 -4 10 6.964 2.408 1.669 87.055 o
-5 -4 11 4.622 3.980 3.233 30.134 o
-5 -4 12 7.885 6.369 2.700 38.602 o
-5 -3 1 1.104 3.615 1.018 238.938 o
-5 -3 2 1.874 0.975 1.006 257.057 o
-5 -3 3 184.130 179.307 3.613 3.078 o
-5 -3 4 114.653 103.794 2.541 6.644 o
-5 -3 5 12.281 12.564 1.199 81.342 o
-5 -3 6 4.413 3.893 0.974 186.702 o
-5 -3 7 281.296 262.012 5.686 1.508 o
-5 -3 8 15.226 16.573 2.038 44.129 o
-5 -3 9 40.389 41.921 3.612 14.059 o
-5 -3 10 11.900 11.495 3.168 27.061 o
-5 -3 11 28.313 33.040 2.872 21.526 o
-5 -3 12 19.889 22.064 3.523 19.753 o
-5 -2 1 105.712 104.107 2.541 7.129 o
-5 -2 2 11.474 12.852 0.954 95.819 o
-5 -2 3 2.683 4.356 0.728 285.202 o
-5 -2 4 69.507 65.364 1.790 13.440 o
-5 -2 5 154.750 159.891 3.137 3.959 o
-5 -2 6 524.770 514.214 14.549 0.419 o
-5 -2 7 57.568 56.046 2.349 14.885 o
-5 -2 8 14.495 14.230 1.890 49.989 o
-5 -2 9 5.198 6.780 1.663 86.127 o
-5 -2 10 5.548 2.615 2.016 68.233 o
-5 -2 11 13.171 14.863 2.760 31.927 o
-5 -2 12 8.357 0.648 1.983 66.395 o
-5 -1 1 22.335 22.514 1.260 48.782 o
-5 -1 2 16.418 15.651 1.071 70.147 o
-5 -1 3 32.033 31.017 1.322 34.317 o
-5 -1 4 23.608 26.061 1.237 45.376 o
-5 -1 5 54.634 56.638 3.018 13.235 o
-5 -1 6 14.295 14.251 1.465 63.452 o
-5 -1 7 10.242 8.082 1.370 86.459 o
-5 -1 8 0.418 -1.340 1.151 248.039 o
-5 -1 9 6.979 13.050 2.047 55.706 o
-5 -1 10 2.964 4.609 1.624 101.771 o
-5 -1 11 1.120 -1.595 3.191 33.173 o
-5 -1 12 3.728 3.467 2.939 36.483 o
-5 0 1 41.293 44.718 1.373 24.908 o
-5 0 2 29.792 30.008 1.913 30.270 o
-5 0 3 88.671 80.518 2.017 9.785 o
-5 0 4 226.025 215.377 3.793 2.276 o
-5 0 5 121.155 115.790 3.347 5.567 o
-5 0 6 0.200 0.553 0.919 377.053 o
-5 0 7 57.981 55.730 2.356 14.819 o
-5 0 8 50.543 34.768 2.152 19.538 o
-5 0 9 11.097 11.271 2.172 47.629 o
-5 0 10 9.788 14.358 4.114 17.628 o
-5 0 11 0.106 -0.798 1.889 95.689 o
-5 1 1 19.364 15.995 1.075 62.944 o
-5 1 2 34.627 37.240 1.384 30.082 o
-5 1 3 163.206 167.565 3.142 3.681 o
-5 1 4 85.884 90.724 2.148 9.422 o
-5 1 5 162.491 149.416 4.255 3.565 o
-5 1 6 45.882 44.896 1.986 20.217 o
-5 1 7 33.492 29.550 1.903 28.519 o
-5 1 8 1.870 4.634 1.370 139.604 o
-5 1 9 1.277 -1.175 2.939 38.907 o
-5 1 10 4.048 5.662 2.066 65.526 o
-5 1 11 0.961 -2.800 2.175 70.503 o
-5 2 1 110.220 112.781 2.289 6.800 o
-5 2 2 326.324 336.630 5.727 1.142 o
-5 2 3 187.706 185.283 3.325 3.027 o
-5 2 4 53.948 54.028 1.656 18.043 o
-5 2 5 10.325 6.777 1.056 110.184 o
-5 2 6 0.152 0.570 0.925 374.470 o
-5 2 7 131.435 128.928 3.635 4.826 o
-5 2 8 32.864 29.220 4.030 14.007 o
-5 2 9 1.202 2.673 1.321 163.890 o
-5 2 10 20.965 28.879 3.988 15.801 o
-5 3 1 66.424 66.458 1.536 14.344 o
-5 3 2 26.862 29.294 1.097 41.837 o
-5 3 3 6.948 4.218 0.850 170.844 o
-5 3 4 30.225 29.931 1.274 36.581 o
-5 3 5 7.724 7.225 0.974 133.026 o
-5 3 6 305.372 295.868 7.071 1.226 o
-5 3 7 1.839 3.447 3.652 24.784 o
-5 3 8 6.224 7.873 1.649 82.223 o
-5 3 9 3.313 5.036 1.504 111.470 o
-5 3 10 18.981 24.636 3.323 21.352 o
-5 4 1 329.396 331.656 4.685 1.183 o
-5 4 2 69.859 69.018 1.475 13.636 o
-5 4 3 157.236 144.656 2.367 4.301 o
-5 4 4 1224.040 1206.850 19.787 0.101 o
-5 4 5 234.178 225.656 5.684 1.928 o
-5 4 6 126.014 124.259 7.221 3.219 o
-5 4 7 178.028 185.483 5.725 2.651 o
-5 4 8 33.245 37.081 2.408 22.917 o
-5 4 9 9.592 14.404 1.817 59.189 o
-5 5 1 14.184 15.788 0.805 85.390 o
-5 5 2 9.787 10.708 0.710 125.717 o
-5 5 3 110.474 113.519 4.200 5.436 o
-5 5 4 165.071 161.845 5.458 3.047 o
-5 5 5 48.231 44.087 3.057 15.007 o
-5 5 6 14.639 13.941 1.597 58.715 o
-5 5 7 12.863 9.113 1.587 67.108 o
-5 5 8 0.523 2.133 1.647 117.078 o
-5 6 1 18.450 19.957 1.388 53.480 o
-5 6 2 0.952 1.726 0.860 347.270 o
-5 6 3 13.149 13.147 1.454 67.422 o
-5 6 4 87.055 83.368 5.290 5.821 o
-5 6 5 0.566 0.605 1.272 197.404 o
-5 6 6 1.810 1.091 1.682 108.756 o
-5 6 7 20.978 25.423 2.465 29.712 o
-5 7 1 17.802 17.856 1.951 42.928 o
-5 7 2 0.000 -0.252 1.595 134.667 o
-5 7 3 24.091 24.991 1.962 34.747 o
-5 7 4 0.340 0.311 1.688 117.515 o
-5 7 5 37.530 41.523 2.725 18.997 o
-5 7 6 1.926 4.255 2.262 60.375 o
-5 8 1 218.704 221.668 5.502 2.094 o
-5 8 2 9.427 8.069 1.424 85.993 o
-5 8 3 5.554 5.871 1.367 111.689 o
-5 8 4 9.883 8.265 1.602 74.335 o
-5 8 5 0.861 0.237 1.467 150.093 o
-5 9 1 36.966 36.095 2.103 23.975 o
-5 9 2 3.407 5.681 1.465 113.589 o
-5 9 3 4.610 6.212 1.593 94.567 o
-5 10 1 47.401 48.345 4.292 10.630 o
-4 -8 3 53.477 56.994 3.861 10.903 o
-4 -8 4 21.790 24.740 4.288 14.323 o
-4 -8 5 6.888 11.250 2.204 51.405 o
-4 -8 6 5.745 4.238 1.741 82.840 o
-4 -8 7 17.415 16.363 2.209 38.697 o
-4 -8 8 0.439 -1.232 1.897 93.689 o
-4 -8 9 14.786 20.187 2.880 28.219 o
-4 -7 1 40.684 43.776 3.398 14.796 o
-4 -7 2 7.470 7.882 2.115 56.074 o
-4 -7 3 0.836 2.757 2.101 72.672 o
-4 -7 4 0.021 -0.919 2.275 66.200 o
-4 -7 5 0.238 0.838 1.619 126.465 o
-4 -7 6 6.782 3.678 1.718 82.193 o
-4 -7 7 4.916 5.738 1.827 77.283 o
-4 -7 8 1.076 0.353 2.616 48.857 o
-4 -7 9 13.372 13.330 2.701 33.224 o
-4 -7 10 0.077 0.962 2.075 78.201 o
-4 -7 11 42.460 43.954 3.913 12.520 o
-4 -6 1 84.850 88.858 3.527 7.876 o
-4 -6 2 71.879 82.445 3.103 9.705 o
-4 -6 3 0.051 -0.554 1.234 224.194 o
-4 -6 4 0.733 0.773 1.237 203.786 o
-4 -6 5 23.456 20.451 1.721 40.721 o
-4 -6 6 129.449 123.404 3.565 5.013 o
-4 -6 7 3.074 4.638 1.984 73.183 o
-4 -6 8 59.064 61.937 3.057 12.202 o
-4 -6 9 221.439 232.894 9.068 1.549 o
-4 -6 10 18.598 20.346 2.902 26.435 o
-4 -6 11 199.478 217.404 8.058 1.860 o
-4 -6 12 14.204 17.217 2.977 27.747 o
-4 -5 1 1.822 2.817 1.123 201.098 o
-4 -5 2 260.092 263.429 5.321 1.656 o
-4 -5 3 76.088 70.385 2.732 10.521 o
-4 -5 4 25.895 21.808 1.703 38.278 o
-4 -5 5 2.426 1.764 1.108 203.778 o
-4 -5 6 13.305 13.896 1.463 65.945 o
-4 -5 7 12.732 12.110 1.413 71.239 o
-4 -5 8 13.083 15.124 2.121 44.973 o
-4 -5 9 241.146 239.016 6.430 1.744 o
-4 -5 10 90.340 88.827 4.918 5.993 o
-4 -5 11 0.001 1.542 2.197 69.476 o
-4 -5 12 3.055 3.585 2.339 55.789 o
-4 -4 1 36.865 39.476 1.843 25.151 o
-4 -4 2 76.919 69.709 2.077 11.586 o
-4 -4 3 4.682 1.764 0.735 261.006 o
-4 -4 4 1.705 1.221 0.824 344.420 o
-4 -4 5 29.151 30.448 1.610 33.704 o
-4 -4 6 77.475 75.470 2.569 10.396 o
-4 -4 7 138.870 133.032 3.474 4.615 o
-4 -4 8 244.943 226.965 5.961 1.812 o
-4 -4 9 20.475 20.530 2.041 37.783 o
-4 -4 10 18.589 19.816 2.204 36.657 o
-4 -4 11 0.963 2.679 1.711 105.756 o
-4 -4 12 0.815 3.732 3.610 25.575 o
-4 -3 1 33.723 30.866 1.326 33.134 o
-4 -3 2 17.569 16.183 1.020 68.158 o
-4 -3 3 38.794 38.994 1.337 27.629 o
-4 -3 4 3.046 3.509 0.783 268.373 o
-4 -3 5 2.073 2.416 0.705 362.135 o
-4 -3 6 170.593 155.080 3.000 3.691 o
-4 -3 7 2.051 3.071 1.038 218.413 o
-4 -3 8 0.511 1.306 1.253 198.423 o
-4 -3 9 9.335 9.060 1.669 71.314 o
-4 -3 10 42.357 41.279 2.723 17.915 o
-4 -3 11 7.040 13.361 3.317 26.370 o
-4 -3 12 61.740 67.613 3.760 9.945 o
-4 -2 1 524.453 545.554 7.480 0.501 o
-4 -2 2 489.112 509.228 7.787 0.558 o
-4 -2 3 0.067 -1.044 0.668 752.672 o
-4 -2 4 0.894 1.261 0.617 584.067 o
-4 -2 5 26.255 26.419 1.189 42.875 o
-4 -2 6 0.255 -0.871 0.728 607.068 o
-4 -2 7 369.932 357.030 6.244 0.953 o
-4 -2 8 1.182 1.557 0.948 294.321 o
-4 -2 9 15.186 13.995 1.947 47.779 o
-4 -2 10 38.275 30.897 3.191 17.337 o
-4 -2 11 46.469 48.419 3.220 14.303 o
-4 -2 12 1.238 4.477 1.855 87.492 o
-4 -1 1 23.636 25.787 0.991 49.071 o
-4 -1 2 115.357 116.804 2.026 6.564 o
-4 -1 3 42.092 37.166 1.141 27.477 o
-4 -1 4 0.258 0.275 0.539 996.241 o
-4 -1 5 2.068 3.077 0.787 307.315 o
-4 -1 6 109.918 115.247 2.684 6.498 o
-4 -1 7 54.741 55.164 1.984 16.672 o
-4 -1 8 13.591 12.701 1.390 69.424 o
-4 -1 9 30.816 35.502 3.210 18.269 o
-4 -1 10 0.000 1.548 1.637 123.055 o
-4 -1 11 27.643 29.346 2.746 23.324 o
-4 -1 12 0.153 -0.824 2.162 73.032 o
-4 0 1 66.820 67.805 1.434 14.333 o
-4 0 2 74.067 79.781 1.805 11.728 o
-4 0 3 643.394 646.619 8.534 0.354 o
-4 0 4 285.982 307.704 4.474 1.441 o
-4 0 5 24.190 26.820 1.219 44.532 o
-4 0 6 92.966 95.194 2.717 8.069 o
-4 0 7 16.171 16.395 1.430 59.028 o
-4 0 8 0.585 -0.985 1.255 207.335 o
-4 0 9 43.548 29.138 2.953 17.762 o
-4 0 10 36.819 24.871 2.387 23.959 o
-4 0 11 0.011 0.921 1.815 102.094 o
-4 0 12 1.216 1.850 2.459 54.072 o
-4 1 1 132.021 135.616 2.161 5.332 o
-4 1 2 0.299 0.004 0.480 1264.840 o
-4 1 3 5.195 4.532 0.714 219.990 o
-4 1 4 3.996 1.605 0.687 302.043 o
-4 1 5 0.012 -0.073 0.778 564.155 o
-4 1 6 0.144 -0.829 0.796 525.360 o
-4 1 7 75.226 70.379 2.534 10.964 o
-4 1 8 111.525 92.897 4.660 5.404 o
-4 1 9 4.845 4.515 1.303 127.213 o
-4 1 10 2.970 2.379 2.068 70.683 o
-4 1 11 1.114 -0.962 3.443 28.557 o
-4 2 1 297.620 294.853 4.171 1.430 o
-4 2 2 357.060 359.336 4.967 1.029 o
-4 2 3 444.120 462.802 5.865 0.686 o
-4 2 4 15.372 15.337 0.897 79.066 o
-4 2 5 29.358 28.150 1.233 38.501 o
-4 2 6 12.345 9.272 0.938 100.894 o
-4 2 7 25.201 21.142 2.687 26.214 o
-4 2 8 43.178 38.379 2.992 16.700 o
-4 2 9 0.776 -1.238 1.279 197.024 o
-4 2 10 5.358 3.598 2.068 64.920 o
-4 2 11 63.474 85.892 5.156 6.831 o
-4 3 1 31.637 38.610 0.995 34.401 o
-4 3 2 116.084 117.973 1.907 6.553 o
-4 3 3 216.456 220.520 3.117 2.427 o
-4 3 4 1.920 1.216 0.597 488.768 o
-4 3 5 2.794 3.545 0.760 283.664 o
-4 3 6 11.246 12.005 1.643 65.172 o
-4 3 7 2.479 2.126 1.163 186.305 o
-4 3 8 0.121 -0.472 1.170 247.494 o
-4 3 9 7.899 9.569 1.817 66.712 o
-4 3 10 89.445 102.766 9.110 2.900 o
-4 4 1 47.304 56.538 1.171 21.146 o
-4 4 2 59.510 57.206 1.205 17.435 o
-4 4 3 79.563 79.778 1.482 11.444 o
-4 4 4 22.988 22.869 1.271 47.527 o
-4 4 5 1318.900 1271.000 33.959 0.075 o
-4 4 6 110.804 105.512 4.199 5.568 o
-4 4 7 1.657 2.608 1.168 193.706 o
-4 4 8 20.916 23.158 2.002 37.098 o
-4 4 9 0.285 -0.402 1.279 204.593 o
-4 5 1 37.395 28.924 0.914 34.245 o
-4 5 2 53.707 58.636 1.915 16.738 o
-4 5 3 1076.060 1045.880 14.487 0.136 o
-4 5 4 98.564 93.362 3.829 6.657 o
-4 5 5 18.356 18.652 1.553 50.714 o
-4 5 6 1.188 2.545 1.249 180.776 o
-4 5 7 4.628 5.506 1.329 122.328 o
-4 5 8 0.942 3.290 1.517 129.152 o
-4 6 1 196.317 184.944 3.040 2.943 o
-4 6 2 344.537 323.608 7.120 1.041 o
-4 6 3 22.231 22.465 1.818 39.311 o
-4 6 4 128.175 117.023 3.271 5.324 o
-4 6 5 38.063 37.451 2.480 20.864 o
-4 6 6 28.096 28.802 2.433 26.144 o
-4 6 7 63.989 67.950 5.549 6.614 o
-4 7 1 32.148 31.324 1.564 31.903 o
-4 7 2 236.691 229.384 5.803 1.881 o
-4 7 3 3.253 3.770 1.198 159.654 o
-4 7 4 12.507 11.920 1.710 60.300 o
-4 7 5 0.026 4.583 2.185 67.324 o
-4 7 6 31.133 36.242 2.802 20.823 o
-4 8 1 135.254 120.112 5.804 3.757 o
-4 8 2 26.466 22.835 2.730 24.977 o
-4 8 3 15.042 15.377 1.874 49.026 o
-4 8 4 30.463 37.440 2.714 21.482 o
-4 8 5 34.489 40.205 2.921 18.717 o
-4 9 1 3.909 4.030 1.255 142.830 o
-4 9 2 8.838 9.274 1.538 79.238 o
-4 9 3 8.515 14.471 1.988 54.634 o
-4 10 1 4.629 4.866 1.879 75.804 o
-3 -9 4 35.623 41.238 3.134 17.159 o
-3 -9 5 0.084 -2.837 2.667 48.092 o
-3 -9 6 0.057 -0.536 1.582 136.588 o
-3 -9 7 0.100 0.939 1.647 122.832 o
-3 -9 8 9.472 10.419 2.380 43.854 o
-3 -9 9 19.086 25.672 3.037 23.893 o
-3 -8 1 10.287 8.622 2.203 49.025 o
-3 -8 2 27.145 25.096 2.642 25.193 o
-3 -8 3 1.857 -0.373 1.722 106.549 o
-3 -8 4 4.483 4.911 1.754 84.648 o
-3 -8 5 17.150 10.465 2.014 45.864 o
-3 -8 6 0.771 -1.737 1.413 163.266 o
-3 -8 7 120.293 119.237 4.255 4.979 o
-3 -8 8 16.587 25.684 2.369 33.349 o
-3 -8 9 8.353 8.354 2.477 43.126 o
-3 -8 10 1.571 1.556 2.032 77.019 o
-3 -8 11 4.333 3.284 4.030 20.072 o
-3 -7 1 13.469 13.565 2.065 46.826 o
-3 -7 2 0.022 -1.513 1.498 152.467 o
-3 -7 3 10.614 13.230 1.977 53.015 o
-3 -7 4 1.918 0.545 1.437 144.963 o
-3 -7 5 42.119 42.186 2.638 18.300 o
-3 -7 6 3.476 4.205 1.485 115.056 o
-3 -7 7 30.125 29.181 2.258 26.891 o
-3 -7 8 38.386 36.787 2.430 21.183 o
-3 -7 9 23.790 26.990 2.842 24.088 o
-3 -7 10 23.475 22.302 3.023 23.202 o
-3 -7 11 31.587 44.499 5.579 8.413 o
-3 -7 12 2.189 5.610 2.351 55.116 o
-3 -6 1 383.172 384.432 7.816 0.836 o
-3 -6 2 138.473 129.236 3.687 4.587 o
-3 -6 3 0.324 -0.329 1.024 313.576 o
-3 -6 4 12.181 12.803 1.407 72.017 o
-3 -6 5 0.296 0.201 1.021 312.994 o
-3 -6 6 11.807 9.147 1.245 86.315 o
-3 -6 7 11.128 13.317 1.343 76.953 o
-3 -6 8 33.177 34.100 2.437 23.229 o
-3 -6 9 0.624 -1.229 1.673 118.929 o
-3 -6 10 55.303 53.493 3.829 10.982 o
-3 -6 11 0.008 1.807 2.043 79.798 o
-3 -6 12 0.039 -1.301 2.115 76.515 o
-3 -5 1 59.220 62.307 2.294 14.220 o
-3 -5 2 3.457 3.634 0.889 225.313 o
-3 -5 3 47.763 43.084 2.276 18.595 o
-3 -5 4 10.564 10.898 0.926 106.504 o
-3 -5 5 0.005 -0.329 0.596 962.445 o
-3 -5 6 4.415 5.171 0.924 186.940 o
-3 -5 7 34.652 33.551 1.779 27.993 o
-3 -5 8 166.317 152.063 3.712 3.626 o
-3 -5 9 25.362 22.931 1.973 34.437 o
-3 -5 10 17.574 20.296 3.443 21.149 o
-3 -5 11 3.476 6.374 2.159 61.306 o
-3 -5 12 0.941 -2.277 1.977 84.922 o
-3 -4 1 9.781 9.218 0.972 112.488 o
-3 -4 2 26.871 24.220 1.627 37.536 o
-3 -4 3 72.816 77.360 2.503 10.900 o
-3 -4 4 22.156 18.245 0.910 58.770 o
-3 -4 5 46.808 43.495 1.273 23.336 o
-3 -4 6 283.388 285.339 4.580 1.509 o
-3 -4 7 309.015 288.829 4.331 1.380 o
-3 -4 8 72.101 69.555 2.806 10.845 o
-3 -4 9 496.494 470.473 10.462 0.530 o
-3 -4 10 6.939 3.244 3.233 29.394 o
-3 -4 11 16.580 19.282 2.163 39.109 o
-3 -4 12 1.192 -1.381 2.981 37.888 o
-3 -4 13 7.634 8.579 2.700 38.041 o
-3 -3 1 20.555 20.681 0.980 58.160 o
-3 -3 2 4.170 7.867 0.934 170.135 o
-3 -3 3 49.072 43.628 1.417 21.897 o
-3 -3 4 29.270 27.026 1.110 40.413 o
-3 -3 5 75.090 74.506 2.065 11.536 o
-3 -3 6 0.120 -1.134 0.603 901.759 o
-3 -3 7 2082.490 2028.430 29.936 0.037 o
-3 -3 8 49.634 52.213 4.266 10.361 o
-3 -3 9 5.039 6.662 1.321 117.139 o
-3 -3 10 0.671 1.966 3.191 32.941 o
-3 -3 11 18.942 18.344 2.213 36.764 o
-3 -3 12 0.439 1.462 1.597 126.589 o
-3 -3 13 0.255 -1.364 2.645 48.756 o
-3 -2 1 47.466 56.068 1.999 18.215 o
-3 -2 2 52.871 53.302 1.193 19.817 o
-3 -2 3 104.868 105.664 1.810 7.639 o
-3 -2 4 231.788 237.286 3.273 2.162 o
-3 -2 5 22.654 25.356 0.957 51.264 o
-3 -2 6 75.906 72.337 1.717 12.107 o
-3 -2 7 81.222 81.672 3.596 8.248 o
-3 -2 8 3.880 1.926 0.889 234.830 o
-3 -2 9 89.808 81.861 4.356 6.778 o
-3 -2 10 25.279 21.277 2.139 32.777 o
-3 -2 11 1.059 1.312 1.533 132.753 o
-3 -2 12 8.317 8.764 2.105 54.656 o
-3 -1 1 402.388 399.550 4.789 0.854 o
-3 -1 2 306.838 311.162 4.593 1.325 o
-3 -1 3 178.641 166.872 2.206 3.554 o
-3 -1 4 342.639 339.994 4.428 1.127 o
-3 -1 5 174.281 187.429 2.977 3.302 o
-3 -1 6 79.779 84.773 1.904 10.617 o
-3 -1 7 199.530 196.654 3.449 2.748 o
-3 -1 8 20.912 23.479 1.450 46.544 o
-3 -1 9 64.285 52.833 2.054 14.802 o
-3 -1 10 5.388 11.317 3.013 32.154 o
-3 -1 11 46.008 44.420 3.061 15.334 o
-3 -1 12 6.558 5.713 3.778 21.951 o
-3 0 1 0.002 0.027 0.325 3187.270 o
-3 0 2 54.549 56.266 1.305 18.608 o
-3 0 3 140.953 144.639 1.861 4.936 o
-3 0 4 429.785 462.265 6.906 0.693 o
-3 0 5 507.071 520.260 6.554 0.545 o
-3 0 6 6.632 8.648 0.898 144.232 o
-3 0 7 17.017 21.019 2.225 36.972 o
-3 0 8 11.112 14.792 1.228 80.183 o
-3 0 9 23.797 28.112 1.558 39.451 o
-3 0 10 0.177 0.988 2.034 81.075 o
-3 0 11 7.713 7.299 2.373 47.199 o
-3 0 12 7.681 0.050 2.400 50.093 o
-3 1 1 39.825 41.483 0.807 29.054 o
-3 1 2 263.091 275.566 3.054 1.757 o
-3 1 3 425.183 457.202 5.360 0.733 o
-3 1 4 204.539 220.268 3.309 2.549 o
-3 1 5 15.746 14.542 0.923 78.291 o
-3 1 6 40.394 47.208 2.129 20.784 o
-3 1 7 52.018 50.092 2.113 17.407 o
-3 1 8 28.107 25.793 1.770 34.203 o
-3 1 9 115.221 111.905 3.251 5.950 o
-3 1 10 0.234 1.605 2.017 81.450 o
-3 1 11 10.225 9.057 2.654 37.238 o
-3 2 1 627.053 633.005 6.738 0.380 o
-3 2 2 6.072 4.740 0.482 240.621 o
-3 2 3 96.258 104.262 1.747 8.348 o
-3 2 4 34.527 31.412 1.144 33.843 o
-3 2 5 46.478 48.156 1.591 21.295 o
-3 2 6 56.217 51.983 1.588 17.936 o
-3 2 7 28.918 27.292 1.536 35.842 o
-3 2 8 11.142 11.199 1.089 93.525 o
-3 2 9 0.331 0.315 1.213 223.087 o
-3 2 10 1.447 0.723 2.048 77.218 o
-3 2 11 5.806 4.418 2.234 55.986 o
-3 3 1 180.159 202.565 2.527 3.139 o
-3 3 2 10.651 12.200 0.582 121.585 o
-3 3 3 122.196 115.372 2.011 6.259 o
-3 3 4 0.354 0.588 0.557 860.576 o
-3 3 5 373.492 364.762 5.068 0.968 o
-3 3 6 374.078 332.827 4.783 1.022 o
-3 3 7 6.904 6.957 1.262 111.468 o
-3 3 8 5.168 5.668 1.345 116.695 o
-3 3 9 18.610 15.983 1.842 45.422 o
-3 3 10 89.568 96.511 5.280 5.530 o
-3 4 1 68.793 78.704 1.411 13.125 o
-3 4 2 4.209 3.936 0.488 311.764 o
-3 4 3 3.036 2.260 0.693 325.051 o
-3 4 4 17.319 18.806 1.080 64.165 o
-3 4 5 49.373 46.444 2.059 18.715 o
-3 4 6 92.096 87.398 2.916 8.185 o
-3 4 7 41.241 39.512 2.270 20.900 o
-3 4 8 8.167 3.942 1.365 103.592 o
-3 4 9 15.315 17.816 2.109 41.888 o
-3 5 1 0.245 0.401 0.412 1490.360 o
-3 5 2 28.605 25.988 1.016 42.629 o
-3 5 3 0.784 0.248 0.606 700.032 o
-3 5 4 77.244 77.167 2.530 10.396 o
-3 5 5 155.974 152.829 3.924 3.769 o
-3 5 6 9.991 12.324 1.518 73.108 o
-3 5 7 12.088 8.871 1.545 70.967 o
-3 5 8 3.190 3.134 1.579 108.769 o
-3 6 1 46.773 44.715 1.131 23.657 o
-3 6 2 45.996 48.318 1.391 22.261 o
-3 6 3 216.379 204.884 4.512 2.338 o
-3 6 4 3.656 4.291 1.110 168.056 o
-3 6 5 111.156 106.991 3.448 6.093 o
-3 6 6 7.932 5.631 1.809 71.252 o
-3 6 7 20.909 31.020 2.784 24.961 o
-3 7 1 884.926 863.935 16.554 0.183 o
-3 7 2 42.768 35.561 2.089 22.101 o
-3 7 3 0.179 0.150 1.139 257.466 o
-3 7 4 1.142 2.890 1.494 132.575 o
-3 7 5 0.021 0.711 1.950 88.950 o
-3 7 6 54.312 60.497 3.592 11.375 o
-3 8 1 46.808 47.268 2.331 18.071 o
-3 8 2 2.658 4.087 1.326 142.403 o
-3 8 3 0.000 0.878 1.574 135.076 o
-3 8 4 57.583 60.614 3.305 11.792 o
-3 8 5 0.004 -0.841 2.474 55.981 o
-3 9 1 9.052 14.640 1.639 67.129 o
-3 9 2 1.750 2.294 1.609 114.789 o
-3 9 3 0.340 -0.460 2.504 54.269 o
-3 10 1 16.224 16.322 1.917 46.065 o
-2 -10 6 29.144 32.562 2.571 23.791 o
-2 -10 7 0.368 -1.442 1.394 172.041 o
-2 -9 1 43.701 38.666 3.166 15.758 o
-2 -9 2 1.054 1.364 1.803 98.265 o
-2 -9 3 23.482 23.449 2.598 27.429 o
-2 -9 4 126.855 137.797 10.216 2.114 o
-2 -9 5 25.931 28.711 2.473 26.655 o
-2 -9 6 0.013 -1.407 1.410 172.230 o
-2 -9 7 4.009 5.575 1.604 97.254 o
-2 -9 8 4.687 4.010 4.660 15.131 o
-2 -9 9 14.724 13.423 2.179 42.824 o
-2 -9 10 2.995 5.135 1.916 77.100 o
-2 -8 1 2.788 1.762 1.704 100.632 o
-2 -8 2 0.629 -2.497 1.440 158.865 o
-2 -8 3 0.371 -1.854 1.339 186.003 o
-2 -8 4 0.271 -2.559 1.339 187.277 o
-2 -8 5 6.992 6.942 2.084 58.689 o
-2 -8 6 17.876 18.796 1.898 43.523 o
-2 -8 7 7.053 8.394 1.597 82.290 o
-2 -8 8 43.973 34.239 2.363 20.338 o
-2 -8 9 4.948 5.664 1.913 72.117 o
-2 -8 10 0.675 -1.756 1.600 129.354 o
-2 -8 11 14.651 21.572 3.233 23.805 o
-2 -7 1 97.197 95.199 3.798 6.710 o
-2 -7 2 29.908 28.757 2.331 26.380 o
-2 -7 3 4.129 5.552 1.525 104.105 o
-2 -7 4 49.938 51.810 2.670 15.553 o
-2 -7 5 7.506 9.644 1.507 84.597 o
-2 -7 6 132.868 129.746 4.658 4.266 o
-2 -7 7 20.574 15.150 1.680 47.248 o
-2 -7 8 5.306 6.061 1.607 91.185 o
-2 -7 9 2.513 -0.301 1.763 99.293 o
-2 -7 10 21.489 16.161 2.400 32.804 o
-2 -7 11 4.164 3.674 2.561 46.354 o
-2 -7 12 54.509 52.163 3.829 11.122 o
-2 -6 1 23.066 20.185 1.578 43.682 o
-2 -6 2 68.919 65.595 2.066 12.972 o
-2 -6 3 13.181 13.829 1.114 80.221 o
-2 -6 4 76.700 78.706 1.799 11.471 o
-2 -6 5 132.258 155.481 2.844 4.729 o
-2 -6 6 18.211 15.541 1.085 65.646 o
-2 -6 7 11.811 10.645 1.261 82.920 o
-2 -6 8 12.235 13.213 2.081 47.910 o
-2 -6 9 4.317 1.194 1.625 103.175 o
-2 -6 10 0.448 -0.561 3.275 31.784 o
-2 -6 11 11.342 11.878 2.306 43.463 o
-2 -6 12 7.692 11.534 2.519 41.294 o
-2 -5 1 259.996 256.461 3.917 1.793 o
-2 -5 2 4.463 4.062 0.624 264.405 o
-2 -5 3 61.009 60.328 1.423 16.249 o
-2 -5 4 39.599 42.797 1.189 27.070 o
-2 -5 5 86.957 79.838 1.619 10.426 o
-2 -5 6 3.082 4.397 0.583 319.583 o
-2 -5 7 41.857 39.539 1.095 27.216 o
-2 -5 8 150.785 143.572 3.341 4.194 o
-2 -5 9 155.767 146.226 5.453 3.312 o
-2 -5 10 1.351 0.945 2.729 44.545 o
-2 -5 11 4.929 2.427 3.317 28.909 o
-2 -5 12 0.160 -1.439 1.948 89.766 o
-2 -5 13 0.502 1.415 3.610 25.967 o
-2 -4 1 4.932 7.134 0.813 184.045 o
-2 -4 2 89.737 88.264 1.906 9.436 o
-2 -4 3 12.568 12.932 0.732 101.124 o
-2 -4 4 35.988 32.212 0.991 33.582 o
-2 -4 5 519.145 531.115 6.548 0.524 o
-2 -4 6 62.101 59.272 1.333 16.317 o
-2 -4 7 0.122 0.115 0.444 1546.720 o
-2 -4 8 159.801 148.815 3.561 3.844 o
-2 -4 9 55.759 53.891 3.437 12.010 o
-2 -4 10 43.366 37.682 2.455 19.520 o
-2 -4 11 9.745 12.461 2.700 35.542 o
-2 -4 12 2.672 2.499 3.317 29.702 o
-2 -3 1 61.892 60.493 1.376 16.140 o
-2 -3 2 66.531 73.743 1.495 13.765 o
-2 -3 3 1557.050 1650.230 19.125 0.064 o
-2 -3 4 34.441 43.592 1.018 30.638 o
-2 -3 5 1001.860 958.761 11.332 0.161 o
-2 -3 6 879.173 862.190 10.283 0.203 o
-2 -3 7 194.236 185.787 4.021 2.800 o
-2 -3 8 275.056 288.328 10.353 1.114 o
-2 -3 9 9.264 8.648 1.422 85.693 o
-2 -3 10 5.924 5.409 1.553 94.372 o
-2 -3 11 21.442 21.008 2.155 35.064 o
-2 -3 12 7.303 9.713 2.032 58.252 o
-2 -3 13 107.391 118.911 4.992 4.884 o
-2 -2 1 51.376 60.394 0.975 19.733 o
-2 -2 2 688.271 676.006 6.908 0.326 o
-2 -2 3 284.522 252.255 2.967 1.694 o
-2 -2 4 1173.030 1169.290 13.659 0.116 o
-2 -2 5 137.240 126.418 2.251 5.276 o
-2 -2 6 198.072 187.821 2.875 2.918 o
-2 -2 7 1.500 0.575 0.553 624.537 o
-2 -2 8 0.194 -0.422 0.731 611.978 o
-2 -2 9 40.653 43.354 2.236 20.697 o
-2 -2 10 0.121 2.783 1.498 139.989 o
-2 -2 11 0.590 -0.664 1.612 127.908 o
-2 -2 12 15.361 16.646 2.460 35.355 o
-2 -1 1 207.407 209.284 2.266 2.700 o
-2 -1 2 137.764 138.103 1.615 5.234 o
-2 -1 3 320.730 313.500 3.366 1.305 o
-2 -1 4 9.767 8.682 0.487 149.289 o
-2 -1 5 1196.430 1281.580 14.991 0.106 o
-2 -1 6 94.006 86.948 1.832 9.181 o
-2 -1 7 2.537 3.101 0.537 402.897 o
-2 -1 8 3.968 5.798 0.862 201.091 o
-2 -1 9 5.823 7.967 1.294 111.575 o
-2 -1 10 46.823 41.854 2.711 16.952 o
-2 -1 11 55.290 45.927 2.646 15.207 o
-2 -1 12 0.598 4.844 2.271 61.507 o
-2 0 1 234.572 246.736 2.555 2.146 o
-2 0 2 914.444 886.653 8.837 0.193 o
-2 0 3 11.392 13.630 0.531 114.244 o
-2 0 4 688.522 700.901 9.912 0.305 o
-2 0 5 376.811 389.517 5.785 0.906 o
-2 0 6 109.283 109.866 4.872 5.046 o
-2 0 7 184.346 208.612 4.110 2.763 o
-2 0 8 0.000 -1.193 0.875 447.651 o
-2 0 9 225.120 208.843 4.392 2.245 o
-2 0 10 0.808 -0.313 1.115 253.353 o
-2 0 11 0.815 0.329 2.043 79.629 o
-2 0 12 0.033 0.306 2.279 65.662 o
-2 1 1 2.620 0.394 0.320 703.251 o
-2 1 2 342.557 381.970 6.177 0.998 o
-2 1 3 1.598 2.676 0.405 606.219 o
-2 1 4 838.362 920.476 10.931 0.204 o
-2 1 5 589.818 611.888 10.704 0.384 o
-2 1 6 0.965 0.918 0.721 480.448 o
-2 1 7 72.680 75.282 1.944 11.990 o
-2 1 8 53.174 56.603 1.914 17.089 o
-2 1 9 58.901 56.885 2.038 15.476 o
-2 1 10 0.417 0.894 2.048 79.527 o
-2 1 11 0.003 0.057 2.247 67.839 o
-2 2 1 10.828 15.640 0.554 110.653 o
-2 2 2 0.078 0.995 0.458 1191.550 o
-2 2 3 78.512 82.560 1.504 11.376 o
-2 2 4 1.669 1.252 0.483 627.825 o
-2 2 5 9.026 13.023 0.838 114.739 o
-2 2 6 8.298 10.812 1.017 113.113 o
-2 2 7 29.392 26.439 1.311 38.365 o
-2 2 8 2.430 3.270 1.097 194.285 o
-2 2 9 2.651 1.404 1.214 177.279 o
-2 2 10 0.091 -0.640 1.875 97.154 o
-2 3 1 217.871 236.339 2.967 2.338 o
-2 3 2 84.279 100.684 2.517 8.723 o
-2 3 3 21.983 27.147 1.076 49.170 o
-2 3 4 37.207 39.380 1.339 28.345 o
-2 3 5 22.221 20.134 1.155 52.516 o
-2 3 6 731.234 716.713 10.296 0.279 o
-2 3 7 322.837 308.196 6.473 1.171 o
-2 3 8 14.046 14.826 1.679 56.371 o
-2 3 9 1.801 0.096 1.406 153.859 o
-2 3 10 1.393 -2.762 2.645 47.708 o
-2 4 1 22.280 24.310 0.706 56.216 o
-2 4 2 18.467 16.648 0.775 71.588 o
-2 4 3 17.109 17.049 0.883 71.976 o
-2 4 4 48.601 43.593 1.703 20.869 o
-2 4 5 635.431 564.133 11.240 0.364 o
-2 4 6 5.615 6.356 2.097 60.764 o
-2 4 7 0.011 -0.075 1.280 208.915 o
-2 4 8 10.048 8.138 1.607 73.848 o
-2 4 9 38.725 34.095 2.931 18.392 o
-2 5 1 304.871 298.045 3.585 1.411 o
-2 5 2 39.784 36.808 1.136 28.836 o
-2 5 3 24.328 26.704 1.128 45.701 o
-2 5 4 0.049 -2.029 0.919 402.568 o
-2 5 5 1.590 -0.155 1.104 238.782 o
-2 5 6 4.992 6.091 1.454 105.593 o
-2 5 7 18.099 12.970 1.762 49.641 o
-2 5 8 11.075 14.103 2.472 38.873 o
-2 6 1 3.662 4.439 0.468 330.386 o
-2 6 2 1.028 1.750 0.672 482.918 o
-2 6 3 8.197 5.172 1.086 125.845 o
-2 6 4 46.476 48.638 2.520 17.162 o
-2 6 5 8.482 7.483 1.491 85.920 o
-2 6 6 0.379 4.508 1.800 95.192 o
-2 6 7 4.273 5.597 2.011 68.088 o
-2 7 1 8.414 7.495 1.115 114.329 o
-2 7 2 83.844 71.607 2.979 9.341 o
-2 7 3 144.807 139.137 7.902 2.658 o
-2 7 4 2.256 4.159 1.653 102.960 o
-2 7 5 0.712 -0.137 1.653 121.233 o
-2 7 6 3.938 8.451 2.112 61.069 o
-2 8 1 10.422 9.349 1.435 80.197 o
-2 8 2 63.804 60.917 2.952 11.955 o
-2 8 3 111.552 120.776 4.360 5.164 o
-2 8 4 31.065 24.360 2.433 25.838 o
-2 9 1 3.622 5.548 2.373 52.525 o
-2 9 2 0.939 -0.526 1.380 168.746 o
-2 9 3 5.280 1.741 1.742 88.058 o
-2 10 1 3.401 5.139 1.664 95.194 o
-1 -10 3 13.104 15.878 2.115 44.729 o
-1 -10 4 37.378 32.300 2.443 22.096 o
-1 -10 5 66.666 75.728 4.870 7.335 o
-1 -10 6 8.182 8.533 1.754 70.293 o
-1 -10 7 0.326 0.315 2.073 78.559 o
-1 -10 8 0.614 0.924 2.183 69.785 o
-1 -10 9 4.926 7.809 2.771 38.391 o
-1 -9 1 1.598 -1.529 1.455 146.841 o
-1 -9 2 58.584 60.568 3.298 11.699 o
-1 -9 3 46.216 50.107 3.633 12.723 o
-1 -9 4 0.384 0.602 1.323 185.920 o
-1 -9 5 0.530 0.357 2.113 75.187 o
-1 -9 6 7.668 7.715 1.431 92.499 o
-1 -9 7 0.002 -0.707 1.165 252.678 o
-1 -9 8 38.123 35.866 2.558 20.585 o
-1 -9 9 26.294 26.150 4.744 11.792 o
-1 -9 10 121.355 106.264 4.483 5.002 o
-1 -9 11 7.975 8.541 2.017 58.730 o
-1 -8 1 4.446 2.808 1.416 121.560 o
-1 -8 2 0.174 -2.287 1.360 182.903 o
-1 -8 3 7.715 8.138 1.437 91.080 o
-1 -8 4 2.860 0.470 1.191 185.952 o
-1 -8 5 0.374 1.223 1.190 221.285 o
-1 -8 6 3.853 3.722 1.264 143.232 o
-1 -8 7 26.080 21.132 1.727 38.056 o
-1 -8 8 14.765 13.180 1.567 60.147 o
-1 -8 9 2.576 3.461 1.574 111.650 o
-1 -8 10 42.816 39.399 2.868 17.283 o
-1 -8 11 28.234 22.651 2.494 26.742 o
-1 -8 12 34.744 36.461 3.117 17.914 o
-1 -7 1 2.749 2.358 1.357 143.873 o
-1 -7 2 664.759 636.443 11.563 0.324 o
-1 -7 3 130.743 129.558 5.155 4.070 o
-1 -7 4 6.273 7.051 0.954 148.673 o
-1 -7 5 0.050 -0.612 0.772 568.442 o
-1 -7 6 1.574 0.634 0.830 362.349 o
-1 -7 7 88.233 80.945 2.380 9.378 o
-1 -7 8 7.371 6.856 1.220 112.915 o
-1 -7 9 14.390 15.556 1.923 48.405 o
-1 -7 10 3.939 1.838 1.573 108.989 o
-1 -7 11 15.539 16.724 2.438 35.621 o
-1 -7 12 6.892 9.471 3.023 31.706 o
-1 -6 1 342.605 321.729 4.675 1.152 o
-1 -6 2 18.724 20.972 0.913 62.794 o
-1 -6 3 98.969 106.052 2.097 7.830 o
-1 -6 4 32.980 36.321 1.158 33.091 o
-1 -6 5 1.703 2.835 0.575 452.196 o
-1 -6 6 0.348 -0.490 0.498 1163.680 o
-1 -6 7 4.749 6.293 0.759 203.146 o
-1 -6 8 4.923 4.695 0.859 195.054 o
-1 -6 9 21.936 18.582 2.813 26.555 o
-1 -6 10 23.023 22.091 2.485 29.282 o
-1 -6 11 57.614 51.472 4.828 8.524 o
-1 -6 12 2.947 2.321 2.077 70.230 o
-1 -6 13 5.887 6.457 2.313 51.589 o
-1 -5 1 57.860 63.572 1.415 16.606 o
-1 -5 2 144.660 156.853 2.470 4.456 o
-1 -5 3 22.175 21.109 0.805 57.860 o
-1 -5 4 51.163 46.829 1.078 21.769 o
-1 -5 5 71.622 77.102 1.365 12.874 o
-1 -5 6 36.541 34.578 0.985 32.401 o
-1 -5 7 17.171 15.838 0.820 75.185 o
-1 -5 8 28.424 26.512 1.761 33.852 o
-1 -5 9 134.151 132.156 5.279 3.910 o
-1 -5 10 170.365 155.716 5.724 2.938 o
-1 -5 11 47.055 45.737 3.410 13.690 o
-1 -5 12 17.395 13.068 2.426 35.823 o
-1 -5 13 2.454 5.190 2.018 71.837 o
-1 -4 1 2.446 2.778 0.457 465.519 o
-1 -4 2 663.734 624.508 8.007 0.351 o
-1 -4 3 392.310 423.659 5.202 0.841 o
-1 -4 4 53.360 56.035 1.080 19.548 o
-1 -4 5 121.947 113.916 1.729 6.432 o
-1 -4 6 13.825 13.813 0.737 93.106 o
-1 -4 7 82.922 77.424 1.869 10.720 o
-1 -4 8 662.188 638.753 9.155 0.341 o
-1 -4 9 245.304 241.885 5.987 1.757 o
-1 -4 10 5.977 6.204 1.468 99.584 o
-1 -4 11 0.285 -0.122 1.475 154.741 o
-1 -4 12 0.001 0.147 1.895 95.177 o
-1 -4 13 0.451 3.483 1.956 83.067 o
-1 -3 1 9.360 14.652 0.530 124.605 o
-1 -3 2 882.833 864.078 8.636 0.205 o
-1 -3 3 193.775 167.410 2.010 3.280 o
-1 -3 4 1152.190 1139.330 12.464 0.122 o
-1 -3 5 3.121 5.500 0.418 345.657 o
-1 -3 6 17.827 22.421 1.040 60.405 o
-1 -3 7 1.690 3.240 0.627 404.923 o
-1 -3 8 4.090 4.294 0.842 217.208 o
-1 -3 9 18.223 13.846 1.609 52.838 o
-1 -3 10 21.126 23.375 2.545 29.121 o
-1 -3 11 5.817 6.393 1.500 97.175 o
-1 -3 12 100.413 102.853 4.351 5.884 o
-1 -3 13 4.498 9.824 3.862 21.086 o
-1 -2 1 116.708 125.032 1.978 6.307 o
-1 -2 2 8237.020 7650.420 78.173 0.003 o
-1 -2 3 1006.240 906.130 9.410 0.169 o
-1 -2 4 46.433 46.944 0.821 24.352 o
-1 -2 5 6.949 6.050 0.444 211.733 o
-1 -2 6 14.601 16.621 1.091 72.953 o
-1 -2 7 133.149 138.573 2.899 4.951 o
-1 -2 8 123.676 121.915 2.797 5.656 o
-1 -2 9 115.365 111.685 3.803 5.572 o
-1 -2 10 185.048 179.149 8.641 1.976 o
-1 -2 11 2.294 5.141 1.560 110.327 o
-1 -2 12 30.424 38.100 4.433 12.108 o
-1 -1 1 4652.160 4523.650 56.120 0.008 o
-1 -1 2 423.439 452.155 5.034 0.747 o
-1 -1 3 3325.070 3224.720 36.752 0.016 o
-1 -1 4 678.230 668.651 7.483 0.332 o
-1 -1 5 1036.770 1060.160 13.317 0.143 o
-1 -1 6 208.371 216.473 3.457 2.507 o
-1 -1 7 0.559 0.340 0.538 883.167 o
-1 -1 8 50.207 45.676 1.455 21.018 o
-1 -1 9 51.545 46.488 2.115 17.935 o
-1 -1 10 35.846 32.941 2.210 24.208 o
-1 -1 11 103.289 118.224 4.434 5.430 o
-1 -1 12 4.966 7.260 3.526 25.106 o
-1 0 1 1153.130 1054.330 12.885 0.127 o
-1 0 2 2080.110 2133.870 24.332 0.037 o
-1 0 3 3.874 2.001 0.567 344.090 o
-1 0 4 1111.630 1212.260 13.421 0.121 o
-1 0 5 360.177 400.919 5.446 0.944 o
-1 0 6 0.250 -0.124 0.526 1103.430 o
-1 0 7 0.561 0.126 0.644 686.490 o
-1 0 8 44.583 43.011 1.638 22.630 o
-1 0 9 11.061 9.010 1.087 98.719 o
-1 0 10 75.196 77.703 3.041 9.726 o
-1 0 11 43.532 41.979 3.708 13.270 o
-1 1 1 99.086 87.313 1.110 9.232 o
-1 1 2 35.837 25.389 0.728 38.159 o
-1 1 3 216.046 230.178 3.470 2.340 o
-1 1 4 143.020 144.037 2.159 4.794 o
-1 1 5 9.021 10.062 0.694 135.427 o
-1 1 6 23.666 32.472 1.189 42.414 o
-1 1 7 14.895 16.377 1.106 71.983 o
-1 1 8 15.461 16.825 1.222 66.308 o
-1 1 9 16.372 16.017 1.343 61.564 o
-1 1 10 1.992 4.420 2.340 56.603 o
-1 1 11 31.253 35.421 3.829 14.769 o
-1 2 1 153.961 142.919 2.049 4.499 o
-1 2 2 714.197 682.597 8.640 0.303 o
-1 2 3 21.271 22.662 0.684 59.921 o
-1 2 4 544.799 580.190 7.631 0.462 o
-1 2 5 16.741 20.877 0.956 66.282 o
-1 2 6 128.463 126.553 2.423 5.546 o
-1 2 7 558.662 552.480 9.549 0.442 o
-1 2 8 6.942 5.492 1.011 142.796 o
-1 2 9 16.025 19.405 2.192 38.939 o
-1 2 10 0.000 1.942 4.618 15.973 o
-1 3 1 172.147 186.280 2.678 3.408 o
-1 3 2 7.942 7.907 0.600 165.263 o
-1 3 3 278.518 327.343 9.638 1.096 o
-1 3 4 1.221 0.098 0.452 911.802 o
-1 3 5 5.810 6.153 0.655 203.102 o
-1 3 6 59.733 54.474 2.521 14.138 o
-1 3 7 106.546 105.105 3.325 6.443 o
-1 3 8 1.767 0.968 1.269 178.756 o
-1 3 9 0.859 0.927 1.840 96.165 o
-1 4 1 1216.420 1321.090 15.350 0.101 o
-1 4 2 34.654 40.600 1.138 30.725 o
-1 4 3 32.427 31.835 1.159 35.135 o
-1 4 4 1.556 -1.208 0.745 447.123 o
-1 4 5 61.642 57.474 2.095 14.754 o
-1 4 6 174.987 171.994 4.428 3.100 o
-1 4 7 41.951 42.483 3.112 15.978 o
-1 4 8 1.840 5.622 1.562 111.207 o
-1 4 9 0.801 -2.736 2.363 60.207 o
-1 5 1 32.133 29.239 0.873 38.788 o
-1 5 2 1.453 0.934 0.425 776.299 o
-1 5 3 0.752 -0.009 0.680 607.152 o
-1 5 4 47.101 50.328 2.281 17.853 o
-1 5 5 66.471 63.563 2.688 12.091 o
-1 5 6 0.134 -1.175 1.382 177.872 o
-1 5 7 3.104 3.812 1.745 91.660 o
-1 5 8 3.087 4.372 1.637 100.519 o
-1 6 1 7.454 6.621 0.606 179.564 o
-1 6 2 41.709 36.338 1.670 24.880 o
-1 6 3 363.013 325.394 6.665 1.003 o
-1 6 4 36.590 30.715 2.630 21.277 o
-1 6 5 0.041 -0.498 1.346 188.476 o
-1 6 6 24.355 18.543 2.380 30.846 o
-1 7 1 7.821 7.268 1.337 99.814 o
-1 7 2 3.282 3.088 1.357 136.590 o
-1 7 3 32.711 34.002 2.535 22.648 o
-1 7 4 17.464 15.348 2.074 41.815 o
-1 7 5 20.318 26.137 2.729 26.682 o
-1 8 1 2.226 -0.066 1.245 184.826 o
-1 8 2 5.846 3.205 1.503 103.727 o
-1 8 3 24.303 35.339 2.741 23.482 o
-1 8 4 6.618 10.326 2.249 50.733 o
-1 9 1 9.666 11.934 1.865 59.294 o
-1 9 2 0.004 -0.004 1.543 143.907 o
0 -10 1 27.987 28.136 2.481 25.852 o
0 -10 2 5.216 5.036 1.619 92.443 o
0 -10 3 0.665 0.414 1.443 155.707 o
0 -10 4 15.181 13.821 3.218 24.973 o
0 -10 5 61.181 67.132 2.897 12.033 o
0 -10 6 227.027 249.375 7.936 1.619 o
0 -10 7 24.300 21.408 2.461 29.140 o
0 -10 8 27.796 30.479 3.275 19.016 o
0 -10 9 21.640 22.754 3.107 22.878 o
0 -10 10 12.918 9.908 2.603 36.315 o
0 -9 1 1.367 0.356 1.339 171.092 o
0 -9 2 16.195 19.458 1.847 46.027 o
0 -9 3 3.572 3.944 1.295 140.139 o
0 -9 4 0.217 -0.645 1.098 277.436 o
0 -9 5 10.556 11.371 1.135 92.999 o
0 -9 6 1.086 1.540 0.821 369.808 o
0 -9 7 1.744 1.241 1.271 176.890 o
0 -9 8 29.935 22.055 3.065 21.064 o
0 -9 9 0.231 2.075 1.209 209.808 o
0 -9 10 5.800 4.755 1.472 103.261 o
0 -9 11 1.860 3.977 1.553 116.496 o
0 -8 1 31.018 29.200 4.743 11.299 o
0 -8 2 106.015 107.964 7.007 3.742 o
0 -8 3 112.679 110.931 3.618 5.821 o
0 -8 4 14.406 18.074 1.234 66.920 o
0 -8 5 17.593 18.332 1.144 62.408 o
0 -8 6 37.727 37.407 1.530 27.343 o
0 -8 7 2.697 3.113 0.804 278.113 o
0 -8 8 64.525 57.717 3.188 11.478 o
0 -8 9 71.795 67.945 3.166 10.258 o
0 -8 10 3.453 2.287 1.470 122.582 o
0 -8 11 0.364 -1.701 1.394 171.962 o
0 -8 12 0.982 0.052 1.566 132.430 o
0 -7 1 83.971 73.271 2.084 10.553 o
0 -7 2 22.335 16.657 0.998 58.223 o
0 -7 3 125.391 122.768 2.521 5.705 o
0 -7 4 18.575 20.535 0.958 62.593 o
0 -7 5 4.064 3.763 0.508 315.672 o
0 -7 6 3.958 6.604 0.715 224.086 o
0 -7 7 140.440 122.079 2.813 5.019 o
0 -7 8 130.409 121.459 3.791 4.894 o
0 -7 9 5.139 5.115 1.481 104.650 o
0 -7 10 6.656 3.601 1.650 87.516 o
0 -7 11 10.319 6.218 1.916 60.935 o
0 -7 12 21.716 22.520 3.149 22.495 o
0 -6 1 290.370 276.709 3.942 1.530 o
0 -6 2 436.936 411.184 6.094 0.742 o
0 -6 3 5.789 6.918 0.651 197.360 o
0 -6 4 2.279 0.896 0.389 654.776 o
0 -6 5 0.146 -0.259 0.383 2062.310 o
0 -6 6 69.178 67.943 1.967 12.955 o
0 -6 7 2.240 2.077 0.711 358.736 o
0 -6 8 137.512 136.729 2.704 4.914 o
0 -6 9 86.194 84.992 3.728 7.655 o
0 -6 10 126.937 122.741 4.808 4.422 o
0 -6 11 0.054 0.334 1.778 107.384 o
0 -6 12 41.026 46.688 3.088 15.882 o
0 -6 13 0.461 -0.756 3.946 21.920 o
0 -5 1 78.167 79.339 1.391 11.754 o
0 -5 2 9.013 11.177 0.560 139.917 o
0 -5 3 4.913 3.824 0.424 302.138 o
0 -5 4 7.227 8.865 0.608 167.399 o
0 -5 5 15.221 16.267 0.757 82.429 o
0 -5 6 5.174 3.394 0.479 287.720 o
0 -5 7 0.268 0.187 0.389 1715.700 o
0 -5 8 9.101 7.747 0.889 128.334 o
0 -5 9 51.181 48.733 2.355 16.818 o
0 -5 10 5.959 7.818 2.771 37.734 o
0 -5 11 2.503 3.116 1.495 122.690 o
0 -5 12 0.890 -0.461 1.573 132.084 o
0 -5 13 1.485 -0.032 1.723 108.081 o
0 -4 1 386.603 418.641 4.794 0.869 o
0 -4 2 301.410 302.519 3.728 1.411 o
0 -4 3 255.752 272.226 3.551 1.792 o
0 -4 4 669.060 748.891 9.338 0.306 o
0 -4 5 69.002 84.944 1.523 12.467 o
0 -4 6 3.893 2.378 0.368 408.272 o
0 -4 7 4.842 3.406 0.783 224.371 o
0 -4 8 19.841 19.699 1.031 59.352 o
0 -4 9 616.417 608.799 12.870 0.348 o
0 -4 10 20.205 24.048 1.778 41.076 o
0 -4 11 5.558 7.187 1.802 75.393 o
0 -4 12 0.512 -0.051 1.685 117.798 o
0 -4 13 9.540 10.999 4.366 16.114 o
0 -3 1 15.207 14.066 0.435 95.676 o
0 -3 2 520.398 526.105 5.782 0.534 o
0 -3 3 268.096 270.679 3.504 1.713 o
0 -3 4 390.070 393.206 4.744 0.893 o
0 -3 5 28.181 19.165 0.577 52.125 o
0 -3 6 14.422 12.044 0.727 94.737 o
0 -3 7 23.749 22.846 1.196 47.794 o
0 -3 8 88.228 95.087 4.462 6.433 o
0 -3 9 67.886 62.479 2.518 12.366 o
0 -3 10 1.338 1.817 1.242 185.302 o
0 -3 11 0.009 0.418 1.369 180.043 o
0 -3 12 2.974 3.405 1.882 81.817 o
0 -2 1 125.542 123.949 1.466 6.100 o
0 -2 2 320.983 324.042 3.591 1.273 o
0 -2 3 1178.110 1184.360 13.588 0.114 o
0 -2 4 229.890 239.401 3.060 2.188 o
0 -2 5 139.693 144.559 3.941 4.238 o
0 -2 6 795.012 815.058 12.376 0.228 o
0 -2 7 28.085 29.235 1.513 35.990 o
0 -2 8 39.972 41.273 1.888 23.283 o
0 -2 9 59.402 60.217 2.523 13.729 o
0 -2 10 0.826 -1.316 1.575 132.142 o
0 -2 11 178.005 177.393 4.906 2.898 o
0 -2 12 1.805 1.127 1.607 117.927 o
0 -1 2 2660.720 2579.340 47.592 0.022 o
0 -1 3 36.192 33.938 1.325 30.559 o
0 -1 4 518.839 495.704 6.411 0.547 o
0 -1 5 10.970 9.722 0.687 122.249 o
0 -1 6 11.464 12.152 0.795 105.774 o
0 -1 7 59.067 56.129 1.438 17.136 o
0 -1 8 2.128 2.902 0.743 328.476 o
0 -1 9 266.497 279.773 7.985 1.350 o
0 -1 10 13.323 14.616 1.657 58.426 o
0 -1 11 15.141 19.312 2.048 42.680 o
0 -1 12 18.896 20.632 3.113 23.941 o
0 0 2 18.567 18.222 0.450 75.338 o
0 0 3 35.504 35.636 0.712 34.267 o
0 0 4 497.925 519.823 5.403 0.569 o
0 0 5 23.729 24.327 0.791 52.693 o
0 0 6 66.933 72.772 1.764 13.311 o
0 0 7 308.922 292.456 4.803 1.348 o
0 0 8 258.736 266.072 5.149 1.671 o
0 0 9 0.681 0.828 1.077 261.954 o
0 0 10 81.768 85.101 4.827 6.506 o
0 0 11 69.138 76.674 4.987 7.025 o
0 1 1 1697.990 1770.060 17.217 0.056 o
0 1 2 25.494 33.464 0.643 45.399 o
0 1 3 12.381 7.993 0.455 130.458 o
0 1 4 1.821 0.907 0.454 664.904 o
0 1 5 5.702 5.323 0.581 225.636 o
0 1 6 48.148 46.174 1.518 21.370 o
0 1 7 21.199 20.630 1.686 43.436 o
0 1 8 203.903 198.799 3.830 2.618 o
0 1 9 13.817 14.594 1.765 54.258 o
0 1 10 39.982 40.388 9.106 3.647 o
0 2 0 170.723 136.262 1.520 4.220 o
0 2 1 54.215 50.501 0.805 20.767 o
0 2 2 374.890 400.026 4.034 0.940 o
0 2 3 3.525 3.220 0.445 376.831 o
0 2 4 9.865 8.598 0.708 133.451 o
0 2 5 40.244 34.504 1.287 28.342 o
0 2 6 0.087 -0.224 0.766 572.141 o
0 2 7 519.313 527.927 8.120 0.508 o
0 2 8 139.056 135.770 3.885 4.392 o
0 2 9 4.516 2.954 2.015 70.024 o
0 2 10 23.913 28.630 3.295 19.939 o
0 3 0 90.961 85.695 1.251 10.013 o
0 3 1 48.239 45.850 1.201 22.613 o
0 3 2 199.263 208.935 2.881 2.746 o
0 3 3 10.704 12.805 0.686 113.943 o
0 3 4 1.524 0.900 0.628 516.692 o
0 3 5 40.346 39.624 1.428 26.182 o
0 3 6 454.291 449.500 7.046 0.660 o
0 3 7 44.981 48.259 2.548 17.401 o
0 3 8 16.646 21.633 2.024 40.783 o
0 3 9 29.445 27.250 2.707 23.419 o
0 4 0 260.428 268.744 3.970 1.742 o
0 4 1 42.490 41.066 1.039 26.765 o
0 4 2 435.063 453.119 5.411 0.718 o
0 4 3 5.923 5.634 0.685 200.898 o
0 4 4 1.984 1.817 0.767 348.441 o
0 4 5 1.324 1.744 0.955 283.115 o
0 4 6 1.773 1.405 1.144 208.196 o
0 4 7 14.293 17.311 2.169 41.692 o
0 4 8 0.803 -0.528 1.818 100.443 o
0 5 0 130.571 141.091 2.157 5.284 o
0 5 1 2.147 1.721 0.509 511.603 o
0 5 2 14.120 16.968 0.927 79.434 o
0 5 3 1.313 2.358 1.068 231.568 o
0 5 4 4.434 5.358 1.314 125.853 o
0 5 5 58.434 57.365 4.424 9.140 o
0 5 6 1.222 -0.785 1.469 147.570 o
0 5 7 0.041 -2.557 1.396 175.365 o
0 6 0 0.475 0.285 0.532 934.747 o
0 6 1 0.087 0.941 0.810 468.631 o
0 6 2 9.994 8.710 1.259 93.127 o
0 6 3 155.413 144.881 3.942 3.862 o
0 6 4 200.561 190.458 6.278 2.271 o
0 6 5 18.587 21.147 4.688 12.891 o
0 6 6 0.146 -1.420 1.915 92.982 o
0 7 0 68.561 64.389 2.803 11.532 o
0 7 1 46.744 39.809 2.478 18.290 o
0 7 2 79.687 68.638 3.301 9.294 o
0 7 3 6.104 4.198 1.736 82.184 o
0 7 4 2.840 3.041 1.665 101.548 o
0 7 5 0.376 0.882 1.753 107.663 o
0 8 0 3.069 3.440 1.473 121.012 o
0 8 1 55.935 50.731 2.983 13.577 o
0 8 2 6.569 2.928 1.683 86.469 o
0 8 3 3.822 1.135 1.677 100.261 o
0 9 0 1.585 2.875 1.672 106.788 o
0 9 1 13.632 12.810 2.266 42.012 o
1 -11 3 0.565 0.527 1.864 95.572 o
1 -11 4 5.638 2.773 1.802 81.020 o
1 -11 5 0.320 -1.571 2.687 47.194 o
1 -11 6 17.866 18.795 3.904 17.562 o
1 -11 7 35.303 41.031 3.522 15.259 o
1 -11 8 3.721 6.549 1.679 90.196 o
1 -10 0 15.900 15.725 2.191 40.527 o
1 -10 1 31.426 34.469 3.511 16.472 o
1 -10 2 0.758 1.031 2.816 42.305 o
1 -10 3 16.767 12.826 1.467 60.045 o
1 -10 4 31.240 33.172 2.700 21.983 o
1 -10 5 363.565 384.155 8.450 0.858 o
1 -10 6 104.705 108.948 3.187 6.550 o
1 -10 7 14.631 15.149 1.255 69.067 o
1 -10 8 1.043 2.286 1.175 204.096 o
1 -10 9 1.861 1.595 1.595 117.860 o
1 -10 10 22.082 21.159 2.687 27.459 o
1 -9 0 57.190 66.777 3.116 11.980 o
1 -9 1 14.808 16.061 1.708 53.449 o
1 -9 2 19.474 16.631 3.524 20.419 o
1 -9 3 79.890 76.659 2.281 10.529 o
1 -9 4 2.905 2.901 0.740 298.512 o
1 -9 5 66.928 72.518 2.509 11.862 o
1 -9 6 124.004 133.691 4.561 4.491 o
1 -9 7 12.440 9.344 1.073 92.888 o
1 -9 8 88.376 80.266 3.946 7.389 o
1 -9 9 0.284 2.183 1.847 95.244 o
1 -9 10 9.487 10.517 1.472 79.249 o
1 -9 11 5.727 4.917 1.679 86.233 o
1 -8 0 1.140 0.635 1.157 223.277 o
1 -8 1 9.726 8.190 1.093 106.857 o
1 -8 2 11.956 12.848 1.095 86.873 o
1 -8 3 429.498 429.751 7.754 0.703 o
1 -8 4 490.417 486.512 8.672 0.557 o
1 -8 5 35.248 33.155 0.892 34.408 o
1 -8 6 36.272 38.897 1.563 27.470 o
1 -8 7 0.418 -0.001 0.560 926.209 o
1 -8 8 38.614 32.837 1.509 28.195 o
1 -8 9 9.301 7.763 1.331 93.008 o
1 -8 10 28.604 29.459 2.309 27.002 o
1 -8 11 11.751 8.776 1.530 72.597 o
1 -8 12 5.323 9.444 2.425 46.872 o
1 -7 0 16.860 17.457 1.368 58.631 o
1 -7 1 147.815 143.780 2.894 4.423 o
1 -7 2 489.442 474.569 6.757 0.594 o
1 -7 3 84.603 80.026 1.448 10.854 o
1 -7 4 10.348 8.694 0.543 140.153 o
1 -7 5 17.718 17.300 0.642 75.758 o
1 -7 6 88.896 89.553 1.774 9.583 o
1 -7 7 44.376 40.808 1.411 24.244 o
1 -7 8 5.928 7.132 0.876 161.955 o
1 -7 9 0.775 0.940 1.170 223.020 o
1 -7 10 35.340 36.803 2.578 21.111 o
1 -7 11 18.014 12.634 2.186 40.162 o
1 -7 12 9.612 14.963 2.137 48.245 o
1 -6 0 31.992 31.005 1.051 36.710 o
1 -6 1 3.911 3.897 0.643 278.801 o
1 -6 2 1.485 1.527 0.473 646.454 o
1 -6 3 64.978 62.774 1.271 15.452 o
1 -6 4 457.238 436.599 6.583 0.674 o
1 -6 5 115.268 114.376 2.024 6.634 o
1 -6 6 53.109 57.651 1.189 19.117 o
1 -6 7 45.596 44.245 1.263 23.709 o
1 -6 8 12.081 13.855 1.248 77.756 o
1 -6 9 2.435 1.568 1.350 151.405 o
1 -6 10 99.895 98.015 3.731 6.576 o
1 -6 11 117.011 121.227 4.385 4.969 o
1 -6 12 0.092 -1.171 1.820 103.130 o
1 -5 0 80.231 80.541 1.374 11.429 o
1 -5 1 2.498 2.948 0.314 531.516 o
1 -5 2 92.857 90.336 1.463 9.438 o
1 -5 3 2.203 1.224 0.608 454.332 o
1 -5 4 207.451 216.582 2.809 2.594 o
1 -5 5 48.492 49.431 0.934 22.693 o
1 -5 6 110.340 113.358 2.145 6.865 o
1 -5 7 12.767 12.614 0.578 107.298 o
1 -5 8 37.608 38.844 1.622 26.444 o
1 -5 9 216.840 224.514 5.004 2.168 o
1 -5 10 197.898 207.948 10.127 1.573 o
1 -5 11 11.069 12.774 1.935 54.069 o
1 -5 12 4.199 4.733 1.763 85.144 o
1 -4 0 422.613 431.477 5.214 0.766 o
1 -4 1 1.606 0.993 0.291 925.240 o
1 -4 2 28.102 28.891 0.797 43.739 o
1 -4 3 8.078 9.063 0.537 162.244 o
1 -4 4 5.296 5.559 0.383 266.761 o
1 -4 5 122.839 138.005 2.391 5.556 o
1 -4 6 138.657 150.400 2.403 4.758 o
1 -4 7 110.220 118.023 2.506 6.527 o
1 -4 8 22.023 22.418 1.050 52.947 o
1 -4 9 47.706 50.259 4.039 11.256 o
1 -4 10 46.718 48.886 2.417 17.525 o
1 -4 11 5.353 4.713 3.050 32.990 o
1 -4 12 4.726 6.060 2.004 67.095 o
1 -3 0 7.774 9.766 0.400 172.085 o
1 -3 1 173.809 161.747 2.410 3.676 o
1 -3 2 0.084 0.126 0.119 10106.700 o
1 -3 3 416.337 408.793 4.757 0.812 o
1 -3 4 653.936 668.688 9.032 0.337 o
1 -3 5 119.155 120.536 2.024 6.276 o
1 -3 6 4.592 3.053 0.441 327.432 o
1 -3 7 19.953 19.834 1.042 58.783 o
1 -3 8 34.058 34.306 1.589 29.660 o
1 -3 9 1.787 2.092 1.149 200.642 o
1 -3 10 1.538 0.270 1.222 199.138 o
1 -3 11 1.400 1.352 1.452 143.296 o
1 -3 12 4.000 5.790 2.027 67.569 o
1 -2 0 1691.370 1630.030 21.369 0.058 o
1 -2 1 3403.730 3665.250 245.575 0.004 o
1 -2 2 429.404 476.902 5.885 0.699 o
1 -2 3 2.316 1.656 0.285 670.156 o
1 -2 4 24.614 23.637 0.675 53.236 o
1 -2 5 106.496 113.042 1.644 7.385 o
1 -2 6 2.930 3.835 0.559 348.545 o
1 -2 7 518.199 525.191 7.059 0.523 o
1 -2 8 8.115 8.920 0.889 131.385 o
1 -2 9 20.579 18.743 1.647 45.879 o
1 -2 10 6.910 4.697 1.362 108.151 o
1 -2 11 25.495 29.135 2.272 28.898 o
1 -2 12 4.644 0.693 1.736 92.478 o
1 -1 0 1389.920 1260.310 17.316 0.087 o
1 -1 1 200.010 198.100 2.149 2.900 o
1 -1 3 361.680 364.041 3.989 1.034 o
1 -1 4 42.654 45.169 0.976 25.948 o
1 -1 5 238.369 253.921 3.238 2.027 o
1 -1 6 606.417 624.684 7.729 0.391 o
1 -1 7 5.411 3.944 0.649 235.079 o
1 -1 8 37.506 35.730 1.525 27.913 o
1 -1 9 1.951 1.916 1.341 156.154 o
1 -1 10 20.491 15.389 1.829 44.040 o
1 -1 11 48.326 52.961 2.963 14.634 o
1 0 1 2406.810 2353.080 22.846 0.030 o
1 0 2 24.709 30.120 0.633 48.678 o
1 0 3 0.772 0.455 0.329 1407.030 o
1 0 4 102.472 91.533 1.435 8.568 o
1 0 5 82.646 81.889 1.588 10.827 o
1 0 6 371.855 348.373 5.062 0.997 o
1 0 7 180.937 187.556 3.992 2.986 o
1 0 8 14.603 15.114 1.233 69.951 o
1 0 9 279.196 275.954 7.236 1.364 o
1 0 10 6.735 9.768 1.775 71.097 o
1 0 11 13.676 21.411 4.534 14.092 o
1 1 0 202.556 188.471 1.964 2.955 o
1 1 1 24.088 18.385 0.510 60.775 o
1 1 2 1151.500 1103.340 10.521 0.126 o
1 1 3 31.493 35.369 0.846 36.831 o
1 1 4 23.177 20.785 0.814 56.220 o
1 1 5 153.221 147.898 2.635 4.295 o
1 1 6 200.225 193.961 3.610 2.732 o
1 1 7 858.024 854.876 12.374 0.204 o
1 1 8 68.789 70.617 2.540 11.687 o
1 1 9 6.254 5.061 1.343 112.522 o
1 1 10 9.384 10.248 2.558 39.562 o
1 2 0 233.021 238.395 2.645 2.196 o
1 2 1 14.534 14.325 0.515 96.109 o
1 2 2 40.995 36.541 0.862 29.580 o
1 2 3 401.314 467.266 5.921 0.760 o
1 2 4 10.682 11.597 0.790 112.005 o
1 2 5 141.039 134.373 2.826 4.791 o
1 2 6 17.116 15.875 1.269 62.418 o
1 2 7 5.498 6.484 1.129 136.475 o
1 2 8 0.158 1.639 1.619 124.473 o
1 2 9 0.206 -2.311 2.107 76.719 o
1 3 0 12.724 11.434 0.568 111.303 o
1 3 1 359.259 389.600 5.438 0.963 o
1 3 2 836.693 859.191 11.794 0.211 o
1 3 3 5.305 6.190 0.682 207.621 o
1 3 4 0.222 -0.795 0.747 583.571 o
1 3 5 23.468 22.244 1.387 45.382 o
1 3 6 0.009 -0.636 1.006 338.075 o
1 3 7 25.263 24.072 3.309 20.045 o
1 3 8 22.988 25.413 2.566 27.580 o
1 4 0 14.813 15.184 0.693 87.841 o
1 4 1 99.850 106.452 2.328 7.581 o
1 4 2 19.083 16.841 0.955 65.576 o
1 4 3 21.711 20.533 1.150 53.079 o
1 4 4 14.784 11.455 1.310 71.140 o
1 4 5 115.860 115.228 3.600 5.623 o
1 4 6 4.008 3.559 1.521 109.861 o
1 4 7 1.049 4.265 1.939 81.688 o
1 5 0 11.287 10.461 0.751 113.969 o
1 5 1 4.558 3.550 0.794 226.430 o
1 5 2 5.427 6.355 1.035 149.843 o
1 5 3 26.506 25.022 1.572 38.250 o
1 5 4 141.674 131.371 4.468 4.124 o
1 5 5 0.864 1.481 1.406 156.216 o
1 5 6 22.649 23.498 2.257 32.078 o
1 6 0 116.512 121.813 2.973 5.859 o
1 6 1 7.037 6.891 1.223 114.510 o
1 6 2 4.623 4.340 1.418 115.750 o
1 6 3 7.855 8.449 1.870 65.437 o
1 6 4 14.449 13.470 1.982 47.990 o
1 6 5 1.381 1.253 1.755 102.180 o
1 7 0 12.771 14.283 1.860 53.051 o
1 7 1 19.544 22.144 2.136 36.297 o
1 7 2 45.007 46.245 3.067 15.325 o
1 7 3 3.253 5.238 1.889 78.150 o
1 7 4 3.827 -1.019 3.248 30.937 o
1 8 0 28.376 22.752 2.349 28.194 o
1 8 1 3.885 4.009 2.409 51.736 o
1 8 2 7.254 4.650 2.038 62.132 o
1 9 0 0.069 -2.095 1.610 131.813 o
2 -11 2 0.422 -2.298 1.931 90.522 o
2 -11 3 4.356 0.565 3.317 29.444 o
2 -11 4 2.191 0.251 2.057 75.372 o
2 -11 5 8.577 9.792 1.005 115.451 o
2 -11 6 99.468 104.005 3.946 6.260 o
2 -11 7 21.438 25.945 4.702 12.372 o
2 -10 0 8.487 12.180 1.701 68.202 o
2 -10 1 2.073 1.280 1.226 182.885 o
2 -10 2 8.758 7.166 1.299 98.801 o
2 -10 3 81.085 81.503 2.883 9.298 o
2 -10 4 31.493 32.170 1.657 31.178 o
2 -10 5 0.333 1.074 0.875 388.162 o
2 -10 6 0.148 0.906 1.548 138.395 o
2 -10 7 3.809 4.314 0.494 318.821 o
2 -10 8 0.087 -0.016 1.217 229.426 o
2 -10 9 0.038 -0.098 0.796 536.348 o
2 -10 10 29.079 22.209 2.245 29.134 o
2 -9 0 0.836 -0.951 2.005 82.911 o
2 -9 1 90.061 83.967 2.912 8.457 o
2 -9 2 71.731 74.241 2.176 11.787 o
2 -9 3 24.622 24.757 0.979 48.597 o
2 -9 4 0.260 0.888 0.961 336.283 o
2 -9 5 53.047 51.146 1.557 18.980 o
2 -9 6 12.795 13.774 1.406 69.404 o
2 -9 7 33.888 37.482 1.413 30.228 o
2 -9 8 35.113 36.020 1.769 27.240 o
2 -9 9 30.000 28.759 2.411 25.600 o
2 -9 10 39.373 35.755 2.879 18.357 o
2 -9 11 51.329 60.547 4.005 10.558 o
2 -8 0 101.794 92.383 2.753 7.545 o
2 -8 1 16.789 16.626 1.159 65.509 o
2 -8 2 154.897 149.829 3.183 4.064 o
2 -8 3 319.625 334.733 7.106 1.104 o
2 -8 4 301.446 298.987 7.256 1.224 o
2 -8 5 8.496 9.365 1.079 111.362 o
2 -8 6 1.577 1.512 0.560 542.988 o
2 -8 7 37.859 34.916 1.457 28.410 o
2 -8 8 0.041 -0.414 0.573 1026.610 o
2 -8 9 0.633 1.552 1.000 287.954 o
2 -8 10 66.520 66.941 3.916 9.270 o
2 -8 11 32.980 35.551 2.371 23.547 o
2 -8 12 8.682 12.763 5.122 12.050 o
2 -7 0 73.357 70.682 2.103 11.934 o
2 -7 1 132.249 122.193 2.145 5.596 o
2 -7 2 133.688 134.357 2.405 5.203 o
2 -7 3 1078.100 1060.260 20.278 0.125 o
2 -7 4 4.603 4.361 0.513 282.650 o
2 -7 5 0.358 0.188 0.375 1703.340 o
2 -7 6 35.186 34.920 0.841 34.093 o
2 -7 7 30.692 28.576 1.511 34.326 o
2 -7 8 2.873 2.879 0.783 283.712 o
2 -7 9 74.573 73.232 2.824 10.368 o
2 -7 10 0.223 0.114 1.291 201.246 o
2 -7 11 224.429 228.124 6.339 1.908 o
2 -7 12 18.622 20.763 2.254 35.459 o
2 -6 0 5.163 5.986 0.656 216.930 o
2 -6 1 0.000 0.946 0.339 1920.300 o
2 -6 2 60.233 61.412 1.182 16.802 o
2 -6 3 296.296 290.818 5.816 1.353 o
2 -6 4 23.359 22.534 1.160 49.095 o
2 -6 5 6.854 5.527 0.375 227.275 o
2 -6 6 14.141 16.645 0.724 86.656 o
2 -6 7 13.399 15.498 1.218 73.061 o
2 -6 8 11.403 14.023 1.158 83.764 o
2 -6 9 0.492 -0.127 1.238 214.264 o
2 -6 10 117.921 120.122 4.146 5.108 o
2 -6 11 38.537 41.020 2.760 18.617 o
2 -6 12 3.792 6.120 1.995 69.412 o
2 -5 0 100.892 103.469 2.097 7.787 o
2 -5 1 58.525 56.641 0.950 18.272 o
2 -5 2 5.708 2.855 0.504 273.302 o
2 -5 3 534.975 516.368 11.756 0.450 o
2 -5 4 446.831 478.805 7.186 0.646 o
2 -5 5 227.978 241.474 3.578 2.150 o
2 -5 6 193.313 207.676 3.315 2.778 o
2 -5 7 0.011 0.176 0.495 1328.350 o
2 -5 8 4.173 5.325 1.018 171.984 o
2 -5 9 2.691 6.354 1.482 113.742 o
2 -5 10 284.606 289.434 7.462 1.295 o
2 -5 11 3.032 3.406 1.709 95.852 o
2 -5 12 9.451 10.986 2.098 51.984 o
2 -4 0 251.439 256.156 3.372 1.898 o
2 -4 1 252.738 269.611 3.731 1.811 o
2 -4 2 692.302 739.559 10.766 0.289 o
2 -4 3 30.350 28.832 0.554 43.031 o
2 -4 4 172.049 173.423 2.426 3.586 o
2 -4 5 102.527 107.246 1.635 7.851 o
2 -4 6 23.607 24.126 0.797 52.965 o
2 -4 7 15.165 13.646 0.987 79.262 o
2 -4 8 4.446 4.639 0.987 178.553 o
2 -4 9 17.416 18.510 1.623 50.398 o
2 -4 10 2.481 3.924 1.547 114.023 o
2 -4 11 0.778 -0.059 1.697 114.859 o
2 -4 12 14.340 14.108 2.329 39.516 o
2 -3 0 220.717 216.963 2.670 2.443 o
2 -3 1 5.166 4.907 0.365 284.642 o
2 -3 2 184.123 205.918 2.361 3.067 o
2 -3 3 339.039 334.705 4.072 1.162 o
2 -3 4 305.010 326.583 4.100 1.320 o
2 -3 5 144.100 144.383 2.518 4.645 o
2 -3 6 188.062 198.348 3.073 2.962 o
2 -3 7 153.659 153.213 2.725 4.187 o
2 -3 8 26.256 25.692 1.753 35.774 o
2 -3 9 2.579 1.464 1.198 181.418 o
2 -3 10 4.674 5.262 1.878 75.264 o
2 -3 11 0.352 1.699 1.608 124.761 o
2 -2 0 7.099 9.686 0.425 180.192 o
2 -2 1 107.205 124.482 1.488 7.061 o
2 -2 2 1342.230 1345.820 13.221 0.091 o
2 -2 3 148.790 144.609 1.747 4.704 o
2 -2 4 214.272 213.882 2.907 2.515 o
2 -2 5 63.290 69.889 1.297 15.035 o
2 -2 6 40.812 45.953 1.287 25.269 o
2 -2 7 0.376 0.099 0.585 857.252 o
2 -2 8 23.372 24.790 1.483 42.564 o
2 -2 9 23.160 22.115 1.815 38.724 o
2 -2 10 0.926 0.852 1.379 164.469 o
2 -2 11 37.262 41.943 2.843 18.343 o
2 -1 0 1963.200 1957.540 20.001 0.043 o
2 -1 1 8756.300 8223.400 80.172 0.002 o
2 -1 2 3898.880 3992.400 38.763 0.011 o
2 -1 3 486.462 521.457 5.915 0.578 o
2 -1 4 1.154 1.421 0.443 762.099 o
2 -1 5 0.181 0.308 0.499 1163.780 o
2 -1 6 127.424 125.312 2.379 5.633 o
2 -1 7 1.859 3.505 0.783 309.185 o
2 -1 8 0.298 0.135 0.995 329.678 o
2 -1 9 1.866 0.526 1.280 177.759 o
2 -1 10 0.898 1.579 1.533 132.840 o
2 -1 11 2.202 2.953 1.810 90.657 o
2 0 0 1758.680 1748.420 16.374 0.054 o
2 0 1 296.866 308.569 3.192 1.441 o
2 0 2 42.416 43.236 0.824 27.103 o
2 0 3 327.823 336.744 3.915 1.207 o
2 0 4 168.732 198.775 3.120 3.272 o
2 0 5 8.470 8.927 0.849 132.086 o
2 0 6 1.266 -0.030 0.855 379.673 o
2 0 7 84.545 81.556 2.312 9.773 o
2 0 8 0.297 -0.706 1.095 276.547 o
2 0 9 6.426 7.760 1.560 87.756 o
2 0 10 4.405 3.402 1.945 73.985 o
2 1 0 106.129 92.598 2.767 7.262 o
2 1 1 220.986 205.108 2.313 2.544 o
2 1 2 237.369 226.609 2.971 2.185 o
2 1 3 498.438 489.016 6.211 0.580 o
2 1 4 6.043 5.916 0.713 192.162 o
2 1 5 80.294 87.044 3.267 8.593 o
2 1 6 110.194 113.826 4.239 5.412 o
2 1 7 9.968 12.822 1.272 84.897 o
2 1 8 247.170 250.484 5.360 1.780 o
2 1 9 198.924 213.422 7.922 1.899 o
2 2 0 24.562 27.232 0.780 49.435 o
2 2 1 90.519 92.914 1.541 9.475 o
2 2 2 274.478 273.516 4.046 1.629 o
2 2 3 153.543 148.832 2.637 4.273 o
2 2 4 564.544 528.987 8.135 0.462 o
2 2 5 15.115 12.889 1.151 74.478 o
2 2 6 202.379 204.415 4.050 2.568 o
2 2 7 55.512 56.930 2.798 13.767 o
2 2 8 167.835 187.094 8.855 2.021 o
2 2 9 29.730 32.422 3.946 14.599 o
2 3 0 107.117 101.952 1.806 7.615 o
2 3 1 2.789 1.788 0.612 389.105 o
2 3 2 1.835 0.864 0.780 373.659 o
2 3 3 140.379 139.646 2.702 4.774 o
2 3 4 265.446 256.932 4.589 1.703 o
2 3 5 223.638 223.911 5.295 2.071 o
2 3 6 0.413 -2.135 1.157 245.645 o
2 3 7 1.239 -0.477 1.790 101.666 o
2 3 8 1.059 5.444 2.115 68.624 o
2 4 0 5.638 6.316 0.773 186.009 o
2 4 1 3.327 4.215 0.807 243.856 o
2 4 2 67.995 65.943 1.855 13.511 o
2 4 3 73.535 73.713 3.980 8.428 o
2 4 4 26.441 25.473 1.741 35.876 o
2 4 5 37.188 35.130 2.784 19.510 o
2 4 6 47.063 59.301 3.145 13.696 o
2 4 7 1.371 3.645 2.102 70.592 o
2 5 0 421.621 413.501 5.949 0.772 o
2 5 1 11.555 9.759 1.183 89.528 o
2 5 2 17.043 17.046 1.518 54.633 o
2 5 3 6.599 7.035 1.304 109.054 o
2 5 4 127.535 136.930 4.155 4.563 o
2 5 5 7.434 4.451 1.595 87.492 o
2 5 6 1.868 2.584 2.623 46.881 o
2 6 0 98.790 100.295 3.099 7.169 o
2 6 1 44.868 44.200 2.381 18.684 o
2 6 2 29.520 31.198 2.141 27.830 o
2 6 3 0.162 -1.496 1.653 124.493 o
2 6 4 13.941 10.303 2.268 42.791 o
2 7 0 18.256 15.464 3.012 26.132 o
2 7 1 1.246 -0.008 1.697 112.458 o
2 7 2 0.306 -1.018 1.826 101.585 o
2 7 3 3.278 0.120 2.561 48.835 o
2 8 0 0.014 -1.890 1.576 137.857 o
2 8 1 7.839 8.020 2.286 49.429 o
3 -11 2 10.864 12.775 1.998 52.307 o
3 -11 3 5.478 8.370 1.679 81.708 o
3 -11 4 1.571 1.536 0.555 546.913 o
3 -11 5 2.421 3.357 2.271 59.880 o
3 -11 6 13.133 11.194 2.545 36.935 o
3 -11 7 0.012 -5.047 2.055 81.111 o
3 -11 8 59.144 53.057 6.633 5.570 o
3 -10 0 0.892 0.283 1.187 221.160 o
3 -10 1 2.518 1.625 1.096 206.789 o
3 -10 2 9.306 9.770 1.322 89.730 o
3 -10 3 41.415 40.812 1.774 23.495 o
3 -10 4 45.796 44.666 1.901 20.678 o
3 -10 5 13.021 9.609 2.316 42.752 o
3 -10 6 0.072 -3.067 2.519 53.935 o
3 -10 7 0.055 -4.018 1.612 131.502 o
3 -10 8 20.364 23.259 1.840 40.207 o
3 -10 9 1.530 0.746 0.693 464.218 o
3 -10 10 2.984 3.001 1.889 81.839 o
3 -9 0 1.313 0.405 1.024 273.499 o
3 -9 1 9.725 10.765 0.994 106.969 o
3 -9 2 21.649 25.176 1.000 52.238 o
3 -9 3 5.013 5.018 1.139 145.559 o
3 -9 4 517.387 544.261 30.643 0.220 o
3 -9 5 238.097 241.048 12.049 1.147 o
3 -9 6 9.259 8.284 2.159 51.878 o
3 -9 7 0.037 0.345 0.436 1568.760 o
3 -9 8 28.869 27.965 1.763 33.052 o
3 -9 9 1.416 2.255 1.403 147.980 o
3 -9 10 1.408 2.211 1.599 118.248 o
3 -9 11 4.661 2.687 3.443 27.014 o
3 -8 0 5.890 6.215 1.212 124.915 o
3 -8 1 182.810 179.914 3.368 3.143 o
3 -8 2 14.550 14.355 0.914 82.755 o
3 -8 3 528.956 507.053 8.954 0.498 o
3 -8 4 23.242 21.705 2.855 25.048 o
3 -8 5 0.774 -0.044 2.225 67.797 o
3 -8 6 10.298 12.032 0.720 117.048 o
3 -8 7 9.680 10.108 1.006 108.146 o
3 -8 8 48.373 51.140 1.891 19.048 o
3 -8 9 196.397 202.933 5.170 2.456 o
3 -8 10 24.364 31.723 2.885 22.764 o
3 -8 11 2.686 1.214 1.345 151.612 o
3 -7 0 216.909 213.777 3.587 2.407 o
3 -7 1 48.775 46.231 1.235 22.221 o
3 -7 2 136.100 134.374 2.153 5.204 o
3 -7 3 124.934 119.694 3.199 5.434 o
3 -7 4 58.014 55.408 4.786 8.473 o
3 -7 5 3.271 4.836 1.259 144.188 o
3 -7 6 0.848 1.464 0.715 472.378 o
3 -7 7 99.192 92.478 2.769 7.691 o
3 -7 8 5.748 5.068 1.091 145.261 o
3 -7 9 168.590 165.256 6.820 2.596 o
3 -7 10 183.347 200.622 7.903 2.057 o
3 -7 11 91.040 102.279 4.086 6.543 o
3 -6 0 281.952 266.452 4.347 1.586 o
3 -6 1 40.830 37.013 0.811 29.757 o
3 -6 2 53.594 61.442 1.136 18.577 o
3 -6 3 2.166 3.050 0.897 261.299 o
3 -6 4 4.171 3.180 0.490 329.107 o
3 -6 5 0.825 1.041 0.238 1434.120 o
3 -6 6 2.660 2.499 0.645 359.621 o
3 -6 7 3.629 1.263 0.785 284.625 o
3 -6 8 133.899 139.903 3.467 4.663 o
3 -6 9 0.395 0.759 1.195 223.463 o
3 -6 10 304.653 308.063 7.769 1.163 o
3 -6 11 131.814 142.546 4.892 4.030 o
3 -5 0 153.659 193.181 3.670 3.480 o
3 -5 1 652.226 667.836 9.027 0.339 o
3 -5 2 50.947 49.876 1.028 21.453 o
3 -5 3 25.384 30.041 0.566 48.359 o
3 -5 4 9.672 9.509 0.431 149.364 o
3 -5 5 14.236 10.956 0.768 96.341 o
3 -5 6 77.793 85.896 1.681 11.053 o
3 -5 7 18.485 18.456 1.111 61.333 o
3 -5 8 3.309 3.221 1.729 93.397 o
3 -5 9 14.628 17.529 1.907 47.416 o
3 -5 10 13.929 14.981 1.988 47.567 o
3 -5 11 2.007 3.839 1.729 97.150 o
3 -4 0 996.291 1063.820 13.169 0.149 o
3 -4 1 470.046 457.770 5.810 0.649 o
3 -4 2 75.430 74.243 1.208 12.707 o
3 -4 3 1.397 3.318 0.346 637.081 o
3 -4 4 86.994 89.109 1.566 9.986 o
3 -4 5 486.096 502.893 6.234 0.587 o
3 -4 6 7.243 7.654 0.637 171.931 o
3 -4 7 1.587 0.106 0.774 417.158 o
3 -4 8 104.371 110.364 3.770 6.063 o
3 -4 9 10.351 11.315 1.822 60.340 o
3 -4 10 9.872 12.550 2.024 52.905 o
3 -4 11 20.267 15.487 2.342 34.649 o
3 -3 0 2.576 2.599 0.348 524.229 o
3 -3 1 1491.550 1512.170 16.412 0.073 o
3 -3 2 694.365 736.417 8.197 0.302 o
3 -3 3 227.940 238.669 3.161 2.203 o
3 -3 4 0.111 -0.111 0.500 1294.820 o
3 -3 5 39.205 41.017 1.096 28.214 o
3 -3 6 0.805 -0.035 0.584 762.687 o
3 -3 7 39.272 40.574 2.056 22.641 o
3 -3 8 327.402 313.877 6.607 1.138 o
3 -3 9 11.752 9.435 1.400 77.980 o
3 -3 10 4.457 5.302 1.866 76.511 o
3 -3 11 6.517 6.992 2.132 57.364 o
3 -2 0 7.512 13.143 0.479 150.067 o
3 -2 1 605.316 618.116 6.619 0.402 o
3 -2 2 352.925 342.741 4.335 1.089 o
3 -2 3 28.136 38.018 0.938 37.925 o
3 -2 4 62.295 58.082 1.297 16.480 o
3 -2 5 48.246 46.349 1.461 21.537 o
3 -2 6 88.610 90.163 4.124 6.905 o
3 -2 7 112.357 110.893 2.850 6.374 o
3 -2 8 0.005 1.765 1.048 281.313 o
3 -2 9 5.073 4.872 1.521 101.758 o
3 -2 10 6.945 5.269 1.554 90.754 o
3 -1 0 114.033 138.243 1.851 6.169 o
3 -1 1 4.435 6.863 0.463 259.313 o
3 -1 2 1765.300 1814.770 18.843 0.052 o
3 -1 3 53.055 62.229 1.350 18.093 o
3 -1 4 105.511 109.212 2.107 7.294 o
3 -1 5 1.108 2.772 0.651 448.990 o
3 -1 6 5.835 5.581 0.951 161.282 o
3 -1 7 0.794 0.009 1.091 264.207 o
3 -1 8 0.542 -0.886 1.030 302.119 o
3 -1 9 0.268 0.319 1.326 188.844 o
3 -1 10 61.585 68.418 3.407 10.708 o
3 0 0 492.332 540.043 8.422 0.527 o
3 0 1 960.673 1021.530 11.384 0.163 o
3 0 2 588.315 615.521 8.226 0.405 o
3 0 3 4.569 5.279 0.659 237.056 o
3 0 4 29.724 29.560 1.196 37.943 o
3 0 5 1.726 0.415 0.711 446.153 o
3 0 6 35.163 36.744 1.680 27.717 o
3 0 7 0.131 0.145 1.106 274.208 o
3 0 8 21.231 20.872 1.743 42.244 o
3 0 9 205.154 227.512 6.807 1.985 o
3 1 0 361.644 365.527 5.884 0.977 o
3 1 1 28.717 30.482 1.011 40.259 o
3 1 2 0.020 -0.461 0.530 1209.280 o
3 1 3 36.459 38.616 1.376 28.714 o
3 1 4 96.287 104.544 2.455 7.773 o
3 1 5 32.908 34.227 1.630 29.986 o
3 1 6 24.255 23.114 1.549 41.487 o
3 1 7 1.677 0.550 1.168 210.246 o
3 1 8 2.177 4.180 1.604 108.438 o
3 1 9 4.510 8.323 3.275 28.682 o
3 2 0 61.659 52.555 1.567 16.627 o
3 2 1 85.480 91.787 1.910 9.666 o
3 2 2 215.706 208.058 3.437 2.472 o
3 2 3 107.648 110.922 2.621 6.772 o
3 2 4 1.081 -0.777 0.813 424.399 o
3 2 5 22.181 21.265 1.485 45.728 o
3 2 6 1.459 0.940 1.383 157.653 o
3 2 7 0.284 -1.330 1.449 160.372 o
3 2 8 48.859 55.957 4.661 9.289 o
3 3 0 370.832 340.476 4.979 1.015 o
3 3 1 221.371 202.973 3.404 2.440 o
3 3 2 30.331 28.536 2.028 29.204 o
3 3 3 232.189 224.725 4.225 2.122 o
3 3 4 80.216 83.528 3.123 8.938 o
3 3 5 1.925 4.584 1.398 135.134 o
3 3 6 1.754 1.381 1.439 142.594 o
3 3 7 6.359 10.959 2.580 40.986 o
3 4 0 104.830 101.377 2.205 7.517 o
3 4 1 636.272 642.868 11.057 0.342 o
3 4 2 242.121 247.738 8.353 1.498 o
3 4 3 22.837 28.062 2.156 31.982 o
3 4 4 74.948 74.163 2.847 10.245 o
3 4 5 42.769 39.645 2.705 18.097 o
3 4 6 46.188 54.736 3.690 12.269 o
3 5 0 178.620 172.134 3.925 3.160 o
3 5 1 13.589 16.072 1.573 59.458 o
3 5 2 72.493 67.808 2.734 11.036 o
3 5 3 0.513 -0.798 1.292 197.192 o
3 5 4 0.011 -0.590 1.583 136.636 o
3 6 0 54.634 60.498 2.774 13.704 o
3 6 1 0.637 -0.145 1.180 231.941 o
3 6 2 24.543 24.575 2.404 28.948 o
3 6 3 7.908 7.906 2.398 45.957 o
3 7 0 22.020 23.144 2.580 28.338 o
3 7 1 1.138 -0.933 1.931 88.243 o
4 -11 1 0.097 0.775 1.550 138.865 o
4 -11 2 8.468 10.595 1.598 75.200 o
4 -11 3 13.027 14.114 1.819 54.084 o
4 -11 4 22.647 31.655 4.954 11.083 o
4 -11 5 0.596 5.764 2.939 37.608 o
4 -11 6 24.530 27.826 3.295 19.890 o
4 -11 7 11.671 7.641 3.610 22.382 o
4 -11 8 4.671 11.839 4.282 17.265 o
4 -10 0 6.306 3.318 1.139 141.639 o
4 -10 1 0.264 -1.196 1.511 147.752 o
4 -10 2 1.626 1.475 0.885 310.243 o
4 -10 3 42.695 45.494 1.522 23.441 o
4 -10 4 50.100 46.379 3.675 12.346 o
4 -10 5 24.591 22.567 3.191 21.347 o
4 -10 6 0.356 -0.168 2.771 44.365 o
4 -10 7 65.144 63.828 10.328 2.690 o
4 -10 8 9.542 7.214 0.470 160.960 o
4 -10 9 1.460 0.485 1.047 258.304 o
4 -9 0 99.506 98.757 4.183 6.155 o
4 -9 1 1.095 -0.504 0.727 506.399 o
4 -9 2 35.200 36.185 1.660 27.988 o
4 -9 3 19.216 21.659 1.116 56.910 o
4 -9 4 0.073 1.487 1.733 110.121 o
4 -9 5 18.816 18.635 2.578 30.947 o
4 -9 6 69.424 64.037 3.813 9.363 o
4 -9 7 3.117 3.799 0.976 208.183 o
4 -9 8 0.235 -1.116 0.837 468.022 o
4 -9 9 7.001 3.898 2.855 36.393 o
4 -9 10 36.428 46.958 3.293 15.695 o
4 -8 0 0.293 0.722 0.753 523.005 o
4 -8 1 36.909 38.191 1.314 28.988 o
4 -8 2 4.248 3.774 0.689 257.717 o
4 -8 3 85.351 91.669 3.076 8.317 o
4 -8 4 394.412 385.685 7.746 0.812 o
4 -8 5 47.739 46.759 1.484 21.547 o
4 -8 6 15.937 15.367 1.339 63.197 o
4 -8 7 25.999 28.336 1.250 41.382 o
4 -8 8 0.766 -0.412 0.988 317.627 o
4 -8 9 15.048 16.172 1.487 59.530 o
4 -8 10 7.123 8.338 1.429 93.529 o
4 -7 0 33.522 35.594 1.644 29.149 o
4 -7 1 7.943 10.146 0.652 148.211 o
4 -7 2 9.202 11.287 0.520 140.165 o
4 -7 3 0.002 0.321 0.689 689.846 o
4 -7 4 0.018 0.702 0.544 991.786 o
4 -7 5 51.772 47.755 1.313 20.670 o
4 -7 6 111.089 108.528 2.502 6.732 o
4 -7 7 2.333 2.431 0.788 309.453 o
4 -7 8 123.949 125.301 3.945 4.953 o
4 -7 9 32.437 33.406 2.195 25.578 o
4 -7 10 5.159 6.236 1.564 94.850 o
4 -7 11 8.325 7.417 1.723 72.872 o
4 -6 0 9.175 10.158 0.836 123.258 o
4 -6 1 541.861 568.182 7.859 0.468 o
4 -6 2 41.532 44.434 0.850 27.159 o
4 -6 3 0.008 -0.051 0.393 2206.930 o
4 -6 4 14.162 13.394 0.583 97.952 o
4 -6 5 6.748 6.736 0.804 164.066 o
4 -6 6 1133.260 1148.610 24.393 0.107 o
4 -6 7 63.344 72.315 2.302 12.793 o
4 -6 8 0.615 0.263 1.162 236.305 o
4 -6 9 4.895 2.198 1.297 136.202 o
4 -6 10 16.428 15.058 2.002 44.518 o
4 -6 11 16.749 18.254 2.247 37.774 o
4 -5 0 5.916 6.439 0.615 204.783 o
4 -5 1 537.871 568.911 11.228 0.433 o
4 -5 2 87.985 103.817 3.178 7.625 o
4 -5 3 1.603 2.565 0.616 442.991 o
4 -5 4 109.062 108.647 2.206 7.035 o
4 -5 5 4.532 4.329 0.622 258.913 o
4 -5 6 1.954 1.062 0.698 414.686 o
4 -5 7 175.804 165.818 4.663 3.076 o
4 -5 8 41.828 44.310 2.585 18.393 o
4 -5 9 5.316 1.904 1.827 81.358 o
4 -5 10 30.352 28.972 2.555 24.137 o
4 -5 11 13.332 17.573 2.796 30.625 o
4 -4 0 37.658 39.504 1.288 28.384 o
4 -4 1 1.666 1.021 0.400 750.974 o
4 -4 2 9.007 13.428 0.637 126.008 o
4 -4 3 25.560 22.974 0.812 50.691 o
4 -4 4 73.708 68.517 2.132 11.978 o
4 -4 5 1.056 0.792 0.553 681.769 o
4 -4 6 39.655 35.298 1.961 24.069 o
4 -4 7 29.788 25.695 1.653 34.438 o
4 -4 8 129.146 127.454 4.334 4.557 o
4 -4 9 58.524 56.158 3.425 11.611 o
4 -4 10 0.814 -0.929 2.752 44.600 o
4 -3 0 55.209 57.127 1.262 18.423 o
4 -3 1 0.704 -0.128 0.446 1167.540 o
4 -3 2 124.583 128.023 2.163 5.790 o
4 -3 3 220.462 235.102 3.478 2.266 o
4 -3 4 160.496 162.693 2.678 3.910 o
4 -3 5 24.598 23.174 1.067 48.457 o
4 -3 6 1.455 0.624 1.012 271.222 o
4 -3 7 161.857 144.537 3.829 3.763 o
4 -3 8 45.348 42.127 3.095 15.496 o
4 -3 9 11.063 13.964 2.500 38.338 o
4 -3 10 7.749 6.688 1.996 61.493 o
4 -2 0 3.918 3.607 0.561 308.819 o
4 -2 1 183.752 189.866 2.904 3.127 o
4 -2 2 2038.320 2048.890 23.778 0.040 o
4 -2 3 1021.510 1021.380 13.103 0.149 o
4 -2 4 2.537 2.944 0.737 313.054 o
4 -2 5 47.524 36.560 1.526 23.280 o
4 -2 6 118.725 109.178 2.872 6.101 o
4 -2 7 51.036 47.128 2.032 18.311 o
4 -2 8 15.510 13.340 1.455 62.319 o
4 -2 9 0.735 -0.555 1.329 183.811 o
4 -2 10 1.345 1.617 1.664 111.915 o
4 -1 0 0.161 -0.504 0.547 1066.670 o
4 -1 1 383.209 405.167 5.246 0.884 o
4 -1 2 345.245 368.705 5.249 1.042 o
4 -1 3 18.436 21.519 1.009 60.785 o
4 -1 4 0.425 0.856 0.699 567.249 o
4 -1 5 39.492 36.338 1.620 26.170 o
4 -1 6 7.659 3.979 1.617 85.944 o
4 -1 7 3.188 1.850 0.999 219.038 o
4 -1 8 6.041 9.528 1.532 88.008 o
4 -1 9 4.624 5.727 1.792 80.427 o
4 0 0 74.419 86.413 1.646 11.477 o
4 0 1 18.473 22.137 1.048 59.267 o
4 0 2 26.046 22.963 1.087 46.453 o
4 0 3 26.335 25.090 1.210 43.240 o
4 0 4 18.850 19.680 1.187 57.721 o
4 0 5 6.896 6.163 1.024 138.755 o
4 0 6 2.323 1.756 1.068 216.980 o
4 0 7 1.276 1.045 1.321 172.256 o
4 0 8 0.201 2.023 1.697 112.640 o
4 1 0 430.327 429.989 5.632 0.745 o
4 1 1 29.701 34.450 1.362 34.390 o
4 1 2 1.674 0.406 0.710 451.697 o
4 1 3 3.315 1.965 0.859 257.613 o
4 1 4 63.069 62.085 2.132 14.016 o
4 1 5 1.282 0.600 1.389 159.796 o
4 1 6 6.453 8.781 1.515 89.068 o
4 1 7 43.398 48.788 2.853 16.308 o
4 1 8 69.999 71.452 4.569 7.746 o
4 2 0 161.714 157.828 2.869 3.892 o
4 2 1 17.125 15.764 1.183 65.017 o
4 2 2 49.135 50.470 1.817 19.224 o
4 2 3 44.251 43.654 1.859 21.536 o
4 2 4 88.507 94.753 2.785 8.327 o
4 2 5 0.632 -1.205 1.345 180.879 o
4 2 6 0.492 -1.917 2.181 71.034 o
4 2 7 24.204 32.062 3.381 18.867 o
4 3 0 40.699 42.310 1.604 24.442 o
4 3 1 2.763 1.822 1.014 223.656 o
4 3 2 24.495 24.948 1.557 40.273 o
4 3 3 0.806 2.073 1.251 188.810 o
4 3 4 0.018 -0.264 1.320 196.421 o
4 3 5 3.591 1.466 1.600 108.623 o
4 3 6 3.930 4.008 2.076 66.719 o
4 4 0 542.675 541.610 9.341 0.463 o
4 4 1 80.833 84.135 2.843 9.267 o
4 4 2 21.786 18.562 1.765 42.422 o
4 4 3 7.731 4.883 1.521 91.037 o
4 4 4 0.364 0.675 1.531 140.469 o
4 4 5 7.549 9.127 2.323 47.980 o
4 5 0 7.165 9.550 1.853 66.475 o
4 5 1 17.031 18.497 1.711 48.799 o
4 5 2 1.728 -0.031 2.262 64.064 o
4 5 3 9.433 10.615 1.874 60.464 o
4 6 0 116.260 116.686 4.183 5.195 o
4 6 1 4.275 2.261 1.684 95.615 o
4 6 2 1.742 2.960 1.934 81.953 o
4 7 0 5.489 2.472 2.143 61.965 o
5 -11 2 12.402 18.338 3.904 18.503 o
5 -11 3 10.706 15.114 4.450 15.212 o
5 -11 4 24.952 28.128 5.038 10.754 o
5 -11 5 24.510 31.739 3.430 18.501 o
5 -11 6 6.249 7.720 2.510 44.264 o
5 -10 0 27.850 28.943 5.206 10.005 o
5 -10 1 3.743 2.796 1.637 101.012 o
5 -10 2 4.108 8.290 1.538 97.062 o
5 -10 3 14.835 17.930 0.947 75.182 o
5 -10 4 4.508 8.379 2.897 35.621 o
5 -10 5 305.012 313.579 14.694 0.757 o
5 -10 6 112.533 119.042 5.651 4.320 o
5 -10 7 2.292 6.849 2.475 49.541 o
5 -10 8 8.179 7.809 1.187 108.701 o
5 -9 0 8.602 9.792 1.216 99.596 o
5 -9 1 1.108 3.448 0.921 277.444 o
5 -9 2 1.078 0.465 0.822 401.742 o
5 -9 3 23.972 24.882 1.727 38.240 o
5 -9 4 50.141 58.911 3.299 12.800 o
5 -9 5 146.331 137.400 3.352 4.390 o
5 -9 6 6.298 6.039 0.929 156.839 o
5 -9 7 1.094 1.917 1.385 155.893 o
5 -9 8 0.911 -0.049 1.973 85.333 o
5 -9 9 15.512 16.349 2.137 41.759 o
5 -8 0 26.298 23.539 3.149 21.135 o
5 -8 1 26.143 25.367 2.036 32.340 o
5 -8 2 74.551 70.097 1.777 12.356 o
5 -8 3 21.060 19.179 1.116 55.885 o
5 -8 4 14.756 14.520 0.988 79.126 o
5 -8 5 107.695 103.018 2.886 6.785 o
5 -8 6 46.678 43.940 1.673 21.573 o
5 -8 7 56.658 56.585 2.156 15.591 o
5 -8 8 0.711 0.866 1.043 275.681 o
5 -8 9 5.249 6.499 1.928 69.714 o
5 -8 10 0.317 -0.661 1.626 127.623 o
5 -7 0 14.727 17.736 1.347 63.007 o
5 -7 1 7.096 7.760 0.998 133.426 o
5 -7 2 28.746 23.874 1.644 35.979 o
5 -7 3 5.947 3.892 0.610 230.946 o
5 -7 4 0.157 -1.396 0.751 585.134 o
5 -7 5 35.213 31.715 1.334 31.796 o
5 -7 6 0.247 0.300 1.113 265.211 o
5 -7 7 0.195 1.661 2.162 71.241 o
5 -7 8 34.456 35.861 3.723 14.808 o
5 -7 9 5.082 2.530 1.352 126.338 o
5 -7 10 0.004 -1.288 1.768 109.604 o
5 -6 0 0.515 0.287 0.660 653.892 o
5 -6 1 193.980 211.960 3.724 2.678 o
5 -6 2 190.699 197.781 3.168 2.911 o
5 -6 3 76.264 71.305 1.542 12.378 o
5 -6 4 70.341 71.103 2.023 12.455 o
5 -6 5 219.354 219.494 4.727 2.205 o
5 -6 6 8.805 9.981 1.272 94.485 o
5 -6 7 80.942 79.880 3.041 9.146 o
5 -6 8 15.611 13.033 1.625 56.984 o
5 -6 9 0.776 1.766 2.890 39.959 o
5 -6 10 6.430 4.533 1.814 75.819 o
5 -5 0 125.701 127.672 2.155 5.752 o
5 -5 1 15.609 18.309 0.849 75.331 o
5 -5 2 38.050 36.629 1.160 29.741 o
5 -5 3 231.254 222.494 3.613 2.207 o
5 -5 4 102.950 100.781 2.133 7.712 o
5 -5 5 176.378 173.692 3.472 3.287 o
5 -5 6 0.228 -0.803 1.049 303.146 o
5 -5 7 60.600 60.063 2.845 12.691 o
5 -5 8 51.068 56.751 3.958 10.875 o
5 -5 9 0.066 1.402 1.588 130.480 o
5 -5 10 1.574 3.675 1.803 92.147 o
5 -4 0 13.985 14.808 0.774 89.084 o
5 -4 1 0.180 0.639 0.592 820.959 o
5 -4 2 154.671 154.665 2.537 4.191 o
5 -4 3 48.174 40.734 1.213 23.581 o
5 -4 4 1269.290 1238.820 15.767 0.100 o
5 -4 5 54.172 51.078 2.103 16.849 o
5 -4 6 0.508 -0.945 0.900 390.164 o
5 -4 7 1.219 2.117 1.314 168.259 o
5 -4 8 55.400 51.444 3.142 13.095 o
5 -4 9 15.184 12.062 2.008 47.273 o
5 -3 0 5.779 2.526 0.567 262.080 o
5 -3 1 36.871 39.096 1.643 26.589 o
5 -3 2 275.206 277.035 4.089 1.611 o
5 -3 3 188.244 194.037 3.169 2.977 o
5 -3 4 127.868 127.918 5.887 3.782 o
5 -3 5 85.099 75.695 2.528 9.706 o
5 -3 6 2.633 1.287 1.157 191.795 o
5 -3 7 26.819 27.034 2.545 25.905 o
5 -3 8 69.383 54.968 3.203 11.066 o
5 -3 9 16.149 22.637 2.589 31.128 o
5 -2 0 34.365 38.416 1.996 25.325 o
5 -2 1 27.374 24.347 1.267 41.789 o
5 -2 2 14.976 16.269 1.040 74.106 o
5 -2 3 420.105 417.551 6.488 0.760 o
5 -2 4 30.100 27.794 1.513 35.019 o
5 -2 5 15.754 13.116 1.356 65.344 o
5 -2 6 10.815 11.582 1.398 77.708 o
5 -2 7 9.237 8.496 1.323 92.366 o
5 -2 8 0.490 1.895 1.357 168.420 o
5 -2 9 3.774 9.598 2.231 55.386 o
5 -1 0 1.688 1.284 0.591 514.403 o
5 -1 1 101.825 95.273 2.055 8.040 o
5 -1 2 73.833 84.325 3.512 8.798 o
5 -1 3 12.420 9.178 0.983 98.249 o
5 -1 4 1.014 -1.634 0.932 340.737 o
5 -1 5 114.076 101.072 2.996 6.428 o
5 -1 6 0.146 -0.945 1.152 254.307 o
5 -1 7 13.371 17.049 2.158 42.881 o
5 -1 8 1.035 2.194 1.377 156.722 o
5 0 0 188.090 184.819 3.191 3.049 o
5 0 1 2.698 3.240 0.968 223.797 o
5 0 2 1.494 0.260 0.716 467.783 o
5 0 3 84.531 75.201 2.196 10.241 o
5 0 4 0.040 -0.473 1.073 296.137 o
5 0 5 12.848 15.578 1.575 61.180 o
5 0 6 26.378 23.438 2.016 33.038 o
5 0 7 6.512 3.737 1.685 85.234 o
5 1 0 1.067 0.743 0.777 428.798 o
5 1 1 7.700 5.611 0.972 140.045 o
5 1 2 20.944 22.557 1.415 47.712 o
5 1 3 2.991 2.371 1.070 199.147 o
5 1 4 165.757 154.462 3.943 3.547 o
5 1 5 7.540 4.277 1.641 84.183 o
5 1 6 0.514 -0.225 2.129 74.508 o
5 2 0 0.031 -1.710 1.083 291.343 o
5 2 1 9.803 8.639 1.113 103.878 o
5 2 2 0.701 -1.330 0.861 410.444 o
5 2 3 36.646 32.547 2.057 25.131 o
5 2 4 5.494 6.480 2.218 55.689 o
5 2 5 0.023 0.257 1.430 165.934 o
5 2 6 17.523 22.017 4.477 13.964 o
5 3 0 14.821 12.771 1.749 54.605 o
5 3 1 1.829 0.680 1.178 203.789 o
5 3 2 4.314 4.441 1.314 129.803 o
5 3 3 5.770 6.281 1.745 79.565 o
5 3 4 53.633 67.280 4.372 9.241 o
5 4 0 5.903 4.023 1.305 121.617 o
5 4 1 235.842 235.297 5.302 1.924 o
5 4 2 71.998 78.795 4.539 7.492 o
5 4 3 0.196 -1.252 1.566 138.286 o
5 5 0 157.818 166.171 4.469 3.429 o
5 5 1 40.109 42.028 2.502 19.545 o
5 5 2 12.605 12.703 3.823 19.637 o
5 6 0 8.922 5.613 2.133 54.944 o
6 -11 3 0.852 1.293 0.756 442.697 o
6 -11 4 34.987 39.547 5.794 7.900 o
6 -10 0 16.526 25.481 4.618 13.202 o
6 -10 1 102.358 114.718 4.536 5.444 o
6 -10 2 1.076 2.519 1.259 179.968 o
6 -10 3 7.391 5.794 1.343 104.697 o
6 -10 4 3.362 2.693 1.050 195.607 o
6 -10 5 6.540 6.142 0.690 186.032 o
6 -10 6 85.897 90.451 2.429 9.110 o
6 -10 7 23.961 25.828 1.947 34.763 o
6 -9 0 87.040 80.849 4.198 7.129 o
6 -9 1 0.619 0.204 0.825 440.738 o
6 -9 2 21.703 22.258 1.472 45.927 o
6 -9 3 7.066 4.862 1.268 115.838 o
6 -9 4 56.560 57.363 2.074 15.784 o
6 -9 5 145.554 150.140 3.925 4.033 o
6 -9 6 13.675 11.745 1.615 61.767 o
6 -9 7 3.086 3.481 1.889 80.899 o
6 -9 8 0.577 0.746 1.402 163.667 o
6 -8 0 2.218 -0.504 1.511 132.528 o
6 -8 1 39.653 31.867 1.823 25.721 o
6 -8 2 6.164 7.304 1.018 140.810 o
6 -8 3 61.069 56.703 2.497 13.817 o
6 -8 4 22.640 21.326 1.117 51.678 o
6 -8 5 0.002 -0.122 1.224 228.710 o
6 -8 6 0.001 -0.253 1.484 155.594 o
6 -8 7 0.075 -0.584 1.683 120.578 o
6 -8 8 15.479 13.287 1.520 60.312 o
6 -7 0 7.461 8.877 1.009 125.398 o
6 -7 1 96.372 81.923 2.311 8.729 o
6 -7 2 1.822 4.550 0.856 264.340 o
6 -7 3 17.345 13.463 1.063 70.825 o
6 -7 4 2.307 2.627 0.829 289.501 o
6 -7 5 0.002 -0.565 0.861 461.869 o
6 -7 6 27.325 25.493 1.805 34.416 o
6 -7 7 51.037 44.349 2.420 17.059 o
6 -7 8 29.319 24.568 3.515 17.701 o
6 -7 9 4.605 6.277 1.954 69.820 o
6 -6 0 58.466 52.231 1.899 16.447 o
6 -6 1 1.719 -0.084 0.737 441.610 o
6 -6 2 1.869 3.279 1.442 133.814 o
6 -6 3 44.394 40.041 1.694 22.961 o
6 -6 4 56.174 53.896 2.045 16.308 o
6 -6 5 62.907 67.648 6.328 5.644 o
6 -6 6 64.217 72.455 4.927 7.443 o
6 -6 7 20.562 16.949 1.767 44.429 o
6 -6 8 2.969 2.343 2.021 73.665 o
6 -6 9 1.351 5.033 1.689 101.243 o
6 -5 0 1.307 2.651 0.714 394.513 o
6 -5 1 22.700 23.339 1.234 48.215 o
6 -5 2 74.625 72.719 2.562 10.853 o
6 -5 3 4.741 4.808 1.065 160.541 o
6 -5 4 1.652 1.640 1.117 216.327 o
6 -5 5 40.258 37.822 3.848 13.373 o
6 -5 6 3.824 3.772 1.368 128.588 o
6 -5 7 62.912 63.907 3.163 11.375 o
6 -5 8 0.003 -0.776 1.407 173.021 o
6 -5 9 17.711 8.825 1.971 47.230 o
6 -4 0 83.983 82.194 1.836 10.382 o
6 -4 1 5.784 5.070 0.782 191.927 o
6 -4 2 351.649 341.666 5.549 1.055 o
6 -4 3 193.640 192.473 4.376 2.698 o
6 -4 4 224.685 222.028 4.952 2.114 o
6 -4 5 37.245 36.278 1.989 24.635 o
6 -4 6 0.411 0.503 1.274 200.265 o
6 -4 7 21.914 23.250 2.171 33.802 o
6 -4 8 0.308 -0.753 1.518 146.077 o
6 -3 0 127.871 123.269 2.592 5.560 o
6 -3 1 507.015 478.248 7.237 0.562 o
6 -3 2 65.956 62.759 2.197 13.349 o
6 -3 3 1263.880 1280.840 35.569 0.076 o
6 -3 4 181.236 172.833 4.250 3.039 o
6 -3 5 66.491 60.983 2.581 12.505 o
6 -3 6 27.578 23.119 1.925 33.533 o
6 -3 7 4.119 3.781 1.783 85.335 o
6 -3 8 23.255 30.333 2.828 23.851 o
6 -2 0 1.457 1.306 0.898 313.241 o
6 -2 1 266.772 256.901 5.625 1.610 o
6 -2 2 1.409 3.231 1.048 226.560 o
6 -2 3 81.353 78.718 2.564 9.864 o
6 -2 4 2.236 1.547 1.152 196.992 o
6 -2 5 0.989 2.158 1.153 212.857 o
6 -2 6 0.003 0.281 1.668 122.336 o
6 -2 7 14.702 7.928 1.878 54.214 o
6 -1 0 28.076 27.882 1.299 39.040 o
6 -1 1 47.029 43.980 1.821 20.779 o
6 -1 2 70.244 67.204 2.174 12.452 o
6 -1 3 0.031 0.218 0.989 343.780 o
6 -1 4 2.705 1.556 1.226 172.984 o
6 -1 5 12.383 8.234 1.296 83.220 o
6 -1 6 15.363 17.771 1.721 51.143 o
6 -1 7 1.369 2.571 1.540 125.396 o
6 0 0 30.441 29.641 1.559 33.633 o
6 0 1 290.011 290.299 5.152 1.426 o
6 0 2 56.015 51.634 3.024 13.371 o
6 0 3 10.238 7.943 1.331 89.090 o
6 0 4 3.047 3.187 1.202 164.334 o
6 0 5 16.832 15.916 1.692 51.175 o
6 0 6 2.625 5.225 2.097 66.918 o
6 1 0 41.433 43.053 1.952 22.084 o
6 1 1 0.442 -0.774 0.879 411.864 o
6 1 2 41.960 36.015 2.049 22.541 o
6 1 3 27.863 21.851 1.783 35.616 o
6 1 4 0.571 -0.430 1.442 158.850 o
6 1 5 43.084 54.689 3.242 14.256 o
6 2 0 0.198 -1.584 0.972 352.659 o
6 2 1 1.552 1.094 1.260 182.979 o
6 2 2 2.411 3.638 2.157 65.451 o
6 2 3 2.404 4.370 1.667 100.451 o
6 2 4 0.705 -0.877 1.487 148.546 o
6 3 0 0.656 -0.361 1.353 178.591 o
6 3 1 32.157 27.419 2.409 25.037 o
6 3 2 125.263 138.789 4.564 4.390 o
6 3 3 12.045 19.428 2.366 38.464 o
6 4 0 18.798 20.505 2.663 29.322 o
6 4 1 6.792 6.503 1.752 76.163 o
6 5 0 5.888 5.510 2.011 65.096 o
7 -10 2 1.441 4.702 1.595 111.776 o
7 -10 3 0.227 1.259 1.343 178.464 o
7 -10 4 0.588 0.124 1.077 274.752 o
7 -10 5 63.459 69.151 3.154 11.055 o
7 -9 0 72.141 81.185 4.534 7.430 o
7 -9 1 43.113 42.394 3.443 14.351 o
7 -9 2 9.970 12.392 1.691 65.356 o
7 -9 3 3.622 5.417 1.419 118.297 o
7 -9 4 5.196 4.110 1.419 113.073 o
7 -9 5 13.214 17.535 1.973 47.322 o
7 -9 6 14.091 12.209 1.945 50.179 o
7 -8 0 23.478 20.420 1.781 39.719 o
7 -8 1 11.842 12.476 1.323 77.073 o
7 -8 2 1.900 1.607 0.980 257.793 o
7 -8 3 6.961 8.859 1.184 112.771 o
7 -8 4 23.469 25.419 1.712 38.669 o
7 -8 5 2.456 3.177 1.100 194.006 o
7 -8 6 1.402 0.021 1.301 181.857 o
7 -8 7 1.366 0.426 1.780 101.358 o
7 -7 0 56.379 47.745 2.697 14.686 o
7 -7 1 2.986 1.697 1.057 208.499 o
7 -7 2 81.926 82.805 4.162 7.392 o
7 -7 3 131.408 134.922 3.953 4.582 o
7 -7 4 6.095 4.688 1.199 130.284 o
7 -7 5 6.214 4.297 1.237 126.392 o
7 -7 6 0.021 1.170 1.176 234.146 o
7 -7 7 7.262 5.904 1.518 91.106 o
7 -6 0 11.570 10.360 1.380 78.168 o
7 -6 1 0.025 1.274 1.080 272.787 o
7 -6 2 82.778 79.550 3.015 9.048 o
7 -6 3 15.754 14.512 1.568 57.272 o
7 -6 4 14.479 16.646 2.152 42.199 o
7 -6 5 0.179 0.806 1.130 252.951 o
7 -6 6 3.515 4.690 1.497 112.116 o
7 -6 7 40.331 40.668 2.755 18.273 o
7 -5 0 5.918 3.891 1.093 148.976 o
7 -5 1 27.179 32.590 2.077 29.284 o
7 -5 2 36.508 36.306 2.170 23.634 o
7 -5 3 36.139 36.989 2.268 22.953 o
7 -5 4 57.693 53.973 4.649 8.817 o
7 -5 5 91.890 82.268 3.449 7.740 o
7 -5 6 7.846 7.381 1.733 73.521 o
7 -5 7 10.149 9.473 2.537 39.778 o
7 -4 0 12.460 11.360 1.306 77.688 o
7 -4 1 4.167 2.871 1.046 183.050 o
7 -4 2 4.994 0.982 1.095 174.749 o
7 -4 3 0.477 0.660 1.055 280.686 o
7 -4 4 62.775 55.648 3.441 11.148 o
7 -4 5 2.410 5.283 1.659 99.255 o
7 -4 6 4.096 6.211 1.810 79.943 o
7 -4 7 15.436 18.614 2.341 36.831 o
7 -3 0 34.970 33.664 1.934 26.564 o
7 -3 1 19.511 16.544 1.540 50.870 o
7 -3 2 0.000 0.560 1.345 185.527 o
7 -3 3 2.952 2.659 1.297 150.873 o
7 -3 4 45.695 41.056 2.434 18.611 o
7 -3 5 45.084 41.313 4.310 11.074 o
7 -3 6 8.418 9.464 2.091 54.585 o
7 -3 7 39.805 49.095 3.404 14.506 o
7 -2 0 290.596 295.234 6.333 1.336 o
7 -2 1 118.874 119.720 3.529 5.468 o
7 -2 2 0.593 0.535 1.248 204.890 o
7 -2 3 161.680 154.760 3.870 3.647 o
7 -2 4 16.281 17.602 2.306 37.243 o
7 -2 5 23.630 21.932 1.786 38.858 o
7 -2 6 0.001 0.480 1.534 143.709 o
7 -1 0 3.653 6.187 1.269 134.163 o
7 -1 1 147.732 148.235 5.975 3.237 o
7 -1 2 0.401 0.065 1.045 298.069 o
7 -1 3 26.449 25.474 2.155 30.694 o
7 -1 4 0.124 -0.654 1.681 120.571 o
7 -1 5 4.470 2.213 1.788 86.318 o
7 0 0 41.101 42.285 2.183 21.020 o
7 0 1 5.277 4.866 1.274 126.618 o
7 0 2 12.896 10.169 1.471 70.767 o
7 0 3 5.399 2.247 1.399 119.497 o
7 0 4 14.843 8.332 2.194 44.734 o
7 1 0 17.536 17.988 1.737 47.880 o
7 1 1 6.555 5.425 1.575 90.288 o
7 1 2 1.835 4.279 1.650 104.829 o
7 1 3 0.113 -0.529 1.703 117.618 o
7 2 0 12.237 14.947 2.057 47.620 o
7 2 1 0.799 1.905 1.859 92.809 o
7 2 2 2.098 0.543 1.854 91.128 o
7 3 0 15.287 13.314 2.097 44.288 o
7 3 1 0.462 0.077 3.175 33.769 o
8 -9 0 10.525 7.053 2.351 45.236 o
8 -9 1 0.466 3.347 1.931 85.245 o
8 -9 2 3.445 1.511 1.847 85.878 o
8 -9 3 1.845 2.739 2.645 46.094 o
8 -9 4 2.630 6.379 3.107 32.764 o
8 -8 0 13.249 15.350 2.771 31.596 o
8 -8 1 3.132 4.459 1.278 144.243 o
8 -8 2 0.543 1.466 1.154 227.917 o
8 -8 3 8.790 10.113 1.713 69.221 o
8 -8 4 88.749 102.909 3.516 7.242 o
8 -8 5 23.320 32.341 2.853 23.274 o
8 -7 0 1.263 1.189 1.215 198.177 o
8 -7 1 0.085 -0.680 1.134 264.288 o
8 -7 2 5.707 7.814 1.436 99.926 o
8 -7 3 35.707 44.485 2.497 20.433 o
8 -7 4 31.785 34.159 2.834 20.707 o
8 -7 5 39.284 38.719 4.196 12.107 o
8 -7 6 17.817 15.326 2.005 42.978 o
8 -6 0 2.591 1.740 1.329 152.977 o
8 -6 1 46.377 48.614 3.918 11.840 o
8 -6 2 13.892 14.919 1.769 53.793 o
8 -6 3 0.699 0.199 1.281 196.016 o
8 -6 4 0.002 -1.221 1.245 220.899 o
8 -6 5 3.438 2.958 1.606 105.124 o
8 -6 6 24.054 28.803 2.498 27.155 o
8 -5 0 23.869 22.234 2.379 30.164 o
8 -5 1 0.007 -0.221 1.262 215.100 o
8 -5 2 0.932 0.025 1.305 187.251 o
8 -5 3 4.079 3.104 1.530 109.785 o
8 -5 4 2.657 1.078 1.532 123.073 o
8 -5 5 9.774 7.018 1.718 70.211 o
8 -5 6 99.192 96.412 4.173 6.227 o
8 -4 0 16.122 16.011 1.680 52.403 o
8 -4 1 59.988 60.650 3.851 10.185 o
8 -4 2 0.000 -1.136 1.279 209.585 o
8 -4 3 3.008 0.594 1.435 136.506 o
8 -4 4 296.140 293.124 7.722 1.224 o
8 -4 5 245.213 244.957 7.086 1.628 o
8 -3 0 45.540 43.998 2.344 18.718 o
8 -3 1 12.646 13.118 1.650 61.164 o
8 -3 2 0.065 -1.639 1.202 235.671 o
8 -3 3 36.854 37.326 3.175 17.077 o
8 -3 4 17.845 13.760 2.986 26.903 o
8 -3 5 0.002 -1.077 1.534 145.662 o
8 -2 0 1.223 0.183 1.175 220.047 o
8 -2 1 10.423 10.477 1.671 67.225 o
8 -2 2 0.272 -0.183 1.281 204.277 o
8 -2 3 10.570 10.376 2.266 45.965 o
8 -2 4 0.039 1.304 1.718 112.522 o
8 -1 0 0.053 -2.397 1.173 247.657 o
8 -1 1 28.896 28.752 2.430 25.858 o
8 -1 2 9.023 8.493 1.880 62.776 o
8 -1 3 10.286 12.309 2.482 39.899 o
8 0 0 5.311 4.617 1.446 108.367 o
8 0 1 98.879 88.773 3.657 6.929 o
8 0 2 5.103 4.999 1.876 74.689 o
8 1 0 7.631 4.972 2.157 56.218 o
8 1 1 9.397 7.353 1.723 70.466 o
8 2 0 7.017 4.591 1.957 66.544 o
9 -8 0 0.307 1.635 2.183 69.692 o
9 -8 1 0.092 -2.564 2.127 75.576 o
9 -8 2 0.200 -0.543 1.330 190.795 o
9 -7 0 3.893 3.446 1.561 106.580 o
9 -7 1 24.253 31.578 2.709 24.419 o
9 -7 2 24.466 26.830 2.424 28.233 o
9 -7 3 53.396 56.065 3.105 13.172 o
9 -6 0 0.584 -2.055 1.495 148.184 o
9 -6 1 7.745 10.372 1.751 69.385 o
9 -6 2 50.968 57.586 3.204 13.081 o
9 -6 3 8.375 6.264 1.715 74.596 o
9 -5 0 11.694 9.035 1.868 58.273 o
9 -5 1 7.305 8.080 1.825 69.080 o
9 -5 2 13.949 13.236 4.223 16.368 o
9 -5 3 3.056 1.244 3.764 23.359 o
9 -4 0 62.620 53.256 3.206 11.899 o
9 -4 1 8.945 4.221 1.752 73.635 o
9 -4 2 11.030 8.849 1.955 56.231 o
9 -4 3 1.328 -3.777 1.683 113.723 o
9 -3 0 8.791 10.131 1.977 57.837 o
9 -3 1 1.019 1.211 2.482 53.705 o
9 -3 2 2.669 3.716 1.939 78.170 o
9 -3 3 40.203 50.960 4.038 11.956 o
9 -2 0 4.583 -0.206 1.558 111.944 o
9 -2 1 4.214 5.440 1.637 93.922 o
9 -2 2 25.410 23.066 2.504 27.748 o
9 -1 0 9.074 9.585 1.822 64.181 o
9 -1 1 19.223 17.273 2.983 25.817 o
9 0 0 0.208 -0.834 2.104 76.956 o
;
_olex2_submission_special_instructions 'No special instructions were received'
loop_
_space_group_symop_id
_space_group_symop_operation_xyz
1 x,y,z
2 -x,-y,-z
loop_
_atom_site_label
_atom_site_type_symbol
_atom_site_fract_x
_atom_site_fract_y
_atom_site_fract_z
_atom_site_U_iso_or_equiv
_atom_site_adp_type
_atom_site_occupancy
_atom_site_refinement_flags_posn
O001 O 0.45227(14) 0.39538(12) 0.09598(10) 0.0218(2) Uani 1.000000 .
O002 O 0.61888(15) 0.56857(12) 0.36029(10) 0.0248(2) Uani 1.000000 .
N003 N 0.75642(16) 0.66116(14) 0.18616(12) 0.0197(3) Uani 1.000000 .
C004 C 0.6462(2) 0.73409(18) 0.44284(15) 0.0218(3) Uani 1.000000 .
C005 C 0.7544(2) 0.37683(17) 0.19861(15) 0.0216(3) Uani 1.000000 .
C006 C 0.7328(2) 0.86635(18) 0.40486(16) 0.0230(3) Uani 1.000000 .
C007 C 0.7894(2) 0.82044(18) 0.27499(16) 0.0234(3) Uani 1.000000 .
H007 H 0.8543(2) 0.91147(18) 0.25317(16) 0.0280(4) Uiso 1.000000 R
C008 C 0.8276(2) 0.62933(19) 0.05824(16) 0.0236(3) Uani 1.000000 .
H00a H 0.9043(2) 0.74369(19) 0.06448(16) 0.0284(4) Uiso 1.000000 R
H00b H 0.9120(2) 0.56902(19) 0.06332(16) 0.0284(4) Uiso 1.000000 R
C009 C 0.6971(2) 0.21049(18) 0.08212(16) 0.0253(3) Uani 1.000000 .
H009 H 0.5806(2) 0.16139(18) 0.00524(16) 0.0303(4) Uiso 1.000000 R
C00A C 0.3302(2) 0.48073(18) 0.08910(15) 0.0221(3) Uani 1.000000 .
H00c H 0.2754(2) 0.49576(18) 0.17095(15) 0.0265(4) Uiso 1.000000 R
H00d H 0.4029(2) 0.59848(18) 0.09966(15) 0.0265(4) Uiso 1.000000 R
C00B C 0.9278(2) 0.44311(19) 0.30832(16) 0.0264(3) Uani 1.000000 .
H00e H 0.9711(2) 0.55624(19) 0.39015(16) 0.0316(4) Uiso 1.000000 R
C00C C 0.9780(2) 0.1840(2) 0.18385(18) 0.0287(4) Uani 1.000000 .
H00f H 1.0538(2) 0.1197(2) 0.17785(18) 0.0344(4) Uiso 1.000000 R
C00D C 0.7701(2) 1.04216(19) 0.49760(18) 0.0314(4) Uani 1.000000 .
H00g H 0.8288(2) 1.13119(19) 0.47175(18) 0.0377(4) Uiso 1.000000 R
C00E C 1.0388(2) 0.3488(2) 0.30154(18) 0.0299(4) Uani 1.000000 .
H00h H 1.1560(2) 0.3978(2) 0.37765(18) 0.0358(4) Uiso 1.000000 R
C00F C 0.5954(2) 0.7791(2) 0.57185(16) 0.0288(4) Uani 1.000000 .
H00i H 0.5349(2) 0.6912(2) 0.59833(16) 0.0346(4) Uiso 1.000000 R
C00G C 0.8054(2) 0.1129(2) 0.07429(17) 0.0299(4) Uani 1.000000 .
H00j H 0.7610(2) -0.0018(2) -0.00574(17) 0.0358(4) Uiso 1.000000 R
C00H C 0.7220(2) 1.0854(2) 0.62527(18) 0.0350(4) Uani 1.000000 .
H00k H 0.7485(2) 1.2042(2) 0.68838(18) 0.0421(5) Uiso 1.000000 R
C00I C 0.6345(2) 0.9542(2) 0.66118(17) 0.0347(4) Uani 1.000000 .
H00l H 0.6004(2) 0.9846(2) 0.74904(17) 0.0417(5) Uiso 1.000000 R
B00J B 0.6358(2) 0.4946(2) 0.20854(17) 0.0206(3) Uani 1.000000 .
loop_
_atom_site_aniso_label
_atom_site_aniso_U_11
_atom_site_aniso_U_22
_atom_site_aniso_U_33
_atom_site_aniso_U_12
_atom_site_aniso_U_13
_atom_site_aniso_U_23
O001 0.0246(5) 0.0205(5) 0.0225(5) 0.0117(4) 0.0079(4) 0.0100(4)
O002 0.0379(6) 0.0212(5) 0.0191(5) 0.0155(5) 0.0120(4) 0.0095(4)
N003 0.0207(6) 0.0197(6) 0.0194(6) 0.0090(5) 0.0056(5) 0.0095(5)
C004 0.0239(7) 0.0231(7) 0.0169(7) 0.0148(6) 0.0017(6) 0.0057(6)
C005 0.0261(7) 0.0205(7) 0.0212(7) 0.0100(6) 0.0098(6) 0.0116(6)
C006 0.0190(7) 0.0208(7) 0.0234(7) 0.0098(6) 0.0017(6) 0.0054(6)
C007 0.0182(7) 0.0194(7) 0.0304(8) 0.0065(6) 0.0045(6) 0.0120(6)
C008 0.0228(7) 0.0263(7) 0.0277(8) 0.0114(6) 0.0128(6) 0.0154(6)
C009 0.0283(8) 0.0240(7) 0.0214(7) 0.0131(6) 0.0053(6) 0.0078(6)
C00A 0.0267(8) 0.0233(7) 0.0225(7) 0.0136(6) 0.0129(6) 0.0121(6)
C00B 0.0315(8) 0.0221(7) 0.0231(7) 0.0104(6) 0.0054(6) 0.0101(6)
C00C 0.0339(9) 0.0322(8) 0.0388(9) 0.0218(7) 0.0195(7) 0.0250(7)
C00D 0.0243(8) 0.0201(7) 0.0364(9) 0.0088(6) 0.0017(7) 0.0038(7)
C00E 0.0256(8) 0.0353(9) 0.0306(8) 0.0120(7) 0.0059(7) 0.0189(7)
C00F 0.0340(9) 0.0366(9) 0.0210(8) 0.0222(7) 0.0072(6) 0.0129(7)
C00G 0.0389(9) 0.0242(8) 0.0288(8) 0.0172(7) 0.0135(7) 0.0102(6)
C00H 0.0300(8) 0.0265(8) 0.0297(9) 0.0166(7) -0.0020(7) -0.0045(7)
C00I 0.0392(9) 0.0470(10) 0.0185(8) 0.0313(8) 0.0051(7) 0.0064(7)
B00J 0.0261(8) 0.0194(7) 0.0186(8) 0.0098(6) 0.0095(7) 0.0097(6)
loop_
_atom_type_symbol
_atom_type_scat_dispersion_real
_atom_type_scat_dispersion_imag
_atom_type_scat_Cromer_Mann_a1
_atom_type_scat_Cromer_Mann_a2
_atom_type_scat_Cromer_Mann_a3
_atom_type_scat_Cromer_Mann_a4
_atom_type_scat_Cromer_Mann_b1
_atom_type_scat_Cromer_Mann_b2
_atom_type_scat_Cromer_Mann_b3
_atom_type_scat_Cromer_Mann_b4
_atom_type_scat_Cromer_Mann_c
_atom_type_scat_source
_atom_type_scat_dispersion_source
H 0.00000 0.00000 0.49300 0.32291 0.14019 0.04081 10.51090 26.12570 3.14236
57.79970 0.0030380000826
'International Tables Volume C Table 6.1.1.4 (pp. 500-502)'
'Henke, Gullikson and Davis, At. Data and Nucl. Data Tables, 1993, 54, 2'
C 0.00347 0.00161 2.31000 1.02000 1.58860 0.86500 20.84390 10.20750 0.56870
51.65120 0.215599998832
'International Tables Volume C Table 6.1.1.4 (pp. 500-502)'
'Henke, Gullikson and Davis, At. Data and Nucl. Data Tables, 1993, 54, 2'
B 0.00141 0.00067 2.05450 1.33260 1.09790 0.70680 23.21850 1.02100 60.34980
0.14030 -0.193200007081
'International Tables Volume C Table 6.1.1.4 (pp. 500-502)'
'Henke, Gullikson and Davis, At. Data and Nucl. Data Tables, 1993, 54, 2'
O 0.01158 0.00611 3.04850 2.28680 1.54630 0.86700 13.27710 5.70110 0.32390
32.90890 0.250800013542
'International Tables Volume C Table 6.1.1.4 (pp. 500-502)'
'Henke, Gullikson and Davis, At. Data and Nucl. Data Tables, 1993, 54, 2'
N 0.00653 0.00323 12.21260 3.13220 2.01250 1.16630 0.00570 9.89330 28.99750
0.58260 -11.5290002823
'International Tables Volume C Table 6.1.1.4 (pp. 500-502)'
'Henke, Gullikson and Davis, At. Data and Nucl. Data Tables, 1993, 54, 2'
loop_
_diffrn_refln_index_h
_diffrn_refln_index_k
_diffrn_refln_index_l
_diffrn_refln_intensity_net
_diffrn_refln_intensity_u
-2 0 0 2063.19 67.89
-2 0 0 2119.19 67.29
-2 0 0 2022.3 67.49
-2 0 0 2038.2 67.49
-2 0 0 2050.29 67.39
-2 0 0 2042.7 67.69
2 0 0 2043.4 67.49
2 0 0 2064.29 67.29
2 0 0 2086.69 67.79
2 0 0 2104.19 67.89
2 0 0 2305.07 67.49
2 0 0 2016.6 67.49
-3 0 0 610.74 21.9
-3 0 0 693.23 22.3
-3 0 0 662.83 21.9
-3 0 0 720.03 22.3
-3 0 0 630.14 22.8
-3 0 0 610.84 22.4
3 0 0 626.64 21.9
3 0 0 619.74 22.3
3 0 0 620.74 22.7
3 0 0 682.03 21.9
3 0 0 616.84 22.2
3 0 0 595.94 22.4
-4 0 0 111.19 5.5
-4 0 0 101.19 5.5
-4 0 0 101.29 6.2
-4 0 0 102.29 5.1
4 0 0 102.59 5
4 0 0 102.09 5.6
4 0 0 99.49 5.7
4 0 0 101.69 6.1
-5 0 0 221.38 9.5
-5 0 0 220.18 9.7
-5 0 0 244.68 10.1
-5 0 0 219.78 11.1
5 0 0 188.88 10
5 0 0 220.18 10.2
5 0 0 218.88 10
-6 0 0 36.3 4
-6 0 0 34.6 4.2
-6 0 0 34.1 5.1
6 0 0 30.3 5
6 0 0 37.6 4.6
6 0 0 36.9 4.7
-7 0 0 51.69 5.4
-7 0 0 47.6 5
-7 0 0 40.3 6.8
7 0 0 52.99 6.2
7 0 0 55.89 6.2
-8 0 0 5.6 3.6
-8 0 0 6 4.5
-8 0 0 1.7 3.5
8 0 0 8.4 4.6
8 0 0 6.6 3.5
-9 0 0 -4.5 6.2
-9 0 0 -0.6 3.5
9 0 0 1 4.4
9 -1 0 16 5.1
-9 1 0 9.1 4.2
-9 1 0 10.6 3.5
-9 1 0 10.6 5.3
8 -1 0 -5 3.1
-8 1 0 -1.7 3.6
-8 1 0 -0.9 3.1
-8 1 0 -3.4 2.1
7 -1 0 4.1 3.1
7 -1 0 8 3.3
-7 1 0 6.9 3.1
-7 1 0 11.3 5
-7 1 0 8.1 3.2
6 -1 0 34.1 3.9
6 -1 0 32.8 4
6 -1 0 36.4 4.9
-6 1 0 30.7 3.7
-6 1 0 27.8 5.1
-6 1 0 31.7 3.6
-6 1 0 37.3 4.1
5 -1 0 0.9 2.1
5 -1 0 2.4 2.6
5 -1 0 1.9 1.7
-5 1 0 0.8 1.4
-5 1 0 1.8 2.1
-5 1 0 1.6 1.5
-5 1 0 1.8 2.9
4 -1 0 -2.6 1.7
4 -1 0 1.7 2.2
4 -1 0 -1.9 1.7
-4 1 0 -2.6 1.7
-4 1 0 -2.3 1.5
-4 1 0 3.8 1.4
-4 1 0 -0.5 1.6
-4 1 0 -0.6 2.3
3 -1 0 161.08 6.8
3 -1 0 154.28 6.4
3 -1 0 167.08 7.3
3 -1 0 162.68 6.5
3 -1 0 160.58 7.1
-3 1 0 161.28 6.5
-3 1 0 154.88 6.7
-3 1 0 174.88 6.8
-3 1 0 160.28 6.5
-3 1 0 171.28 7.6
-3 1 0 184.58 7.3
2 -1 0 2296.47 75.29
2 -1 0 2309.87 75.59
2 -1 0 2365.36 75.09
2 -1 0 2344.07 75.19
-2 1 0 2395.36 75.69
-2 1 0 2357.46 75.29
-2 1 0 2326.87 75.59
-2 1 0 2252.07 75.09
-2 1 0 2400.36 75.19
-2 1 0 2255.97 75.29
1 -1 0 1436.56 48.2
1 -1 0 1466.15 48.2
1 -1 0 1572.74 48.5
1 -1 0 1544.65 48.2
-1 1 0 1519.45 48.2
-1 1 0 1457.45 48.3
-1 -1 0 217.88 8
-1 -1 0 220.48 8.3
-1 -1 0 222.58 8
-1 -1 0 219.78 8
-1 -1 0 234.58 8.3
-1 -1 0 224.58 7.9
1 1 0 218.18 7.9
1 1 0 225.58 8
1 1 0 220.28 8.1
1 1 0 232.88 8.4
1 1 0 219.68 7.9
1 1 0 237.88 8.5
-2 -1 0 99.69 4.8
-2 -1 0 102.99 4.8
-2 -1 0 131.59 5.6
-2 -1 0 100.69 4.6
-2 -1 0 102.29 4.7
-2 -1 0 101.89 5.6
2 1 0 131.19 5.4
2 1 0 118.59 5
2 1 0 97.19 5
2 1 0 122.39 5
2 1 0 106.69 5.5
2 1 0 102.29 5.2
-3 -1 0 434.46 15.8
-3 -1 0 427.66 15.6
-3 -1 0 447.76 16.7
-3 -1 0 472.55 15.9
3 1 0 414.86 16
3 1 0 456.85 16.1
3 1 0 412.66 15.5
3 1 0 409.86 16.1
-4 -1 0 504.25 18.4
-4 -1 0 498.95 18.8
-4 -1 0 518.75 19.8
-4 -1 0 509.95 18.7
4 1 0 512.05 19.1
4 1 0 542.25 19.2
4 1 0 505.15 19.4
4 1 0 505.15 18.5
-5 -1 0 0.9 1.6
-5 -1 0 -1.2 2.5
-5 -1 0 0.5 2.3
5 1 0 1.7 2.6
5 1 0 0.5 2.5
5 1 0 3.3 2.9
-6 -1 0 46.1 6.5
-6 -1 0 49.9 5
-6 -1 0 56.19 5.4
6 1 0 46.8 5.6
6 1 0 54.39 6.4
6 1 0 52.19 5.7
-7 -1 0 21.9 3.8
-7 -1 0 15.4 4.1
-7 -1 0 17.8 6
7 1 0 21.6 4.7
7 1 0 28.5 5.6
-8 -1 0 0.3 4.3
-8 -1 0 9.3 4
8 1 0 3.2 3.5
8 1 0 12 4.9
9 -2 0 0.1 3.7
-9 2 0 0.2 3.2
-9 2 0 -3.7 5.5
-9 2 0 1.1 3.4
8 -2 0 -0.1 3.3
-8 2 0 -3.1 2
-8 2 0 4.4 2.8
-8 2 0 1.5 4.9
7 -2 0 362.56 15.1
-7 2 0 328.87 14.3
-7 2 0 359.56 16.8
-7 2 0 356.96 14.5
6 -2 0 0.7 2.2
-6 2 0 5 2.3
-6 2 0 0.6 2.4
-6 2 0 -1.8 3.2
-6 2 0 2.3 2.2
5 -2 0 42.6 3.9
-5 2 0 44.5 3.6
-5 2 0 38.7 3.7
-5 2 0 59.69 5.3
-5 2 0 43.5 3.5
-5 2 0 49.99 4.3
4 -2 0 5 1.8
4 -2 0 4.2 1.8
-4 2 0 5.6 1.7
-4 2 0 3.9 2.3
-4 2 0 3.6 1.8
-4 2 0 3.8 1.6
-4 2 0 3.8 1.6
3 -2 0 13.5 1.9
3 -2 0 16.6 2.3
3 -2 0 15.1 1.6
3 -2 0 16.9 2
3 -2 0 17.4 1.8
-3 2 0 15.9 1.7
-3 2 0 13.9 1.7
-3 2 0 14.8 1.9
-3 2 0 14.1 2
-3 2 0 14.8 2
-3 2 0 19.2 2.3
2 -2 0 11.9 1.4
2 -2 0 9.1 1.3
2 -2 0 10 1.5
2 -2 0 11.9 1.2
2 -2 0 14.4 1.2
-2 2 0 10.5 1.2
-2 2 0 11.8 1.4
-2 2 0 10.5 1.3
-2 2 0 13.2 1.4
-2 2 0 7.9 1.5
1 -2 0 1960.2 62.29
1 -2 0 1955.7 62.29
1 -2 0 1960.8 62.39
-1 2 0 1952.4 62.29
-1 2 0 1943.11 62.39
-1 2 0 1872.71 62.39
0 -2 0 160.18 5.9
0 -2 0 162.58 6.6
0 -2 0 160.28 5.8
0 -2 0 160.38 5.9
0 -2 0 160.58 5.8
0 2 0 160.28 5.9
0 2 0 172.18 5.9
0 2 0 156.88 6.5
0 2 0 161.48 5.9
0 2 0 163.28 6
0 2 0 165.48 6
-1 -2 0 278.77 10.8
-1 -2 0 320.07 10.3
-1 -2 0 286.27 10.2
-1 -2 0 270.57 10.2
-1 -2 0 285.17 10.6
1 2 0 295.57 10.6
1 2 0 273.97 10.2
1 2 0 280.07 10.9
1 2 0 269.47 10.2
1 2 0 283.07 10.2
1 2 0 273.37 10.3
-2 -2 0 24.9 2.6
-2 -2 0 29.6 3.3
-2 -2 0 32.4 2.8
-2 -2 0 33.7 2.8
2 2 0 32.1 2.8
2 2 0 31.5 3.1
2 2 0 31.7 2.9
2 2 0 34.1 3.2
2 2 0 34.2 3.1
2 2 0 38.4 3
-3 -2 0 62.59 4.2
-3 -2 0 66.09 4.9
-3 -2 0 65.89 3.8
3 2 0 69.69 4.3
3 2 0 56.69 4.6
3 2 0 56.49 4.4
3 2 0 56.49 4.4
-4 -2 0 192.58 10.2
-4 -2 0 189.28 8.7
-4 -2 0 179.38 8.2
4 2 0 190.18 9.6
4 2 0 189.98 9.1
4 2 0 180.28 9.2
4 2 0 195.08 8.7
-5 -2 0 2 1.9
-5 -2 0 2.2 2.9
-5 -2 0 -3 2.2
5 2 0 -1.9 2.7
5 2 0 -3.5 2.9
5 2 0 -8.5 2.4
-6 -2 0 -1.7 2.7
-6 -2 0 -5.5 4.1
-6 -2 0 -2 2.7
6 2 0 -1.2 2.5
6 2 0 -2.7 3.1
6 2 0 0.3 2.6
-7 -2 0 16.8 5
-7 -2 0 18.9 4.5
7 2 0 17.1 5.3
7 2 0 17.9 4.9
-8 -2 0 7.8 5
-8 -2 0 0.8 4
8 2 0 7.4 4.9
8 2 0 7 5
-9 3 0 11.6 3.7
-9 3 0 14.4 3.9
-9 3 0 9.1 4.9
8 -3 0 54.59 5.7
-8 3 0 49.3 5.1
-8 3 0 44.5 6.2
-8 3 0 58.29 5.5
7 -3 0 38.3 4.6
-7 3 0 40.1 4.2
-7 3 0 39.4 4.2
-7 3 0 44 6
6 -3 0 144.29 7.4
6 -3 0 155.28 7.6
-6 3 0 143.19 7.6
-6 3 0 142.29 8.8
-6 3 0 153.08 7.2
-6 3 0 140.59 7.1
5 -3 0 5.9 1.9
5 -3 0 3.7 1.9
-5 3 0 1.4 1.6
-5 3 0 4.8 2
-5 3 0 2.5 1.7
-5 3 0 0.9 1.8
-5 3 0 2.4 1.7
4 -3 0 65.59 4
4 -3 0 69.19 3.9
-4 3 0 68.39 4.1
-4 3 0 64.69 3.8
-4 3 0 77.09 4.8
-4 3 0 68.39 3.7
-4 3 0 64.99 3.8
3 -3 0 2 1.2
3 -3 0 3.6 1.1
3 -3 0 4.4 1.3
3 -3 0 3.9 1.5
-3 3 0 2.9 1.2
-3 3 0 2.5 1.5
-3 3 0 1.4 1
-3 3 0 4.3 1.2
-3 3 0 2.8 1.5
2 -3 0 262.07 8.7
2 -3 0 264.37 8.9
2 -3 0 256.07 8.9
-2 3 0 255.27 8.9
-2 3 0 256.97 9.1
-2 3 0 255.57 9.4
-2 3 0 258.17 9.2
-2 3 0 257.87 8.9
1 -3 0 10.4 1.1
1 -3 0 9.7 1
-1 3 0 13.8 1.3
-1 3 0 11.9 1.2
-1 3 0 11.4 2.3
-1 3 0 13.4 1.4
-1 3 0 11.3 1.3
0 -3 0 112.69 4.2
0 -3 0 95.19 4.2
0 -3 0 108.39 5.1
0 -3 0 98.49 4.3
0 -3 0 98.39 4.3
0 3 0 101.79 4.4
0 3 0 104.99 4.4
0 3 0 95.69 4.4
0 3 0 108.19 5.4
0 3 0 100.49 4.4
0 3 0 98.59 4.6
-1 -3 0 15 2.4
-1 -3 0 13.9 1.9
-1 -3 0 10.6 1.7
1 3 0 16.8 2.1
1 3 0 14.5 2.2
1 3 0 13.7 1.9
1 3 0 11.4 2
1 3 0 15.2 2.6
1 3 0 11.8 1.9
-2 -3 0 118.59 5.9
-2 -3 0 124.49 6.6
-2 -3 0 113.99 5.4
2 3 0 127.89 6.3
2 3 0 122.09 5.9
2 3 0 119.89 5.9
2 3 0 115.39 6
2 3 0 133.29 7.1
-3 -3 0 411.36 16.5
-3 -3 0 398.16 15.3
-3 -3 0 408.76 15.2
3 3 0 391.06 15.5
3 3 0 413.96 15.3
3 3 0 403.46 16.5
3 3 0 411.16 15.7
-4 -3 0 49.6 4.5
-4 -3 0 46 5.8
-4 -3 0 52.89 4.9
4 3 0 47.3 5.4
4 3 0 53.69 4.8
4 3 0 47.1 5.1
4 3 0 53.29 5.2
-5 -3 0 25.7 5.3
-5 -3 0 12.8 3.5
5 3 0 12.4 4.3
5 3 0 10.7 3.3
5 3 0 14.6 3.6
-6 -3 0 -2.5 3.1
-6 -3 0 -2.1 4.4
6 3 0 2.9 3.9
6 3 0 3.2 3.6
6 3 0 -3.2 3.4
-7 -3 0 15.3 4.4
-7 -3 0 19.4 6.5
7 3 0 8.9 4.8
7 3 0 19.7 4.9
-9 4 0 65.49 6.2
-9 4 0 60.09 5.9
-9 4 0 65.89 8.5
8 -4 0 22 4.3
-8 4 0 20.9 3.6
-8 4 0 16.4 3.5
-8 4 0 14.1 5.2
7 -4 0 13 3
-7 4 0 15.1 4.3
-7 4 0 9.4 2.7
-7 4 0 16.2 3
6 -4 0 99.89 5.8
6 -4 0 92.29 5.5
-6 4 0 93.19 5.3
-6 4 0 100.79 5.8
-6 4 0 99.19 5.5
-6 4 0 96.29 6.9
-6 4 0 103.99 6.1
5 -4 0 21.6 2.5
5 -4 0 16.5 2.4
-5 4 0 18.9 2.7
-5 4 0 16.5 2.2
-5 4 0 19.5 3.1
-5 4 0 13.2 2.3
-5 4 0 16.9 2.2
4 -4 0 50.59 3.1
4 -4 0 46.5 3
4 -4 0 42.5 3.5
-4 4 0 40 3.1
-4 4 0 45.2 2.9
-4 4 0 43.6 3.3
-4 4 0 52.49 2.9
-4 4 0 53.09 4.1
3 -4 0 1271.57 41.3
3 -4 0 1294.77 41.2
-3 4 0 1273.87 41.4
-3 4 0 1238.38 41.5
-3 4 0 1250.47 41.3
-3 4 0 1259.17 41.7
-3 4 0 1278.97 42.1
2 -4 0 309.17 10.3
2 -4 0 308.77 10.5
-2 4 0 304.87 10.9
-2 4 0 301.67 10.6
-2 4 0 311.57 10.7
-2 4 0 300.17 10.6
-2 4 0 298.37 10.8
1 -4 0 503.15 17.4
1 -4 0 526.85 17.4
1 -4 0 500.45 17.1
-1 4 0 512.15 17.5
-1 4 0 545.05 19
-1 4 0 506.45 17.4
-1 4 0 510.85 17.4
-1 4 0 508.85 17.5
0 -4 0 316.97 11.5
0 -4 0 297.07 11.2
0 4 0 314.07 11.6
0 4 0 354.06 11.8
0 4 0 326.17 11.8
0 4 0 306.87 11.6
0 4 0 327.77 11.7
0 4 0 313.07 12.9
-1 -4 0 18.1 2.3
-1 -4 0 20.8 2.7
-1 -4 0 18 2.1
1 4 0 18 2.7
1 4 0 18.2 3.5
1 4 0 15.2 2.3
1 4 0 20.1 2.4
1 4 0 13.6 2.4
1 4 0 19.5 2.5
-2 -4 0 9 2.8
-2 -4 0 5.7 2.1
2 4 0 8 3.3
2 4 0 6.4 2
2 4 0 7.5 2.2
2 4 0 8.5 1.9
-3 -4 0 110.79 7.2
-3 -4 0 127.69 6.8
-3 -4 0 127.09 6.4
3 4 0 124.99 6.8
3 4 0 116.89 7.5
3 4 0 115.79 6.9
3 4 0 116.69 7.2
-4 -4 0 633.14 24
-4 -4 0 663.43 25.6
4 4 0 649.64 25.6
4 4 0 630.64 24.7
4 4 0 649.54 24.6
-5 -4 0 -1.1 4.3
-5 -4 0 8 3.3
5 4 0 6.5 3.4
5 4 0 4.7 2.9
5 4 0 4.5 4
-6 -4 0 13 4.9
-6 -4 0 28.1 4.6
6 4 0 32.4 5.4
6 4 0 23.3 5.1
6 4 0 16.9 4.7
-9 5 0 11.6 3.4
-9 5 0 6.1 5.1
-9 5 0 12.7 3.6
-8 5 0 17.8 5
-8 5 0 28.1 3.9
-8 5 0 28.2 3.9
7 -5 0 1 2.5
-7 5 0 5.6 2.3
-7 5 0 4.8 3.5
-7 5 0 7.1 2.5
6 -5 0 3.1 1.9
6 -5 0 4.5 2.1
-6 5 0 4.2 2
-6 5 0 1.5 2.4
-6 5 0 2.1 2.6
-6 5 0 3.1 1.8
5 -5 0 157.38 6.5
5 -5 0 145.29 6.6
-5 5 0 151.78 6.6
-5 5 0 152.98 7.7
-5 5 0 149.49 7.2
-5 5 0 163.98 6.8
-5 5 0 142.39 6.4
-4 5 0 7.5 1.5
-4 5 0 9.9 1.6
-4 5 0 6.9 1.5
-4 5 0 4.3 1.9
-4 5 0 7.5 1.8
-3 5 0 229.88 8.5
-3 5 0 230.68 9
-3 5 0 228.58 8.6
-3 5 0 231.28 8.9
2 -5 0 122.89 4.6
-2 5 0 125.79 5.4
-2 5 0 136.99 7.2
-2 5 0 126.69 5.3
-2 5 0 113.79 5
-2 5 0 119.29 5.1
1 -5 0 96.99 4.4
1 -5 0 93.99 4
-1 5 0 97.49 4.6
-1 5 0 99.69 4.6
-1 5 0 87.69 4.6
-1 5 0 97.49 4.7
-1 5 0 98.39 6.3
-1 5 0 96.39 4.6
0 -5 0 160.48 6.7
0 -5 0 170.28 7.1
0 5 0 162.58 7.2
0 5 0 177.08 7.3
0 5 0 158.78 8.3
0 5 0 176.18 7.2
0 5 0 167.38 7.2
0 5 0 168.78 7.4
-1 -5 0 12.4 2
-1 -5 0 10 2.2
1 5 0 10.9 3
1 5 0 11.4 2.4
1 5 0 17.4 2.5
1 5 0 11.6 2.4
1 5 0 11 2.4
-2 -5 0 525.65 18.5
-2 -5 0 470.25 17.9
-2 -5 0 515.65 19.3
2 5 0 486.35 19.8
2 5 0 483.75 18.8
2 5 0 490.45 18.5
2 5 0 471.95 18.6
-3 -5 0 219.88 11.2
-3 -5 0 201.48 9.6
3 5 0 203.78 10.3
3 5 0 200.08 11
3 5 0 200.78 10.4
-4 -5 0 2.7 2.9
-4 -5 0 10.5 4.4
4 5 0 10.2 3.6
4 5 0 14.9 4.1
4 5 0 19.2 4.5
-5 -5 0 187.18 12.7
-5 -5 0 194.58 10.8
5 5 0 200.28 12
5 5 0 197.88 12.5
5 5 0 207.78 11.8
-6 -5 0 2.4 5.4
-6 -5 0 6.8 4.2
6 5 0 8.9 4.8
6 5 0 7.7 5
-9 6 0 -2.5 2.6
-9 6 0 -6.8 3.8
-9 6 0 0.7 2.7
-8 6 0 4.3 3.7
-8 6 0 -0.7 2.3
-8 6 0 3.7 2.7
-7 6 0 12.9 3.7
-7 6 0 12.3 2.7
-7 6 0 12.1 2.5
-6 6 0 61.39 4.1
-6 6 0 63.89 4.3
-6 6 0 67.09 4.8
-6 6 0 53.99 5.1
-5 6 0 1.7 1.6
-5 6 0 0.7 1.4
-5 6 0 -1.9 2
-5 6 0 2.6 1.9
-5 6 0 -1.3 1.4
-4 6 0 13.8 1.9
-4 6 0 13.7 2.2
-4 6 0 9.6 1.7
-4 6 0 11 2.1
-3 6 0 306.67 11.4
-3 6 0 313.87 11.8
-3 6 0 324.07 11.8
-3 6 0 324.07 11.4
-3 6 0 317.57 11.5
-2 6 0 6.9 1.8
-2 6 0 7.2 1.6
-2 6 0 6.7 1.6
-2 6 0 6.6 2.5
-2 6 0 7.8 1.6
1 -6 0 35.8 2.8
1 -6 0 36.9 2.5
-1 6 0 29.9 4.1
-1 6 0 41.6 3.2
-1 6 0 36.4 3.2
-1 6 0 35.5 3.1
-1 6 0 31.3 3
-1 6 0 43 3.2
0 -6 0 1.1 1.6
0 -6 0 1.3 1.4
0 6 0 -1.2 1.7
0 6 0 1.8 1.8
0 6 0 1.2 3.3
0 6 0 -0.6 3.1
0 6 0 -0.7 1.6
0 6 0 -0.3 1.7
-1 -6 0 136.89 7.1
1 6 0 140.79 7.6
1 6 0 148.49 9.4
1 6 0 149.79 7.5
1 6 0 152.08 8.6
-2 -6 0 127.69 6.9
2 6 0 113.09 7.2
2 6 0 113.89 8.2
2 6 0 119.99 7.4
-3 -6 0 72.49 5.8
3 6 0 72.69 6.6
3 6 0 67.99 7.6
3 6 0 73.79 6.8
-4 -6 0 143.19 10.2
4 6 0 149.39 11
4 6 0 132.59 9.6
4 6 0 132.79 9.3
-5 -6 0 1.1 4.7
5 6 0 10.1 4.6
5 6 0 2.9 4.8
5 6 0 11.5 3.9
-9 7 0 6 2.9
-9 7 0 3.2 2.9
-9 7 0 2.6 4.4
-8 7 0 3.2 3.5
-8 7 0 0.5 2.2
-8 7 0 1.2 2.3
-7 7 0 63.09 6
-7 7 0 58.69 4.5
-7 7 0 51.29 4.2
-6 7 0 9.3 2.1
-6 7 0 10.7 3
-6 7 0 10 2.1
-6 7 0 12.9 2.8
-5 7 0 24.1 3
-5 7 0 19.6 3.1
-5 7 0 19.7 2.4
-4 7 0 37.8 3.5
-4 7 0 43.6 3.1
-4 7 0 44.9 3.6
-3 7 0 267.07 10.6
-3 7 0 255.77 9.8
-3 7 0 267.37 12.3
-3 7 0 228.98 10.1
-3 7 0 257.67 9.8
-3 7 0 252.37 9.7
-2 7 0 83.49 4.6
-2 7 0 85.99 4.7
-2 7 0 80.09 6.3
-2 7 0 85.29 4.9
1 -7 0 17.8 2.4
-1 7 0 23.5 3.1
-1 7 0 17.7 2.8
-1 7 0 28.1 4.5
-1 7 0 20.6 2.7
0 7 0 70.39 7.1
0 7 0 76.69 5.3
0 7 0 79.89 5.4
1 7 0 18.3 5.3
1 7 0 19.2 3.5
1 7 0 13.3 3.4
2 7 0 11.4 5.4
2 7 0 15.2 3.8
2 7 0 23.4 4
3 7 0 20.7 4.7
3 7 0 30.7 5
3 7 0 30.6 6
4 7 0 -1.9 5.1
4 7 0 7.5 4.5
4 7 0 2.7 3.9
-9 8 0 -0.5 2.4
-9 8 0 4.7 2.7
-8 8 0 14.8 2.9
-8 8 0 21.4 3.3
-7 8 0 22.5 3
-7 8 0 25.9 3
-6 8 0 -0.6 1.8
-5 8 0 32.4 3.5
-5 8 0 24.9 2.6
-4 8 0 0.4 1.5
-4 8 0 1.8 2.1
-4 8 0 0.2 1.5
-4 8 0 1.7 2.8
-3 8 0 4.8 1.8
-3 8 0 5.2 2
-3 8 0 8.6 4
-3 8 0 11.4 2.6
-2 8 0 111.29 5.8
-2 8 0 108.69 8.4
-2 8 0 104.19 7
-2 8 0 113.19 5.9
-1 8 0 1.3 2.3
-1 8 0 3.8 3.2
-1 8 0 -1.5 1.9
0 8 0 6.5 2.8
0 8 0 3 4.5
0 8 0 2.5 2.6
1 8 0 29.2 4.4
1 8 0 24.3 4.4
1 8 0 27.6 6.4
2 8 0 -3.6 2.9
2 8 0 -2.1 3.3
2 8 0 -0.7 3.7
-8 9 0 8.4 2.8
-7 9 0 96.69 5.4
-6 9 0 96.29 5
-5 9 0 14.4 4.8
-5 9 0 11.5 2.1
-5 9 0 11.1 2.2
-4 9 0 116.89 5.9
-4 9 0 119.39 9.3
-3 9 0 1.8 2.9
-3 9 0 -0.9 1.9
-3 9 0 1 1.9
-2 9 0 3.4 2.2
-2 9 0 -0.1 3
-2 9 0 -5.7 1.9
-1 9 0 74.09 5.6
-1 9 0 82.79 8.5
-1 9 0 83.59 6.1
0 9 0 2.8 3
0 9 0 4.5 3.1
0 9 0 2.7 5.2
1 9 0 -1.9 2.9
1 9 0 -0.8 5.4
1 9 0 -4 2.9
-6 10 0 21.4 5.6
-6 10 0 32.4 3.3
-5 10 0 43.8 7
-5 10 0 31.4 3.4
-4 10 0 5.9 3.6
-4 10 0 2.8 1.9
-4 10 0 4.1 2.3
-3 10 0 1.2 2.4
-3 10 0 -0.5 1.9
-3 10 0 0.7 4.5
-2 10 0 15.6 3.3
-2 10 0 18.6 5.1
-2 10 0 11.1 2.9
-1 10 0 14.8 3.7
-1 10 0 19.3 3.6
-1 10 0 25.3 7
-4 11 -1 2.9 4.8
-4 11 -1 0.1 2
0 10 -1 29.6 7.3
0 10 -1 35.7 4.9
0 10 -1 32.9 4.3
-1 10 -1 36.8 4.5
-1 10 -1 52.79 7.3
-1 10 -1 39.3 4.2
-2 10 -1 0.8 2.4
-2 10 -1 3 4.7
-2 10 -1 1.5 2
-3 10 -1 2.1 2.1
-3 10 -1 1.4 1.8
-3 10 -1 2.9 4.4
-4 10 -1 0.9 3.1
-4 10 -1 -2.7 1.7
-5 10 -1 4.5 1.8
-5 10 -1 0.6 4.2
-6 10 -1 136.89 6.3
-6 10 -1 135.89 10.5
2 9 -1 50.59 8.5
2 9 -1 39.6 5.9
2 9 -1 49.1 6
1 9 -1 -2.3 2.9
1 9 -1 -2.5 3.4
1 9 -1 -0.8 2.8
0 9 -1 -0.3 2.5
0 9 -1 -1.2 2.5
0 9 -1 3.9 3.7
-1 9 -1 17.6 3.2
-1 9 -1 21.1 5
-1 9 -1 19.6 3.1
-2 9 -1 97.99 5.3
-2 9 -1 98.29 5.6
-2 9 -1 107.39 8
-3 9 -1 12 2.5
-3 9 -1 14.7 2
-3 9 -1 8.8 3.6
-3 9 -1 12.1 2.1
-4 9 -1 -2.3 1.8
-4 9 -1 -0.4 1.2
-4 9 -1 2.9 2.9
-4 9 -1 -1.2 1.4
-5 9 -1 2.4 1.6
-5 9 -1 6.1 2.1
-5 9 -1 7.2 4.2
-5 9 -1 3.3 1.3
-6 9 -1 -0.4 1.5
-6 9 -1 0.8 1.3
-7 9 -1 50.49 4.1
-8 9 -1 6.6 2.5
-8 9 -1 2 1.9
3 8 -1 8.1 4.2
3 8 -1 12.8 6.2
3 8 -1 10.7 4
2 8 -1 2.2 5
2 8 -1 1.4 3
2 8 -1 2.8 3.3
1 8 -1 5.8 2.7
1 8 -1 0 2.6
1 8 -1 4.7 3.6
0 8 -1 29 3.7
0 8 -1 32.4 3.9
0 8 -1 50.59 6.8
-1 8 -1 9.5 4.3
-1 8 -1 10.9 2.3
-1 8 -1 8.3 2.4
-1 8 -1 9.7 2.4
-2 8 -1 16.8 2.6
-2 8 -1 22.1 4.8
-2 8 -1 21.9 2.4
-2 8 -1 18.9 2.5
-3 8 -1 215.58 8.4
-3 8 -1 201.88 11
-3 8 -1 223.78 9.3
-3 8 -1 207.38 8.1
-3 8 -1 219.18 8.8
-4 8 -1 47.8 5.9
-4 8 -1 45.1 3.1
-4 8 -1 44 2.7
-4 8 -1 43.5 3.5
-4 8 -1 50.59 4.2
-5 8 -1 25.3 2.3
-5 8 -1 26.5 3
-5 8 -1 36.8 2.8
-5 8 -1 31.8 3.8
-6 8 -1 37.1 4.7
-6 8 -1 38.7 3.8
-6 8 -1 37.8 3.2
-7 8 -1 15.6 2.4
-7 8 -1 11.9 2.5
-7 8 -1 17.8 3.8
-8 8 -1 3.5 2.3
-8 8 -1 8 3.8
-8 8 -1 5.5 2.4
-9 8 -1 -5 2.5
-9 8 -1 3.9 4.3
-9 8 -1 -4.9 2.2
4 7 -1 47.6 6.3
4 7 -1 55.69 7.1
4 7 -1 53.89 7.9
3 7 -1 16.4 4.8
3 7 -1 16.4 4
3 7 -1 15.7 4.1
2 7 -1 113.19 7.2
2 7 -1 116.49 7.5
2 7 -1 108.69 9.2
1 7 -1 1.9 3.2
1 7 -1 5 2.6
1 7 -1 1.3 2.7
0 7 -1 85.19 5.5
0 7 -1 84.79 5.4
0 7 -1 87.89 5.3
0 7 -1 85.79 7.5
0 -7 1 90.79 4.9
-1 7 -1 171.38 7.3
-1 7 -1 162.18 7.3
-1 7 -1 177.98 7.5
-1 7 -1 171.88 7.6
-1 7 -1 173.18 9.3
-2 7 -1 142.09 6.1
-2 7 -1 146.39 8.3
-2 7 -1 141.19 6
-2 7 -1 150.38 6
-2 7 -1 148.69 6.4
2 -7 1 144.79 5.6
-3 7 -1 63.69 6.2
-3 7 -1 61.29 3.6
-3 7 -1 56.59 4.2
-3 7 -1 53.59 3
-3 7 -1 50.49 3
-3 7 -1 55.89 2.9
3 -7 1 53.09 2.3
-4 7 -1 10.5 2
-4 7 -1 12.3 2.4
-4 7 -1 9.9 1.5
-4 7 -1 14.1 1.7
-4 7 -1 12.7 1.5
-5 7 -1 6.6 2.6
-5 7 -1 11.1 2.1
-5 7 -1 8.7 1.7
-6 7 -1 89.59 5
-6 7 -1 98.29 6.7
-6 7 -1 99.59 5.8
-6 7 -1 102.69 5
-7 7 -1 3.3 2.1
-7 7 -1 2.1 1.9
-7 7 -1 0.2 2.8
-8 7 -1 -0.4 2
-8 7 -1 -0.3 3.3
-8 7 -1 -1.6 2.2
-9 7 -1 40.2 6.7
-9 7 -1 42.2 4.6
-9 7 -1 31.1 4.2
5 6 -1 11.5 5.1
5 6 -1 14.3 4.4
5 6 -1 14.3 4.6
4 6 -1 91.99 7.4
4 6 -1 111.89 8.1
4 6 -1 103.99 9.1
-4 -6 1 113.19 7.4
3 6 -1 487.95 18.9
3 6 -1 454.75 18.4
3 6 -1 431.86 19.5
-3 -6 1 452.65 17.8
2 6 -1 24.2 3.6
2 6 -1 27.2 4
2 6 -1 22.2 4.4
-2 -6 1 22.3 3.3
1 6 -1 378.76 14.9
1 6 -1 381.76 14.6
1 6 -1 386.06 14.8
1 6 -1 402.26 14.6
1 6 -1 372.66 16.2
-1 -6 1 368.76 14.3
-1 -6 1 388.16 14
0 6 -1 321.27 14
0 6 -1 317.57 12.4
0 6 -1 318.47 12.2
0 6 -1 332.27 12.4
0 6 -1 349.67 12.5
0 -6 1 328.27 11.7
0 -6 1 335.77 12.1
-1 6 -1 3.4 2.3
-1 6 -1 2.8 1.5
-1 6 -1 2.2 1.9
-1 6 -1 6.1 1.5
-1 6 -1 7.3 1.7
-1 6 -1 4 1.3
-2 6 -1 1.6 1
-2 6 -1 0.7 1
-2 6 -1 1 2.4
-2 6 -1 -0.4 0.9
-2 6 -1 2.7 1.2
2 -6 1 1.4 0.7
-3 6 -1 41.7 2.8
-3 6 -1 44.6 3.8
-3 6 -1 44.7 2.4
-3 6 -1 44.8 2.4
3 -6 1 44.3 1.9
3 -6 1 43.9 2
-4 6 -1 678.63 22.7
-4 6 -1 661.33 22.7
-4 6 -1 669.63 22.6
-4 6 -1 693.63 23.1
-4 6 -1 678.13 24.2
4 -6 1 678.73 22.4
-5 6 -1 245.78 9.4
-5 6 -1 258.27 11.2
-5 6 -1 241.88 9.6
-5 6 -1 255.87 9.5
-5 6 -1 262.17 10.2
-6 6 -1 -0.5 1.5
-6 6 -1 -1.5 1.5
-6 6 -1 0.4 2.5
-6 6 -1 1.9 2
-7 6 -1 3.7 2
-7 6 -1 0.7 2
-7 6 -1 -0.6 3.1
-8 6 -1 48.3 4.8
-8 6 -1 66.29 5
-8 6 -1 56.09 6.9
-9 6 -1 10.7 3.4
-9 6 -1 12.9 4.4
-9 6 -1 13.3 3.3
6 5 -1 7 4.8
6 5 -1 9.6 4.4
6 5 -1 11.9 5
-6 -5 1 6.7 3.8
-6 -5 1 -0.5 5.4
5 5 -1 183.68 11.3
5 5 -1 188.38 11.9
5 5 -1 176.08 10.7
-5 -5 1 183.28 12.2
-5 -5 1 201.28 10.3
4 5 -1 0.7 2.5
4 5 -1 6.9 3.4
4 5 -1 2.9 3.9
-4 -5 1 6.6 2.9
-4 -5 1 0.6 2.8
3 5 -1 73.29 7.2
3 5 -1 75.89 5.8
3 5 -1 69.19 6
-3 -5 1 77.49 5.3
-3 -5 1 72.99 6.8
2 5 -1 277.77 12
2 5 -1 320.37 12.3
2 5 -1 299.07 13.4
2 5 -1 310.37 12.5
2 5 -1 304.97 12.6
-2 -5 1 301.97 12
-2 -5 1 318.87 11.8
1 5 -1 75.99 4.4
1 5 -1 75.19 4.6
1 5 -1 78.19 4.3
1 5 -1 84.69 4.6
1 5 -1 71.89 5.8
-1 -5 1 70.69 4.1
-1 -5 1 72.09 4
0 5 -1 85.09 6
0 5 -1 95.39 4.7
0 5 -1 92.29 4.6
0 5 -1 91.99 5.3
0 5 -1 92.79 4.5
0 5 -1 91.69 4.7
0 -5 1 91.49 4.3
0 -5 1 105.69 4.1
-1 5 -1 2.9 1.1
-1 5 -1 3.9 1.2
-1 5 -1 3.4 1
-1 5 -1 3.5 1.2
-1 5 -1 3.2 2.4
1 -5 1 3.5 0.6
1 -5 1 3.9 1
-2 5 -1 66.69 2.9
-2 5 -1 66.99 3.2
-2 5 -1 66.39 4.5
-2 5 -1 64.69 2.9
-2 5 -1 68.79 3
2 -5 1 70.69 2.7
2 -5 1 66.69 2.6
-3 5 -1 786.32 26.4
-3 5 -1 783.62 26.1
-3 5 -1 797.72 26.2
-3 5 -1 812.22 27.5
3 -5 1 786.72 26
3 -5 1 806.22 25.9
-4 5 -1 672.03 24.1
-4 5 -1 631.04 22.6
-4 5 -1 729.13 23.2
-4 5 -1 690.13 22.8
-4 5 -1 660.03 22.6
-5 5 -1 24.2 3.4
-5 5 -1 19.6 2.1
-5 5 -1 22.6 2.8
-5 5 -1 22.4 2.5
-5 5 -1 21.7 2.3
5 -5 1 22 2.3
-6 5 -1 28.3 3.4
-6 5 -1 27 3
-6 5 -1 26.5 4.2
-6 5 -1 27.5 3
6 -5 1 29.2 3.2
-7 5 -1 40.8 4
-7 5 -1 40.1 4
-7 5 -1 32.1 5.1
-8 5 -1 0.6 2.4
-8 5 -1 -1.2 2.2
-8 5 -1 0 4
-9 5 -1 6 4.1
-9 5 -1 8 3.2
-9 5 -1 13.6 3.6
7 4 -1 -4.2 3.7
7 4 -1 4.9 4.5
-7 -4 1 -12.4 5
-7 -4 1 5.9 4
6 4 -1 2.7 4.1
6 4 -1 -2.3 3.4
6 4 -1 3.5 4.2
-6 -4 1 -3.4 2.1
-6 -4 1 -4.8 4.6
5 4 -1 6.2 4.1
5 4 -1 7.8 4
5 4 -1 3.7 3.4
-5 -4 1 6 3.2
-5 -4 1 7.1 3.7
4 4 -1 45.9 5.3
4 4 -1 54.29 5.5
4 4 -1 47 5.9
-4 -4 1 45.2 5.9
-4 -4 1 48.3 5.4
-4 -4 1 41.4 4.6
3 4 -1 10.2 3.6
3 4 -1 9.7 2.2
3 4 -1 12.3 2.9
3 4 -1 14.4 3.2
-3 -4 1 9 2.5
-3 -4 1 10.2 3.4
2 4 -1 5.9 2.1
2 4 -1 5.2 2.3
2 4 -1 12.8 2.2
2 4 -1 9.8 2.1
2 4 -1 7.2 3.1
-2 -4 1 1.9 2.5
-2 -4 1 8.9 1.8
-2 -4 1 9.2 1.9
1 4 -1 1.7 1.4
1 4 -1 3.4 1.6
1 4 -1 3 2.5
1 4 -1 5.2 1.5
1 4 -1 3.4 1.6
1 4 -1 1.6 1.6
-1 -4 1 2.1 1.2
-1 -4 1 5.7 1.6
0 4 -1 490.45 18.1
0 4 -1 481.85 17
0 4 -1 512.75 17.7
0 4 -1 502.85 17.1
0 4 -1 495.15 17
0 4 -1 492.25 17
0 -4 1 503.35 16.9
0 -4 1 520.85 16.9
0 -4 1 485.75 16.6
-1 4 -1 0.5 0.8
-1 4 -1 1 0.8
-1 4 -1 2.6 1.6
-1 4 -1 1.7 0.9
-1 4 -1 1.2 0.8
1 -4 1 0.9 0.7
-2 4 -1 311.67 10.9
-2 4 -1 326.07 12
-2 4 -1 308.67 10.7
-2 4 -1 315.67 10.8
2 -4 1 318.57 10.5
2 -4 1 343.67 10.6
-3 4 -1 542.55 18.1
-3 4 -1 534.95 18.3
-3 4 -1 552.74 19.5
-3 4 -1 559.84 18.5
-3 4 -1 538.85 18.1
3 -4 1 548.85 17.8
3 -4 1 539.15 18
-4 4 -1 1.4 1.2
-4 4 -1 1.5 1.6
-4 4 -1 0.3 1.2
-4 4 -1 0.3 1.4
-4 4 -1 -0.1 1.2
4 -4 1 3.6 1.3
4 -4 1 1.6 1.1
-5 4 -1 -0.4 1.4
-5 4 -1 -1.8 1.3
-5 4 -1 1.7 1.7
-5 4 -1 -0.3 1.5
-5 4 -1 0.3 2.5
5 -4 1 0.3 1.4
5 -4 1 6.2 1.8
-6 4 -1 6.9 3.3
-6 4 -1 8.7 2.6
-6 4 -1 5 2
-6 4 -1 7.9 2.2
6 -4 1 4 2.2
6 -4 1 4.1 2
-7 4 -1 0.8 2.7
-7 4 -1 5.7 2.4
-7 4 -1 3.1 2.4
7 -4 1 3.8 2.5
-8 4 -1 77.69 5.9
-8 4 -1 72.89 5.8
-8 4 -1 58.89 7.6
-9 4 -1 2.5 4.2
-9 4 -1 4.3 3.4
-9 4 -1 7.8 3.4
7 3 -1 5.5 4.7
7 3 -1 -2.6 3.9
-7 -3 1 1.1 5.5
-7 -3 1 -0.9 3.4
6 3 -1 13.6 4.2
6 3 -1 13 3.8
6 3 -1 11.7 4.3
-6 -3 1 11.5 5.2
-6 -3 1 15 3.3
5 3 -1 3.5 3.4
5 3 -1 2.6 3
5 3 -1 1.7 3.2
-5 -3 1 3.5 4.1
-5 -3 1 5.8 2.2
-5 -3 1 7.6 2.9
4 3 -1 35.7 4.4
4 3 -1 28.9 4.2
4 3 -1 33.1 3.8
4 3 -1 35.6 4
-4 -3 1 42.7 4.2
-4 -3 1 38.9 5.1
-4 -3 1 39.9 3.9
3 3 -1 23.1 3.3
3 3 -1 24.3 3.4
3 3 -1 22.1 2.9
3 3 -1 29.2 2.9
-3 -3 1 26.6 4
-3 -3 1 23.6 2.7
-3 -3 1 22.7 2.9
2 3 -1 72.39 4.2
2 3 -1 69.49 4.3
2 3 -1 74.19 3.9
2 3 -1 74.59 4.1
2 3 -1 66.09 5
-2 -3 1 72.79 5.2
-2 -3 1 72.09 4.1
1 3 -1 16.7 2
1 3 -1 16 2.8
1 3 -1 20.1 2.1
1 3 -1 14.6 1.8
1 3 -1 19.6 1.9
1 3 -1 14 2.3
-1 -3 1 21.2 2.8
-1 -3 1 17.1 1.7
-1 -3 1 16.2 1.8
-1 -3 1 15.9 1.9
-1 -3 1 19.2 1.9
0 3 -1 20.8 2.5
0 3 -1 14.3 1.4
0 3 -1 16.3 1.5
0 3 -1 16.4 1.6
0 3 -1 15.2 1.5
0 -3 1 17.9 1.4
0 -3 1 17.5 1.4
0 -3 1 17.2 1.4
0 -3 1 16.6 2
-1 3 -1 190.98 6.4
-1 3 -1 186.78 6.5
-1 3 -1 197.68 6.5
1 -3 1 190.38 6.4
1 -3 1 196.78 6.3
-2 3 -1 5.6 0.8
-2 3 -1 4.9 0.8
-2 3 -1 5.1 1
-2 3 -1 6.5 0.9
-2 3 -1 2.2 1.4
2 -3 1 6.1 0.8
2 -3 1 6.8 0.7
-3 3 -1 1827.92 58.39
-3 3 -1 1805.12 58.49
-3 3 -1 1810.02 58.29
-3 3 -1 1834.32 59.59
-3 3 -1 1667.53 58.49
3 -3 1 1793.42 58.29
3 -3 1 1837.12 58.39
3 -3 1 1834.62 59.49
3 -3 1 1788.42 58.39
-4 3 -1 -0.6 1.3
-4 3 -1 -0.8 1.5
-4 3 -1 0.7 1.3
-4 3 -1 -0.5 1.4
-4 3 -1 1 1.6
4 -3 1 -0.9 1.4
4 -3 1 0.1 1.4
-5 3 -1 41.2 3.4
-5 3 -1 38.8 4.3
-5 3 -1 57.99 4.1
-5 3 -1 47.8 3.6
-5 3 -1 44.4 3.4
5 -3 1 49.3 3.9
5 -3 1 43.7 3.7
-6 3 -1 586.44 20.7
-6 3 -1 574.84 20.6
-6 3 -1 545.85 22.3
-6 3 -1 562.74 21.1
6 -3 1 570.74 21
6 -3 1 571.94 21.1
-7 3 -1 20.3 3.4
-7 3 -1 18.8 5
-7 3 -1 14.8 3.2
7 -3 1 23.6 3.7
-8 3 -1 18 3.7
-8 3 -1 14.3 4.5
-8 3 -1 12.3 3.6
8 -3 1 16.6 4.1
-9 3 -1 0.4 3
-9 3 -1 6.1 2.8
-9 3 -1 -5.4 5.2
8 2 -1 1.3 4.2
8 2 -1 -0.4 4.1
-8 -2 1 -1.1 3.7
-8 -2 1 -4 5.7
7 2 -1 48.2 6.9
7 2 -1 52.09 6.4
-7 -2 1 44.6 6.7
-7 -2 1 44.2 5.2
6 2 -1 4.3 3.7
6 2 -1 8.4 3.4
6 2 -1 3.2 2.9
-6 -2 1 3.4 3
-6 -2 1 3 2.8
-6 -2 1 15.9 5.2
5 2 -1 119.19 7.5
5 2 -1 134.79 8
5 2 -1 123.89 8.1
-5 -2 1 119.29 6.7
-5 -2 1 116.59 6.4
-5 -2 1 135.29 8.5
4 2 -1 634.54 23.6
4 2 -1 684.63 23.2
4 2 -1 616.14 23.9
4 2 -1 654.83 23.6
-4 -2 1 636.14 22.9
-4 -2 1 663.43 23.3
-4 -2 1 652.53 24.6
3 2 -1 52.09 4.6
3 2 -1 75.39 4.7
3 2 -1 53.69 4.4
3 2 -1 62.09 4
3 2 -1 70.19 4.3
-3 -2 1 71.49 4.6
-3 -2 1 74.99 4.3
-3 -2 1 65.59 3.8
-3 -2 1 68.79 5.6
2 2 -1 73.69 4.6
2 2 -1 72.49 3.7
2 2 -1 74.19 3.9
2 2 -1 76.09 4.8
2 2 -1 76.89 3.6
2 2 -1 64.69 4.2
-2 -2 1 68.19 3.8
-2 -2 1 71.89 3.7
-2 -2 1 66.19 3.9
-2 -2 1 71.49 3.7
-2 -2 1 75.29 5
-2 -2 1 71.49 4.2
1 2 -1 149.19 6.2
1 2 -1 172.38 5.8
1 2 -1 138.29 6.1
1 2 -1 142.79 5.7
1 2 -1 152.68 5.9
1 2 -1 157.38 6
-1 -2 1 154.38 5.8
-1 -2 1 150.28 6.3
-1 -2 1 142.79 5.7
-1 -2 1 142.79 5.7
-1 -2 1 139.69 6.2
-1 -2 1 136.19 5.8
0 2 -1 145.69 5.1
0 2 -1 145.69 5.1
0 2 -1 156.98 5.2
0 2 -1 140.79 5.2
0 2 -1 142.49 5.7
0 -2 1 158.18 5
0 -2 1 147.39 5.8
0 -2 1 145.89 5.1
0 -2 1 141.99 5.1
-1 2 -1 4638.04 139.49
-1 2 -1 4053.09 139.49
-2 2 -1 146.89 5.6
-2 2 -1 150.18 5.4
-2 2 -1 147.39 5.4
-2 2 -1 151.48 6.2
-2 2 -1 151.98 5.5
2 -2 1 150.18 5.8
2 -2 1 146.39 6.2
2 -2 1 151.98 5.5
2 -2 1 141.69 5.4
2 -2 1 144.59 5.3
-3 2 -1 744.93 24.7
-3 2 -1 757.32 25.7
-3 2 -1 721.33 24.6
-3 2 -1 737.43 25.4
-3 2 -1 739.43 24.7
3 -2 1 748.63 24.8
3 -2 1 728.33 25.6
3 -2 1 726.93 24.8
3 -2 1 738.93 24.5
3 -2 1 717.93 24.6
-4 2 -1 225.58 10
-4 2 -1 219.98 8.9
-4 2 -1 224.18 9.1
-4 2 -1 249.18 9.2
-4 2 -1 221.88 8.8
4 -2 1 219.48 9.1
4 -2 1 220.68 9.1
-5 2 -1 33.9 3.3
-5 2 -1 24.6 4.1
-5 2 -1 27.9 3.3
-5 2 -1 28.4 3.1
5 -2 1 27.3 3.3
-6 2 -1 305.57 12.6
-6 2 -1 321.87 14.7
-6 2 -1 298.57 12.7
-6 2 -1 281.57 12.2
6 -2 1 324.87 12.9
-7 2 -1 132.19 7.5
-7 2 -1 151.98 8.1
-7 2 -1 143.79 10.3
7 -2 1 143.09 8.4
-8 2 -1 14.6 3.9
-8 2 -1 8.8 4.4
-8 2 -1 14.4 3.8
8 -2 1 10.6 3.9
-9 2 -1 8.6 3.2
-9 2 -1 7.7 3.7
-9 2 -1 2.2 4.7
9 -2 1 6.1 4.6
8 1 -1 11.6 4.7
8 1 -1 10.1 4.3
-8 -1 1 -0.5 5.3
-8 -1 1 4.3 2.9
7 1 -1 82.99 7.4
7 1 -1 89.99 7.9
-7 -1 1 69.49 7.8
-7 -1 1 82.19 6.7
-7 -1 1 74.19 5.7
6 1 -1 222.18 11.8
6 1 -1 223.28 11.1
6 1 -1 250.17 11.5
-6 -1 1 223.98 10.7
-6 -1 1 224.68 10.5
-6 -1 1 229.98 12.2
5 1 -1 27 4
5 1 -1 32 3.7
5 1 -1 24 3.8
-5 -1 1 27.9 4.9
-5 -1 1 27.3 3.4
-5 -1 1 22.8 3
4 1 -1 28.2 3.8
4 1 -1 25.8 3.5
4 1 -1 28.7 3.1
4 1 -1 33.8 3.4
-4 -1 1 31.8 2.9
-4 -1 1 36.9 4.1
-4 -1 1 30.5 3.4
-4 -1 1 29.2 3
3 1 -1 460.95 17.4
3 1 -1 474.35 17.3
3 1 -1 475.05 16.8
3 1 -1 459.65 16.7
3 1 -1 466.25 17.1
-3 -1 1 487.95 18
-3 -1 1 495.05 16.8
-3 -1 1 500.75 17
-3 -1 1 459.15 17
2 1 -1 253.87 9.5
2 1 -1 244.78 9
2 1 -1 264.37 9.6
2 1 -1 243.98 9.1
2 1 -1 248.08 9.3
2 1 -1 246.68 9.8
-2 -1 1 252.57 10
-2 -1 1 234.48 8.9
-2 -1 1 243.38 9.1
-2 -1 1 253.37 9.5
-2 -1 1 254.27 9.4
-2 -1 1 252.37 9.2
1 1 -1 5278.37 174.88
1 1 -1 6181.68 173.48
1 1 -1 5286.87 173.78
1 1 -1 5665.93 173.68
1 1 -1 5286.77 173.88
1 1 -1 5262.17 173.48
-1 -1 1 5389.36 173.28
-1 -1 1 5194.68 174.38
-1 -1 1 5147.38 173.18
-1 -1 1 5182.48 173.78
-1 -1 1 5211.18 174.18
-1 1 -1 204.18 7.9
-1 1 -1 238.78 8
-1 1 -1 239.38 8
-1 1 -1 235.28 8.2
-1 1 -1 242.38 8
-1 1 -1 226.98 8.5
1 -1 1 245.38 8
1 -1 1 237.78 7.9
1 -1 1 246.08 8
1 -1 1 237.18 8.5
-2 1 -1 9949.3 316.77
-2 1 -1 9722.53 314.57
-2 1 -1 9854.41 318.07
-2 1 -1 9660.23 316.87
-2 1 -1 9703.93 317.67
-2 1 -1 9776.62 316.67
2 -1 1 9651.53 316.77
2 -1 1 9930.61 316.77
2 -1 1 9999 315.77
2 -1 1 9912.01 315.47
2 -1 1 9547.45 318.17
-3 1 -1 6.8 1.7
-3 1 -1 7.7 1.7
-3 1 -1 9.4 1.6
-3 1 -1 7 1.7
-3 1 -1 4.8 1.9
-3 1 -1 10.4 2
3 -1 1 4.9 1.6
3 -1 1 10.2 2.3
3 -1 1 8.6 1.9
3 -1 1 10.1 1.7
3 -1 1 6.5 1.9
-4 1 -1 469.65 17.2
-4 1 -1 471.25 17.4
-4 1 -1 524.85 17.7
-4 1 -1 478.75 17.3
-4 1 -1 480.75 18.6
4 -1 1 476.35 18
4 -1 1 468.85 17.6
4 -1 1 486.15 17.7
-5 1 -1 109.39 6.1
-5 1 -1 116.59 6.4
-5 1 -1 117.19 7.8
-5 1 -1 112.39 6.1
5 -1 1 100.19 6
5 -1 1 121.99 6.8
5 -1 1 118.49 6.6
-6 1 -1 56.69 6.5
-6 1 -1 52.29 4.8
-6 1 -1 51.39 5
6 -1 1 51.49 5.2
6 -1 1 51.39 5.5
6 -1 1 52.29 5.3
-7 1 -1 195.78 9.7
-7 1 -1 162.88 11.4
-7 1 -1 166.38 9.2
7 -1 1 188.78 10
7 -1 1 160.68 9.9
-8 1 -1 39.7 5.2
-8 1 -1 28.7 6.7
-8 1 -1 31.9 5
8 -1 1 41.4 6.4
8 -1 1 25.8 5
-9 1 -1 12.7 7.2
-9 1 -1 24.7 4.4
9 -1 1 17.5 5.2
9 0 -1 10.2 4
9 0 -1 -0.4 4.4
-9 0 1 2.8 3.7
-9 0 1 2.3 4.6
8 0 -1 23.7 5.2
8 0 -1 30.1 5.8
-8 0 1 24.3 6.7
-8 0 1 33.3 5
-8 0 1 21 4.3
7 0 -1 106.59 8
7 0 -1 123.89 8.8
-7 0 1 119.29 7.6
-7 0 1 133.29 9.4
-7 0 1 134.69 7.8
6 0 -1 0.2 2.5
6 0 -1 0.5 2.3
6 0 -1 -1.4 2.7
-6 0 1 1.1 2.3
-6 0 1 -0.1 2.7
-6 0 1 2.4 2.4
-6 0 1 1.2 2.5
5 0 -1 50.99 4.4
5 0 -1 49.8 4.6
5 0 -1 57.69 5
-5 0 1 53.19 4.1
-5 0 1 57.49 5.2
-5 0 1 54.09 3.8
-5 0 1 50.99 3.8
4 0 -1 73.49 4.6
4 0 -1 71.99 5.1
4 0 -1 79.49 4.9
4 0 -1 80.29 4.2
-4 0 1 79.99 5
-4 0 1 79.59 4.6
-4 0 1 93.59 4.7
-4 0 1 84.39 6.1
3 0 -1 -0.9 1.2
3 0 -1 -0.4 1.3
3 0 -1 0.2 1.8
3 0 -1 -0.6 1.8
3 0 -1 -2 1.3
3 0 -1 0.6 1.8
-3 0 1 0.5 1.3
-3 0 1 -0.1 1.1
-3 0 1 1.6 1.3
-3 0 1 -0.6 1.2
-3 0 1 -0.3 1
-3 0 1 4.9 2.4
2 0 -1 289.27 10.7
2 0 -1 290.87 10.6
2 0 -1 287.07 10.3
2 0 -1 290.07 10.7
2 0 -1 293.97 10.5
2 0 -1 299.77 10.3
-2 0 1 281.97 10.6
-2 0 1 273.47 10.2
-2 0 1 296.67 10.7
-2 0 1 319.07 10.6
-2 0 1 286.37 10.3
-2 0 1 315.37 11.1
1 0 -1 1279.87 40.7
1 0 -1 1278.97 40.5
1 0 -1 1262.07 40.5
-1 0 1 1263.57 40.6
-1 0 1 1118.99 40.6
-1 0 1 1310.17 40.7
-1 0 1 1258.17 40.6
0 0 -1 0.3 0.4
0 0 -1 0.4 0.4
0 0 -1 3 0.5
0 0 -1 4.6 0.7
0 0 -1 1.6 0.5
-1 0 -1 2948.7 90.49
-1 0 -1 2799.72 90.19
-1 0 -1 2661.93 90.09
-1 0 -1 2788.22 90.29
-1 0 -1 2803.02 90.19
1 0 1 2853.71 90.19
1 0 1 2781.22 90.19
1 0 1 2778.12 90.19
1 0 1 2816.22 90.39
1 0 1 2751.12 90.29
1 0 1 2829.12 90.19
-2 0 -1 373.36 13
-2 0 -1 374.36 13.4
-2 0 -1 359.06 12.9
-2 0 -1 369.66 13.6
-2 0 -1 364.56 13.1
-2 0 -1 367.26 13
2 0 1 375.76 13.4
2 0 1 356.66 13.1
2 0 1 365.16 12.9
2 0 1 367.96 13
2 0 1 360.46 13.5
2 0 1 375.26 13.2
-3 0 -1 1210.68 40.5
-3 0 -1 1163.98 40.4
-3 0 -1 1171.48 40.5
-3 0 -1 1355.66 40.6
-3 0 -1 1211.28 41.4
3 0 1 1216.58 40.4
3 0 1 1209.48 40.6
3 0 1 1152.08 40.6
3 0 1 1235.78 41.1
-4 0 -1 25.8 3
-4 0 -1 30.3 3.4
-4 0 -1 24.3 3
-4 0 -1 23.6 3.5
4 0 1 25.7 3.3
4 0 1 26.4 3.7
4 0 1 27.9 3.4
-5 0 -1 3.6 2.6
-5 0 -1 2.4 1.8
-5 0 -1 5.2 2.5
-5 0 -1 1.1 1.6
5 0 1 0.1 2.4
5 0 1 7.6 3.1
5 0 1 10.3 3
-6 0 -1 347.57 14.6
-6 0 -1 347.87 16
-6 0 -1 338.17 14.2
6 0 1 362.56 15.3
6 0 1 328.87 15.5
6 0 1 348.17 14.8
-7 0 -1 3.1 3.2
-7 0 -1 8.1 3.5
-7 0 -1 3.1 3.9
7 0 1 8.2 3.2
7 0 1 6.2 3.3
-8 0 -1 114.89 8.4
-8 0 -1 103.09 10.7
8 0 1 100.79 8.4
8 0 1 102.29 8
9 -1 -1 1.6 3.1
-9 1 1 -0.4 5.9
-9 1 1 -3.1 3.2
-9 1 1 1.4 3.4
8 -1 -1 0.1 2.4
-8 1 1 -1.6 2.9
-8 1 1 0.3 3.1
-8 1 1 -7.7 4.3
7 -1 -1 205.78 10.6
-7 1 1 212.48 10.2
-7 1 1 208.58 12.5
-7 1 1 204.98 10
6 -1 -1 -0.5 2.4
6 -1 -1 2.4 2.3
6 -1 -1 4.2 2.7
-6 1 1 -1.4 2
-6 1 1 -0.5 1.6
-6 1 1 -2.2 2.3
-6 1 1 -0.1 2.6
5 -1 -1 16.2 3
5 -1 -1 14.2 2.8
5 -1 -1 18.2 3
-5 1 1 16.2 2.5
-5 1 1 20 3.1
-5 1 1 26.5 3.6
-5 1 1 21.2 2.8
4 -1 -1 160.48 7.2
4 -1 -1 170.78 7.5
4 -1 -1 164.78 7.3
-4 1 1 153.08 7.3
-4 1 1 158.38 7.2
-4 1 1 162.58 8
-4 1 1 160.88 7
-4 1 1 160.98 6.9
3 -1 -1 50.69 3.1
3 -1 -1 51.79 3
3 -1 -1 50.29 3.5
3 -1 -1 49 3
3 -1 -1 50.69 3.3
-3 1 1 44.5 3.4
-3 1 1 47.6 3.2
-3 1 1 50.29 3.1
-3 1 1 45.4 3
-3 1 1 49.9 3.2
-3 1 1 52.19 3.4
2 -1 -1 -1.5 1.2
2 -1 -1 0.5 1
2 -1 -1 2.3 1.2
2 -1 -1 0.6 0.8
-2 1 1 1.8 1.3
-2 1 1 0.1 1.4
-2 1 1 -0.4 1
-2 1 1 0.5 1.1
1 -1 -1 110.19 4.2
1 -1 -1 100.49 4
1 -1 -1 105.19 3.9
1 -1 -1 101.19 3.7
-1 1 1 103.99 4
-1 1 1 102.59 4.1
-1 1 1 102.09 4
-1 1 1 105.29 4.2
-1 1 1 105.09 3.7
0 -1 -1 2088.79 68.09
0 -1 -1 2123.79 68.19
0 -1 -1 2077.89 67.99
0 -1 -1 2118.69 67.99
0 -1 -1 2085.19 67.89
0 1 1 2132.69 67.79
0 1 1 2218.58 68.29
0 1 1 2085.79 67.89
0 1 1 2069.19 67.99
0 1 1 2100.09 67.99
0 1 1 2081.09 67.99
-1 -1 -1 22.9 2.1
-1 -1 -1 22.9 2.1
-1 -1 -1 24.6 2.2
-1 -1 -1 24.6 2.2
-1 -1 -1 21.1 1.9
-1 -1 -1 20.3 2.1
1 1 1 23.8 2
1 1 1 19.2 2.1
1 1 1 21 2.1
1 1 1 18.5 2
1 1 1 21.8 2.5
1 1 1 20.8 2.1
-2 -1 -1 255.97 9.4
-2 -1 -1 231.98 9.3
-2 -1 -1 251.87 9.7
-2 -1 -1 238.68 9.4
-2 -1 -1 244.98 9.9
-2 -1 -1 236.58 9.3
2 1 1 236.88 9.3
2 1 1 272.27 9.7
2 1 1 231.88 9.8
2 1 1 242.98 9.8
2 1 1 243.08 9.4
2 1 1 240.08 9.6
-3 -1 -1 44.4 3.6
-3 -1 -1 33.9 3.7
-3 -1 -1 33.2 3.2
-3 -1 -1 34 3.4
3 1 1 37.2 3.6
3 1 1 37.1 2.9
3 1 1 35.4 3.5
3 1 1 33 3.6
-4 -1 -1 39.9 3.8
-4 -1 -1 36.3 4.7
-4 -1 -1 37.3 3.7
-4 -1 -1 35.1 3.6
4 1 1 42.8 4.3
4 1 1 41.5 4.7
4 1 1 51.09 4
-5 -1 -1 7.3 3.2
-5 -1 -1 5 2.1
-5 -1 -1 6.9 2.8
5 1 1 9.2 3.3
5 1 1 4.2 3.1
5 1 1 8.5 3.2
-6 -1 -1 -1.4 4.3
-6 -1 -1 -0.7 1.9
-6 -1 -1 -1.2 2.7
6 1 1 -1.2 3.5
6 1 1 0 2.4
6 1 1 -1.4 2.3
-7 -1 -1 4.5 5.4
-7 -1 -1 5.1 3
7 1 1 10.3 3.7
7 1 1 5.6 3.9
-8 -1 -1 6 5
-8 -1 -1 8.3 3.4
8 1 1 5.2 3.6
8 1 1 16.2 4.9
9 -2 -1 27.9 5.2
-9 2 1 19.5 5.6
-9 2 1 33.4 5
-9 2 1 28.4 4.7
8 -2 -1 48.2 5.8
-8 2 1 46.6 4.8
-8 2 1 51.99 7.4
-8 2 1 57.99 5.6
7 -2 -1 12.4 3.4
-7 2 1 8.9 3
-7 2 1 8.4 4.3
-7 2 1 11 3
6 -2 -1 -0.2 1.7
6 -2 -1 1 2
-6 2 1 -3.6 3
-6 2 1 2.1 2.1
-6 2 1 -2.4 1.5
-6 2 1 1.4 2
5 -2 -1 131.39 6.5
-5 2 1 135.49 6.4
-5 2 1 131.09 6.6
-5 2 1 138.19 6.5
-5 2 1 131.29 6.6
-5 2 1 139.19 7.7
4 -2 -1 352.26 13.5
4 -2 -1 349.87 13.1
-4 2 1 360.76 13.7
-4 2 1 345.07 12.8
-4 2 1 354.56 13
-4 2 1 335.27 12.7
-4 2 1 361.36 13.3
3 -2 -1 724.93 25.4
3 -2 -1 758.92 25.5
3 -2 -1 737.03 25.1
3 -2 -1 748.33 25.6
3 -2 -1 752.82 25.1
-3 2 1 742.73 25.4
-3 2 1 751.52 25.2
-3 2 1 768.72 25.6
-3 2 1 785.62 25.7
-3 2 1 766.02 25.2
2 -2 -1 17 1.5
2 -2 -1 24.2 2
2 -2 -1 20.1 1.9
2 -2 -1 16.4 1.5
2 -2 -1 19.8 1.6
-2 2 1 19 2
-2 2 1 17.9 1.6
-2 2 1 17.2 1.6
-2 2 1 20.6 1.8
-2 2 1 15.4 1.5
1 -2 -1 172.28 6.3
1 -2 -1 169.08 6.3
1 -2 -1 168.08 6.2
1 -2 -1 186.38 6.4
-1 2 1 171.78 6.4
-1 2 1 159.68 6.3
-1 2 1 161.98 6.4
0 -2 -1 57.69 3
0 -2 -1 59.99 3
0 -2 -1 63.69 3.7
0 -2 -1 57.09 3.2
0 -2 -1 59.09 3.1
0 2 1 63.39 3.5
0 2 1 59.09 3.2
0 2 1 61.59 3.2
0 2 1 61.99 2.9
0 2 1 60.39 3.2
0 2 1 58.29 3.2
-1 -2 -1 20.2 2.7
-1 -2 -1 16.9 2
-1 -2 -1 16.9 2
-1 -2 -1 16.6 2.2
-1 -2 -1 17.8 2.1
-1 -2 -1 15.1 1.9
1 2 1 17.2 2
1 2 1 18 2.2
1 2 1 15.8 2
1 2 1 19.2 2.3
1 2 1 17.7 2.2
1 2 1 13.6 2.2
-2 -2 -1 109.99 5.5
-2 -2 -1 127.59 5.6
-2 -2 -1 101.99 5.1
-2 -2 -1 108.59 6.1
2 2 1 101.29 5.7
2 2 1 110.29 5.5
2 2 1 114.09 5.5
2 2 1 108.69 5.9
2 2 1 104.59 5.4
2 2 1 116.19 5.8
-3 -2 -1 104.19 5.5
-3 -2 -1 111.49 6.9
-3 -2 -1 116.29 6.1
3 2 1 104.49 5.9
3 2 1 105.29 6.3
3 2 1 109.09 5.8
3 2 1 114.39 5.9
-4 -2 -1 13.6 2.9
-4 -2 -1 19.6 3.6
-4 -2 -1 22.1 3.4
4 2 1 18.7 4
4 2 1 19.2 3.5
4 2 1 18.9 3.6
-5 -2 -1 13.9 4.6
-5 -2 -1 9.6 3.2
-5 -2 -1 11.3 2.7
5 2 1 7.6 2.9
5 2 1 13.5 3.5
5 2 1 5.7 3.4
-6 -2 -1 1.6 4.7
-6 -2 -1 2.4 3.1
6 2 1 -3.2 3.3
6 2 1 1.3 2.7
6 2 1 5 3.9
-7 -2 -1 -4.8 5.2
-7 -2 -1 1.6 3.6
7 2 1 9.6 4.5
7 2 1 2 3.2
9 -3 -1 85.79 9.6
-9 3 1 86.29 7.4
-9 3 1 76.69 9.2
-9 3 1 95.09 7.1
8 -3 -1 11.6 3.5
-8 3 1 9.7 4
-8 3 1 24.5 3.9
-8 3 1 15.4 3.4
7 -3 -1 644.84 24.8
-7 3 1 687.53 26.3
-7 3 1 687.43 24.6
-7 3 1 661.43 24.3
6 -3 -1 39.3 4.1
6 -3 -1 49.1 4.5
-6 3 1 40.8 4.3
-6 3 1 46.4 4.1
-6 3 1 39.1 4.8
-6 3 1 37.3 3.6
5 -3 -1 76.59 5
5 -3 -1 79.19 4.8
-5 3 1 82.69 5.5
-5 3 1 83.99 5.1
-5 3 1 79.79 4.5
-5 3 1 80.09 4.7
-5 3 1 72.59 4.5
4 -3 -1 47.3 3.5
4 -3 -1 44.2 3.5
4 -3 -1 46.8 3.5
-4 3 1 46.7 3.1
-4 3 1 41.7 3.1
-4 3 1 48.2 3.1
-4 3 1 41.5 3.5
-4 3 1 50.69 3.7
3 -3 -1 237.18 9.1
3 -3 -1 238.88 9.1
3 -3 -1 227.58 9
3 -3 -1 232.78 8.8
-3 3 1 239.58 8.9
-3 3 1 242.78 9.3
-3 3 1 241.78 9.1
-3 3 1 246.48 9.1
-3 3 1 261.27 8.9
2 -3 -1 302.57 9.8
2 -3 -1 272.27 10.1
2 -3 -1 293.47 10.1
2 -3 -1 273.67 9.9
-2 3 1 280.97 10.3
-2 3 1 272.87 10.2
-2 3 1 275.47 9.6
-2 3 1 276.87 10
1 -3 -1 225.98 8
1 -3 -1 219.68 8.2
1 -3 -1 236.18 8.3
-1 3 1 225.68 8.4
-1 3 1 212.38 8.1
-1 3 1 209.18 9
-1 3 1 238.08 8.4
-1 3 1 207.88 8.2
-1 3 1 217.48 7.5
0 -3 -1 51.69 3.2
0 -3 -1 53.89 3.2
0 -3 -1 59.49 3.4
0 3 1 55.09 4.3
0 3 1 56.19 3.1
0 3 1 64.89 3.5
0 3 1 45.5 3.2
0 3 1 51.19 3.2
0 3 1 51.59 3.3
-1 -3 -1 458.35 16.7
-1 -3 -1 442.16 16.5
1 3 1 490.35 16.7
1 3 1 464.35 17.4
1 3 1 458.65 16.7
1 3 1 502.45 16.7
1 3 1 435.76 16.6
1 3 1 453.15 16.6
-2 -3 -1 -0.1 2.3
-2 -3 -1 -0.6 1.8
-2 -3 -1 3.2 1.7
2 3 1 1.9 1.9
2 3 1 2.6 1.7
2 3 1 4.6 2.2
2 3 1 3.4 2.2
-3 -3 -1 249.28 11.5
-3 -3 -1 231.28 10.2
-3 -3 -1 238.58 10.3
3 3 1 239.88 11.3
3 3 1 253.37 11
3 3 1 234.08 10.5
3 3 1 246.88 10.5
-4 -3 -1 -2.8 3.4
-4 -3 -1 3.6 2.6
-4 -3 -1 0.7 2.6
4 3 1 6.8 3.7
4 3 1 4.5 3.1
4 3 1 0.8 2.6
-5 -3 -1 -0.2 3
-5 -3 -1 3.8 4.3
5 3 1 -1 2.6
5 3 1 2.7 3.2
5 3 1 0 3.2
-6 -3 -1 34.4 6.6
-6 -3 -1 25.4 5
6 3 1 35.9 6
6 3 1 35.2 5.7
-7 -3 -1 -4.4 3.3
-7 -3 -1 -7.8 5.1
7 3 1 5.4 4.4
7 3 1 8.6 5
-10 4 1 -3.9 5.9
-9 4 1 2.3 3
-9 4 1 -2.6 4.9
-9 4 1 3.7 3.1
8 -4 -1 29.8 4.4
-8 4 1 34.1 5.2
-8 4 1 35.5 4.2
-8 4 1 32.3 4.2
7 -4 -1 5.6 2.7
-7 4 1 6 2.5
-7 4 1 4.4 3.5
-7 4 1 3.9 2.4
6 -4 -1 3.3 2
6 -4 -1 2.2 2
-6 4 1 4.1 2.5
-6 4 1 3.7 2
-6 4 1 4 2.8
-6 4 1 1.7 2.1
-6 4 1 4 2.1
5 -4 -1 385.86 14.7
5 -4 -1 387.66 14.7
-5 4 1 392.86 15.3
-5 4 1 391.86 15
-5 4 1 384.06 14.4
-5 4 1 401.46 14.5
-5 4 1 419.26 14.8
4 -4 -1 69.79 4
4 -4 -1 69.79 3.9
4 -4 -1 69.89 3.9
-4 4 1 63.89 3.8
-4 4 1 63.89 3.6
-4 4 1 68.69 3.9
-4 4 1 66.89 4.2
-4 4 1 65.59 4.4
3 -4 -1 92.29 4.3
3 -4 -1 91.99 4.5
-3 4 1 86.89 4.3
-3 4 1 96.39 4.3
-3 4 1 98.89 4.5
-3 4 1 90.79 4.4
-3 4 1 99.09 4.9
2 -4 -1 30.3 2.3
2 -4 -1 28.2 2.3
-2 4 1 29.4 1.7
-2 4 1 33.3 2.4
-2 4 1 27.7 2.7
-2 4 1 25.9 2.4
-2 4 1 26.2 2.2
1 -4 -1 1565.24 51.59
1 -4 -1 1619.34 51.49
-1 4 1 1562.64 51.79
-1 4 1 1555.14 52.89
-1 4 1 1578.84 51.69
-1 4 1 1578.34 50.99
-1 4 1 1583.24 51.69
-1 4 1 1540.75 51.59
0 -4 -1 54.49 3.5
0 -4 -1 46.5 3.3
0 4 1 43.8 3.4
0 4 1 46.9 3.4
0 4 1 45.3 4.7
0 4 1 51.49 3.3
0 4 1 50.19 3.3
0 4 1 49.5 3.6
-1 -4 -1 138.99 6.3
-1 -4 -1 120.49 6.4
1 4 1 121.59 7
1 4 1 117.89 6.2
1 4 1 139.29 6.4
1 4 1 118.89 6.2
1 4 1 123.39 6.4
1 4 1 129.09 6.1
-2 -4 -1 4.6 2.2
-2 -4 -1 5.4 2.3
-2 -4 -1 0.5 2.5
2 4 1 8.5 3.5
2 4 1 5.8 2.6
2 4 1 9.2 2.5
2 4 1 2.3 1.8
-3 -4 -1 782.02 27.6
-3 -4 -1 719.53 27
-3 -4 -1 769.82 28.4
3 4 1 727.33 28.9
3 4 1 828.82 28.1
3 4 1 757.12 28
-4 -4 -1 98.39 7.5
-4 -4 -1 102.59 7
4 4 1 95.19 8.2
4 4 1 97.19 7.6
4 4 1 105.99 7.7
-5 -4 -1 267.27 13.2
-5 -4 -1 287.67 15.1
5 4 1 289.07 14.3
5 4 1 288.57 14
5 4 1 269.57 14.2
-6 -4 -1 13.6 4.4
-6 -4 -1 7.9 4.5
6 4 1 8.1 3.8
6 4 1 1.6 4.1
-9 5 1 -2.4 2.6
-9 5 1 5 3.1
-9 5 1 -4.8 4.3
-8 5 1 20 3.5
-8 5 1 16.1 3.5
-8 5 1 18 4.7
7 -5 -1 96.59 6.3
-7 5 1 93.69 6.1
-7 5 1 102.19 6
-7 5 1 108.49 7.5
6 -5 -1 3 2.2
-6 5 1 3.2 2.5
-6 5 1 2.1 1.9
-6 5 1 5.3 2.8
-6 5 1 3.9 2
5 -5 -1 20.6 2.3
5 -5 -1 17.9 2.6
-5 5 1 17 2.8
-5 5 1 17.4 2.7
-5 5 1 18.5 2.7
-5 5 1 21.7 2.5
-5 5 1 16.7 2.3
4 -5 -1 36.1 2.6
4 -5 -1 36 2.9
-4 5 1 31 2.9
-4 5 1 33 3
-4 5 1 36.6 3.5
-4 5 1 31.3 2.8
-4 5 1 36.2 2.7
3 -5 -1 0.5 1.1
3 -5 -1 0.5 1.3
-3 5 1 -0.1 1.2
-3 5 1 -0.9 1.3
-3 5 1 1.8 1.5
-3 5 1 1.1 1
2 -5 -1 355.16 12.8
2 -5 -1 359.96 12.5
-2 5 1 356.56 14.6
-2 5 1 351.46 12
-2 5 1 369.86 13.1
-2 5 1 350.36 13.1
-2 5 1 353.86 12
-2 5 1 347.07 12.8
-2 5 1 350.56 12.9
1 -5 -1 33.4 2.7
1 -5 -1 35 2.8
-1 5 1 36.1 4.1
-1 5 1 37.2 3.2
-1 5 1 34.4 3
-1 5 1 36.6 3.1
-1 5 1 36.7 2.5
-1 5 1 28.9 2.8
0 -5 -1 2.9 1.8
0 -5 -1 3.3 1.6
0 5 1 -0.8 1.7
0 5 1 2.4 1.7
0 5 1 1.8 1.5
0 5 1 3.5 2
0 5 1 -0.2 2
0 5 1 3.3 1.6
-1 -5 -1 2.6 1.9
-1 -5 -1 5.8 2.2
1 5 1 5.7 2.4
1 5 1 3.9 3.5
1 5 1 2.6 2.2
1 5 1 5.1 2.4
-2 -5 -1 11.8 3.3
-2 -5 -1 9.4 2.8
2 5 1 12.6 3.3
2 5 1 13.7 3
2 5 1 9.5 3.5
-3 -5 -1 19.2 3.7
-3 -5 -1 15.9 4.2
3 5 1 15.8 4
3 5 1 16.3 5.1
3 5 1 25 4.3
-4 -5 -1 24.1 4.3
-4 -5 -1 20.2 5.2
4 5 1 22.2 4.3
4 5 1 23.2 4.9
4 5 1 19.5 4.3
-5 -5 -1 49.3 6
-5 -5 -1 48.2 7.3
5 5 1 65.69 8.2
5 5 1 41.5 6.3
5 5 1 47.1 6.2
-9 6 1 -3.8 4.2
-9 6 1 -3 2.4
-9 6 1 -3.1 2.5
-8 6 1 15.4 3.3
-8 6 1 23.4 3.7
-8 6 1 9 4.5
-7 6 1 12.7 2.9
-7 6 1 11 3.7
-7 6 1 8.4 2.6
-6 6 1 45.7 4.5
-6 6 1 48.9 4
-6 6 1 44.9 5.4
-6 6 1 39.2 3.7
5 -6 -1 26.2 2.8
-5 6 1 27.4 3.3
-5 6 1 21.6 2.7
-5 6 1 25.3 2.8
-5 6 1 17 2.7
4 -6 -1 214.88 8.7
-4 6 1 220.78 8.8
-4 6 1 227.08 9.5
-4 6 1 215.08 8.5
-4 6 1 221.88 8.8
-4 6 1 222.98 9
3 -6 -1 59.29 3.5
-3 6 1 52.29 3.5
-3 6 1 53.39 2.7
-3 6 1 49.99 4
-3 6 1 49.9 3.5
-3 6 1 47.4 5.5
-3 6 1 54.99 3.7
2 -6 -1 3.9 1.6
2 -6 -1 3.8 1.4
-2 6 1 7.6 1.8
-2 6 1 4.4 3.3
-2 6 1 5 1.1
-2 6 1 2.4 1.1
-2 6 1 7.7 2
-2 6 1 7.5 1.8
-2 6 1 5.6 2.1
1 -6 -1 10.4 2.1
1 -6 -1 8.5 1.8
-1 6 1 4.2 2
-1 6 1 7.1 1.6
-1 6 1 8.4 2.3
-1 6 1 6.1 2.1
-1 6 1 9 2.9
-1 6 1 8.3 2.2
0 -6 -1 0 1.9
0 6 1 1.3 2.1
0 6 1 2.8 2.7
0 6 1 1.2 2.2
0 6 1 0.8 2.1
-1 -6 -1 6.1 2.5
1 6 1 7.9 2.9
1 6 1 7.9 3.5
1 6 1 10.8 3
-2 -6 -1 47.5 4.9
2 6 1 62.59 7.5
2 6 1 53.99 5.5
2 6 1 50.59 5.6
-3 -6 -1 1.2 3.3
-3 -6 -1 1.2 2.7
3 6 1 -1.1 3.5
3 6 1 -0.5 3.1
3 6 1 -2 3.3
-4 -6 -1 0.1 3.9
4 6 1 0.7 4.1
4 6 1 3.2 3.4
4 6 1 7.9 5.2
-9 7 1 32.9 4.3
-9 7 1 30.2 4.3
-8 7 1 77.19 5.8
-8 7 1 77.99 5.6
-8 7 1 84.79 8.4
-7 7 1 14.4 3.6
-7 7 1 17.2 2.9
-7 7 1 13.6 2.9
-6 7 1 51.69 4.1
-6 7 1 59.09 4.4
-6 7 1 57.99 5
-5 7 1 17 2.7
-5 7 1 28.1 3.6
-5 7 1 22.7 2.7
-5 7 1 17.7 2.6
-4 7 1 33.2 4.9
-4 7 1 40.3 3.4
-4 7 1 38.6 4
-4 7 1 35 3.2
-3 7 1 1043.7 35.4
-3 7 1 1006.1 34.7
-3 7 1 977.9 37.3
-3 7 1 1076.89 34.8
-2 7 1 7.9 4.1
-2 7 1 11.3 2.8
-2 7 1 8.1 2.2
-2 7 1 8 2.4
-1 7 1 11.1 2.6
-1 7 1 5.5 2.5
-1 7 1 8.4 3.4
0 7 1 50.09 4.7
0 7 1 46.5 6.7
0 7 1 45 4.6
1 7 1 26 4.1
1 7 1 26.1 4.1
1 7 1 27.4 5.3
2 7 1 -3.7 4.6
2 7 1 2.3 3
2 7 1 0.1 3.4
3 7 1 2.5 4
3 7 1 -5.2 5
3 7 1 -1.4 3.4
-8 8 1 37.4 4.3
-8 8 1 31.9 3.9
-7 8 1 -2 1.9
-6 8 1 18.6 2.8
-6 8 1 25.4 3.1
-5 8 1 266.87 10.6
-5 8 1 269.97 10.7
-5 8 1 249.18 13.3
-4 8 1 131.69 6.7
-4 8 1 157.68 10
-4 8 1 146.39 6.9
-3 8 1 58.89 4.3
-3 8 1 55.39 4.3
-3 8 1 51.29 6.8
-2 8 1 14.2 4.7
-2 8 1 11.3 2.7
-2 8 1 9.7 2.5
-1 8 1 -1.9 2.3
-1 8 1 1.6 3.3
-1 8 1 0.6 2.4
0 8 1 54.99 7.2
0 8 1 65.19 6.1
0 8 1 59.09 5.5
1 8 1 -0.1 3.2
1 8 1 3.6 4
1 8 1 10.9 3.5
2 8 1 15.6 4.6
2 8 1 9.2 6.4
2 8 1 4.4 3.6
-8 9 1 -0.5 2.1
-7 9 1 7 2.5
-6 9 1 104.49 6
-6 9 1 105.69 8.5
-6 9 1 103.79 5.9
-5 9 1 42.8 3.8
-5 9 1 42.8 3.9
-5 9 1 44 6.4
-4 9 1 2.7 2.1
-4 9 1 6 2.4
-4 9 1 7.1 4.6
-3 9 1 14.6 3.1
-3 9 1 19.5 4.6
-3 9 1 18.6 3
-2 9 1 11.7 4.3
-2 9 1 1.5 2.8
-2 9 1 8.4 2.8
-1 9 1 10.3 3.2
-1 9 1 17.4 6
-1 9 1 16.1 3.6
0 9 1 14 4.3
0 9 1 14.9 6.5
0 9 1 16.4 4.1
-6 10 1 15 4.6
-6 10 1 19.1 4.3
-6 10 1 9.4 2.6
-5 10 1 73.19 8.4
-5 10 1 52.89 4.4
-5 10 1 56.19 4.8
-4 10 1 3.8 2.3
-4 10 1 4.8 2.6
-4 10 1 12.3 5.2
-3 10 1 20.1 3.3
-3 10 1 19 3.7
-3 10 1 18.2 6.1
-2 10 1 6.3 4.4
-2 10 1 6.2 3
-2 10 1 5.9 3.3
-2 11 -2 -0.8 2.4
-2 11 -2 -5.4 3.3
-3 11 -2 18.8 5.9
-3 11 -2 14.3 2.6
-4 11 -2 15.2 4.5
-4 11 -2 11.9 2.1
-5 11 -2 29.7 6.2
-5 11 -2 20.4 2.2
0 10 -2 5.8 5.4
0 10 -2 5.4 3.2
0 10 -2 6.6 2.7
-1 10 -2 -1.3 2.4
-1 10 -2 -0.5 2
-1 10 -2 11.2 5.2
-2 10 -2 8 4.8
-2 10 -2 7.2 2.1
-2 10 -2 10.2 2.6
-3 10 -2 11 2.7
-3 10 -2 14 4.1
-3 10 -2 11.2 2.2
-4 10 -2 1.7 1.5
-4 10 -2 1.8 1.6
-4 10 -2 1.8 3.9
-5 10 -2 7.3 1.6
-5 10 -2 12.9 2.1
-5 10 -2 7.7 4.3
-6 10 -2 3 1.5
-7 10 -2 5.6 1.9
2 9 -2 -1.3 5.1
2 9 -2 0.2 3.4
2 9 -2 4.9 3.3
1 9 -2 70.29 8.6
1 9 -2 70.29 6.4
1 9 -2 74.59 6.1
0 9 -2 24.8 5.1
0 9 -2 21.7 3.4
0 9 -2 23.8 3.5
-1 9 -2 24.2 2.9
-1 9 -2 17.1 2.9
-1 9 -2 9.1 4.5
-2 9 -2 96.99 8
-2 9 -2 85.29 4.9
-2 9 -2 85.89 4.4
-2 9 -2 90.99 5
-3 9 -2 27.2 3.7
-3 9 -2 30.1 5.3
-3 9 -2 26.6 2.5
-3 9 -2 32.3 1.8
-3 9 -2 29.1 2.8
-4 9 -2 41.1 4.4
-4 9 -2 44.7 2.8
-4 9 -2 49.6 6
-4 9 -2 39.5 3.2
-5 9 -2 -1.1 1.1
-5 9 -2 0.5 2.1
-5 9 -2 3 1.6
-6 9 -2 28.3 3
-6 9 -2 22.2 4.3
-6 9 -2 26.4 2.5
-7 9 -2 15.6 2.4
-7 9 -2 12.2 3.7
-8 9 -2 1.8 2.2
3 8 -2 25.1 5
3 8 -2 33.6 5
3 8 -2 29.6 6.9
2 8 -2 -2.2 2.8
2 8 -2 -0.9 2.5
2 8 -2 -7.4 4
1 8 -2 -3.9 2.5
1 8 -2 0.1 2.6
1 8 -2 -5 3.7
0 8 -2 111.49 6.7
0 8 -2 137.79 6.7
0 8 -2 137.69 9.4
-1 8 -2 16.2 2.4
-1 8 -2 16.9 2.3
-1 8 -2 14.7 4.4
-1 8 -2 11.8 2.4
-2 8 -2 169.98 7.2
-2 8 -2 177.68 6.8
-2 8 -2 186.78 9.8
-2 8 -2 182.78 7.4
-3 8 -2 17.7 1.8
-3 8 -2 15.9 2
-3 8 -2 15.1 1.2
-3 8 -2 17.2 1.2
-3 8 -2 23.1 3.1
-3 8 -2 21.8 3.9
-4 8 -2 4.4 1.1
-4 8 -2 3.9 1.4
-4 8 -2 5.9 2.6
-5 8 -2 82.09 3.4
-5 8 -2 80.39 6
-5 8 -2 84.19 4.5
-5 8 -2 86.19 4.1
-6 8 -2 3.2 3.2
-6 8 -2 9.6 1.6
-6 8 -2 9.9 2
-6 8 -2 7.9 2.3
-7 8 -2 0.4 3
-7 8 -2 3 1.9
-7 8 -2 1.8 1.7
-8 8 -2 2.1 2.2
-8 8 -2 2.9 3.7
-8 8 -2 0.8 2
-9 8 -2 -0.1 2.3
-9 8 -2 -0.9 4.5
-9 8 -2 -1.1 2.5
4 7 -2 7.9 3.8
4 7 -2 14.5 5.4
4 7 -2 7 4.3
3 7 -2 -0.6 2.7
3 7 -2 -2.6 3
3 7 -2 -2.5 3.9
2 7 -2 30.9 4.2
2 7 -2 36.9 4.7
2 7 -2 35.7 6
1 7 -2 740.53 27
1 7 -2 782.02 27.7
1 7 -2 754.12 28.8
1 7 -2 754.92 26.8
0 7 -2 21.2 2.6
0 7 -2 19.8 3.9
0 7 -2 17.8 2.5
0 7 -2 19.7 2.8
0 -7 2 20.3 2.2
-1 7 -2 564.34 19.3
-1 7 -2 559.44 19.5
-1 7 -2 554.94 19.6
-1 7 -2 571.24 19.4
-1 7 -2 575.74 22
1 -7 2 567.04 18.9
-2 7 -2 165.58 6
-2 7 -2 157.68 6.3
-2 7 -2 154.08 8.4
-2 7 -2 155.28 5.9
-2 7 -2 164.18 6.2
-3 7 -2 160.38 5.4
-3 7 -2 162.88 8.1
-3 7 -2 154.68 6.1
-3 7 -2 164.98 8.9
-3 7 -2 161.58 5.9
-3 7 -2 159.28 5.4
-4 7 -2 12.9 1.1
-4 7 -2 12.8 1.4
-4 7 -2 15 1.8
-4 7 -2 11 2.7
-4 7 -2 14 1.1
-5 7 -2 21.7 3.7
-5 7 -2 25.8 2.3
-5 7 -2 28 2.8
-5 7 -2 32.2 2.2
-6 7 -2 5 2.3
-6 7 -2 7.1 1.7
-6 7 -2 4.4 1.8
-6 7 -2 3.6 2.9
-7 7 -2 95.59 5.3
-7 7 -2 94.49 5.5
-7 7 -2 112.49 8.2
-8 7 -2 7.5 2.6
-8 7 -2 7.9 4.2
-8 7 -2 11.3 2.7
-9 7 -2 28 4
-9 7 -2 40.1 7
-9 7 -2 32.1 4.3
5 6 -2 78.99 7.5
5 6 -2 86.69 8.5
5 6 -2 87.39 9.1
4 6 -2 99.39 7.5
4 6 -2 97.09 7.7
4 6 -2 101.19 8
-4 -6 2 95.89 6.6
3 6 -2 155.48 10.1
3 6 -2 144.89 8.7
3 6 -2 163.08 8.7
-3 -6 2 151.88 8
2 6 -2 71.99 5.6
2 6 -2 82.59 6.4
2 6 -2 77.59 5.2
2 6 -2 82.09 5.6
-2 -6 2 76.89 5
1 6 -2 27.1 2.9
1 6 -2 25.3 2.8
1 6 -2 20.8 3.1
1 6 -2 26.5 4.5
1 6 -2 22.6 2.9
-1 -6 2 25.7 2.7
-1 -6 2 25.6 2.3
0 6 -2 500.65 17.1
0 6 -2 499.45 17.2
0 6 -2 508.15 19.2
0 6 -2 470.25 17.3
0 6 -2 497.45 17.2
0 -6 2 458.65 18.2
-1 6 -2 -0.5 1
-1 6 -2 2.3 0.9
-1 6 -2 3.5 1.2
-1 6 -2 1.1 1
-1 6 -2 4 2.6
1 -6 2 2 0.7
-2 6 -2 71.19 2.8
-2 6 -2 73.39 5.4
-2 6 -2 75.09 3
-2 6 -2 73.59 2.8
-2 6 -2 72.69 3.1
-3 6 -2 73.19 4.9
-3 6 -2 74.19 2.6
-3 6 -2 72.69 3
-3 6 -2 73.49 3.2
-3 6 -2 72.29 2.6
-4 6 -2 55.59 2.8
-4 6 -2 55.69 3.2
-4 6 -2 46.4 4.3
-4 6 -2 49.2 2.6
-4 6 -2 54.19 2.6
4 -6 2 53.09 2.1
4 -6 2 52.69 2.1
-5 6 -2 233.38 8.9
-5 6 -2 234.98 9
-5 6 -2 258.97 11.3
-5 6 -2 228.48 8.8
-5 6 -2 239.98 9.4
5 -6 2 225.28 8.7
-6 6 -2 9.2 3.3
-6 6 -2 5.6 1.8
-6 6 -2 1.6 2.2
-6 6 -2 1.3 1.7
-7 6 -2 94.49 5.7
-7 6 -2 93.09 5.6
-7 6 -2 98.59 8.2
-8 6 -2 15.3 4.9
-8 6 -2 16.5 3.3
-8 6 -2 19.7 3.3
-9 6 -2 66.39 6
-9 6 -2 61.39 8.2
-9 6 -2 74.09 6.2
6 5 -2 -0.4 3
6 5 -2 -5.8 4.1
6 5 -2 3.9 4.2
-6 -5 2 -2.3 3.1
-6 -5 2 2.8 4.8
5 5 -2 7.1 3.4
5 5 -2 1.5 3.3
5 5 -2 2.2 3.9
-5 -5 2 1.4 3.2
-5 -5 2 -1.6 2.7
4 5 -2 332.47 14.4
4 5 -2 307.47 14.5
4 5 -2 299.07 13.8
-4 -5 2 310.57 15.2
-4 -5 2 317.27 13.2
3 5 -2 5.2 2.6
3 5 -2 6.4 3
3 5 -2 3.3 2.9
3 5 -2 2.6 2.9
-3 -5 2 4.6 2.3
-3 -5 2 3.9 2.2
2 5 -2 3.9 2.2
2 5 -2 5.5 3.2
2 5 -2 7.9 2.3
2 5 -2 5.4 1.9
2 5 -2 1.7 1.7
-2 -5 2 7.1 2
-2 -5 2 3.2 1.5
1 5 -2 185.08 7.9
1 5 -2 192.78 8
1 5 -2 188.88 8.9
1 5 -2 188.48 7.7
1 5 -2 185.78 7.6
-1 -5 2 187.28 7.5
-1 -5 2 180.68 7.2
0 5 -2 12 2.8
0 5 -2 13 1.6
0 5 -2 13.4 1.7
0 5 -2 11.3 1.7
0 5 -2 14 1.7
0 -5 2 14.1 1.2
-1 5 -2 107.99 4.1
-1 5 -2 109.29 6
-1 5 -2 110.59 4.2
-1 5 -2 110.59 4.1
-1 5 -2 102.89 4.2
1 -5 2 104.99 3.8
-2 5 -2 3.4 0.6
-3 5 -2 64.19 2.9
-3 5 -2 57.19 2.5
-3 5 -2 60.29 2.4
-3 5 -2 57.39 4.3
-3 5 -2 57.29 2.5
-4 5 -2 112.39 4.9
-4 5 -2 129.29 5
-4 5 -2 125.59 6.6
-4 5 -2 116.29 5
-4 5 -2 135.29 5.5
-5 5 -2 41.7 3.2
-5 5 -2 42 3.2
-5 5 -2 44.3 3.5
-5 5 -2 44.1 4.7
-5 5 -2 45.8 3.1
5 -5 2 43.8 3.2
-6 5 -2 89.69 4.9
-6 5 -2 85.69 5.3
-6 5 -2 75.89 6.9
-6 5 -2 94.99 5
6 -5 2 79.19 5
-7 5 -2 39.1 4
-7 5 -2 45.9 4.1
-7 5 -2 45.5 6
-8 5 -2 -1.6 2.2
-8 5 -2 -0.2 4.1
-8 5 -2 2.1 2.6
-9 5 -2 17.4 3.7
-9 5 -2 20.8 4
-9 5 -2 1.1 5.1
7 4 -2 3.3 3.4
7 4 -2 -3.8 3.5
-7 -4 2 -6.8 3.7
-7 -4 2 -6.7 3
6 4 -2 -0.9 2.8
6 4 -2 -3.1 3.5
6 4 -2 3.3 3.8
-6 -4 2 -0.9 3.2
-6 -4 2 -0.9 4.7
5 4 -2 -2 2.7
5 4 -2 4.8 3.8
5 4 -2 2.4 3.7
-5 -4 2 -0.1 4.2
-5 -4 2 6.7 2.9
4 4 -2 84.59 6.2
4 4 -2 86.79 6.6
4 4 -2 76.59 6
-4 -4 2 83.59 7.5
-4 -4 2 87.99 5.6
-4 -4 2 78.89 5.2
3 4 -2 31.2 4.4
3 4 -2 22.1 3.3
3 4 -2 37.5 4.1
3 4 -2 28.4 3
-3 -4 2 30 3.2
-3 -4 2 22.2 3.6
2 4 -2 112.49 5.7
2 4 -2 104.39 5.2
2 4 -2 114.39 5.3
2 4 -2 102.79 5.7
2 4 -2 108.49 6.4
-2 -4 2 98.49 5.1
-2 -4 2 95.89 4.9
1 4 -2 747.03 25.3
1 4 -2 732.53 25.3
1 4 -2 762.52 26.3
1 4 -2 742.53 25
1 4 -2 748.93 25
-1 -4 2 736.83 24.8
-1 -4 2 737.03 25
0 4 -2 357.86 12.4
0 4 -2 350.66 13.4
0 4 -2 365.06 12.3
0 4 -2 348.47 12.3
0 4 -2 369.56 12.5
0 -4 2 358.66 12.3
0 -4 2 363.36 12
0 -4 2 367.46 13.5
-1 4 -2 35.9 1.5
-1 4 -2 35.7 1.4
-1 4 -2 30.6 3.1
-1 4 -2 31.7 1.5
-1 4 -2 34.6 1.5
-2 4 -2 903.51 28.3
-2 4 -2 879.41 28.3
-2 4 -2 862.01 30.2
-2 4 -2 858.11 28.4
-2 4 -2 896.71 28.3
-3 4 -2 89.89 3.7
-3 4 -2 88.39 3.6
-3 4 -2 89.89 3.9
-3 4 -2 88.19 3.7
-3 4 -2 86.29 5
3 -4 2 87.99 3.6
3 -4 2 87.49 3.6
-4 4 -2 16.6 2.2
-4 4 -2 17.6 2
-4 4 -2 13 3
-4 4 -2 16.5 1.9
-4 4 -2 15.2 1.9
4 -4 2 14.7 1.8
4 -4 2 16.4 1.8
-5 4 -2 187.48 7.7
-5 4 -2 178.68 7.7
-5 4 -2 189.98 7.8
-5 4 -2 176.18 8
-5 4 -2 186.28 9.6
5 -4 2 188.98 7.8
5 -4 2 181.28 7.8
-6 4 -2 390.86 15.7
-6 4 -2 399.36 17.3
-6 4 -2 405.06 15.3
-6 4 -2 413.76 15.4
6 -4 2 386.76 18.4
6 -4 2 435.16 15.7
-7 4 -2 0.4 2.2
-7 4 -2 -0.1 3.7
-7 4 -2 2.2 2.5
7 -4 2 1.9 2.6
-8 4 -2 -0.2 2.5
-8 4 -2 -3.4 3
-8 4 -2 -0.8 2.5
-9 4 -2 11 3.7
-9 4 -2 12.7 5.8
-9 4 -2 8.8 3.5
8 3 -2 -0.1 4
8 3 -2 3.9 4.7
-8 -3 2 -1.2 6.1
-8 -3 2 -3.2 3.5
7 3 -2 -5.2 6.1
7 3 -2 2.1 4.1
7 3 -2 0.1 4
-7 -3 2 0.4 2.6
-7 -3 2 -2.6 5
6 3 -2 1.3 2.7
6 3 -2 -1.9 2.4
6 3 -2 -2.6 2.3
-6 -3 2 -2.7 4.4
-6 -3 2 0.2 2.8
5 3 -2 0.4 3.2
5 3 -2 -0.6 2.7
5 3 -2 1 3.3
-5 -3 2 1.2 4.1
-5 -3 2 3.4 2.7
-5 -3 2 1.4 2.4
4 3 -2 20.6 3
4 3 -2 18.3 3.6
4 3 -2 20.6 3.4
4 3 -2 14.5 3.6
-4 -3 2 19.4 3.7
-4 -3 2 21 3.1
-4 -3 2 18.3 2.6
3 3 -2 4.9 2.4
3 3 -2 6.3 2.3
3 3 -2 10.9 2.5
3 3 -2 10.5 2.2
3 3 -2 18.1 3.3
-3 -3 2 7.3 1.6
-3 -3 2 7.5 2
-3 -3 2 8.7 3.2
2 3 -2 87.49 4.4
2 3 -2 86.19 4.6
2 3 -2 93.99 5
2 3 -2 81.69 4.4
2 3 -2 89.49 4.8
-2 -3 2 89.69 4.4
-2 -3 2 86.19 5.8
1 3 -2 1039.6 34.1
1 3 -2 1056.09 34.7
1 3 -2 1014.3 33.8
1 3 -2 1038.7 34.9
1 3 -2 1027.8 33.9
1 3 -2 1019.9 34.1
-1 -3 2 1040.2 33.7
-1 -3 2 1000.7 33.8
-1 -3 2 1025.6 33.9
-1 -3 2 1015.8 34.5
-1 -3 2 1040.5 33.9
0 3 -2 659.13 20.6
0 3 -2 616.74 21.3
0 3 -2 620.54 20.5
0 3 -2 599.24 20.6
0 3 -2 625.94 20.5
0 -3 2 628.14 20.3
0 -3 2 628.54 21.3
0 -3 2 606.74 20.5
0 -3 2 648.94 20.4
-1 3 -2 0.1 0.2
-1 3 -2 0.2 0.2
-2 3 -2 247.18 8.4
-2 3 -2 243.48 8.4
-2 3 -2 254.97 8.5
-2 3 -2 251.07 9.9
-2 3 -2 247.78 8.4
2 -3 2 241.88 8.4
2 -3 2 229.08 8
2 -3 2 246.28 8
2 -3 2 247.08 8.3
-3 3 -2 876.61 29.2
-3 3 -2 883.01 29.9
-3 3 -2 862.21 30.4
-3 3 -2 910.61 29.1
-3 3 -2 880.21 29
-3 3 -2 864.51 29
3 -3 2 874.71 29.1
3 -3 2 830.22 29
3 -3 2 905.51 29
-4 3 -2 162.88 8.1
-4 3 -2 148.29 6.6
-4 3 -2 158.18 6.7
-4 3 -2 157.68 6.6
-4 3 -2 154.18 6.5
4 -3 2 147.19 6.6
4 -3 2 140.79 6.5
-5 3 -2 320.57 14.1
-5 3 -2 327.67 12.5
-5 3 -2 313.97 12.5
-5 3 -2 327.37 12.7
-5 3 -2 367.66 13.1
5 -3 2 318.47 12.7
5 -3 2 329.47 12.8
-6 3 -2 79.39 7.3
-6 3 -2 84.89 5.6
-6 3 -2 66.19 5
-6 3 -2 68.09 5
6 -3 2 78.79 5.9
6 -3 2 73.69 5.3
-7 3 -2 3.6 3.1
-7 3 -2 -0.4 2.1
-7 3 -2 3.9 2.6
7 -3 2 -3.2 2.3
-8 3 -2 -3.2 2.7
-8 3 -2 1.6 2.9
-8 3 -2 -2.6 3.1
8 -3 2 -3.5 2.8
-9 3 -2 3.8 5.9
-9 3 -2 7.2 3.6
-9 3 -2 2.1 3.5
8 2 -2 23.2 5.7
8 2 -2 31 6
-8 -2 2 19.5 4.6
-8 -2 2 13.7 6.8
7 2 -2 41.4 5.8
7 2 -2 43.1 6.1
7 2 -2 48.1 6.5
-7 -2 2 29.3 6.6
-7 -2 2 38.8 5.2
6 2 -2 -3.3 3.1
6 2 -2 2.7 2.6
6 2 -2 0.3 3.3
-6 -2 2 3.3 2.7
-6 -2 2 2 4.2
-6 -2 2 1.3 2.8
5 2 -2 16 2.7
5 2 -2 14.2 3.2
5 2 -2 15.1 3
5 2 -2 12.1 3
-5 -2 2 18.5 2.8
-5 -2 2 15.7 3.1
-5 -2 2 11.9 3.4
4 2 -2 594.24 22.2
4 2 -2 585.54 22.4
4 2 -2 681.63 22.4
4 2 -2 572.54 21.4
-4 -2 2 592.84 21.5
-4 -2 2 606.94 23.1
-4 -2 2 603.84 21.4
3 2 -2 70.39 4
3 2 -2 66.69 3.9
3 2 -2 63.09 4.3
3 2 -2 63.19 4.6
3 2 -2 55.89 4.5
-3 -2 2 63.09 5.4
-3 -2 2 63.29 3.8
-3 -2 2 56.39 3.8
-3 -2 2 66.29 4.8
2 2 -2 796.62 26.9
2 2 -2 762.72 27.1
2 2 -2 803.32 27
2 2 -2 798.82 27.8
2 2 -2 805.22 27.4
2 2 -2 786.42 27.3
-2 -2 2 803.12 27.2
-2 -2 2 791.62 27.1
-2 -2 2 889.61 27.1
-2 -2 2 805.22 27.4
-2 -2 2 800.92 27.9
1 2 -2 8949.7 294.17
1 2 -2 9014.1 294.27
1 2 -2 9362.06 293.57
1 2 -2 8890.01 294.67
1 2 -2 9283.47 296.37
-1 -2 2 8919.21 294.27
-1 -2 2 9037.9 293.97
-1 -2 2 9218.68 293.27
-1 -2 2 9325.87 295.67
-1 -2 2 9085.99 293.97
0 2 -2 381.26 12.9
0 2 -2 387.16 12.8
0 2 -2 403.86 13.1
0 2 -2 382.66 12.7
0 2 -2 372.16 12.7
0 -2 2 404.76 12.8
0 -2 2 377.76 13
0 -2 2 385.06 12.7
0 -2 2 376.76 12.8
-1 2 -2 568.44 18.5
-1 2 -2 585.74 18.6
-1 2 -2 571.34 18.6
-1 2 -2 548.45 18.6
1 -2 2 552.14 18.5
1 -2 2 552.44 18.5
1 -2 2 594.04 18.5
-2 2 -2 1604.64 52.09
-2 2 -2 1637.44 52.09
-2 2 -2 1580.74 51.99
-2 2 -2 1618.04 53.09
-2 2 -2 1626.44 51.99
-2 2 -2 1594.44 52.39
2 -2 2 1591.44 52.99
2 -2 2 1622.74 51.99
2 -2 2 1561.54 51.99
2 -2 2 1574.84 51.89
2 -2 2 1615.74 51.99
-3 2 -2 418.96 14.5
-3 2 -2 415.66 14.4
-3 2 -2 396.46 15.4
-3 2 -2 406.16 14.9
-3 2 -2 400.86 14.4
-3 2 -2 423.26 14.4
3 -2 2 402.16 14.4
3 -2 2 398.76 14.5
-4 2 -2 2436.86 79.69
-4 2 -2 2478.35 79.79
-4 2 -2 2440.06 79.89
-4 2 -2 2444.56 81.19
-4 2 -2 2484.85 79.89
4 -2 2 2421.46 79.89
4 -2 2 2367.96 79.89
4 -2 2 2443.86 80.59
-5 2 -2 20.2 2.8
-5 2 -2 18.6 2.5
-5 2 -2 21.9 3.1
-5 2 -2 16 3.8
5 -2 2 16.4 3.4
5 -2 2 20.5 3.1
-6 2 -2 3.2 2.5
-6 2 -2 2.4 3.7
-6 2 -2 3.3 2.4
6 -2 2 4.7 3.2
6 -2 2 5.5 2.7
-7 2 -2 1.1 2.7
-7 2 -2 0.5 4.2
-7 2 -2 -0.3 2.6
7 -2 2 1.3 3
-8 2 -2 -2.9 2.3
-8 2 -2 1.5 2.9
-8 2 -2 1.2 5
8 -2 2 0.8 3.5
-9 2 -2 27.1 4.6
-9 2 -2 24.1 6.3
-9 2 -2 29.6 5
9 1 -2 -2 2.9
9 1 -2 -6.3 4.1
-9 -1 2 -3 3.6
-9 -1 2 -0.7 4.7
8 1 -2 21.4 5.5
8 1 -2 20.3 5.3
-8 -1 2 17 4.4
-8 -1 2 16 5.1
7 1 -2 38.3 5.3
7 1 -2 30.4 5.2
7 1 -2 32.7 5.2
-7 -1 2 25.8 5.2
-7 -1 2 22.3 4.3
-7 -1 2 37.5 4.3
6 1 -2 7.9 3.6
6 1 -2 6.3 3.5
6 1 -2 2.6 3.1
-6 -1 2 9.6 2.8
-6 -1 2 7.8 3
-6 -1 2 13.2 4.6
5 1 -2 18.2 3.5
5 1 -2 16.3 2.9
5 1 -2 21.6 3.8
-5 -1 2 20.6 2.6
-5 -1 2 14.8 2.8
-5 -1 2 20.1 3.8
4 1 -2 136.99 7.2
4 1 -2 132.59 6.7
4 1 -2 155.28 7.4
4 1 -2 139.39 6.4
-4 -1 2 141.49 6.7
-4 -1 2 135.19 6.2
-4 -1 2 135.79 6.5
-4 -1 2 136.79 8
3 1 -2 353.36 13.2
3 1 -2 361.26 13.8
3 1 -2 362.16 13.3
3 1 -2 362.36 13.9
3 1 -2 352.36 13.6
-3 -1 2 428.86 13.5
-3 -1 2 373.26 14.3
-3 -1 2 359.86 13.7
-3 -1 2 385.66 13.9
-3 -1 2 354.66 13.4
2 1 -2 165.78 6.8
2 1 -2 162.68 6.7
2 1 -2 166.78 6.3
2 1 -2 162.48 6.7
2 1 -2 176.98 6.5
2 1 -2 162.08 7.2
-2 -1 2 161.18 7.1
-2 -1 2 161.08 6.4
-2 -1 2 163.98 6.7
-2 -1 2 166.08 6.6
-2 -1 2 160.78 6.6
-2 -1 2 161.28 6.5
1 1 -2 527.05 17.9
1 1 -2 538.05 18.2
1 1 -2 537.05 18.1
1 1 -2 526.05 17.9
1 1 -2 538.25 17.8
-1 -1 2 541.15 17.9
-1 -1 2 526.75 17.9
-1 -1 2 528.25 18.1
-1 -1 2 580.44 18.1
0 1 -2 3338.97 98.49
0 1 -2 2940.11 98.49
0 1 -2 3022.1 98.49
0 -1 2 3035.6 98.49
0 -1 2 2990.2 98.79
-1 1 -2 248.08 8.7
-1 1 -2 244.68 8.7
-1 1 -2 247.68 8.6
-1 1 -2 286.27 8.8
-1 1 -2 243.28 8.6
-1 1 -2 249.18 9.4
1 -1 2 227.98 8.8
1 -1 2 242.18 8.6
1 -1 2 234.38 8.6
1 -1 2 235.38 8.6
1 -1 2 242.08 8.6
-2 1 -2 4771.32 152.88
-2 1 -2 4868.31 153.78
-2 1 -2 4652.03 152.88
-2 1 -2 4772.22 153.18
-2 1 -2 4540.65 152.88
-2 1 -2 4780.02 152.98
2 -1 2 4777.72 153.18
2 -1 2 4854.81 152.98
2 -1 2 4801.62 153.68
2 -1 2 4671.93 152.98
2 -1 2 4795.82 152.88
-3 1 -2 2103.59 70.49
-3 1 -2 2224.18 70.69
-3 1 -2 2156.18 71.59
-3 1 -2 2182.98 70.69
-3 1 -2 2192.78 70.69
-3 1 -2 2261.17 71.89
3 -1 2 2155.78 71.09
3 -1 2 2116.29 70.69
3 -1 2 2065.09 71.29
3 -1 2 2143.59 70.59
-4 1 -2 430.16 16
-4 1 -2 448.96 16.4
-4 1 -2 431.86 17.5
-4 1 -2 437.86 16.2
4 -1 2 434.36 16.9
4 -1 2 444.06 16.5
4 -1 2 445.26 16.4
-5 1 -2 92.59 5.8
-5 1 -2 93.09 5.8
-5 1 -2 90.59 7.4
-5 1 -2 92.89 6
5 -1 2 94.29 6.1
5 -1 2 101.99 6.8
5 -1 2 131.89 6.8
-6 1 -2 79.39 5.8
-6 1 -2 74.49 6.9
-6 1 -2 76.49 5.9
6 -1 2 87.99 6.5
6 -1 2 80.99 6.4
6 -1 2 79.79 6.8
-7 1 -2 -1.8 4.4
-7 1 -2 2.1 2.8
-7 1 -2 -1.1 2.2
7 -1 2 1.2 2.4
7 -1 2 -0.7 3.4
-8 1 -2 12.5 3.8
-8 1 -2 6.9 3.9
-8 1 -2 1.1 5.5
8 -1 2 16.2 5.1
8 -1 2 11.8 3.6
9 0 -2 -1.9 3.9
-9 0 2 1.8 3.7
-9 0 2 -0.4 5.7
8 0 -2 138.99 9.3
8 0 -2 161.68 10
-8 0 2 162.88 9.6
-8 0 2 175.08 9.4
-8 0 2 164.98 12.3
7 0 -2 41.1 5.4
7 0 -2 31.2 4.8
7 0 -2 34.2 5.1
-7 0 2 39 6.5
-7 0 2 45.5 4.8
-7 0 2 35.6 4.7
6 0 -2 -0.5 1.9
6 0 -2 4 2.3
6 0 -2 -1.4 2.5
-6 0 2 -0.3 2.3
-6 0 2 5.7 4.1
-6 0 2 0.1 2.3
5 0 -2 37.3 4.3
5 0 -2 29.5 3.6
5 0 -2 27.4 3.5
-5 0 2 41.6 4.9
-5 0 2 30.7 3.4
-5 0 2 42.5 4.2
-5 0 2 41 3.6
4 0 -2 89.69 5.4
4 0 -2 89.19 4.6
4 0 -2 89.59 5.2
4 0 -2 93.09 5.6
-4 0 2 93.89 6.4
-4 0 2 100.69 5
-4 0 2 91.69 5.1
-4 0 2 111.89 5.8
3 0 -2 79.09 3.9
3 0 -2 61.69 4.1
3 0 -2 65.09 4
3 0 -2 71.59 4.1
3 0 -2 71.49 3.7
3 0 -2 61.39 4
-3 0 2 72.29 4.3
-3 0 2 64.09 3.4
-3 0 2 68.49 3.6
-3 0 2 65.19 3.7
-3 0 2 58.19 3.9
-3 0 2 59.49 4.1
2 0 -2 1053.79 35
2 0 -2 1052.99 35.1
2 0 -2 1066.49 35.1
2 0 -2 1045.3 34.7
2 0 -2 1054.49 34.6
-2 0 2 1106.79 34.9
-2 0 2 1072.69 35.1
-2 0 2 1045.7 34.8
-2 0 2 1006.5 34.9
-2 0 2 1045.4 34.7
-2 0 2 1060.89 35.1
1 0 -2 2589.44 82.09
1 0 -2 2498.75 81.89
1 0 -2 2485.55 82.09
1 0 -2 2530.05 81.79
-1 0 2 2583.14 81.99
-1 0 2 2566.44 81.89
-1 0 2 2568.04 82.09
-1 0 2 2505.45 81.89
0 0 -2 20.2 1.7
0 0 -2 20.5 2
0 0 -2 21.8 1.8
0 0 -2 22.9 2
0 0 -2 18.4 1.7
0 0 -2 24.3 1.9
0 0 2 22.3 1.7
0 0 2 19.2 1.6
0 0 2 22.8 2.1
0 0 2 22.9 1.7
0 0 2 23 1.6
-1 0 -2 32.9 2.6
-1 0 -2 34.4 2.6
-1 0 -2 36.5 2.6
-1 0 -2 36.5 2.9
-1 0 -2 35.4 2.4
-1 0 -2 33.7 2.6
1 0 2 36.1 2.4
1 0 2 36.3 2.6
1 0 2 37.3 2.7
1 0 2 36.7 2.6
1 0 2 36.6 2.6
1 0 2 38.1 2.9
-2 0 -2 46.8 3.4
-2 0 -2 52.29 3.1
-2 0 -2 53.89 3.4
-2 0 -2 50.49 3.6
-2 0 -2 50.69 3.1
-2 0 -2 50.89 3.6
2 0 2 47 3.6
2 0 2 54.29 3.5
2 0 2 50.49 3.5
2 0 2 48.1 3.1
2 0 2 56.79 3.9
2 0 2 55.29 3.3
-3 0 -2 691.83 25.3
-3 0 -2 739.63 26.2
-3 0 -2 724.73 25.2
-3 0 -2 722.53 25.3
3 0 2 699.73 25.3
3 0 2 719.93 25.5
3 0 2 823.32 25.5
3 0 2 729.13 25.8
-4 0 -2 25.3 2.9
-4 0 -2 30.2 3.5
-4 0 -2 22 3.5
-4 0 -2 30.7 3.4
4 0 2 26.4 3.8
4 0 2 27.5 3.6
4 0 2 27.9 3.5
-5 0 -2 1.2 1.8
-5 0 -2 -0.5 1.7
-5 0 -2 0.2 2.4
-5 0 -2 -0.5 3.5
5 0 2 0.6 2.9
5 0 2 -1.1 2.4
5 0 2 2.1 2.4
-6 0 -2 50.59 6.9
-6 0 -2 74.49 5.8
-6 0 -2 60.79 5.5
6 0 2 53.49 6.4
6 0 2 58.09 6.1
-7 0 -2 13.7 3.2
-7 0 -2 13.1 4.5
-7 0 -2 8.1 3.7
7 0 2 8.9 4
7 0 2 16.2 4.8
-8 0 -2 2.8 6
-8 0 -2 4 3.9
8 0 2 6.2 4.1
8 0 2 10.4 4.6
9 -1 -2 5 4.4
-9 1 2 1.8 3.3
-9 1 2 2.4 3.5
-9 1 2 2 4.2
8 -1 -2 96.19 7.7
-8 1 2 67.79 8.4
-8 1 2 83.29 6.2
-8 1 2 86.69 6.6
7 -1 -2 135.49 9.5
7 -1 -2 153.38 8.7
-7 1 2 131.49 9.9
-7 1 2 133.49 7.8
-7 1 2 130.39 7.6
6 -1 -2 305.97 13.2
6 -1 -2 301.17 13.4
-6 1 2 287.17 12.5
-6 1 2 317.47 14.1
-6 1 2 344.17 13.7
-6 1 2 317.57 12.6
5 -1 -2 47.3 4.4
5 -1 -2 44.8 4.2
-5 1 2 45.7 4.8
-5 1 2 39.3 3.7
-5 1 2 46.4 4.4
-5 1 2 44 3.3
4 -1 -2 -0.6 1.8
4 -1 -2 0.3 1.5
4 -1 -2 -1 1.9
-4 1 2 0.1 1.7
-4 1 2 0.1 1.1
-4 1 2 0.3 1.9
-4 1 2 -0.3 1.6
-4 1 2 1.3 2.3
3 -1 -2 324.07 12.2
3 -1 -2 328.37 11.6
3 -1 -2 342.67 11.9
3 -1 -2 335.77 12.4
3 -1 -2 317.87 12.1
-3 1 2 334.87 12.4
-3 1 2 331.57 11.8
-3 1 2 324.47 12.2
-3 1 2 315.57 11.8
-3 1 2 328.87 12.1
-3 1 2 324.47 12.3
2 -1 -2 438.26 15.4
2 -1 -2 428.76 15.4
2 -1 -2 488.15 15.9
2 -1 -2 433.86 15.8
2 -1 -2 489.05 15.6
-2 1 2 435.26 15.5
-2 1 2 454.55 15.9
-2 1 2 423.86 15.4
-2 1 2 476.95 15.8
-2 1 2 471.25 15.6
1 -1 -2 29.3 2.4
1 -1 -2 31 2.2
1 -1 -2 28.9 2.2
1 -1 -2 32.5 2.5
-1 1 2 30.8 2.5
-1 1 2 27.8 2.4
-1 1 2 30.9 2
0 -1 -2 39.4 2.3
0 -1 -2 38.1 2.3
0 -1 -2 40.6 2.8
0 -1 -2 41.8 2.7
0 -1 -2 37.7 2.7
0 -1 -2 36 2.9
0 1 2 36.3 2.4
0 1 2 44.3 2.8
0 1 2 41.8 2.9
0 1 2 41.6 2.9
0 1 2 37.4 2.7
0 1 2 43.5 2.8
-1 -1 -2 1248.98 43.2
-1 -1 -2 1345.37 43.4
-1 -1 -2 1324.37 43.4
-1 -1 -2 1322.37 43.4
-1 -1 -2 1294.77 43.3
-1 -1 -2 1327.57 43.6
1 1 2 1365.16 43.4
1 1 2 1312.67 43.4
1 1 2 1314.87 43.4
1 1 2 1280.87 43.6
1 1 2 1300.27 43.4
1 1 2 1324.27 43.4
-2 -1 -2 273.27 10.5
-2 -1 -2 274.67 10.6
-2 -1 -2 267.77 10.8
-2 -1 -2 275.27 10.5
2 1 2 269.97 11
2 1 2 286.47 10.7
2 1 2 252.77 10.4
2 1 2 271.67 10.8
2 1 2 255.57 10.3
-3 -1 -2 0.1 2.4
-3 -1 -2 -0.2 1.3
-3 -1 -2 0.4 1.9
-3 -1 -2 -0.8 1.9
3 1 2 0 1.8
3 1 2 -2.9 2
3 1 2 -0.4 2.3
3 1 2 -0.7 1.5
-4 -1 -2 -1.5 2.8
-4 -1 -2 1.9 1.8
-4 -1 -2 -1 2
4 1 2 -0.8 1.8
4 1 2 1.8 1.9
4 1 2 2.4 2.8
-5 -1 -2 25 5.1
-5 -1 -2 21 3.7
-5 -1 -2 29.8 3.8
5 1 2 26.9 4.7
5 1 2 23.5 3.8
5 1 2 32.4 4.2
-6 -1 -2 44 5.3
-6 -1 -2 40.6 6.6
-6 -1 -2 40.1 4.6
6 1 2 37.5 5.4
6 1 2 51.69 6
-7 -1 -2 3.5 2.9
-7 -1 -2 0.7 5.4
7 1 2 9.2 4.3
7 1 2 6.9 4.4
9 -2 -2 133.89 9.4
-9 2 2 138.99 8.9
-9 2 2 106.19 10.8
-9 2 2 132.39 8.6
8 -2 -2 122.59 8.3
-8 2 2 135.59 7.8
-8 2 2 119.29 10.2
-8 2 2 118.39 7.8
7 -2 -2 8.8 3.3
-7 2 2 15.3 4.6
-7 2 2 6.8 2.9
-7 2 2 11.1 2.9
6 -2 -2 17.7 3.3
6 -2 -2 14 2.7
-6 2 2 13.5 2.7
-6 2 2 19.8 3
-6 2 2 11.6 3.7
-6 2 2 15.4 3.4
5 -2 -2 425.16 15.5
-5 2 2 405.86 14.9
-5 2 2 392.96 15.4
-5 2 2 394.26 14.9
-5 2 2 383.86 15.6
4 -2 -2 423.66 15.7
4 -2 -2 417.86 15.7
-4 2 2 438.46 15.4
-4 2 2 432.56 15.7
-4 2 2 444.86 16
-4 2 2 421.66 15.3
-4 2 2 415.36 15.8
3 -2 -2 5.4 1.4
3 -2 -2 6.1 1.8
3 -2 -2 6.1 1.6
-3 2 2 5.4 1.7
-3 2 2 5.6 1.7
-3 2 2 3.3 1.5
-3 2 2 7.3 2
-3 2 2 6 1.5
2 -2 -2 0.1 1
2 -2 -2 1 1.4
2 -2 -2 7.5 1.5
2 -2 -2 -0.1 0.7
-2 2 2 0.3 1.2
-2 2 2 -0.1 1.4
-2 2 2 -0.2 1.5
-2 2 2 0.8 0.8
-2 2 2 0.1 1.2
1 -2 -2 791.72 27.2
1 -2 -2 839.42 27
-1 2 2 808.72 27.1
-1 2 2 818.72 27.3
-1 2 2 802.32 27.2
-1 2 2 827.62 27.7
-1 2 2 800.42 27.1
0 -2 -2 465.65 16.6
0 -2 -2 503.85 17.2
0 -2 -2 470.95 16.6
0 -2 -2 468.55 16.7
0 -2 -2 473.25 16.2
0 -2 -2 483.55 16.5
0 2 2 467.85 16.8
0 2 2 469.45 16.1
0 2 2 488.05 16.7
0 2 2 480.25 17.2
0 2 2 478.05 16.6
0 2 2 467.35 16.6
-1 -2 -2 42.9 3.3
-1 -2 -2 40.5 3.1
-1 -2 -2 37.6 2.9
-1 -2 -2 56.19 3.4
1 2 2 40.5 3
1 2 2 42 3.1
1 2 2 45.5 3.5
1 2 2 42.9 4.1
1 2 2 42.2 3.1
1 2 2 43.6 3.4
-2 -2 -2 337.27 12.7
-2 -2 -2 319.47 12.9
-2 -2 -2 323.17 12.4
2 2 2 318.87 13.3
2 2 2 328.47 12.6
2 2 2 323.17 12.6
2 2 2 328.47 12.8
-3 -2 -2 262.87 10.4
-3 -2 -2 246.88 11.1
-3 -2 -2 240.58 10.6
3 2 2 242.88 10.9
3 2 2 240.88 11.4
3 2 2 242.78 10.8
3 2 2 254.07 10.7
-4 -2 -2 62.69 4.8
-4 -2 -2 58.39 4.5
-4 -2 -2 62.79 6.4
4 2 2 57.49 5.3
4 2 2 60.09 5.3
4 2 2 59.59 6.3
-5 -2 -2 0.4 2.1
-5 -2 -2 -0.8 2.9
-5 -2 -2 -2.2 2.1
5 2 2 -2.9 3.1
5 2 2 -3.1 3.4
5 2 2 -1.7 2.3
-6 -2 -2 2.4 3.4
-6 -2 -2 -2.6 4.6
6 2 2 11.3 4.4
6 2 2 6.3 4
-7 -2 -2 -1.8 4.2
-7 -2 -2 -3.8 3.2
7 2 2 7.2 4.2
7 2 2 2.5 4.5
-10 3 2 -0.2 2.3
-10 3 2 0 5.9
9 -3 -2 14.5 4
-9 3 2 4.9 3.3
-9 3 2 -3.1 4.9
-9 3 2 8.4 3.6
8 -3 -2 9 3.5
-8 3 2 -3.5 4.2
-8 3 2 0.1 2.5
-8 3 2 0.2 2.6
7 -3 -2 10.2 3.2
-7 3 2 14.2 3.2
-7 3 2 15 4.4
-7 3 2 11.4 3
6 -3 -2 1.6 2.2
6 -3 -2 4.2 2.3
-6 3 2 4.1 2
-6 3 2 -0.5 2.2
-6 3 2 -0.2 2.7
-6 3 2 2.6 1.6
5 -3 -2 41.5 3.7
5 -3 -2 32.7 3.4
-5 3 2 34.3 3.4
-5 3 2 33.6 3.1
-5 3 2 31.3 3.8
-5 3 2 37.2 3.8
-5 3 2 33.1 3.2
4 -3 -2 143.49 6.6
4 -3 -2 142.09 6.2
4 -3 -2 142.89 6.5
-4 3 2 147.09 6.6
-4 3 2 144.09 6.9
-4 3 2 130.69 6.2
-4 3 2 141.89 6.2
-4 3 2 131.89 6.3
3 -3 -2 14.1 1.6
3 -3 -2 14.7 2.2
3 -3 -2 14.3 2.2
-3 3 2 11.6 1.9
-3 3 2 15.6 2.1
-3 3 2 13.7 1.9
-3 3 2 17 1.8
-3 3 2 13.9 2.3
2 -3 -2 123.79 5.6
2 -3 -2 122.49 5.4
-2 3 2 116.49 5.6
-2 3 2 128.19 5.6
-2 3 2 108.09 5.2
1 -3 -2 10.2 1.8
1 -3 -2 6.7 1.8
-1 3 2 9 1.7
-1 3 2 9.1 1.8
-1 3 2 11.3 2
-1 3 2 5.7 2.5
-1 3 2 10.9 1.9
0 -3 -2 240.98 9.8
0 -3 -2 251.97 9.2
0 3 2 256.77 10.7
0 3 2 251.87 9.8
0 3 2 252.97 9.9
0 3 2 239.58 9.7
0 3 2 242.88 9.7
0 3 2 253.07 9.1
-1 -3 -2 983.3 34.6
-1 -3 -2 1007.7 34.6
-1 -3 -2 1144.69 34.8
1 3 2 1013.6 34.8
1 3 2 1040.3 34.8
1 3 2 996.6 35.6
1 3 2 1009.7 34.4
1 3 2 969.9 34.8
-2 -3 -2 -2 1.7
-2 -3 -2 -0.9 2
-2 -3 -2 3.8 2.8
2 3 2 -0.3 1.5
2 3 2 0.7 2.8
2 3 2 1.8 1.7
2 3 2 6.8 2.5
-3 -3 -2 30.5 4
-3 -3 -2 35 4.7
-3 -3 -2 26 3.6
3 3 2 23.3 4
3 3 2 39.1 4.8
3 3 2 35.5 4.3
3 3 2 45.6 4.6
-4 -3 -2 35.1 4.3
-4 -3 -2 29.9 4.3
-4 -3 -2 30.5 5.3
4 3 2 31.4 5.5
4 3 2 24.8 4.4
4 3 2 25.4 4
-5 -3 -2 3.3 3.4
-5 -3 -2 1.5 4.5
5 3 2 6.4 3.1
5 3 2 5.9 3.4
5 3 2 8.4 3.5
-6 -3 -2 159.68 9.7
-6 -3 -2 161.78 12.4
6 3 2 178.38 11.2
6 3 2 161.48 10.7
-10 4 2 11.6 4.1
-10 4 2 -5.6 5.5
-10 4 2 12.2 4
-9 4 2 8.2 3.2
-9 4 2 -2.9 4.5
-9 4 2 4.6 3.3
8 -4 -2 24.3 4.2
-8 4 2 19.4 3.6
-8 4 2 28.3 4
-8 4 2 18.6 5
7 -4 -2 0.1 2.5
-7 4 2 2.2 2.2
-7 4 2 1.1 3.1
-7 4 2 1.5 2.3
6 -4 -2 1.8 2.1
6 -4 -2 5.3 2.3
-6 4 2 2.2 2.6
-6 4 2 -1.2 1.8
-6 4 2 3.5 2.1
-6 4 2 0.8 2.4
5 -4 -2 84.39 5.3
5 -4 -2 75.99 4.8
5 -4 -2 82.49 5
-5 4 2 78.89 4.7
-5 4 2 85.69 5.4
-5 4 2 83.29 4.7
-5 4 2 87.29 5
-5 4 2 79.89 5
4 -4 -2 65.99 4
4 -4 -2 68.89 4.2
4 -4 -2 67.99 3.7
-4 4 2 65.59 4
-4 4 2 66.89 4.3
-4 4 2 70.19 4
-4 4 2 77.29 4.7
-4 4 2 63.69 3.8
3 -4 -2 6.1 1.6
3 -4 -2 3.6 1.7
-3 4 2 4.3 1.6
-3 4 2 4.7 0.9
-3 4 2 3.8 1.7
-3 4 2 5.2 2
2 -4 -2 18.3 2.3
2 -4 -2 18.6 2.3
-2 4 2 20.8 2.3
-2 4 2 23.8 2.6
-2 4 2 18.2 2.5
-2 4 2 18.6 2.3
-2 4 2 20.2 3
1 -4 -2 50.69 3.3
1 -4 -2 46.7 3.5
-1 4 2 46.1 3.5
-1 4 2 46.8 3.4
-1 4 2 45.2 3.4
-1 4 2 48.9 2.1
-1 4 2 40.8 3.9
-1 4 2 57.99 3.9
0 -4 -2 529.95 19.2
0 -4 -2 533.35 19.3
0 -4 -2 546.35 18.7
0 4 2 558.04 18.6
0 4 2 544.25 19.6
0 4 2 522.15 19.4
0 4 2 538.45 20.6
0 4 2 546.45 19.4
0 4 2 534.25 19.4
-1 -4 -2 18.7 2.7
-1 -4 -2 19.6 2.9
1 4 2 21.6 3.1
1 4 2 16.6 3
1 4 2 24.3 4.2
1 4 2 18.2 2.6
1 4 2 23 3.2
-2 -4 -2 81.29 5.3
-2 -4 -2 73.89 6.2
-2 -4 -2 72.89 5.4
2 4 2 80.99 6
2 4 2 85.09 7.1
2 4 2 75.29 5.2
2 4 2 82.29 6.4
-3 -4 -2 279.47 13.5
-3 -4 -2 326.97 13.2
3 4 2 288.17 13.3
3 4 2 307.57 13.4
3 4 2 262.47 13.6
-4 -4 -2 23 4.3
-4 -4 -2 18.2 4.8
4 4 2 25.7 4.9
4 4 2 22.6 5.3
4 4 2 19.9 4.4
-5 -4 -2 102.79 7.9
-5 -4 -2 79.19 8.6
5 4 2 89.49 8.6
5 4 2 81.89 8.1
5 4 2 107.99 8.5
-9 5 2 3.8 4.7
-9 5 2 9.9 3.4
-9 5 2 7.2 3
-8 5 2 34.2 4.4
-8 5 2 39.4 4.5
-8 5 2 36.6 5.6
7 -5 -2 21.2 3.6
-7 5 2 23.2 3.6
-7 5 2 21.3 4.1
-7 5 2 17.6 3.2
6 -5 -2 14.3 3
-6 5 2 16.9 2.8
-6 5 2 17.7 2.8
-6 5 2 14.1 3.2
5 -5 -2 14.1 2.3
5 -5 -2 12 2.5
5 -5 -2 13.1 2.1
-5 5 2 12.9 2.8
-5 5 2 10.8 2.4
-5 5 2 13.4 2.4
-5 5 2 13.5 2.4
-5 5 2 11.2 2.4
4 -5 -2 77.99 4.4
4 -5 -2 66.59 4.1
-4 5 2 72.99 4.5
-4 5 2 75.49 4.9
-4 5 2 62.99 3.5
-4 5 2 66.29 4.1
3 -5 -2 28.9 2.7
3 -5 -2 35.5 3.2
-3 5 2 28.7 2.8
-3 5 2 32.5 3.1
-3 5 2 32.1 2.9
-3 5 2 27.6 3.2
2 -5 -2 46.3 3.4
2 -5 -2 43.6 3.3
-2 5 2 40.5 3.7
-2 5 2 41.6 3.4
-2 5 2 47.7 3.5
-2 5 2 43.2 5
-2 5 2 42.5 3.4
1 -5 -2 -1.3 1.3
1 -5 -2 0.9 1.7
-1 5 2 0.6 1.7
-1 5 2 0.4 1.8
-1 5 2 2 2.8
-1 5 2 4.4 1.9
-1 5 2 2 1.7
-1 5 2 1.2 0.8
0 -5 -2 22.1 2.9
0 -5 -2 21.6 3
0 5 2 19.2 3
0 5 2 15.8 3.5
0 5 2 17.2 3
0 5 2 20 3.2
0 5 2 21.6 2.3
-1 -5 -2 8 2.6
-1 -5 -2 6.8 2.5
1 5 2 8.5 2.9
1 5 2 8.2 2.8
1 5 2 6.3 3.1
-2 -5 -2 17.8 3.9
-2 -5 -2 24 3.8
2 5 2 12.2 3.7
2 5 2 21.1 5.3
2 5 2 22.7 4
-3 -5 -2 85.29 6.6
-3 -5 -2 77.79 7.2
3 5 2 83.49 7.4
3 5 2 76.79 8.3
3 5 2 77.99 7.2
-4 -5 -2 1.5 3.4
-4 -5 -2 -9.9 3.6
4 5 2 10.2 4.3
4 5 2 2.3 3.4
4 5 2 -3 3.8
-5 -5 -2 -1.9 5
-5 -5 -2 20.7 4.9
5 5 2 21.2 6
5 5 2 18 5.3
-9 6 2 254.57 11.8
-9 6 2 254.27 11.9
-9 6 2 229.58 13.8
-8 6 2 93.39 6.2
-8 6 2 88.39 6.1
-8 6 2 72.09 7.2
-7 6 2 3.9 2.7
-7 6 2 -0.9 3.1
-7 6 2 -0.1 2.3
-6 6 2 45.2 4
-6 6 2 30.4 3.8
-6 6 2 42.2 4.1
5 -6 -2 2.5 2.1
-5 6 2 -0.8 1.7
-5 6 2 5.8 2.5
-5 6 2 2 1.9
4 -6 -2 376.06 14.4
-4 6 2 395.96 14.5
-4 6 2 383.66 15.2
3 -6 -2 56.89 4.1
3 -6 -2 55.29 3.7
-3 6 2 56.29 4.7
-3 6 2 55.69 5.2
-3 6 2 58.79 4.1
-3 6 2 64.09 6
-3 6 2 58.19 4
2 -6 -2 -0.5 1.8
2 -6 -2 4.7 1.8
-2 6 2 1.5 2
-2 6 2 3.4 2.5
-2 6 2 1.1 1.8
-2 6 2 2.7 2.1
1 -6 -2 38.9 3.9
-1 6 2 46.9 4.2
-1 6 2 40 5.6
-1 6 2 44.3 4.9
-1 6 2 44.8 4.2
0 -6 -2 9.7 2.7
0 6 2 8.6 2.8
0 6 2 13.4 3.8
0 6 2 10.4 3
-1 -6 -2 4 2.6
1 6 2 10.1 3.2
1 6 2 1.6 2.2
1 6 2 7.2 4.5
-2 -6 -2 38.1 4.8
2 6 2 32 4.9
2 6 2 36.2 5.9
2 6 2 41 5
-3 -6 -2 29 6
3 6 2 24.8 5.3
3 6 2 29.9 6.8
3 6 2 32.4 5.2
4 6 2 4 4.2
4 6 2 0.7 3.4
4 6 2 6.9 4.7
-9 7 2 -1.1 2.9
-9 7 2 5.4 3.1
-8 7 2 331.67 13.8
-8 7 2 317.87 13.8
-7 7 2 40.5 4.1
-7 7 2 40.3 4.4
-6 7 2 27.9 3.6
-5 7 2 -0.3 1.9
-4 7 2 256.37 13.1
-4 7 2 284.97 11.2
-4 7 2 272.47 11
-3 7 2 45.9 4
-3 7 2 37.1 5.8
-3 7 2 40.8 3.8
-2 7 2 82.19 8
-2 7 2 89.49 5.7
-2 7 2 82.49 5.5
-1 7 2 1.3 2.7
-1 7 2 6.6 2.6
-1 7 2 2.9 3.2
0 7 2 84.79 6.3
0 7 2 76.39 6.1
0 7 2 85.89 8.9
1 7 2 58.79 6.1
1 7 2 53.59 7.6
1 7 2 52.29 5.7
2 7 2 2.6 3.5
2 7 2 -4.2 4.8
2 7 2 -2.8 3.4
-8 8 2 27.3 3.9
-7 8 2 25 3.7
-6 8 2 4.4 2.4
-5 8 2 7.3 4.4
-5 8 2 11 2.6
-5 8 2 9.1 2.6
-4 8 2 26.6 3.5
-4 8 2 23.1 3.2
-4 8 2 36.3 5.6
-3 8 2 5.8 2.5
-3 8 2 5.4 2.7
-3 8 2 3.1 3.1
-2 8 2 70.59 5.4
-2 8 2 75.09 5.8
-2 8 2 71.79 7.7
-1 8 2 0.7 2.8
-1 8 2 5.2 2.9
-1 8 2 6.3 3.9
0 8 2 4.2 4.1
0 8 2 -0.4 3.3
0 8 2 6.7 3.2
1 8 2 3 5.5
1 8 2 4.6 3.6
1 8 2 8.5 4.1
-7 9 2 4.3 2.6
-6 9 2 33.6 4
-6 9 2 44.1 7.2
-6 9 2 35.6 3.9
-5 9 2 8.7 4.8
-5 9 2 5.3 2.6
-5 9 2 7.2 2.7
-4 9 2 13.1 3.1
-4 9 2 11.5 4.2
-4 9 2 8.3 2.7
-3 9 2 1 2.8
-3 9 2 1.6 2.6
-3 9 2 8 5
-2 9 2 -0.2 2.7
-2 9 2 -3 2.5
-2 9 2 2.3 3.7
-1 9 2 -0.7 2.9
-1 9 2 -4 5
-1 9 2 2.8 2.7
-1 11 -3 -1.5 3.9
-1 11 -3 2.1 2.7
-2 11 -3 6.3 5.2
-2 11 -3 -1.6 2.1
-3 11 -3 6.9 4
-3 11 -3 10.9 2.1
-4 11 -3 15.6 1.7
-4 11 -3 24.7 5.7
-4 11 -3 16.9 1.7
-5 11 -3 18 5.3
-6 11 -3 0.1 3.6
-6 11 -3 1.9 0.9
1 10 -3 19.5 4.3
1 10 -3 19.5 5.4
1 10 -3 18.1 3.8
0 10 -3 -0.9 2.2
0 10 -3 -0.5 2.7
0 10 -3 5.4 4.9
-1 10 -3 16.3 3.1
-1 10 -3 15.5 5.4
-1 10 -3 14.6 2.3
-2 10 -3 95.99 8.6
-2 10 -3 103.49 5.4
-2 10 -3 90.69 5.2
-3 10 -3 46.5 3.1
-3 10 -3 47 6.7
-3 10 -3 50.99 3.2
-4 10 -3 53.59 2.7
-4 10 -3 54.09 2.6
-4 10 -3 58.69 7.2
-5 10 -3 21.2 1.6
-5 10 -3 21.6 1.7
-5 10 -3 20.8 4.5
-6 10 -3 6.9 1.6
-7 10 -3 1.5 1.6
2 9 -3 32.4 4.6
2 9 -3 23.8 4.8
2 9 -3 23.4 6.4
1 9 -3 59.89 5.2
1 9 -3 59.19 7.8
0 9 -3 5.9 2.5
0 9 -3 4.2 2.2
0 9 -3 3.6 4.3
-1 9 -3 86.09 4.6
-1 9 -3 96.99 5.2
-1 9 -3 91.59 5.3
-1 9 -3 91.19 8
-2 9 -3 30.9 2.7
-2 9 -3 27.9 4.6
-2 9 -3 27.2 2.5
-2 9 -3 30 1.6
-3 9 -3 12.3 4.1
-3 9 -3 5.1 2.5
-3 9 -3 4.2 1.2
-3 9 -3 6.4 1.3
-4 9 -3 23.3 1.6
-4 9 -3 28.1 5
-4 9 -3 27.7 1.8
-4 9 -3 28.3 4.3
-5 9 -3 29.1 2.3
-5 9 -3 31.6 4.6
-6 9 -3 5.9 1.8
-6 9 -3 1.1 2.9
-6 9 -3 7.4 1.6
-7 9 -3 5.4 1.9
-7 9 -3 8.5 3.7
-8 9 -3 1.3 1.9
-8 9 -3 7.6 4.2
4 8 -3 68.99 7.3
4 8 -3 58.59 7.2
4 8 -3 76.99 8.8
3 8 -3 -1.8 3.1
3 8 -3 -0.1 3.4
3 8 -3 1.1 4.6
2 8 -3 -3.3 2.9
2 8 -3 -2.5 2.7
2 8 -3 -0.9 2.7
1 8 -3 8.1 2.5
1 8 -3 11.3 3.1
1 8 -3 9.9 3.6
0 8 -3 144.19 6.5
0 8 -3 126.19 6.3
0 8 -3 129.39 6.7
0 8 -3 122.99 8.8
-1 8 -3 534.85 20.9
-1 8 -3 492.55 18
-1 8 -3 509.35 17.6
-1 8 -3 515.05 17.9
-2 8 -3 390.46 13.8
-2 8 -3 403.96 13.8
-2 8 -3 402.66 17
-3 8 -3 607.94 23.5
-3 8 -3 586.84 19.9
-3 8 -3 618.84 22.9
-3 8 -3 605.94 19.8
-4 8 -3 107.79 7
-4 8 -3 109.69 4.3
-5 8 -3 24.1 1.9
-5 8 -3 21 2.1
-5 8 -3 23.1 4
-6 8 -3 66.29 3.4
-6 8 -3 72.99 4.4
-6 8 -3 61.19 3.8
-6 8 -3 75.09 6.5
-7 8 -3 9.5 3.8
-7 8 -3 12.2 2.1
-7 8 -3 8.4 2.2
-8 8 -3 17.2 4.9
-8 8 -3 12.6 2.7
-8 8 -3 9.1 2.4
5 7 -3 8.7 4.7
5 7 -3 5.9 4.8
5 7 -3 2.5 4
4 7 -3 5.5 3.7
4 7 -3 -1.4 3.2
4 7 -3 7 4.3
3 7 -3 17.3 3.7
3 7 -3 15.5 3.9
3 7 -3 13 4.9
2 7 -3 5.6 4.2
2 7 -3 4.8 2.9
2 7 -3 8.9 2.8
1 7 -3 149.59 7.3
1 7 -3 135.69 7.3
1 7 -3 145.49 8.6
1 7 -3 154.68 7.1
-1 -7 3 183.18 8.3
0 7 -3 144.09 6.4
0 7 -3 142.19 8.1
0 7 -3 150.08 6.3
0 7 -3 146.29 6.8
0 7 -3 146.59 6.4
-1 7 -3 94.59 4.1
-1 7 -3 85.29 6.4
-1 7 -3 92.79 4
-1 7 -3 100.59 4.3
-1 7 -3 95.69 4.5
1 -7 3 96.39 3.4
-2 7 -3 1236.18 40.9
-2 7 -3 1264.97 40.9
-2 7 -3 1289.57 43.9
-3 7 -3 138.39 4.8
-3 7 -3 148.79 4.9
-3 7 -3 136.79 7.6
-4 7 -3 -0.8 0.9
-4 7 -3 1.9 0.9
-4 7 -3 -0.4 2.1
-5 7 -3 5.5 1.7
-5 7 -3 3.7 2.8
-5 7 -3 4.8 1.1
-5 7 -3 4.1 1.3
-6 7 -3 19 2.7
-6 7 -3 11.4 3.7
-6 7 -3 15.2 2.1
-6 7 -3 15.7 2.3
-7 7 -3 164.98 10.5
-7 7 -3 157.78 7.5
-7 7 -3 161.28 7.4
-8 7 -3 51.49 4.7
-8 7 -3 50.49 6.4
-8 7 -3 55.69 4.8
-9 7 -3 69.89 6
-9 7 -3 68.39 8
-9 7 -3 62.59 5.8
6 6 -3 3 3.3
6 6 -3 6.4 4.9
6 6 -3 3.9 4.1
5 6 -3 174.48 11
5 6 -3 161.98 10.3
5 6 -3 171.88 10.6
4 6 -3 -3.2 2.9
4 6 -3 -1 3.2
4 6 -3 3.5 3.7
-4 -6 3 -1 2.4
3 6 -3 -1.9 2.5
3 6 -3 0 2.7
3 6 -3 1.8 2.6
-3 -6 3 -1.2 2.1
2 6 -3 13.3 3.2
2 6 -3 14.2 2.9
2 6 -3 18.2 2.7
2 6 -3 20.2 4.3
-2 -6 3 16.3 2.5
1 6 -3 125.59 6.1
1 6 -3 128.39 6.3
1 6 -3 127.19 5.9
1 6 -3 116.99 5.7
1 6 -3 134.89 7.7
-1 -6 3 127.89 5.6
0 6 -3 8.2 1.5
0 6 -3 8.1 2.8
0 6 -3 7.5 1.6
0 6 -3 8.9 1.6
0 6 -3 8.3 1.8
-1 6 -3 68.99 3.4
-1 6 -3 74.99 3
-1 6 -3 75.69 5.2
-1 6 -3 77.89 3.1
-1 6 -3 75.39 3.2
-2 6 -3 355.66 11.3
-2 6 -3 333.67 11.3
-2 6 -3 350.36 13.9
-3 6 -3 0.2 2
-3 6 -3 4.3 0.6
-3 6 -3 3.2 0.7
-4 6 -3 2.7 0.9
-4 6 -3 -0.6 0.7
-4 6 -3 -1.2 1.1
-4 6 -3 -2.3 2.1
-4 6 -3 -0.6 0.9
4 -6 3 -0.4 0.3
4 -6 3 0.4 0.3
-5 6 -3 85.09 4.6
-5 6 -3 79.89 4.2
-5 6 -3 87.09 6.7
-5 6 -3 88.99 4.3
-5 6 -3 84.29 4.2
5 -6 3 85.19 4.1
-6 6 -3 49.3 5.8
-6 6 -3 50.79 3.9
-6 6 -3 45.3 3.6
-6 6 -3 46.4 3.7
-7 6 -3 15.3 2.9
-7 6 -3 17.5 4.2
-7 6 -3 18.9 3
-8 6 -3 -0.2 2.4
-8 6 -3 1.6 2.7
-8 6 -3 -0.7 2.9
-9 6 -3 6.9 4.3
-9 6 -3 6.5 3.1
-9 6 -3 9 3.5
6 5 -3 12.9 4.2
6 5 -3 1.9 4.3
6 5 -3 9.4 4.1
-6 -5 3 7.5 3
5 5 -3 99.09 8.4
5 5 -3 91.09 7.5
5 5 -3 102.59 7.6
-5 -5 3 96.59 6.6
4 5 -3 87.49 7.2
4 5 -3 83.09 6.4
4 5 -3 79.89 6.9
-4 -5 3 84.59 5.8
3 5 -3 44.5 4.5
3 5 -3 54.39 4.9
3 5 -3 47.6 4.2
3 5 -3 58.89 5.2
-3 -5 3 57.99 3.9
-3 -5 3 42.8 3.9
2 5 -3 71.79 4.9
2 5 -3 77.69 5.7
2 5 -3 69.79 4.6
2 5 -3 69.89 4.4
2 5 -3 80.09 4.4
-2 -5 3 67.69 4.1
-2 -5 3 67.99 3.9
1 5 -3 24.7 2.4
1 5 -3 26.1 3.6
1 5 -3 22.9 2.5
1 5 -3 31.6 2.6
1 5 -3 24.5 2.8
-1 -5 3 20.2 2
-1 -5 3 25.9 2
0 5 -3 4 1.1
0 5 -3 4.4 1.4
0 5 -3 3.7 1.3
0 5 -3 8.6 2.4
0 5 -3 3.9 1.1
0 -5 3 4.6 1
-1 5 -3 -3.7 1.5
-1 5 -3 1.7 0.8
-1 5 -3 1.6 0.5
-1 5 -3 3 0.7
-1 5 -3 1.3 0.5
-2 5 -3 603.84 19.8
-2 5 -3 625.74 19.8
-3 5 -3 35.5 1.8
-3 5 -3 36.2 2.1
-3 5 -3 35.1 1.8
-3 5 -3 36 4.1
-3 5 -3 33.2 1.9
3 -5 3 38.3 1.4
3 -5 3 34.7 1.4
-4 5 -3 4.3 2.7
-4 5 -3 4.1 1.2
-4 5 -3 4.3 1.2
-4 5 -3 -0.6 1.3
-4 5 -3 3.2 1.2
-5 5 -3 263.37 10.2
-5 5 -3 269.07 10.5
-5 5 -3 262.17 10.2
-5 5 -3 270.57 12.6
-5 5 -3 255.67 10.1
5 -5 3 270.77 10.2
-6 5 -3 5 2
-6 5 -3 5.5 2.3
-6 5 -3 0.3 3.3
-6 5 -3 4 2
6 -5 3 10.3 2.3
-7 5 -3 47 6.5
-7 5 -3 44.6 4.2
-7 5 -3 42.1 4.2
-8 5 -3 5.6 2.9
-8 5 -3 2.9 2.7
-8 5 -3 2 4.7
-9 5 -3 7.9 3.5
-9 5 -3 -9.6 4.8
-9 5 -3 3 3.2
7 4 -3 -3 3
7 4 -3 2.3 4.3
7 4 -3 1 3.9
-7 -4 3 -5.4 3
-7 -4 3 4.4 5.5
6 4 -3 -0.4 3.3
6 4 -3 -6.6 3.4
6 4 -3 4.1 3.4
-6 -4 3 0.4 2.8
-6 -4 3 1.2 3.4
5 4 -3 46.4 5.9
5 4 -3 61.89 6.6
5 4 -3 57.59 5.9
-5 -4 3 60.49 7.1
-5 -4 3 60.49 5.3
4 4 -3 1.9 3.1
4 4 -3 4.6 2.8
4 4 -3 1.7 2.3
4 4 -3 0 2.2
-4 -4 3 1.2 1.8
-4 -4 3 5.7 1.9
-4 -4 3 -1.5 3.3
3 4 -3 100.79 5.7
3 4 -3 93.39 5.1
3 4 -3 81.99 5.5
3 4 -3 101.69 5.9
3 4 -3 85.19 5.5
-3 -4 3 88.69 5
2 4 -3 17.8 3
2 4 -3 16 2.2
2 4 -3 11.1 2.5
2 4 -3 14.4 2.4
2 4 -3 18 2.3
-2 -4 3 13.6 2
-2 -4 3 15.6 2.1
1 4 -3 486.75 17.6
1 4 -3 493.65 17.2
1 4 -3 486.85 17.5
1 4 -3 493.85 18.2
1 4 -3 499.65 17.3
-1 -4 3 509.65 18.1
-1 -4 3 537.05 17.1
-1 -4 3 522.35 17.3
0 4 -3 330.07 11.1
0 4 -3 319.37 11
0 4 -3 314.07 11.3
0 4 -3 348.97 12.2
0 4 -3 326.77 11.2
0 -4 3 322.47 10.7
0 -4 3 309.47 11
-1 4 -3 7.2 1.8
-1 4 -3 10 0.8
-1 4 -3 11.5 0.8
-1 4 -3 10.6 0.8
-1 4 -3 11.9 1.1
-2 4 -3 33.8 1.7
-2 4 -3 35.3 1.8
-2 4 -3 34.1 1.8
-2 4 -3 34.3 1.7
-2 4 -3 29.5 3.2
2 -4 3 34.9 1.5
2 -4 3 34.6 1.5
-3 4 -3 2.2 1.2
-3 4 -3 4.6 1.1
-3 4 -3 4.5 1.2
-3 4 -3 4.4 1.9
-3 4 -3 2.1 1
3 -4 3 5.2 1.1
3 -4 3 3.9 0.8
-4 4 -3 28.5 2.4
-4 4 -3 26.4 2.4
-4 4 -3 27.6 3.5
-4 4 -3 29.7 2.6
-4 4 -3 25 2.5
4 -4 3 26.6 2.5
4 -4 3 27.5 2.4
-5 4 -3 48.8 3.8
-5 4 -3 47.7 4
-5 4 -3 59.59 5.2
-5 4 -3 45.9 3.6
-5 4 -3 49.2 3.6
5 -4 3 47.5 3.8
5 -4 3 45.2 3.4
-6 4 -3 221.98 9.9
-6 4 -3 220.88 9.8
-6 4 -3 237.18 12.5
6 -4 3 239.28 10.1
-7 4 -3 -0.7 2.4
-7 4 -3 3.9 3.2
-7 4 -3 1.8 2.4
7 -4 3 -1 2.3
-8 4 -3 1.8 2.7
-8 4 -3 -0.8 2.9
-8 4 -3 1.1 3.4
-9 4 -3 -6.4 3
-9 4 -3 -5.7 5
-9 4 -3 -1.7 3.2
8 3 -3 5.8 4.5
8 3 -3 -2.9 2.9
-8 -3 3 4.4 4.7
-8 -3 3 0.9 3.9
7 3 -3 5.1 4
7 3 -3 3.8 3.2
7 3 -3 3.6 3.1
-7 -3 3 0.2 3.3
-7 -3 3 -2.1 5.1
6 3 -3 -0.8 3.3
6 3 -3 -1.5 2.4
6 3 -3 -0.7 3.5
-6 -3 3 0.7 2.8
-6 -3 3 -4.2 4.4
5 3 -3 218.48 10.6
5 3 -3 203.38 10.5
5 3 -3 214.48 11
-5 -3 3 208.68 9.6
-5 -3 3 225.48 12.2
-5 -3 3 213.78 9.9
4 3 -3 41.9 4.1
4 3 -3 49.99 5
4 3 -3 42.2 4.4
4 3 -3 51.69 3.7
-4 -3 3 41.6 4.9
-4 -3 3 47.9 3.8
-4 -3 3 45.4 4.1
3 3 -3 47.9 3.6
3 3 -3 52.89 4
3 3 -3 59.89 4.3
3 3 -3 49.7 4.4
3 3 -3 56.49 3.8
-3 -3 3 48.4 3.6
-3 -3 3 46.3 4.6
2 3 -3 1992.2 64.29
2 3 -3 1965.8 64.19
2 3 -3 1947.71 64.49
2 3 -3 1930.91 64.69
2 3 -3 2029.7 64.79
-2 -3 3 1937.71 63.99
-2 -3 3 1933.31 64.19
-2 -3 3 1982.6 64.79
1 3 -3 220.38 8
1 3 -3 195.28 7.4
1 3 -3 195.88 7.7
1 3 -3 192.78 7.8
1 3 -3 203.18 7.4
-1 -3 3 195.88 7.8
-1 -3 3 197.38 7.5
-1 -3 3 190.58 7.4
-1 -3 3 206.68 7.3
-1 -3 3 193.98 7.5
0 3 -3 312.37 10.9
0 3 -3 321.37 10.9
0 3 -3 321.37 11.1
0 3 -3 311.27 11.3
0 3 -3 318.67 11.2
0 -3 3 333.97 11
0 -3 3 335.17 10.9
-1 3 -3 491.65 16.1
-1 3 -3 495.05 16.1
-1 3 -3 496.65 16
-1 3 -3 496.65 16.2
1 -3 3 478.35 15.8
1 -3 3 487.25 16.1
1 -3 3 505.75 15.8
1 -3 3 436.46 16.1
-2 3 -3 390.36 13.6
-2 3 -3 409.86 15.3
-2 3 -3 408.96 13.6
-2 3 -3 392.06 13.6
-2 3 -3 400.36 13.6
2 -3 3 391.06 13.5
2 -3 3 404.16 13.4
2 -3 3 393.56 13.4
-3 3 -3 273.17 12
-3 3 -3 279.87 10.4
-3 3 -3 279.77 10.4
-3 3 -3 297.47 11.1
-3 3 -3 276.97 10.4
-3 3 -3 283.27 10.4
3 -3 3 302.37 10.5
3 -3 3 277.97 10.3
-4 3 -3 296.07 11
-4 3 -3 277.97 10.8
-4 3 -3 282.37 10.7
-4 3 -3 269.47 12.1
-4 3 -3 278.27 10.7
4 -3 3 269.77 10.8
4 -3 3 282.87 10.8
-5 3 -3 234.98 11.7
-5 3 -3 217.68 9.6
-5 3 -3 228.68 9.8
-5 3 -3 245.88 9.8
-5 3 -3 236.68 9.8
5 -3 3 221.98 9.8
5 -3 3 231.18 9.8
-6 3 -3 1478.35 51.39
-6 3 -3 1661.43 51.59
-6 3 -3 1464.15 53.49
6 -3 3 1476.35 51.69
-7 3 -3 8.4 3.6
-7 3 -3 -0.9 2.5
-7 3 -3 4.1 2.7
7 -3 3 2.7 2.7
-8 3 -3 51.19 5.6
-8 3 -3 40.4 7.3
-8 3 -3 39.2 5.1
-9 3 -3 68.89 6.8
-9 3 -3 54.09 6.4
-9 3 -3 55.09 9.4
8 2 -3 -1.5 3.8
8 2 -3 -2.3 3.7
-8 -2 3 1.8 4.1
-8 -2 3 1.8 2.8
7 2 -3 1.6 3.7
7 2 -3 0 3.4
7 2 -3 0.9 2.7
-7 -2 3 1 3.1
-7 -2 3 -2 4.7
6 2 -3 1.9 3.2
6 2 -3 -1.8 2.9
6 2 -3 -2.3 2.1
-6 -2 3 -6.3 4
-6 -2 3 3.3 2
-6 -2 3 -0.7 2.6
5 2 -3 2.9 2.2
5 2 -3 11.1 2.7
5 2 -3 5.8 2.4
5 2 -3 2.9 2.1
-5 -2 3 4.4 2.5
-5 -2 3 3.3 2.9
-5 -2 3 4.9 1.8
4 2 -3 -4.3 2
4 2 -3 -0.2 1.5
4 2 -3 -1 2.3
4 2 -3 3 1.8
-4 -2 3 -0.1 1.4
-4 -2 3 -4 1.5
-4 -2 3 -2.4 1.9
3 2 -3 122.19 5.6
3 2 -3 122.09 6
3 2 -3 135.39 6.7
3 2 -3 129.39 5.8
3 2 -3 128.19 6.3
-3 -2 3 125.79 5.7
-3 -2 3 125.69 7.3
-3 -2 3 119.29 5.9
2 2 -3 309.27 10.8
2 2 -3 315.97 12.1
2 2 -3 290.47 11.4
2 2 -3 301.67 11.1
2 2 -3 296.77 10.9
2 2 -3 292.17 11.2
-2 -2 3 303.27 11.1
-2 -2 3 292.97 10.9
-2 -2 3 301.67 11.3
-2 -2 3 300.07 11.1
1 2 -3 1034.9 35.7
1 2 -3 1092.19 35.3
1 2 -3 1074.59 35.3
1 2 -3 1083.99 35.6
1 2 -3 1075.29 35.4
-1 -2 3 1091.19 35.6
-1 -2 3 1079.99 35.4
-1 -2 3 1071.09 35.5
-1 -2 3 1100.39 35.3
-1 -2 3 1084.79 35.3
0 2 -3 1411.66 45.9
0 2 -3 1441.36 45.8
0 2 -3 1399.96 45.7
0 2 -3 1404.16 45.4
0 2 -3 1379.56 46
0 -2 3 1406.76 45.8
0 -2 3 1390.46 45.9
0 -2 3 1447.46 45.7
-1 2 -3 1.7 1
-1 2 -3 1.8 0.9
-1 2 -3 0.9 0.9
-1 2 -3 2.4 2.1
-1 2 -3 2.5 1.1
-1 2 -3 -0.3 1.1
1 -2 3 4.4 1.2
1 -2 3 1.3 1
1 -2 3 2.4 1.1
1 -2 3 2.9 1.1
-2 2 -3 176.58 6.7
-2 2 -3 174.28 6.8
-2 2 -3 176.58 6.8
-2 2 -3 173.48 8
-2 2 -3 164.68 6.7
-2 2 -3 168.88 6.7
2 -2 3 172.38 7.7
2 -2 3 169.68 6.7
2 -2 3 179.58 6.7
2 -2 3 172.98 6.8
2 -2 3 164.68 6.7
-3 2 -3 43.8 3.2
-3 2 -3 44.7 3.2
-3 2 -3 42.3 3.1
-3 2 -3 50.19 3.5
-3 2 -3 46 4
-3 2 -3 43.6 3.3
3 -2 3 40.3 3.5
3 -2 3 45.8 3.3
3 -2 3 49.8 3.3
-4 2 -3 1215.78 40.9
-4 2 -3 1241.98 41
-4 2 -3 1192.98 40.9
-4 2 -3 1207.18 42.5
-4 2 -3 1234.18 41.1
4 -2 3 1231.88 41.7
4 -2 3 1189.08 41
-5 2 -3 482.05 20
-5 2 -3 498.05 18.7
-5 2 -3 518.75 18.6
-5 2 -3 517.65 18.5
5 -2 3 472.05 18.6
5 -2 3 488.75 19.3
-6 2 -3 93.49 6.3
-6 2 -3 95.99 8.4
-6 2 -3 94.49 6.3
6 -2 3 98.69 6.7
6 -2 3 85.09 7
-7 2 -3 192.68 9.8
-7 2 -3 182.48 9.8
-7 2 -3 173.28 11.2
7 -2 3 180.38 10
7 -2 3 190.08 11
-8 2 -3 13.8 5.9
-8 2 -3 19.6 4.2
-8 2 -3 4 3.3
8 -2 3 10.7 4.2
9 1 -3 11.7 4.7
9 1 -3 16.2 4.5
-9 -1 3 4.3 4
-9 -1 3 1 6.2
8 1 -3 -0.6 2.8
8 1 -3 2.7 3.9
-8 -1 3 -2.6 5.1
-8 -1 3 1.5 2.5
7 1 -3 10.6 4
7 1 -3 3.5 3.5
7 1 -3 6.1 3.7
-7 -1 3 7.2 2.6
-7 -1 3 13.4 3.8
-7 -1 3 5.7 3.8
6 1 -3 11.4 3.6
6 1 -3 19.7 3.8
6 1 -3 14.8 3.8
-6 -1 3 11.1 3.7
-6 -1 3 18.8 2.9
-6 -1 3 14.1 3.3
5 1 -3 40.1 4.1
5 1 -3 40.6 4.6
5 1 -3 35.7 4.2
5 1 -3 39.1 4.5
-5 -1 3 38.9 3.9
-5 -1 3 31.9 3.5
-5 -1 3 30.9 4.8
4 1 -3 44.9 4.4
4 1 -3 41.1 4.1
4 1 -3 44.3 3.2
4 1 -3 44.4 4.1
-4 -1 3 40.6 3.7
-4 -1 3 47.7 3.7
-4 -1 3 44.1 4.7
-4 -1 3 45.6 3.5
3 1 -3 191.08 8
3 1 -3 202.88 8
3 1 -3 196.88 8.3
3 1 -3 198.18 8.3
3 1 -3 196.48 8.7
-3 -1 3 202.48 9.2
-3 -1 3 208.68 8.3
-3 -1 3 200.68 8.5
-3 -1 3 198.78 8.1
-3 -1 3 191.58 7.9
2 1 -3 371.16 13.1
2 1 -3 391.46 13.2
2 1 -3 373.26 13.7
2 1 -3 365.16 13.6
2 1 -3 369.36 13.1
2 1 -3 362.16 13.4
-2 -1 3 359.66 13.3
-2 -1 3 374.96 13.1
-2 -1 3 403.36 13.2
-2 -1 3 372.86 13.2
-2 -1 3 357.26 13.4
1 1 -3 3844.62 123.59
1 1 -3 3792.72 123.79
1 1 -3 3823.72 123.89
1 1 -3 3773.72 123.49
-1 -1 3 3913.61 124.49
-1 -1 3 3856.51 123.69
-1 -1 3 3867.51 123.89
-1 -1 3 3849.81 123.59
0 1 -3 44.2 2.8
0 1 -3 43.6 3
0 -1 3 35 2.7
0 -1 3 37.7 2.6
0 -1 3 41.1 2.5
-1 1 -3 435.86 15.6
-1 1 -3 421.66 14.9
-1 1 -3 452.75 15.2
-1 1 -3 426.56 14.7
-1 1 -3 430.06 15.1
-1 1 -3 428.16 15
1 -1 3 429.06 14.7
1 -1 3 453.75 15.1
1 -1 3 431.16 15
1 -1 3 425.66 15
-2 1 -3 694.83 21.5
-2 1 -3 608.94 21.3
-2 1 -3 602.94 22
-2 1 -3 613.94 21.3
-2 1 -3 646.64 21.4
-2 1 -3 604.74 21.2
2 -1 3 614.64 22.1
2 -1 3 608.04 21.4
2 -1 3 591.04 21.2
2 -1 3 612.14 21.4
-3 1 -3 80.69 4.4
-3 1 -3 72.29 4.2
-3 1 -3 70.19 5.5
-3 1 -3 81.69 4.6
-3 1 -3 73.39 4.4
3 -1 3 74.89 4.5
3 -1 3 63.59 4.4
3 -1 3 72.39 4.7
-4 1 -3 24.8 2.9
-4 1 -3 26.3 3.2
-4 1 -3 24.5 2.9
-4 1 -3 21.3 3.4
4 -1 3 23.9 3.3
4 -1 3 28.2 3.5
4 -1 3 29.1 3.2
-5 1 -3 11.3 3.3
-5 1 -3 8.6 2.9
-5 1 -3 10 2.8
-5 1 -3 14 3.2
5 -1 3 11.8 3.6
5 -1 3 7.1 2.9
5 -1 3 12.7 3.2
-6 1 -3 3.4 2.8
-6 1 -3 -0.4 3
-6 1 -3 -0.7 2.6
6 -1 3 0.5 2.8
6 -1 3 -1.1 2.2
-7 1 -3 24.7 4
-7 1 -3 36.2 6.6
-7 1 -3 34.2 4.7
7 -1 3 34.8 5.8
7 -1 3 24.5 4.6
-8 1 -3 22.5 4.7
-8 1 -3 2.6 4.6
-8 1 -3 11.9 4.5
8 -1 3 19.2 5.2
8 -1 3 12.3 4.7
9 0 -3 32.4 6
-9 0 3 42.1 5.9
-9 0 3 34.6 6.8
8 0 -3 177.08 10.7
-8 0 3 180.58 10.1
-8 0 3 171.08 12.4
-8 0 3 167.68 9.6
7 0 -3 12.9 3.9
7 0 -3 8.9 3.8
-7 0 3 5.3 4.7
-7 0 3 9.7 2.7
-7 0 3 12.4 3.3
6 0 -3 -1.3 2.6
6 0 -3 2.4 2.9
-6 0 3 -1.7 3.6
-6 0 3 -1 2.3
-6 0 3 -0.3 2.2
5 0 -3 106.69 6.3
5 0 -3 97.19 6.3
-5 0 3 93.19 5.6
-5 0 3 94.09 5.4
-5 0 3 95.39 5.7
-5 0 3 88.59 6.2
4 0 -3 736.33 26.9
4 0 -3 737.43 27.1
4 0 -3 763.22 26.4
-4 0 3 810.62 26.5
-4 0 3 759.02 26.6
-4 0 3 764.42 27.1
-4 0 3 813.32 27.7
3 0 -3 171.98 7.5
3 0 -3 167.68 7
3 0 -3 185.68 7.7
3 0 -3 169.08 7.5
3 0 -3 179.88 7
-3 0 3 152.58 7.5
-3 0 3 174.18 7.1
-3 0 3 171.08 7.4
-3 0 3 170.08 7.8
-3 0 3 178.78 7.2
-3 0 3 169.18 7.3
2 0 -3 14.1 1.7
2 0 -3 15.1 1.9
2 0 -3 15.1 2.1
2 0 -3 13.6 2.2
2 0 -3 16.9 2.4
-2 0 3 17.7 2.4
-2 0 3 15.6 2
-2 0 3 15.2 1.8
-2 0 3 17.1 1.8
-2 0 3 21 2.1
1 0 -3 5.5 1.5
1 0 -3 4.5 1.4
1 0 -3 1.6 1.3
1 0 -3 2.7 1.1
-1 0 3 0 1.3
-1 0 3 4 1.8
-1 0 3 1.4 1.6
-1 0 3 -0.6 1.3
0 0 -3 39.7 3
0 0 -3 42.8 2.9
0 0 -3 44.1 2.9
0 0 -3 40.2 3.2
0 0 -3 38.4 2.4
0 0 -3 44 2.8
0 0 3 44.4 3
0 0 3 40.3 2.4
0 0 3 47.2 2.7
0 0 3 43.9 2.9
0 0 3 41.4 3.1
-1 0 -3 1.1 1.5
-1 0 -3 -0.3 1.6
-1 0 -3 -0.8 1.2
-1 0 -3 1.2 1.4
-1 0 -3 2.5 1.7
-1 0 -3 -0.9 1.3
1 0 3 1.4 1.2
1 0 3 -1.4 1
1 0 3 2.1 1.5
1 0 3 -1.1 1.5
1 0 3 2.4 1.5
1 0 3 1.5 1.2
-2 0 -3 404.66 14.7
-2 0 -3 407.16 14.5
-2 0 -3 405.26 14.8
-2 0 -3 381.06 14.6
-2 0 -3 410.06 15.3
-2 0 -3 383.86 14.5
2 0 3 409.86 14.9
2 0 3 395.96 14.7
2 0 3 425.66 14.9
2 0 3 384.96 14.6
-3 0 -3 6.3 1.8
-3 0 -3 5 1.8
-3 0 -3 8.8 2.3
-3 0 -3 5.3 2.3
3 0 3 6 2.5
3 0 3 6.2 2.3
3 0 3 6.1 1.9
-4 0 -3 28.8 4.4
-4 0 -3 31.8 3.4
-4 0 -3 29.4 3.7
-4 0 -3 30.5 3.7
4 0 3 30.5 3.8
4 0 3 26.4 4
4 0 3 30.1 3.9
-5 0 -3 82.29 5.7
-5 0 -3 95.59 6.3
-5 0 -3 93.89 8
5 0 3 85.59 6
5 0 3 96.99 6.8
5 0 3 85.59 6.3
-6 0 -3 7.2 2.9
-6 0 -3 9.1 3.4
-6 0 -3 6.4 4.5
6 0 3 14.1 3.6
6 0 3 9 3.9
-7 0 -3 2.5 4.1
-7 0 -3 4.9 3.6
-7 0 -3 2.2 3.6
7 0 3 0.4 3.6
7 0 3 3.4 3.8
9 -1 -3 16.5 4.2
-9 1 3 11.5 3.3
-9 1 3 8.4 4
-9 1 3 -2.6 3.8
8 -1 -3 391.86 16.6
-8 1 3 349.96 15.3
-8 1 3 358.36 17.3
-8 1 3 352.96 15.6
7 -1 -3 3.8 3.2
7 -1 -3 4.1 2.6
-7 1 3 3.2 2.9
-7 1 3 4.7 2.7
-7 1 3 6.5 4.3
6 -1 -3 205.38 10.2
6 -1 -3 200.18 10
-6 1 3 204.18 11
-6 1 3 206.78 9.3
-6 1 3 200.98 9.3
-6 1 3 231.38 10.5
5 -1 -3 195.68 9.4
5 -1 -3 202.38 9.3
-5 1 3 201.28 9.4
-5 1 3 200.78 8.7
-5 1 3 199.78 9.5
-5 1 3 197.38 8.8
4 -1 -3 4.3 2.2
4 -1 -3 6.1 2.4
-4 1 3 7 2.4
-4 1 3 3.2 1.8
-4 1 3 4.8 2.4
-4 1 3 6.7 1.7
3 -1 -3 535.45 18.8
3 -1 -3 533.15 19.3
3 -1 -3 533.55 19.4
3 -1 -3 550.24 19.1
-3 1 3 552.14 18.9
-3 1 3 543.95 19.2
-3 1 3 533.25 18.9
-3 1 3 553.44 19.2
-3 1 3 564.54 19.6
2 -1 -3 2.7 1.3
2 -1 -3 2.8 1.5
2 -1 -3 2.5 1.1
2 -1 -3 3.9 2
2 -1 -3 4.7 1.4
-2 1 3 2.7 1.7
-2 1 3 2.6 1.5
-2 1 3 2.3 1.5
-2 1 3 4.6 1.5
1 -1 -3 281.87 10.4
1 -1 -3 262.47 10.3
1 -1 -3 277.27 10.1
1 -1 -3 262.67 10
-1 1 3 268.67 10
-1 1 3 314.27 10.7
-1 1 3 270.87 10.1
-1 1 3 262.97 10.3
-1 1 3 262.97 10.1
0 -1 -3 7.4 2
0 -1 -3 10 1.6
0 -1 -3 8.1 2
0 -1 -3 8.6 1.8
0 -1 -3 9.9 1.9
0 -1 -3 10.7 1.8
0 1 3 11.1 1.8
0 1 3 11.7 2.1
0 1 3 6.4 1.6
0 1 3 10.1 1.7
0 1 3 8.5 1.7
-1 -1 -3 41 3.6
-1 -1 -3 40.5 3.3
-1 -1 -3 50.09 3.7
-1 -1 -3 41.7 3.2
-1 -1 -3 39.8 3
1 1 3 43.8 3.1
1 1 3 43.4 3.5
1 1 3 41 3.5
1 1 3 42 3.2
1 1 3 37.7 3.1
1 1 3 42.8 3.9
-2 -1 -3 567.54 20.8
-2 -1 -3 600.74 20.9
-2 -1 -3 586.64 21.2
-2 -1 -3 584.84 20.7
2 1 3 580.84 20.9
2 1 3 592.14 21.2
2 1 3 554.54 20.8
2 1 3 590.14 20.9
-3 -1 -3 47.7 3.7
-3 -1 -3 41.5 4
-3 -1 -3 38.7 4.5
-3 -1 -3 46.7 3.7
3 1 3 52.59 4
3 1 3 41.7 3.9
3 1 3 49 4.5
-4 -1 -3 3.2 2
-4 -1 -3 1.7 2.6
-4 -1 -3 4 3.3
4 1 3 1.3 2.1
4 1 3 1.7 3
4 1 3 2.4 2.8
-5 -1 -3 0.3 3.9
-5 -1 -3 2.8 2.5
-5 -1 -3 3.5 2.9
5 1 3 2 3.4
5 1 3 1.4 3.2
5 1 3 6.6 3.4
-6 -1 -3 24.7 4.6
-6 -1 -3 25.7 4
-6 -1 -3 16.6 5.5
6 1 3 26.4 4.8
6 1 3 32 5.3
-7 -1 -3 -2.1 3.6
-7 -1 -3 -3.6 5.4
7 1 3 1.7 4
7 1 3 0.8 3.8
9 -2 -3 8.5 4.1
-9 2 3 4.6 4.2
-9 2 3 10.8 3.9
-9 2 3 12.9 3.9
8 -2 -3 19.3 4.3
-8 2 3 10.2 5
-8 2 3 23.9 4.2
-8 2 3 11.1 3.6
7 -2 -3 219.68 10.9
-7 2 3 217.08 9.9
-7 2 3 225.28 12.1
-7 2 3 219.88 10.1
6 -2 -3 113.09 7.4
6 -2 -3 137.39 7.6
-6 2 3 126.49 7.6
-6 2 3 142.19 8.4
-6 2 3 132.59 6.9
-6 2 3 152.68 7.3
5 -2 -3 216.18 9.8
5 -2 -3 220.48 9.8
-5 2 3 220.58 9.3
-5 2 3 225.58 10.1
-5 2 3 214.78 10
-5 2 3 225.48 9.3
4 -2 -3 564.14 20
4 -2 -3 557.44 19.6
4 -2 -3 541.65 19.9
-4 2 3 558.44 19.7
-4 2 3 556.34 20.2
-4 2 3 528.85 19.4
-4 2 3 555.84 19.5
-4 2 3 546.05 19.8
3 -2 -3 118.79 6
3 -2 -3 111.79 6.9
3 -2 -3 130.19 5.4
-3 2 3 130.79 6.4
-3 2 3 118.79 5.6
-3 2 3 126.39 5.8
-3 2 3 127.59 5.5
-3 2 3 123.19 5.9
2 -2 -3 98.29 3.9
2 -2 -3 105.49 5.2
2 -2 -3 97.59 4.6
2 -2 -3 96.89 5.1
-2 2 3 93.59 5.2
-2 2 3 105.69 5.2
-2 2 3 91.39 4.5
1 -2 -3 27.8 1.6
1 -2 -3 24.7 2.5
1 -2 -3 27.9 2.4
1 -2 -3 26.9 2.8
-1 2 3 27.8 2.8
-1 2 3 24.9 2.6
-1 2 3 25.5 2.6
-1 2 3 23.9 2.9
-1 2 3 31.4 3
0 -2 -3 1.9 1.2
0 -2 -3 1.4 1.8
0 -2 -3 2.7 1.9
0 -2 -3 7.5 1.8
0 2 3 3.9 1.8
0 2 3 3.9 2.2
0 2 3 4.3 1.9
0 2 3 2.8 1.9
0 2 3 5 1.4
0 2 3 3.8 1.6
-1 -2 -3 542.85 19.9
-1 -2 -3 555.14 19.7
-1 -2 -3 601.84 20.1
1 2 3 526.55 19.8
1 2 3 566.54 20.1
1 2 3 550.34 20.3
1 2 3 548.95 20
1 2 3 555.04 19.7
-2 -2 -3 167.88 8.4
-2 -2 -3 193.18 8.5
-2 -2 -3 185.78 8.3
2 2 3 173.78 8.1
2 2 3 175.48 8.2
2 2 3 167.48 8.1
2 2 3 175.38 8.6
-3 -2 -3 139.39 7.3
-3 -2 -3 132.29 7.4
-3 -2 -3 135.39 8.1
3 2 3 131.29 8.1
3 2 3 125.69 7.6
3 2 3 127.39 7.5
-4 -2 -3 55.29 5
-4 -2 -3 57.39 5.5
-4 -2 -3 50.69 6
4 2 3 46 5.4
4 2 3 50.59 5.2
4 2 3 49.7 5.6
-5 -2 -3 42.1 5.3
-5 -2 -3 35.2 5.5
5 2 3 44 5.9
5 2 3 33.4 5.7
5 2 3 37.4 5.1
-6 -2 -3 6.4 3.7
-6 -2 -3 4.6 5.4
6 2 3 10 3.8
6 2 3 -0.1 3.6
-10 3 3 -1.3 5.4
9 -3 -3 44.5 5.9
-9 3 3 33.3 4.9
-9 3 3 41.4 5.4
-9 3 3 41.2 6.9
8 -3 -3 3.4 3.2
-8 3 3 0.8 2.6
-8 3 3 1.3 4.1
-8 3 3 5.5 3
7 -3 -3 4.6 2.9
-7 3 3 9.2 2.9
-7 3 3 13.5 3
-7 3 3 9.3 3.8
6 -3 -3 7 2.7
-6 3 3 11.3 2.7
-6 3 3 12.6 2.7
-6 3 3 18.7 3.5
-6 3 3 14.9 2.8
5 -3 -3 6 2.4
-5 3 3 5.1 2.5
-5 3 3 4.9 2.1
-5 3 3 2.2 2.3
-5 3 3 6.7 2.1
4 -3 -3 252.77 9.9
4 -3 -3 291.47 11.2
4 -3 -3 262.07 10.7
-4 3 3 263.27 10.7
-4 3 3 257.47 10
-4 3 3 252.57 10.3
-4 3 3 260.87 11
-4 3 3 262.37 10.4
3 -3 -3 136.39 5.2
3 -3 -3 142.79 8.3
3 -3 -3 139.09 6.5
-3 3 3 127.19 5.9
-3 3 3 135.79 6.8
-3 3 3 148.79 6.4
-3 3 3 134.09 6.4
2 -3 -3 31.6 3
-2 3 3 34.5 2.9
-2 3 3 34.1 3.2
-2 3 3 31.7 3
-2 3 3 32.2 3.7
-2 3 3 28.9 3.2
1 -3 -3 370.16 14.3
-1 3 3 374.06 15
-1 3 3 447.66 14.7
-1 3 3 403.06 14.3
-1 3 3 360.66 14.3
-1 3 3 371.56 14.5
0 -3 -3 14.5 1.9
0 -3 -3 14.4 2.4
0 -3 -3 13.3 2.5
0 3 3 17.1 2.5
0 3 3 15.8 1.9
0 3 3 12.9 2.5
0 3 3 16.5 2.4
0 3 3 16.8 2.9
-1 -3 -3 6.4 2.2
-1 -3 -3 7.2 2.5
-1 -3 -3 8.7 2.3
1 3 3 7.9 1.8
1 3 3 7.8 2.5
1 3 3 8.2 2.1
1 3 3 2.9 2.9
1 3 3 7.9 2.6
-2 -3 -3 165.38 8.2
-2 -3 -3 165.48 8.8
-2 -3 -3 166.68 8.3
2 3 3 174.48 8.5
2 3 3 159.28 8.5
2 3 3 158.18 8.1
2 3 3 175.68 9.4
-3 -3 -3 278.57 13.1
-3 -3 -3 256.47 11.7
-3 -3 -3 275.07 12.2
3 3 3 276.77 12.2
3 3 3 256.67 12.2
3 3 3 262.37 12.7
-4 -3 -3 4.5 3.9
-4 -3 -3 5.3 2.7
4 3 3 1.6 3.8
4 3 3 2 3.4
4 3 3 -1.5 3.3
-5 -3 -3 -0.2 4.7
-5 -3 -3 11.5 3.3
5 3 3 6.5 4
5 3 3 9.2 3.7
-6 -3 -3 15.2 6.6
-6 -3 -3 28.4 5.5
6 3 3 24.8 5.3
6 3 3 18.8 5.4
-9 4 3 1.1 3
-9 4 3 -7 3.9
-9 4 3 -3.6 2.7
8 -4 -3 4.8 3.2
-8 4 3 3.6 2.9
-8 4 3 3.8 2.9
-8 4 3 -2 3.5
7 -4 -3 52.59 5.2
-7 4 3 49.1 5.7
-7 4 3 45.2 4.3
-7 4 3 52.89 5
6 -4 -3 18.6 3.2
-6 4 3 18.3 3
-6 4 3 16.2 3
-6 4 3 19.5 3.3
5 -4 -3 160.08 8.1
5 -4 -3 172.68 8.1
5 -4 -3 178.28 7.6
-5 4 3 172.48 7.8
-5 4 3 172.48 8.1
-5 4 3 174.28 8.6
-5 4 3 174.08 7.7
-5 4 3 171.98 7.9
4 -4 -3 90.69 5.3
4 -4 -3 89.79 5.2
4 -4 -3 96.89 4.2
-4 4 3 97.59 5.2
-4 4 3 100.19 5.5
-4 4 3 93.09 4.3
-4 4 3 99.59 5.2
-4 4 3 90.49 5.7
3 -4 -3 2.1 1.8
3 -4 -3 3 1.9
-3 4 3 2 1.7
-3 4 3 3.8 1.8
-3 4 3 2.6 2.1
2 -4 -3 19.3 2.6
2 -4 -3 22.6 2.7
-2 4 3 18.3 2.6
-2 4 3 21.4 2.8
-2 4 3 23.2 3.7
-2 4 3 17.7 2.5
-2 4 3 20.6 3
1 -4 -3 45 3.9
1 -4 -3 37 3.5
-1 4 3 32.7 3.5
-1 4 3 37.8 3.3
-1 4 3 39.6 3.9
-1 4 3 35.2 3.5
-1 4 3 37.7 4.2
0 -4 -3 6.7 1.8
0 -4 -3 1.5 2.1
0 4 3 8 2.7
0 4 3 7.1 2.3
0 4 3 9.5 2.5
0 4 3 3.9 2.4
0 4 3 8.2 1.6
-1 -4 -3 23.9 3.5
-1 -4 -3 22.7 3.2
-1 -4 -3 23.8 3.3
1 4 3 26.2 4.7
1 4 3 28 3.9
1 4 3 22 3.5
1 4 3 25.7 3.8
-2 -4 -3 101.49 6.6
-2 -4 -3 80.19 6.2
2 4 3 94.79 6.7
2 4 3 80.29 6.5
2 4 3 76.19 7.3
-3 -4 -3 25.7 4.8
-3 -4 -3 37.1 4.5
3 4 3 39 6.1
3 4 3 27.5 4.6
3 4 3 36.2 5.2
-4 -4 -3 1.4 3
-4 -4 -3 2 4.7
4 4 3 11.3 3.9
4 4 3 9.9 4.2
4 4 3 5.5 3.3
-5 -4 -3 0.1 2.9
-5 -4 -3 -3.4 4.7
5 4 3 1.3 4.3
5 4 3 -4.5 3.8
-9 5 3 31 4.6
-9 5 3 19.8 5.8
-9 5 3 24.5 4.3
-8 5 3 32.6 4.3
-8 5 3 31.6 4.3
-8 5 3 30.8 5
7 -5 -3 490.35 19.2
-7 5 3 487.85 18.8
-7 5 3 492.35 18.8
6 -5 -3 66.49 5.1
-6 5 3 57.99 4.7
-6 5 3 71.89 5.3
-6 5 3 64.39 5
5 -5 -3 130.19 6.9
-5 5 3 162.58 8
-5 5 3 126.99 6
-5 5 3 127.89 6.7
-5 5 3 133.09 6.8
4 -5 -3 1257.47 42.3
4 -5 -3 1246.58 42
-4 5 3 1232.88 42.1
-4 5 3 1269.07 42.8
-4 5 3 1244.48 42.4
-4 5 3 1223.18 42
3 -5 -3 0.5 1.9
3 -5 -3 -1.5 1.8
-3 5 3 -1 2
-3 5 3 -0.5 2
-3 5 3 0.8 1.8
-3 5 3 4.1 1.9
-3 5 3 -0.4 2
2 -5 -3 32.4 3.5
2 -5 -3 32.9 3.4
-2 5 3 36.1 3.8
-2 5 3 34 4.7
-2 5 3 27.2 3.3
-2 5 3 33.2 3.5
-2 5 3 27.7 3.2
1 -5 -3 -1.3 1.9
1 -5 -3 -0.4 1.7
-1 5 3 1.2 2.3
-1 5 3 -0.1 2.2
-1 5 3 -1.3 1.9
-1 5 3 2.3 2.1
0 -5 -3 1 2.4
0 5 3 4.5 2.5
0 5 3 4.3 3
0 5 3 1.8 2.4
-1 -5 -3 26 3.9
-1 -5 -3 28.6 3.7
1 5 3 33 4.3
1 5 3 30.4 4.3
1 5 3 31.7 5.1
-2 -5 -3 6.1 3.2
-2 -5 -3 12.2 3.6
2 5 3 9.2 3
2 5 3 7.4 3.6
2 5 3 6.2 4.4
-3 -5 -3 1.2 4.1
-3 -5 -3 0.8 3.3
3 5 3 -3.5 3.5
3 5 3 -0.2 3.2
3 5 3 -2.8 3.3
-4 -5 -3 11.3 4.3
-4 -5 -3 8.4 5.7
4 5 3 10.8 5.3
4 5 3 7.2 4.8
4 5 3 22 5.2
-9 6 3 52.49 5.6
-9 6 3 61.39 6.1
-8 6 3 300.17 13.3
-8 6 3 310.17 13.3
-7 6 3 -0.5 2.3
-7 6 3 6.2 2.5
-6 6 3 754.02 27.4
-6 6 3 784.72 27.4
5 -6 -3 15.8 3
-5 6 3 16.3 3
-5 6 3 14.8 3
4 -6 -3 26.5 3.3
-4 6 3 32 5.1
-4 6 3 20.5 3
-4 6 3 30 3.4
3 -6 -3 241.98 10.4
-3 6 3 237.18 11.9
-3 6 3 238.48 10.3
-3 6 3 256.47 10.6
2 -6 -3 5.1 2.4
-2 6 3 5.7 3.1
-2 6 3 7.9 2.5
-2 6 3 5.8 2.5
1 -6 -3 392.06 15.5
-1 6 3 377.16 17.2
-1 6 3 396.26 15.6
-1 6 3 382.36 15.4
0 -6 -3 175.08 8.8
0 6 3 167.58 10.8
0 6 3 177.28 9.2
0 6 3 168.38 9.1
-1 -6 -3 6.8 3.1
1 6 3 7 4.8
1 6 3 16.5 3.8
1 6 3 7.4 3.5
-2 -6 -3 -3.4 2.9
2 6 3 4.8 3.6
2 6 3 -6.6 4.5
2 6 3 -2.4 3.1
3 6 3 15.3 4.9
3 6 3 7.6 4.2
3 6 3 5 5.4
-9 7 3 -1.5 3.1
-9 7 3 6.8 3.1
-8 7 3 7.7 3.1
-8 7 3 3.2 2.8
-7 7 3 98.79 6.4
-6 7 3 32.9 3.9
-6 7 3 29.3 3.7
-5 7 3 28 3.7
-5 7 3 30.2 3.7
-5 7 3 32 5.2
-4 7 3 2 2.2
-4 7 3 5 3
-4 7 3 6.8 2.4
-3 7 3 1.4 2.3
-3 7 3 -0.5 2.2
-3 7 3 -0.4 2.6
-2 7 3 153.18 9.8
-2 7 3 155.48 8.6
-2 7 3 182.88 8.7
-1 7 3 40.6 4.8
-1 7 3 38.1 4.7
-1 7 3 44.7 6.9
0 7 3 3.5 3.1
0 7 3 2.1 4.8
0 7 3 8.7 3.4
1 7 3 7.9 5.4
1 7 3 4 3.5
1 7 3 7.4 3.5
2 7 3 -4.7 3.6
2 7 3 -1.2 3.9
2 7 3 6.9 4
-8 8 3 27.2 4.2
-7 8 3 3.6 2.7
-6 8 3 7.3 3
-6 8 3 17.6 4.6
-6 8 3 7.6 3
-5 8 3 4.2 2.5
-5 8 3 7.7 2.6
-5 8 3 10.2 3.8
-4 8 3 17.4 5.2
-4 8 3 19.7 3.6
-4 8 3 17.3 3.4
-3 8 3 -3.7 3.9
-3 8 3 3.3 2.7
-3 8 3 2 2.5
-2 8 3 137.09 8.4
-2 8 3 152.68 8.4
-2 8 3 138.89 10.7
-1 8 3 35.7 6.3
-1 8 3 44.3 5.5
-1 8 3 43.7 5.3
0 8 3 -1.6 3.6
0 8 3 4.2 3.3
0 8 3 1.2 3.5
-6 9 3 12.9 3.3
-6 9 3 11.9 4.2
-6 9 3 10.3 3.1
-5 9 3 8.3 3
-5 9 3 6 3.1
-5 9 3 8 4
-4 9 3 14.7 3.8
-4 9 3 18.3 5.6
-4 9 3 18.6 3.6
-3 9 3 -2.8 4.5
-3 9 3 -4.6 2.4
-3 9 3 5.8 2.9
-2 9 3 1.8 3.2
-2 9 3 1.5 5.2
-2 9 3 2.7 3.2
-1 11 -4 1.7 3.8
-1 11 -4 4.4 2.6
-2 11 -4 1.8 1.9
-2 11 -4 -3.1 4.3
-3 11 -4 2.6 1
-3 11 -4 2 4.3
-3 11 -4 1.1 0.9
-4 11 -4 37.7 5.9
-5 11 -4 33.5 6
-6 11 -4 47.1 6.9
1 10 -4 41.3 6.6
1 10 -4 40.8 5.1
1 10 -4 35.3 4.2
0 10 -4 16.2 2.7
0 10 -4 10 3.2
0 10 -4 26 6
-1 10 -4 39.7 3.7
-1 10 -4 38.9 6.5
-2 10 -4 41.4 3
-2 10 -4 34.7 2.9
-2 10 -4 39 6.1
-3 10 -4 61.39 6.2
-3 10 -4 51.29 2
-3 10 -4 58.49 6.3
-3 10 -4 53.49 2.1
-4 10 -4 53.99 6
-4 10 -4 56.59 6.4
-5 10 -4 6.8 3.3
-5 10 -4 13.7 4.2
-6 10 -4 3.7 1
-6 10 -4 1.2 3.3
-7 10 -4 0.3 1.4
-7 10 -4 -0.2 3.2
3 9 -4 52.69 7.9
3 9 -4 47.5 6.2
3 9 -4 48.4 5.8
2 9 -4 140.49 10.1
2 9 -4 186.48 9.7
2 9 -4 158.48 8.7
1 9 -4 1.4 2.4
1 9 -4 -1.1 2.7
1 9 -4 2 3.3
0 9 -4 -1.7 3.8
0 9 -4 -0.3 1.8
0 9 -4 -0.8 2.2
-1 9 -4 2.6 1.7
-1 9 -4 1 3.7
-1 9 -4 3.7 1.9
-1 9 -4 4.6 1.3
-2 9 -4 0.3 1.1
-2 9 -4 4.7 3.5
-2 9 -4 0.6 1.3
-3 9 -4 682.93 25.2
-3 9 -4 609.94 25
-4 9 -4 2 2.7
-4 9 -4 1.5 3.2
-5 9 -4 72.69 2.9
-5 9 -4 69.99 2.9
-5 9 -4 56.19 6.2
-6 9 -4 63.59 3.6
-6 9 -4 73.29 3.9
-6 9 -4 67.79 6.9
-7 9 -4 4.3 3.7
-7 9 -4 5.2 1.9
-8 9 -4 5.2 2.3
-8 9 -4 12.6 4.8
4 8 -4 24.9 5.3
4 8 -4 23.4 4.9
4 8 -4 40.5 6.7
3 8 -4 5 3.1
3 8 -4 9.7 4.8
3 8 -4 4 3.5
2 8 -4 -3 2.5
2 8 -4 -6 3.7
2 8 -4 -1.1 2.5
1 8 -4 0.3 3.7
1 8 -4 0.5 2
1 8 -4 0.8 2.4
0 8 -4 23.2 2.7
0 8 -4 18.9 2.5
0 8 -4 22.8 4.6
0 8 -4 22 2.9
-1 8 -4 570.04 19.5
-1 8 -4 582.24 20
-1 8 -4 633.04 22.8
-1 8 -4 556.94 19.6
-1 8 -4 564.44 19.3
-2 8 -4 361.06 12
-2 8 -4 333.07 15
-2 8 -4 364.76 12.1
-3 8 -4 29.2 4.5
-3 8 -4 22.4 4
-4 8 -4 444.06 14.9
-4 8 -4 468.05 14.9
-4 8 -4 468.85 19.1
-5 8 -4 16.3 3.9
-5 8 -4 19.5 1.9
-5 8 -4 15.5 1.6
-6 8 -4 21.4 4.6
-6 8 -4 27.1 2.2
-6 8 -4 25.5 2.7
-6 8 -4 24 2.4
-7 8 -4 31.6 3
-7 8 -4 29.5 3.2
-7 8 -4 27.5 5.6
-8 8 -4 123.19 9.5
-8 8 -4 122.99 6.5
-8 8 -4 121.79 6.7
5 7 -4 155.68 10.9
5 7 -4 142.89 10.5
5 7 -4 156.18 10
4 7 -4 0.8 2.8
4 7 -4 -6.2 2.7
4 7 -4 3.4 3.7
3 7 -4 3.1 3.1
3 7 -4 -0.4 3.6
3 7 -4 -0.6 2.5
2 7 -4 59.99 5.4
2 7 -4 64.39 4.9
2 7 -4 58.99 6.6
1 7 -4 4 3.3
1 7 -4 7.2 2.1
1 7 -4 7.8 2.3
1 7 -4 10.5 2.6
-1 -7 4 11.1 2.9
0 7 -4 30.4 2.5
0 7 -4 23.2 4.1
0 7 -4 24.8 2.2
0 7 -4 19.4 2.6
0 7 -4 23 2.3
0 -7 4 23.2 1.9
-1 7 -4 11.9 1.1
-1 7 -4 8.9 1.6
-1 7 -4 9.3 1.3
-1 7 -4 10.1 1.1
-1 7 -4 8.2 2.9
-2 7 -4 5.8 0.6
-2 7 -4 4.2 0.7
-2 7 -4 4.2 2.4
-3 7 -4 65.99 5.7
-4 7 -4 1.3 1
-4 7 -4 0.5 0.9
-4 7 -4 0.6 2.6
-5 7 -4 -3.4 1.2
-5 7 -4 -2.1 1.3
-5 7 -4 -1 1
-5 7 -4 1.7 3
-6 7 -4 2.6 2
-6 7 -4 4.3 1.6
-6 7 -4 3.7 3.6
-6 7 -4 2 1.8
-7 7 -4 6.1 4.2
-7 7 -4 5.4 2.2
-7 7 -4 5.5 2.1
-8 7 -4 42.2 4.3
-8 7 -4 35 4.2
-8 7 -4 47.8 6.6
6 6 -4 8.9 4.9
6 6 -4 2.4 3.3
6 6 -4 4.5 4.1
5 6 -4 36.7 5.5
5 6 -4 23.7 4.8
5 6 -4 31.3 5.6
4 6 -4 1.6 3.5
4 6 -4 1.6 3.4
4 6 -4 -0.8 2.9
-4 -6 4 1.4 2.4
3 6 -4 16.9 4.3
3 6 -4 17.3 3.7
3 6 -4 13.6 3.3
-3 -6 4 14.2 2.7
2 6 -4 89.69 5.8
2 6 -4 93.59 5.7
2 6 -4 96.79 5.8
2 6 -4 82.19 6.5
2 6 -4 101.19 5.3
-2 -6 4 88.39 4.6
-2 -6 4 98.89 5
1 6 -4 43.8 3.8
1 6 -4 42.8 3.1
1 6 -4 45.9 3.5
1 6 -4 42.4 3.2
1 6 -4 44.9 4.7
-1 -6 4 41.5 2.8
0 6 -4 2.2 2.2
0 6 -4 1.9 1.2
0 6 -4 1 1
0 6 -4 2 1.2
0 6 -4 -0.1 1.4
0 -6 4 0.2 0.8
-1 6 -4 519.25 17.1
-1 6 -4 509.95 17
-1 6 -4 518.45 19.1
-1 6 -4 522.25 17.5
-1 6 -4 529.65 17.2
-2 6 -4 27.2 1.2
-2 6 -4 21.6 3.2
-2 6 -4 27.1 1.3
-3 6 -4 3.7 0.8
-3 6 -4 4 0.9
-3 6 -4 3.3 2.7
-4 6 -4 12.2 1.7
-4 6 -4 17.9 1.8
-4 6 -4 16.1 3.7
-4 6 -4 14.9 1.5
-4 6 -4 16.1 1.6
4 -6 4 17.2 1.4
-5 6 -4 90.79 7.2
-5 6 -4 80.59 4.4
-5 6 -4 87.19 4.3
-5 6 -4 83.29 4.6
-6 6 -4 66.09 4.4
-6 6 -4 63.49 4.3
-6 6 -4 61.29 6.4
-6 6 -4 64.29 5.1
-7 6 -4 15.6 3
-7 6 -4 25 5.4
-7 6 -4 21.3 3.3
-8 6 -4 -1.7 2.3
-8 6 -4 0.2 3.3
-8 6 -4 -2.4 2.4
7 5 -4 12.3 5.2
7 5 -4 8.2 5
7 5 -4 4.7 4.5
-7 -5 4 2.8 4.5
6 5 -4 71.19 7.3
6 5 -4 73.59 6.8
6 5 -4 62.79 7.5
-6 -5 4 60.39 6.2
5 5 -4 14.1 4.2
5 5 -4 12.1 4.1
5 5 -4 8.1 3.7
-5 -5 4 7.4 3
4 5 -4 24.1 4
4 5 -4 21.3 4.3
4 5 -4 25.5 4.5
-4 -5 4 29.8 3.6
3 5 -4 11.8 2.5
3 5 -4 11.6 2.9
3 5 -4 16.1 3.2
3 5 -4 9.7 3.3
-3 -5 4 15.4 2.6
-3 -5 4 11.6 2.2
2 5 -4 55.39 4.6
2 5 -4 55.09 4.3
2 5 -4 53.09 3.6
2 5 -4 43.1 3.9
2 5 -4 49.9 3.7
-2 -5 4 50.49 3.1
-2 -5 4 49.99 3.6
1 5 -4 51.79 3.3
1 5 -4 52.89 3.9
1 5 -4 54.49 3.6
1 5 -4 52.39 4.2
1 5 -4 60.19 3.3
-1 -5 4 54.39 3.1
-1 -5 4 59.69 2.9
0 5 -4 13.7 1.8
0 5 -4 8.5 1.3
0 5 -4 9.3 1.5
0 5 -4 12.3 1.4
0 5 -4 10.3 2.2
0 -5 4 9.3 1.2
-1 5 -4 261.97 8.8
-1 5 -4 271.97 8.8
-1 5 -4 246.48 9
-1 5 -4 254.37 8.7
-1 5 -4 268.67 10.2
1 -5 4 253.27 8.4
1 -5 4 250.37 8.4
-2 5 -4 569.64 18.6
-2 5 -4 561.14 18.8
-2 5 -4 562.64 18.7
-2 5 -4 581.04 18.6
-2 5 -4 577.84 21.4
-3 5 -4 9.5 1.4
-3 5 -4 11.4 2.6
-3 5 -4 13.2 1.4
-3 5 -4 11.1 1.4
-3 5 -4 12.5 1.3
3 -5 4 8.9 1.1
3 -5 4 12.1 1.2
-4 5 -4 124.49 5.5
-4 5 -4 137.49 5.8
-4 5 -4 128.09 5.5
-4 5 -4 131.29 5.5
-4 5 -4 121.39 7.9
-5 5 -4 126.79 6.2
-5 5 -4 120.19 5.7
-5 5 -4 120.39 5.8
-5 5 -4 113.99 8.3
-5 5 -4 112.19 6.3
5 -5 4 122.29 5.9
-6 5 -4 0 3.5
-6 5 -4 4.4 2.2
-6 5 -4 0.9 1.9
-7 5 -4 73.49 5.2
-7 5 -4 56.09 5
-7 5 -4 58.19 7.3
-8 5 -4 1.6 2.8
-8 5 -4 0.9 2.8
-8 5 -4 1.4 4.7
7 4 -4 17.5 4.4
7 4 -4 19.6 5.2
7 4 -4 13 4.5
-7 -4 4 18.4 6.2
-7 -4 4 15.7 4.4
6 4 -4 14 4.6
6 4 -4 22.2 4.6
6 4 -4 24.4 5
-6 -4 4 17 3.7
-6 -4 4 17.4 4.7
5 4 -4 20.5 4.5
5 4 -4 20.8 4.4
5 4 -4 18.4 4.1
-5 -4 4 27.1 3.8
4 4 -4 2.3 2.3
4 4 -4 2.2 2.8
4 4 -4 1 2.6
4 4 -4 0.8 1.7
-4 -4 4 1.3 2.1
3 4 -4 27.8 3
3 4 -4 21.2 2.7
3 4 -4 21.1 3.2
3 4 -4 23.9 3.2
3 4 -4 18.3 3.2
-3 -4 4 20.6 2.7
-3 -4 4 18 2.4
2 4 -4 39 3
2 4 -4 36 3
2 4 -4 42.6 3.7
2 4 -4 39.2 3.8
2 4 -4 30.8 3.2
-2 -4 4 39.6 2.7
-2 -4 4 39.9 2.9
1 4 -4 71.79 3.5
1 4 -4 69.09 3.9
1 4 -4 64.79 3.9
1 4 -4 61.39 4
1 4 -4 68.59 3.5
-1 -4 4 64.39 3.2
-1 -4 4 66.59 4
-1 -4 4 65.59 3.4
0 4 -4 945.51 29.7
0 4 -4 884.81 29.3
0 4 -4 883.61 29.5
0 4 -4 853.51 29.3
0 4 -4 896.81 29.9
0 -4 4 906.71 29
0 -4 4 867.81 29.3
-1 4 -4 4.7 1.6
-1 4 -4 7.1 1
-1 4 -4 5.8 1.3
-1 4 -4 5.8 1.1
1 -4 4 6.1 1
1 -4 4 7.9 1
-2 4 -4 209.68 7.7
-2 4 -4 201.38 7.5
-2 4 -4 200.08 7.4
-2 4 -4 205.18 7.5
-2 4 -4 214.38 9.8
2 -4 4 210.38 7
2 -4 4 207.08 7.4
-3 4 -4 111.59 4.8
-3 4 -4 110.39 4.8
-3 4 -4 98.49 4.6
-3 4 -4 97.49 6.8
-3 4 -4 101.59 4.8
-3 4 -4 104.99 5.2
3 -4 4 113.09 4.7
3 -4 4 105.29 4.5
-4 4 -4 73.69 4.3
-4 4 -4 76.89 5.8
-4 4 -4 76.59 4.4
-4 4 -4 93.29 4.6
-4 4 -4 77.59 4.3
4 -4 4 79.39 4.3
4 -4 4 89.59 4.4
-5 4 -4 1458.95 49.3
-5 4 -4 1485.55 49.5
-5 4 -4 1506.55 49.4
-5 4 -4 1513.55 49.4
-5 4 -4 1472.05 51.59
5 -4 4 1470.65 49.3
5 -4 4 1416.16 49.4
-6 4 -4 261.47 13.8
-6 4 -4 257.77 11.2
-6 4 -4 274.17 11.3
6 -4 4 262.87 11.4
-7 4 -4 58.89 5.5
-7 4 -4 63.89 7.2
-7 4 -4 73.89 5.7
-8 4 -4 338.37 15.1
-8 4 -4 343.17 15.1
-8 4 -4 371.06 18.1
8 3 -4 48 7.1
8 3 -4 54.89 7.3
-8 -3 4 57.09 8.6
-8 -3 4 47.8 6.2
7 3 -4 9.4 3.6
7 3 -4 -0.5 3.8
7 3 -4 1.3 3.8
-7 -3 4 15.9 4
-7 -3 4 1.1 4.9
6 3 -4 -0.9 3.2
6 3 -4 -3.4 3
6 3 -4 -2.1 2.1
-6 -3 4 2.6 2.2
-6 -3 4 6.8 4.8
5 3 -4 120.59 7.3
5 3 -4 132.19 8.2
5 3 -4 126.99 7.7
-5 -3 4 115.09 6.7
-5 -3 4 125.79 8.4
-5 -3 4 123.89 6.7
4 3 -4 2.3 2.4
4 3 -4 2.8 2.4
4 3 -4 6.1 2.9
4 3 -4 4.3 2.1
-4 -3 4 6 2.2
-4 -3 4 3.8 2
3 3 -4 34.4 3.1
3 3 -4 30.8 3.6
3 3 -4 33 2.9
3 3 -4 32 3.4
3 3 -4 31.9 3.5
-3 -3 4 30.1 3.1
2 3 -4 47.6 3.7
2 3 -4 47.7 3.2
2 3 -4 49.9 4
2 3 -4 51.59 3.5
2 3 -4 55.09 3.3
-2 -3 4 52.09 3.3
-2 -3 4 51.69 3.1
-2 -3 4 57.89 3.6
1 3 -4 1330.07 44.4
1 3 -4 1347.77 44.4
1 3 -4 1374.76 44.8
1 3 -4 1352.06 44.5
1 3 -4 1334.27 44.9
-1 -3 4 1359.86 44.7
-1 -3 4 1395.16 44.3
-1 -3 4 1351.56 44.4
-1 -3 4 1364.06 44.4
0 3 -4 463.85 15.8
0 3 -4 481.35 16.2
0 3 -4 479.35 15.9
0 3 -4 476.85 16.1
0 3 -4 462.15 15.7
0 -3 4 468.85 16.5
0 -3 4 453.85 16
0 -3 4 459.65 15.7
-1 3 -4 789.32 26.4
-1 3 -4 823.22 26.6
-1 3 -4 799.72 26.3
1 -3 4 812.32 26.4
1 -3 4 749.33 26.1
1 -3 4 801.72 26.3
-2 3 -4 380.76 13.7
-2 3 -4 381.06 13.6
-2 3 -4 387.96 13.7
-2 3 -4 381.86 13.6
-2 3 -4 393.06 13.7
-2 3 -4 381.56 15.2
2 -3 4 382.76 13.6
2 -3 4 418.16 13.6
-3 3 -4 -1.1 1.4
-3 3 -4 1.5 1.4
-3 3 -4 -2.3 2.4
-3 3 -4 1 1.4
-3 3 -4 -3.2 1.2
-3 3 -4 2 1.5
3 -3 4 1.1 1.3
3 -3 4 -0.4 1.4
-4 3 -4 196.08 8.3
-4 3 -4 183.98 9.6
-4 3 -4 189.68 8.2
-4 3 -4 181.98 8.2
-4 3 -4 193.58 8.3
4 -3 4 195.78 8.3
4 -3 4 210.88 8.4
-5 3 -4 146.29 7.5
-5 3 -4 159.48 7.5
-5 3 -4 132.49 7.2
-5 3 -4 160.88 9.6
5 -3 4 129.59 7.3
5 -3 4 182.08 7.9
-6 3 -4 207.68 9.7
-6 3 -4 198.38 9.6
-6 3 -4 203.18 11.5
6 -3 4 213.38 10
-7 3 -4 46.9 5.1
-7 3 -4 42.1 4.9
-7 3 -4 56.89 6.8
7 -3 4 52.19 5.5
-8 3 -4 10.9 4.8
-8 3 -4 12.7 3.9
-8 3 -4 22.3 4.5
8 2 -4 5.3 4.5
8 2 -4 9.9 4.4
-8 -2 4 12.3 4.9
-8 -2 4 15.9 4.4
7 2 -4 -0.4 3.3
7 2 -4 -1.2 2.7
7 2 -4 8.4 3.3
-7 -2 4 -2.6 4.5
-7 -2 4 -1.8 2.9
6 2 -4 -3.3 2.8
6 2 -4 -0.7 2.1
6 2 -4 1 3.2
-6 -2 4 -0.7 3.1
-6 -2 4 4.1 2.6
-6 -2 4 -4.3 2.4
5 2 -4 79.59 5.2
5 2 -4 84.69 6
5 2 -4 79.39 5.8
5 2 -4 74.89 5.8
-5 -2 4 85.79 6.6
-5 -2 4 70.29 5.4
-5 -2 4 72.19 5.1
4 2 -4 2.3 2.6
4 2 -4 0.2 2
4 2 -4 1 2.2
4 2 -4 1.6 1.9
-4 -2 4 2.3 1.9
-4 -2 4 4.2 3.1
-4 -2 4 0.5 1.3
3 2 -4 279.37 10.8
3 2 -4 285.47 10.9
3 2 -4 265.27 11.3
3 2 -4 275.47 11.6
3 2 -4 296.97 11.1
-3 -2 4 286.07 11.1
-3 -2 4 283.07 10.8
-3 -2 4 285.67 10.7
2 2 -4 1363.06 46.4
2 2 -4 1435.16 46.3
2 2 -4 1402.66 45.8
2 2 -4 1397.36 45.9
2 2 -4 1377.76 45.8
-2 -2 4 1337.87 45.8
-2 -2 4 1407.56 45.8
-2 -2 4 1415.26 46.3
1 2 -4 55.29 3.5
1 2 -4 54.39 2.5
1 2 -4 53.29 3
1 2 -4 61.39 3.2
1 2 -4 54.99 3.7
-1 -2 4 52.59 3.4
-1 -2 4 57.89 3.3
-1 -2 4 56.09 3.3
-1 -2 4 57.69 2.6
-1 -2 4 54.29 3.1
0 2 -4 275.57 10.1
0 2 -4 281.67 10.4
0 2 -4 280.57 10.2
0 2 -4 290.27 10.6
0 -2 4 295.07 10.4
0 -2 4 285.27 10.4
0 -2 4 272.87 10.1
0 -2 4 298.97 10.3
-1 2 -4 26.4 2.5
-1 2 -4 28.4 2.3
-1 2 -4 26.1 2.2
-1 2 -4 22.5 2.8
-1 2 -4 28.5 2.6
-1 2 -4 27.1 1.8
1 -2 4 25.6 2.2
1 -2 4 31 2.4
1 -2 4 31.7 2.5
1 -2 4 32.2 2.5
-2 2 -4 244.68 9.6
-2 2 -4 259.77 9.8
-2 2 -4 258.07 9.7
-2 2 -4 254.67 10.8
-2 2 -4 252.87 9.8
-2 2 -4 267.47 9.6
2 -2 4 252.97 9.7
2 -2 4 246.18 9.5
-3 2 -4 68.59 4.1
-3 2 -4 74.19 5.8
-3 2 -4 70.29 4.2
-3 2 -4 69.89 4.4
-3 2 -4 65.19 4.2
3 -2 4 66.19 4.2
3 -2 4 73.39 4.3
3 -2 4 67.39 4.3
-4 2 -4 5.4 3
-4 2 -4 5.8 2
-4 2 -4 1 1.9
-4 2 -4 4.4 2.1
4 -2 4 2.8 2.1
4 -2 4 2.3 2.2
-5 2 -4 31.2 4.6
-5 2 -4 32.1 3.9
-5 2 -4 32.5 3.5
5 -2 4 35.2 4.2
5 -2 4 34.3 4.2
-6 2 -4 -1.1 3.9
-6 2 -4 0.4 2
-6 2 -4 1.4 2.8
6 -2 4 9.3 3.3
6 -2 4 0.4 2.3
-7 2 -4 27.4 4.5
-7 2 -4 17 5.8
-7 2 -4 16.4 3.8
7 -2 4 25 4.7
7 -2 4 12.5 4.2
-8 2 -4 2.9 3.4
-8 2 -4 0.6 3.4
-8 2 -4 1.1 3.9
9 1 -4 36 6.2
-9 -1 4 26.9 7.4
-9 -1 4 38.6 5.8
8 1 -4 5.1 4.1
-8 -1 4 2.1 5.4
-8 -1 4 3.8 3.6
7 1 -4 113.09 8.4
7 1 -4 121.89 8.5
7 1 -4 109.59 8.4
-7 -1 4 135.49 7.7
-7 -1 4 113.59 7.7
-7 -1 4 106.79 9.9
6 1 -4 8.7 3.4
6 1 -4 8 2.8
6 1 -4 3.7 3.3
-6 -1 4 6.6 3.5
-6 -1 4 6.9 2.5
-6 -1 4 9.2 2.7
5 1 -4 27.3 3.7
5 1 -4 33.6 4.1
5 1 -4 32.9 4.1
5 1 -4 36.2 4.3
-5 -1 4 26.7 4.1
-5 -1 4 26.4 3.1
-5 -1 4 34 3.5
4 1 -4 -0.6 2.2
4 1 -4 1.4 2.3
4 1 -4 -0.6 1.2
4 1 -4 0.2 2
-4 -1 4 2.2 1.5
-4 -1 4 -0.3 2
-4 -1 4 0.1 1.6
3 1 -4 402.66 15.3
3 1 -4 398.76 15.1
3 1 -4 426.66 15.3
3 1 -4 411.96 14.6
-3 -1 4 400.86 14.7
-3 -1 4 392.16 15.1
-3 -1 4 398.46 14.6
-3 -1 4 406.56 14.7
2 1 -4 11.8 1.8
2 1 -4 7.6 2.1
2 1 -4 11.1 1.9
2 1 -4 10.1 2.4
2 1 -4 7.6 2.3
-2 -1 4 7.8 1.7
-2 -1 4 10.7 1.9
-2 -1 4 12 1.6
-2 -1 4 8.8 1.6
-2 -1 4 11.4 1.6
1 1 -4 793.72 26.7
1 1 -4 800.32 27.1
1 1 -4 815.92 26.7
1 1 -4 815.42 27
-1 -1 4 780.32 26.7
-1 -1 4 800.12 27.1
-1 -1 4 800.82 26.9
-1 -1 4 770.42 26.6
-1 -1 4 789.22 25.9
0 1 -4 592.24 20.4
0 1 -4 583.34 20.4
0 -1 4 578.44 20.3
0 -1 4 589.44 19.3
0 -1 4 601.64 20.4
0 -1 4 568.74 20.2
0 -1 4 617.14 20.5
-1 1 -4 51.49 3.4
-1 1 -4 51.39 3.3
-1 1 -4 54.19 3.2
-1 1 -4 49 3.6
-1 1 -4 49.7 2.9
-1 1 -4 58.79 4.3
1 -1 4 56.99 3
1 -1 4 56.69 3.3
1 -1 4 49.9 3.6
1 -1 4 59.69 3.7
-2 1 -4 0 1.6
-2 1 -4 1.9 1.6
-2 1 -4 3.4 1.7
-2 1 -4 -0.4 1.7
-2 1 -4 3.2 1.9
-2 1 -4 1.4 1.3
2 -1 4 1.4 1.4
2 -1 4 4.1 1.7
2 -1 4 0.7 1.6
-3 1 -4 127.29 6.4
-3 1 -4 132.69 6.6
-3 1 -4 116.29 6.4
-3 1 -4 129.19 7.6
3 -1 4 135.49 6.4
3 -1 4 137.99 6.7
3 -1 4 129.89 6.6
-4 1 -4 0.6 2.2
-4 1 -4 3.9 2.4
-4 1 -4 -0.1 2
-4 1 -4 1.6 2.3
4 -1 4 -2.8 1.3
4 -1 4 4 2.4
4 -1 4 3.5 2.5
-5 1 -4 -4.4 3.1
-5 1 -4 0.5 2.5
-5 1 -4 -0.5 2.4
5 -1 4 -0.2 3
5 -1 4 -6.9 2.2
5 -1 4 -0.1 2.1
-6 1 -4 2 3
-6 1 -4 3.3 3
-6 1 -4 -2.1 4
6 -1 4 2.8 3.2
6 -1 4 2.4 3.4
-7 1 -4 -3.8 3.1
-7 1 -4 -3.6 3
-7 1 -4 -3.9 3.3
7 -1 4 6.5 3.9
7 -1 4 3 3.8
9 0 -4 380.36 17.9
-9 0 4 389.66 17.2
-9 0 4 356.46 18.9
8 0 -4 23.4 4.9
-8 0 4 8 5.4
-8 0 4 7.1 3.6
-8 0 4 9.7 3.6
7 0 -4 85.09 6.7
7 0 -4 93.29 7.3
-7 0 4 90.69 6.6
-7 0 4 93.19 6.5
-7 0 4 90.89 8.6
6 0 -4 5.5 3.1
6 0 -4 5.2 3.2
-6 0 4 5.5 2.5
-6 0 4 -0.4 2.6
-6 0 4 2.7 2.5
5 0 -4 257.97 11.4
5 0 -4 267.77 11.2
-5 0 4 250.17 10.6
-5 0 4 245.58 11.5
-5 0 4 257.47 10.6
-5 0 4 259.07 11.2
4 0 -4 355.46 14.5
4 0 -4 362.66 14.2
4 0 -4 383.06 13.7
-4 0 4 374.66 14.7
-4 0 4 354.06 13.7
-4 0 4 364.96 14.3
-4 0 4 368.26 13.7
3 0 -4 555.64 19.2
3 0 -4 523.25 19.6
3 0 -4 570.94 19.8
3 0 -4 550.14 19.8
-3 0 4 606.64 19.6
-3 0 4 538.55 19.2
-3 0 4 507.75 19.7
-3 0 4 540.55 19.2
2 0 -4 831.72 28.5
2 0 -4 800.32 27.9
2 0 -4 815.02 28.2
2 0 -4 947.11 28.3
2 0 -4 809.52 28.6
-2 0 4 854.51 28.4
-2 0 4 781.52 28.1
-2 0 4 842.72 28.6
-2 0 4 810.02 28
1 0 -4 1438.96 47.5
1 0 -4 1412.66 47.3
1 0 -4 1464.55 47.9
1 0 -4 1411.96 47.7
-1 0 4 1393.46 47.5
-1 0 4 1615.74 48
-1 0 4 1400.86 47
-1 0 4 1403.96 47.7
-1 0 4 1430.46 47.4
0 0 -4 620.34 21.6
0 0 -4 604.24 21.4
0 0 -4 621.04 21.2
0 0 -4 601.94 20.9
0 0 -4 608.34 21.5
0 0 -4 604.44 21.3
0 0 4 606.44 21.5
0 0 4 611.84 20.9
0 0 4 674.23 21.4
0 0 4 637.34 21.5
0 0 4 613.84 21.6
-1 0 -4 104.69 5.4
-1 0 -4 110.89 5.2
-1 0 -4 112.99 5.8
-1 0 -4 98.79 5.5
-1 0 -4 107.69 5.4
-1 0 -4 108.69 5.3
1 0 4 110.69 5.3
1 0 4 117.29 5.3
1 0 4 108.69 5.5
1 0 4 107.39 5.4
-2 0 -4 225.98 9.8
-2 0 -4 233.88 9.5
-2 0 -4 234.28 9.7
-2 0 -4 241.78 10.4
2 0 4 248.08 10
2 0 4 234.38 9.8
2 0 4 238.78 9.7
-3 0 -4 32.8 4
-3 0 -4 30.5 3.4
-3 0 -4 40.1 3.7
-3 0 -4 31.8 3.7
3 0 4 38.2 4
3 0 4 36.7 3.7
3 0 4 35.1 4
-4 0 -4 24.7 3.7
-4 0 -4 21.2 3.6
-4 0 -4 20.8 4.4
-4 0 -4 20.8 3.2
4 0 4 20.5 3.8
4 0 4 30 4
4 0 4 24.3 3.8
-5 0 -4 -0.6 3.8
-5 0 -4 -1.4 2.5
-5 0 -4 0.1 2.6
5 0 4 -2.4 2.7
5 0 4 1.9 3.2
-6 0 -4 4.8 3.4
-6 0 -4 5.7 2.8
-6 0 -4 7.8 3.8
6 0 4 5.2 3
6 0 4 -2.2 2.4
-7 0 -4 0 5.5
-7 0 -4 11.9 4.1
7 0 4 9.8 4.4
7 0 4 16 4.9
9 -1 -4 6.4 4.1
-9 1 4 -0.4 3.1
-9 1 4 2.6 3.4
-9 1 4 -5.1 5.2
8 -1 -4 38.8 5.4
-8 1 4 21.6 5.8
-8 1 4 30.7 4.2
-8 1 4 36.3 5
7 -1 -4 4.3 3.3
-7 1 4 0.3 3.8
-7 1 4 1.6 2.1
-7 1 4 2 2.6
6 -1 -4 -1.9 2.6
6 -1 -4 -3.6 2.5
-6 1 4 1.5 2.1
-6 1 4 6.8 2.6
-6 1 4 0.1 1.6
-6 1 4 2.6 3.4
5 -1 -4 113.09 6.8
5 -1 -4 101.29 6.1
-5 1 4 114.19 6.9
-5 1 4 106.19 6
-5 1 4 105.19 6.5
-5 1 4 109.19 5.6
4 -1 -4 0.6 2.2
4 -1 -4 0.9 2.1
-4 1 4 2.5 1.8
-4 1 4 4.2 1.9
-4 1 4 1.3 2
-4 1 4 1.6 2.1
3 -1 -4 266.77 10
3 -1 -4 263.67 10.2
3 -1 -4 253.07 10.8
3 -1 -4 269.67 10.7
-3 1 4 269.07 10.9
-3 1 4 255.97 10.3
-3 1 4 257.37 10.2
2 -1 -4 1063.99 37.1
2 -1 -4 1102.29 37.1
2 -1 -4 1099.99 36.3
2 -1 -4 1135.99 36.6
-2 1 4 1063.39 37.1
-2 1 4 1100.99 37
-2 1 4 1107.49 36.7
-2 1 4 1090.99 36.7
1 -1 -4 179.08 7.1
1 -1 -4 173.88 7.6
1 -1 -4 174.18 6.8
1 -1 -4 172.28 7.7
-1 1 4 168.48 7.3
-1 1 4 168.58 7.1
-1 1 4 170.78 7.2
-1 1 4 163.38 7.5
0 -1 -4 1.6 1.5
0 -1 -4 3.4 2
0 -1 -4 2.1 1.2
0 -1 -4 1.5 2
0 -1 -4 -0.1 1.4
0 1 4 0.5 1.7
0 1 4 1.1 1.8
0 1 4 0.3 1.7
0 1 4 -0.7 1.9
-1 -1 -4 27.6 3.2
-1 -1 -4 20.7 2.7
-1 -1 -4 21.5 3
-1 -1 -4 25.5 2.8
1 1 4 23.5 2.8
1 1 4 24.4 3.1
1 1 4 30.2 3
1 1 4 23.9 3
1 1 4 24.1 2.7
-2 -1 -4 7.9 2.5
-2 -1 -4 9.1 2.6
-2 -1 -4 6 1.9
-2 -1 -4 6.6 2
2 1 4 6.8 2.7
2 1 4 8.7 2.1
2 1 4 3.7 2.3
-3 -1 -4 118.39 7.7
-3 -1 -4 123.89 6.7
-3 -1 -4 123.69 7
3 1 4 127.19 7.3
3 1 4 130.39 7
3 1 4 121.79 7.4
-4 -1 -4 79.09 7.2
-4 -1 -4 74.39 5.5
-4 -1 -4 71.69 5.9
4 1 4 65.99 6.2
4 1 4 75.19 6.5
4 1 4 77.69 6.4
-5 -1 -4 172.88 11.4
-5 -1 -4 176.68 9.8
-5 -1 -4 196.18 10.3
5 1 4 186.08 10.5
5 1 4 185.18 10.7
-6 -1 -4 0.2 3.7
-6 -1 -4 -2.6 3.4
6 1 4 4.3 3.2
6 1 4 -4.3 3.5
9 -2 -4 -0.6 3.3
-9 2 4 -0.8 3.1
-9 2 4 0.4 3.1
-9 2 4 -9.6 4.5
8 -2 -4 4.7 3.6
-8 2 4 8.3 4.7
-8 2 4 11.5 3.6
-8 2 4 11.5 3.4
7 -2 -4 7.3 3.4
-7 2 4 10 3
-7 2 4 5.9 3.9
-7 2 4 7 3
6 -2 -4 133.59 8.2
6 -2 -4 166.18 8.4
-6 2 4 204.28 12.6
-6 2 4 168.18 9
-6 2 4 151.48 7.9
-6 2 4 151.88 7.8
5 -2 -4 71.89 4.8
5 -2 -4 63.29 5.1
-5 2 4 66.59 5.2
-5 2 4 61.79 4.9
-5 2 4 65.89 4.6
-5 2 4 55.29 4.5
4 -2 -4 18.7 3.1
4 -2 -4 21 2.8
4 -2 -4 15 2.2
-4 2 4 16.7 2.4
-4 2 4 19.9 2.7
-4 2 4 19.1 2.8
3 -2 -4 37.8 2.8
3 -2 -4 37 3.6
3 -2 -4 37.9 3.7
-3 2 4 37.2 3.6
-3 2 4 35.2 3.3
-3 2 4 39 3.3
2 -2 -4 3 2
2 -2 -4 -0.8 1.4
2 -2 -4 1.8 1.1
-2 2 4 3.8 2.3
-2 2 4 1.9 1.7
-2 2 4 0.6 1.8
-2 2 4 1.3 1.3
1 -2 -4 690.33 23
1 -2 -4 712.53 24.3
1 -2 -4 689.23 24.2
-1 2 4 678.53 24.3
-1 2 4 685.83 24.4
-1 2 4 683.93 24
-1 2 4 695.73 24.2
0 -2 -4 9.4 2.1
0 -2 -4 5.9 2.3
0 -2 -4 10.9 1.8
0 2 4 10 2.1
0 2 4 12.2 2.6
0 2 4 11.7 2.5
0 2 4 9.9 2.6
-1 -2 -4 10.8 2.4
-1 -2 -4 16.7 2.7
-1 -2 -4 15.9 2.9
1 2 4 14.5 2.9
1 2 4 13.4 2.7
1 2 4 11 2.7
1 2 4 13.1 2.3
1 2 4 14.2 2.9
-2 -2 -4 615.94 23
-2 -2 -4 609.34 22.9
-2 -2 -4 647.14 23.3
2 2 4 652.23 23.8
2 2 4 598.64 23.2
2 2 4 654.53 23.4
-3 -2 -4 0.7 1.9
-3 -2 -4 -4.2 2.3
-3 -2 -4 -0.5 3
3 2 4 0.3 2.8
3 2 4 -1.9 3
3 2 4 -0.3 2
-4 -2 -4 105.09 7.3
-4 -2 -4 130.49 9
-4 -2 -4 114.09 7.7
4 2 4 103.59 7.9
4 2 4 116.89 8.2
4 2 4 108.29 8.3
-5 -2 -4 9.7 3.2
-5 -2 -4 2 4.5
5 2 4 15.1 4.7
5 2 4 4.5 3.1
-6 -2 -4 -6.1 5.2
-6 -2 -4 0.2 3
6 2 4 2 4.1
6 2 4 -1.6 3
9 -3 -4 45 6
-9 3 4 33.4 5
-9 3 4 21.3 6.1
-9 3 4 37.5 5.3
8 -3 -4 39.3 5.4
-8 3 4 23.8 5.2
-8 3 4 48 5.2
-8 3 4 32.1 4.5
7 -3 -4 3.5 3.2
-7 3 4 3.9 2.7
-7 3 4 0.6 2.3
-7 3 4 2.2 3.4
6 -3 -4 9.6 2.7
-6 3 4 13.9 3.1
-6 3 4 16 3.3
-6 3 4 16.5 2.7
5 -3 -4 37.2 3.4
5 -3 -4 32.1 4
-5 3 4 33.5 3.6
-5 3 4 35.8 3.6
-5 3 4 34.2 3.5
-5 3 4 41.2 4.5
4 -3 -4 0.1 2
4 -3 -4 3.4 1.3
-4 3 4 1 1.5
-4 3 4 1.9 1.7
-4 3 4 0.1 1.7
3 -3 -4 1.1 2
3 -3 -4 0.2 0.7
-3 3 4 3.4 2.1
-3 3 4 -0.3 1.3
2 -3 -4 45 4
2 -3 -4 45.7 3.9
-2 3 4 54.49 4
-2 3 4 41.9 3.3
-2 3 4 47.4 4.3
-2 3 4 47.3 4.2
1 -3 -4 0.3 0.8
1 -3 -4 -0.8 1.9
1 -3 -4 0 1.9
-1 3 4 -1.5 1.6
-1 3 4 2.2 1.6
-1 3 4 -0.1 1.8
-1 3 4 0.4 2
0 -3 -4 0.6 2
0 -3 -4 2.3 1.5
0 -3 -4 2.1 2.1
0 3 4 -1.6 2.4
0 3 4 -0.8 1.9
0 3 4 2.4 2.2
0 3 4 2 2.2
-1 -3 -4 1.8 2.2
-1 -3 -4 0.7 2.1
-1 -3 -4 -6.3 1.9
1 3 4 -3.3 2.9
1 3 4 1.3 1.8
1 3 4 -1.1 2.3
1 3 4 -0.2 1.8
-2 -3 -4 316.57 13.4
-2 -3 -4 309.07 13.2
-2 -3 -4 308.97 13.1
2 3 4 292.37 13.1
2 3 4 305.87 13.5
2 3 4 302.07 14.1
-3 -3 -4 107.59 7.4
-3 -3 -4 96.29 8.2
3 3 4 84.29 7.7
3 3 4 96.29 6.8
3 3 4 106.99 6.9
-4 -3 -4 2.1 3.2
-4 -3 -4 -5.9 3.7
4 3 4 -1.3 3.4
4 3 4 0.1 3.5
4 3 4 3.3 3.9
-5 -3 -4 68.39 8.4
-5 -3 -4 74.19 7
5 3 4 97.39 8.8
5 3 4 78.99 8.2
-9 4 4 -0.6 3.1
-9 4 4 4.6 3.4
-9 4 4 -5 4.1
8 -4 -4 63.69 6.4
-8 4 4 59.69 5.4
-8 4 4 56.09 6.3
-8 4 4 50.99 5.5
7 -4 -4 143.09 8.3
-7 4 4 126.69 8.4
-7 4 4 128.79 7.6
-7 4 4 144.09 7.8
6 -4 -4 2.6 2.7
-6 4 4 2.7 2.4
-6 4 4 0.2 2.4
-6 4 4 -0.5 2.3
5 -4 -4 1443.66 48.9
5 -4 -4 1338.87 48.6
5 -4 -4 1448.76 47.7
-5 4 4 1388.96 48.4
-5 4 4 1415.36 49.7
-5 4 4 1566.94 48.6
4 -4 -4 25.3 1.7
4 -4 -4 31.5 3.5
4 -4 -4 25.3 3.4
-4 4 4 25.9 3.2
-4 4 4 32.9 3.7
3 -4 -4 23.6 3.2
3 -4 -4 22.5 3
-3 4 4 22.5 3.5
-3 4 4 25.5 3.2
-3 4 4 21.8 2.9
-3 4 4 16.6 3.2
2 -4 -4 51.29 4.5
-2 4 4 54.09 4.9
-2 4 4 53.59 4.3
-2 4 4 45.7 4.1
-2 4 4 55.99 5.1
1 -4 -4 -2.7 1.8
-1 4 4 -1.4 1.9
-1 4 4 -1.5 2.1
-1 4 4 -0.6 2
-1 4 4 -0.8 2.2
0 -4 -4 1.5 1.7
0 -4 -4 1.4 2.2
0 -4 -4 4.5 2.1
0 4 4 3.4 2.6
0 4 4 1 3.2
0 4 4 1 2.4
-1 -4 -4 13.2 3
-1 -4 -4 13.2 3.5
1 4 4 18.8 3.8
1 4 4 10 3.3
1 4 4 10.5 4.2
-2 -4 -4 28.1 4.6
-2 -4 -4 27.8 4.5
2 4 4 27.1 4.8
2 4 4 28.8 4.7
2 4 4 37.3 4.6
-3 -4 -4 90.69 7.7
-3 -4 -4 87.69 7.1
3 4 4 86.89 7.7
3 4 4 88.19 8
3 4 4 88.19 7.5
-4 -4 -4 -3.4 4.1
-4 -4 -4 0.6 2.8
4 4 4 3.5 4.1
4 4 4 2.7 4.3
-9 5 4 3.5 3.2
-9 5 4 1.1 3.2
-8 5 4 30.7 4.3
-8 5 4 34.6 4.7
7 -5 -4 70.89 7
-7 5 4 68.09 5.7
-7 5 4 58.29 5.4
6 -5 -4 498.15 19.8
-6 5 4 512.95 19.5
-6 5 4 536.45 19.7
5 -5 -4 195.28 9.4
-5 5 4 190.38 9
4 -5 -4 113.09 6.5
-4 5 4 109.29 6.4
3 -5 -4 90.69 5.7
-3 5 4 96.29 7.1
-3 5 4 87.89 5.9
-3 5 4 93.69 5.7
2 -5 -4 -2.3 2.1
-2 5 4 -4.2 1.9
-2 5 4 0 3.1
-2 5 4 -2.2 2.1
1 -5 -4 63.89 5.2
-1 5 4 52.99 5.1
-1 5 4 58.19 6.4
-1 5 4 63.19 5.3
0 -5 -4 5.3 2.9
0 5 4 5.5 2.9
0 5 4 5.3 2.9
0 5 4 11 4.4
-1 -5 -4 162.48 9
1 5 4 148.09 9
1 5 4 158.38 9.7
-2 -5 -4 167.48 9.7
2 5 4 169.38 10
2 5 4 148.49 10.1
2 5 4 164.68 9.8
-3 -5 -4 0 3.5
3 5 4 3.7 4.7
3 5 4 -1.1 3.6
3 5 4 -4.4 3.6
-9 6 4 9 3.6
-9 6 4 10.7 3.6
-8 6 4 51.89 5.4
-8 6 4 66.39 6
-7 6 4 9.5 3.1
-7 6 4 10.4 3.1
-6 6 4 1.5 2.4
-5 6 4 99.29 6.3
4 -6 -4 140.89 7.5
-4 6 4 133.89 9.1
-4 6 4 142.89 7.4
-4 6 4 137.69 7.5
3 -6 -4 5 2.6
-3 6 4 7.5 3.1
-3 6 4 4.5 2.5
-3 6 4 3.9 2.5
2 -6 -4 49.6 5
-2 6 4 65.59 5.5
-2 6 4 55.99 5.3
-2 6 4 60.79 6.8
1 -6 -4 32.1 4.3
-1 6 4 30.2 4.3
-1 6 4 39.1 6.1
-1 6 4 44.9 4.9
0 -6 -4 249.58 11.4
0 6 4 211.38 11.2
0 6 4 228.68 13
0 6 4 215.08 11.2
-1 -6 -4 18.2 5.8
1 6 4 9.2 5.3
1 6 4 20.6 4.4
1 6 4 13.5 4
2 6 4 15.6 4.2
2 6 4 12.5 4.6
2 6 4 6.6 5.5
-8 7 4 -0.9 2.8
-7 7 4 57.49 5.4
-6 7 4 8.4 3.1
-5 7 4 2.3 2.9
-5 7 4 -3.4 2.2
-5 7 4 3.2 2.7
-4 7 4 14.4 4.7
-4 7 4 15 3.3
-4 7 4 13.3 3.1
-3 7 4 4.4 2.8
-3 7 4 -0.5 3.6
-3 7 4 5.7 3
-2 7 4 3.1 3
-2 7 4 6.4 3.2
-2 7 4 5.7 4.5
-1 7 4 15.7 3.8
-1 7 4 22.5 4.3
-1 7 4 14.6 4.8
0 7 4 5 5.2
0 7 4 6.3 3.8
0 7 4 1.1 2.6
1 7 4 -0.5 5.4
1 7 4 -8.3 3.1
1 7 4 7.4 4
-7 8 4 21.8 4
-6 8 4 10.1 4
-6 8 4 10.4 3.2
-6 8 4 7.2 3.1
-5 8 4 8.7 3
-5 8 4 8.6 3.1
-5 8 4 12.9 4.1
-4 8 4 49.8 7.3
-4 8 4 45.2 5.2
-4 8 4 41 5
-3 8 4 76.19 8.2
-3 8 4 75.69 6.5
-3 8 4 65.89 6.2
-2 8 4 32.2 4.7
-2 8 4 25.3 4.5
-2 8 4 29 6.4
-1 8 4 12.2 4.4
-1 8 4 14.8 6.3
-1 8 4 10.8 4
-1 11 -5 0.4 2.2
-1 11 -5 -6 4
-2 11 -5 12.8 1.7
-2 11 -5 11.8 4.8
-2 11 -5 10 1.8
-3 11 -5 3.2 4.1
-3 11 -5 4.7 3.6
-4 11 -5 3.7 3.3
-4 11 -5 10.7 4
-5 11 -5 35.7 5.5
-5 11 -5 40.1 6.1
1 10 -5 85.69 6.8
1 10 -5 97.29 9.1
0 10 -5 69.29 7.9
0 10 -5 81.79 4.7
0 10 -5 82.09 5.9
-1 10 -5 455.25 19.9
-1 10 -5 461.35 16.7
-1 10 -5 455.35 16.3
-2 10 -5 1.7 1
-2 10 -5 1.9 1.2
-2 10 -5 -2.1 3.6
-3 10 -5 10.2 3.9
-3 10 -5 12.6 3.9
-4 10 -5 30.6 5.2
-4 10 -5 23 4.6
-5 10 -5 390.86 17.5
-5 10 -5 355.86 16.8
-6 10 -5 8.5 1.1
-6 10 -5 8.4 3.9
-6 10 -5 6.1 0.9
-7 10 -5 79.29 8.4
-7 10 -5 83.09 4.2
3 9 -5 0.8 3.3
3 9 -5 -0.4 4.2
3 9 -5 -9.7 3.2
2 9 -5 33.6 6.3
2 9 -5 33.2 4.4
2 9 -5 35.8 5.1
1 9 -5 3.6 2.7
1 9 -5 -5.9 3.7
1 9 -5 1.6 2.2
0 9 -5 12.3 2.6
0 9 -5 12.4 4.3
0 9 -5 14.4 2.1
0 9 -5 13.7 2.9
-1 9 -5 78.69 7
-1 9 -5 89.99 4.3
-1 9 -5 84.99 4.7
-2 9 -5 62.99 2.8
-2 9 -5 58.79 2.7
-2 9 -5 61.19 6.2
-3 9 -5 301.67 14
-3 9 -5 272.97 13.1
-4 9 -5 22.1 4.2
-4 9 -5 22.3 4.5
-5 9 -5 167.38 5.8
-5 9 -5 150.58 10.1
-5 9 -5 163.78 5.8
-6 9 -5 174.88 7
-6 9 -5 186.28 7.2
-6 9 -5 170.38 10.6
-7 9 -5 24.6 5.4
-7 9 -5 19.9 2.5
4 8 -5 13.3 4.3
4 8 -5 14.6 4.9
4 8 -5 12.4 4.5
3 8 -5 17.3 5
3 8 -5 9.2 4.2
3 8 -5 11.3 3.6
2 8 -5 2 3.9
2 8 -5 11.7 3.2
2 8 -5 9.1 2.9
1 8 -5 2.2 2.1
1 8 -5 2.3 2.4
1 8 -5 -0.8 3.2
0 8 -5 23.1 4.2
0 8 -5 22.1 2.3
0 8 -5 21.8 2.9
0 8 -5 21.1 2.4
-1 8 -5 40.1 4.9
-1 8 -5 40.4 3
-1 8 -5 42.3 2.6
-1 8 -5 37 1.8
-1 8 -5 40 1.9
-2 8 -5 12.6 1.1
-2 8 -5 10.2 0.9
-2 8 -5 8.1 3
-3 8 -5 2.5 2.6
-3 8 -5 -2.8 2.8
-4 8 -5 55.19 2.4
-4 8 -5 62.19 6.5
-4 8 -5 55.19 2.4
-5 8 -5 129.79 9.1
-5 8 -5 122.99 5.3
-5 8 -5 119.89 5.2
-6 8 -5 -1.2 1.7
-6 8 -5 -2.5 1.5
-6 8 -5 0.8 1.2
-6 8 -5 5.6 4.1
-7 8 -5 2.3 1.8
-7 8 -5 7.1 4.6
-7 8 -5 4 2.1
-8 8 -5 33.7 6
-8 8 -5 34.1 4.1
-8 8 -5 43.7 4.1
5 7 -5 150.08 10.5
5 7 -5 152.58 9.9
5 7 -5 168.18 10.9
4 7 -5 -1.1 3.1
4 7 -5 1 3.3
4 7 -5 3.5 3.7
3 7 -5 47.5 4.9
3 7 -5 50.29 6
3 7 -5 53.39 5.6
2 7 -5 11.8 3.8
2 7 -5 12.9 3.1
2 7 -5 9.9 2.7
1 7 -5 -1.4 1.7
1 7 -5 0.6 2.7
1 7 -5 0.3 1.8
1 7 -5 -1.8 1.6
0 7 -5 5.4 1.4
0 7 -5 3.4 2.6
0 7 -5 2.7 1.7
0 7 -5 5.1 1.6
0 7 -5 5.1 1.4
0 -7 5 4.2 1.1
-1 7 -5 22.5 2.1
-1 7 -5 21.3 1.7
-1 7 -5 16.8 3.1
-1 7 -5 20.3 1.3
-1 7 -5 20.1 1.5
-2 7 -5 0.7 0.6
-2 7 -5 -0.1 0.7
-2 7 -5 -0.5 2.2
-3 7 -5 5.4 0.9
-3 7 -5 8.4 3.3
-4 7 -5 56.49 3
-4 7 -5 54.09 3
-4 7 -5 53.59 6.1
-4 7 -5 59.39 2.5
-5 7 -5 35 2.9
-5 7 -5 37.8 5.6
-5 7 -5 37.9 2.6
-5 7 -5 40.5 3.2
-6 7 -5 0.6 1.7
-6 7 -5 -1 1.5
-6 7 -5 -2 2.5
-7 7 -5 3.5 2.2
-7 7 -5 7.7 4.6
-7 7 -5 5.5 2.2
-8 7 -5 53.49 4.9
-8 7 -5 42.8 4.5
-8 7 -5 35.6 6.3
6 6 -5 31.9 5.5
6 6 -5 46.2 6.7
6 6 -5 34.7 5.7
5 6 -5 7.9 3.7
5 6 -5 6.3 4
5 6 -5 13.3 4.3
4 6 -5 24.4 4.5
4 6 -5 32.1 4.9
4 6 -5 22.3 4
-4 -6 5 20 3.4
3 6 -5 0.9 2.6
3 6 -5 1.4 2.5
3 6 -5 0.1 2.9
-3 -6 5 -1.1 2
2 6 -5 187.98 8.8
2 6 -5 189.98 8.2
2 6 -5 188.28 8.6
2 6 -5 177.58 9.1
-2 -6 5 176.28 7.5
-2 -6 5 190.38 7.9
1 6 -5 4.4 2
1 6 -5 1.9 2.2
1 6 -5 3.9 1.7
1 6 -5 1.7 1.7
1 6 -5 4.9 1.6
-1 -6 5 3.2 1.3
0 6 -5 -1.8 1.2
0 6 -5 0.7 1.1
0 6 -5 -0.3 1
0 6 -5 -2.5 1.7
0 6 -5 0 1.4
0 -6 5 0.8 0.8
-1 6 -5 136.39 5.2
-1 6 -5 139.29 6.5
-1 6 -5 131.09 5.5
-1 6 -5 139.29 5
-1 6 -5 135.09 5.1
-2 6 -5 5.3 1
-2 6 -5 6.9 0.8
-2 6 -5 7.3 0.8
-2 6 -5 5.4 1.2
-2 6 -5 6.3 2.2
-3 6 -5 0.7 1.1
-3 6 -5 1.5 1
-3 6 -5 0.8 0.8
-3 6 -5 -0.1 2
3 -6 5 1.5 0.3
-4 6 -5 6.9 1.6
-4 6 -5 7.1 1.5
-4 6 -5 12.2 1.8
-4 6 -5 3.2 1.3
-4 6 -5 9.8 3.7
4 -6 5 8 1.3
-5 6 -5 269.77 10.2
-5 6 -5 271.87 13.1
-5 6 -5 263.47 10.4
-5 6 -5 243.28 10.1
-6 6 -5 77.99 4.9
-6 6 -5 72.89 5
-6 6 -5 102.29 8.5
-7 6 -5 2.9 2.2
-7 6 -5 0.6 2.1
-7 6 -5 -1.1 2.9
-8 6 -5 2.9 3.1
-8 6 -5 5.6 4.9
-8 6 -5 2.9 2.8
7 5 -5 6.5 4.5
7 5 -5 11.8 4.7
7 5 -5 11.2 4.6
6 5 -5 10 4.2
6 5 -5 3.1 3.1
6 5 -5 0.1 3.6
-6 -5 5 0.4 3
5 5 -5 10.3 3.9
5 5 -5 4.6 2.7
5 5 -5 2.7 3.3
-5 -5 5 5.4 3
4 5 -5 0.2 2.9
4 5 -5 1.4 2.7
4 5 -5 5.8 3
-4 -5 5 1.4 2.2
3 5 -5 -1 1.8
3 5 -5 3.4 2
3 5 -5 -1.9 2.3
3 5 -5 -2.3 2.1
3 5 -5 0.8 2.4
-3 -5 5 -1.7 1.6
-3 -5 5 0.1 1.5
2 5 -5 89.49 5.3
2 5 -5 103.89 5
2 5 -5 90.79 5
2 5 -5 90.19 5.6
2 5 -5 100.69 5.7
-2 -5 5 92.69 4.8
-2 -5 5 95.79 4.6
1 5 -5 91.99 4.4
1 5 -5 92.19 5
1 5 -5 89.29 5.1
1 5 -5 84.89 4.7
1 5 -5 91.49 4.5
-1 -5 5 93.79 5
-1 -5 5 96.79 4.1
-1 -5 5 91.59 4.3
0 5 -5 21.1 2.4
0 5 -5 19.1 2.3
0 5 -5 21 1.8
0 5 -5 18.1 2
0 5 -5 17.5 1.8
-1 5 -5 61.09 3.6
-1 5 -5 63.19 2.8
-1 5 -5 58.89 3.3
-1 5 -5 59.19 2.9
-1 5 -5 53.79 2.9
1 -5 5 56.59 2.7
1 -5 5 59.19 2.7
-2 5 -5 293.57 10.1
-2 5 -5 298.57 10.4
-2 5 -5 282.27 12.9
-2 5 -5 276.67 10
-2 5 -5 292.87 10.1
2 -5 5 279.37 9.9
-3 5 -5 11.1 1.6
-3 5 -5 15.6 3.2
-3 5 -5 11.1 1.7
-3 5 -5 13.7 1.9
-3 5 -5 15.1 1.8
-4 5 -5 8.1 1.9
-4 5 -5 5.6 1.7
-4 5 -5 1.4 3.2
-4 5 -5 5 1.7
-4 5 -5 5.3 1.8
4 -5 5 3.2 1.5
-5 5 -5 202.48 11.2
-5 5 -5 197.28 8.8
-5 5 -5 211.18 9
-5 5 -5 215.98 8.9
5 -5 5 205.08 8.9
-6 5 -5 56.09 6.4
-6 5 -5 46 4.3
-6 5 -5 37.6 4
-7 5 -5 92.29 6.3
-7 5 -5 106.29 9.8
-7 5 -5 99.69 6.5
-8 5 -5 6.5 4.1
-8 5 -5 8.4 3.2
-8 5 -5 9.9 3.5
7 4 -5 2.6 3.9
7 4 -5 3 4
7 4 -5 7 3.6
-7 -4 5 0.2 3.5
6 4 -5 0.9 3.3
6 4 -5 0.9 3.5
6 4 -5 2.1 3.7
-6 -4 5 1.8 3
5 4 -5 9.1 3.4
5 4 -5 6.5 3.5
5 4 -5 7 3
-5 -4 5 4.3 2.8
4 4 -5 37.3 4.4
4 4 -5 36.7 4.7
4 4 -5 44.4 4.7
4 4 -5 32.7 4.2
-4 -4 5 30.7 3.7
3 4 -5 53.19 4.9
3 4 -5 56.19 4.2
3 4 -5 48.2 4.3
3 4 -5 51.99 3.9
3 4 -5 50.89 3.8
-3 -4 5 47.3 3.5
-3 -4 5 55.19 3.9
2 4 -5 690.83 22
2 4 -5 637.54 22.4
2 4 -5 632.54 22.1
2 4 -5 615.04 21.8
2 4 -5 615.34 22.6
-2 -4 5 618.84 22.1
-2 -4 5 620.54 21.9
-2 -4 5 622.64 21.6
1 4 -5 137.49 6.1
1 4 -5 130.79 6.3
1 4 -5 136.99 5.8
1 4 -5 133.39 5.7
1 4 -5 133.49 5.7
-1 -4 5 137.49 5.8
-1 -4 5 135.59 5.8
-1 -4 5 138.99 5.5
0 4 -5 99.69 4.4
0 4 -5 100.89 4.3
0 4 -5 99.19 4.7
0 4 -5 99.49 4.4
0 4 -5 111.49 4.9
0 -4 5 97.49 4.1
-1 4 -5 163.98 6.3
-1 4 -5 168.28 6.4
-1 4 -5 162.58 6.5
-1 4 -5 161.18 6.7
1 -4 5 165.18 6
-2 4 -5 125.09 5.3
-2 4 -5 128.89 5.6
-2 4 -5 119.69 5.3
-2 4 -5 128.59 5.4
-2 4 -5 139.99 5.6
-2 4 -5 117.49 7
2 -4 5 130.89 5.1
2 -4 5 125.79 5.3
-3 4 -5 605.34 20.8
-3 4 -5 604.74 21.1
-3 4 -5 582.44 20.8
-3 4 -5 589.54 23
-3 4 -5 602.74 20.7
-3 4 -5 588.14 20.7
3 -4 5 618.34 20.7
3 -4 5 597.04 20.5
-4 4 -5 1.8 1.7
-4 4 -5 1.3 1.7
-4 4 -5 2.8 2.5
-4 4 -5 -0.2 1.8
-4 4 -5 -1.3 1.6
4 -4 5 3 1.8
4 -4 5 0.1 1.5
-5 4 -5 58.29 4.7
-5 4 -5 65.09 4.7
-5 4 -5 56.79 6.5
5 -4 5 60.69 4.7
-6 4 -5 44.4 5.9
-6 4 -5 38.7 4.2
-6 4 -5 43.6 4.5
6 -4 5 46.9 4.8
-7 4 -5 6.5 3
-7 4 -5 8.5 3.2
-7 4 -5 2.8 4.6
-8 4 -5 303.97 13.8
-8 4 -5 288.77 17
-8 4 -5 280.67 13.7
8 3 -5 15.5 5
8 3 -5 9.6 4.4
-8 -3 5 10.2 4.2
-8 -3 5 4.2 4.6
7 3 -5 19.8 5
7 3 -5 28.5 5.3
7 3 -5 34.9 5.8
-7 -3 5 24.1 4.5
6 3 -5 68.99 6.9
6 3 -5 71.09 6.8
6 3 -5 80.69 6.8
-6 -3 5 90.99 6.5
5 3 -5 18.8 3.4
5 3 -5 13.2 3.4
5 3 -5 13.7 3.8
-5 -3 5 12.3 2.7
-5 -3 5 15.8 3
4 3 -5 2.8 1.7
4 3 -5 4.6 2.3
4 3 -5 1 2.4
4 3 -5 4.3 2.2
-4 -3 5 1 2.1
-4 -3 5 3.5 1.9
3 3 -5 78.99 5.3
3 3 -5 93.09 5
3 3 -5 87.09 4.6
3 3 -5 84.19 5.4
3 3 -5 86.19 5.4
-3 -3 5 98.89 5.1
2 3 -5 1134.49 38.8
2 3 -5 1148.59 38.5
2 3 -5 1118.59 38.1
2 3 -5 1134.39 37.9
2 3 -5 1166.08 38.1
-2 -3 5 1144.99 38
-2 -3 5 1137.59 38.1
-2 -3 5 1148.89 37.9
1 3 -5 8.1 1.9
1 3 -5 9.3 1.6
1 3 -5 5 2
1 3 -5 5.5 1.4
1 3 -5 6.5 1.1
-1 -3 5 5.2 1.5
-1 -3 5 5.7 1.1
-1 -3 5 6.3 1.4
0 3 -5 22.1 2.1
0 3 -5 21.6 0.9
0 3 -5 21.1 2.4
0 3 -5 24.4 2.6
0 3 -5 25.6 2.2
0 -3 5 26.4 2.1
0 -3 5 23 2.2
-1 3 -5 145.69 6.1
-1 3 -5 142.69 5.3
-1 3 -5 145.79 6.4
-1 3 -5 148.19 6
1 -3 5 139.39 6
1 -3 5 139.99 5.8
-2 3 -5 172.88 7
-2 3 -5 148.59 8.6
-2 3 -5 168.58 7.1
-2 3 -5 179.78 7.1
-2 3 -5 179.38 7.3
-2 3 -5 168.08 6.8
2 -3 5 176.58 7.1
-3 3 -5 50.29 3.6
-3 3 -5 45.8 3.5
-3 3 -5 52.99 3.8
-3 3 -5 45.5 5
-3 3 -5 51.89 3.8
-3 3 -5 43.8 3.4
3 -3 5 48.5 3.5
3 -3 5 50.39 3.5
-4 3 -5 31.9 3.4
-4 3 -5 27.2 4.6
-4 3 -5 31.1 3.4
-4 3 -5 29.3 3.4
-4 3 -5 23 3
4 -3 5 24.1 3.2
4 -3 5 25.7 3.1
-5 3 -5 86.69 5.4
-5 3 -5 83.89 7
-5 3 -5 92.19 5.9
5 -3 5 96.19 6.1
-6 3 -5 68.99 5.6
-6 3 -5 69.89 7.8
-6 3 -5 72.09 5.8
6 -3 5 78.29 6
-7 3 -5 54.99 5.5
-7 3 -5 34 6.6
-7 3 -5 49.99 5.4
-8 3 -5 -1.8 5.3
-8 3 -5 -0.3 2.5
-8 3 -5 -2.2 3.1
8 2 -5 53.19 6.4
8 2 -5 60.59 7.4
-8 -2 5 48.1 7.1
-8 -2 5 66.19 6.7
7 2 -5 4.7 3.8
7 2 -5 4.9 3
7 2 -5 -0.4 2.5
-7 -2 5 3.8 3.7
-7 -2 5 3.7 3.2
6 2 -5 141.99 8.7
6 2 -5 136.49 8.9
6 2 -5 136.09 8.4
-6 -2 5 135.79 7.8
-6 -2 5 134.09 7.4
-6 -2 5 119.59 9.8
5 2 -5 199.18 9.8
5 2 -5 185.78 8.6
5 2 -5 184.18 9.3
5 2 -5 187.68 9.7
-5 -2 5 192.28 8.8
-5 -2 5 193.58 8.9
4 2 -5 30.5 3.5
4 2 -5 33.8 4
4 2 -5 34.4 3.3
4 2 -5 30.1 4.1
-4 -2 5 31 3
-4 -2 5 28.5 3.3
3 2 -5 29.8 3
3 2 -5 27.8 3.4
3 2 -5 31.4 2.8
3 2 -5 30.8 3.8
-3 -2 5 31.4 2.7
-3 -2 5 30.8 2.8
-3 -2 5 28.1 3
2 2 -5 151.98 6.5
2 2 -5 141.49 6.7
2 2 -5 149.88 6.5
2 2 -5 149.79 7.3
-2 -2 5 151.88 6.6
-2 -2 5 155.98 6
1 2 -5 7 2.1
1 2 -5 5.7 1.5
1 2 -5 7.7 2.2
1 2 -5 8.1 1.7
-1 -2 5 7.6 1.8
-1 -2 5 7.2 0.7
0 2 -5 169.88 7
0 2 -5 163.78 7.4
0 2 -5 162.78 6.9
0 2 -5 181.48 7.3
0 -2 5 192.98 7.2
0 -2 5 159.38 6.8
-1 2 -5 141.39 6.4
-1 2 -5 132.99 5.9
-1 2 -5 139.59 6
-1 2 -5 132.49 6.1
-1 2 -5 137.19 6.9
-1 2 -5 130.39 5.2
1 -2 5 133.59 6
1 -2 5 131.89 5.1
1 -2 5 135.19 5.9
-2 2 -5 78.89 5.9
-2 2 -5 82.79 4.6
-2 2 -5 94.49 4.9
-2 2 -5 84.79 4.3
-2 2 -5 78.29 4.5
-2 2 -5 78.19 4.5
2 -2 5 84.69 4.3
2 -2 5 78.99 4.5
2 -2 5 85.49 4.7
-3 2 -5 50.59 4.1
-3 2 -5 53.79 4.8
-3 2 -5 52.09 4.3
-3 2 -5 54.59 4
3 -2 5 62.29 4.3
3 -2 5 56.49 4.2
-4 2 -5 40.2 4.1
-4 2 -5 34.6 4.6
-4 2 -5 44.1 4.3
-4 2 -5 42 4.2
4 -2 5 45.8 4.4
4 -2 5 51.29 4.5
-5 2 -5 13.4 3.3
-5 2 -5 14.5 3.3
-5 2 -5 18.3 4.7
5 -2 5 14.3 3.6
5 -2 5 18.1 3.6
-6 2 -5 8.4 3.3
-6 2 -5 3.5 3
-6 2 -5 -1.2 2.8
6 -2 5 3.1 3.3
6 -2 5 -0.1 3
-7 2 -5 21.8 3.9
-7 2 -5 29.1 4.9
-7 2 -5 25.8 5.6
7 -2 5 29 4.9
7 -2 5 25.5 5
9 1 -5 12.7 4.8
-9 -1 5 -0.2 5.5
-9 -1 5 2.4 3.9
8 1 -5 29.6 5.4
-8 -1 5 41.2 5.6
-8 -1 5 25.4 5.5
7 1 -5 385.76 17.2
7 1 -5 407.46 17.8
-7 -1 5 385.36 16.1
-7 -1 5 376.46 17.9
-7 -1 5 402.06 16.3
6 1 -5 37.1 4.7
6 1 -5 34 4.8
-6 -1 5 31.8 4.2
-6 -1 5 33 4.9
-6 -1 5 35.8 4.2
5 1 -5 58.59 5.5
5 1 -5 61.19 5.9
-5 -1 5 71.69 4.9
-5 -1 5 72.99 5.1
4 1 -5 3.8 1.8
4 1 -5 5.5 2.8
4 1 -5 3.5 2.4
-4 -1 5 4.2 2
-4 -1 5 1.9 1.9
3 1 -5 224.88 9.1
3 1 -5 216.98 9.4
3 1 -5 211.98 9.8
-3 -1 5 220.58 8.8
-3 -1 5 247.58 9.4
-3 -1 5 212.88 8.8
-3 -1 5 224.98 10.8
2 1 -5 1504.05 50.79
2 1 -5 1480.45 50.39
2 1 -5 1539.85 50.39
2 1 -5 1533.75 50.99
-2 -1 5 1627.14 50.39
-2 -1 5 1484.25 50.49
-2 -1 5 1523.45 49.7
-2 -1 5 1507.25 50.89
1 1 -5 1254.77 41.9
1 1 -5 1235.38 42.4
1 1 -5 1298.47 42
1 1 -5 1262.67 42.3
-1 -1 5 1234.38 40.9
-1 -1 5 1281.07 41.9
-1 -1 5 1270.17 42.4
0 1 -5 10 2.4
0 1 -5 11.3 2.3
0 -1 5 13.9 2.1
0 -1 5 11.1 1.4
0 -1 5 10.4 2.3
0 -1 5 12 2.2
-1 1 -5 321.67 11.6
-1 1 -5 302.97 11
-1 1 -5 315.77 12
-1 1 -5 305.07 11.5
-1 1 -5 283.77 12.3
-1 1 -5 287.57 11.7
1 -1 5 298.47 11.5
1 -1 5 301.97 11
1 -1 5 299.37 11.7
-2 1 -5 1.9 1.8
-2 1 -5 -1.2 1.9
-2 1 -5 0 2
-2 1 -5 2.2 1.6
-2 1 -5 1.9 1.8
2 -1 5 0 1.6
2 -1 5 -1.2 1.8
2 -1 5 -0.6 1.3
-3 1 -5 2.6 2.1
-3 1 -5 5.6 2.3
-3 1 -5 3.7 1.9
-3 1 -5 2.2 1.7
3 -1 5 2.6 2.1
3 -1 5 2.3 2.1
3 -1 5 4.7 2.4
-4 1 -5 39.5 5.4
-4 1 -5 45.3 4.6
-4 1 -5 48.4 4.7
4 -1 5 46.5 5
4 -1 5 33.1 4.2
4 -1 5 44.6 4.7
-5 1 -5 117.99 7.6
-5 1 -5 116.69 7.5
-5 1 -5 119.69 9.2
5 -1 5 128.59 8
5 -1 5 118.79 7.9
-6 1 -5 10.9 3.1
-6 1 -5 5.8 4.7
-6 1 -5 8 2.9
6 -1 5 9.5 3.2
6 -1 5 14.3 4.3
-7 1 -5 3.5 3
-7 1 -5 -8.7 4.7
-7 1 -5 3.4 3.5
7 -1 5 10.6 4.4
7 -1 5 3 3.8
9 0 -5 13.4 5
-9 0 5 9.9 6
-9 0 5 17.9 4.6
8 0 -5 365.56 16.4
-8 0 5 335.47 17.3
-8 0 5 335.77 15.3
-8 0 5 322.87 14.9
7 0 -5 9.5 3.8
7 0 -5 7.7 3.5
-7 0 5 4 2.4
-7 0 5 1.9 4.2
-7 0 5 3.2 2.8
6 0 -5 77.19 6.8
6 0 -5 70.49 6.4
-6 0 5 74.59 5.4
-6 0 5 64.39 6.5
-6 0 5 64.49 5.6
5 0 -5 127.19 7.9
5 0 -5 134.99 7.7
-5 0 5 136.19 6.7
-5 0 5 150.18 7.4
4 0 -5 31.3 3.1
4 0 -5 31.8 4
4 0 -5 34.6 3.9
-4 0 5 33 3.4
-4 0 5 30.4 3.4
-4 0 5 30.7 3.8
3 0 -5 650.23 22.7
3 0 -5 592.34 22.3
3 0 -5 634.04 22.4
3 0 -5 612.14 21.6
-3 0 5 607.74 21.9
-3 0 5 615.64 21.6
-3 0 5 621.74 21.8
-3 0 5 622.04 22.4
2 0 -5 471.05 17.1
2 0 -5 474.35 17.2
2 0 -5 475.45 16.7
-2 0 5 456.65 16.5
-2 0 5 439.26 16.6
-2 0 5 466.15 17.2
1 0 -5 483.25 17.5
1 0 -5 490.75 17.6
1 0 -5 475.15 17
-1 0 5 490.95 16.5
-1 0 5 474.95 17
-1 0 5 460.55 17.2
-1 0 5 464.45 17.4
0 0 -5 30.3 2.8
0 0 -5 26.3 3
0 0 -5 25.9 2.9
0 0 -5 30.5 2.3
0 0 -5 27 2.9
0 0 5 31 3
0 0 5 32.8 3.2
0 0 5 27 3.1
0 0 5 28 2.6
-1 0 -5 99.39 5
-1 0 -5 97.79 5.3
-1 0 -5 93.59 5.6
-1 0 -5 93.19 5.7
-1 0 -5 96.59 5.4
1 0 5 93.99 5.1
1 0 5 96.19 5.5
1 0 5 106.99 5.3
-2 0 -5 5.4 2.5
-2 0 -5 10.7 2.1
-2 0 -5 12.6 2.4
-2 0 -5 8 2.6
2 0 5 8 2.4
2 0 5 14.7 2.5
2 0 5 9.9 2.7
-3 0 -5 -0.5 2.4
-3 0 -5 0.9 2.3
-3 0 -5 0.2 1.8
-3 0 -5 -2 2.6
3 0 5 3.9 2.1
3 0 5 -1.4 2.3
3 0 5 1.9 2.5
-4 0 -5 7.3 3
-4 0 -5 10.3 2.7
-4 0 -5 2.3 2.7
4 0 5 7 3.2
4 0 5 8.1 3.3
4 0 5 8.5 3.2
-5 0 -5 20.6 4.1
-5 0 -5 21.9 4.3
-5 0 -5 14.7 4.1
5 0 5 13.5 4.1
5 0 5 19.5 4.4
-6 0 -5 13.5 5.6
-6 0 -5 20.2 3.9
-6 0 -5 22.1 4.6
6 0 5 19.5 4.3
6 0 5 15.4 4.6
9 -1 -5 18.4 5
-9 1 5 0.6 5.2
-9 1 5 5.8 3.6
8 -1 -5 27.8 4.6
-8 1 5 23.6 5.8
-8 1 5 38 4.9
-8 1 5 31.6 4.9
7 -1 -5 -0.7 2.4
-7 1 5 -0.8 2.7
-7 1 5 0.1 2.5
-7 1 5 -0.4 3.5
6 -1 -5 3.7 3
6 -1 -5 1.5 2.9
-6 1 5 11.3 3.6
-6 1 5 9 2.4
-6 1 5 6 2.8
5 -1 -5 171.28 8.8
5 -1 -5 188.18 9.1
-5 1 5 193.78 9.3
-5 1 5 177.48 8.3
-5 1 5 160.48 8.1
4 -1 -5 0.6 2.3
4 -1 -5 -1 2.3
-4 1 5 -2.5 2.1
-4 1 5 0.1 1.8
-4 1 5 2.2 2
3 -1 -5 15.7 3.1
3 -1 -5 17.5 3
3 -1 -5 17.4 2.5
-3 1 5 19.7 2.5
-3 1 5 17.4 3.1
-3 1 5 15.4 2.3
2 -1 -5 737.43 25.7
2 -1 -5 722.43 25.1
2 -1 -5 698.73 25.7
-2 1 5 754.02 25.5
1 -1 -5 9.4 2.6
1 -1 -5 12.2 2.7
1 -1 -5 14.5 2.4
1 -1 -5 10.3 1.9
-1 1 5 9.8 2.2
-1 1 5 12.7 2.5
-1 1 5 13.3 2.3
-1 1 5 12.6 2.4
0 -1 -5 4.9 1.6
0 -1 -5 6.4 2.4
0 -1 -5 6.1 2
0 -1 -5 7.7 2.1
0 -1 -5 3.4 1.9
0 1 5 5.4 2.2
0 1 5 7.2 2.1
0 1 5 9 2.5
0 1 5 7.4 2.4
-1 -1 -5 174.38 8.3
-1 -1 -5 165.78 8.1
-1 -1 -5 181.18 8.5
-1 -1 -5 194.28 8.8
1 1 5 173.58 8
1 1 5 174.28 8.2
1 1 5 169.78 8.3
-2 -1 -5 89.39 5.8
-2 -1 -5 106.79 6.7
-2 -1 -5 112.69 6.7
2 1 5 99.69 6.4
2 1 5 117.49 6.7
2 1 5 95.69 6.4
-3 -1 -5 40.4 4.8
-3 -1 -5 43.3 4.5
-3 -1 -5 37.7 4.6
3 1 5 39.7 5
3 1 5 44.9 5
3 1 5 37.8 4.7
-4 -1 -5 1.9 2.5
-4 -1 -5 -1 2
-4 -1 -5 -1.6 3.4
4 1 5 7.5 3.6
4 1 5 -5.7 3.2
4 1 5 4.5 3.2
-5 -1 -5 1.3 3.4
-5 -1 -5 9 4.8
5 1 5 8.4 4
5 1 5 3.1 3.8
-6 -1 -5 65.19 8.6
-6 -1 -5 67.49 7.3
6 1 5 59.19 7.3
6 1 5 68.39 7.9
9 -2 -5 1 3.7
-9 2 5 -4.8 3.1
-9 2 5 -2.1 4.6
-9 2 5 0.4 2.4
8 -2 -5 10.6 4.2
-8 2 5 9.7 3.4
-8 2 5 8.2 3.4
-8 2 5 5.3 4.4
7 -2 -5 24.3 4.5
-7 2 5 26.3 4.8
-7 2 5 28.4 4.3
-7 2 5 38.9 4.5
6 -2 -5 29.7 4.4
6 -2 -5 25.7 4.2
-6 2 5 20.7 3.5
-6 2 5 31.2 4.2
-6 2 5 28.5 4
5 -2 -5 5.9 2.7
5 -2 -5 6.4 2.9
-5 2 5 9.2 2.8
-5 2 5 3.9 2.7
-5 2 5 11.5 2.3
4 -2 -5 33.7 3.2
4 -2 -5 30.4 3.6
4 -2 -5 32.1 3.8
-4 2 5 33 3.4
-4 2 5 32.8 3.5
-4 2 5 40 4.4
3 -2 -5 54.89 4.7
3 -2 -5 58.79 4.3
3 -2 -5 51.59 3.4
-3 2 5 63.39 4.3
-3 2 5 60.19 5.1
2 -2 -5 11 2.6
2 -2 -5 15.2 1.7
2 -2 -5 13 2.4
-2 2 5 18.6 2.9
-2 2 5 13 2.9
-2 2 5 17.9 2.4
-2 2 5 17.3 2.7
1 -2 -5 27 3.5
1 -2 -5 20.8 2.9
1 -2 -5 23.4 2.2
-1 2 5 24.1 3.2
-1 2 5 26.3 3.2
-1 2 5 29.1 3.6
-1 2 5 25.3 3.3
0 -2 -5 39.6 3.3
0 -2 -5 43.9 4.4
0 -2 -5 38.9 4.1
0 2 5 42.6 4.4
0 2 5 42.6 4.4
0 2 5 43.5 4.2
0 2 5 37.5 4
-1 -2 -5 155.28 8.3
-1 -2 -5 156.98 8.2
-1 -2 -5 166.08 7.9
1 2 5 158.38 8.2
1 2 5 163.58 8.4
1 2 5 158.88 8.5
-2 -2 -5 16.7 3.6
-2 -2 -5 16.4 3
-2 -2 -5 10.6 3.1
2 2 5 17.3 3.2
2 2 5 16.7 3.7
2 2 5 11.1 3.8
-3 -2 -5 21.7 3.6
-3 -2 -5 17.8 4.2
-3 -2 -5 29.9 4.5
3 2 5 26.2 4.6
3 2 5 25.5 4.5
3 2 5 30 5
-4 -2 -5 -4.8 3.4
-4 -2 -5 -1.2 2.9
4 2 5 3 3.4
4 2 5 -2.7 3.2
-5 -2 -5 -3.5 4.2
-5 -2 -5 4.2 3.5
5 2 5 -1.7 2.6
5 2 5 2.4 3.7
9 -3 -5 -5.1 3.5
-9 3 5 -6.9 4
-9 3 5 2.6 3.4
-9 3 5 3 3.5
8 -3 -5 89.09 7.7
-8 3 5 83.59 6.8
-8 3 5 68.29 7.5
-8 3 5 91.89 6.8
7 -3 -5 26.8 4.5
-7 3 5 30.7 4.8
-7 3 5 31.2 4.3
-7 3 5 22.2 4
6 -3 -5 13.7 3.7
-6 3 5 14.2 2.8
-6 3 5 12.3 3.1
5 -3 -5 8.9 2.1
5 -3 -5 7 2.8
5 -3 -5 9.9 3.1
-5 3 5 10.4 2.7
-5 3 5 6.2 2.6
4 -3 -5 4.3 2.7
4 -3 -5 2.1 1.4
4 -3 -5 6 2.6
-4 3 5 4.7 2.6
-4 3 5 5.4 1.9
3 -3 -5 436.36 16.8
3 -3 -5 435.36 14.5
3 -3 -5 425.66 16.8
3 -3 -5 437.06 14.5
-3 3 5 448.66 16.4
-3 3 5 427.56 17
-3 3 5 427.56 16.5
2 -3 -5 24.4 3.4
2 -3 -5 23.2 3.5
-2 3 5 24.8 3.2
-2 3 5 28.1 3.5
-2 3 5 19.9 3.1
-2 3 5 22.6 3.6
1 -3 -5 8.3 2.3
1 -3 -5 8.6 2.3
1 -3 -5 6.1 1.4
-1 3 5 4.1 1.9
-1 3 5 7.1 2.2
-1 3 5 8.3 3
-1 3 5 10.2 2.5
0 -3 -5 43.8 4.3
0 -3 -5 46.2 4.5
0 -3 -5 44.9 3.7
0 3 5 50.39 4.8
0 3 5 47.1 5.2
0 3 5 51.69 4.8
0 3 5 47.6 4.7
-1 -3 -5 28.2 4.2
-1 -3 -5 25.1 3.5
-1 -3 -5 27.3 4
1 3 5 28.2 4.2
1 3 5 27.2 4.1
1 3 5 21.7 4.5
-2 -3 -5 275.17 12.5
-2 -3 -5 264.87 12.2
2 3 5 260.67 13.1
2 3 5 265.07 12.7
-3 -3 -5 5.3 3.5
-3 -3 -5 1.7 3.6
3 3 5 9.9 3.8
3 3 5 5.4 3.7
3 3 5 5.2 4.1
-4 -3 -5 -4.7 4.7
-4 -3 -5 1.4 2.8
4 3 5 2 4
4 3 5 7.9 4.3
-9 4 5 17.5 6.3
-9 4 5 19.7 4.4
-9 4 5 26.4 4.7
8 -4 -5 29.9 4.9
-8 4 5 21.1 4
-8 4 5 17.5 3.8
-8 4 5 12.9 4.5
7 -4 -5 7.9 3.4
-7 4 5 2.4 2.7
-7 4 5 5.3 3
6 -4 -5 99.29 6.8
-6 4 5 90.79 6.3
-6 4 5 92.89 6.4
5 -4 -5 269.27 12.1
-5 4 5 267.57 11.5
-5 4 5 269.47 11.6
4 -4 -5 1553.34 51.59
-4 4 5 1472.45 51.29
3 -4 -5 56.89 5.2
-3 4 5 57.39 4.3
-3 4 5 52.39 4.8
-3 4 5 53.49 5.6
2 -4 -5 684.43 24.7
2 -4 -5 597.64 25.7
-2 4 5 688.53 25.3
-2 4 5 697.83 24.5
-2 4 5 676.33 24.6
1 -4 -5 69.19 5.6
1 -4 -5 68.59 5.5
-1 4 5 64.59 6.1
-1 4 5 70.89 5.2
-1 4 5 67.69 5.6
0 -4 -5 -1.8 2.5
0 -4 -5 3.2 2.1
0 4 5 2.7 2.8
0 4 5 5.7 3
0 4 5 1 2.6
-1 -4 -5 136.99 8
1 4 5 146.29 9.5
1 4 5 129.89 8.4
1 4 5 136.89 8.6
-2 -4 -5 30.8 5
-2 -4 -5 47.5 6.1
2 4 5 36.3 5
2 4 5 49.5 6.1
2 4 5 45.1 5.9
-3 -4 -5 43.7 5.9
3 4 5 53.79 7.3
3 4 5 44.8 6.5
3 4 5 47.5 6.3
-4 -4 -5 7.2 4.4
4 4 5 10.2 4.8
4 4 5 16 5.3
-9 5 5 19.6 4.3
-9 5 5 25.3 4.6
-8 5 5 27 4.4
-8 5 5 36.2 4.9
-7 5 5 52.69 5.3
-7 5 5 49.3 5.3
6 -5 -5 172.98 9.4
-6 5 5 186.38 8.9
5 -5 -5 49.99 5.1
-5 5 5 54.89 5.2
4 -5 -5 24.7 3.8
-4 5 5 17.6 3.4
-4 5 5 21.8 4.1
-4 5 5 24 3.6
3 -5 -5 178.78 9.1
-3 5 5 193.28 9.3
-3 5 5 172.08 10.1
-3 5 5 181.38 9
2 -5 -5 -1.9 2.3
-2 5 5 0.1 3.3
-2 5 5 2.8 2.7
-2 5 5 -1.3 2.5
1 -5 -5 73.49 6.1
-1 5 5 73.89 7.5
-1 5 5 77.89 6.1
-1 5 5 76.79 6.2
0 -5 -5 82.69 6.8
0 5 5 57.99 5.9
0 5 5 71.49 6.5
0 5 5 59.69 6.1
-1 -5 -5 4 3.3
1 5 5 5 3.4
1 5 5 -3.5 4.1
1 5 5 0.9 2.5
-2 -5 -5 5.8 3.9
2 5 5 3.1 3.9
2 5 5 5.2 3.1
2 5 5 7.6 4.9
-8 6 5 -0.3 2.8
-8 6 5 3.2 3.2
-7 6 5 6 3
-6 6 5 5.3 3
-5 6 5 2 2.6
-5 6 5 2.5 2.8
-5 6 5 -2.1 2.5
-4 6 5 46.8 6
-4 6 5 43.5 4.8
-4 6 5 44.2 4.8
3 -6 -5 123.79 8.7
-3 6 5 123.89 7.7
-3 6 5 131.79 7.7
-3 6 5 129.69 9
2 -6 -5 11.8 3.5
-2 6 5 7.8 4.4
-2 6 5 5.9 3.3
-2 6 5 9.7 3.3
1 -6 -5 0.6 3.4
-1 6 5 -4.3 2.7
-1 6 5 4.1 4.3
-1 6 5 -0.8 3
0 6 5 34.6 5.1
0 6 5 21.2 4
0 6 5 14.9 4.6
1 6 5 1.2 3.7
1 6 5 4.8 3.8
1 6 5 -1.2 3.4
-7 7 5 2.9 3.1
-6 7 5 7.7 4.1
-6 7 5 0.8 2.7
-6 7 5 2 2.8
-5 7 5 49.3 5.2
-5 7 5 55.99 6.9
-5 7 5 45 5.2
-4 7 5 9.6 4.3
-4 7 5 0.8 2.8
-4 7 5 7.7 3.2
-3 7 5 5 3.1
-3 7 5 -4.6 3.8
-3 7 5 1.1 2.7
-2 7 5 -0.9 3
-2 7 5 2 3.2
-2 7 5 -2.1 4.5
-1 7 5 26 5
-1 7 5 32.7 6.8
-1 7 5 34.8 5.5
0 7 5 1.8 3.9
0 7 5 1.2 3.4
0 7 5 0.2 3.6
-6 8 5 71.89 6.4
-6 8 5 66.09 6.4
-6 8 5 77.49 8.7
-5 8 5 0.7 3.1
-5 8 5 -2.4 2.7
-5 8 5 3.2 3.4
-4 8 5 44.6 5.5
-4 8 5 43.8 7.1
-4 8 5 53.19 5.8
-3 8 5 -0.1 3.3
-3 8 5 6.1 5.1
-3 8 5 -5.5 2.7
-1 11 -6 14.7 5
-1 11 -6 24 2.9
-2 11 -6 128.39 4.5
-2 11 -6 118.99 4.5
-3 11 -6 11.3 4.1
-3 11 -6 15.3 4.5
-4 11 -6 32.2 5.6
-4 11 -6 34 5.5
-5 11 -6 9.1 4
-5 11 -6 9.3 4.5
2 10 -6 41.3 5.4
2 10 -6 37.6 6.6
2 10 -6 37.4 4.5
1 10 -6 13.5 3.4
1 10 -6 4.8 4.4
1 10 -6 10 2.6
0 10 -6 298.87 12.4
0 10 -6 294.37 14.6
-1 10 -6 129.59 8.9
-1 10 -6 130.79 5.7
-1 10 -6 128.59 6.2
-2 10 -6 2.6 0.8
-2 10 -6 1.1 0.6
-2 10 -6 -5.2 3
-3 10 -6 -6.6 2.8
-3 10 -6 -0.6 2.9
-4 10 -6 3.1 3.1
-4 10 -6 -3.5 3.1
-5 10 -6 144.99 9.1
-5 10 -6 137.69 10
-6 10 -6 110.19 4.3
-6 10 -6 105.39 4.3
-6 10 -6 106.59 9.4
3 9 -6 -2.1 3
3 9 -6 2.1 3.2
3 9 -6 -2 3.7
2 9 -6 1.4 2.6
2 9 -6 -1.9 2.5
2 9 -6 -5.5 3.5
1 9 -6 8 2.4
1 9 -6 10.8 3
1 9 -6 8.8 4.1
0 9 -6 0.5 2.1
0 9 -6 5.4 3.5
0 9 -6 0.9 1.7
0 9 -6 2.1 1.6
-1 9 -6 156.08 6.9
-1 9 -6 174.08 9.3
-1 9 -6 154.18 6.3
-2 9 -6 17.6 1.4
-2 9 -6 15.8 1.3
-2 9 -6 11.1 3.4
-3 9 -6 11 3.3
-3 9 -6 8.3 4.1
-4 9 -6 77.49 6.1
-4 9 -6 74.69 6.8
-5 9 -6 7.1 1.3
-5 9 -6 11.3 4.6
-5 9 -6 6.7 1.2
-6 9 -6 14.2 2.1
-6 9 -6 12.9 4.8
-7 9 -6 15.4 5.1
-7 9 -6 14.3 2.6
4 8 -6 3.5 3.2
4 8 -6 8.1 3.8
4 8 -6 3.8 3.9
3 8 -6 -2.5 3.4
3 8 -6 -4.4 2.6
3 8 -6 0.9 2.9
2 8 -6 22.6 3.8
2 8 -6 20 4.5
2 8 -6 23.5 3.6
1 8 -6 6.5 3.4
1 8 -6 3.8 2.2
1 8 -6 3.6 2.6
0 8 -6 45.9 5
0 8 -6 47.6 3.9
0 8 -6 41.3 3.2
0 8 -6 44.8 3.2
-1 8 -6 47.9 2.2
-1 8 -6 38.7 4.6
-1 8 -6 47.7 2.8
-1 8 -6 44 3.2
-2 8 -6 2.2 1.1
-2 8 -6 1.2 0.9
-2 8 -6 2.5 2.3
-3 8 -6 15.1 1.2
-3 8 -6 15.3 3.7
-3 8 -6 12.8 1.2
-3 8 -6 17 3.2
-4 8 -6 16.7 4.6
-4 8 -6 18.5 1.7
-5 8 -6 49.5 2.6
-5 8 -6 52.39 6.7
-5 8 -6 56.79 3.5
-6 8 -6 5.3 4.2
-6 8 -6 -1 1.7
-6 8 -6 -1.5 1.3
-7 8 -6 1 2.1
-7 8 -6 3.2 3.3
-7 8 -6 -2.4 1.7
5 7 -6 -1.8 3.3
5 7 -6 1.7 3.5
5 7 -6 4.6 4
4 7 -6 1.5 3.4
4 7 -6 9 3.8
4 7 -6 3.2 3.2
3 7 -6 4.6 3.2
3 7 -6 2.9 3
3 7 -6 7.5 3
2 7 -6 143.39 8.3
2 7 -6 153.78 7.9
2 7 -6 166.18 8.8
1 7 -6 1.1 1.7
1 7 -6 0.7 2.4
1 7 -6 2 1.9
1 7 -6 -1 2.1
0 7 -6 7.9 2.2
0 7 -6 6.1 1.6
0 7 -6 7.1 2.8
0 7 -6 10.5 1.8
0 7 -6 6.2 1.7
-1 7 -6 98.19 4.9
-1 7 -6 107.69 4.3
-1 7 -6 110.09 4.6
-1 7 -6 111.69 6.1
-1 7 -6 105.89 4.3
-2 7 -6 42.9 3.8
-2 7 -6 44.7 2.4
-2 7 -6 40.2 1.8
-2 7 -6 41.3 1.8
-2 7 -6 40.3 2.7
-3 7 -6 1 0.7
-3 7 -6 5.1 2.7
-3 7 -6 2.8 1.2
-3 7 -6 1 0.7
-4 7 -6 124.09 5.6
-4 7 -6 129.59 5.6
-4 7 -6 130.89 8.7
-4 7 -6 132.69 5.3
-5 7 -6 -5.9 3.3
-5 7 -6 0.5 1.7
-5 7 -6 2.1 1.5
-5 7 -6 1.4 1.6
-6 7 -6 30.7 3.3
-6 7 -6 31.5 6.1
-6 7 -6 29.7 3.2
-7 7 -6 2.9 2.4
-7 7 -6 -0.1 2
-7 7 -6 1.8 3.4
-8 7 -6 17.1 3.7
-8 7 -6 19.6 3.6
-8 7 -6 17 6.3
6 6 -6 15.5 4.4
6 6 -6 15.6 4.7
6 6 -6 13.6 4.5
5 6 -6 9.2 3.7
5 6 -6 9.2 4.2
5 6 -6 6.4 3.6
4 6 -6 146.89 8.7
4 6 -6 134.59 8.9
4 6 -6 159.08 8.7
-4 -6 6 145.19 7.8
3 6 -6 9.4 3.3
3 6 -6 14.5 3.3
3 6 -6 6.9 3
-3 -6 6 11.2 2.5
2 6 -6 13.8 2.9
2 6 -6 19 2.6
2 6 -6 18.7 3.2
2 6 -6 15.3 3.4
-2 -6 6 21.7 2.6
1 6 -6 -1.6 1.7
1 6 -6 0 2.1
1 6 -6 -2.8 1.1
1 6 -6 2.2 1.5
1 6 -6 -0.3 1.8
-1 -6 6 -0.2 1.2
0 6 -6 74.69 4.2
0 6 -6 87.79 4
0 6 -6 83.79 4.1
0 6 -6 79.79 4.6
0 6 -6 74.59 4.7
-1 6 -6 67.29 3.5
-1 6 -6 64.39 3.3
-1 6 -6 66.89 3.9
-1 6 -6 71.19 4.2
-1 6 -6 74.69 3.3
1 -6 6 67.19 3
-2 6 -6 14.7 3.4
-2 6 -6 20.2 2.1
-2 6 -6 19 1.7
-2 6 -6 16.6 1.7
-2 6 -6 21 1.9
-2 6 -6 22.4 2.7
2 -6 6 21.3 1.5
-3 6 -6 2.8 1.4
-3 6 -6 4.3 1.5
-3 6 -6 -1.3 3.1
-3 6 -6 2.2 1.2
3 -6 6 4.1 1.1
-4 6 -6 1314.67 45.3
-4 6 -6 1321.37 45.1
-4 6 -6 1415.66 45.4
-4 6 -6 1421.66 49.1
-5 6 -6 11.1 2.4
-5 6 -6 12.5 3.7
-5 6 -6 12.3 2.3
-6 6 -6 89.09 5.5
-6 6 -6 90.59 5.5
-6 6 -6 68.49 7.6
-7 6 -6 4 2.9
-7 6 -6 9.3 5.3
-7 6 -6 5.2 2.5
-8 6 -6 29.7 4.6
-8 6 -6 37 4.8
-8 6 -6 36.9 6.7
7 5 -6 9.3 4.3
7 5 -6 8.6 4.4
7 5 -6 2.2 4.6
6 5 -6 104.79 8.2
6 5 -6 98.99 7.9
6 5 -6 93.49 8.4
-6 -5 6 94.39 7.1
5 5 -6 6.8 3.4
5 5 -6 -0.4 2.9
5 5 -6 1 2.6
-5 -5 6 1.7 2.7
4 5 -6 19.1 4.1
4 5 -6 16.8 3.5
4 5 -6 17.1 3.6
-4 -5 6 14 3
3 5 -6 5.4 2.7
3 5 -6 7.7 2.7
3 5 -6 4.6 2.9
3 5 -6 6.1 2.2
-3 -5 6 6.7 2.1
2 5 -6 2.3 2
2 5 -6 7.4 2
2 5 -6 4.5 1.6
2 5 -6 8.3 2.1
2 5 -6 4.4 2.4
-2 -5 6 5.3 1.6
-2 -5 6 3.6 1.6
1 5 -6 37.4 3.5
1 5 -6 42.5 2.9
1 5 -6 44.4 3
1 5 -6 41.7 3.5
1 5 -6 39 3.1
-1 -5 6 37.7 2.9
-1 -5 6 43.6 3
0 5 -6 3.9 1.5
0 5 -6 3.5 1.6
0 5 -6 3.3 1.3
0 5 -6 4.5 1.8
0 5 -6 4.1 1.4
0 -5 6 4.6 1.1
-1 5 -6 142.69 5.7
-1 5 -6 134.69 5.6
-1 5 -6 127.79 6
-1 5 -6 131.89 5.5
-1 5 -6 136.69 5.8
-2 5 -6 252.37 9.6
-2 5 -6 253.57 9.3
-2 5 -6 256.17 9.2
-2 5 -6 229.08 11.9
-2 5 -6 248.88 9.4
-2 5 -6 234.98 9.3
-3 5 -6 99.99 5.2
-3 5 -6 92.19 4.9
-3 5 -6 102.89 4.9
-3 5 -6 110.69 5.1
-3 5 -6 103.69 7.8
-3 5 -6 104.69 5.7
3 -5 6 102.09 4.8
-4 5 -6 -1.9 3.3
-4 5 -6 1.4 1.7
-4 5 -6 2.3 1.8
-4 5 -6 2.9 1.8
4 -5 6 0.3 1.6
-5 5 -6 -2.3 2.1
-5 5 -6 0.5 1.9
-5 5 -6 -1.3 2.7
-6 5 -6 5.3 2.5
-6 5 -6 4.3 4.2
-6 5 -6 3.8 2.5
-7 5 -6 13 5.5
-7 5 -6 6.7 3.1
-7 5 -6 8.5 3.2
-8 5 -6 119.49 8
-8 5 -6 116.19 7.8
-8 5 -6 101.59 10.9
7 4 -6 0.2 3.8
7 4 -6 -6.6 3.7
7 4 -6 5.5 4
-7 -4 6 -1.1 3.1
6 4 -6 8.7 3.9
6 4 -6 4.1 3.9
6 4 -6 10.3 3.8
-6 -4 6 9.2 3.4
5 4 -6 3.7 3.5
5 4 -6 2.8 2.7
5 4 -6 4.2 3.2
-5 -4 6 0.4 2.7
4 4 -6 93.39 6.9
4 4 -6 85.29 6.3
4 4 -6 92.49 5.9
-4 -4 6 88.49 5.6
3 4 -6 341.17 13.2
3 4 -6 356.86 14.3
3 4 -6 335.67 13.1
3 4 -6 320.67 13.6
-3 -4 6 344.57 13.2
-3 -4 6 339.67 12.9
2 4 -6 76.19 4.8
2 4 -6 69.79 3.9
2 4 -6 69.39 4.1
2 4 -6 77.69 4.3
2 4 -6 66.19 4.9
-2 -4 6 74.99 4.4
-2 -4 6 67.49 3.9
-2 -4 6 63.59 3.8
1 4 -6 15.3 2.1
1 4 -6 13.2 2.5
1 4 -6 17.2 2.6
1 4 -6 19 1.8
1 4 -6 15.3 2.1
-1 -4 6 15.9 2.1
0 4 -6 1.7 1.2
0 4 -6 4.8 2.1
0 4 -6 1.8 0.7
0 4 -6 3.2 1.3
0 4 -6 4.2 1.8
0 -4 6 3.1 1.1
0 -4 6 3.1 1.4
-1 4 -6 196.18 7.5
-1 4 -6 175.08 7.2
-1 4 -6 179.58 6.4
-1 4 -6 175.08 7.7
-1 4 -6 169.48 6.4
1 -4 6 180.28 7.2
-2 4 -6 31.3 2.6
-2 4 -6 24.6 3.7
-2 4 -6 33.6 2.8
-2 4 -6 28.3 2.2
-2 4 -6 26.7 2.8
-2 4 -6 26.5 2.9
2 -4 6 28.4 2.5
2 -4 6 26.9 2.6
-3 4 -6 7.6 2.2
-3 4 -6 13.9 2.1
-3 4 -6 8.1 2.1
-3 4 -6 6.6 2.3
-3 4 -6 8.4 2.8
-3 4 -6 10 2.1
3 -4 6 6.8 1.8
3 -4 6 6.8 2
-4 4 -6 49.1 4.1
-4 4 -6 36.9 3.7
-4 4 -6 42.1 5.1
-4 4 -6 34.7 3.8
4 -4 6 45.8 4
-5 4 -6 -0.5 2.2
-5 4 -6 -3.3 1.9
-5 4 -6 -2.1 2.5
5 -4 6 1.5 2.1
-6 4 -6 1.9 2.6
-6 4 -6 1.5 3.2
-6 4 -6 -1.2 2.3
-7 4 -6 11.1 3.5
-7 4 -6 6.6 3.3
-7 4 -6 3.1 4.9
8 3 -6 10.3 4.3
8 3 -6 11.7 4.9
-8 -3 6 6.6 3.9
7 3 -6 -1.5 3.6
7 3 -6 4.6 3.6
7 3 -6 -1.6 3.6
-7 -3 6 -2.2 3
6 3 -6 184.88 10.3
6 3 -6 209.58 10.7
6 3 -6 190.98 11.3
-6 -3 6 204.08 10.2
5 3 -6 2 2.3
5 3 -6 3.7 2.6
5 3 -6 6.6 2.8
-5 -3 6 5.3 2.5
-5 -3 6 6.2 2.9
4 3 -6 190.28 8.6
4 3 -6 179.48 9.7
4 3 -6 186.78 9
4 3 -6 186.68 8.5
-4 -3 6 173.98 8.5
-4 -3 6 188.98 8.4
3 3 -6 -2.3 2
3 3 -6 -0.4 2.5
3 3 -6 -1.2 1.5
3 3 -6 -0.7 1.6
-3 -3 6 -1.5 1.7
-3 -3 6 -1.9 1.7
2 3 -6 1026.4 33.9
2 3 -6 1015.5 35.4
2 3 -6 1135.69 34.8
2 3 -6 985.7 35
2 3 -6 1032.7 34.6
-2 -3 6 987.1 34.6
-2 -3 6 1007.9 35
-2 -3 6 1008.6 33.9
1 3 -6 25.8 2.6
1 3 -6 29.9 3.1
1 3 -6 25.4 2.6
1 3 -6 25.5 3.1
-1 -3 6 27.1 2.6
0 3 -6 11.6 2.4
0 3 -6 12.9 2
0 3 -6 11.7 2.2
0 3 -6 16.1 2.1
0 -3 6 17.1 2.1
0 -3 6 14.2 2
-1 3 -6 2.9 0.8
-1 3 -6 3.5 1.9
-1 3 -6 3.7 1.8
-1 3 -6 7.2 3
-1 3 -6 3.3 1.6
1 -3 6 5 1.6
1 -3 6 2.7 1.3
-2 3 -6 227.68 9.6
-2 3 -6 242.38 9.9
-2 3 -6 239.28 9.5
-2 3 -6 239.28 9
-2 3 -6 239.78 9.5
-2 3 -6 228.18 11
2 -3 6 234.08 9.6
-3 3 -6 -0.8 1.7
-3 3 -6 1.6 2.1
-3 3 -6 -0.5 1.9
-3 3 -6 2 2.3
-3 3 -6 -1.8 1.5
3 -3 6 0.7 1.9
3 -3 6 -0.4 1.8
-4 3 -6 1.3 2.4
-4 3 -6 -1.1 2.2
-4 3 -6 4.1 3.5
4 -3 6 0 2.1
-5 3 -6 2.5 3.9
-5 3 -6 3.7 2.8
-5 3 -6 -0.6 2.4
5 -3 6 1.2 2.5
-6 3 -6 29.4 4.4
-6 3 -6 27.7 4.2
-6 3 -6 28.7 6
6 -3 6 24.5 4.3
-7 3 -6 10 3.9
-7 3 -6 14.3 4
-7 3 -6 8.1 5.5
8 2 -6 23.8 5.2
-8 -2 6 13.2 4.3
7 2 -6 197.98 11.6
7 2 -6 186.38 10.9
-7 -2 6 191.58 10.4
6 2 -6 -2.9 2.2
6 2 -6 -4.3 3.3
-6 -2 6 2.7 2.8
-6 -2 6 -1.3 1.8
5 2 -6 584.54 23.3
5 2 -6 670.73 23.6
-5 -2 6 605.54 22.6
-5 -2 6 585.44 22.2
4 2 -6 -2.7 1.7
4 2 -6 -0.7 2.6
4 2 -6 0.7 1.9
-4 -2 6 -1.1 2
-4 -2 6 -1.1 1.8
3 2 -6 87.09 5.6
3 2 -6 83.19 5.9
3 2 -6 79.19 4.8
-3 -2 6 89.79 4.5
-3 -2 6 86.69 4.6
-3 -2 6 89.09 5.1
2 2 -6 216.78 9.1
2 2 -6 222.48 9.6
2 2 -6 238.48 10
2 2 -6 212.58 8.8
-2 -2 6 220.08 8.9
-2 -2 6 222.48 8.1
-2 -2 6 234.88 9.3
1 2 -6 21.6 2.5
1 2 -6 15.3 2.9
1 2 -6 18.7 2.4
1 2 -6 21.4 2.5
0 2 -6 942.11 33
0 2 -6 959.5 33.3
0 2 -6 997.1 32.8
0 2 -6 973.2 32.8
0 -2 6 979.3 32.9
-1 2 -6 5.9 1.9
-1 2 -6 4 1.8
-1 2 -6 5.6 1.2
-1 2 -6 1 2.5
-1 2 -6 2.5 2.2
-1 2 -6 2.2 1.9
1 -2 6 7.7 2.1
1 -2 6 4.6 1.1
-2 2 -6 55.29 3.6
-2 2 -6 59.89 4.9
-2 2 -6 51.99 4.5
-2 2 -6 54.49 4
-2 2 -6 51.29 4.2
2 -2 6 54.89 4.2
2 -2 6 55.19 3.5
-3 2 -6 113.79 6.2
-3 2 -6 99.69 6.3
-3 2 -6 120.79 6.5
-3 2 -6 121.69 7.9
3 -2 6 94.49 6.1
3 -2 6 96.19 5.7
-4 2 -6 129.69 9
-4 2 -6 127.39 7.5
-4 2 -6 126.09 7.3
4 -2 6 124.49 7.2
4 -2 6 141.89 7.6
-5 2 -6 16.1 3.7
-5 2 -6 16.3 4.9
-5 2 -6 8.4 3.3
5 -2 6 12.6 3.6
5 -2 6 15.2 3.6
-6 2 -6 1.2 2.8
-6 2 -6 10 4.9
-6 2 -6 1.8 3.1
6 -2 6 -5.2 2.8
6 -2 6 -2 3
-7 2 -6 1.1 3.3
-7 2 -6 1.9 3.5
-7 2 -6 -6.7 4.7
7 -2 6 4.1 3.5
9 1 -6 228.38 13.7
-9 -1 6 239.18 12.9
8 1 -6 -6 3.6
-8 -1 6 0.1 3.4
7 1 -6 17.5 4.7
7 1 -6 21.5 4.2
-7 -1 6 14.2 3.8
6 1 -6 228.78 12.2
6 1 -6 241.68 12
-6 -1 6 230.18 11.2
-6 -1 6 271.37 11.3
5 1 -6 16 3.9
5 1 -6 15.8 3.7
-5 -1 6 19.8 3.3
-5 -1 6 15.1 3.2
4 1 -6 139.29 7.7
4 1 -6 139.29 7.9
4 1 -6 140.39 6.8
-4 -1 6 135.09 6.6
-4 -1 6 132.79 7
3 1 -6 104.09 6.5
3 1 -6 101.59 5.4
3 1 -6 96.89 6.1
-3 -1 6 95.79 5.4
-3 -1 6 103.79 4.8
-3 -1 6 102.49 5.6
2 1 -6 102.99 6.3
2 1 -6 107.59 5.4
2 1 -6 107.09 6
-2 -1 6 100.69 5.3
-2 -1 6 97.19 5.3
-2 -1 6 105.09 4.4
1 1 -6 259.77 10.1
1 1 -6 252.67 10.5
1 1 -6 259.17 10.7
-1 -1 6 254.67 9
-1 -1 6 261.87 10.3
-1 -1 6 259.27 10.2
0 1 -6 11.6 2.6
0 1 -6 11 2.7
0 1 -6 17.4 2.6
0 -1 6 14.2 2.6
0 -1 6 15.8 1.7
0 -1 6 12.8 2.3
-1 1 -6 741.53 25.3
-1 1 -6 742.13 26.3
-1 1 -6 720.63 26.2
-1 1 -6 752.02 26
-1 1 -6 764.72 27
1 -1 6 739.63 25.3
1 -1 6 735.83 26.2
1 -1 6 755.22 26.1
-2 1 -6 141.39 7.3
-2 1 -6 146.09 7.4
-2 1 -6 157.48 8.5
-2 1 -6 148.39 7.3
2 -1 6 152.38 7.1
2 -1 6 154.08 7.6
2 -1 6 145.89 7.5
-3 1 -6 5.2 2.8
-3 1 -6 8.8 3.3
-3 1 -6 6.3 2.9
3 -1 6 10.2 2.6
3 -1 6 8 2.9
3 -1 6 1.2 2.4
-4 1 -6 0.2 2.7
-4 1 -6 9.5 4
-4 1 -6 7.9 3.2
4 -1 6 0.9 2.7
4 -1 6 7.7 3.2
-5 1 -6 3 3.1
-5 1 -6 -0.1 2.8
-5 1 -6 -3.2 3.6
5 -1 6 0.5 2.9
5 -1 6 -6 2.9
-6 1 -6 18.5 5.6
-6 1 -6 17.8 3.7
-6 1 -6 20.9 4.5
6 -1 6 28 5.1
6 -1 6 19.9 4.7
9 0 -6 69.59 7.8
-9 0 6 56.19 6.7
-9 0 6 54.79 8.3
8 0 -6 40 6
-8 0 6 35.5 5.4
-8 0 6 30.4 5.6
7 0 -6 13.9 4.2
-7 0 6 14.2 3.9
-7 0 6 23.5 4
6 0 -6 170.88 9.5
6 0 -6 166.28 9.3
-6 0 6 168.58 8.5
-6 0 6 163.48 8.6
5 0 -6 1.6 3
5 0 -6 1.9 2.9
-5 0 6 1.4 2.5
-5 0 6 -0.9 1.5
4 0 -6 109.19 6.5
4 0 -6 113.19 7.1
-4 0 6 111.59 6.2
-4 0 6 118.69 6.2
3 0 -6 11.3 2.4
3 0 -6 8.5 2.7
3 0 -6 11.5 2.6
-3 0 6 10.4 2.3
-3 0 6 9.3 2.1
2 0 -6 126.39 7.1
2 0 -6 141.29 7.1
2 0 -6 137.49 6.4
-2 0 6 112.19 7.2
1 0 -6 -1.8 1.2
1 0 -6 -0.8 2.2
1 0 -6 5.2 2.4
-1 0 6 -0.7 1.4
-1 0 6 -0.2 1.2
-1 0 6 -0.3 1.3
0 0 -6 86.59 5.3
0 0 -6 86.09 5.5
0 0 -6 92.09 5.4
0 0 6 83.59 4.8
0 0 6 80.69 4.6
0 0 6 92.79 5.5
-1 0 -6 413.66 16.3
-1 0 -6 415.76 15.7
-1 0 -6 401.66 16
-1 0 -6 416.86 16.2
1 0 6 422.86 16.2
1 0 6 415.46 15.8
1 0 6 417.46 15.5
-2 0 -6 -2.1 2.4
-2 0 -6 -1.8 2.4
-2 0 -6 0.6 2.1
-2 0 -6 5.6 2.7
2 0 6 -2.4 2.3
2 0 6 -2 2.1
2 0 6 3 2.6
-3 0 -6 39.3 5.1
-3 0 -6 43.4 4.5
-3 0 -6 44.4 5.1
3 0 6 39.4 4.8
3 0 6 45 4.9
3 0 6 49.8 5.1
-4 0 -6 -2.1 3.2
-4 0 -6 3.8 2.5
-4 0 -6 0.8 3.1
4 0 6 2.1 2.9
4 0 6 4.9 2.7
-5 0 -6 20.4 5.4
-5 0 -6 25.3 4.3
-5 0 -6 33.2 5
5 0 6 32.9 5.4
5 0 6 24.3 4.8
-6 0 -6 2.6 5.1
-6 0 -6 8.3 3.9
6 0 6 1 4
6 0 6 12.6 4.3
9 -1 -6 6.3 4.7
-9 1 6 13 4.4
-9 1 6 8.9 5.4
8 -1 -6 19.1 4.2
-8 1 6 14.2 4.1
-8 1 6 9.7 3.6
-8 1 6 10 4.6
7 -1 -6 -0.3 3.3
-7 1 6 -1.3 2.8
-7 1 6 0.9 2.7
6 -1 -6 45 5.3
6 -1 -6 39.9 5.3
-6 1 6 46.7 4.7
-6 1 6 50.19 4.9
5 -1 -6 57.49 5.6
5 -1 -6 54.89 5.5
-5 1 6 54.99 6.3
-5 1 6 50.99 4.7
-5 1 6 50.59 4.8
4 -1 -6 0 2.4
4 -1 -6 1 1.9
-4 1 6 -2 2.6
-4 1 6 -2.9 1.8
-4 1 6 -1 2.2
3 -1 -6 59.19 5
3 -1 -6 52.79 4.7
3 -1 -6 46.7 4
-3 1 6 56.89 4.3
-3 1 6 64.99 4.6
2 -1 -6 0.5 2.3
2 -1 -6 1 2.4
-2 1 6 0.3 2.2
-2 1 6 2 1.8
-2 1 6 1.3 2
-2 1 6 1.2 2.1
1 -1 -6 39.3 3.9
1 -1 -6 41.3 4.2
1 -1 -6 39.6 3.4
-1 1 6 38.7 3.7
-1 1 6 37.4 3.3
-1 1 6 31.5 3.7
-1 1 6 43.1 4.4
0 -1 -6 51.79 4.3
0 -1 -6 62.59 5.2
0 -1 -6 57.39 4.3
0 1 6 54.19 4.6
0 1 6 53.19 4.2
0 1 6 52.09 4.2
-1 -1 -6 220.98 10.4
-1 -1 -6 221.28 10.6
-1 -1 -6 231.68 10.7
1 1 6 223.68 10.4
1 1 6 245.48 10.4
1 1 6 240.78 10.7
-2 -1 -6 156.58 8.3
-2 -1 -6 146.99 8.2
-2 -1 -6 127.89 7.5
2 1 6 123.79 7.9
2 1 6 126.69 8
2 1 6 128.59 7.9
-3 -1 -6 23.7 4.3
-3 -1 -6 31.8 4.6
-3 -1 -6 29 4.7
3 1 6 18.7 4.2
3 1 6 27.3 4.6
3 1 6 32 4.8
-4 -1 -6 10.9 4.4
-4 -1 -6 12.1 3.9
-4 -1 -6 3.2 3.5
4 1 6 8.1 4.1
4 1 6 16.8 4.1
-5 -1 -6 -2.5 4.4
-5 -1 -6 -5.3 3.3
5 1 6 8.7 3.6
5 1 6 -1.6 2.9
9 -2 -6 75.19 8
-9 2 6 71.09 8
-9 2 6 68.69 6.9
-9 2 6 64.19 6.7
8 -2 -6 49.1 6.3
-8 2 6 52.39 5.7
-8 2 6 43.6 5.2
7 -2 -6 112.49 8.1
-7 2 6 97.39 7.2
-7 2 6 111.69 6.8
6 -2 -6 302.47 13.8
-6 2 6 315.57 13.6
-6 2 6 325.47 13.5
5 -2 -6 -0.8 2
5 -2 -6 3.2 2.2
-5 2 6 -0.5 2.2
-5 2 6 1 2.5
4 -2 -6 13.5 3.3
4 -2 -6 7.3 2.2
4 -2 -6 14.3 2.9
-4 2 6 11.2 3.3
-4 2 6 9.9 2.4
-4 2 6 10.1 2.9
3 -2 -6 57.89 3.9
3 -2 -6 62.69 5.3
3 -2 -6 61.99 4.8
-3 2 6 62.69 4.9
-3 2 6 65.99 4.4
-3 2 6 60.89 4.9
2 -2 -6 10.7 3
2 -2 -6 15 3.1
2 -2 -6 11.9 1.9
-2 2 6 15.8 2.8
-2 2 6 6.2 2.6
-2 2 6 17.3 3.4
-2 2 6 11.4 2.7
1 -2 -6 156.38 8.2
1 -2 -6 157.98 7.8
1 -2 -6 152.98 6.7
-1 2 6 141.79 7.8
-1 2 6 139.69 7.3
-1 2 6 144.99 8.2
-1 2 6 159.28 7.8
0 -2 -6 0.1 2
0 -2 -6 0.7 1.8
0 -2 -6 0.6 2.6
0 2 6 -0.9 2.5
0 2 6 -1.4 2.5
0 2 6 -1.1 2.4
-1 -2 -6 17.1 3.2
-1 -2 -6 14.3 3.7
-1 -2 -6 22 3.9
1 2 6 22.1 4
1 2 6 21 3.9
1 2 6 15.4 3.7
-2 -2 -6 255.47 12
-2 -2 -6 244.88 11.8
-2 -2 -6 246.68 11.7
2 2 6 246.08 11.6
2 2 6 231.68 11.9
2 2 6 234.28 11.9
-3 -2 -6 5.5 3.5
-3 -2 -6 -1.2 3.2
3 2 6 -2 3.2
3 2 6 2.6 3.3
-4 -2 -6 -2.6 3.5
-4 -2 -6 -10.3 3.4
4 2 6 4.7 4.1
4 2 6 0.4 3.6
-5 -2 -6 11.3 6.6
-5 -2 -6 26.1 5.6
5 2 6 33.8 6.1
9 -3 -6 2.8 4
-9 3 6 4.2 3.6
-9 3 6 1.5 3.5
8 -3 -6 1.7 3.3
-8 3 6 8.8 3.6
-8 3 6 1.6 3.3
7 -3 -6 100.39 7.2
-7 3 6 104.99 7.1
-7 3 6 96.69 7.1
6 -3 -6 101.49 7.3
-6 3 6 89.19 6.6
-6 3 6 96.69 6.6
5 -3 -6 353.66 15.1
-5 3 6 346.07 14.2
-5 3 6 357.56 14.5
4 -3 -6 12.9 3.4
4 -3 -6 16 3.6
-4 3 6 13.9 3.2
3 -3 -6 404.66 13.4
3 -3 -6 380.86 13.8
3 -3 -6 390.56 16
3 -3 -6 399.86 15.9
-3 3 6 408.96 16.1
-3 3 6 404.66 15.5
-3 3 6 385.06 15.6
2 -3 -6 858.51 30.7
2 -3 -6 871.11 28
2 -3 -6 830.42 30.4
-2 3 6 884.41 30.4
-2 3 6 848.12 30.6
-2 3 6 822.52 30.4
1 -3 -6 63.19 3.7
1 -3 -6 83.09 6
1 -3 -6 58.79 5.6
-1 3 6 56.19 5.7
-1 3 6 60.09 5.4
-1 3 6 65.69 5.1
0 -3 -6 531.65 19.3
0 -3 -6 520.35 20.5
0 -3 -6 565.94 21.1
0 3 6 508.55 20.7
0 3 6 535.25 21.1
0 3 6 548.65 20.8
-1 -3 -6 -1.3 2.9
-1 -3 -6 -1.8 2.5
1 3 6 0.3 3.3
1 3 6 -1.2 2.9
1 3 6 0.2 2.2
-2 -3 -6 -6.3 2.9
-2 -3 -6 -4 2.7
2 3 6 0.4 3.3
2 3 6 -3.6 3.4
2 3 6 1.6 3.3
-3 -3 -6 -1.6 3.4
-3 -3 -6 3.5 3.9
3 3 6 2.1 3.6
3 3 6 2.7 3
-4 -3 -6 3.8 4
4 3 6 4 4.5
4 3 6 6.6 4.4
-9 4 6 24 4.8
-9 4 6 27.5 4.8
8 -4 -6 4.5 4.3
-8 4 6 8.9 3.4
-8 4 6 4.1 3.4
7 -4 -6 52.99 5.9
-7 4 6 41.3 5.1
-7 4 6 50.59 5.4
6 -4 -6 26.3 4.5
-6 4 6 36 4.6
-6 4 6 21.5 4
5 -4 -6 147.99 8.6
4 -4 -6 119.99 7.7
-4 4 6 121.59 8
-4 4 6 141.69 7.5
-4 4 6 116.79 7
3 -4 -6 104.59 7
-3 4 6 107.49 7
-3 4 6 92.39 7.1
-3 4 6 109.39 6.7
2 -4 -6 10 3.4
-2 4 6 13.8 3.4
-2 4 6 3.3 3.3
-2 4 6 3.2 2.3
1 -4 -6 205.78 10.5
-1 4 6 205.38 10.5
-1 4 6 209.68 10.4
-1 4 6 197.68 10.8
0 -4 -6 -0.3 2.2
0 4 6 1.6 3
0 4 6 3.7 2.6
0 4 6 2.2 3.7
-1 -4 -6 2.6 3.2
1 4 6 6.3 3.6
1 4 6 6.3 4.2
1 4 6 2.2 3.7
-2 -4 -6 70.39 7.2
2 4 6 63.19 7.8
2 4 6 74.39 7.5
2 4 6 72.99 7.5
-3 -4 -6 64.19 7.2
3 4 6 63.19 8
3 4 6 67.99 7.7
-8 5 6 12.5 3.9
-8 5 6 2.7 3.3
-7 5 6 23.8 4.2
-7 5 6 23.4 4.2
6 -5 -6 2.2 3.2
-6 5 6 -2.5 1.9
5 -5 -6 14.9 3.8
-5 5 6 15.4 3.6
-5 5 6 23.4 4.8
-5 5 6 13.4 3.4
4 -5 -6 3.7 3
-4 5 6 5.2 3
-4 5 6 0 2.6
-4 5 6 3.8 3.5
3 -5 -6 14 3.8
-3 5 6 13.8 3.4
-3 5 6 16.6 3.7
-3 5 6 14.1 3.6
2 -5 -6 8.8 3.5
-2 5 6 6.6 3.3
-2 5 6 6.2 3.2
-2 5 6 7.6 4
1 -5 -6 -3.1 2.8
-1 5 6 -4 2.9
-1 5 6 4.6 3.3
-1 5 6 -2.5 3.5
0 -5 -6 0.5 3.5
0 5 6 -0.6 4.1
0 5 6 -0.1 3.5
0 5 6 -3.2 3.1
-1 -5 -6 31.4 5.2
1 5 6 24.8 6.2
1 5 6 27.5 5.2
1 5 6 26.6 5.1
-2 -5 -6 2.9 4
2 5 6 3.3 5
-8 6 6 25.4 4.7
-7 6 6 7.4 3.5
-6 6 6 -0.5 2.9
-6 6 6 5.7 3.1
-6 6 6 -5.2 2.6
-5 6 6 2.3 2.7
-5 6 6 5.1 4
-5 6 6 -2.4 2.8
-4 6 6 30.3 4.5
-4 6 6 38.1 5
-4 6 6 34.5 5.8
-3 6 6 4.8 3.5
-3 6 6 10.3 3.6
-3 6 6 4.8 4.2
-2 6 6 2.8 3.4
-2 6 6 5.9 4.5
-2 6 6 7.6 3.5
-1 6 6 15.8 5.6
-1 6 6 22.5 4.6
-1 6 6 24.7 4.7
0 6 6 -3.7 4.5
0 6 6 1.4 3.6
0 6 6 -3.3 3.9
-6 7 6 -2.8 3.1
-6 7 6 1.9 3
-6 7 6 0.2 2.8
-5 7 6 7.1 4.5
-5 7 6 9.4 3.5
-5 7 6 0 3
-4 7 6 45.2 5.5
-4 7 6 41.8 5.5
-4 7 6 42 6.5
-3 7 6 78.19 8.9
-3 7 6 72.49 6.9
-3 7 6 67.29 6.9
-2 7 6 8.5 5.3
-2 7 6 13.5 4.2
-2 7 6 7.8 3.9
-1 11 -7 42.4 6.2
-1 11 -7 50.79 3.7
-2 11 -7 30.9 5.6
-3 11 -7 -7.2 3.2
-3 11 -7 -4.6 3.8
-4 11 -7 9.1 4.3
2 10 -7 0.5 3.9
2 10 -7 -2.3 2.7
2 10 -7 -2.6 2.5
1 10 -7 5.2 2.9
1 10 -7 -4.8 3.6
1 10 -7 -0.1 2.1
0 10 -7 26.5 3.7
0 10 -7 23.6 4.8
-1 10 -7 17.6 2.1
-1 10 -7 19.1 2.4
-1 10 -7 15.7 4.6
-2 10 -7 5 0.8
-2 10 -7 5.2 0.9
-2 10 -7 5.9 3.4
-3 10 -7 -3.5 2.4
-3 10 -7 -6.5 3.2
-4 10 -7 59.79 7.5
-4 10 -7 84.39 6.4
-5 10 -7 7.3 4.5
-5 10 -7 8.9 3.9
-6 10 -7 26.9 6.2
-6 10 -7 31.3 2.5
3 9 -7 -0.4 3.4
3 9 -7 4.8 3.8
3 9 -7 -0.5 3.1
2 9 -7 8.9 3.6
2 9 -7 5.5 2.8
2 9 -7 5.8 3.8
1 9 -7 -2.9 3.1
1 9 -7 -2.1 2.3
1 9 -7 1.7 2.1
0 9 -7 3.4 1.6
0 9 -7 1.8 2.2
0 9 -7 -2.7 3.1
-1 9 -7 10.7 2.1
-1 9 -7 11.7 1.8
-1 9 -7 9.9 3.6
-2 9 -7 45.8 2.5
-2 9 -7 40.9 4.7
-2 9 -7 44.4 2.6
-3 9 -7 -0.8 3.5
-3 9 -7 0.6 0.7
-3 9 -7 2.2 2.7
-3 9 -7 0 0.7
-4 9 -7 3.9 1.1
-4 9 -7 10.9 4.5
-4 9 -7 3.8 2.5
-4 9 -7 4.2 1
-5 9 -7 1.5 1.4
-5 9 -7 4.8 4.5
-6 9 -7 2.9 1.8
-6 9 -7 7.4 4.7
4 8 -7 18.6 4.5
4 8 -7 18.7 4.4
4 8 -7 21.2 4.8
3 8 -7 138.99 8.3
3 8 -7 150.28 9
3 8 -7 136.39 9.1
2 8 -7 13 3.9
2 8 -7 7.6 2.9
2 8 -7 9.9 3.3
1 8 -7 23.1 3.9
1 8 -7 26.5 3.2
1 8 -7 25 3.7
0 8 -7 1 1.6
0 8 -7 5.3 2.2
0 8 -7 3.9 2.6
0 8 -7 5.2 1.7
-1 8 -7 1.4 1.7
-1 8 -7 -0.1 1
-1 8 -7 0.6 2.2
-1 8 -7 -1.2 1.2
-2 8 -7 38.3 4.2
-2 8 -7 42.7 2.6
-2 8 -7 41.6 2.8
-3 8 -7 7 4.1
-3 8 -7 13.1 1.6
-3 8 -7 11.1 1.7
-3 8 -7 13.3 3
-4 8 -7 34.5 2.7
-4 8 -7 33.6 1.9
-4 8 -7 31.9 5.2
-5 8 -7 66.79 3.6
-5 8 -7 67.69 4.2
-5 8 -7 68.99 7.5
-6 8 -7 -3.3 1.7
-6 8 -7 -2.8 3
-6 8 -7 3.1 1.7
-7 8 -7 0.6 2
-7 8 -7 -5.4 4.2
-7 8 -7 3.5 2.2
5 7 -7 -1.4 3.5
5 7 -7 8.2 3.7
5 7 -7 0.9 3.8
4 7 -7 6.7 3.3
4 7 -7 2.6 3.6
4 7 -7 11.7 4
3 7 -7 35.6 4.5
3 7 -7 33.1 4.6
3 7 -7 35.5 4.9
2 7 -7 20.3 3.4
2 7 -7 15.4 3.5
2 7 -7 17.6 3.5
1 7 -7 98.79 5.2
1 7 -7 96.29 6
1 7 -7 90.99 6
1 7 -7 98.09 5.6
0 7 -7 146.39 7
0 7 -7 146.29 6.5
0 7 -7 145.29 6.3
0 7 -7 143.39 7.1
-1 7 -7 48.1 3.1
-1 7 -7 48.3 3
-1 7 -7 46.8 3.9
-1 7 -7 51.19 3.7
-2 7 -7 30.6 2.5
-2 7 -7 33.2 2.4
-2 7 -7 33.2 2.9
-2 7 -7 41.4 3.5
-3 7 -7 111.79 4.8
-3 7 -7 108.99 5.3
-3 7 -7 107.59 8.8
-4 7 -7 1.7 1.5
-4 7 -7 0.5 2.8
-4 7 -7 4.7 1.8
-4 7 -7 4 1.7
-5 7 -7 6.2 2.1
-5 7 -7 -2.2 1.6
-5 7 -7 4.5 4.2
-6 7 -7 47.9 4.3
-6 7 -7 56.29 4.5
-6 7 -7 56.09 7.7
-7 7 -7 5.9 2.9
-7 7 -7 6.1 4.1
-7 7 -7 8.7 2.8
6 6 -7 17.4 4.6
6 6 -7 13.7 4.7
6 6 -7 8 4.2
5 6 -7 18 4.3
5 6 -7 8.7 3.5
5 6 -7 17.3 4.1
4 6 -7 4.3 3.2
4 6 -7 1.7 3.4
4 6 -7 10.5 3.4
3 6 -7 16.2 3.4
3 6 -7 15.5 3.8
3 6 -7 17.4 3.2
-3 -6 7 14.5 2.7
2 6 -7 5.1 2.6
2 6 -7 14.7 2.8
2 6 -7 15.7 3.3
2 6 -7 14 2.5
-2 -6 7 11.6 2.3
1 6 -7 10.4 2.3
1 6 -7 8.5 2.3
1 6 -7 7.6 2.6
1 6 -7 6.8 1.8
-1 -6 7 4.3 1.6
0 6 -7 2.7 1.7
0 6 -7 2.2 2
0 6 -7 -1.7 1.6
0 6 -7 2.4 1.4
0 6 -7 6.2 1.7
-1 6 -7 55.39 3.3
-1 6 -7 54.69 3.4
-1 6 -7 52.59 3.9
-1 6 -7 47.2 3
-1 6 -7 53.99 3.4
-2 6 -7 29.4 3.8
-2 6 -7 17.6 2.4
-2 6 -7 20.5 2.4
-2 6 -7 13.9 3.7
-2 6 -7 17.9 2
-2 6 -7 13.1 2
-2 6 -7 17.9 2.1
-3 6 -7 2 1.7
-3 6 -7 -1.6 2.4
-3 6 -7 3.3 1.9
-3 6 -7 1.6 1.7
-4 6 -7 88.09 5.1
-4 6 -7 85.79 5.2
-4 6 -7 91.59 8.4
-4 6 -7 82.59 4.8
-5 6 -7 93.39 8
-5 6 -7 95.29 5.6
-5 6 -7 95.89 5.9
-6 6 -7 20.5 3.2
-6 6 -7 20.6 3.4
-6 6 -7 18.4 4.9
-7 6 -7 47.1 5.1
-7 6 -7 50.39 5.1
-7 6 -7 46.6 7.9
7 5 -7 40.8 6.8
7 5 -7 51.09 6.7
7 5 -7 43.8 6.6
6 5 -7 14.7 4.4
6 5 -7 14.9 4.2
6 5 -7 4.7 4
-6 -5 7 9 3.3
5 5 -7 2.2 3.6
5 5 -7 5.2 3.3
5 5 -7 -0.4 3.1
-5 -5 7 2.9 2.6
4 5 -7 13.2 3.9
4 5 -7 13.7 3.3
4 5 -7 10 3.2
-4 -5 7 18 3.2
3 5 -7 39.3 4.8
3 5 -7 39.6 3.9
3 5 -7 35 4.3
-3 -5 7 44.3 4.1
2 5 -7 49.1 3.7
2 5 -7 48 3.4
2 5 -7 43 4.2
2 5 -7 41.8 3.6
2 5 -7 43.4 4.5
-2 -5 7 47.8 3.4
-2 -5 7 44.8 3.6
-2 -5 7 53.69 3.5
1 5 -7 20.7 2.4
1 5 -7 18.6 1.9
1 5 -7 13.8 2.2
1 5 -7 21.9 3.3
1 5 -7 21.8 2.9
-1 -5 7 20.1 2.4
-1 -5 7 16.5 2.1
0 5 -7 2.1 1.8
0 5 -7 -1.3 0.8
0 5 -7 0.1 1.9
0 5 -7 1.6 1.3
0 5 -7 0.3 1.3
0 -5 7 -0.6 1.1
0 -5 7 1 1.4
-1 5 -7 13.3 2
-1 5 -7 13.4 2.2
-1 5 -7 15.5 2
-1 5 -7 13.1 2.5
-1 5 -7 14 1.4
-1 5 -7 17.2 1.4
1 -5 7 15.2 2.1
-2 5 -7 -1.1 1.5
-2 5 -7 1.7 1.4
-2 5 -7 -1.2 1
-2 5 -7 0.9 2.4
-2 5 -7 1.9 1.8
2 -5 7 0.2 1.5
-3 5 -7 20.6 2.9
-3 5 -7 24.2 2.7
-3 5 -7 19.5 4.1
-3 5 -7 18.8 2.8
3 -5 7 24.1 2.8
-4 5 -7 185.98 11.6
-4 5 -7 205.78 8.8
-4 5 -7 194.88 9.1
-5 5 -7 68.69 7.4
-5 5 -7 65.99 5.6
-5 5 -7 76.89 5.2
-6 5 -7 76.29 5.9
-6 5 -7 69.39 8.2
-6 5 -7 79.19 6.1
-7 5 -7 5.9 3.2
-7 5 -7 15.7 6
-7 5 -7 14.3 3.9
7 4 -7 7.6 5
7 4 -7 16.6 4.4
7 4 -7 8.4 4.4
-7 -4 7 5.5 3.7
6 4 -7 11.8 4.6
6 4 -7 15.9 4.2
6 4 -7 20 4.1
-6 -4 7 11.3 3.1
5 4 -7 30.1 4.3
5 4 -7 44.8 5.8
5 4 -7 32.6 4.4
-5 -4 7 37.2 4.4
4 4 -7 160.28 7.8
4 4 -7 156.08 8.6
4 4 -7 153.18 8.7
-4 -4 7 162.78 8.1
3 4 -7 336.37 14.5
3 4 -7 350.46 14.1
3 4 -7 343.07 13.4
3 4 -7 348.77 13.1
-3 -4 7 358.26 13.9
-3 -4 7 329.67 13.1
-3 -4 7 340.67 13.6
2 4 -7 0.9 2.2
2 4 -7 2.7 1.2
2 4 -7 0.1 1.6
2 4 -7 -1.2 1.5
2 4 -7 1 2.4
-2 -4 7 -2 1.1
-2 -4 7 1.6 1.5
-2 -4 7 -1.4 1.6
1 4 -7 93.19 4.8
1 4 -7 90.99 5.3
1 4 -7 87.09 5.6
1 4 -7 98.89 4.9
-1 -4 7 89.19 4.5
0 4 -7 1.9 1.7
0 4 -7 1.5 2
0 4 -7 2.2 1.8
0 4 -7 8 1.9
0 -4 7 3.4 1.6
0 -4 7 5.4 1.5
-1 4 -7 134.69 6.7
-1 4 -7 133.29 6.2
-1 4 -7 147.09 6.9
-1 4 -7 153.48 6.4
1 -4 7 137.89 6.1
1 -4 7 135.79 6.4
-2 4 -7 22.6 3
-2 4 -7 11.8 3.2
-2 4 -7 14.8 2.5
-2 4 -7 14.6 1.9
-2 4 -7 17.9 2.6
2 -4 7 17.8 2.6
2 -4 7 13.2 2.1
-3 4 -7 0.2 1.7
-3 4 -7 -0.7 2.1
-3 4 -7 -0.1 3.1
-3 4 -7 0.7 2
3 -4 7 0.4 2
-4 4 -7 30.9 3.7
-4 4 -7 34.7 5.1
-4 4 -7 28.9 3.8
4 -4 7 29.4 3.6
-5 4 -7 2.8 2.5
-5 4 -7 1.1 3
-5 4 -7 3.5 2.7
-6 4 -7 26.9 5.5
-6 4 -7 24.1 4
-6 4 -7 31.3 4.3
-7 4 -7 21.5 4.3
-7 4 -7 19.9 6.3
-7 4 -7 23.8 4.5
8 3 -7 9.8 5
-8 -3 7 10.3 4.1
7 3 -7 9.9 4.8
7 3 -7 20.3 4.9
-7 -3 7 9.4 3.7
6 3 -7 78.99 7.6
6 3 -7 84.59 6.4
6 3 -7 74.49 7.2
-6 -3 7 78.69 6.4
5 3 -7 325.67 14.4
5 3 -7 318.07 13.2
5 3 -7 308.17 13.7
-5 -3 7 297.27 13
4 3 -7 5 3
4 3 -7 0.2 2.3
-4 -3 7 4 2.2
-4 -3 7 6 2.6
3 3 -7 2424.06 80.19
3 3 -7 2412.86 80.49
3 3 -7 2400.66 79.49
-3 -3 7 2370.86 78.79
-3 -3 7 2469.65 79.69
2 3 -7 237.08 9.3
2 3 -7 220.68 10.2
2 3 -7 203.88 9.7
-2 -3 7 228.58 9.4
-2 -3 7 214.48 7.9
1 3 -7 5 2.1
1 3 -7 4.4 1.8
1 3 -7 4.1 1.8
1 3 -7 4.8 2.5
-1 -3 7 2.3 1.7
-1 -3 7 3.2 1.5
0 3 -7 31.1 3
0 3 -7 25 3.1
0 3 -7 25.1 3.4
0 3 -7 25.6 2.8
0 -3 7 22.9 2.6
0 -3 7 32.2 3.1
-1 3 -7 24.4 3.3
-1 3 -7 22.2 4
-1 3 -7 25.5 2.8
-1 3 -7 22.9 3
1 -3 7 21.7 2.9
1 -3 7 23.9 2.7
-2 3 -7 195.18 8.3
-2 3 -7 177.08 10.1
-2 3 -7 172.18 8.5
-2 3 -7 180.98 8.4
-2 3 -7 186.98 8.7
2 -3 7 184.08 8.3
2 -3 7 177.28 8.2
-3 3 -7 44.5 4.5
-3 3 -7 48.6 4.7
-3 3 -7 45.9 5.9
3 -3 7 53.09 4.8
-4 3 -7 169.38 10.2
-4 3 -7 180.18 9
-4 3 -7 174.68 8.8
4 -3 7 163.28 8.7
-5 3 -7 24 5.6
-5 3 -7 27.5 4.3
-5 3 -7 35.2 4.6
5 -3 7 37.3 4.8
-6 3 -7 3.5 3.3
-6 3 -7 6.6 3.4
-6 3 -7 3 4.8
-7 3 -7 58.79 6.5
-7 3 -7 59.49 6.5
-7 3 -7 55.99 8.6
8 2 -7 2.1 4.2
-8 -2 7 0.6 2.7
7 2 -7 25.9 5.2
7 2 -7 24.5 5.5
-7 -2 7 30.2 4.8
6 2 -7 2 3.7
6 2 -7 2.5 3.6
-6 -2 7 5.6 2.6
5 2 -7 63.29 6.1
5 2 -7 62.29 6.1
-5 -2 7 70.99 5.1
-5 -2 7 67.49 5.3
4 2 -7 428.56 17.1
4 2 -7 442.96 17.6
4 2 -7 436.16 16.3
-4 -2 7 404.36 16.2
-4 -2 7 415.16 16.1
3 2 -7 87.29 6
3 2 -7 103.59 6.2
3 2 -7 92.19 5.1
-3 -2 7 91.89 5.6
-3 -2 7 119.19 5.8
-3 -2 7 88.49 4.6
2 2 -7 1.8 2.2
2 2 -7 -0.1 1.9
2 2 -7 0.2 1.8
-2 -2 7 1.2 1.9
-2 -2 7 0.6 0.9
1 2 -7 164.48 7.5
1 2 -7 167.98 8.3
1 2 -7 162.88 7.9
-1 -2 7 169.08 7.4
-1 -2 7 160.58 7.6
0 2 -7 34.2 3.4
0 2 -7 37 4
0 2 -7 30.1 3.5
0 -2 7 37.7 3.6
-1 2 -7 637.94 23.7
-1 2 -7 623.64 21
-1 2 -7 607.74 22.6
-1 2 -7 641.14 22.3
-1 2 -7 630.64 22.9
1 -2 7 606.04 21
1 -2 7 633.54 22.6
-2 2 -7 3.7 2.4
-2 2 -7 0.1 1.9
-2 2 -7 -1.8 1.7
-2 2 -7 0.8 1.6
-2 2 -7 1.8 3
2 -2 7 -1.4 2
2 -2 7 -0.7 1.4
-3 2 -7 122.49 8.8
-3 2 -7 133.79 7.5
-3 2 -7 126.89 7.6
3 -2 7 142.39 6.9
3 -2 7 128.39 7.5
-4 2 -7 59.29 5.7
-4 2 -7 57.19 6.3
-4 2 -7 45.5 4.9
4 -2 7 60.89 5
4 -2 7 56.79 5.5
-5 2 -7 8.8 3.5
-5 2 -7 7.3 4.6
-5 2 -7 6.4 2.8
5 -2 7 9.9 3.6
5 -2 7 16.4 3.8
-6 2 -7 15.7 4.2
-6 2 -7 3.4 4.9
-6 2 -7 9.8 3.4
6 -2 7 6.6 3.9
8 1 -7 -1.1 3.8
-8 -1 7 -2.6 3.4
7 1 -7 -1.5 3.6
7 1 -7 -4.9 3.3
-7 -1 7 -2.1 3.1
6 1 -7 16.6 3.9
6 1 -7 21.2 4.1
-6 -1 7 26 4.2
-6 -1 7 22.2 3.7
5 1 -7 4.9 3.5
5 1 -7 11.6 3.6
-5 -1 7 11.9 3.2
-5 -1 7 9.3 2.9
4 1 -7 68.69 4.9
4 1 -7 70.49 6.2
4 1 -7 66.79 5.8
-4 -1 7 59.89 5
-4 -1 7 63.59 4.9
3 1 -7 238.38 9.8
3 1 -7 227.78 10.7
3 1 -7 225.28 10.9
-3 -1 7 236.08 9.1
-3 -1 7 240.28 10
-3 -1 7 233.98 10.2
2 1 -7 2.1 2
2 1 -7 3.5 2.5
2 1 -7 3.3 1.5
-2 -1 7 4.1 1.3
-2 -1 7 5.3 1.2
-2 -1 7 1.6 1.8
1 1 -7 3.8 1.6
1 1 -7 0.4 1.9
1 1 -7 0.6 2.2
-1 -1 7 -1.3 1
-1 -1 7 0.4 1.8
-1 -1 7 -0.6 2
0 1 -7 61.79 4.7
0 1 -7 66.29 5.1
0 1 -7 65.99 4.8
0 1 -7 76.59 4.7
0 -1 7 66.19 4.9
0 -1 7 63.29 3.5
0 -1 7 68.29 4.7
-1 1 -7 3.1 2.2
-1 1 -7 3.9 2.7
-1 1 -7 4.9 1.6
-1 1 -7 5.2 2.6
-1 1 -7 6.4 2.9
1 -1 7 6.8 2.4
1 -1 7 2.3 2.3
1 -1 7 5.2 1.8
-2 1 -7 2.8 2.2
-2 1 -7 5.2 2.3
-2 1 -7 5.6 2.4
2 -1 7 5.1 2.6
2 -1 7 3.1 2.1
2 -1 7 3.6 2.2
-3 1 -7 3.4 2.3
-3 1 -7 -4.4 2.5
-3 1 -7 3 3.3
3 -1 7 0.4 2.8
3 -1 7 -1.8 2.4
-4 1 -7 -1 3.5
-4 1 -7 3.3 2.6
-4 1 -7 4 2.5
4 -1 7 -0.2 2.3
4 -1 7 4.5 2.8
-5 1 -7 16.5 3.7
-5 1 -7 25.7 4.8
-5 1 -7 11.3 4.9
5 -1 7 25.4 4.6
5 -1 7 17.9 4.6
-6 1 -7 7.9 5.4
-6 1 -7 -1.4 3.3
-6 1 -7 7.5 4
6 -1 7 -0.2 3.3
6 -1 7 4.4 4
9 0 -7 24.9 5.7
-9 0 7 7.9 4.4
8 0 -7 4.8 4.2
-8 0 7 1.7 3.7
7 0 -7 1.1 3.4
-7 0 7 3.5 2.4
-7 0 7 -3.3 2.9
6 0 -7 7.4 3.7
6 0 -7 11.1 4
-6 0 7 6.2 3
-6 0 7 12.4 2.8
5 0 -7 70.39 6.3
5 0 -7 63.69 5.9
-5 0 7 67.89 5.8
-5 0 7 64.49 4.8
4 0 -7 21.2 3.9
4 0 -7 14.4 3.6
-4 0 7 20.7 3.2
-4 0 7 20 3.1
3 0 -7 22.6 3.4
3 0 -7 27.9 4.1
2 0 -7 230.98 10.9
2 0 -7 248.78 11.3
2 0 -7 236.48 10.2
-2 0 7 243.98 9.6
-2 0 7 266.87 10.6
-2 0 7 261.47 10.9
1 0 -7 -2.5 1.9
1 0 -7 1.2 2.1
1 0 -7 1.5 2.4
1 0 -7 3.1 2.6
-1 0 7 -0.5 1.9
-1 0 7 0.6 1.7
-1 0 7 -1.3 2
0 0 -7 341.87 14.4
0 0 -7 358.26 14.5
0 0 -7 349.57 14.2
0 0 7 336.07 14.1
0 0 7 352.46 13.2
0 0 7 350.36 13.8
-1 0 -7 246.38 10.9
-1 0 -7 206.68 10.4
-1 0 -7 216.18 10.5
1 0 7 216.88 9.5
1 0 7 231.78 10.4
1 0 7 221.38 10.4
-2 0 -7 97.19 6.9
-2 0 -7 99.59 7.1
-2 0 -7 94.19 6.9
2 0 7 108.19 7
2 0 7 94.29 6.4
2 0 7 89.59 6.3
-3 0 -7 -0.2 2.9
-3 0 -7 0.4 3.2
-3 0 -7 0 3.1
3 0 7 3.9 2.7
3 0 7 -3.5 2.9
-4 0 -7 -0.4 3.5
-4 0 -7 0.1 2.7
-4 0 -7 -0.7 3.2
4 0 7 9.1 3.2
4 0 7 -1.9 3.3
-5 0 -7 0.9 3.4
-5 0 -7 7 4
5 0 7 9.5 3.9
5 0 7 1.7 3.1
9 -1 -7 7.7 4.1
-9 1 7 2.4 4.1
8 -1 -7 6.5 3.6
-8 1 7 11.1 4.1
7 -1 -7 1.8 3.6
-7 1 7 1.8 2.2
-7 1 7 -1.7 2.7
6 -1 -7 22.2 4.6
6 -1 -7 22.9 4.2
-6 1 7 20.8 3.8
-6 1 7 29.3 4.4
5 -1 -7 36.4 4.6
5 -1 -7 34.4 4.8
-5 1 7 38.5 4.6
-5 1 7 31.3 4.2
4 -1 -7 90.79 6.6
4 -1 -7 80.89 6.6
-4 1 7 82.19 5.7
-4 1 7 81.99 5.5
3 -1 -7 68.49 5.8
3 -1 -7 59.99 5.5
-3 1 7 55.09 4.2
-3 1 7 57.69 5.1
2 -1 -7 87.49 5.2
2 -1 -7 92.29 6.4
2 -1 -7 94.79 6.5
-2 1 7 86.99 5.1
-2 1 7 91.39 5.4
-2 1 7 86.89 5.9
1 -1 -7 13.4 3.4
1 -1 -7 18.2 2.8
1 -1 -7 22.2 3.8
-1 1 7 21.9 3.2
-1 1 7 17.4 3.2
-1 1 7 21.6 3.2
0 -1 -7 21.9 3.6
0 -1 -7 26.4 4.1
0 -1 -7 22 3.3
0 1 7 22.8 3.7
0 1 7 34.6 4.1
0 1 7 16.5 3.5
-1 -1 -7 1033.9 36
-1 -1 -7 1020.6 36.4
-1 -1 -7 990.3 36.1
1 1 7 1004.3 36.1
1 1 7 1044.5 36.3
1 1 7 1013.7 35.7
-2 -1 -7 18.2 4
-2 -1 -7 16.6 3.5
-2 -1 -7 10 3.4
2 1 7 15.6 4
2 1 7 15.9 3.6
2 1 7 13.5 3.9
-3 -1 -7 2.5 3.4
-3 -1 -7 -2.7 3.5
-3 -1 -7 -1.9 2.4
3 1 7 5 3.2
3 1 7 1.1 3.6
-4 -1 -7 59.89 6.8
-4 -1 -7 55.59 7
4 1 7 51.99 6.6
4 1 7 63.79 6.8
9 -2 -7 12.9 4.8
-9 2 7 11 4.3
8 -2 -7 21.1 5
-8 2 7 9.7 3.3
-8 2 7 15.5 4.2
7 -2 -7 4.7 3.9
-7 2 7 4.8 3.3
-7 2 7 15.6 3.9
6 -2 -7 3.3 2.7
-6 2 7 12.6 3.5
-6 2 7 10.4 2.8
5 -2 -7 140.29 8.6
5 -2 -7 161.58 9.2
-5 2 7 151.28 8.5
-5 2 7 159.98 8.4
4 -2 -7 22.2 3.7
4 -2 -7 28.6 4.5
3 -2 -7 37 4.3
3 -2 -7 30.9 4.5
-3 2 7 29.8 3.7
-3 2 7 29.5 3.9
-3 2 7 35.1 4.2
2 -2 -7 32.8 4.5
2 -2 -7 34.3 4.2
2 -2 -7 28.9 2.9
-2 2 7 31.9 4
-2 2 7 29.4 4.2
-2 2 7 33.3 3.9
1 -2 -7 622.04 24.4
1 -2 -7 644.84 23.1
1 -2 -7 647.34 24.7
-1 2 7 703.63 24.8
-1 2 7 639.54 24.1
-1 2 7 686.73 24.5
0 -2 -7 655.73 24.1
0 -2 -7 620.64 22.8
0 -2 -7 621.04 24
0 2 7 624.14 23.9
0 2 7 620.44 23.8
0 2 7 630.24 23.6
-1 -2 -7 11.8 3.8
-1 -2 -7 6.8 2.9
-1 -2 -7 6 3.4
1 2 7 9.7 3.8
1 2 7 5.4 2.8
1 2 7 7.8 3.5
-2 -2 -7 63.09 6.6
-2 -2 -7 63.79 6.4
2 2 7 73.09 6.7
2 2 7 70.89 7
-3 -2 -7 -1 3.6
-3 -2 -7 -6 3.2
3 2 7 0.3 3.8
3 2 7 0.8 3.3
-4 -2 -7 31.7 5.3
-4 -2 -7 28.5 6.8
4 2 7 40.6 5.9
4 2 7 47.5 6.5
9 -3 -7 9.1 6.8
-9 3 7 18.9 4.7
-9 3 7 11.8 4.3
8 -3 -7 23.2 5
-8 3 7 18.3 4.4
-8 3 7 17.2 4.4
7 -3 -7 36.8 5.5
-7 3 7 31.3 4.4
-7 3 7 43.8 5.3
6 -3 -7 174.58 10
-6 3 7 168.98 9.2
-6 3 7 156.18 9.2
5 -3 -7 9.6 3.6
-5 3 7 0.9 2.1
4 -3 -7 6.2 3.3
-4 3 7 4.3 2.9
-4 3 7 0 2.8
-4 3 7 0.9 2
3 -3 -7 5.5 3.1
-3 3 7 9.1 3.2
-3 3 7 8.8 3.1
-3 3 7 9.4 2.7
2 -3 -7 375.76 15.8
-2 3 7 364.46 15.5
-2 3 7 375.96 15.1
-2 3 7 351.16 15.3
1 -3 -7 123.79 8.2
-1 3 7 121.99 7.9
-1 3 7 129.29 7.7
-1 3 7 125.09 7.9
0 -3 -7 54.39 5.9
0 3 7 53.49 6.1
0 3 7 60.99 6
0 3 7 60.49 6.3
-1 -3 -7 21.6 4.6
1 3 7 20.2 4.9
1 3 7 32.7 5.3
1 3 7 36.4 5.4
-2 -3 -7 -1.7 3.6
2 3 7 3.4 3.9
2 3 7 -3.1 3.6
-3 -3 -7 12.7 4
3 3 7 13.5 4.8
-8 4 7 -3.8 3.2
-8 4 7 -4.7 3.1
7 -4 -7 -2.3 3.4
-7 4 7 1.3 3.2
-7 4 7 8.1 3.2
6 -4 -7 42.6 5.6
-6 4 7 44 5.3
5 -4 -7 235.98 11.6
-5 4 7 218.48 11.1
-5 4 7 209.48 10.4
4 -4 -7 3.2 3.2
-4 4 7 1.7 3
-4 4 7 4.2 2.3
-4 4 7 3 2.9
3 -4 -7 46.7 5.5
-3 4 7 44.3 5.1
-3 4 7 50.19 5.8
-3 4 7 47.4 5.3
2 -4 -7 2.6 3.3
-2 4 7 1.5 3.3
-2 4 7 0.2 2.9
-2 4 7 -4 2.8
1 -4 -7 58.99 6.2
-1 4 7 43.2 6
-1 4 7 43.8 5.6
-1 4 7 53.69 5.5
0 -4 -7 26.1 4.9
0 4 7 13.5 4.5
0 4 7 16.5 4.9
0 4 7 21.8 4
-1 -4 -7 9.9 3.5
1 4 7 2 3.2
1 4 7 8.2 4.2
1 4 7 0.1 4.3
-2 -4 -7 3 4.1
2 4 7 1.5 4.8
2 4 7 8.2 4.2
-8 5 7 11.5 3.8
-8 5 7 6.1 3.7
-7 5 7 11.6 3.8
-6 5 7 -2.6 3
5 -5 -7 9.3 3.7
-5 5 7 8.5 3.6
-5 5 7 11.7 3.7
-5 5 7 14 4.2
4 -5 -7 7.8 3.3
-4 5 7 5.1 3.4
-4 5 7 8.4 3.7
-4 5 7 5.4 2.6
3 -5 -7 10.4 3.9
-3 5 7 14.9 4.5
-3 5 7 7 3
-3 5 7 11.2 3.8
2 -5 -7 13.3 4.2
-2 5 7 11.6 4.5
-2 5 7 17.6 3.8
-2 5 7 17.2 4.4
1 -5 -7 6.9 3.6
-1 5 7 -0.8 4
-1 5 7 2.9 2.8
-1 5 7 9.6 4
0 -5 -7 0.7 3.6
0 5 7 -7.8 4.1
0 5 7 -3.2 2.6
0 5 7 -2.4 3.6
-7 6 7 12.8 4.1
-6 6 7 73.69 8.1
-6 6 7 54.69 6.2
-6 6 7 61.79 6.5
-5 6 7 33.2 5
-5 6 7 25.3 4.6
-5 6 7 32.5 5.9
-4 6 7 73.99 8.1
-4 6 7 91.59 6.6
-4 6 7 70.49 7.1
-3 6 7 31.2 6.2
-3 6 7 37 5.5
-3 6 7 40.5 5.6
-2 6 7 3.4 4.6
-2 6 7 9.1 4.3
-2 6 7 7.2 3.7
-1 11 -8 7.8 2
-3 11 -8 63.19 7.9
-4 11 -8 14.1 5.1
1 10 -8 3.5 2.4
1 10 -8 -1.7 2.8
0 10 -8 36.3 3.9
-1 10 -8 4.2 1.9
-1 10 -8 1.4 1.7
-2 10 -8 -1.4 1
-2 10 -8 1.5 1.1
-3 10 -8 34.5 6.1
-3 10 -8 28.7 1.3
-3 10 -8 26.2 1.3
-4 10 -8 8 0.8
-4 10 -8 8.8 4
-4 10 -8 9.1 0.8
-5 10 -8 8.3 1.4
-5 10 -8 9.7 1.5
-5 10 -8 13.9 5.5
3 9 -8 15.3 4.6
3 9 -8 9.9 3.6
2 9 -8 10.1 3.2
2 9 -8 -1 3.3
1 9 -8 44.6 4
1 9 -8 39.8 4.7
0 9 -8 28.8 2.7
0 9 -8 21.5 3.2
-1 9 -8 90.29 5.2
-1 9 -8 99.69 4.8
-2 9 -8 44.6 3.2
-2 9 -8 41.5 2.8
-3 9 -8 36.3 2.5
-3 9 -8 30.2 2.5
-3 9 -8 30.5 6
-4 9 -8 -0.3 1.3
-4 9 -8 -1.3 1.4
-4 9 -8 -4.5 3.9
-5 9 -8 -3.5 4.1
-5 9 -8 1.2 1.5
-6 9 -8 0.5 3.5
-6 9 -8 1.1 1.9
4 8 -8 -0.9 3.3
4 8 -8 -2 3.1
3 8 -8 28.9 5.1
3 8 -8 36.4 5.5
3 8 -8 27.1 4.3
2 8 -8 41 5.1
2 8 -8 40.1 4.5
2 8 -8 41.4 5.1
1 8 -8 12.8 2.8
1 8 -8 16.5 3.7
1 8 -8 18.1 3.4
0 8 -8 70.09 4.3
0 8 -8 70.09 4.2
0 8 -8 58.49 4.8
0 8 -8 82.09 8.4
-1 8 -8 40.4 2.9
-1 8 -8 35.3 3.4
-1 8 -8 40.4 3.1
-2 8 -8 0 1.3
-2 8 -8 -2.8 1.5
-2 8 -8 0.3 1
-2 8 -8 0.6 3
-3 8 -8 64.59 4
-3 8 -8 55.99 6.6
-3 8 -8 64.09 3.8
-3 8 -8 57.09 3.1
-4 8 -8 -0.3 1.2
-4 8 -8 2.8 4.2
-4 8 -8 -2 1.6
-5 8 -8 -0.9 4.4
-5 8 -8 2.4 1.7
-5 8 -8 0.3 2
-6 8 -8 14.3 2.6
-6 8 -8 16.5 2.9
-6 8 -8 18.5 5.1
5 7 -8 4 4
5 7 -8 11.1 4
5 7 -8 15.1 5
4 7 -8 -0.3 2.9
4 7 -8 -5.8 3.5
4 7 -8 6.7 3.1
3 7 -8 45.2 4.8
3 7 -8 44 5.4
3 7 -8 42.1 4.9
2 7 -8 2.8 2.7
2 7 -8 10.7 2.7
2 7 -8 7 3.3
1 7 -8 11 2.7
1 7 -8 5.5 2.4
1 7 -8 7.5 2.3
0 7 -8 142.09 7.3
0 7 -8 153.58 6.7
0 7 -8 150.88 6.9
0 7 -8 131.09 6.4
-1 7 -8 7.7 1.9
-1 7 -8 10.6 2.5
-1 7 -8 8.5 2.4
-1 7 -8 7.7 1.8
-2 7 -8 2.7 1.5
-2 7 -8 4 1.9
-2 7 -8 4.4 1.8
-2 7 -8 2.4 2.9
-3 7 -8 4.5 4.2
-3 7 -8 6.3 2.1
-3 7 -8 6.4 1.8
-4 7 -8 155.88 6.9
-4 7 -8 139.59 10.8
-4 7 -8 145.59 7.2
-5 7 -8 34.4 6.7
-5 7 -8 38 4
-5 7 -8 48.5 4
-6 7 -8 23.4 6.4
-6 7 -8 35.1 3.8
-6 7 -8 23.2 3.6
6 6 -8 15.1 4
6 6 -8 7.9 4.5
6 6 -8 0.5 3.9
5 6 -8 9.1 3.1
5 6 -8 -3.9 3.6
5 6 -8 2.3 3.4
4 6 -8 70.59 6.9
4 6 -8 78.19 5.7
4 6 -8 70.19 6.5
3 6 -8 33.5 4.8
3 6 -8 39.8 4.8
3 6 -8 45 4.1
2 6 -8 11.4 3.2
2 6 -8 12.1 3.1
2 6 -8 20.7 2.6
-2 -6 8 11.5 2.9
1 6 -8 7.8 1.6
1 6 -8 4.5 2.5
1 6 -8 4.4 1.9
1 6 -8 3 2.2
0 6 -8 159.38 6.1
0 6 -8 154.48 7.9
0 6 -8 163.08 7.2
0 6 -8 160.28 7.5
0 -6 8 177.28 7.8
-1 6 -8 17.8 2.4
-1 6 -8 14.9 2.5
-1 6 -8 16.4 2.9
-2 6 -8 12.2 2.6
-2 6 -8 18.9 2.6
-2 6 -8 17.2 4.2
-2 6 -8 17.2 2.4
-3 6 -8 166.98 8.1
-3 6 -8 162.18 7.5
-3 6 -8 154.88 10.2
-3 6 -8 176.98 7.9
-4 6 -8 -0.3 2.2
-4 6 -8 -1.5 3.9
-4 6 -8 1.8 2
-5 6 -8 12.3 2.9
-5 6 -8 18.1 3
-5 6 -8 14.7 5.2
-6 6 -8 -2.5 3.1
-6 6 -8 7.3 2.9
-6 6 -8 3.2 2.7
6 5 -8 41.1 6
6 5 -8 41.6 5.4
6 5 -8 33.2 6.1
5 5 -8 5.8 4
5 5 -8 1.3 2.3
5 5 -8 -4.5 2.7
-5 -5 8 5.6 2.9
4 5 -8 12.3 3.8
4 5 -8 11.6 4.1
4 5 -8 19.3 3.1
-4 -5 8 22.1 3.6
3 5 -8 181.58 9.5
3 5 -8 181.88 8
3 5 -8 179.48 9.7
-3 -5 8 181.08 8.5
2 5 -8 159.78 8.4
2 5 -8 173.38 6.9
2 5 -8 174.58 9
-2 -5 8 174.28 8
1 5 -8 30.6 3.2
1 5 -8 34.1 4.2
1 5 -8 30.7 3.7
0 5 -8 11.2 2.5
0 5 -8 5.7 1.9
0 5 -8 13.6 2.8
0 5 -8 10.1 2.5
0 -5 8 8.3 2.1
0 -5 8 6.7 1.8
-1 5 -8 49.5 4.1
-1 5 -8 44 4.3
-1 5 -8 48.9 3.6
1 -5 8 41.9 3.6
-2 5 -8 3.5 2
-2 5 -8 6.7 3
-2 5 -8 10.2 2.6
2 -5 8 5 2.1
-3 5 -8 2.1 2.9
-3 5 -8 8.1 2.5
-3 5 -8 1.1 2.2
-4 5 -8 51.99 4.6
-4 5 -8 53.39 5.1
-4 5 -8 53.39 7.1
-5 5 -8 75.39 5.7
-5 5 -8 62.19 7.9
-5 5 -8 60.79 5.7
-6 5 -8 0.2 2.7
-6 5 -8 -0.6 3.5
-6 5 -8 -2.3 2.7
7 4 -8 -0.8 3.9
7 4 -8 -3.7 4.2
-7 -4 8 -4 3.2
6 4 -8 3.2 3.6
6 4 -8 6.3 3
6 4 -8 6.4 3.4
-6 -4 8 1.6 3.2
5 4 -8 85.79 5.7
5 4 -8 65.39 6.8
5 4 -8 78.49 7.4
-5 -4 8 71.49 5.9
4 4 -8 256.77 12.1
4 4 -8 278.77 13.1
-4 -4 8 275.37 11.8
3 4 -8 75.99 6
3 4 -8 81.69 5.9
-3 -4 8 88.69 5.5
2 4 -8 180.18 8.8
2 4 -8 182.88 9.2
2 4 -8 178.98 8.1
-2 -4 8 168.18 8
1 4 -8 779.02 26.6
1 4 -8 753.42 27.4
1 4 -8 771.12 27.1
1 4 -8 759.22 26.5
-1 -4 8 765.22 26.2
-1 -4 8 734.93 26.5
0 4 -8 24.1 2.9
0 4 -8 23.5 2.9
0 4 -8 22.1 3.4
0 4 -8 21.2 3.2
0 -4 8 27.2 3.1
0 -4 8 21.7 2.7
-1 4 -8 21.7 3.2
-1 4 -8 28.9 3.2
-1 4 -8 27.8 4.7
-1 4 -8 30.5 3.2
-1 4 -8 25 3.5
1 -4 8 27.5 3.3
1 -4 8 24.5 2.8
-2 4 -8 4.9 2.5
-2 4 -8 8.6 3.8
-2 4 -8 5.4 2.6
-2 4 -8 1.4 2.4
2 -4 8 8.1 2.4
-3 4 -8 124.99 7.1
-3 4 -8 126.99 9.5
-3 4 -8 145.99 7.6
3 -4 8 125.79 7
-4 4 -8 145.09 8.1
-4 4 -8 151.08 8.4
-4 4 -8 164.08 11.1
-5 4 -8 58.99 7.8
-5 4 -8 54.79 5.6
-5 4 -8 68.39 6
-6 4 -8 -1.1 3.4
-6 4 -8 -2 2.8
-6 4 -8 0.6 3.3
8 3 -8 5.8 3.6
-8 -3 8 1.6 3.9
7 3 -8 18.7 5.5
7 3 -8 27.4 5.4
-7 -3 8 17.2 4.4
6 3 -8 6.4 3.7
6 3 -8 1.4 3.1
-6 -3 8 0.4 3
5 3 -8 19.8 4.6
5 3 -8 22.8 4.5
-5 -3 8 16.9 3.7
4 3 -8 1.6 2.4
4 3 -8 0.7 2.8
-4 -3 8 2.3 2.6
3 3 -8 67.79 6.1
3 3 -8 55.29 5.1
-3 -3 8 50.09 4.9
-3 -3 8 72.79 5.1
2 3 -8 317.07 13.9
2 3 -8 341.07 14.5
2 3 -8 367.06 13.6
1 3 -8 7 2.2
1 3 -8 5.6 2.7
1 3 -8 5 2.6
-1 -3 8 3.6 2.1
-1 -3 8 4.5 1.9
0 3 -8 100.79 6.6
0 3 -8 95.09 6.2
0 3 -8 131.79 6.3
0 -3 8 113.39 5.9
0 -3 8 117.09 6.2
-1 3 -8 42.1 4.9
-1 3 -8 42.3 4.5
-1 3 -8 36.4 4.1
1 -3 8 41.2 4.1
1 -3 8 42.1 3.8
-2 3 -8 26.5 4
-2 3 -8 28.1 4.9
-2 3 -8 32.9 4.1
2 -3 8 33 3.9
-3 3 -8 369.66 16.9
-3 3 -8 375.06 15.5
-3 3 -8 375.26 15.4
3 -3 8 374.56 15.3
-4 3 -8 44.2 6.5
-4 3 -8 43.7 5.1
-4 3 -8 48.3 5.2
4 -3 8 61.39 5.8
-5 3 -8 69.09 6.5
-5 3 -8 67.39 6.3
-5 3 -8 57.39 7.1
-6 3 -8 34 5.3
-6 3 -8 36.9 5.4
-6 3 -8 38.4 7.4
8 2 -8 2.6 4.4
-8 -2 8 -2.3 2.6
7 2 -8 41.8 6.3
7 2 -8 42.2 6.2
-7 -2 8 41.6 5.2
6 2 -8 -0.2 2.5
6 2 -8 -0.2 3.6
-6 -2 8 3.2 3.2
5 2 -8 14 3.6
5 2 -8 20.1 4.6
-5 -2 8 17.1 3.7
4 2 -8 1.9 3.3
4 2 -8 3.4 2.4
-4 -2 8 1.2 1.7
-4 -2 8 1.2 2.4
3 2 -8 3.8 2.5
3 2 -8 0.9 2
3 2 -8 5.1 2.1
-3 -2 8 1 2.1
-3 -2 8 5.1 1.5
-3 -2 8 -2.1 1.6
2 2 -8 -1.2 1.9
2 2 -8 1.2 2.5
2 2 -8 -5.4 2.5
-2 -2 8 0.5 0.7
-2 -2 8 -0.1 1.9
1 2 -8 139.79 8.1
1 2 -8 133.99 7.6
1 2 -8 148.69 7.3
-1 -2 8 155.48 7.5
-1 -2 8 144.99 6.9
0 2 -8 41.8 4.7
0 2 -8 42.9 4.3
0 2 -8 53.69 5.5
0 2 -8 51.09 4.4
0 -2 8 57.29 4.6
0 -2 8 47.2 3.7
-1 2 -8 13.9 3.7
-1 2 -8 7.7 2.6
-1 2 -8 4.7 2.8
1 -2 8 12 1.7
1 -2 8 10.5 2.5
1 -2 8 11.2 2.7
-2 2 -8 29.8 4
-2 2 -8 27.7 4.8
-2 2 -8 28.4 4.3
2 -2 8 30.4 3.1
2 -2 8 29.9 4.2
-3 2 -8 -2.6 3.4
-3 2 -8 1.6 2.8
-3 2 -8 0.9 3
3 -2 8 4.8 2.8
3 -2 8 4.4 2.3
-4 2 -8 10.8 4.7
-4 2 -8 14.8 3.4
-4 2 -8 15.3 4
4 -2 8 20.8 3.7
4 -2 8 13.3 3.9
-5 2 -8 0.9 3.4
-5 2 -8 2.7 3.3
-5 2 -8 -2.6 2.9
5 -2 8 10.4 3.5
5 -2 8 0.9 3.5
8 1 -8 4.3 4.4
-8 -1 8 -3 3.6
7 1 -8 15.7 4.7
-7 -1 8 11.9 4
6 1 -8 111.69 8.4
6 1 -8 123.39 9.1
-6 -1 8 113.39 7.7
5 1 -8 1.4 3.4
5 1 -8 -4.6 2.8
-5 -1 8 0.6 2.5
-5 -1 8 -2.9 1.9
4 1 -8 15 3.4
4 1 -8 11.8 3.8
-4 -1 8 16.7 3.5
-4 -1 8 15.5 2.8
3 1 -8 21.5 3.6
3 1 -8 29.5 3.8
3 1 -8 27.4 4.4
-3 -1 8 30 2.7
2 1 -8 2.1 2.2
2 1 -8 9.5 2.6
2 1 -8 2 2.8
-2 -1 8 10 2.2
-2 -1 8 7.9 1.4
-2 -1 8 6.1 2.7
-2 -1 8 6.5 1.4
1 1 -8 59.79 5.5
1 1 -8 47.5 4.7
1 1 -8 57.29 4.2
-1 -1 8 54.19 4.9
-1 -1 8 51.69 3
-1 -1 8 58.49 4.7
0 1 -8 4.1 3
0 1 -8 2.4 2.7
0 1 -8 6.9 2.8
0 -1 8 0.9 1.8
0 -1 8 5.2 2.6
0 -1 8 3 1.5
-1 1 -8 43.4 5.1
-1 1 -8 39.8 4.9
-1 1 -8 44.3 5
1 -1 8 40.1 4.5
1 -1 8 40.8 4.6
1 -1 8 44.7 3.4
-2 1 -8 -0.6 2.8
-2 1 -8 -2.4 2.9
-2 1 -8 0.1 3
2 -1 8 0.2 2.8
2 -1 8 2.6 2.1
-3 1 -8 -1.2 3.1
-3 1 -8 -3.4 2.8
-3 1 -8 0.7 2.6
3 -1 8 -2 3
3 -1 8 0.2 2.4
-4 1 -8 7.8 4.4
-4 1 -8 12.2 4.2
-4 1 -8 12.9 4.1
4 -1 8 11.6 3.7
4 -1 8 11.9 4.1
-5 1 -8 3 3.6
-5 1 -8 7.4 4.1
-5 1 -8 -2.8 3.4
5 -1 8 2.1 3.3
5 -1 8 4.6 4.2
8 0 -8 22 5.4
-8 0 8 21 4.9
7 0 -8 16.4 4.3
-7 0 8 0 3.3
6 0 -8 9.6 4.2
6 0 -8 15 3.6
-6 0 8 15.3 3.6
-6 0 8 8 2.9
5 0 -8 43.2 5.5
5 0 -8 40.4 5.6
-5 0 8 37.6 4.6
-5 0 8 44.5 5
4 0 -8 -2.5 3
4 0 -8 -3.8 1.9
-4 0 8 -1.7 1.5
-4 0 8 4.7 2.7
3 0 -8 16 3.8
3 0 -8 14.6 3.2
-3 0 8 18.1 2.7
-3 0 8 19.9 3.4
-3 0 8 18.3 3.6
2 0 -8 -4.2 1.8
2 0 -8 -4.4 2.5
-2 0 8 0.5 1.7
-2 0 8 -1.2 1.8
-2 0 8 1.1 1.7
1 0 -8 49 4.8
1 0 -8 54.29 5.5
1 0 -8 47 5.1
-1 0 8 47.5 4.7
-1 0 8 52.29 4
-1 0 8 56.29 5
0 0 -8 301.17 13.5
0 0 -8 323.97 14
0 0 -8 324.37 14.1
0 0 8 330.37 13.6
0 0 8 303.87 13.4
-1 0 -8 12.2 3.2
-1 0 -8 18 3.8
-1 0 -8 21.5 4.1
1 0 8 12.5 3.5
1 0 8 20.4 3.3
1 0 8 20.5 3.8
-2 0 -8 -3.6 3.2
-2 0 -8 0 2.9
-2 0 -8 -2.6 3
2 0 8 2.9 3.4
2 0 8 -0.7 2.4
-3 0 -8 29.2 4.9
-3 0 -8 18.6 4.5
-3 0 -8 25.1 4.9
3 0 8 24.7 4.1
3 0 8 25.3 5
-4 0 -8 -1.8 3.6
-4 0 -8 3.4 4.2
4 0 8 8.5 3.7
4 0 8 -0.3 3.8
8 -1 -8 19.8 4.9
-8 1 8 35.8 5.7
7 -1 -8 63.29 7.2
-7 1 8 78.79 7.2
-7 1 8 74.69 6.8
6 -1 -8 140.89 9.5
-6 1 8 151.08 8.7
-6 1 8 162.48 9.2
5 -1 -8 4.8 3.5
5 -1 -8 7.5 3.6
-5 1 8 4.9 2.9
-5 1 8 5.1 3.2
4 -1 -8 109.39 7.8
4 -1 -8 111.89 7.9
3 -1 -8 36.7 5
3 -1 -8 24.5 4
-3 1 8 34.5 4.5
-3 1 8 26.4 3.9
-3 1 8 31.5 3.7
2 -1 -8 67.59 5
2 -1 -8 68.29 6.2
2 -1 -8 68.89 6.3
-2 1 8 67.19 5.7
-2 1 8 66.49 4.9
-2 1 8 66.59 5.9
1 -1 -8 18.1 3.1
1 -1 -8 18.3 4
1 -1 -8 21.7 3.8
-1 1 8 21.2 4
-1 1 8 23.9 3.5
-1 1 8 16 3.3
0 -1 -8 249.88 10.9
0 -1 -8 253.27 12
0 -1 -8 222.58 11.2
0 1 8 232.48 11.3
0 1 8 228.88 10.5
0 1 8 232.78 11.3
-1 -1 -8 89.49 7.4
-1 -1 -8 77.19 7.2
-1 -1 -8 81.39 6.3
1 1 8 79.49 6
1 1 8 93.89 7.3
-2 -1 -8 328.27 15.5
-2 -1 -8 294.17 14.3
-2 -1 -8 288.37 14.1
2 1 8 291.17 14.3
2 1 8 291.97 13.4
-3 -1 -8 2.4 3.8
-3 -1 -8 5.8 3.8
3 1 8 10 3.7
3 1 8 1.4 4
-4 -1 -8 73.69 8.5
-4 -1 -8 74.29 8
4 1 8 88.49 8.3
4 1 8 97.19 7.7
8 -2 -8 38.6 6.4
-8 2 8 44.5 5.9
7 -2 -8 12.6 4.5
-7 2 8 9.1 3.6
-7 2 8 9.9 3.8
6 -2 -8 34 4.9
-6 2 8 27.4 4
-6 2 8 22.7 4.5
5 -2 -8 34.8 4.8
4 -2 -8 42.7 5.5
-4 2 8 34.4 4.4
-4 2 8 54.79 4.8
-4 2 8 47 4.7
3 -2 -8 14.3 2.7
3 -2 -8 11.1 3.9
3 -2 -8 7.3 2.9
-3 2 8 10.9 3
-3 2 8 17.1 3.3
-3 2 8 15.3 3.1
2 -2 -8 2.7 2.4
2 -2 -8 2 3.2
-2 2 8 4.4 3
-2 2 8 3.2 3
-2 2 8 7.7 3.3
1 -2 -8 5.8 2.8
1 -2 -8 6.2 3.5
1 -2 -8 7 2.5
-1 2 8 7.2 3.3
-1 2 8 7.5 2.7
-1 2 8 5.3 3.3
0 -2 -8 166.58 9.8
0 2 8 155.58 9
0 2 8 160.58 8.9
0 2 8 164.68 9.4
-1 -2 -8 4.3 3.7
1 2 8 -1 3.1
1 2 8 3 3.3
-2 -2 -8 208.18 11.7
2 2 8 243.78 11.9
2 2 8 213.68 11.9
-3 -2 -8 57.79 7.1
3 2 8 63.59 7.2
3 2 8 78.29 8.1
8 -3 -8 28.3 5.7
-8 3 8 31.9 5.4
-8 3 8 35 5.5
7 -3 -8 0.2 3.6
-7 3 8 1.4 3.5
-7 3 8 3.6 2.8
6 -3 -8 61.79 6.7
-6 3 8 53.09 5.9
5 -3 -8 10 4
-5 3 8 9.3 2.8
-5 3 8 8.9 3.8
4 -3 -8 -2.5 2.9
-4 3 8 -1.3 2.7
-4 3 8 1.5 3
-4 3 8 0.1 2.6
3 -3 -8 11.3 3.8
-3 3 8 3.6 2.7
-3 3 8 5 3.3
-3 3 8 8.4 3.3
2 -3 -8 13.6 4.2
-2 3 8 20 4.1
-2 3 8 18.9 4.2
-2 3 8 16.9 3.6
1 -3 -8 1.7 3.5
-1 3 8 -0.7 3.1
-1 3 8 0.2 3.1
-1 3 8 3.1 2.6
0 -3 -8 32.6 5.4
0 3 8 23.2 4.4
0 3 8 27.8 5.1
0 3 8 20.5 4
-1 -3 -8 30.2 5.4
1 3 8 25.2 5.4
1 3 8 33.7 5.1
-2 -3 -8 5 4.3
2 3 8 7.6 4.5
2 3 8 6.9 4.3
7 -4 -8 3.1 3.9
-7 4 8 2.5 3.3
6 -4 -8 124.89 9.2
-6 4 8 138.89 9.1
5 -4 -8 44.3 5.9
-5 4 8 41.9 5.4
-5 4 8 46.2 6
-5 4 8 44.5 5.7
4 -4 -8 24.5 4.8
-4 4 8 28.3 4.7
-4 4 8 25.3 4.6
-4 4 8 31.6 5
3 -4 -8 6.1 3.7
-3 4 8 4.7 3.3
-3 4 8 6.2 3.9
-3 4 8 2.7 2.6
2 -4 -8 9.1 4.1
-2 4 8 12.8 4.3
-2 4 8 12 3.4
-2 4 8 4.6 3.7
1 -4 -8 9.7 4.2
-1 4 8 6.6 4
-1 4 8 5.9 3.1
-1 4 8 5 3.9
0 -4 -8 0.9 3.5
0 4 8 -4.3 4
0 4 8 1.2 3.8
-6 5 8 15.1 4.3
-6 5 8 29.2 5.3
-6 5 8 13.9 4.4
-5 5 8 0.4 3.4
-5 5 8 3.3 3.5
-5 5 8 3.9 3.3
4 -5 -8 3.4 5.9
-4 5 8 2.5 3.5
-4 5 8 4.8 2.9
-4 5 8 4.6 3.6
3 -5 -8 8.9 4.1
-3 5 8 1.1 3.7
-3 5 8 4.2 3.7
-3 5 8 1.3 3.6
2 -5 -8 24.4 5.1
-2 5 8 17.6 4.6
-2 5 8 10.2 4.8
-2 5 8 11.4 4.4
1 -5 -8 7.1 4
-1 5 8 6 3.3
-1 5 8 -0.3 4.5
-1 5 8 7.3 4.1
1 10 -9 9.3 3.3
0 10 -9 27.1 3.7
-1 10 -9 1.9 1.9
-2 10 -9 2.4 3.3
-2 10 -9 -0.8 1.4
-2 10 -9 -0.5 1.4
-3 10 -9 3.3 4.4
-3 10 -9 0.7 1.1
-3 10 -9 0.4 1.3
-4 10 -9 0.5 4.4
-4 10 -9 0.6 1.3
3 9 -9 32.5 4.8
3 9 -9 27.6 5.5
2 9 -9 13.7 3.3
2 9 -9 18.7 4.2
1 9 -9 24 4
1 9 -9 35.3 3.7
0 9 -9 2 1.8
0 9 -9 3.1 2.4
-1 9 -9 2.6 2.2
-2 9 -9 33.8 3.2
-2 9 -9 36 6.5
-3 9 -9 4.9 4.5
-3 9 -9 1.8 1.8
-4 9 -9 6.9 2
-4 9 -9 0.1 3.5
-5 9 -9 19.8 6.1
-5 9 -9 19.4 2.8
4 8 -9 25.9 5.3
4 8 -9 22.5 4.5
3 8 -9 7.4 3.5
3 8 -9 13.3 4.6
2 8 -9 8.2 3.5
2 8 -9 5.5 3
1 8 -9 3.4 3
1 8 -9 4.7 2.4
0 8 -9 83.49 5.1
0 8 -9 77.59 5.6
-1 8 -9 8.4 2
-1 8 -9 10.4 2.6
-2 8 -9 4.8 3.3
-2 8 -9 2.3 2.2
-2 8 -9 0.2 1.5
-3 8 -9 240.28 10.1
-3 8 -9 240.68 9.4
-3 8 -9 246.38 13.8
-4 8 -9 17.1 2.9
-4 8 -9 20.3 2.5
-4 8 -9 20.5 5
-5 8 -9 6.4 2.2
-5 8 -9 6.2 2.5
-5 8 -9 14.6 5.6
5 7 -9 14.9 4.5
5 7 -9 24 5.8
4 7 -9 14.2 4.6
4 7 -9 17.2 4.5
3 7 -9 33.7 5
3 7 -9 30.7 4.6
2 7 -9 -2.2 2.5
2 7 -9 2 3.2
1 7 -9 19.3 3.1
1 7 -9 17.5 3.4
0 7 -9 5 2.6
0 7 -9 7.1 2.4
-1 7 -9 1.3 1.8
-1 7 -9 0.9 2.2
-2 7 -9 84.39 5.5
-2 7 -9 85.29 7.7
-2 7 -9 90.29 5.1
-3 7 -9 210.58 12.9
-3 7 -9 182.18 8.9
-3 7 -9 202.88 8.7
-4 7 -9 41.7 7
-4 7 -9 42 4.2
-4 7 -9 37.1 3.8
-5 7 -9 1.8 2.3
-5 7 -9 4.5 2.8
-5 7 -9 3 3.8
-6 7 -9 11.2 3.1
-6 7 -9 3.2 5.5
-6 7 -9 5.6 2.8
6 6 -9 37.8 6
6 6 -9 20.9 5
5 6 -9 20.5 4.7
5 6 -9 25.9 5.4
4 6 -9 288.47 14
4 6 -9 266.87 13.1
3 6 -9 -1.6 2.6
3 6 -9 -1.3 3.1
2 6 -9 1 2.9
2 6 -9 1.8 2.6
1 6 -9 18.9 3.4
1 6 -9 25.6 4.1
0 6 -9 97.79 6
0 6 -9 105.09 6.6
-1 6 -9 0.4 2.5
-1 6 -9 3.1 2.1
-2 6 -9 1 2.1
-2 6 -9 -2.7 3.7
-2 6 -9 0.2 2.5
-3 6 -9 1.2 2.3
-3 6 -9 2.1 3.2
-3 6 -9 -0.2 2.2
-4 6 -9 -0.7 3.2
-4 6 -9 3.6 2.6
-4 6 -9 4.2 2.4
-5 6 -9 -4.2 2.4
-5 6 -9 1.5 3.6
-5 6 -9 9.8 3
-6 6 -9 4.6 3
-6 6 -9 7.5 5.6
-6 6 -9 6.6 3.1
6 5 -9 56.39 7.6
6 5 -9 43.2 5.9
5 5 -9 1 3.4
5 5 -9 6.7 4.1
4 5 -9 277.77 13.3
4 5 -9 283.77 14
-4 -5 9 291.27 12.6
3 5 -9 27.7 4.2
3 5 -9 26.5 4.6
-3 -5 9 27.5 3.6
2 5 -9 178.88 9.5
2 5 -9 169.78 8.9
1 5 -9 162.38 8.9
1 5 -9 143.39 7.9
-1 -5 9 165.08 7.6
0 5 -9 57.09 5.2
0 5 -9 62.69 5.1
0 -5 9 54.79 4.4
-1 5 -9 280.57 11.5
-1 5 -9 259.87 13.9
-1 5 -9 270.77 11.7
1 -5 9 255.57 11.1
-2 5 -9 5.1 2.6
-2 5 -9 9.8 4.3
-2 5 -9 8.8 2.9
-3 5 -9 21.6 3.7
-3 5 -9 19.4 3.4
-3 5 -9 22.6 5.4
-4 5 -9 -2.5 3
-4 5 -9 6.3 2.8
-4 5 -9 2.7 2.9
-5 5 -9 1.2 4.5
-5 5 -9 3.2 2.9
-5 5 -9 0.4 3
-6 5 -9 8.6 3.7
-6 5 -9 9.8 3.5
-6 5 -9 14.9 6.1
7 4 -9 1.2 4.2
7 4 -9 1.7 4.5
-7 -4 9 -1.1 3.6
6 4 -9 -0.3 3.9
6 4 -9 5 4.1
-6 -4 9 -2 2.9
5 4 -9 32.4 5.6
5 4 -9 27.2 4.9
-5 -4 9 33.3 4.5
4 4 -9 24 4.3
4 4 -9 24.6 4.5
-4 -4 9 24.7 3.9
3 4 -9 561.24 22.1
3 4 -9 572.34 21.8
-3 -4 9 547.95 20.9
2 4 -9 64.09 5.6
2 4 -9 64.29 6
1 4 -9 279.47 12.4
1 4 -9 287.97 12.8
-1 -4 9 295.67 11.9
0 4 -9 710.13 26.2
0 4 -9 757.32 26.7
0 -4 9 707.23 25.9
-1 4 -9 54.79 5
-1 4 -9 49.6 5.8
-1 4 -9 74.79 5.8
1 -4 9 56.79 5
-2 4 -9 25.8 4
-2 4 -9 18.5 3.4
-2 4 -9 23.3 5.2
2 -4 9 21.2 3.5
-3 4 -9 14.1 3.6
-3 4 -9 14.8 4.8
-3 4 -9 12.1 3.3
-4 4 -9 55.69 7.5
-4 4 -9 71.79 6.3
-4 4 -9 68.09 6.1
-5 4 -9 16.4 4.8
-5 4 -9 10.4 3.9
-5 4 -9 15.9 3.9
7 3 -9 4 4.4
7 3 -9 0.2 4.1
-7 -3 9 4.7 3.9
6 3 -9 4.3 3.8
6 3 -9 4.5 4.1
-6 -3 9 5 2.7
5 3 -9 54.29 6.5
5 3 -9 55.29 6.1
-5 -3 9 41.4 5.1
4 3 -9 13.1 3.4
4 3 -9 9 4
-4 -3 9 9.5 3.1
3 3 -9 8.3 3
3 3 -9 10.2 3.4
-3 -3 9 6.2 2.2
2 3 -9 8.6 2.6
2 3 -9 13.9 3.7
-2 -3 9 9 2.8
1 3 -9 11.9 3.5
1 3 -9 16.6 3.4
-1 -3 9 18.7 3.1
0 3 -9 80.89 6.3
0 3 -9 68.09 5.6
0 3 -9 77.99 7.1
0 -3 9 72.39 5.4
-1 3 -9 -1.7 2.6
-1 3 -9 7.3 2.7
-1 3 -9 2.2 3.3
1 -3 9 2.3 2.4
-2 3 -9 1.5 2.7
-2 3 -9 3.7 3.8
-2 3 -9 1.9 3
2 -3 9 0.6 2.4
-3 3 -9 11.4 3.8
-3 3 -9 14.8 3.5
-3 3 -9 8.9 3
3 -3 9 9 3.2
-4 3 -9 13.4 4
-4 3 -9 21.6 4.2
-4 3 -9 12.2 4
-5 3 -9 26.3 6.3
-5 3 -9 28.8 5
-5 3 -9 25.3 5
8 2 -9 5.7 4.8
-8 -2 9 -0.7 4
7 2 -9 29.1 5.8
-7 -2 9 26.7 4.5
6 2 -9 8.8 3.9
6 2 -9 15 4.8
-6 -2 9 8 3.7
5 2 -9 10.9 3.5
5 2 -9 7.8 3.8
-5 -2 9 5.7 3.1
4 2 -9 17.2 4.5
4 2 -9 16.8 4.1
-4 -2 9 16.2 3.6
3 2 -9 99.59 7.6
3 2 -9 95.59 7.1
2 2 -9 49.9 5.3
2 2 -9 51.89 5.6
-2 -2 9 49.9 4.9
-2 -2 9 55.19 5.6
1 2 -9 141.49 8
1 2 -9 126.89 8.2
-1 -2 9 129.99 7.4
0 2 -9 71.99 6.4
0 2 -9 66.49 6
0 2 -9 72.99 6
0 -2 9 74.59 5.7
-1 2 -9 22.3 4.1
-1 2 -9 29.3 4.8
-1 2 -9 21 4.1
1 -2 9 18.3 3.2
-2 2 -9 28.9 4.6
-2 2 -9 26.4 4.5
-2 2 -9 24.3 3.9
2 -2 9 26.1 4.4
-3 2 -9 8.1 3.8
-3 2 -9 6.2 3.4
-3 2 -9 4.8 4
3 -2 9 4.2 3.4
-4 2 -9 -2.7 3
-4 2 -9 -0.6 3.1
-4 2 -9 1.2 3.4
4 -2 9 -0.3 3.2
-5 2 -9 13.2 4.5
-5 2 -9 10.9 5.3
-5 2 -9 10.2 4.2
8 1 -9 27.4 5.9
-8 -1 9 27.4 5.5
7 1 -9 14.6 4.9
-7 -1 9 26.1 5
6 1 -9 2 3.9
6 1 -9 4.2 4.2
-6 -1 9 3 3.2
5 1 -9 11.3 3.6
5 1 -9 20.1 4.2
-5 -1 9 14 3.8
4 1 -9 33 5
4 1 -9 43.1 5.2
-4 -1 9 48.4 5.2
3 1 -9 56.39 5.6
3 1 -9 64.59 6.4
-3 -1 9 56.89 4.6
-3 -1 9 64.29 3.7
-3 -1 9 71.79 5.8
2 1 -9 11.2 3.8
2 1 -9 11.1 3.6
-2 -1 9 6.4 2.7
-2 -1 9 10 2.7
1 1 -9 52.19 5.4
1 1 -9 57.59 5.4
1 1 -9 56.49 5.8
-1 -1 9 58.19 6.5
-1 -1 9 52.99 5.3
0 1 -9 345.27 14.8
0 1 -9 308.07 14.3
0 1 -9 324.07 14.8
0 -1 9 352.76 14.6
-1 1 -9 -0.2 3.1
-1 1 -9 2 3.1
-1 1 -9 2 3.4
1 -1 9 5.4 3.2
-2 1 -9 1.7 3.4
-2 1 -9 0.1 3.1
-2 1 -9 0.9 2.6
2 -1 9 -0.2 3.3
-3 1 -9 0 3.4
-3 1 -9 -1.4 2.5
-3 1 -9 -0.4 3.7
3 -1 9 4 3.5
-4 1 -9 4 4.5
-4 1 -9 7.9 4.2
-4 1 -9 9.5 4.1
4 -1 9 5.6 4.3
8 0 -9 9.3 5
-8 0 9 9.5 4.3
7 0 -9 38.2 6
-7 0 9 39.1 5.4
6 0 -9 -0.5 2.8
-6 0 9 3.8 2.7
5 0 -9 7.4 3.9
5 0 -9 18 4.4
-5 0 9 13.8 3.7
4 0 -9 33.7 4.7
4 0 -9 35.9 5.3
3 0 -9 34.8 5
3 0 -9 33.2 4.7
-3 0 9 30.6 3.3
-3 0 9 39.1 4.2
-3 0 9 30.1 4.2
2 0 -9 246.28 11.7
2 0 -9 257.07 12
2 0 -9 241.18 11.7
-2 0 9 253.07 11.4
-2 0 9 245.58 11.7
1 0 -9 7.9 3.5
1 0 -9 11.6 3.2
1 0 -9 13.8 4.1
-1 0 9 13.7 3
-1 0 9 6.8 3.4
-1 0 9 9.3 2.5
0 0 -9 0 2.8
0 0 -9 -0.4 3.2
0 0 -9 1.6 3.2
0 0 9 0.5 3
0 0 9 2.8 2.4
-1 0 -9 304.67 14.5
-1 0 -9 353.26 15.3
-1 0 -9 326.97 14.8
1 0 9 346.77 15.2
1 0 9 310.87 14.3
-2 0 -9 3.8 3.3
-2 0 -9 9.5 3.5
-2 0 -9 12.7 4.1
2 0 9 12.2 4.2
-3 0 -9 276.77 14.5
-3 0 -9 256.27 13.4
3 0 9 280.67 14.3
8 -1 -9 0.3 4.1
-8 1 9 4.6 4
7 -1 -9 75.99 7.9
-7 1 9 65.99 7.1
6 -1 -9 0.9 3.6
-6 1 9 2.7 3.5
5 -1 -9 -1.4 3.5
4 -1 -9 5.9 3
4 -1 -9 10.7 4.6
-4 1 9 8.1 2.5
-4 1 9 -0.4 2.7
-4 1 9 4.2 3.2
3 -1 -9 126.59 8.7
3 -1 -9 146.69 9.1
-3 1 9 136.09 7
-3 1 9 135.29 7.6
-3 1 9 119.49 8.1
2 -1 -9 71.49 5.5
2 -1 -9 69.69 6.7
2 -1 -9 55.99 6.3
-2 1 9 63.89 6
-2 1 9 65.79 6.4
-2 1 9 73.19 5.2
1 -1 -9 16.9 3.3
1 -1 -9 23.1 4.7
1 -1 -9 18.6 4.3
-1 1 9 13.6 3.3
-1 1 9 20.1 5.1
-1 1 9 22.7 3.8
0 -1 -9 14.3 3.5
0 -1 -9 17.8 3.9
0 -1 -9 18 4.6
0 1 9 24.8 4.1
0 1 9 7.9 3.4
-1 -1 -9 8.8 3.3
-1 -1 -9 3.8 2.9
1 1 9 4.9 3.8
1 1 9 6.7 3
-2 -1 -9 258.47 13.6
2 1 9 250.07 13.1
-3 -1 -9 6.3 4.4
3 1 9 14.1 5.1
8 -2 -9 9.5 4.7
-8 2 9 2.9 3.9
7 -2 -9 11.1 4.5
-7 2 9 5 3.8
6 -2 -9 149.99 10.2
-6 2 9 148.89 8.7
5 -2 -9 -2.1 3.6
-5 2 9 2.4 2.6
-5 2 9 7 2.8
-5 2 9 4.2 2.5
4 -2 -9 -3.4 3
-4 2 9 -3.7 2.9
-4 2 9 -3.1 2.8
-4 2 9 3.3 2.4
3 -2 -9 -0.2 3.5
-3 2 9 2.5 3
-3 2 9 -1.9 2.3
-3 2 9 1.8 3.2
2 -2 -9 2.7 3.6
-2 2 9 -0.6 3.1
-2 2 9 1.1 2.5
-2 2 9 3.5 2.7
1 -2 -9 26.3 5.1
-1 2 9 22 4.4
-1 2 9 21.5 4.2
0 -2 -9 5.2 3.2
0 2 9 -1.8 3.5
0 2 9 6.7 3.2
-1 -2 -9 -2.6 3.6
1 2 9 -2.9 3.5
-2 -2 -9 33.7 6.2
2 2 9 43.1 6.7
7 -3 -9 65.79 7.7
-7 3 9 95.29 12
6 -3 -9 10.2 4.5
-6 3 9 10.1 3.9
5 -3 -9 3.8 4.1
-5 3 9 4.7 3.6
-5 3 9 5.4 3.6
-5 3 9 9.4 3.2
4 -3 -9 18.8 4.6
-4 3 9 10.8 3.7
-4 3 9 8.7 3.1
-4 3 9 7.1 3.7
3 -3 -9 21.2 4.8
-3 3 9 23.7 4.7
-3 3 9 14.4 4
-3 3 9 15.9 4.2
2 -3 -9 2.3 3
-2 3 9 -3 3.2
-2 3 9 4 3.7
-2 3 9 -2.3 3
1 -3 -9 4.4 3.9
-1 3 9 2.5 3.5
-1 3 9 -3.5 3.7
0 -3 -9 34.1 5.9
0 3 9 33.9 5.3
0 3 9 28.8 5.6
6 -4 -9 65.19 7.5
-6 4 9 62.09 7
-6 4 9 64.59 6.5
-6 4 9 79.49 7
5 -4 -9 15.7 4.7
-5 4 9 17.8 3.8
-5 4 9 18.4 4.4
-5 4 9 15.9 4.6
4 -4 -9 1.2 3.3
-4 4 9 -4.7 3.1
-4 4 9 -0.1 2.7
-4 4 9 1.8 3.2
3 -4 -9 20.9 5
-3 4 9 24.6 5.4
-3 4 9 22.4 5.2
-3 4 9 16.7 4.6
2 -4 -9 45.2 6.4
-2 4 9 36.3 6.1
-2 4 9 39.9 5.7
1 -4 -9 3.1 4.1
-1 4 9 -6.9 3.5
-1 4 9 -5.2 3.8
0 10 -10 11.8 3.1
-1 10 -10 25.2 3.2
-2 10 -10 25.4 3
-2 10 -10 29.9 5.9
-3 10 -10 2.4 1.8
-3 10 -10 6.9 5.1
2 9 -10 5.5 2.9
2 9 -10 6.9 3.7
1 9 -10 130.69 8.1
1 9 -10 123.19 7.1
0 9 -10 6.8 2.9
0 9 -10 4.8 2.2
-1 9 -10 11.6 2.9
-1 9 -10 13 2.2
-2 9 -10 42.4 3.9
-2 9 -10 43.2 7.2
-3 9 -10 1.9 2.2
-3 9 -10 3.9 3.8
-4 9 -10 51.09 8
-4 9 -10 57.29 4.5
3 8 -10 1.8 3.7
3 8 -10 1.9 3.2
2 8 -10 -3.1 2.3
2 8 -10 -0.6 3.4
1 8 -10 45.8 5.1
1 8 -10 47.8 4.6
0 8 -10 3 2.3
0 8 -10 2.4 2.7
-1 8 -10 37.4 3.6
-1 8 -10 31.9 3.9
-2 8 -10 77.09 5.5
-2 8 -10 85.79 8.8
-3 8 -10 37.1 4.1
-3 8 -10 39.3 6.3
-4 8 -10 10.7 5.4
-4 8 -10 9.7 2.4
-4 8 -10 9.9 2.7
-5 8 -10 0.1 2.1
-5 8 -10 -2.9 5
4 7 -10 1 3.4
4 7 -10 1.3 3.6
3 7 -10 23.1 4.2
3 7 -10 30.3 5
2 7 -10 19.6 3.7
2 7 -10 18.7 4.5
1 7 -10 2.8 2.7
1 7 -10 1.6 2.6
0 7 -10 3.5 2.6
0 7 -10 5.2 3
-1 7 -10 43.4 4.5
-1 7 -10 44.2 4.2
-2 7 -10 -0.7 4.2
-2 7 -10 0.9 2.5
-2 7 -10 -0.1 2.2
-3 7 -10 222.68 10.3
-3 7 -10 246.68 10.9
-3 7 -10 254.87 15
-4 7 -10 7.5 2.8
-4 7 -10 6 4.2
-4 7 -10 8.4 3.1
-5 7 -10 -0.2 2.3
-5 7 -10 2.5 5.1
-5 7 -10 -5.1 2.6
5 6 -10 138.09 10
5 6 -10 128.99 9.4
4 6 -10 26.5 5.1
4 6 -10 21.9 4.7
3 6 -10 65.89 6.4
3 6 -10 61.29 6.5
2 6 -10 3.3 2.9
2 6 -10 -4.5 2.8
1 6 -10 24.4 4.4
1 6 -10 27.7 4
0 6 -10 142.19 8.2
0 6 -10 149.79 8
-1 6 -10 113.69 6.9
-1 6 -10 126.69 10.1
-1 6 -10 114.49 7.1
-2 6 -10 138.89 7.9
-2 6 -10 140.19 7.7
-2 6 -10 155.78 11.1
-3 6 -10 366.86 18.2
-3 6 -10 366.96 15
-3 6 -10 366.86 15.4
-4 6 -10 15.7 3.7
-4 6 -10 20.3 3.7
-4 6 -10 16.1 5.8
-5 6 -10 5.4 3.6
-5 6 -10 3.8 5.5
-5 6 -10 6.3 3.1
6 5 -10 6 4.7
6 5 -10 4.1 4
5 5 -10 -1 2.8
5 5 -10 5 3.6
4 5 -10 106.59 8.6
4 5 -10 105.09 8
3 5 -10 28.2 4.9
3 5 -10 20 4.2
2 5 -10 -1.8 2.7
2 5 -10 4.7 3.3
1 5 -10 185.98 9.9
1 5 -10 184.98 9.4
0 5 -10 12.7 3.6
0 5 -10 6.1 2.9
-1 5 -10 276.97 14.3
-1 5 -10 235.08 11.5
-1 5 -10 238.38 11.3
-2 5 -10 334.57 14.7
-2 5 -10 337.67 17.3
-2 5 -10 358.76 14.6
-3 5 -10 12.6 3.9
-3 5 -10 20.2 3.8
-3 5 -10 19.1 4.8
-4 5 -10 33.5 4.8
-4 5 -10 29.2 6.6
-4 5 -10 37.7 4.9
-5 5 -10 6.2 5.3
-5 5 -10 5.9 3.6
-5 5 -10 2 3.1
6 4 -10 8.5 4.7
6 4 -10 -0.6 3.9
-6 -4 10 -1.8 3.4
5 4 -10 -1.6 3.6
5 4 -10 3.9 3.5
-5 -4 10 5.8 3.1
4 4 -10 21.2 5.1
4 4 -10 24.9 4.6
-4 -4 10 23.9 4.1
3 4 -10 -0.1 3.5
3 4 -10 7.6 3.3
2 4 -10 50.79 5.8
2 4 -10 41.7 5
-2 -4 10 43.1 4.6
1 4 -10 8.3 3.2
1 4 -10 8.8 3.5
-1 -4 10 5.6 2.6
0 4 -10 29.5 4.1
0 4 -10 26.3 4.6
0 4 -10 23.7 4.1
0 -4 10 33.1 4.2
-1 4 -10 57.39 6.9
-1 4 -10 64.19 5.7
-1 4 -10 54.19 5.6
1 -4 10 56.39 5.2
-2 4 -10 2.5 3.1
-2 4 -10 6.7 3.4
-2 4 -10 5 3.1
-3 4 -10 16.1 4.1
-3 4 -10 9.1 4.8
-3 4 -10 17.1 3.8
-4 4 -10 5.7 3.6
-4 4 -10 0.7 4.4
-4 4 -10 -6.4 2.3
7 3 -10 34.6 6.2
-7 -3 10 35.6 5.8
6 3 -10 11.8 5.1
6 3 -10 6.7 4.2
-6 -3 10 4.8 3.5
5 3 -10 5.3 4.1
5 3 -10 20.1 5.1
-5 -3 10 14.9 3.9
4 3 -10 45.2 5.7
4 3 -10 52.09 5.9
-4 -3 10 49.8 5.3
3 3 -10 6.7 3.9
3 3 -10 -0.9 2.9
2 3 -10 5.6 3.6
2 3 -10 6.9 3.1
-2 -3 10 6.7 3
1 3 -10 28.7 4.7
1 3 -10 20.1 4.1
-1 -3 10 32.1 4.1
0 3 -10 0.5 2.8
0 3 -10 0.4 3.1
0 3 -10 2.7 3.6
0 -3 10 4.8 2.6
-1 3 -10 -1.9 2.8
-1 3 -10 1.9 3.2
-1 3 -10 1 3.7
1 -3 10 0.6 2.4
-2 3 -10 11 3.7
-2 3 -10 5.6 3.1
-2 3 -10 9.8 3.1
2 -3 10 -0.3 2.9
-3 3 -10 10.5 3.9
-3 3 -10 5.8 3.6
-3 3 -10 2.5 4.1
-4 3 -10 4.9 4.7
-4 3 -10 8.7 3.8
-4 3 -10 9.8 4
7 2 -10 2 4.4
-7 -2 10 2.7 2.9
6 2 -10 4.5 4.1
6 2 -10 2.3 3.4
-6 -2 10 -1.3 2.9
5 2 -10 5.5 3.8
5 2 -10 6.3 3.5
-5 -2 10 -1.5 3
4 2 -10 38.3 5.7
4 2 -10 35.5 5.1
3 2 -10 24.4 4.4
3 2 -10 29.7 5
-3 -2 10 22.5 4
2 2 -10 2.3 3.1
2 2 -10 6.6 3.7
-2 -2 10 1.8 2.7
1 2 -10 228.98 11.1
1 2 -10 231.88 11.5
1 2 -10 191.78 11.2
-1 -2 10 197.78 10.4
0 2 -10 -2.9 2.1
0 2 -10 1.7 3.1
0 2 -10 2.7 3.1
0 -2 10 -5.7 2.3
-1 2 -10 9.7 3.9
-1 2 -10 3.7 3.6
-1 2 -10 4.7 3.6
1 -2 10 4.9 2.5
-2 2 -10 5.8 3.2
-2 2 -10 0 3.6
-2 2 -10 2 3.6
2 -2 10 -3.3 2.9
-3 2 -10 7 4.3
-3 2 -10 5 3.1
-3 2 -10 3.7 3.6
3 -2 10 10.3 4.2
-4 2 -10 -1.4 2.7
-4 2 -10 6.4 3.9
-4 2 -10 2.3 4.4
7 1 -10 23.4 5.5
-7 -1 10 24.5 5.1
6 1 -10 6.2 4.1
-6 -1 10 3.8 3.6
5 1 -10 6.8 3.1
5 1 -10 6.4 3.5
-5 -1 10 3.1 3.5
4 1 -10 3.9 2.9
4 1 -10 0 2.6
3 1 -10 13.6 4.2
3 1 -10 20.8 4.6
-3 -1 10 5.7 3.2
2 1 -10 51.29 5.6
2 1 -10 50.09 5.8
-2 -1 10 48.2 5.4
1 1 -10 40.1 5.5
1 1 -10 38.6 5.2
1 1 -10 41.1 5.4
-1 -1 10 37.3 5
0 1 -10 12.8 3.4
0 1 -10 16.8 4
0 1 -10 22.5 4.7
0 -1 10 17.9 4
-1 1 -10 22.7 4.5
-1 1 -10 15.6 4.6
-1 1 -10 19.6 4.4
1 -1 10 13.3 4
-2 1 -10 2 3.7
-2 1 -10 -2.4 3.3
-2 1 -10 1.6 3.8
2 -1 10 7.1 3.9
-3 1 -10 84.39 8
-3 1 -10 80.89 8.5
-3 1 -10 81.09 7.9
3 -1 10 79.29 8.1
7 0 -10 2.4 4.3
-7 0 10 -0.1 3.8
6 0 -10 5.6 3.9
-6 0 10 -0.1 2.5
5 0 -10 17.1 4.9
4 0 -10 33.1 5.5
4 0 -10 26.5 4.6
-4 0 10 29.7 4.8
3 0 -10 6.9 3.9
3 0 -10 -0.5 3.3
-3 0 10 -1.7 3
2 0 -10 1.6 2.4
2 0 -10 0.8 2.7
2 0 -10 -0.2 2.7
-2 0 10 -4.2 2.9
1 0 -10 86.49 7
1 0 -10 95.09 7.3
1 0 -10 92.39 7.2
-1 0 10 96.29 7.5
0 0 -10 87.99 7.5
0 0 -10 100.09 7.4
0 0 -10 95.59 7.4
0 0 10 120.79 8.4
-1 0 -10 15.7 4.1
-1 0 -10 12.2 5.1
-1 0 -10 11.5 3.8
1 0 10 6 4.2
-2 0 -10 4.2 4.2
-2 0 -10 1.5 3.7
2 0 10 6.8 4.2
7 -1 -10 103.29 9.2
-7 1 10 68.99 7.4
6 -1 -10 14.1 4.9
5 -1 -10 9.1 4.3
-5 1 10 5.1 3
4 -1 -10 1.3 3.7
-4 1 10 4.2 3.3
3 -1 -10 4.5 3.8
-3 1 10 -0.2 3.1
2 -1 -10 0 3.5
-2 1 10 2.1 3.4
1 -1 -10 7.6 4.1
-1 1 10 3.1 3.8
0 -1 -10 37.1 5.4
0 1 10 58.79 6.7
-1 -1 -10 12.8 4.7
1 1 10 11.7 4
7 -2 -10 76.79 8.5
6 -2 -10 22.7 5.5
-6 2 10 22.3 5.1
5 -2 -10 29.5 5.2
-5 2 10 39 5.8
4 -2 -10 5.7 3.3
-4 2 10 2.7 3.7
3 -2 -10 0.1 3.5
-3 2 10 1.6 3.4
2 -2 -10 -0.4 2.9
-2 2 10 -1.2 3.5
1 -2 -10 8.5 4.5
-1 2 10 -2.5 3.5
0 -2 -10 33.7 5.5
0 2 10 34.5 5.6
6 -3 -10 176.08 11.1
-6 3 10 198.28 11.6
5 -3 -10 25.8 5.7
-5 3 10 32 5.5
4 -3 -10 133.09 9.7
-4 3 10 111.39 9
3 -3 -10 118.09 8.7
-3 3 10 111.29 9.1
2 -3 -10 -6.8 3.9
-2 3 10 -0.5 3.1
1 9 -11 11.9 3.8
1 9 -11 8.7 3.1
0 9 -11 6.8 2.9
0 9 -11 3.1 2.3
-1 9 -11 3.6 2.7
-1 9 -11 7.6 2.3
-2 9 -11 73.39 5.6
-2 9 -11 68.49 9.1
-3 9 -11 3.2 4.1
3 8 -11 8.4 3.6
3 8 -11 -1.2 4.1
2 8 -11 28.7 4.4
2 8 -11 21 4.7
1 8 -11 29.6 4.2
1 8 -11 23.7 4.2
0 8 -11 -0.8 2.4
0 8 -11 -3.2 2.3
-1 8 -11 10.2 2.9
-1 8 -11 8.9 2.7
-1 8 -11 13.9 4.7
-2 8 -11 37.9 7.2
-2 8 -11 45.6 4.2
-2 8 -11 39.7 4.5
-3 8 -11 2.4 2.8
-3 8 -11 0.1 3.7
-3 8 -11 1.5 2.3
4 7 -11 50.49 6.8
4 7 -11 53.89 6.4
3 7 -11 45.4 6.3
3 7 -11 58.69 6.2
2 7 -11 7.3 3.5
2 7 -11 1.2 3.8
1 7 -11 22.2 4.5
1 7 -11 17.9 3.8
0 7 -11 6 2.9
0 7 -11 9.2 3.7
-1 7 -11 14.4 3.7
-1 7 -11 11 3.2
-1 7 -11 21.4 5.2
-2 7 -11 277.37 12.4
-2 7 -11 278.67 16.1
-2 7 -11 262.27 11.8
-3 7 -11 111.29 11.3
-3 7 -11 124.29 8
-3 7 -11 123.69 7.3
-4 7 -11 8 3.1
-4 7 -11 10.5 4.9
-4 7 -11 8.6 3.3
5 6 -11 -0.3 3.7
5 6 -11 1.8 4.5
4 6 -11 268.87 14.1
4 6 -11 249.68 13.1
3 6 -11 0.9 3.6
3 6 -11 3.3 3.3
2 6 -11 15.9 4.1
2 6 -11 12.3 3.7
1 6 -11 67.19 6.3
1 6 -11 55.69 5.6
0 6 -11 -1.1 3.1
0 6 -11 1.8 2.9
-1 6 -11 135.89 8
-1 6 -11 150.38 8.7
-1 6 -11 149.59 11.3
-2 6 -11 42.1 5
-2 6 -11 54.79 5.4
-2 6 -11 49.1 7.4
-3 6 -11 160.58 9.4
-3 6 -11 178.28 9.5
-3 6 -11 169.68 11.9
-4 6 -11 22.1 4
-4 6 -11 24.3 4.5
-4 6 -11 14.6 6
5 5 -11 1.1 4.2
5 5 -11 -1.7 3.6
4 5 -11 2 4.1
4 5 -11 1.7 3.4
3 5 -11 8.7 4.1
3 5 -11 6.7 3.3
2 5 -11 7.2 3.6
2 5 -11 -0.7 3
1 5 -11 54.89 5.9
1 5 -11 54.09 5.6
0 5 -11 6.7 3.3
0 5 -11 4.8 3.4
0 5 -11 0.4 2.7
-1 5 -11 14.4 3.6
-1 5 -11 16.5 4.4
-1 5 -11 15 4.1
-2 5 -11 3.6 2.9
-2 5 -11 3.7 3.7
-2 5 -11 5.2 4.5
-3 5 -11 6.6 4
-3 5 -11 5.1 3.5
-3 5 -11 2.4 3.3
-4 5 -11 16.5 5.9
-4 5 -11 26.2 4.5
-4 5 -11 16.5 4
6 4 -11 21.2 5.9
6 4 -11 27.9 5.7
5 4 -11 8.5 4.2
5 4 -11 0.8 4.4
4 4 -11 5.9 3.7
4 4 -11 2.9 4.2
-4 -4 11 1.2 3
3 4 -11 21.9 4.5
3 4 -11 17.4 4.6
-3 -4 11 26.9 4.3
2 4 -11 21.4 4.6
2 4 -11 12.8 3.8
-2 -4 11 9.8 3.2
1 4 -11 3.9 3.2
1 4 -11 -1.8 3.3
-1 -4 11 -1.9 2.3
0 4 -11 7.9 3.3
0 4 -11 12.4 3.9
0 4 -11 5.1 4.1
-1 4 -11 2.6 3.2
-1 4 -11 14.9 5
-1 4 -11 2.5 3.4
-2 4 -11 -3.5 3.4
-2 4 -11 0.3 3
-2 4 -11 4 4.6
-3 4 -11 18.7 4.6
-3 4 -11 19.3 4.5
-3 4 -11 16.5 5.6
6 3 -11 61.59 7.4
6 3 -11 69.39 8.3
-6 -3 11 55.19 6.6
5 3 -11 36.2 5.9
5 3 -11 40 6.5
-5 -3 11 41.3 5.5
4 3 -11 11.8 4.3
4 3 -11 19.7 5.1
3 3 -11 20.9 4.6
3 3 -11 18.8 5
-3 -3 11 24.2 4.2
2 3 -11 24.5 4.4
2 3 -11 26 4.8
-2 -3 11 24.7 4.2
1 3 -11 8.4 4.1
1 3 -11 13 3.9
1 3 -11 7.1 3.8
-1 -3 11 3 2.9
0 3 -11 7.1 3.9
0 3 -11 0.2 3.6
0 3 -11 -2.5 2.7
0 -3 11 -0.9 2.8
-1 3 -11 -0.7 3.5
-1 3 -11 5.3 4.2
-1 3 -11 0.9 3.3
1 -3 11 1.6 3.1
-2 3 -11 6 3.5
-2 3 -11 1.3 2.8
-2 3 -11 -1.4 3.9
-3 3 -11 9.8 4.3
-3 3 -11 6.9 4
-3 3 -11 8.4 5.1
6 2 -11 11.9 4.5
-6 -2 11 18.9 4.7
5 2 -11 20.7 5.1
5 2 -11 14.7 4.3
4 2 -11 51.79 6.6
4 2 -11 61.29 7.1
-4 -2 11 59.39 6.3
3 2 -11 1.2 2.9
3 2 -11 2.2 3.6
-3 -2 11 1.4 3.1
2 2 -11 3.2 3.9
2 2 -11 -2.5 3.4
-2 -2 11 -2.3 2.9
1 2 -11 4.6 3.7
1 2 -11 4.6 3.9
1 2 -11 8 3.8
-1 -2 11 7.2 3.5
0 2 -11 205.68 11.4
0 2 -11 200.88 11.8
0 2 -11 209.78 12.2
0 -2 11 226.18 11.4
-1 2 -11 36.8 5.5
-1 2 -11 39.6 5.7
-1 2 -11 28.4 5.4
1 -2 11 32.8 5.1
-2 2 -11 45.9 6.1
-2 2 -11 52.19 7.1
-2 2 -11 51.69 6.7
2 -2 11 50.69 7.4
6 1 -11 8.2 4.4
-6 -1 11 13 4.5
5 1 -11 -1.9 3.8
4 1 -11 37.7 5.9
4 1 -11 34.2 6
-4 -1 11 33.1 5.2
3 1 -11 55.49 6.3
3 1 -11 51.39 6.7
-3 -1 11 51.59 6
2 1 -11 48.8 5.9
2 1 -11 61.39 6.7
2 1 -11 52.09 6.5
-2 -1 11 56.29 6.2
1 1 -11 126.19 9
1 1 -11 135.99 9.5
1 1 -11 155.38 9.4
-1 -1 11 143.39 9.2
0 1 -11 30.2 5.5
0 1 -11 16.8 4.4
0 1 -11 20.4 4.4
0 -1 11 23.9 4.8
-1 1 -11 61.79 7.1
-1 1 -11 56.99 6.7
-1 1 -11 71.39 7.5
1 -1 11 62.09 7
-2 1 -11 2.9 3.8
-2 1 -11 3.6 4.1
2 -1 11 4 3.4
6 0 -11 3.4 4.5
5 0 -11 -0.2 3
-5 0 11 -1.8 3.4
4 0 -11 -0.8 2.8
-4 0 11 3.4 3.4
3 0 -11 9 4.1
-3 0 11 8.4 3.9
2 0 -11 -0.9 3.3
-2 0 11 1.8 3.6
1 0 -11 47.2 6.4
-1 0 11 52.29 6.1
0 0 -11 88.59 8.4
0 0 11 93.89 8.4
-1 0 -11 29.3 5.1
1 0 11 18.5 5.5
6 -1 -11 0.2 3.3
-6 1 11 8.8 4.3
5 -1 -11 -2.2 4
-5 1 11 -4.3 3.4
4 -1 -11 -5.3 3.8
-4 1 11 2.9 3.7
3 -1 -11 13.4 4.8
-3 1 11 8.5 4.2
2 -1 -11 1.7 4
-2 1 11 -1.4 3.6
1 -1 -11 38.1 6.4
-1 1 11 45.7 6.5
4 -2 -11 103.49 8.4
-4 2 11 100.89 9
3 -2 -11 6.3 4.5
-3 2 11 4.5 3.3
1 8 -12 42.7 5.3
1 8 -12 44.1 5.2
0 8 -12 1.1 2.5
0 8 -12 -1.1 2.8
-1 8 -12 14.9 5.9
-1 8 -12 14.6 3.8
-1 8 -12 6 3
-2 8 -12 15.2 6.1
3 7 -12 9.8 4.4
3 7 -12 4.2 3.5
2 7 -12 58.09 6.5
2 7 -12 65.59 6.4
1 7 -12 14.5 3.7
1 7 -12 7.3 3.5
0 7 -12 22.2 4.6
0 7 -12 29.7 4.2
-1 7 -12 13.2 5.6
-1 7 -12 19.6 3.9
-1 7 -12 18 4.2
-2 7 -12 26.1 4.3
-2 7 -12 24.6 5.5
-2 7 -12 23.2 4.4
4 6 -12 22.3 5.4
4 6 -12 18.9 4.7
3 6 -12 -0.9 3.9
3 6 -12 -2.1 3.3
2 6 -12 14.7 4.1
2 6 -12 12.5 4.4
1 6 -12 2.9 3.2
1 6 -12 2.6 3.9
0 6 -12 50.29 7.7
0 6 -12 54.19 5.6
0 6 -12 60.19 6.3
-1 6 -12 -5.7 2.9
-1 6 -12 2.3 3.4
-1 6 -12 -0.2 3
-2 6 -12 8.2 5.5
-2 6 -12 8.1 4
-2 6 -12 6 3.5
4 5 -12 3.1 3.6
4 5 -12 5.7 4.4
3 5 -12 -4.3 3
3 5 -12 -0.7 3.8
2 5 -12 -0.6 3.5
2 5 -12 -2.7 3.1
1 5 -12 14.9 3.9
1 5 -12 16.3 4.3
0 5 -12 -4 2.7
0 5 -12 0.6 3.3
0 5 -12 2.8 3.6
-1 5 -12 2.7 3.3
-1 5 -12 7.4 3.8
-1 5 -12 7.3 3.9
-2 5 -12 14.5 3.9
-2 5 -12 9.2 4
-2 5 -12 16 5.6
5 4 -12 8.4 5
5 4 -12 6.9 4.2
4 4 -12 0.6 3.8
4 4 -12 9.2 4.7
3 4 -12 -4.8 3.2
3 4 -12 2.3 4
2 4 -12 -0.5 3.3
2 4 -12 7.4 4.2
1 4 -12 4.9 3.3
1 4 -12 -4.1 3.4
1 4 -12 -0.4 3.3
0 4 -12 -0.1 3.5
0 4 -12 2.1 4
0 4 -12 -1.7 3.1
-1 4 -12 7.9 4
-1 4 -12 8.6 3.9
-1 4 -12 4.8 4.6
-2 4 -12 17.8 4.4
-2 4 -12 15.8 5.5
-2 4 -12 16.3 4.7
5 3 -12 26 5.7
5 3 -12 26.6 6.2
4 3 -12 85.89 8.1
4 3 -12 71.79 7.6
-4 -3 12 83.19 7.6
3 3 -12 -1.1 2.8
3 3 -12 6.2 4
-3 -3 12 1.4 3.4
2 3 -12 9.4 3.9
2 3 -12 16.9 4.8
-2 -3 12 8.8 3.7
1 3 -12 114.19 9.2
1 3 -12 133.19 10.1
1 3 -12 126.39 8.8
-1 -3 12 109.49 12.5
0 3 -12 0.5 3.7
0 3 -12 5.5 4.2
0 3 -12 6.4 3.8
-1 3 -12 2.6 4
-1 3 -12 7.1 3.9
-1 3 -12 11.8 4.8
5 2 -12 1.2 4.4
-5 -2 12 0.5 2.8
4 2 -12 5.3 3.5
4 2 -12 8.5 4.9
-4 -2 12 3.1 3.5
3 2 -12 10.8 4.9
3 2 -12 8.8 4.4
-3 -2 12 11.6 3.9
2 2 -12 26.4 5.2
2 2 -12 22.2 5.3
2 2 -12 11.4 4.4
-2 -2 12 16.9 4.4
1 2 -12 35.9 5.8
1 2 -12 51.89 6.9
1 2 -12 57.29 7.1
-1 -2 12 36.7 5.5
0 2 -12 3.3 4
0 2 -12 0.8 4.1
0 2 -12 -3 3.5
0 -2 12 4.7 3.8
-1 2 -12 -2.9 2.9
-1 2 -12 5.1 3.9
-1 2 -12 1.6 4.1
5 1 -12 8 4.7
-5 -1 12 1 3.8
4 1 -12 -0.2 3.8
-4 -1 12 -1.7 3.5
3 1 -12 11.9 4.7
-3 -1 12 2.9 3.6
2 1 -12 7.1 4.1
-2 -1 12 4.6 3.6
1 1 -12 13.6 4.6
-1 -1 12 5.2 3.2
0 1 -12 26.7 5.4
0 -1 12 22.3 5.1
4 0 -12 2.1 4.3
-4 0 12 2.3 4
3 0 -12 2.6 4.2
-3 0 12 -2.3 3.9
2 0 -12 2.9 4.3
-2 0 12 -1.7 3.5
1 6 -13 8.1 4
1 6 -13 7.3 3.8
0 6 -13 -0.9 4.7
2 5 -13 -2 3.3
2 5 -13 6.6 4.4
1 5 -13 6.9 4.8
1 5 -13 4.2 3.7
1 5 -13 7.8 4.2
0 5 -13 1.4 3.4
0 5 -13 -1 3.5
0 5 -13 -0.6 3.8
3 4 -13 10.4 4.2
3 4 -13 10 5
2 4 -13 135.19 10.2
2 4 -13 135.89 9.6
1 4 -13 7.7 3.7
1 4 -13 1.8 4.4
1 4 -13 2.4 4.1
0 4 -13 13.1 5.2
3 3 -13 -4.4 3.7
3 3 -13 1.9 4.7
2 3 -13 140.79 9.7
2 3 -13 148.29 10.9
2 3 -13 135.99 10.4
1 3 -13 11.7 4.6
loop_
_geom_angle_atom_site_label_1
_geom_angle_atom_site_label_2
_geom_angle_atom_site_label_3
_geom_angle
_geom_angle_site_symmetry_1
_geom_angle_site_symmetry_3
_geom_angle_publ_flag
B00J O001 C00A 118.44(10) . . ?
B00J O002 C004 125.98(11) . . ?
C008 N003 C007 118.49(12) . . ?
B00J N003 C007 122.28(12) . . ?
B00J N003 C008 119.22(10) . . ?
C006 C004 O002 120.76(13) . . ?
C00F C004 O002 119.95(13) . . ?
C00F C004 C006 119.24(13) . . ?
C00B C005 C009 116.49(13) . . ?
B00J C005 C009 123.28(13) . . ?
B00J C005 C00B 120.19(12) . . ?
C007 C006 C004 119.01(12) . . ?
C00D C006 C004 120.04(14) . . ?
C00D C006 C007 120.89(14) . . ?
C006 C007 N003 123.00(13) . . ?
H007 C007 N003 118.50(8) . . ?
H007 C007 C006 118.50(8) . . ?
H00a C008 N003 108.98(7) . . ?
H00b C008 N003 108.98(7) . . ?
H00b C008 H00a 107.8 . . ?
C00A C008 N003 113.00(11) 2_665 . ?
C00A C008 H00a 108.98(7) 2_665 . ?
C00A C008 H00b 108.98(7) 2_665 . ?
H009 C009 C005 118.94(8) . . ?
C00G C009 C005 122.11(14) . . ?
C00G C009 H009 118.94(9) . . ?
C008 C00A O001 109.06(11) 2_665 . ?
H00c C00A O001 109.87(7) . . ?
H00c C00A C008 109.87(7) . 2_665 ?
H00d C00A O001 109.87(7) . . ?
H00d C00A C008 109.87(7) . 2_665 ?
H00d C00A H00c 108.3 . . ?
H00e C00B C005 118.87(8) . . ?
C00E C00B C005 122.25(14) . . ?
C00E C00B H00e 118.87(9) . . ?
C00E C00C H00f 120.18(9) . . ?
C00G C00C H00f 120.18(9) . . ?
C00G C00C C00E 119.65(13) . . ?
H00g C00D C006 119.85(10) . . ?
C00H C00D C006 120.29(15) . . ?
C00H C00D H00g 119.85(9) . . ?
C00C C00E C00B 119.73(14) . . ?
H00h C00E C00B 120.13(9) . . ?
H00h C00E C00C 120.13(9) . . ?
H00i C00F C004 120.38(9) . . ?
C00I C00F C004 119.24(15) . . ?
C00I C00F H00i 120.38(10) . . ?
C00C C00G C009 119.74(14) . . ?
H00j C00G C009 120.13(9) . . ?
H00j C00G C00C 120.13(9) . . ?
H00k C00H C00D 120.29(10) . . ?
C00I C00H C00D 119.41(14) . . ?
C00I C00H H00k 120.29(9) . . ?
C00H C00I C00F 121.76(15) . . ?
H00l C00I C00F 119.12(10) . . ?
H00l C00I C00H 119.12(9) . . ?
O002 B00J O001 111.61(12) . . ?
N003 B00J O001 109.16(11) . . ?
N003 B00J O002 106.75(10) . . ?
C005 B00J O001 111.38(11) . . ?
C005 B00J O002 109.51(11) . . ?
C005 B00J N003 108.27(11) . . ?
loop_
_geom_bond_atom_site_label_1
_geom_bond_atom_site_label_2
_geom_bond_distance
_geom_bond_site_symmetry_2
_geom_bond_publ_flag
O001 C00A 1.4184(16) . ?
O001 B00J 1.4396(18) . ?
O002 C004 1.3336(16) . ?
O002 B00J 1.4958(18) . ?
N003 C007 1.2893(17) . ?
N003 C008 1.4770(18) . ?
N003 B00J 1.6298(19) . ?
C004 C006 1.407(2) . ?
C004 C00F 1.398(2) . ?
C005 C009 1.3879(19) . ?
C005 C00B 1.401(2) . ?
C005 B00J 1.610(2) . ?
C006 C007 1.430(2) . ?
C006 C00D 1.4086(19) . ?
C007 H007 0.9500 . ?
C008 H00a 0.9900 . ?
C008 H00b 0.9900 . ?
C008 C00A 1.514(2) 2_665 ?
C009 H009 0.9500 . ?
C009 C00G 1.398(2) . ?
C00A H00c 0.9900 . ?
C00A H00d 0.9900 . ?
C00B H00e 0.9500 . ?
C00B C00E 1.393(2) . ?
C00C H00f 0.9500 . ?
C00C C00E 1.380(2) . ?
C00C C00G 1.387(2) . ?
C00D H00g 0.9500 . ?
C00D C00H 1.374(2) . ?
C00E H00h 0.9500 . ?
C00F H00i 0.9500 . ?
C00F C00I 1.393(2) . ?
C00G H00j 0.9500 . ?
C00H H00k 0.9500 . ?
C00H C00I 1.387(3) . ?
C00I H00l 0.9500 . ?
loop_
_geom_torsion_atom_site_label_1
_geom_torsion_atom_site_label_2
_geom_torsion_atom_site_label_3
_geom_torsion_atom_site_label_4
_geom_torsion
_geom_torsion_site_symmetry_1
_geom_torsion_site_symmetry_2
_geom_torsion_site_symmetry_3
_geom_torsion_site_symmetry_4
_geom_torsion_publ_flag
O001 C00A C008 N003 -58.11(12) . . 2_665 2_665 ?
O001 B00J O002 C004 -101.44(12) . . . . ?
O001 B00J N003 C007 108.00(12) . . . . ?
O001 B00J N003 C008 -70.72(13) . . . . ?
O001 B00J C005 C009 9.26(15) . . . . ?
O001 B00J C005 C00B -172.94(11) . . . . ?
O002 C004 C006 C007 0.75(15) . . . . ?
O002 C004 C006 C00D -176.52(12) . . . . ?
O002 C004 C00F C00I 176.47(13) . . . . ?
O002 B00J N003 C007 -12.78(14) . . . . ?
O002 B00J N003 C008 168.50(10) . . . . ?
O002 B00J C005 C009 133.20(12) . . . . ?
O002 B00J C005 C00B -49.00(14) . . . . ?
N003 C007 C006 C004 3.53(16) . . . . ?
N003 C007 C006 C00D -179.23(13) . . . . ?
N003 B00J C005 C009 -110.76(12) . . . . ?
N003 B00J C005 C00B 67.04(13) . . . . ?
C004 C006 C00D C00H -0.09(16) . . . . ?
C004 C00F C00I C00H 0.25(17) . . . . ?
C005 C009 C00G C00C -1.45(18) . . . . ?
C005 C00B C00E C00C -0.23(18) . . . . ?
C006 C00D C00H C00I -0.71(17) . . . . ?
C009 C00G C00C C00E 1.65(18) . . . . ?
C00B C00E C00C C00G -0.84(18) . . . . ?
C00D C00H C00I C00F 0.64(17) . . . . ?
