#------------------------------------------------------------------------------
#$Date: 2022-04-12 02:20:05 +0300 (Tue, 12 Apr 2022) $
#$Revision: 274464 $
#$URL: file:///home/coder/svn-repositories/cod/cif/7/71/00/7710001.cif $
#------------------------------------------------------------------------------
#
# This file is available in the Crystallography Open Database (COD),
# http://www.crystallography.net/
#
# All data on this site have been placed in the public domain by the
# contributors.
#
data_7710001
loop_
_publ_author_name
'Jiang, Lin-Tao'
'Li, Ming-Ze'
'Jiang, Xiao-Ming'
'Liu, Bin-Wen'
'Guo, Guo-Cong'
_publ_section_title
;
 AIn4S6Cl (A = Rb and Cs) and Pb5Sn3Q10Cl2 (Q = S and Se): quaternary
 chalcohalides with mixed anionic coordination exhibit photocurrent
 responses
;
_journal_name_full               'Dalton Transactions'
_journal_paper_doi               10.1039/D2DT00350C
_journal_year                    2022
_chemical_formula_moiety         'Cl2 Cs2 In8 S12'
_chemical_formula_sum            'Cl2 Cs2 In8 S12'
_chemical_formula_weight         1640.00
_chemical_melting_point          ?
_chemical_name_common            CsIn4S6Cl
_space_group_crystal_system      monoclinic
_space_group_IT_number           14
_space_group_name_Hall           '-P 2ybc'
_space_group_name_H-M_alt        'P 1 21/c 1'
_audit_creation_method           SHELXL-2013
_audit_update_record
;
2022-01-07 deposited with the CCDC.	2022-03-15 downloaded from the CCDC.
;
_cell_angle_alpha                90
_cell_angle_beta                 94.616(4)
_cell_angle_gamma                90
_cell_formula_units_Z            2
_cell_length_a                   7.5885(4)
_cell_length_b                   6.6368(3)
_cell_length_c                   25.0119(11)
_cell_measurement_reflns_used    5436
_cell_measurement_temperature    293(2)
_cell_measurement_theta_max      29.7380
_cell_measurement_theta_min      2.6870
_cell_volume                     1255.60(10)
_computing_cell_refinement       'CrysAlisPro 1.171.40.59a (Rigaku OD, 2019)'
_computing_data_collection       'CrysAlisPro 1.171.40.59a (Rigaku OD, 2019)'
_computing_data_reduction        'CrysAlisPro 1.171.40.59a (Rigaku OD, 2019)'
_computing_publication_material  'SHELXL-2013 (Sheldrick, 2013)'
_computing_structure_refinement  'SHELXL-2013 (Sheldrick, 2013)'
_computing_structure_solution    'SHELXL-2013 (Sheldrick, 2013)'
_diffrn_ambient_temperature      293(2)
_diffrn_detector_area_resol_mean 10.0000
_diffrn_measured_fraction_theta_full 0.996
_diffrn_measured_fraction_theta_max 0.996
_diffrn_measurement_device_type  'ROD, Synergy Custom DW system, HyPix'
_diffrn_measurement_method       CCD_Profile_fitting
_diffrn_radiation_type           MoK\a
_diffrn_radiation_wavelength     0.71073
_diffrn_reflns_av_R_equivalents  0.0263
_diffrn_reflns_av_unetI/netI     0.0271
_diffrn_reflns_Laue_measured_fraction_full 0.996
_diffrn_reflns_Laue_measured_fraction_max 0.996
_diffrn_reflns_limit_h_max       7
_diffrn_reflns_limit_h_min       -9
_diffrn_reflns_limit_k_max       6
_diffrn_reflns_limit_k_min       -8
_diffrn_reflns_limit_l_max       30
_diffrn_reflns_limit_l_min       -27
_diffrn_reflns_number            6619
_diffrn_reflns_point_group_measured_fraction_full 0.996
_diffrn_reflns_point_group_measured_fraction_max 0.996
_diffrn_reflns_theta_full        25.242
_diffrn_reflns_theta_max         25.498
_diffrn_reflns_theta_min         1.634
_exptl_absorpt_coefficient_mu    11.268
_exptl_absorpt_correction_T_max  1.00000
_exptl_absorpt_correction_T_min  0.39429
_exptl_absorpt_correction_type   multi-scan
_exptl_absorpt_process_details
;
CrysAlisPro 1.171.41.64a (Rigaku Oxford Diffraction, 2020)
Empirical absorption correction using spherical harmonics,
 implemented in SCALE3 ABSPACK scaling algorithm.
;
_exptl_crystal_colour            yellow
_exptl_crystal_density_diffrn    4.338
_exptl_crystal_density_meas      ?
_exptl_crystal_description       flake
_exptl_crystal_F_000             1456
_exptl_crystal_size_max          0.125
_exptl_crystal_size_mid          0.120
_exptl_crystal_size_min          0.085
_refine_diff_density_max         3.928
_refine_diff_density_min         -1.932
_refine_diff_density_rms         0.518
_refine_ls_extinction_method     none
_refine_ls_goodness_of_fit_ref   1.019
_refine_ls_hydrogen_treatment    undef
_refine_ls_matrix_type           full
_refine_ls_number_parameters     109
_refine_ls_number_reflns         2320
_refine_ls_number_restraints     0
_refine_ls_restrained_S_all      1.019
_refine_ls_R_factor_all          0.0745
_refine_ls_R_factor_gt           0.0692
_refine_ls_shift/su_max          0.001
_refine_ls_shift/su_mean         0.000
_refine_ls_structure_factor_coef Fsqd
_refine_ls_weighting_details
;
 w=1/[\s^2^(Fo^2^)+(0.1986P)^2^+52.8978P]
 where P=(Fo^2^+2Fc^2^)/3
;
_refine_ls_weighting_scheme      calc
_refine_ls_wR_factor_gt          0.2516
_refine_ls_wR_factor_ref         0.2598
_reflns_Friedel_coverage         0.000
_reflns_number_gt                2041
_reflns_number_total             2320
_reflns_threshold_expression     'I > 2\s(I)'
_cod_data_source_file            d2dt00350c2.cif
_cod_data_source_block           CsIn4S6Cl
_cod_depositor_comments
;
The following automatic conversions were performed:

data item '_chemical_melting_point' value 'not measured' was changed
to '?' -- the value is undefined or not given.

data item '_exptl_crystal_density_meas' value 'not measured' was
changed to '?' -- the value is perceived as not measured.

Automatic conversion script
Id: cif_fix_values 7556 2019-12-06 15:28:31Z antanas 
;
_cod_original_sg_symbol_H-M      'P 21/c'
_cod_database_code               7710001
_shelx_space_group_comment
;
The symmetry employed for this shelxl refinement is uniquely defined
by the following loop, which should always be used as a source of
symmetry information in preference to the above space-group names.
They are only intended as comments.
;
_shelxl_version_number           2013-2
_shelx_res_file
;
TITL a in P2(1)/c
CELL 0.71073   7.5885   6.6368  25.0119  90.000  94.616  90.000
ZERR   2   0.0004   0.0003   0.0011   0.000   0.004   0.000
LATT  1
SYMM -X, 0.5+Y, 0.5-Z
SFAC S CL IN CS
UNIT 24.00 4.00 16.00 4.00
acta
L.S. 4
BOND
FMAP 2
PLAN 20
omit -3 51.0
WGHT    0.198600   52.897800
FVAR       0.01139
IN1   3    0.354850    0.091606    0.435488    11.00000    0.01611    0.01020 =
         0.02175    0.00005   -0.00196   -0.00011
IN2   3    0.835941    0.085400    0.365974    11.00000    0.01448    0.01172 =
         0.02599   -0.00002   -0.00104    0.00012
CS3   4    0.288267    0.099452    0.258789    11.00000    0.05108    0.02398 =
         0.03257   -0.00164   -0.00328   -0.00152
IN4   3    0.606336   -0.409396    0.434439    11.00000    0.01277    0.01379 =
         0.02317   -0.00182   -0.00085   -0.00021
IN5   3    0.107718    0.574013    0.434570    11.00000    0.01478    0.01155 =
         0.02471    0.00176    0.00018    0.00029
S6    1    0.349333    0.415616    0.382036    11.00000    0.01084    0.00940 =
         0.02182    0.00053   -0.00109   -0.00001
S8    1    0.111482   -0.097510    0.379601    11.00000    0.00846    0.01093 =
         0.02394    0.00299   -0.00129   -0.00018
S10   1    0.616348    0.240758    0.501946    11.00000    0.01501    0.01384 =
         0.01983   -0.00137    0.00087    0.00166
S11   1    0.136994    0.277387    0.501248    11.00000    0.01289    0.01072 =
         0.02153    0.00046    0.00173    0.00099
S12   1    0.565205   -0.095000    0.374037    11.00000    0.01532    0.00974 =
         0.02701    0.00224    0.00178    0.00124
S17   1    0.841917    0.447882    0.375890    11.00000    0.01235    0.01174 =
         0.02033   -0.00250    0.00098   -0.00140
CL22  2    0.810108    0.095697    0.265025    11.00000    0.04411    0.02285 =
         0.02342   -0.00209   -0.00245   -0.00312

HKLF 4

REM  a in P2(1)/c
REM R1 =  0.0692 for    2041 Fo > 4sig(Fo)  and  0.0745 for all    2320 data
REM    109 parameters refined using      0 restraints

END

WGHT      0.0950     55.0156

REM Highest difference peak  3.928,  deepest hole -1.932,  1-sigma level  0.518
Q1    1   0.3528  0.0896  0.3864  11.00000  0.05    3.93
Q2    1   0.8552  0.0887  0.4131  11.00000  0.05    3.91
Q3    1   0.6043 -0.4097  0.3928  11.00000  0.05    3.66
Q4    1   0.3653  0.0865  0.4798  11.00000  0.05    3.33
Q5    1   0.1067  0.5823  0.3842  11.00000  0.05    3.24
Q6    1   0.1145  0.5748  0.4793  11.00000  0.05    2.83
Q7    1   0.8442  0.0956  0.3145  11.00000  0.05    2.79
Q8    1   0.6152 -0.4079  0.4763  11.00000  0.05    2.57
Q9    1   0.3508  0.0934  0.3390  11.00000  0.05    2.46
Q10   1   0.3705  0.0655  0.2341  11.00000  0.05    2.25
Q11   1   0.6067  0.5843  0.3439  11.00000  0.05    2.21
Q12   1   0.3242  0.1056  0.2993  11.00000  0.05    1.82
Q13   1   0.8692  0.4362  0.4177  11.00000  0.05    1.66
Q14   1   0.2790  0.1151  0.2157  11.00000  0.05    1.65
Q15   1   0.6259 -0.0618  0.4658  11.00000  0.05    1.63
Q16   1   0.8889  0.1002  0.2458  11.00000  0.05    1.58
Q17   1   0.1267 -0.0535  0.4240  11.00000  0.05    1.52
Q18   1   0.1272 -0.0659  0.3279  11.00000  0.05    1.47
Q19   1   0.3679  0.4532  0.4532  11.00000  0.05    1.47
Q20   1   0.8754  0.0788  0.1902  11.00000  0.05    1.47
;
_shelx_res_checksum              4223
_shelx_hkl_file
;
   0   0  -2    6.65    0.14
   0   0   3    0.00    0.00
   0   0  -3    0.00    0.00
   0   0  -4    0.73    0.03
   0   0  -4    0.73    0.02
   0   0   4    0.71    0.02
   0   0  -5    0.01    0.01
   0   0   5    0.01    0.00
   0   0   6   29.21    0.64
   0   0  -6   29.69    0.64
   0   0  -7    0.01    0.01
   0   0   7    0.00    0.01
   0   0  -8    2.74    0.08
   0   0   8    2.90    0.07
   0   0  -9    0.01    0.01
   0   0   9    0.00    0.00
   0   0  10   16.70    0.38
   0   0 -10   17.22    0.39
   0   0 -11    0.00    0.01
   0   0  11   -0.01    0.01
   0   0 -12    0.23    0.02
   0   0  12    0.22    0.02
   0   0 -13    0.02    0.01
   0   0  13    0.01    0.01
   0   0 -14   12.64    0.31
   0   0  14   12.52    0.29
   0   0 -15    0.06    0.02
   0   0  15    0.04    0.01
   0   0  16   46.19    1.03
   0   0 -16   47.83    1.04
   0   0  17    0.03    0.01
   0   0  18    0.99    0.05
   0   0  19    0.00    0.01
   0   0  20    1.92    0.07
   0   0  21   -0.01    0.01
   0   0  23    0.00    0.01
   0   0  24    0.46    0.04
   0   0  25    0.00    0.01
   0   0  26    0.32    0.03
   0   0  27    0.00    0.01
   0   0  28    0.25    0.03
   0   0  29    0.09    0.02
   0   0  30    5.16    0.16
   0   0  31    0.06    0.02
   0  -1   0    0.00    0.00
   0   1   0    0.00    0.00
   0   1  -1    0.34    0.01
   0   1  -2    0.13    0.01
   0  -1   2    0.14    0.01
   0   1  -2    0.14    0.01
   0   1   2    0.15    0.01
   0  -1  -2    0.14    0.01
   0  -1  -3    6.23    0.14
   0   1   3    6.33    0.14
   0   1  -3    6.54    0.14
   0   1  -3    6.33    0.14
   0  -1   3    6.18    0.14
   0  -1   4    2.29    0.06
   0   1  -4    2.34    0.06
   0  -1  -4    2.31    0.06
   0   1   4    2.34    0.06
   0  -1   5    0.65    0.02
   0   1  -5    0.65    0.03
   0  -1  -5    0.64    0.03
   0   1   5    0.67    0.02
   0  -1   6    0.43    0.02
   0   1   6    0.45    0.02
   0   1  -6    0.48    0.02
   0  -1  -6    0.46    0.02
   0   1   7    4.04    0.10
   0  -1  -7    3.87    0.10
   0  -1   7    3.93    0.10
   0   1  -7    3.98    0.10
   0   1   8    0.07    0.01
   0  -1  -8    0.10    0.01
   0   1  -8    0.08    0.01
   0  -1   8    0.08    0.01
   0  -1   9    5.60    0.14
   0   1  -9    5.90    0.15
   0   1   9    5.85    0.14
   0  -1  -9    5.77    0.15
   0  -1 -10    3.03    0.09
   0   1  10    3.13    0.08
   0  -1  10    2.99    0.08
   0   1 -10    3.06    0.09
   0  -1 -11    5.04    0.14
   0  -1  11    4.91    0.13
   0   1 -11    5.18    0.14
   0   1  11    5.05    0.13
   0  -1  12    0.40    0.02
   0   1 -12    0.42    0.03
   0   1  12    0.40    0.02
   0  -1 -13    0.08    0.02
   0   1  13    0.07    0.01
   0  -1  13    0.07    0.01
   0   1 -13    0.06    0.02
   0   1 -14    0.28    0.03
   0   1  14    0.29    0.02
   0  -1  14    0.29    0.02
   0  -1 -14    0.32    0.03
   0  -1  15    1.25    0.05
   0  -1 -15    1.27    0.06
   0   1  15    1.20    0.05
   0   1 -15    1.24    0.06
   0   1  16    0.42    0.03
   0   1 -16    0.39    0.03
   0  -1  16    0.44    0.03
   0  -1 -16    0.47    0.03
   0  -1  17    0.01    0.01
   0   1  17    0.02    0.01
   0  -1  18    0.08    0.02
   0   1  18    0.11    0.02
   0  -1  19    3.24    0.10
   0   1  19    3.06    0.10
   0  -1  20    2.10    0.08
   0   1  20    2.07    0.08
   0   1  21    3.33    0.11
   0  -1  21    3.13    0.10
   0   1  22    0.16    0.02
   0  -1  22    0.14    0.02
   0  -1  23    0.27    0.03
   0   1  24    0.00    0.01
   0  -1  24    0.00    0.01
   0  -1  25    0.32    0.03
   0   1  25    0.28    0.03
   0   1  26    0.33    0.03
   0  -1  26    0.37    0.03
   0   1  27    1.39    0.07
   0  -1  27    1.30    0.07
   0  -1  28    0.29    0.03
   0   1  28    0.24    0.03
   0   1  29    0.17    0.03
   0  -1  29    0.14    0.03
   0  -1  30    0.07    0.02
   0   1  30    0.06    0.02
   0   1  31    0.20    0.03
   0  -1  31    0.24    0.03
   0  -2   0   29.76    0.65
   0   2  -1   25.47    0.55
   0   2  -1   24.49    0.55
   0  -2  -1   25.89    0.55
   0  -2  -2    0.14    0.01
   0   2  -2    0.15    0.01
   0   2   3    2.95    0.07
   0  -2  -3    2.98    0.07
   0   2  -3    3.20    0.08
   0   2  -3    3.13    0.07
   0  -2   3    3.10    0.08
   0  -2   3    3.04    0.07
   0   2  -4    5.70    0.13
   0   2  -4    5.63    0.13
   0   2   4    5.66    0.13
   0  -2   4    5.81    0.13
   0  -2  -4    5.69    0.13
   0  -2   4    5.60    0.13
   0  -2  -5   37.44    0.81
   0   2  -5   37.52    0.81
   0  -2   5   37.97    0.81
   0   2   5   37.44    0.81
   0   2  -5   37.56    0.81
   0   2  -6   11.85    0.27
   0   2   6   11.81    0.26
   0  -2   6   12.19    0.26
   0   2  -6   11.72    0.26
   0   2  -7    0.01    0.01
   0   2   7    0.01    0.01
   0   2  -7    0.02    0.01
   0  -2   7    0.02    0.01
   0   2   8    0.90    0.03
   0  -2  -8    0.88    0.04
   0  -2   8    0.88    0.03
   0   2  -8    0.89    0.03
   0   2  -8    0.88    0.04
   0  -2  -9    0.02    0.01
   0   2  -9    0.01    0.01
   0  -2   9    0.02    0.01
   0   2   9    0.02    0.01
   0   2 -10    7.76    0.19
   0  -2  10    7.56    0.18
   0  -2 -10    7.69    0.19
   0   2  10    7.68    0.18
   0   2 -11   35.16    0.77
   0   2  11   34.94    0.76
   0  -2 -11   35.17    0.77
   0  -2  11   34.49    0.76
   0  -2  12    1.27    0.05
   0  -2 -12    1.24    0.05
   0   2 -12    1.28    0.05
   0   2  12    1.21    0.05
   0  -2  13    4.87    0.13
   0   2  13    4.95    0.13
   0   2 -13    5.00    0.14
   0  -2 -13    4.89    0.14
   0  -2  14    0.59    0.03
   0  -2 -14    0.63    0.04
   0   2 -14    0.62    0.04
   0   2  14    0.62    0.03
   0   2  15    0.10    0.01
   0  -2 -15    0.09    0.02
   0  -2  15    0.08    0.01
   0  -2  16    4.13    0.12
   0  -2 -16    4.33    0.13
   0   2  16    4.13    0.12
   0   2 -16    4.41    0.13
   0  -2  17    7.92    0.20
   0   2  17    8.02    0.20
   0   2  18    0.08    0.01
   0  -2  18    0.09    0.02
   0   2  19    1.22    0.05
   0   2  20    2.04    0.08
   0  -2  20    2.06    0.08
   0  -2  21    2.18    0.08
   0  -2  22    1.71    0.07
   0   2  22    1.79    0.07
   0  -2  23    0.68    0.04
   0   2  23    0.63    0.04
   0  -2  24    0.82    0.05
   0   2  24    0.79    0.05
   0   2  25    0.96    0.05
   0  -2  25    0.97    0.05
   0   2  26    0.67    0.04
   0  -2  26    0.70    0.05
   0  -2  27    5.43    0.16
   0   2  27    5.30    0.16
   0   2  28    0.12    0.02
   0  -2  28    0.09    0.02
   0  -2  29    1.64    0.08
   0   2  29    1.60    0.08
   0  -2  30    0.30    0.03
   0   2  30    0.35    0.04
   0  -3   0    0.01    0.01
   0  -3  -1    0.43    0.03
   0  -3   1    0.41    0.02
   0   3  -2    0.54    0.03
   0  -3  -2    0.57    0.03
   0   3  -2    0.50    0.02
   0  -3   2    0.55    0.03
   0   3  -3    0.28    0.02
   0   3  -3    0.26    0.01
   0  -3   3    0.31    0.02
   0   3  -3    0.28    0.02
   0  -3   3    0.27    0.01
   0  -3  -3    0.26    0.01
   0   3   3    0.28    0.01
   0   3  -4    5.54    0.13
   0   3   4    5.31    0.12
   0  -3  -4    5.35    0.12
   0   3  -4    5.17    0.12
   0  -3   4    5.36    0.12
   0   3  -4    5.56    0.14
   0  -3   4    5.38    0.13
   0  -3   5    0.21    0.01
   0   3  -5    0.22    0.01
   0  -3  -5    0.22    0.01
   0   3  -5    0.22    0.02
   0   3   5    0.21    0.01
   0  -3   5    0.20    0.01
   0   3   6    2.16    0.06
   0  -3  -6    2.13    0.06
   0   3  -6    2.17    0.06
   0  -3   6    2.16    0.06
   0   3  -6    2.15    0.06
   0  -3   6    2.03    0.06
   0   3  -7    0.10    0.01
   0  -3  -7    0.10    0.01
   0   3  -7    0.08    0.01
   0   3   7    0.09    0.01
   0  -3   7    0.09    0.01
   0   3  -8    0.01    0.01
   0   3  -8    0.00    0.01
   0  -3   8    0.00    0.01
   0  -3  -8    0.00    0.01
   0  -3  -9    0.04    0.01
   0   3   9    0.03    0.01
   0   3  -9    0.04    0.01
   0  -3   9    0.04    0.01
   0   3  -9    0.02    0.01
   0   3 -10   10.33    0.25
   0  -3 -10   10.40    0.25
   0   3 -10   10.42    0.24
   0  -3 -11    0.62    0.03
   0  -3  11    0.51    0.03
   0   3 -11    0.55    0.03
   0   3 -11    0.56    0.03
   0   3 -12    0.17    0.02
   0  -3  12    0.23    0.02
   0  -3 -12    0.21    0.02
   0   3 -12    0.20    0.02
   0   3 -13    0.00    0.01
   0  -3 -13    0.00    0.01
   0   3 -13    0.01    0.01
   0   3 -14    0.77    0.03
   0   3  14    0.76    0.04
   0  -3 -14    0.85    0.04
   0   3 -14    0.75    0.04
   0  -3 -15    0.00    0.01
   0  -3  15    0.01    0.01
   0   3 -15    0.00    0.01
   0   3 -15   -0.01    0.02
   0   3 -16    0.41    0.02
   0   3 -16    0.45    0.03
   0  -3  16    0.43    0.03
   0   3  17    0.30    0.02
   0  -3  17    0.33    0.03
   0   3 -17    0.26    0.02
   0   3 -18    0.41    0.02
   0  -3  18    0.44    0.03
   0   3  18    0.49    0.03
   0   3  19    0.24    0.02
   0  -3  19    0.28    0.03
   0  -3  20    4.76    0.14
   0   3  20    4.71    0.14
   0   3  21    0.01    0.01
   0  -3  21    0.01    0.01
   0  -3  22    0.31    0.03
   0   3  22    0.37    0.03
   0  -3  23    0.09    0.02
   0   3  23    0.04    0.02
   0   3  24    0.03    0.02
   0  -3  24    0.03    0.02
   0  -3  25    0.03    0.02
   0   3  25    0.04    0.02
   0  -3  26    1.70    0.08
   0   3  26    1.88    0.08
   0   3  27    0.13    0.02
   0  -3  27    0.08    0.02
   0   3  28    0.23    0.03
   0  -3  28    0.18    0.03
   0   3  29   -0.01    0.02
   0  -3  29    0.00    0.02
   0   3  30    0.45    0.04
   0  -3  30    0.49    0.04
   0  -4   0   25.25    0.56
   0  -4  -1    7.99    0.20
   0  -4   1    8.13    0.20
   0  -4   2    0.69    0.03
   0  -4  -2    0.60    0.04
   0   4  -3    4.27    0.12
   0  -4   3    4.24    0.12
   0  -4  -3    4.38    0.13
   0   4  -3    4.68    0.12
   0   4   4    0.82    0.02
   0  -4  -4    0.76    0.04
   0   4  -4    0.79    0.03
   0  -4  -4    0.78    0.02
   0   4  -4    0.70    0.04
   0  -4   4    0.72    0.03
   0   4   5   13.58    0.29
   0   4  -5   12.69    0.29
   0   4  -5   14.46    0.31
   0  -4   5   13.35    0.29
   0   4  -5   13.43    0.31
   0  -4  -5   13.97    0.32
   0  -4   5   13.06    0.31
   0  -4  -5   13.29    0.29
   0   4  -6   11.08    0.26
   0   4  -6   10.39    0.24
   0  -4  -6   10.85    0.24
   0  -4   6   10.64    0.25
   0  -4   6   10.48    0.24
   0   4   6   10.81    0.24
   0   4  -6   11.43    0.25
   0  -4  -7    0.15    0.01
   0   4  -7    0.14    0.01
   0  -4   7    0.17    0.02
   0   4   7    0.16    0.01
   0   4  -7    0.20    0.02
   0  -4  -7    0.14    0.02
   0  -4   7    0.16    0.01
   0  -4  -8    0.07    0.01
   0   4  -8    0.09    0.01
   0  -4   8    0.08    0.01
   0   4   8    0.07    0.01
   0   4  -8    0.07    0.01
   0   4  -9    0.17    0.02
   0  -4  -9    0.17    0.02
   0   4  -9    0.16    0.02
   0   4   9    0.16    0.01
   0  -4   9    0.16    0.01
   0   4 -10    8.08    0.19
   0   4  10    7.87    0.18
   0  -4  10    7.71    0.18
   0   4 -10    7.81    0.19
   0  -4  11   16.10    0.37
   0   4 -11   16.56    0.38
   0   4 -11   16.48    0.37
   0   4  11   16.48    0.37
   0  -4 -11   16.60    0.38
   0   4  12    0.11    0.01
   0  -4 -12    0.15    0.02
   0   4 -12    0.16    0.02
   0  -4  12    0.11    0.01
   0   4 -12    0.11    0.02
   0   4 -13    4.12    0.11
   0  -4  13    3.88    0.11
   0  -4 -13    4.02    0.11
   0   4  13    4.02    0.11
   0   4  14    0.18    0.02
   0   4 -14    0.22    0.02
   0  -4 -14    0.20    0.02
   0  -4  14    0.21    0.02
   0   4  15    0.01    0.01
   0  -4 -15    0.00    0.01
   0   4 -15    0.00    0.01
   0  -4  15    0.01    0.01
   0  -4  16    4.56    0.12
   0   4  16    4.75    0.12
   0  -4  17    4.04    0.12
   0   4  17    4.35    0.12
   0  -4  18    0.13    0.02
   0   4  18    0.15    0.02
   0   4  19    1.05    0.05
   0  -4  19    0.93    0.05
   0  -4  20    1.06    0.05
   0   4  20    1.28    0.06
   0   4  21    1.20    0.06
   0  -4  21    1.23    0.06
   0  -4  22    1.77    0.07
   0   4  22    1.90    0.08
   0  -4  23    0.59    0.04
   0   4  23    0.57    0.04
   0  -4  24    0.92    0.05
   0   4  24    0.86    0.05
   0  -4  25    0.76    0.05
   0   4  25    0.78    0.05
   0   4  26    0.56    0.04
   0  -4  26    0.50    0.04
   0  -4  27    4.04    0.13
   0   4  27    4.13    0.14
   0  -4  28    0.03    0.02
   0   4  28    0.01    0.02
   0  -4  29    1.14    0.06
   0   4  29    1.11    0.06
   0  -5   0    0.00    0.01
   0  -5   1    0.33    0.02
   0  -5  -1    0.29    0.02
   0  -5  -2    0.07    0.01
   0  -5   2    0.08    0.01
   0  -5  -2    0.07    0.02
   0  -5   3    2.30    0.08
   0  -5  -3    2.17    0.08
   0  -5  -4    1.08    0.05
   0  -5   4    1.00    0.04
   0   5  -5    0.08    0.01
   0  -5  -5    0.05    0.02
   0  -5   5    0.06    0.01
   0   5   6    1.62    0.04
   0  -5   6    1.81    0.06
   0   5  -6    1.93    0.07
   0  -5  -6    2.09    0.08
   0  -5  -6    1.68    0.04
   0  -5   7    1.86    0.06
   0   5   7    1.85    0.05
   0  -5   7    1.84    0.05
   0   5  -7    1.94    0.07
   0   5  -7    1.75    0.05
   0  -5  -7    1.85    0.05
   0   5  -8    0.03    0.01
   0   5   8    0.05    0.01
   0   5  -8    0.04    0.01
   0  -5  -8    0.04    0.02
   0  -5  -8    0.04    0.01
   0  -5   8    0.03    0.01
   0  -5  -9    3.05    0.08
   0   5   9    3.08    0.08
   0   5  -9    3.23    0.10
   0   5  -9    2.92    0.08
   0  -5  -9    2.96    0.10
   0  -5   9    3.06    0.08
   0  -5 -10    1.86    0.07
   0   5 -10    1.82    0.07
   0  -5 -10    1.82    0.06
   0   5  10    1.76    0.05
   0  -5  10    1.75    0.05
   0   5 -10    1.77    0.05
   0   5 -11    2.69    0.08
   0   5  11    2.73    0.08
   0  -5 -11    2.70    0.10
   0  -5  11    2.61    0.07
   0  -5 -11    2.69    0.08
   0  -5  12    0.12    0.01
   0  -5 -12    0.12    0.02
   0   5 -12    0.11    0.02
   0   5  12    0.12    0.01
   0  -5  13    0.08    0.01
   0  -5 -13    0.09    0.02
   0   5 -13    0.09    0.02
   0   5  13    0.11    0.01
   0  -5 -14    0.04    0.02
   0   5  14    0.07    0.01
   0  -5  14    0.06    0.01
   0  -5  15    0.06    0.01
   0  -5 -15    0.07    0.02
   0   5  15    0.05    0.01
   0  -5  16    0.00    0.01
   0   5  16    0.00    0.01
   0   5  17    0.40    0.03
   0  -5  17    0.37    0.03
   0   5  18    0.00    0.01
   0  -5  18    0.04    0.01
   0   5  19    2.19    0.08
   0  -5  19    2.05    0.07
   0  -5  20    0.62    0.04
   0   5  20    0.64    0.04
   0  -5  21    1.58    0.07
   0   5  21    1.82    0.07
   0   5  22    0.22    0.03
   0  -5  22    0.23    0.03
   0  -5  23    0.16    0.03
   0   5  23    0.21    0.03
   0  -5  24    0.06    0.02
   0   5  24    0.07    0.02
   0  -5  25    0.39    0.04
   0   5  25    0.39    0.04
   0  -5  26    0.21    0.03
   0   5  26    0.23    0.03
   0  -5  27    0.98    0.06
   0   5  27    1.08    0.06
   0  -5  28   -0.02    0.02
   0   5  28    0.00    0.02
   0  -5  29    0.13    0.03
   0  -6   0   46.36    1.03
   0  -6   1    1.18    0.05
   0  -6  -1    0.92    0.05
   0  -6   2    3.19    0.10
   0  -6  -2    2.63    0.10
   0  -6  -3    0.22    0.02
   0  -6   3    0.20    0.02
   0  -6   4    0.47    0.03
   0  -6  -4    0.49    0.04
   0  -6  -4    0.44    0.03
   0  -6  -5    0.58    0.04
   0  -6   5    0.56    0.03
   0  -6  -5    0.55    0.04
   0  -6   6    5.55    0.15
   0  -6  -6    5.79    0.17
   0  -6   7    0.26    0.02
   0  -6  -7    0.24    0.03
   0  -6  -8    0.03    0.00
   0  -6  -8    0.04    0.02
   0   6  -9    0.21    0.02
   0  -6  -9    0.17    0.01
   0  -6  -9    0.22    0.03
   0   6 -10    3.84    0.12
   0  -6  10    3.82    0.09
   0  -6 -10    3.79    0.10
   0  -6  11    0.38    0.02
   0  -6 -11    0.42    0.04
   0  -6 -11    0.42    0.04
   0   6 -11    0.30    0.03
   0  -6 -12    0.02    0.02
   0  -6 -12    0.02    0.02
   0   6 -12    0.01    0.01
   0  -6  12    0.01    0.01
   0  -6  13    0.01    0.01
   0  -6 -13    0.03    0.02
   0  -6  14    4.25    0.11
   0  -6 -14    4.26    0.14
   0  -6  15    0.10    0.02
   0  -6 -15    0.17    0.03
   0  -6 -16   14.31    0.36
   0  -6  16   13.52    0.32
   0  -6 -17    0.14    0.03
   0  -6  17    0.14    0.02
   0  -6  18    0.49    0.03
   0  -6 -18    0.44    0.04
   0  -6  19    0.00    0.01
   0  -6 -19    0.00    0.02
   0  -6  20    0.84    0.04
   0  -6 -20    0.81    0.06
   0  -6  21    0.02    0.02
   0  -7   0    0.00    0.01
   0  -7  -1    0.30    0.03
   0  -7   1    0.29    0.03
   0  -7  -2    0.02    0.01
   0  -7   2    0.01    0.01
   0  -7   3    0.92    0.05
   0  -7  -3    0.94    0.05
   0  -7   4    0.10    0.02
   0  -7  -4    0.11    0.02
   0  -7  -5    0.04    0.01
   0  -7  -6    0.10    0.02
   0  -7   6    0.10    0.02
   0  -7  -6    0.14    0.02
   0  -7  -7    0.98    0.05
   0  -7   7    1.03    0.05
   0  -7  -8    0.04    0.02
   0  -7  -8    0.03    0.02
   0  -7  -9    0.57    0.05
   0  -7 -10    0.14    0.03
   0  -7 -11    0.54    0.05
   0  -7 -12    0.69    0.06
   0  -7 -13    0.06    0.02
   0  -7 -13    0.04    0.03
   0  -7 -14    0.37    0.04
   0  -7 -14    0.36    0.05
   0  -7 -15    0.23    0.03
   0  -7 -15    0.19    0.04
   0  -7 -16    0.14    0.04
   0  -7 -16    0.10    0.03
   0  -7 -17    0.34    0.05
   0  -7 -18    0.08    0.04
   0  -8   0    1.04    0.06
   0  -8   1    2.71    0.10
   0  -8  -1    2.90    0.10
   0  -8   2    0.33    0.03
   0  -8  -2    0.33    0.03
   0  -8  -3    1.07    0.06
   0  -8   3    1.05    0.06
   0  -8  -4    0.87    0.05
   0  -8   4    0.93    0.05
   0  -8  -5    3.95    0.13
   0  -8   5    3.80    0.12
   0  -8  -6    0.32    0.03
   0  -8   6    0.30    0.03
   0  -8  -7    0.01    0.02
   0  -8  -8    0.43    0.04
  -1   0  31    0.02    0.02
  -1   0  30    0.24    0.03
  -1   0  29    0.02    0.02
  -1   0  28   -0.01    0.02
  -1   0  27    0.00    0.01
  -1   0  26    0.01    0.01
  -1   0  25    0.00    0.01
  -1   0  24    3.53    0.12
  -1   0  23    0.02    0.01
  -1   0  22    0.07    0.02
  -1   0  21    0.01    0.01
  -1   0  20    1.53    0.06
  -1   0  19    0.00    0.01
  -1   0  18    1.93    0.07
  -1   0  17    0.00    0.01
  -1   0  16    1.00    0.05
   1   0 -16    1.01    0.05
   1   0 -15   -0.01    0.01
  -1   0  15   -0.01    0.01
   1   0 -14    0.63    0.04
  -1   0  14    0.61    0.03
   1   0 -13    0.00    0.01
  -1   0  13    0.01    0.01
  -1   0  12    0.08    0.02
   1   0 -12    0.08    0.02
  -1   0  11    0.00    0.01
   1   0 -11    0.00    0.01
   1   0 -10    3.64    0.10
  -1   0   9    0.01    0.01
   1   0  -9    0.00    0.01
  -1   0   8    7.43    0.18
   1   0  -8    7.48    0.18
   1   0  -7    0.02    0.01
  -1   0   7    0.03    0.01
  -1   0   6    1.59    0.05
   1   0  -6    1.58    0.05
   1   0  -5    0.01    0.01
  -1   0   5    0.01    0.01
  -1   0   4    8.38    0.19
   1   0  -4    8.11    0.19
  -1   0   3    0.01    0.01
   1   0  -3    0.01    0.00
   1   0  -2    0.19    0.01
  -1   0   2    0.22    0.01
  -1   0   1    0.00    0.00
  -1   0   1    0.01    0.00
   1   0  -1    0.00    0.00
   1   0   0    0.50    0.02
  -1   0   0    0.53    0.02
   1   0   1    0.00    0.00
  -1   0  -1    0.00    0.00
   1   0   2    1.16    0.03
  -1   0  -2    1.18    0.03
  -1   0  -3    0.01    0.00
   1   0   3    0.01    0.01
  -1   0  -4    0.58    0.02
   1   0   4    0.57    0.02
  -1   0  -5    0.01    0.01
   1   0   5    0.00    0.00
   1   0   6   16.14    0.35
  -1   0  -6   15.65    0.35
   1   0   7    0.03    0.01
  -1   0  -7    0.03    0.01
  -1   0  -8    0.02    0.01
   1   0   8    0.01    0.01
  -1   0  -9    0.00    0.01
   1   0   9    0.00    0.01
   1   0  10    1.39    0.05
  -1   0 -10    1.37    0.05
  -1   0 -11    0.00    0.01
   1   0  11    0.01    0.01
  -1   0 -12    2.64    0.07
   1   0  12    2.43    0.08
  -1   0 -13    0.02    0.01
   1   0  13    0.01    0.01
   1   0  14    0.47    0.03
  -1   0 -14    0.49    0.03
  -1   0 -15    0.00    0.01
   1   0  15   -0.01    0.01
   1   0  16    3.99    0.12
   1   0  17    0.01    0.01
   1   0  18    0.07    0.02
   1   0  19    0.00    0.01
   1   0  20    0.96    0.05
   1   0  21    0.02    0.01
   1   0  22    4.81    0.14
   1   0  23    0.00    0.01
   1   0  24    1.28    0.06
   1   0  25    0.00    0.01
   1   0  26    0.03    0.01
   1   0  27    0.00    0.01
   1   0  28    0.19    0.03
   1   0  29    0.00    0.02
   1   0  30    0.08    0.02
  -1  -1  31    0.00    0.02
  -1   1  31   -0.01    0.02
  -1   1  28    0.05    0.02
  -1  -1  28    0.05    0.02
  -1   1  27    0.07    0.02
  -1  -1  27    0.05    0.02
  -1  -1  26    0.04    0.02
  -1   1  26    0.05    0.02
  -1  -1  25    0.16    0.02
  -1   1  25    0.14    0.02
  -1  -1  24    0.03    0.02
  -1   1  24    0.02    0.01
  -1  -1  23    1.22    0.06
  -1   1  23    1.17    0.06
  -1   1  22    1.40    0.06
  -1  -1  22    1.43    0.06
  -1  -1  21    1.02    0.05
  -1   1  21    1.13    0.05
  -1   1  20    0.04    0.02
  -1  -1  20    0.04    0.02
  -1   1  19    0.48    0.03
  -1  -1  19    0.48    0.03
  -1   1  18    0.06    0.01
  -1  -1  18    0.07    0.01
  -1   1  17    0.87    0.04
  -1  -1  17    0.80    0.04
  -1  -1  16    1.08    0.05
   1   1 -16    1.26    0.06
  -1   1  16    1.07    0.05
   1  -1 -16    1.26    0.06
   1  -1 -15    0.37    0.03
  -1   1  15    0.26    0.02
  -1  -1  15    0.30    0.02
   1   1 -15    0.34    0.03
   1  -1 -14    0.20    0.02
   1   1 -14    0.20    0.02
  -1   1  14    0.16    0.02
  -1  -1  14    0.15    0.02
  -1  -1  13    2.02    0.06
   1  -1 -13    2.15    0.07
  -1  -1  13    2.03    0.08
   1   1 -13    2.28    0.08
  -1   1  13    2.07    0.06
   1   1 -12    1.66    0.06
  -1   1  12    1.60    0.06
  -1  -1  12    1.59    0.06
   1  -1 -12    1.71    0.06
  -1   1  11    2.52    0.08
  -1  -1  11    2.32    0.08
   1   1 -11    2.64    0.08
   1  -1 -11    2.47    0.08
   1  -1 -10    0.01    0.01
  -1   1  10    0.00    0.01
   1   1 -10    0.01    0.01
  -1  -1  10    0.01    0.01
  -1  -1   9    1.72    0.06
   1  -1  -9    1.90    0.06
  -1   1   9    1.88    0.06
   1   1  -9    1.92    0.06
   1  -1  -8    0.12    0.01
  -1   1   8    0.12    0.01
  -1  -1   8    0.10    0.01
   1   1  -8    0.09    0.01
  -1   1   7    2.65    0.07
   1   1  -7    2.75    0.07
   1  -1  -7    2.65    0.07
   1   1  -6    5.52    0.13
  -1  -1   6    5.18    0.13
   1  -1  -6    5.47    0.13
   1   1  -6    5.47    0.12
  -1   1   6    5.67    0.13
   1   1  -5    9.86    0.21
  -1  -1   5    9.19    0.22
  -1   1   5   10.18    0.22
   1  -1  -5    9.70    0.22
   1   1  -5    9.78    0.22
   1   1  -4    0.97    0.03
  -1  -1   4    1.00    0.02
  -1   1   4    0.99    0.03
   1  -1  -4    1.03    0.03
   1   1  -4    0.93    0.02
   1  -1  -4    0.97    0.03
   1   1  -3    0.08    0.01
   1  -1  -3    0.08    0.01
  -1  -1   3    0.08    0.00
   1  -1  -3    0.09    0.01
  -1   1   3    0.08    0.01
   1   1  -2    0.00    0.00
   1  -1  -2    0.01    0.00
  -1   1   2    0.01    0.00
   1  -1  -2    0.00    0.00
   1  -1  -2    0.00    0.01
   1  -1  -1    1.78    0.05
  -1   1   1    1.71    0.04
   1  -1  -1    1.73    0.04
   1  -1  -1    1.83    0.05
   1   1  -1    1.73    0.04
   1  -1   0    1.28    0.03
   1  -1   0    1.31    0.03
  -1   1   0    1.23    0.03
  -1  -1   0    1.19    0.03
  -1  -1  -1    0.06    0.01
   1   1   1    0.07    0.01
  -1   1  -1    0.06    0.01
   1   1   2    0.04    0.01
  -1  -1  -2    0.04    0.01
  -1   1  -2    0.04    0.01
   1  -1   2    0.05    0.01
   1  -1   3    3.15    0.08
   1   1   3    3.20    0.08
  -1  -1  -3    3.19    0.08
  -1   1  -3    3.30    0.08
  -1   1  -4    5.25    0.12
  -1  -1  -4    5.22    0.12
   1  -1   4    5.01    0.12
   1   1   4    5.25    0.12
   1  -1   5    9.57    0.22
   1   1   5    9.50    0.21
  -1  -1  -5    9.43    0.21
  -1   1  -5    9.60    0.21
  -1   1  -6    0.85    0.03
  -1  -1  -6    0.87    0.03
   1   1   6    0.90    0.03
   1  -1   6    0.87    0.03
  -1  -1  -7    1.09    0.04
  -1   1  -7    1.09    0.04
   1  -1   7    1.04    0.04
   1   1   7    1.11    0.04
   1   1   8    1.13    0.04
  -1  -1  -8    1.06    0.04
  -1   1  -8    1.04    0.04
   1  -1   8    1.02    0.04
   1  -1   9    0.14    0.01
  -1  -1  -9    0.14    0.01
   1   1   9    0.14    0.01
  -1   1  -9    0.14    0.01
  -1  -1 -10    1.66    0.05
   1   1  10    1.70    0.06
  -1   1 -10    1.73    0.05
   1  -1  10    1.66    0.06
   1   1  11    4.50    0.12
  -1  -1 -11    4.37    0.11
   1  -1  11    4.35    0.12
  -1   1 -11    4.39    0.11
  -1   1 -12    1.26    0.05
   1  -1  12    1.29    0.05
  -1  -1 -12    1.25    0.05
   1   1  12    1.35    0.05
   1   1  13    0.07    0.01
  -1  -1 -13    0.05    0.01
  -1   1 -13    0.05    0.01
   1  -1  13    0.07    0.01
   1  -1  14    0.09    0.01
   1   1  14    0.07    0.01
  -1   1 -14    0.09    0.01
  -1  -1 -14    0.09    0.01
  -1  -1 -15    1.52    0.05
   1  -1  15    1.39    0.06
   1   1  15    1.49    0.06
  -1   1 -15    1.46    0.05
   1   1  16    0.09    0.02
   1  -1  16    0.08    0.02
   1  -1  17    0.16    0.02
   1   1  17    0.15    0.02
   1   1  18    0.22    0.02
   1  -1  18    0.19    0.02
   1  -1  19    0.21    0.02
   1   1  19    0.23    0.03
   1   1  20    0.82    0.05
   1  -1  20    0.83    0.05
   1  -1  21    2.45    0.09
   1   1  21    2.39    0.09
   1   1  22    0.49    0.04
   1  -1  22    0.48    0.04
   1  -1  23    0.01    0.01
   1   1  23   -0.01    0.02
   1  -1  24    0.45    0.04
   1   1  24    0.43    0.04
   1   1  25    0.08    0.02
   1  -1  25    0.11    0.02
   1  -1  26   -0.01    0.02
   1   1  26    0.01    0.02
   1   1  27    0.02    0.02
   1  -1  27    0.00    0.02
   1   1  28    0.10    0.03
   1  -1  28    0.13    0.03
   1   1  29    0.02    0.02
   1  -1  29    0.01    0.02
   1  -1  30    0.00    0.02
   1   1  30    0.01    0.02
  -1  -2  31    0.04    0.02
  -1  -2  30   -0.02    0.02
  -1   2  30   -0.01    0.02
  -1  -2  29    0.18    0.03
  -1  -2  27    0.01    0.02
  -1   2  27   -0.01    0.02
  -1  -2  26    0.03    0.02
  -1   2  26    0.05    0.02
  -1  -2  25    0.49    0.04
  -1   2  25    0.45    0.04
  -1   2  24    0.60    0.04
  -1  -2  24    0.65    0.04
  -1  -2  23    1.17    0.06
  -1   2  23    1.31    0.06
  -1  -2  22    0.02    0.02
  -1   2  22    0.05    0.02
  -1   2  21    0.80    0.04
  -1  -2  21    0.74    0.04
  -1  -2  20    0.58    0.04
  -1   2  20    0.60    0.04
  -1  -2  19    0.29    0.03
  -1   2  19    0.28    0.03
  -1   2  18    0.19    0.02
  -1  -2  18    0.18    0.02
  -1  -2  17    0.94    0.05
  -1   2  17    1.04    0.05
   1  -2 -16    0.36    0.03
   1   2 -16    0.39    0.03
  -1  -2  16    0.29    0.02
  -1   2  16    0.29    0.02
  -1   2  15    0.09    0.01
   1   2 -15    0.12    0.02
   1  -2 -15    0.13    0.02
  -1  -2  15    0.10    0.01
   1   2 -14    0.00    0.01
  -1   2  14    0.00    0.01
   1  -2 -14    0.00    0.01
  -1  -2  14    0.01    0.01
   1  -2 -13    0.92    0.04
   1   2 -13    0.93    0.04
  -1  -2  13    0.82    0.04
  -1   2  13    0.79    0.04
  -1   2  12    0.00    0.01
  -1  -2  12   -0.01    0.01
   1   2 -12    0.00    0.00
   1   2 -12    0.00    0.01
   1  -2 -12   -0.01    0.01
   1  -2 -11    2.00    0.07
  -1  -2  11    1.76    0.07
   1   2 -11    1.91    0.05
   1   2 -11    1.89    0.06
   1   2 -10    1.12    0.04
  -1  -2  10    0.98    0.04
   1   2 -10    1.06    0.03
   1  -2 -10    1.01    0.04
  -1   2  10    1.07    0.05
  -1  -2   9    0.02    0.01
   1   2  -9    0.03    0.01
   1   2  -9    0.04    0.01
  -1   2   9    0.01    0.01
   1  -2  -9    0.03    0.01
   1   2  -8    1.05    0.04
   1  -2  -8    1.19    0.04
   1   2  -8    1.15    0.03
  -1   2   8    1.12    0.04
  -1  -2   8    1.10    0.04
  -1   2   7    8.88    0.21
   1   2  -7    8.99    0.20
  -1  -2   7    8.68    0.21
   1   2  -7    8.58    0.20
   1  -2  -7    8.76    0.21
   1  -2  -6    0.79    0.03
   1  -2  -6    0.74    0.03
   1   2  -6    0.76    0.03
  -1  -2   6    0.77    0.02
   1   2  -6    0.71    0.03
  -1   2   6    0.79    0.03
  -1  -2   6    0.77    0.03
   1   2  -5    2.38    0.06
   1   2  -5    2.27    0.06
  -1  -2   5    2.33    0.06
  -1   2   5    2.34    0.06
   1  -2  -5    2.46    0.07
   1  -2  -5    2.29    0.06
  -1  -2   5    2.30    0.06
   1   2  -4    1.77    0.05
  -1  -2   4    1.85    0.05
   1   2  -4    1.78    0.05
   1  -2  -4    1.77    0.05
  -1  -2   4    1.74    0.05
  -1   2   4    1.82    0.05
   1  -2  -4    1.84    0.05
  -1   2   3    1.07    0.03
   1  -2  -3    1.09    0.04
   1  -2  -3    1.06    0.03
  -1  -2   3    1.09    0.03
   1  -2  -3    1.04    0.04
  -1  -2   3    1.04    0.03
   1   2  -3    0.97    0.03
  -1  -2   2    0.04    0.01
   1  -2  -2    0.05    0.01
  -1   2   2    0.04    0.01
   1   2  -2    0.05    0.01
   1  -2  -2    0.04    0.01
   1  -2  -2    0.05    0.01
  -1  -2   2    0.04    0.01
   1  -2  -1    0.02    0.01
  -1   2   1    0.02    0.01
   1   2  -1    0.02    0.00
  -1  -2   1    0.02    0.00
  -1   2   1    0.01    0.01
   1  -2  -1    0.02    0.00
   1  -2  -1    0.03    0.01
  -1  -2   1    0.01    0.00
  -1   2   1    0.02    0.00
  -1  -2   0    0.10    0.01
  -1   2   0    0.10    0.01
  -1   2   0    0.10    0.01
  -1   2   0    0.10    0.01
  -1  -2   0    0.09    0.01
   1  -2   0    0.10    0.01
  -1   2   0    0.08    0.01
  -1   2  -1    0.02    0.01
  -1   2  -1    0.03    0.00
  -1   2  -1    0.03    0.00
  -1   2  -1    0.04    0.01
  -1  -2  -1    0.03    0.00
  -1  -2  -1    0.03    0.00
   1  -2   1    0.04    0.01
  -1  -2  -2    0.09    0.01
  -1   2  -2    0.09    0.01
   1  -2   2    0.09    0.01
  -1   2  -2    0.10    0.01
   1   2   2    0.09    0.01
  -1  -2  -3    2.44    0.06
   1  -2   3    2.52    0.06
  -1   2  -3    2.51    0.07
  -1   2  -3    2.38    0.06
   1   2   3    2.52    0.06
   1  -2   4    0.22    0.01
   1   2   4    0.21    0.01
  -1  -2  -4    0.20    0.01
  -1   2  -4    0.23    0.01
  -1   2  -4    0.19    0.01
  -1   2  -5    6.06    0.14
   1   2   5    5.64    0.13
  -1  -2  -5    5.62    0.13
  -1   2  -5    5.65    0.13
   1  -2   5    5.87    0.14
  -1   2  -6    2.81    0.07
  -1   2  -6    2.90    0.08
  -1  -2  -6    2.86    0.07
   1  -2   6    2.82    0.07
   1   2   6    2.74    0.07
  -1   2  -7    4.77    0.12
   1  -2   7    4.71    0.12
   1   2   7    4.73    0.12
  -1  -2  -7    4.82    0.12
   1   2   8    0.00    0.01
   1  -2   8    0.00    0.01
  -1  -2  -8    0.00    0.01
  -1   2  -8    0.00    0.01
  -1   2  -9    4.61    0.12
   1   2   9    4.80    0.12
   1  -2   9    4.83    0.12
  -1  -2  -9    4.87    0.12
   1   2  10    0.87    0.04
  -1  -2 -10    0.83    0.03
   1  -2  10    0.86    0.04
  -1   2 -10    0.83    0.03
   1  -2  11    1.25    0.05
  -1   2 -11    1.20    0.04
   1   2  11    1.22    0.05
  -1  -2 -11    1.27    0.04
   1   2  12    0.35    0.02
  -1   2 -12    0.36    0.02
  -1  -2 -12    0.39    0.02
   1  -2  12    0.38    0.02
  -1  -2 -13    1.50    0.05
  -1   2 -13    1.45    0.05
   1  -2  13    1.51    0.06
   1   2  13    1.53    0.06
   1  -2  14    0.30    0.02
   1   2  14    0.28    0.02
  -1   2 -14    0.24    0.02
  -1   2 -14    0.25    0.02
  -1  -2 -14    0.26    0.02
   1  -2  15    0.88    0.04
  -1   2 -15    0.81    0.05
  -1  -2 -15    0.83    0.05
   1   2  15    0.83    0.04
   1   2  16    0.21    0.02
   1  -2  16    0.20    0.02
   1  -2  17    0.99    0.05
   1   2  17    1.02    0.05
   1   2  18    0.00    0.01
   1  -2  18    0.00    0.01
   1  -2  19    0.46    0.03
   1   2  19    0.43    0.03
   1  -2  20    0.21    0.03
   1   2  20    0.20    0.03
   1  -2  21    0.95    0.05
   1   2  21    0.94    0.05
   1  -2  22    0.65    0.04
   1   2  22    0.70    0.04
   1   2  23    2.78    0.10
   1  -2  23    2.78    0.10
   1  -2  24    0.20    0.03
   1   2  24    0.22    0.03
   1  -2  25    0.10    0.02
   1   2  25    0.08    0.02
   1   2  26    0.06    0.02
   1  -2  26    0.07    0.02
   1   2  27    0.47    0.04
   1  -2  27    0.57    0.04
   1   2  28    0.00    0.02
   1  -2  28    0.01    0.02
   1  -2  29    0.14    0.03
   1   2  29    0.15    0.03
   1   2  30   -0.01    0.03
   1  -2  30   -0.02    0.02
  -1   3  30    0.04    0.02
  -1  -3  30    0.04    0.02
  -1  -3  29    0.00    0.02
  -1   3  29    0.00    0.02
  -1  -3  28    0.06    0.02
  -1   3  28    0.06    0.02
  -1  -3  27    0.01    0.02
  -1  -3  26    0.17    0.03
  -1   3  25    0.00    0.01
  -1  -3  25   -0.01    0.02
  -1   3  24    0.03    0.02
  -1  -3  24    0.04    0.02
  -1  -3  23   -0.01    0.01
  -1   3  23   -0.01    0.01
  -1   3  22    4.28    0.13
  -1  -3  22    4.28    0.13
  -1   3  21    0.61    0.04
  -1  -3  21    0.52    0.04
  -1  -3  20    0.31    0.03
  -1   3  20    0.29    0.03
  -1   3  19    0.07    0.02
  -1  -3  19    0.07    0.02
   1   3 -19    0.07    0.01
   1   3 -18    0.09    0.01
  -1  -3  18    0.10    0.02
  -1   3  18    0.10    0.02
   1   3 -17    0.08    0.01
  -1  -3  17    0.07    0.01
  -1   3  17    0.07    0.02
   1   3 -16    1.74    0.07
   1   3 -16    1.64    0.05
  -1  -3  16    1.64    0.06
  -1   3  16    1.76    0.06
   1   3 -15    0.06    0.01
  -1  -3  15    0.05    0.01
  -1   3  15    0.06    0.01
  -1   3  14    0.67    0.03
   1   3 -14    0.65    0.03
   1   3 -14    0.68    0.04
   1  -3 -14    0.63    0.04
  -1  -3  14    0.60    0.03
   1   3 -13    0.07    0.01
  -1  -3  13    0.06    0.01
   1  -3 -13    0.09    0.02
   1   3 -13    0.06    0.01
  -1   3  13    0.07    0.01
  -1   3  12    3.83    0.10
   1   3 -12    3.94    0.10
   1   3 -12    3.97    0.11
   1  -3 -12    3.81    0.11
  -1  -3  12    3.67    0.10
  -1   3  11    0.28    0.02
  -1  -3  11    0.30    0.02
   1  -3 -11    0.30    0.02
   1   3 -11    0.30    0.02
   1   3 -11    0.34    0.02
   1   3 -10    0.06    0.01
  -1  -3  10    0.06    0.01
   1  -3 -10    0.08    0.01
  -1   3  10    0.06    0.01
   1   3 -10    0.09    0.01
   1  -3  -9    0.03    0.01
  -1   3   9    0.02    0.01
   1   3  -9    0.03    0.01
   1   3  -9    0.03    0.01
  -1  -3   9    0.01    0.01
  -1  -3   9    0.02    0.01
   1  -3  -8    0.45    0.03
   1   3  -8    0.49    0.02
   1   3  -8    0.50    0.02
   1  -3  -8    0.46    0.02
  -1  -3   8    0.48    0.03
  -1  -3   7    0.05    0.01
   1   3  -7    0.05    0.01
   1  -3  -7    0.05    0.01
   1  -3  -7    0.05    0.01
   1   3  -7    0.06    0.01
  -1  -3   7    0.06    0.01
   1   3  -6   13.66    0.30
   1   3  -6   12.94    0.29
  -1   3   6   13.58    0.30
   1  -3  -6   13.17    0.30
  -1  -3   6   12.94    0.29
  -1  -3   6   13.08    0.30
   1  -3  -6   12.67    0.29
  -1  -3   5    2.08    0.06
  -1   3   5    2.10    0.06
   1  -3  -5    2.05    0.06
  -1  -3   5    1.96    0.06
   1  -3  -5    1.93    0.05
   1   3  -5    1.99    0.05
   1  -3  -5    2.07    0.07
  -1   3   4    1.44    0.04
   1  -3  -4    1.38    0.04
  -1  -3   4    1.45    0.04
   1   3  -4    1.41    0.04
   1   3  -4    1.34    0.04
   1  -3  -4    1.42    0.05
  -1  -3   4    1.32    0.04
   1  -3  -3    0.05    0.01
   1  -3  -3    0.04    0.00
  -1  -3   3    0.04    0.01
   1  -3  -3    0.04    0.01
  -1  -3   3    0.04    0.01
   1   3  -3    0.04    0.01
  -1   3   3    0.04    0.01
   1   3  -2    0.00    0.00
  -1  -3   2    0.01    0.01
  -1   3   2    0.01    0.00
   1  -3  -2    0.00    0.01
   1  -3  -2    0.00    0.01
  -1  -3   2    0.00    0.00
   1  -3  -2    0.00    0.00
  -1   3   1    0.10    0.01
  -1   3   1    0.08    0.01
  -1   3   1    0.09    0.01
   1  -3  -1    0.10    0.01
   1  -3  -1    0.11    0.02
  -1  -3   1    0.10    0.01
  -1  -3   1    0.12    0.01
  -1  -3   1    0.09    0.01
  -1   3   0    1.08    0.03
  -1   3   0    1.09    0.04
  -1  -3   0    1.08    0.04
  -1   3   0    1.08    0.03
  -1  -3   0    1.12    0.03
  -1  -3   0    1.02    0.03
  -1   3   0    1.07    0.05
  -1  -3   0    1.01    0.04
  -1  -3  -1    0.32    0.01
  -1   3  -1    0.32    0.01
  -1  -3  -1    0.35    0.01
  -1   3  -1    0.32    0.02
  -1   3  -1    0.34    0.02
  -1  -3  -2    0.07    0.01
  -1   3  -2    0.05    0.01
  -1  -3  -2    0.06    0.01
  -1   3  -2    0.06    0.01
  -1   3  -2    0.06    0.01
  -1   3  -2    0.07    0.01
  -1   3  -3    0.09    0.01
  -1   3  -3    0.11    0.02
  -1   3  -3    0.09    0.01
   1   3   3    0.08    0.01
   1  -3   3    0.08    0.01
  -1  -3  -3    0.09    0.01
   1   3   4   12.86    0.28
  -1  -3  -4   12.83    0.28
   1  -3   4   12.76    0.28
  -1   3  -4   13.00    0.29
  -1   3  -4   12.25    0.28
   1  -3   5    0.27    0.02
   1   3   5    0.29    0.02
  -1  -3  -5    0.30    0.01
  -1   3  -5    0.26    0.01
  -1   3  -5    0.31    0.02
   1  -3   6    1.01    0.03
  -1   3  -6    1.07    0.03
  -1  -3  -6    1.03    0.03
  -1   3  -6    1.11    0.04
   1   3   6    1.00    0.03
   1   3   7    0.12    0.01
  -1   3  -7    0.15    0.01
   1  -3   7    0.12    0.01
  -1   3  -7    0.14    0.01
  -1  -3  -7    0.13    0.01
  -1   3  -8    3.03    0.08
   1   3   8    3.07    0.08
  -1  -3  -8    3.22    0.08
  -1   3  -8    3.13    0.09
   1  -3   8    3.03    0.08
  -1  -3  -9    0.07    0.01
   1   3   9    0.09    0.01
   1  -3   9    0.10    0.01
  -1   3  -9    0.09    0.01
  -1   3  -9    0.09    0.01
   1   3  10    3.94    0.11
  -1  -3 -10    4.04    0.10
  -1   3 -10    4.04    0.11
  -1   3 -10    4.17    0.10
   1  -3  10    3.97    0.11
  -1   3 -11    0.89    0.03
  -1   3 -11    0.92    0.04
   1  -3  11    0.92    0.04
   1   3  11    0.91    0.04
  -1  -3 -11    0.90    0.04
   1   3  12    2.48    0.08
  -1   3 -12    2.63    0.08
   1  -3  12    2.45    0.08
  -1   3 -12    2.41    0.07
  -1   3 -13    0.01    0.01
   1  -3  13    0.00    0.01
  -1  -3 -13    0.00    0.01
   1   3  13    0.00    0.01
  -1   3 -13    0.01    0.01
  -1  -3 -14    0.31    0.03
  -1   3 -14    0.27    0.03
   1   3  14    0.29    0.02
  -1   3 -14    0.28    0.02
   1  -3  14    0.26    0.02
   1  -3  15   -0.01    0.01
  -1   3 -15   -0.01    0.01
   1   3  15   -0.01    0.01
  -1  -3 -15    0.00    0.01
   1  -3  16    0.13    0.03
   1   3  16    0.17    0.03
   1  -3  17    0.09    0.02
   1   3  17    0.04    0.02
   1   3  18    1.02    0.05
   1  -3  18    1.00    0.05
   1   3  19    0.02    0.01
   1  -3  19    0.00    0.01
   1   3  20    2.81    0.10
   1  -3  20    2.74    0.10
   1  -3  21    0.01    0.01
   1   3  21    0.02    0.01
   1  -3  22    0.94    0.05
   1   3  22    0.95    0.05
   1   3  23    0.04    0.02
   1  -3  23    0.03    0.02
   1  -3  24    1.37    0.07
   1   3  24    1.34    0.07
   1  -3  25    0.04    0.02
   1   3  25    0.03    0.02
   1  -3  26    0.05    0.02
   1   3  26    0.03    0.02
   1  -3  27    0.05    0.02
   1   3  27    0.05    0.02
   1  -3  28    0.15    0.03
   1   3  28    0.16    0.03
   1   3  29    0.02    0.02
   1  -3  29    0.02    0.02
   1  -3  30    0.03    0.02
  -1  -4  30    0.03    0.02
  -1  -4  29    0.06    0.02
  -1   4  29    0.08    0.02
  -1  -4  28    0.00    0.02
  -1   4  28    0.00    0.02
  -1  -4  27    0.02    0.02
  -1   4  27    0.05    0.02
  -1   4  26    0.02    0.02
  -1  -4  26    0.00    0.02
  -1  -4  25    0.20    0.03
  -1   4  25    0.24    0.03
  -1   4  24    1.15    0.06
  -1  -4  24    1.08    0.05
  -1  -4  23    0.47    0.04
  -1  -4  22    0.07    0.02
  -1   4  21    0.43    0.03
  -1   4  20    0.05    0.02
  -1  -4  20    0.04    0.01
  -1   4  19    0.01    0.01
  -1  -4  19    0.02    0.01
   1   4 -18    0.58    0.03
  -1   4  18    0.62    0.04
  -1  -4  18    0.59    0.03
   1   4 -17    1.23    0.05
  -1  -4  17    1.21    0.05
  -1   4  17    1.27    0.05
  -1  -4  16    0.05    0.02
   1   4 -16    0.04    0.01
   1   4 -15    0.05    0.01
   1  -4 -15    0.04    0.02
  -1  -4  15    0.07    0.01
  -1   4  15    0.04    0.01
  -1  -4  14    0.23    0.02
  -1   4  14    0.20    0.02
   1  -4 -14    0.23    0.02
   1   4 -14    0.21    0.02
  -1   4  13    0.42    0.03
   1   4 -13    0.46    0.02
   1  -4 -13    0.41    0.03
  -1  -4  13    0.37    0.02
  -1  -4  12    0.01    0.01
   1   4 -12    0.01    0.01
   1   4 -12    0.00    0.01
   1  -4 -12   -0.01    0.01
   1  -4 -12    0.00    0.01
  -1   4  12   -0.01    0.01
   1   4 -11    0.90    0.04
   1  -4 -11    0.92    0.05
   1   4 -11    0.98    0.04
  -1  -4  11    0.85    0.04
  -1   4  11    0.91    0.04
   1  -4 -11    0.92    0.04
   1  -4 -10    0.46    0.03
   1   4 -10    0.40    0.02
   1  -4 -10    0.45    0.03
   1   4 -10    0.51    0.02
  -1   4  10    0.43    0.02
  -1  -4  10    0.37    0.02
  -1  -4   9    0.01    0.01
  -1   4   9    0.01    0.01
   1   4  -9    0.02    0.01
   1  -4  -9    0.02    0.01
   1   4  -9    0.03    0.01
   1  -4  -9    0.01    0.01
   1  -4  -8    2.07    0.06
   1   4  -8    2.03    0.06
   1   4  -8    2.26    0.07
  -1  -4   8    2.10    0.06
   1  -4  -8    2.07    0.07
  -1   4   8    2.12    0.06
  -1  -4   8    1.98    0.06
   1  -4  -7    3.14    0.10
   1  -4  -7    3.21    0.08
   1   4  -7    3.08    0.08
  -1  -4   7    3.32    0.08
   1   4  -7    3.34    0.09
  -1   4   7    3.37    0.08
   1  -4  -7    3.36    0.11
   1   4  -7    3.21    0.09
   1   4  -6    0.12    0.01
   1   4  -6    0.10    0.01
  -1   4   6    0.10    0.01
  -1  -4   6    0.11    0.01
   1  -4  -6    0.10    0.01
   1  -4  -6    0.14    0.02
   1  -4  -6    0.12    0.02
  -1  -4   6    0.11    0.01
   1  -4  -5    0.36    0.02
   1  -4  -5    0.34    0.03
  -1  -4   5    0.36    0.02
   1  -4  -5    0.34    0.01
  -1  -4   5    0.32    0.01
   1   4  -5    0.32    0.01
  -1   4   5    0.34    0.01
   1  -4  -4    0.47    0.03
  -1  -4   4    0.41    0.01
  -1  -4   4    0.40    0.02
   1  -4  -4    0.45    0.02
   1  -4  -4    0.42    0.03
   1   4  -4    0.40    0.01
  -1   4   4    0.44    0.02
  -1  -4   3    1.76    0.04
  -1   4   3    1.89    0.05
  -1  -4   3    1.91    0.04
  -1  -4   3    1.87    0.06
   1  -4  -3    2.01    0.08
   1  -4  -3    1.80    0.06
  -1  -4   2    0.28    0.02
  -1   4   2    0.28    0.01
   1  -4  -2    0.30    0.03
  -1   4   2    0.26    0.01
  -1  -4   2    0.26    0.01
  -1  -4   1    0.57    0.03
  -1  -4   0    0.91    0.04
  -1   4   0    0.93    0.04
  -1  -4  -1    0.16    0.02
  -1  -4  -1    0.15    0.02
  -1   4  -1    0.12    0.02
  -1  -4  -1    0.12    0.01
  -1   4  -1    0.18    0.02
  -1  -4  -2    0.13    0.02
   1  -4   2    0.10    0.01
  -1  -4  -2    0.15    0.02
  -1  -4  -2    0.14    0.01
  -1   4  -2    0.15    0.02
  -1   4  -2    0.15    0.02
  -1   4  -3    1.41    0.04
   1  -4   3    1.40    0.05
  -1   4  -3    1.44    0.06
  -1   4  -3    1.45    0.04
  -1  -4  -3    1.52    0.04
  -1   4  -3    1.40    0.05
  -1  -4  -3    1.37    0.05
  -1   4  -4    0.09    0.01
   1  -4   4    0.10    0.01
   1   4   4    0.07    0.01
  -1   4  -4    0.11    0.02
  -1   4  -4    0.09    0.01
   1  -4   5    1.90    0.06
  -1   4  -5    1.99    0.06
  -1   4  -5    2.12    0.08
   1   4   5    2.02    0.05
   1  -4   5    1.99    0.05
  -1   4  -5    2.11    0.07
   1  -4   6    3.01    0.08
  -1   4  -6    3.10    0.10
   1   4   6    3.01    0.08
  -1   4  -6    3.05    0.08
  -1   4  -6    3.13    0.09
   1   4   7    1.59    0.05
  -1   4  -7    1.69    0.05
  -1   4  -7    1.76    0.06
   1  -4   7    1.65    0.05
  -1   4  -8    0.11    0.01
   1   4   8    0.10    0.01
   1  -4   8    0.09    0.01
  -1   4  -8    0.09    0.01
  -1  -4  -8    0.07    0.01
   1   4   9    1.41    0.05
  -1   4  -9    1.50    0.05
  -1   4  -9    1.52    0.05
   1  -4   9    1.35    0.05
   1  -4  10    0.15    0.01
   1   4  10    0.16    0.01
  -1   4 -10    0.12    0.02
  -1  -4 -10    0.16    0.02
   1  -4  11    0.01    0.01
  -1   4 -11    0.01    0.01
   1   4  11    0.00    0.01
  -1  -4 -11    0.00    0.01
   1   4  12    0.30    0.02
  -1  -4 -12    0.32    0.03
  -1   4 -12    0.32    0.03
   1  -4  12    0.29    0.02
   1  -4  13    1.47    0.05
  -1  -4 -13    1.47    0.06
   1   4  13    1.49    0.05
   1   4  14    0.01    0.01
   1  -4  14    0.01    0.01
  -1   4 -14    0.01    0.01
   1  -4  15    0.01    0.01
   1   4  15    0.00    0.01
  -1   4 -15    0.00    0.01
   1   4  16    2.25    0.08
   1  -4  16    2.10    0.07
   1   4  17    0.73    0.04
   1  -4  17    0.68    0.04
   1  -4  18    0.04    0.01
   1   4  18    0.08    0.02
   1   4  19    0.43    0.03
   1  -4  19    0.42    0.03
   1  -4  20    0.31    0.03
   1   4  20    0.32    0.03
   1   4  21    0.30    0.03
   1  -4  21    0.26    0.03
   1  -4  22    1.41    0.07
   1   4  22    1.54    0.07
   1  -4  23    0.87    0.05
   1   4  23    1.03    0.05
   1   4  24    0.21    0.03
   1  -4  24    0.16    0.03
   1  -4  25   -0.01    0.02
   1   4  25   -0.02    0.02
   1   4  26    0.08    0.02
   1  -4  26    0.06    0.02
   1   4  27    0.00    0.02
   1  -4  27    0.00    0.02
   1  -4  28    0.06    0.02
   1   4  28    0.08    0.03
   1   4  29    0.13    0.03
   1  -4  29    0.08    0.02
  -1   5  28    0.00    0.02
  -1   5  27    0.34    0.04
  -1  -5  27    0.35    0.04
  -1   5  26    0.29    0.03
  -1  -5  26    0.24    0.03
  -1   5  25    0.56    0.04
  -1  -5  25    0.50    0.04
  -1   5  24    0.00    0.02
  -1  -5  24    0.00    0.02
  -1  -5  23    0.84    0.05
  -1   5  23    0.93    0.05
  -1   5  22    0.14    0.02
  -1  -5  22    0.19    0.02
  -1   5  21    1.14    0.05
  -1  -5  21    1.06    0.05
  -1   5  20    0.03    0.02
  -1  -5  20    0.04    0.02
  -1  -5  19    0.22    0.02
  -1   5  19    0.26    0.03
   1  -5 -19    0.28    0.03
  -1  -5  18    0.01    0.01
  -1   5  18    0.00    0.01
   1  -5 -18    0.02    0.02
   1  -5 -17    0.12    0.02
  -1   5  17    0.11    0.02
  -1  -5  17    0.08    0.02
  -1  -5  16    0.08    0.01
  -1   5  16    0.11    0.02
   1  -5 -16    0.08    0.02
  -1   5  15    0.68    0.03
   1  -5 -15    0.58    0.04
  -1  -5  15    0.55    0.03
   1  -5 -15    0.57    0.03
   1  -5 -14    0.12    0.02
  -1   5  14    0.19    0.02
  -1  -5  14    0.16    0.02
   1  -5 -14    0.15    0.02
   1  -5 -13    0.60    0.04
   1   5 -13    0.56    0.03
  -1  -5  13    0.58    0.03
   1  -5 -13    0.57    0.03
   1  -5 -12    0.44    0.03
   1  -5 -12    0.36    0.02
  -1  -5  12    0.37    0.02
   1   5 -12    0.38    0.02
   1  -5 -11    2.97    0.11
   1  -5 -11    2.99    0.10
   1   5 -11    2.85    0.08
   1   5 -11    2.77    0.09
  -1  -5  11    2.92    0.08
   1  -5 -11    2.76    0.08
   1  -5 -10    0.90    0.05
  -1  -5  10    0.88    0.03
  -1   5  10    0.93    0.03
   1  -5 -10    0.90    0.03
   1   5 -10    0.87    0.03
   1   5 -10    0.85    0.04
   1  -5 -10    0.95    0.06
   1   5  -9    1.83    0.05
   1  -5  -9    2.03    0.06
  -1  -5   9    1.98    0.05
   1  -5  -9    2.08    0.08
   1  -5  -9    2.10    0.09
   1   5  -9    1.80    0.06
  -1   5   9    2.14    0.06
   1  -5  -8    0.09    0.02
   1  -5  -8    0.06    0.02
  -1   5   8    0.06    0.01
   1   5  -8    0.06    0.01
   1   5  -8    0.05    0.01
   1  -5  -8    0.05    0.01
  -1  -5   8    0.07    0.01
  -1  -5   8    0.05    0.01
  -1   5   7    1.27    0.04
   1  -5  -7    1.40    0.07
   1   5  -7    1.31    0.04
   1  -5  -7    1.29    0.06
  -1  -5   7    1.25    0.04
  -1  -5   7    1.20    0.05
   1  -5  -6    0.53    0.03
   1   5  -6    0.59    0.02
  -1  -5   6    0.64    0.03
  -1   5   6    0.61    0.02
  -1  -5   6    0.58    0.02
   1  -5  -6    0.62    0.04
   1  -5  -6    0.63    0.02
   1  -5  -5    6.30    0.17
   1  -5  -5    6.64    0.19
  -1  -5   5    6.24    0.16
  -1   5   5    6.13    0.14
  -1  -5   4    0.04    0.01
   1  -5  -4    0.04    0.02
   1  -5  -3    0.01    0.01
  -1  -5   3    0.01    0.01
  -1  -5   2    0.01    0.01
  -1  -5   1    0.09    0.02
   1  -5   0    0.59    0.03
  -1  -5   0    0.65    0.03
  -1  -5  -1    0.65    0.03
   1  -5   1    0.54    0.03
  -1  -5  -1    0.60    0.03
   1  -5   2    0.00    0.01
  -1  -5  -2    0.00    0.01
  -1  -5  -2    0.00    0.01
  -1   5  -3    0.75    0.04
   1  -5   3    0.69    0.04
  -1  -5  -3    0.79    0.04
  -1  -5  -3    0.69    0.04
  -1  -5  -4    1.32    0.06
  -1  -5  -4    1.24    0.03
  -1  -5  -4    1.27    0.03
  -1   5  -4    1.50    0.06
  -1  -5  -4    1.53    0.06
   1  -5   5    5.93    0.16
  -1  -5  -5    5.90    0.17
  -1  -5  -5    6.18    0.14
  -1  -5  -5    6.38    0.14
  -1  -5  -5    6.33    0.17
  -1   5  -5    6.53    0.17
  -1   5  -6    0.32    0.01
  -1  -5  -6    0.34    0.02
  -1   5  -6    0.34    0.03
  -1  -5  -6    0.36    0.03
  -1   5  -6    0.33    0.01
  -1   5  -7    1.13    0.05
   1  -5   7    0.98    0.03
  -1  -5  -7    0.90    0.05
  -1  -5  -7    1.08    0.04
  -1   5  -7    1.01    0.03
   1   5   7    0.94    0.03
  -1   5  -8    0.51    0.02
  -1   5  -8    0.53    0.04
  -1  -5  -8    0.55    0.03
   1   5   8    0.47    0.02
   1  -5   8    0.48    0.02
  -1   5  -9    0.05    0.02
  -1   5  -9    0.03    0.01
   1   5   9    0.02    0.01
  -1  -5  -9    0.04    0.01
   1  -5   9    0.03    0.01
   1  -5  10    0.26    0.02
  -1   5 -10    0.29    0.02
   1   5  10    0.24    0.02
  -1  -5 -10    0.29    0.02
   1   5  11    3.02    0.08
  -1  -5 -11    3.09    0.09
   1  -5  11    3.03    0.08
  -1   5 -11    3.19    0.09
   1   5  12    0.00    0.01
   1  -5  12    0.00    0.01
  -1   5 -12   -0.02    0.02
  -1  -5 -12   -0.02    0.02
   1   5  13    0.16    0.02
   1  -5  13    0.15    0.02
   1   5  14    0.10    0.01
   1  -5  14    0.11    0.02
  -1  -5 -14    0.10    0.02
   1   5  15    0.13    0.02
   1  -5  15    0.14    0.02
  -1  -5 -15    0.13    0.02
   1   5  16    0.22    0.02
   1  -5  16    0.15    0.02
   1   5  17    0.04    0.01
   1  -5  17    0.01    0.01
   1   5  18    0.17    0.02
   1  -5  18    0.14    0.02
   1  -5  19    0.13    0.02
   1   5  19    0.15    0.02
   1   5  20    0.55    0.04
   1  -5  20    0.51    0.04
   1  -5  21    1.84    0.08
   1   5  21    2.09    0.08
   1  -5  22    0.02    0.02
   1   5  22    0.00    0.02
   1  -5  23    0.01    0.02
   1   5  23    0.01    0.02
   1  -5  24    0.22    0.03
   1   5  24    0.23    0.03
   1  -5  25    0.07    0.02
   1   5  25    0.05    0.02
   1  -5  26    0.03    0.02
   1   5  26    0.02    0.02
   1  -5  27    0.01    0.02
   1   5  27    0.01    0.02
   1   5  28    0.04    0.02
   1  -5  28    0.07    0.02
   1  -6 -22    0.00    0.02
   1  -6 -21    0.02    0.02
  -1  -6  21    0.02    0.01
   1  -6 -20    0.88    0.06
  -1  -6  20    0.87    0.04
  -1  -6  19    0.04    0.01
   1  -6 -19    0.04    0.02
   1  -6 -18    0.91    0.06
  -1  -6  18    0.90    0.04
   1  -6 -17    0.03    0.02
  -1  -6  17   -0.01    0.01
   1  -6 -16    0.19    0.03
  -1  -6  16    0.16    0.02
   1  -6 -15    0.04    0.02
   1  -6 -15    0.09    0.03
  -1  -6  15    0.04    0.01
   1  -6 -14    0.14    0.02
   1  -6 -14    0.15    0.03
  -1  -6  14    0.09    0.01
   1  -6 -13    0.50    0.05
   1  -6 -13    0.44    0.04
  -1  -6  13    0.42    0.02
  -1  -6  12    0.03    0.01
   1  -6 -12    0.05    0.02
   1  -6 -12    0.02    0.01
   1  -6 -11    0.80    0.05
  -1  -6  11    0.81    0.03
   1  -6 -11    0.80    0.06
   1  -6 -10    0.74    0.05
   1  -6 -10    0.73    0.05
  -1  -6  10    0.75    0.03
   1  -6  -9    0.36    0.03
   1  -6  -9    0.32    0.01
  -1  -6   9    0.34    0.01
   1  -6  -8    1.64    0.07
   1  -6  -8    1.48    0.08
  -1  -6   8    1.47    0.06
   1  -6  -7    0.05    0.02
  -1  -6   7    0.03    0.01
   1  -6  -7    0.04    0.02
   1  -6  -6    0.41    0.04
  -1  -6   6    0.32    0.03
   1  -6  -5    0.01    0.02
  -1  -6   5    0.02    0.01
  -1  -6   4    1.86    0.07
  -1  -6   3    0.01    0.01
   1  -6  -2    0.19    0.02
  -1  -6   2    0.22    0.02
   1  -6  -1    0.11    0.02
  -1  -6   1    0.12    0.02
   1  -6   0    0.24    0.02
  -1  -6   0    0.23    0.02
   1  -6   1    0.03    0.01
  -1  -6  -1    0.02    0.01
   1  -6   2    0.25    0.02
  -1  -6  -2    0.24    0.02
  -1  -6  -3    0.65    0.04
   1  -6   3    0.69    0.04
  -1  -6  -3    0.69    0.04
  -1  -6  -4    0.21    0.03
  -1  -6  -4    0.23    0.03
   1  -6   4    0.19    0.02
  -1  -6  -5    1.95    0.08
  -1  -6  -5    2.01    0.08
   1  -6   5    1.94    0.07
  -1  -6  -6    3.00    0.10
  -1   6  -6    3.17    0.10
  -1  -6  -7    0.03    0.00
  -1   6  -7    0.06    0.02
  -1  -6  -7    0.06    0.02
  -1  -6  -7    0.02    0.01
  -1  -6  -7    0.04    0.01
  -1  -6  -8    0.01    0.01
  -1  -6  -8    0.00    0.00
  -1  -6  -8    0.01    0.01
  -1  -6  -8    0.01    0.01
  -1  -6  -9    0.05    0.02
  -1  -6  -9    0.04    0.01
  -1  -6  -9    0.05    0.02
   1  -6  10    0.35    0.02
  -1  -6 -10    0.46    0.02
   1  -6  11    0.18    0.02
   1  -6  12    0.48    0.03
   1  -6  13    0.07    0.01
   1  -6  14    0.03    0.01
   1  -6  15    0.06    0.01
   1  -6  16    1.45    0.06
   1  -6  17    0.15    0.02
   1  -6  18    0.00    0.01
   1  -6  19    0.23    0.03
   1  -6  20    0.71    0.04
   1  -6  21    1.00    0.05
   1  -7 -20    0.17    0.05
   1  -7 -19    0.29    0.05
   1  -7 -18    0.05    0.03
   1  -7 -17    0.12    0.04
   1  -7 -16    1.36    0.07
   1  -7 -16    1.77    0.10
   1  -7 -15    0.07    0.03
   1  -7 -15    0.07    0.02
   1  -7 -14    0.01    0.02
   1  -7 -14    0.00    0.02
   1  -7 -13    0.74    0.06
   1  -7 -13    0.73    0.05
   1  -7 -12    0.20    0.03
   1  -7 -12    0.17    0.04
   1  -7 -11    0.02    0.02
   1  -7 -11    0.01    0.02
   1  -7 -10    0.49    0.05
   1  -7 -10    0.46    0.04
   1  -7  -9    0.63    0.04
   1  -7  -9    0.65    0.05
   1  -7  -8    0.19    0.03
  -1  -7   8    0.15    0.02
  -1  -7   7    0.13    0.02
   1  -7  -7    0.15    0.03
  -1  -7   6    1.86    0.07
  -1  -7   5    0.93    0.05
  -1  -7   4    0.19    0.02
   1  -7  -4    0.27    0.03
  -1  -7   3    0.17    0.02
   1  -7  -3    0.18    0.02
   1  -7  -2    0.02    0.01
  -1  -7   2    0.02    0.01
   1  -7  -1    0.11    0.02
  -1  -7   1    0.09    0.02
   1  -7   0    1.21    0.06
  -1  -7   0    1.19    0.06
   1  -7   1    0.44    0.03
  -1  -7  -1    0.46    0.03
   1  -7   2    0.02    0.01
  -1  -7  -2    0.02    0.01
  -1  -7  -3    0.79    0.05
   1  -7   4    0.34    0.03
  -1  -7  -4    0.36    0.03
  -1  -7  -5    0.46    0.04
   1  -7   5    0.52    0.04
  -1  -7  -6    1.27    0.06
  -1  -7  -7    0.56    0.04
  -1  -7  -7    0.59    0.04
  -1  -7  -8    0.46    0.04
  -1  -7  -8    0.48    0.04
  -1  -7  -9    0.01    0.01
  -1  -7  -9    0.00    0.02
  -1  -7 -10    0.49    0.05
  -1  -7 -10    0.49    0.04
  -1  -7 -11    0.54    0.05
  -1  -7 -11    0.53    0.04
  -1  -7 -12    0.56    0.05
  -1  -7 -12    0.44    0.04
  -1  -7 -13    0.01    0.02
  -1  -7 -14    0.00    0.02
   1  -8 -16    0.15    0.04
   1  -8 -15    0.21    0.04
   1  -8 -14    0.14    0.04
   1  -8 -13    0.20    0.04
  -1  -8   7    2.49    0.09
   1  -8  -6    0.35    0.04
  -1  -8   6    0.35    0.03
   1  -8  -5    0.71    0.05
  -1  -8   5    0.65    0.04
   1  -8  -4    0.23    0.03
  -1  -8   4    0.28    0.03
   1  -8  -3    0.11    0.02
  -1  -8   3    0.08    0.02
  -1  -8   2    0.09    0.02
   1  -8  -2    0.12    0.02
  -1  -8   1    0.15    0.02
   1  -8  -1    0.12    0.02
   1  -8   0    0.40    0.04
  -1  -8   0    0.39    0.03
  -1  -8  -1    0.16    0.03
   1  -8   1    0.20    0.03
  -1  -8  -2    0.01    0.02
   1  -8   2    0.06    0.02
  -1  -8  -3    0.50    0.04
   1  -8   3    0.49    0.04
  -1  -8  -4    0.17    0.03
   1  -8   4    0.13    0.02
  -1  -8  -5    1.54    0.07
  -1  -8  -6    0.15    0.03
  -1  -8  -7    0.91    0.06
  -1  -8  -8    0.03    0.02
  -2   0  31    0.00    0.02
  -2   0  30    0.03    0.02
  -2   0  29    0.00    0.02
  -2   0  28   -0.03    0.02
  -2   0  27    0.01    0.01
  -2   0  26    1.76    0.07
  -2   0  25    0.03    0.01
  -2   0  24    0.13    0.02
  -2   0  23    0.01    0.01
  -2   0  22    0.04    0.02
  -2   0  21    0.01    0.01
  -2   0  20    3.91    0.12
  -2   0  19    0.00    0.01
  -2   0  19    0.02    0.02
  -2   0  18    1.05    0.06
  -2   0  17    0.00    0.01
  -2   0  16    1.02    0.05
  -2   0  15    0.00    0.01
   2   0 -15    0.00    0.01
   2   0 -14    1.39    0.06
  -2   0  14    1.32    0.06
   2   0 -13   -0.01    0.01
  -2   0  13   -0.01    0.01
   2   0 -12    0.18    0.02
  -2   0  12    0.23    0.02
  -2   0  11    0.04    0.01
   2   0 -11    0.02    0.01
   2   0 -10   19.87    0.45
  -2   0  10   20.19    0.46
   2   0  -9    0.03    0.01
  -2   0   9    0.05    0.01
   2   0  -8    4.16    0.11
   2   0  -8    4.07    0.09
   2   0  -7    0.07    0.01
   2   0  -7    0.06    0.01
  -2   0   7    0.05    0.01
   2   0  -6    0.37    0.01
  -2   0   6    0.39    0.02
   2   0  -6    0.37    0.02
  -2   0   5    0.00    0.00
   2   0  -5    0.00    0.01
  -2   0   5    0.01    0.01
  -2   0   4   13.41    0.29
   2   0  -4   13.22    0.29
   2   0  -4   12.32    0.29
  -2   0   4   12.68    0.28
  -2   0   3    0.05    0.01
  -2   0   3    0.06    0.01
   2   0  -3    0.05    0.01
  -2   0   3    0.07    0.01
   2   0  -2    8.77    0.20
  -2   0   2    9.14    0.21
  -2   0   1    0.01    0.01
   2   0  -1    0.09    0.01
  -2   0   0    7.58    0.18
   2   0   0    7.94    0.18
  -2   0  -1    0.08    0.01
  -2   0  -1    0.15    0.02
  -2   0  -2    3.79    0.10
   2   0   2    3.93    0.10
  -2   0  -3    0.15    0.01
   2   0   3    0.12    0.01
   2   0   4    1.08    0.04
  -2   0  -4    1.03    0.04
   2   0   5    0.01    0.01
  -2   0  -5    0.00    0.01
  -2   0  -6   10.85    0.25
   2   0   6   10.60    0.25
   2   0   7    0.01    0.01
  -2   0  -7    0.02    0.01
   2   0   8    8.26    0.20
  -2   0  -8    8.18    0.20
   2   0   9    0.09    0.01
  -2   0  -9    0.16    0.02
   2   0  10    2.42    0.08
  -2   0 -10    2.50    0.07
  -2   0 -11   -0.01    0.01
   2   0  11    0.00    0.01
  -2   0 -12    0.43    0.03
   2   0  12    0.37    0.03
   2   0  13    0.00    0.01
  -2   0 -13   -0.01    0.01
  -2   0 -14    0.11    0.01
   2   0  14    0.07    0.01
   2   0  15    0.00    0.01
   2   0  16    0.19    0.02
   2   0  17   -0.01    0.01
   2   0  18    0.35    0.03
   2   0  19    0.00    0.01
   2   0  20    2.12    0.08
   2   0  21    0.00    0.01
   2   0  22    0.22    0.03
   2   0  23    0.00    0.02
   2   0  24    0.61    0.04
   2   0  25   -0.01    0.02
   2   0  26    0.96    0.06
   2   0  27   -0.02    0.02
   2   0  28    0.09    0.02
   2   0  29    0.00    0.02
   2   0  30    0.34    0.04
  -2  -1  31    0.72    0.05
  -2   1  30    0.52    0.04
  -2  -1  30    0.46    0.04
  -2   1  29    4.28    0.14
  -2  -1  29    4.14    0.14
  -2   1  28    0.69    0.05
  -2  -1  28    0.75    0.05
  -2   1  27    2.93    0.11
  -2  -1  27    2.82    0.10
  -2   1  26    0.33    0.03
  -2  -1  26    0.25    0.03
  -2  -1  25    0.84    0.05
  -2   1  25    0.79    0.05
  -2   1  24    2.02    0.08
  -2  -1  24    2.06    0.08
  -2  -1  23    3.00    0.10
  -2   1  23    3.14    0.10
  -2   1  22    1.16    0.05
  -2  -1  22    1.12    0.05
  -2  -1  21    0.37    0.03
  -2   1  21    0.36    0.03
  -2   1  20    2.99    0.10
  -2  -1  20    2.92    0.10
  -2   1  19    4.47    0.13
  -2  -1  19    4.30    0.14
  -2  -1  19    4.61    0.13
  -2  -1  18    0.97    0.06
  -2   1  18    0.96    0.06
  -2   1  17    1.77    0.08
  -2  -1  17    1.95    0.08
  -2   1  16    2.63    0.09
  -2  -1  16    2.50    0.09
  -2  -1  15    0.02    0.01
   2   1 -15    0.00    0.01
   2  -1 -15    0.01    0.01
   2  -1 -14    0.55    0.03
   2   1 -14    0.50    0.03
  -2  -1  14    0.48    0.03
  -2   1  14    0.52    0.04
   2  -1 -13   16.82    0.39
  -2  -1  13   15.98    0.39
   2   1 -13   16.90    0.39
  -2   1  13   16.89    0.39
   2  -1 -12    4.92    0.14
   2   1 -12    5.17    0.14
  -2   1  12    4.98    0.14
  -2  -1  12    4.94    0.14
  -2  -1  11   11.66    0.29
   2  -1 -11   11.84    0.28
   2   1 -11   12.21    0.28
  -2   1  11   12.03    0.29
  -2  -1  10    3.32    0.10
   2  -1 -10    3.45    0.10
  -2   1  10    3.57    0.10
   2   1 -10    3.42    0.10
   2  -1  -9    0.33    0.02
   2   1  -9    0.35    0.02
   2  -1  -9    0.37    0.02
  -2   1   9    0.38    0.03
   2  -1  -8    2.43    0.07
   2  -1  -8    2.73    0.07
   2   1  -8    2.55    0.07
  -2   1   8    2.83    0.08
   2   1  -7    5.08    0.13
   2  -1  -7    5.34    0.13
  -2   1   7    5.60    0.14
   2  -1  -7    5.36    0.12
   2  -1  -6   10.93    0.24
   2  -1  -6   10.81    0.25
  -2   1   6   11.27    0.25
   2   1  -6   10.82    0.25
   2  -1  -5   18.69    0.41
   2  -1  -5   18.68    0.41
   2   1  -5   18.42    0.41
  -2   1   5   18.54    0.41
  -2   1   5   18.80    0.42
   2   1  -4    3.81    0.10
   2  -1  -4    3.82    0.10
  -2   1   4    3.82    0.09
   2   1  -4    3.71    0.09
   2  -1  -4    3.94    0.09
  -2   1   4    3.92    0.10
  -2   1   3    7.77    0.18
   2  -1  -3    7.75    0.18
   2  -1  -3    7.98    0.18
  -2   1   3    7.84    0.18
  -2   1   3    8.03    0.19
   2   1  -3    7.81    0.18
   2  -1  -2    2.28    0.08
  -2   1   2    2.45    0.06
  -2   1   2    2.59    0.06
   2   1  -2    2.39    0.06
  -2  -1   2    2.28    0.06
  -2   1   2    2.49    0.08
   2  -1  -2    2.32    0.06
   2  -1  -2    2.48    0.06
   2  -1  -1    5.53    0.13
  -2   1   1    5.05    0.14
  -2   1   1    5.51    0.12
   2   1  -1    5.10    0.13
  -2   1   1    5.07    0.13
  -2  -1   0   21.24    0.47
  -2   1   0   20.88    0.48
  -2   1   0   21.75    0.47
  -2   1   0   21.32    0.47
  -2   1  -1   15.75    0.34
  -2   1  -1   15.54    0.35
  -2  -1  -1   15.24    0.35
  -2   1  -2    2.51    0.07
   2   1   2    2.70    0.07
  -2  -1  -2    2.58    0.07
  -2  -1  -3    7.34    0.17
   2   1   3    7.61    0.18
  -2   1  -3    7.28    0.17
  -2  -1  -4    6.18    0.15
   2   1   4    6.35    0.15
  -2   1  -4    6.26    0.15
   2   1   5   22.72    0.49
  -2   1  -5   22.40    0.49
  -2  -1  -5   22.31    0.49
   2  -1   5   21.96    0.49
   2  -1   6   10.85    0.26
  -2  -1  -6   11.29    0.26
  -2   1  -6   11.25    0.26
   2   1   6   11.19    0.26
   2  -1   7    0.20    0.02
   2   1   7    0.18    0.02
  -2  -1  -7    0.23    0.02
  -2   1  -7    0.23    0.02
   2   1   8    0.66    0.03
   2  -1   8    0.71    0.03
  -2  -1  -8    0.71    0.03
  -2   1  -8    0.66    0.03
   2  -1   9    1.50    0.05
   2   1   9    1.48    0.05
  -2  -1  -9    1.50    0.05
  -2   1  -9    1.47    0.05
   2  -1  10   10.91    0.26
   2   1  10   11.19    0.26
  -2  -1 -10   10.77    0.26
  -2   1 -10   11.61    0.26
   2  -1  11   34.58    0.76
   2   1  11   34.20    0.76
  -2  -1 -11   34.53    0.76
  -2   1 -11   34.83    0.76
  -2  -1 -12    0.12    0.02
  -2   1 -12    0.12    0.02
   2  -1  12    0.12    0.02
   2   1  12    0.10    0.02
  -2   1 -13    1.06    0.04
   2  -1  13    0.97    0.05
  -2  -1 -13    0.96    0.04
   2   1  13    0.96    0.04
   2   1  14    0.74    0.04
   2  -1  14    0.78    0.04
  -2   1 -14    0.90    0.04
  -2  -1 -14    0.86    0.04
   2  -1  15    0.07    0.02
   2   1  15    0.08    0.02
   2  -1  16    5.13    0.15
   2   1  16    5.19    0.15
   2  -1  17   10.06    0.26
   2   1  17   10.45    0.26
   2  -1  18    2.04    0.08
   2   1  18    2.11    0.08
   2   1  19    0.18    0.02
   2  -1  19    0.19    0.02
   2   1  20    1.01    0.05
   2  -1  20    1.03    0.05
   2  -1  21    4.29    0.14
   2   1  21    4.32    0.14
   2  -1  22    3.34    0.12
   2   1  22    3.43    0.12
   2   1  23    0.02    0.02
   2  -1  23    0.01    0.02
   2  -1  24    0.42    0.04
   2   1  24    0.38    0.04
   2  -1  25    1.29    0.07
   2   1  25    1.27    0.07
   2   1  26    1.24    0.07
   2  -1  26    1.20    0.07
   2  -1  27    7.48    0.22
   2   1  27    7.97    0.22
   2   1  28    0.13    0.03
   2  -1  28    0.17    0.03
   2   1  29    0.03    0.02
   2  -1  29    0.02    0.02
  -2  -2  30    0.00    0.02
  -2   2  30   -0.01    0.02
  -2  -2  29    0.01    0.02
  -2   2  29    0.02    0.02
  -2  -2  28   -0.01    0.02
  -2   2  28   -0.01    0.02
  -2   2  27    0.63    0.04
  -2  -2  27    0.58    0.04
  -2   2  26    0.28    0.03
  -2  -2  26    0.34    0.03
  -2  -2  25    0.58    0.04
  -2   2  25    0.54    0.04
  -2   2  24    0.00    0.02
  -2  -2  24   -0.01    0.02
  -2   2  23    0.71    0.04
  -2  -2  23    0.73    0.04
  -2   2  22    0.18    0.02
  -2  -2  22    0.21    0.03
  -2  -2  21    0.89    0.05
  -2   2  21    0.89    0.05
  -2  -2  20    0.93    0.05
  -2   2  20    0.97    0.05
  -2  -2  19    2.50    0.08
  -2   2  19    2.59    0.09
  -2   2  18    0.06    0.01
  -2  -2  18    0.03    0.01
  -2  -2  17    0.57    0.04
  -2   2  17    0.62    0.04
   2   2 -17    0.54    0.02
  -2  -2  16    0.20    0.03
  -2   2  16    0.19    0.02
   2   2 -16    0.19    0.01
   2   2 -15    0.99    0.03
  -2   2  15    1.04    0.05
  -2  -2  15    1.04    0.05
   2   2 -15    1.05    0.05
   2  -2 -15    1.10    0.05
   2  -2 -14    0.01    0.01
   2   2 -14    0.02    0.00
  -2  -2  14    0.02    0.01
   2   2 -14    0.00    0.01
  -2   2  14    0.02    0.01
   2   2 -13    0.09    0.01
   2  -2 -13    0.08    0.02
   2   2 -13    0.10    0.02
  -2  -2  13    0.08    0.02
  -2   2  13    0.08    0.02
   2   2 -12    0.05    0.01
   2   2 -12    0.03    0.01
   2  -2 -12    0.02    0.01
  -2  -2  12    0.03    0.01
  -2   2  12    0.04    0.01
  -2   2  11    4.51    0.12
   2  -2 -11    4.33    0.12
   2  -2 -11    4.49    0.11
   2   2 -11    4.18    0.10
   2   2 -11    4.22    0.12
  -2  -2  11    4.11    0.12
   2  -2 -10    3.56    0.10
   2  -2 -10    3.66    0.10
   2   2 -10    3.47    0.10
  -2  -2  10    3.45    0.10
  -2   2  10    3.61    0.10
   2   2 -10    3.46    0.08
   2  -2  -9   14.28    0.31
   2   2  -9   13.45    0.30
   2  -2  -9   13.70    0.31
  -2  -2   9   13.95    0.32
   2   2  -9   13.43    0.31
  -2   2   9   14.14    0.32
  -2   2   8    0.78    0.04
  -2  -2   8    0.75    0.04
   2   2  -8    0.79    0.03
   2  -2  -8    0.80    0.03
   2  -2  -8    0.77    0.03
   2  -2  -7    0.09    0.01
   2  -2  -7    0.07    0.01
  -2   2   7    0.06    0.01
   2   2  -7    0.07    0.01
  -2  -2   7    0.06    0.01
  -2  -2   7    0.06    0.01
  -2  -2   6    1.05    0.03
   2   2  -6    1.08    0.04
  -2   2   6    1.13    0.04
   2  -2  -6    1.11    0.04
  -2  -2   6    1.05    0.04
   2  -2  -6    1.04    0.04
   2  -2  -5    1.23    0.04
  -2   2   5    1.19    0.04
  -2  -2   5    1.13    0.03
   2   2  -5    1.19    0.04
   2  -2  -5    1.10    0.04
  -2  -2   5    1.18    0.04
   2  -2  -5    1.28    0.06
  -2   2   4    1.89    0.05
  -2  -2   4    1.70    0.05
   2   2  -4    1.74    0.05
  -2  -2   4    1.72    0.05
   2  -2  -4    1.94    0.07
  -2   2   4    1.84    0.05
   2  -2  -4    1.79    0.05
   2  -2  -4    1.88    0.05
  -2   2   3    9.64    0.22
   2  -2  -3    9.64    0.22
  -2  -2   3    9.67    0.22
  -2   2   3    9.71    0.22
   2   2  -3    9.33    0.22
   2  -2  -3    9.76    0.22
   2  -2  -3    9.73    0.24
  -2  -2   2    1.15    0.04
   2  -2  -2    1.33    0.04
  -2   2   2    1.23    0.04
   2   2  -2    1.16    0.04
   2  -2  -2    1.33    0.04
   2  -2  -2    1.41    0.06
   2   2  -1    5.12    0.12
  -2   2   1    5.12    0.12
  -2  -2   1    4.99    0.12
   2  -2  -1    5.18    0.13
   2  -2  -1    5.29    0.12
  -2  -2   0    0.95    0.03
  -2   2   0    0.95    0.03
  -2  -2   0    0.90    0.03
  -2   2   0    0.91    0.04
  -2   2  -1    5.83    0.14
  -2  -2  -1    6.37    0.14
  -2   2  -1    5.95    0.14
  -2  -2  -1    6.01    0.14
  -2   2  -2    0.48    0.02
  -2   2  -2    0.50    0.02
  -2   2  -2    0.44    0.02
  -2  -2  -2    0.50    0.02
  -2  -2  -2    0.47    0.02
  -2   2  -3    0.03    0.01
   2   2   3    0.03    0.01
   2  -2   3    0.05    0.01
  -2  -2  -3    0.04    0.01
  -2   2  -3    0.05    0.01
   2   2   4    1.25    0.04
  -2   2  -4    1.15    0.04
   2  -2   4    1.23    0.04
  -2  -2  -4    1.24    0.04
  -2   2  -4    1.27    0.04
  -2   2  -5    0.11    0.01
   2  -2   5    0.09    0.01
  -2  -2  -5    0.12    0.01
   2   2   5    0.10    0.01
  -2   2  -5    0.13    0.01
   2   2   6    2.70    0.08
   2  -2   6    2.59    0.07
  -2  -2  -6    2.53    0.07
  -2   2  -6    2.68    0.07
   2  -2   7   14.00    0.32
   2   2   7   13.84    0.32
  -2  -2  -7   13.77    0.31
  -2   2  -7   13.67    0.31
   2   2   8    1.29    0.05
   2  -2   8    1.35    0.05
  -2  -2  -8    1.27    0.04
  -2   2  -8    1.31    0.04
   2   2   9    0.11    0.01
  -2   2  -9    0.07    0.01
   2  -2   9    0.08    0.01
  -2  -2  -9    0.06    0.01
   2   2  10    1.07    0.04
  -2  -2 -10    1.10    0.04
  -2   2 -10    1.06    0.04
   2  -2  10    1.08    0.04
   2   2  11    0.46    0.03
   2  -2  11    0.54    0.03
  -2  -2 -11    0.49    0.03
  -2   2 -11    0.47    0.03
   2   2  12    0.01    0.01
   2  -2  12    0.03    0.01
  -2  -2 -12    0.01    0.01
  -2   2 -12    0.01    0.01
  -2  -2 -13    0.18    0.02
  -2   2 -13    0.17    0.02
   2   2  13    0.18    0.02
   2  -2  13    0.18    0.02
  -2   2 -14    0.12    0.02
   2   2  14    0.12    0.02
   2  -2  14    0.11    0.02
  -2  -2 -14    0.11    0.02
   2   2  15    0.09    0.02
   2  -2  15    0.06    0.01
   2   2  16    0.02    0.01
   2  -2  16    0.00    0.01
   2  -2  17    0.85    0.05
   2   2  17    0.81    0.04
   2  -2  18    0.21    0.02
   2   2  18    0.17    0.02
   2   2  19    0.29    0.03
   2  -2  19    0.40    0.03
   2   2  20    0.91    0.05
   2  -2  20    0.95    0.05
   2   2  21    2.09    0.08
   2  -2  21    2.16    0.09
   2   2  22    0.00    0.02
   2  -2  22    0.03    0.02
   2   2  23    0.50    0.04
   2  -2  23    0.50    0.04
   2   2  24    0.07    0.02
   2  -2  24    0.04    0.02
   2   2  25    0.02    0.02
   2  -2  25    0.00    0.02
   2   2  26    0.17    0.03
   2  -2  26    0.17    0.03
   2  -2  27    0.66    0.05
   2   2  27    0.60    0.05
   2   2  28    0.01    0.02
   2  -2  28    0.02    0.02
   2   2  29    0.17    0.03
   2  -2  29    0.18    0.03
  -2   3  30    3.89    0.13
  -2  -3  30    3.72    0.13
  -2  -3  29    0.06    0.02
  -2   3  29    0.05    0.02
  -2  -3  28    0.15    0.03
  -2   3  28    0.16    0.03
  -2   3  27    0.01    0.02
  -2  -3  27    0.01    0.02
  -2  -3  26    0.01    0.02
  -2   3  26    0.01    0.02
  -2  -3  25    0.01    0.01
  -2   3  25    0.02    0.01
  -2   3  24    1.76    0.07
  -2  -3  24    1.79    0.07
  -2  -3  23    0.08    0.02
  -2   3  23    0.08    0.02
  -2   3  22    0.69    0.04
  -2  -3  22    0.63    0.04
  -2   3  21    0.02    0.01
  -2  -3  21    0.01    0.01
  -2   3  20    2.78    0.09
  -2  -3  20    2.72    0.09
   2   3 -19    0.08    0.01
  -2   3  19    0.06    0.02
  -2  -3  19    0.07    0.02
  -2   3  18    8.50    0.21
  -2  -3  18    8.31    0.21
   2   3 -18    7.89    0.19
  -2  -3  17    0.30    0.03
  -2   3  17    0.30    0.03
  -2   3  16   18.98    0.43
  -2  -3  16   19.01    0.43
  -2  -3  16   18.08    0.45
   2   3 -16   18.55    0.41
   2   3 -15    0.20    0.02
   2  -3 -15    0.22    0.02
   2   3 -15    0.18    0.02
   2  -3 -15    0.16    0.02
  -2  -3  15    0.06    0.02
  -2   3  15    0.09    0.02
   2   3 -14    7.46    0.17
   2  -3 -14    7.69    0.19
   2   3 -14    7.73    0.19
   2  -3 -14    7.93    0.20
  -2  -3  14    7.07    0.20
  -2   3  14    7.37    0.20
   2  -3 -13    0.10    0.02
   2   3 -13    0.08    0.02
   2  -3 -13    0.08    0.02
   2   3 -13    0.09    0.01
  -2  -3  13    0.05    0.02
  -2   3  13    0.04    0.02
   2   3 -12    3.42    0.09
  -2  -3  12    3.42    0.11
   2   3 -12    3.42    0.10
   2  -3 -12    3.43    0.10
  -2   3  12    3.37    0.11
   2  -3 -12    3.47    0.10
   2  -3 -11    0.11    0.02
   2   3 -11    0.14    0.01
   2   3 -11    0.09    0.02
   2  -3 -11    0.10    0.02
  -2  -3  11    0.07    0.02
  -2   3  11    0.06    0.02
   2  -3 -10    1.73    0.06
   2   3 -10    1.74    0.06
   2  -3 -10    1.70    0.06
  -2   3  10    1.75    0.06
  -2  -3  10    1.65    0.06
   2  -3  -9    0.00    0.01
   2  -3  -9    0.01    0.01
   2   3  -9    0.00    0.01
  -2  -3   9    0.00    0.01
  -2   3   9    0.00    0.01
   2  -3  -8    0.51    0.04
   2   3  -8    0.52    0.03
   2  -3  -8    0.55    0.03
   2  -3  -8    0.54    0.03
  -2  -3   8    0.54    0.03
  -2   3   8    0.57    0.03
  -2  -3   8    0.52    0.02
   2   3  -7    0.09    0.01
  -2  -3   7    0.07    0.01
   2  -3  -7    0.12    0.02
   2  -3  -7    0.16    0.02
   2  -3  -7    0.05    0.01
  -2  -3   7    0.05    0.01
  -2   3   7    0.05    0.01
   2  -3  -6    8.84    0.21
   2  -3  -6    8.38    0.20
  -2  -3   6    8.56    0.21
  -2  -3   6    8.64    0.20
   2  -3  -6    9.07    0.23
  -2   3   6    8.92    0.21
   2  -3  -5    0.10    0.01
   2  -3  -5    0.12    0.01
   2   3  -5    0.11    0.01
   2  -3  -5    0.11    0.02
  -2  -3   5    0.09    0.01
  -2   3   5    0.08    0.01
  -2  -3   5    0.12    0.01
  -2  -3   4    0.58    0.02
   2  -3  -4    0.61    0.02
   2   3  -4    0.60    0.02
  -2   3   4    0.67    0.03
   2  -3  -4    0.61    0.03
   2  -3  -4    0.60    0.04
  -2   3   4    0.60    0.03
  -2  -3   4    0.56    0.03
  -2  -3   3    0.04    0.01
   2  -3  -3    0.02    0.01
   2  -3  -3    0.03    0.01
  -2  -3   3    0.01    0.01
  -2   3   3    0.02    0.01
   2  -3  -3    0.05    0.02
   2   3  -3    0.03    0.01
  -2  -3   2   25.65    0.57
   2   3  -2   24.81    0.57
  -2  -3   2   25.83    0.57
  -2   3   2   26.52    0.59
   2  -3  -2   25.64    0.58
  -2   3   2   26.77    0.57
   2  -3  -2   25.99    0.60
   2  -3  -2   27.87    0.57
  -2   3   1    1.59    0.05
  -2  -3   1    1.58    0.05
  -2   3   1    3.26    0.09
   2  -3  -1    2.71    0.07
   2  -3   0   88.96    1.90
  -2  -3   0   88.18    1.89
  -2   3   0   88.45    1.89
  -2  -3   0   88.47    1.89
  -2   3   0   88.24    1.89
  -2   3   0   89.55    1.92
  -2   3  -1    2.46    0.07
  -2  -3  -1    2.77    0.06
  -2   3  -1    1.85    0.06
  -2   3  -1    2.20    0.08
  -2  -3  -1    1.76    0.06
   2  -3   1    2.10    0.07
  -2   3  -2    0.98    0.04
  -2   3  -2    1.38    0.04
  -2  -3  -2    0.88    0.04
  -2  -3  -2    0.78    0.03
  -2   3  -2    1.64    0.05
  -2   3  -2    1.18    0.06
   2  -3   2    0.92    0.04
  -2   3  -3    0.07    0.01
  -2   3  -3    0.04    0.01
  -2  -3  -3    0.06    0.01
  -2   3  -3    0.04    0.01
  -2   3  -3    0.04    0.01
  -2  -3  -3    0.05    0.01
  -2   3  -4    3.26    0.09
  -2  -3  -4    3.12    0.08
   2   3   4    3.18    0.08
   2  -3   4    3.03    0.08
  -2  -3  -5    0.22    0.02
   2   3   5    0.22    0.02
   2  -3   5    0.20    0.02
  -2   3  -5    0.22    0.01
   2   3   6    8.36    0.20
   2  -3   6    8.42    0.20
  -2  -3  -6    8.25    0.19
  -2   3  -6    8.75    0.20
  -2   3  -6    8.22    0.19
   2   3   7    0.17    0.01
   2  -3   7    0.16    0.01
  -2  -3  -7    0.14    0.01
  -2   3  -7    0.14    0.01
  -2   3  -7    0.19    0.02
   2  -3   8    0.15    0.02
  -2   3  -8    0.14    0.01
   2   3   8    0.14    0.01
   2   3   9    0.08    0.01
   2  -3   9    0.10    0.01
  -2   3  -9    0.12    0.01
  -2  -3  -9    0.12    0.01
  -2   3  -9    0.12    0.01
  -2   3 -10   11.30    0.27
   2   3  10   11.05    0.27
   2  -3  10   11.48    0.27
  -2  -3 -10   11.27    0.26
  -2   3 -10   11.58    0.26
   2  -3  11    0.33    0.02
   2   3  11    0.34    0.02
  -2  -3 -11    0.34    0.02
  -2   3 -11    0.30    0.02
  -2  -3 -12    3.20    0.09
  -2   3 -12    3.18    0.09
   2  -3  12    3.19    0.10
   2   3  12    3.11    0.09
  -2  -3 -13    0.08    0.01
  -2   3 -13    0.06    0.01
   2  -3  13    0.05    0.01
   2   3  13    0.06    0.01
   2   3  14   12.05    0.29
   2  -3  14   12.22    0.29
  -2  -3 -14   11.78    0.28
  -2   3 -14   11.56    0.28
   2   3  15    0.26    0.03
   2  -3  15    0.24    0.03
   2   3  16   26.98    0.61
   2  -3  16   26.89    0.61
   2  -3  17    0.24    0.03
   2   3  17    0.22    0.03
   2  -3  18    0.64    0.04
   2   3  18    0.70    0.04
   2  -3  19    0.08    0.02
   2   3  19    0.08    0.02
   2   3  20    0.51    0.04
   2  -3  20    0.59    0.04
   2   3  21    0.05    0.02
   2  -3  21    0.09    0.02
   2  -3  22    3.20    0.11
   2   3  22    3.24    0.11
   2   3  23    0.06    0.02
   2  -3  23    0.06    0.02
   2   3  24    0.02    0.02
   2  -3  24    0.04    0.02
   2  -3  25    0.02    0.02
   2   3  25    0.01    0.02
   2   3  26    0.70    0.05
   2  -3  26    0.66    0.05
   2  -3  27    0.07    0.02
   2   3  27    0.04    0.02
   2   3  28    2.42    0.10
   2  -3  28    2.16    0.10
   2  -3  29    0.00    0.02
   2   3  29    0.02    0.02
   2  -4 -30    0.01    0.02
  -2  -4  29    0.01    0.02
  -2   4  28    0.17    0.03
  -2  -4  28    0.10    0.02
  -2   4  27    0.44    0.04
  -2  -4  27    0.35    0.03
  -2   4  26    0.01    0.02
  -2  -4  26    0.03    0.02
  -2   4  25    0.10    0.02
  -2  -4  25    0.12    0.02
  -2   4  24    0.01    0.02
  -2  -4  24    0.01    0.01
   2  -4 -23    0.72    0.05
  -2   4  23    0.74    0.05
  -2  -4  23    0.72    0.04
  -2  -4  22    0.06    0.02
  -2   4  22    0.03    0.02
   2  -4 -22    0.09    0.02
   2  -4 -21    0.51    0.04
  -2   4  21    0.50    0.03
  -2  -4  21    0.47    0.03
   2  -4 -20    1.26    0.06
  -2   4  20    1.18    0.05
  -2  -4  20    1.09    0.05
  -2   4  19    1.70    0.07
   2  -4 -19    1.76    0.07
  -2  -4  19    1.64    0.06
   2  -4 -18    0.20    0.02
  -2   4  18    0.15    0.02
  -2  -4  18    0.19    0.02
  -2  -4  17    0.03    0.01
   2  -4 -17    0.05    0.01
  -2   4  17    0.05    0.01
   2   4 -16    0.35    0.02
  -2  -4  16    0.31    0.02
  -2   4  16    0.34    0.03
   2  -4 -16    0.40    0.03
   2  -4 -15    0.81    0.04
   2  -4 -15    0.74    0.04
  -2  -4  15    0.74    0.04
   2   4 -15    0.78    0.03
  -2   4  15    0.74    0.04
   2   4 -14    0.49    0.02
   2  -4 -14    0.55    0.03
  -2   4  14    0.49    0.03
  -2  -4  14    0.47    0.03
   2  -4 -14    0.48    0.03
   2  -4 -13    0.02    0.01
   2   4 -13    0.03    0.01
   2   4 -13    0.01    0.01
   2  -4 -13    0.01    0.01
  -2  -4  13    0.04    0.02
  -2   4  13    0.02    0.01
  -2  -4  13    0.02    0.01
  -2  -4  12    0.92    0.05
   2  -4 -12    0.94    0.04
   2  -4 -12    1.01    0.05
   2  -4 -11    1.52    0.06
   2   4 -11    1.48    0.05
  -2  -4  11    1.44    0.06
  -2   4  11    1.52    0.06
   2  -4 -11    1.53    0.05
   2  -4 -11    1.55    0.08
   2  -4 -10    2.12    0.09
   2  -4 -10    2.05    0.06
   2   4 -10    2.02    0.06
  -2  -4  10    1.98    0.07
  -2   4  10    2.14    0.07
   2  -4 -10    2.07    0.07
   2  -4  -9    5.29    0.16
   2   4  -9    3.94    0.10
   2  -4  -9    5.01    0.13
  -2  -4   9    4.54    0.12
   2  -4  -9    4.74    0.12
   2   4  -9    4.54    0.11
  -2   4   9    4.92    0.13
  -2  -4   9    4.65    0.11
  -2  -4   8    0.95    0.04
   2  -4  -8    1.00    0.04
   2  -4  -8    0.87    0.03
  -2  -4   8    0.91    0.04
   2   4  -8    0.90    0.03
   2  -4  -7    0.37    0.04
  -2  -4   7    0.35    0.02
   2  -4  -7    0.38    0.03
  -2  -4   7    0.31    0.02
  -2   4   7    0.35    0.02
   2   4  -7    0.35    0.02
  -2   4   6    0.39    0.02
   2  -4  -6    0.41    0.03
  -2  -4   6    0.39    0.02
   2  -4  -6    0.42    0.04
  -2  -4   6    0.38    0.02
   2   4  -6    0.41    0.02
   2  -4  -6    0.38    0.02
  -2  -4   5    0.19    0.02
   2  -4  -5    0.20    0.01
   2  -4  -5    0.19    0.03
   2   4  -5    0.20    0.01
  -2  -4   5    0.19    0.02
  -2   4   5    0.19    0.02
   2  -4  -5    0.20    0.02
   2  -4  -4    2.32    0.06
  -2  -4   4    2.19    0.07
   2  -4  -4    2.44    0.09
   2   4  -4    2.22    0.06
  -2  -4   4    2.15    0.06
  -2   4   4    2.27    0.06
   2  -4  -4    2.26    0.07
  -2  -4   3    4.08    0.11
  -2  -4   3    3.85    0.10
  -2   4   3    4.24    0.10
  -2  -4   3    4.35    0.10
   2  -4  -3    4.08    0.12
   2  -4  -3    4.26    0.14
   2  -4  -2    1.63    0.06
  -2  -4   2    1.55    0.05
  -2  -4   2    1.65    0.05
  -2   4   2    1.61    0.05
  -2   4   2    1.53    0.05
  -2   4   1    0.37    0.03
   2  -4  -1    0.33    0.03
  -2  -4   1    0.35    0.02
  -2  -4   1    0.22    0.02
  -2  -4   1    0.13    0.02
  -2   4   1    0.18    0.01
  -2   4   1    0.32    0.02
  -2   4   0    1.56    0.06
   2  -4   0    1.44    0.05
  -2   4   0    1.50    0.05
  -2  -4   0    1.40    0.04
  -2  -4   0    1.32    0.05
  -2  -4   0    1.51    0.04
  -2   4   0    1.40    0.04
  -2   4   0    1.41    0.04
  -2  -4   0    1.34    0.04
  -2  -4  -1    3.48    0.09
  -2   4  -1    3.30    0.08
   2  -4   1    3.20    0.10
  -2  -4  -1    3.40    0.08
  -2   4  -1    3.28    0.08
  -2   4  -2    1.19    0.04
  -2   4  -2    1.10    0.04
  -2  -4  -2    1.22    0.04
  -2  -4  -2    1.21    0.04
  -2  -4  -3    0.25    0.02
  -2   4  -3    0.27    0.02
  -2   4  -3    0.28    0.03
  -2  -4  -3    0.28    0.02
  -2   4  -3    0.25    0.01
  -2  -4  -4    0.09    0.01
  -2   4  -4    0.12    0.02
  -2   4  -4    0.09    0.01
  -2  -4  -4    0.09    0.01
  -2   4  -4    0.08    0.01
   2   4   5    0.03    0.01
  -2   4  -5    0.03    0.01
  -2   4  -5    0.04    0.02
  -2   4  -5    0.03    0.01
  -2   4  -6    1.00    0.05
   2   4   6    1.03    0.04
  -2  -4  -6    0.90    0.03
   2  -4   6    0.95    0.04
  -2   4  -6    0.98    0.03
   2   4   7    5.35    0.13
   2  -4   7    5.28    0.13
  -2  -4  -7    5.27    0.13
  -2   4  -7    5.43    0.13
   2   4   8    0.89    0.04
   2  -4   8    1.00    0.04
  -2  -4  -8    0.91    0.03
  -2   4  -8    0.93    0.03
  -2   4  -9    0.04    0.01
   2   4   9    0.01    0.01
  -2  -4  -9    0.00    0.01
   2  -4   9    0.03    0.01
  -2   4 -10    0.05    0.01
   2   4  10    0.04    0.01
   2  -4  10    0.05    0.01
  -2  -4 -10    0.06    0.01
   2  -4  11    0.44    0.03
  -2   4 -11    0.45    0.02
  -2  -4 -11    0.45    0.02
   2   4  11    0.38    0.03
   2   4  12    0.02    0.01
   2  -4  12    0.02    0.01
  -2  -4 -12    0.00    0.01
  -2   4 -12    0.01    0.01
   2   4  13    0.19    0.02
   2  -4  13    0.17    0.02
  -2  -4 -13    0.18    0.02
  -2   4 -13    0.16    0.02
   2   4  14    0.00    0.01
   2  -4  14    0.00    0.01
  -2   4 -14    0.01    0.01
   2  -4  15    0.10    0.02
   2   4  15    0.10    0.02
   2   4  16    0.02    0.01
   2  -4  16    0.02    0.01
   2   4  17    1.16    0.05
   2  -4  17    1.24    0.06
   2  -4  18    0.19    0.02
   2   4  18    0.18    0.02
   2   4  19    0.19    0.03
   2  -4  19    0.23    0.03
   2   4  20    0.33    0.03
   2  -4  20    0.31    0.03
   2   4  21    1.64    0.07
   2  -4  21    1.60    0.07
   2  -4  22    0.10    0.02
   2   4  22    0.14    0.02
   2   4  23    0.32    0.03
   2  -4  23    0.23    0.03
   2   4  24   -0.02    0.02
   2  -4  24   -0.01    0.02
   2   4  25    0.03    0.02
   2  -4  25    0.01    0.02
   2  -4  26    0.00    0.02
   2   4  26    0.00    0.02
   2  -4  27    0.36    0.04
   2   4  27    0.36    0.04
   2  -4  28    0.13    0.03
   2   4  28    0.07    0.03
  -2  -5  29    2.94    0.11
  -2  -5  28    0.09    0.03
  -2   5  28    0.07    0.03
  -2   5  27    1.48    0.07
  -2  -5  27    1.47    0.07
   2  -5 -26    0.17    0.04
  -2  -5  26    0.25    0.03
   2  -5 -25  880.54   18.79
  -2   5  24    0.48    0.04
   2  -5 -24    0.17    0.04
  -2   5  23    1.83    0.07
  -2  -5  23    1.74    0.07
   2  -5 -22    0.82    0.05
  -2   5  22    0.77    0.04
  -2  -5  22    0.80    0.04
  -2   5  21    0.11    0.02
  -2  -5  21    0.12    0.02
   2  -5 -20    0.81    0.05
  -2   5  20    0.83    0.04
  -2  -5  20    0.78    0.04
  -2   5  19    3.02    0.10
  -2  -5  19    3.02    0.10
   2  -5 -19    3.04    0.11
  -2   5  18    0.18    0.02
  -2  -5  18    0.20    0.02
   2  -5 -17    1.00    0.05
  -2   5  17    1.09    0.05
  -2  -5  17    1.06    0.05
   2  -5 -16    1.50    0.07
  -2   5  16    1.51    0.06
  -2  -5  16    1.40    0.05
  -2   5  15    0.02    0.01
   2  -5 -15    0.02    0.01
   2  -5 -15    0.00    0.01
  -2  -5  15    0.01    0.01
  -2   5  14    0.11    0.01
   2  -5 -14    0.10    0.03
   2  -5 -14    0.09    0.02
  -2  -5  14    0.08    0.01
   2  -5 -14    0.07    0.01
  -2  -5  13    8.69    0.20
   2  -5 -13    9.00    0.21
  -2   5  13    9.03    0.20
   2  -5 -13    8.73    0.22
   2  -5 -12    1.75    0.09
   2  -5 -12    1.69    0.07
   2  -5 -12    1.50    0.05
   2   5 -12    1.51    0.05
   2   5 -12    1.28    0.04
  -2   5  12    1.56    0.05
  -2  -5  12    1.52    0.05
   2  -5 -11    4.94    0.13
   2   5 -11    4.76    0.13
  -2  -5  11    5.17    0.13
   2  -5 -11    5.48    0.18
   2  -5 -11    5.30    0.15
  -2   5  11    5.25    0.13
   2  -5 -10    1.24    0.07
   2   5 -10    1.13    0.04
  -2   5  10    1.15    0.04
  -2  -5  10    1.12    0.04
   2  -5 -10    1.14    0.04
   2  -5  -9    0.11    0.02
  -2   5   9    0.11    0.01
   2   5  -9    0.10    0.01
   2  -5  -9    0.10    0.01
   2  -5  -9    0.15    0.03
  -2  -5   9    0.12    0.01
  -2  -5   9    0.13    0.01
   2  -5  -8    0.79    0.05
   2  -5  -8    0.79    0.04
  -2  -5   8    0.79    0.03
   2  -5  -8    0.76    0.03
  -2  -5   8    0.77    0.03
  -2   5   8    0.78    0.03
  -2  -5   8    0.77    0.04
   2   5  -8    0.79    0.03
   2  -5  -7    1.68    0.08
   2  -5  -7    1.61    0.06
  -2  -5   7    1.55    0.06
  -2  -5   7    1.50    0.05
   2  -5  -7    1.56    0.05
   2   5  -7    1.61    0.05
   2   5  -6    2.75    0.07
   2  -5  -6    2.72    0.09
   2  -5  -6    2.76    0.07
  -2  -5   6    2.67    0.08
   2  -5  -6    2.90    0.11
   2  -5  -5    7.13    0.18
  -2  -5   5    6.90    0.17
  -2  -5   5    6.53    0.16
  -2  -5   5    6.33    0.15
   2  -5  -5    7.34    0.21
   2  -5  -4    1.58    0.08
  -2  -5   4    1.41    0.05
  -2  -5   4    1.44    0.04
  -2  -5   4    1.30    0.04
   2  -5  -4    1.47    0.06
  -2   5   4    1.29    0.04
  -2   5   3    4.05    0.09
  -2  -5   3    3.91    0.09
  -2  -5   3    3.88    0.10
   2  -5  -3    4.09    0.12
  -2  -5   3    3.89    0.11
   2  -5  -2    1.53    0.06
  -2   5   2    1.60    0.04
  -2   5   2    1.47    0.04
  -2  -5   2    1.51    0.06
   2  -5  -1    1.87    0.07
  -2   5   1    1.54    0.04
  -2  -5   1    1.97    0.06
  -2  -5   1    1.69    0.04
  -2   5   1    1.72    0.04
  -2   5   0    3.68    0.09
  -2  -5   0    3.74    0.11
  -2  -5   0    3.96    0.09
  -2   5   0    3.71    0.09
  -2  -5  -1    6.65    0.18
  -2  -5  -1    6.94    0.16
  -2   5  -1    6.85    0.16
  -2  -5  -1    7.19    0.16
  -2   5  -1    6.94    0.16
  -2  -5  -2    0.36    0.03
  -2  -5  -2    0.27    0.02
  -2  -5  -2    0.44    0.03
  -2   5  -2    0.46    0.02
  -2  -5  -2    0.37    0.02
  -2   5  -2    0.29    0.02
  -2  -5  -3    3.44    0.10
  -2  -5  -3    3.28    0.08
  -2   5  -3    3.40    0.08
  -2  -5  -3    3.38    0.08
  -2   5  -3    3.41    0.08
  -2  -5  -4    2.89    0.08
  -2   5  -4    2.86    0.07
  -2  -5  -4    2.84    0.07
  -2   5  -4    2.87    0.07
  -2   5  -5    8.27    0.19
  -2  -5  -5    8.56    0.19
  -2   5  -5    8.51    0.19
  -2  -5  -5    8.19    0.19
  -2  -5  -6    1.60    0.05
  -2   5  -6    1.56    0.05
  -2   5  -6    1.56    0.04
  -2  -5  -6    1.52    0.05
  -2  -5  -7    0.11    0.01
  -2   5  -7    0.10    0.01
  -2   5  -8    0.79    0.03
  -2   5  -8    0.74    0.03
  -2  -5  -8    0.74    0.03
   2   5   8    0.76    0.03
   2  -5   8    0.71    0.03
  -2  -5  -9    0.24    0.02
   2   5   9    0.25    0.02
  -2   5  -9    0.23    0.02
   2  -5   9    0.23    0.02
   2   5  10    1.98    0.06
  -2   5 -10    1.96    0.07
   2  -5  10    2.01    0.06
  -2   5 -11   15.79    0.36
   2  -5  11   15.52    0.36
   2   5  11   15.42    0.36
   2   5  12    0.19    0.02
   2  -5  12    0.17    0.02
  -2  -5 -12    0.19    0.03
   2  -5  13    0.47    0.03
   2   5  13    0.47    0.03
  -2  -5 -13    0.49    0.03
   2   5  14    0.97    0.04
   2  -5  14    1.06    0.05
   2   5  15    0.00    0.01
   2  -5  15    0.02    0.01
   2   5  16    0.95    0.05
   2  -5  16    0.95    0.05
   2   5  17    6.34    0.17
   2  -5  17    6.17    0.17
   2   5  18    0.20    0.03
   2  -5  18    0.20    0.02
   2   5  19    0.07    0.02
   2  -5  19    0.07    0.02
   2  -5  20    1.00    0.05
   2   5  20    1.07    0.05
   2   5  21    2.44    0.09
   2  -5  21    2.33    0.09
   2   5  22    0.62    0.04
   2  -5  22    0.66    0.05
   2   5  23   -0.01    0.02
   2  -5  23    0.00    0.02
   2  -5  24    0.43    0.04
   2   5  24    0.33    0.04
   2   5  25    0.42    0.04
   2  -5  25    0.55    0.05
   2  -5  26    0.24    0.03
   2   5  26    0.18    0.03
   2   5  27    5.27    0.17
   2  -5  27    5.07    0.16
   2  -5  28    0.01    0.02
   2  -6 -22    0.00    0.02
   2  -6 -21    0.11    0.03
   2  -6 -21    0.12    0.04
   2  -6 -20    1.47    0.07
  -2  -6  20    1.30    0.06
  -2  -6  19    0.16    0.02
   2  -6 -19    0.18    0.03
   2  -6 -19    0.21    0.04
  -2  -6  18    0.17    0.02
   2  -6 -18    0.20    0.03
   2  -6 -18    0.22    0.04
   2  -6 -17    0.85    0.05
   2  -6 -17    0.71    0.07
  -2  -6  17    0.71    0.04
   2  -6 -16    0.13    0.03
  -2  -6  16    0.11    0.02
   2  -6 -16    0.14    0.02
   2  -6 -15    0.01    0.01
   2  -6 -15    0.00    0.02
   2  -6 -14    0.23    0.04
   2  -6 -14    0.23    0.03
  -2  -6  14    0.24    0.02
   2  -6 -13    0.00    0.01
   2  -6 -13    0.01    0.02
  -2  -6  13    0.01    0.01
   2  -6 -12    0.00    0.01
   2  -6 -12    0.01    0.02
   2  -6 -11    0.85    0.06
   2  -6 -11    0.89    0.05
   2  -6 -10    4.25    0.16
   2  -6 -10    4.21    0.13
  -2  -6  10    4.06    0.10
   2  -6  -9    0.27    0.02
   2  -6  -9    0.36    0.04
   2  -6  -9    0.34    0.03
  -2  -6   9    0.26    0.02
  -2  -6   8    0.62    0.03
   2  -6  -8    0.69    0.06
   2  -6  -8    0.59    0.04
  -2  -6   8    0.60    0.02
  -2  -6   7    0.56    0.03
  -2  -6   7    0.50    0.02
   2  -6  -7    0.67    0.04
   2  -6  -7    0.64    0.05
  -2  -6   7    0.59    0.02
   2  -6  -6    0.26    0.04
   2  -6  -6    0.30    0.03
  -2  -6   6    0.30    0.02
  -2  -6   5    0.04    0.01
   2  -6  -5    0.04    0.02
  -2  -6   4    2.09    0.07
   2  -6  -4    2.10    0.08
   2  -6  -3    0.42    0.03
  -2  -6   3    0.47    0.03
  -2  -6   2    1.24    0.05
  -2  -6   1    1.66    0.06
  -2  -6   0    1.00    0.05
  -2  -6  -1    0.11    0.02
  -2  -6  -2    0.44    0.03
   2  -6   2    0.50    0.03
  -2  -6  -3    0.07    0.02
   2  -6   3    0.07    0.02
  -2  -6  -4    0.46    0.03
  -2  -6  -4    0.44    0.03
  -2  -6  -4    0.42    0.02
  -2  -6  -4    0.42    0.02
  -2  -6  -5    0.82    0.05
  -2  -6  -5    0.82    0.03
  -2  -6  -5    0.82    0.04
  -2  -6  -5    0.77    0.03
  -2  -6  -6    1.81    0.05
  -2  -6  -6    1.85    0.08
  -2  -6  -6    2.02    0.08
  -2  -6  -6    1.91    0.06
  -2  -6  -7    0.09    0.02
  -2  -6  -7    0.10    0.02
  -2  -6  -7    0.08    0.01
  -2  -6  -7    0.10    0.01
  -2  -6  -8    1.59    0.07
  -2  -6  -8    1.54    0.05
  -2  -6  -8    1.51    0.05
  -2  -6  -9    0.20    0.02
   2  -6  12    0.05    0.01
   2  -6  13    0.02    0.01
   2  -6  14   -0.01    0.01
   2  -6  15    0.39    0.03
   2  -6  16    0.04    0.02
   2  -6  17    0.02    0.01
   2  -6  18    0.08    0.02
   2  -6  19    0.15    0.02
   2  -6  20    0.79    0.05
   2  -7 -19    1.30    0.10
   2  -7 -18    0.54    0.07
   2  -7 -17    0.92    0.08
   2  -7 -16    1.20    0.09
   2  -7 -16    0.98    0.06
   2  -7 -15    0.05    0.03
   2  -7 -15    0.03    0.02
   2  -7 -14    0.30    0.03
   2  -7 -14    0.31    0.05
   2  -7 -13    3.54    0.12
   2  -7 -13    3.67    0.15
   2  -7 -12    1.34    0.09
   2  -7 -12    1.33    0.07
   2  -7 -11    2.38    0.11
   2  -7 -11    2.29    0.09
   2  -7 -10    0.75    0.05
   2  -7 -10    0.84    0.07
   2  -7  -9    0.03    0.02
  -2  -7   9    0.02    0.01
   2  -7  -9    0.01    0.02
   2  -7  -8    0.62    0.05
   2  -7  -8    0.53    0.04
  -2  -7   8    0.51    0.03
  -2  -7   7    0.88    0.05
   2  -7  -7    0.87    0.05
   2  -7  -6    2.06    0.08
  -2  -7   6    1.97    0.07
  -2  -7   5    2.73    0.09
   2  -7  -5    2.56    0.10
  -2  -7   4    0.43    0.03
  -2  -7   3    2.46    0.09
  -2  -7   2    0.87    0.05
  -2  -7   1    0.72    0.04
  -2  -7   0    4.45    0.14
   2  -7   0    4.83    0.14
  -2  -7  -1    2.12    0.08
   2  -7   1    2.10    0.08
  -2  -7  -2    0.39    0.03
   2  -7   2    0.44    0.04
  -2  -7  -3    1.91    0.08
   2  -7   3    1.89    0.08
  -2  -7  -4    0.72    0.05
  -2  -7  -5    1.80    0.08
  -2  -7  -6    2.26    0.09
  -2  -7  -7    0.04    0.02
  -2  -7  -8    0.07    0.02
  -2  -7  -9    0.56    0.04
  -2  -7 -10    3.13    0.12
  -2  -7 -11    5.85    0.19
  -2  -7 -12    0.22    0.04
  -2  -7 -13    1.14    0.08
  -2  -7 -14    0.31    0.04
  -2  -7 -15    0.19    0.04
   2  -8 -13   -0.01    0.03
   2  -8 -12    0.53    0.06
   2  -8 -11    0.82    0.07
  -2  -8   8    0.05    0.02
  -2  -8   7    0.05    0.02
  -2  -8   6    1.35    0.06
  -2  -8   5    0.01    0.01
  -2  -8   4    0.06    0.02
   2  -8  -3    0.93    0.05
  -2  -8   3    1.03    0.05
   2  -8  -2    0.02    0.02
  -2  -8   2    0.03    0.02
  -2  -8   1    1.63    0.07
  -2  -8   0    0.10    0.02
   2  -8   0    0.07    0.02
  -2  -8  -1    0.24    0.03
   2  -8   1    0.27    0.03
   2  -8   2    0.04    0.02
  -2  -8  -2    0.03    0.02
  -2  -8  -3    0.12    0.02
  -2  -8  -4    0.85    0.05
  -2  -8  -5    0.05    0.02
  -2  -8  -6    0.37    0.04
  -2  -8  -7    2.17    0.09
  -2  -8  -8    0.16    0.03
  -3   0  30   -0.02    0.02
  -3   0  29   -0.01    0.02
  -3   0  28    0.01    0.02
  -3   0  27   -0.02    0.01
  -3   0  26    0.57    0.04
  -3   0  25    0.00    0.01
  -3   0  24    1.04    0.05
  -3   0  23    0.00    0.02
  -3   0  22    2.32    0.10
  -3   0  21    0.01    0.02
  -3   0  20    0.08    0.03
  -3   0  19   -0.02    0.02
  -3   0  18    1.17    0.06
  -3   0  17    0.03    0.02
  -3   0  16    0.02    0.02
   3   0 -15    0.00    0.00
  -3   0  15    0.00    0.01
   3   0 -14    0.02    0.01
  -3   0  14    0.01    0.01
   3   0 -13    0.02    0.01
   3   0 -13    0.02    0.01
  -3   0  13    0.03    0.01
   3   0 -12    2.76    0.08
  -3   0  12    2.90    0.09
   3   0 -11    0.01    0.00
   3   0 -11    0.01    0.01
  -3   0  11    0.01    0.01
   3   0 -10    0.05    0.00
   3   0 -10    0.05    0.01
  -3   0  10    0.07    0.01
   3   0  -9    0.01    0.01
  -3   0   9    0.01    0.01
   3   0  -8    6.39    0.17
  -3   0   8    6.85    0.17
   3   0  -8    6.81    0.17
   3   0  -7    0.05    0.02
   3   0  -7    0.03    0.01
  -3   0   7    0.05    0.01
   3   0  -6    5.88    0.16
  -3   0   6    5.84    0.13
   3   0  -6    6.08    0.15
  -3   0   5    0.05    0.01
   3   0  -5    0.03    0.01
   3   0  -5    0.05    0.02
  -3   0   5    0.05    0.01
   3   0  -4    2.28    0.07
  -3   0   4    2.29    0.07
  -3   0   4    2.26    0.07
   3   0  -4    2.26    0.07
  -3   0   4    2.14    0.05
   3   0  -3    0.04    0.01
  -3   0   3    0.02    0.01
  -3   0   2    0.01    0.01
   3   0  -2    0.01    0.01
  -3   0   2    0.00    0.01
  -3   0   1    0.00    0.01
   3   0  -1    0.00    0.01
  -3   0   1    0.00    0.01
  -3   0   0    0.01    0.01
  -3   0   0    0.02    0.01
  -3   0  -1    0.00    0.01
  -3   0  -1    0.00    0.01
  -3   0  -2    0.57    0.03
  -3   0  -2    0.50    0.03
  -3   0  -3    0.05    0.01
   3   0   3    0.01    0.01
  -3   0  -4   11.30    0.27
   3   0   4   11.89    0.27
  -3   0  -5    0.02    0.01
   3   0   5    0.02    0.01
   3   0   6    5.13    0.14
  -3   0  -6    5.05    0.13
   3   0   7    0.00    0.01
  -3   0  -7    0.01    0.01
  -3   0  -8    5.35    0.14
   3   0   8    5.21    0.14
  -3   0  -9    0.00    0.01
   3   0   9    0.00    0.01
   3   0  10    2.03    0.07
  -3   0 -10    2.06    0.07
  -3   0 -11    0.01    0.01
   3   0  11    0.00    0.01
   3   0  12    4.33    0.13
  -3   0 -12    4.55    0.12
   3   0  13    0.00    0.01
   3   0  14    1.66    0.07
   3   0  15    0.01    0.01
   3   0  16    0.49    0.04
   3   0  17    0.02    0.01
   3   0  18    1.17    0.06
   3   0  19   -0.01    0.02
   3   0  20    3.04    0.11
   3   0  21    0.01    0.02
   3   0  22    4.06    0.14
   3   0  23    0.00    0.02
   3   0  24    0.42    0.04
   3   0  25   -0.01    0.02
   3   0  26    0.15    0.03
   3   0  27    0.00    0.02
   3   0  28    0.81    0.06
  -3  -1  30    0.01    0.02
  -3   1  30    0.00    0.02
  -3  -1  29    0.11    0.02
  -3   1  29    0.11    0.02
  -3   1  28    0.00    0.02
  -3  -1  28    0.02    0.02
  -3  -1  27    0.00    0.02
  -3   1  27   -0.02    0.02
  -3   1  26    0.02    0.02
  -3  -1  26   -0.01    0.02
  -3   1  25    0.10    0.02
  -3  -1  25    0.12    0.02
  -3   1  24    0.93    0.05
  -3  -1  24    0.93    0.05
  -3  -1  23    1.65    0.07
  -3   1  23    1.58    0.07
  -3  -1  23    1.77    0.09
  -3   1  23    1.67    0.09
  -3  -1  22    0.07    0.03
  -3   1  22    0.12    0.03
  -3  -1  21    0.11    0.03
  -3   1  21    0.16    0.03
  -3  -1  20    0.11    0.03
  -3   1  20    0.13    0.03
  -3  -1  19    0.00    0.02
  -3   1  18    0.42    0.04
  -3  -1  18    0.39    0.04
   3  -1 -17    1.29    0.05
  -3   1  17    1.35    0.07
  -3  -1  17    1.32    0.07
  -3   1  16    0.29    0.03
   3  -1 -16    0.34    0.02
  -3  -1  16    0.31    0.03
   3  -1 -15    0.20    0.01
  -3  -1  15    0.21    0.03
  -3   1  15    0.24    0.03
   3  -1 -14    0.35    0.02
  -3  -1  14    0.30    0.03
  -3   1  14    0.33    0.03
   3  -1 -13    2.46    0.07
  -3  -1  13    2.46    0.09
   3   1 -13    2.53    0.08
  -3   1  13    2.66    0.09
   3  -1 -13    2.60    0.08
   3  -1 -12    0.37    0.02
   3  -1 -12    0.33    0.02
   3   1 -12    0.36    0.03
  -3   1  12    0.37    0.03
   3  -1 -11    0.28    0.02
   3   1 -11    0.31    0.02
   3  -1 -11    0.29    0.02
  -3   1  11    0.31    0.03
   3   1 -10    0.43    0.03
   3  -1 -10    0.41    0.03
  -3   1  10    0.43    0.03
   3  -1 -10    0.39    0.02
   3  -1  -9    0.13    0.02
  -3   1   9    0.15    0.02
   3   1  -9    0.17    0.02
   3  -1  -9    0.14    0.01
   3  -1  -9    0.13    0.02
   3   1  -8    2.11    0.07
   3  -1  -8    2.33    0.08
   3   1  -8    2.13    0.07
   3  -1  -8    2.22    0.07
  -3   1   8    2.25    0.07
   3  -1  -8    2.27    0.06
   3   1  -7    9.79    0.23
   3   1  -7    9.56    0.23
   3  -1  -7    9.27    0.23
   3  -1  -7   10.31    0.22
  -3   1   7    9.98    0.22
  -3   1   7   10.06    0.24
   3  -1  -7   10.25    0.25
   3   1  -6    1.06    0.04
   3   1  -6    1.04    0.04
  -3   1   6    1.01    0.03
  -3   1   6    1.09    0.04
   3  -1  -6    1.10    0.03
   3   1  -5    0.54    0.03
   3   1  -5    0.53    0.03
   3  -1  -5    0.50    0.03
  -3   1   5    0.55    0.03
  -3   1   5    0.48    0.02
  -3   1   4    0.09    0.01
  -3   1   4    0.08    0.02
   3   1  -4    0.06    0.01
   3  -1  -4    0.05    0.01
  -3   1   4    0.07    0.01
   3   1  -3    0.32    0.02
   3  -1  -3    0.34    0.02
  -3  -1   3    0.37    0.02
  -3   1   3    0.34    0.02
  -3   1   3    0.35    0.02
  -3   1   2    0.69    0.03
  -3   1   2    0.75    0.04
   3  -1  -2    0.71    0.03
   3   1  -2    0.68    0.03
  -3   1   2    0.71    0.03
  -3  -1   2    0.72    0.03
   3  -1  -1    0.83    0.03
  -3   1   1    0.82    0.03
  -3   1   1    0.88    0.04
   3   1  -1    0.78    0.03
  -3   1   1    0.86    0.03
  -3   1   0    0.13    0.02
  -3   1   0    0.08    0.01
  -3  -1   0    0.12    0.02
  -3   1   0    0.13    0.02
  -3   1  -1    0.34    0.02
  -3  -1  -1    0.34    0.02
  -3   1  -1    0.37    0.02
  -3  -1  -2    0.55    0.03
  -3   1  -2    0.53    0.03
  -3   1  -2    0.56    0.03
  -3   1  -3    8.71    0.20
  -3   1  -3    8.46    0.20
  -3  -1  -3    8.44    0.20
   3   1   3    8.72    0.21
  -3  -1  -4    2.74    0.08
   3   1   4    2.91    0.09
  -3   1  -4    2.76    0.08
  -3  -1  -5    0.11    0.01
  -3   1  -5    0.08    0.01
   3   1   5    0.09    0.01
  -3  -1  -6    0.79    0.04
   3   1   6    0.81    0.04
   3  -1   6    0.77    0.04
  -3   1  -6    0.79    0.04
  -3   1  -7    2.37    0.07
   3  -1   7    2.21    0.07
   3   1   7    2.20    0.07
  -3  -1  -7    2.13    0.07
  -3  -1  -8    0.22    0.02
  -3   1  -8    0.22    0.02
   3  -1   8    0.21    0.02
   3   1   8    0.24    0.02
   3   1   9    5.29    0.14
   3  -1   9    5.09    0.14
  -3  -1  -9    5.19    0.14
  -3   1  -9    5.45    0.14
   3   1  10    0.59    0.03
   3  -1  10    0.60    0.03
  -3  -1 -10    0.66    0.03
  -3   1 -10    0.69    0.03
   3   1  11    0.80    0.04
   3  -1  11    0.83    0.04
  -3  -1 -11    0.80    0.04
  -3   1 -11    0.83    0.04
   3  -1  12    0.05    0.01
  -3  -1 -12    0.07    0.01
  -3   1 -12    0.05    0.01
   3   1  12    0.04    0.01
   3   1  13    0.11    0.02
   3  -1  13    0.09    0.02
   3   1  14    0.27    0.03
   3  -1  14    0.25    0.03
   3   1  15    0.04    0.01
   3  -1  15    0.05    0.02
   3   1  16    0.26    0.03
   3  -1  16    0.27    0.03
   3   1  17    0.33    0.03
   3  -1  17    0.34    0.03
   3  -1  18    0.01    0.02
   3   1  18    0.02    0.01
   3  -1  19    1.32    0.07
   3   1  19    1.30    0.06
   3  -1  20    1.27    0.06
   3   1  20    1.11    0.06
   3   1  21    0.04    0.02
   3  -1  21    0.02    0.02
   3   1  22    0.26    0.03
   3  -1  22    0.27    0.03
   3   1  23    1.13    0.06
   3  -1  23    1.15    0.06
   3  -1  24    0.12    0.03
   3   1  24    0.12    0.03
   3  -1  25    0.06    0.02
   3   1  25    0.08    0.02
   3   1  26   -0.01    0.02
   3  -1  26   -0.03    0.02
   3  -1  27   -0.01    0.02
   3   1  27    0.00    0.02
   3   1  28   -0.02    0.02
   3  -1  28    0.02    0.02
  -3  -2  30   -0.02    0.02
  -3   2  29    0.06    0.02
  -3  -2  29    0.07    0.02
  -3   2  28    0.07    0.02
  -3  -2  28    0.04    0.02
  -3   2  27    0.02    0.02
  -3  -2  27    0.04    0.02
  -3   2  26    0.23    0.03
  -3  -2  26    0.21    0.03
  -3   2  25    1.12    0.06
  -3  -2  25    1.03    0.06
  -3   2  24    0.04    0.02
  -3  -2  24    0.04    0.02
  -3   2  23    0.11    0.02
  -3  -2  23    0.06    0.02
   3  -2 -22    0.32    0.03
  -3   2  22    0.29    0.03
  -3  -2  22    0.25    0.03
  -3  -2  22    0.28    0.04
   3  -2 -21    0.58    0.03
  -3  -2  21    0.52    0.05
  -3   2  21    0.50    0.05
   3  -2 -20    0.02    0.01
  -3  -2  20    0.01    0.02
  -3   2  20   -0.02    0.02
   3  -2 -19    0.97    0.04
  -3  -2  19    0.85    0.05
  -3   2  19    0.91    0.05
   3  -2 -18    0.23    0.02
  -3  -2  18    0.20    0.03
   3  -2 -17    0.04    0.01
  -3  -2  17    0.03    0.02
   3   2 -17    0.01    0.00
  -3   2  17    0.04    0.02
   3  -2 -16    0.02    0.01
  -3  -2  16    0.02    0.02
  -3   2  16    0.02    0.02
   3  -2 -15    0.01    0.01
  -3  -2  15    0.01    0.01
  -3   2  15    0.00    0.01
   3  -2 -14    0.01    0.01
  -3  -2  14    0.01    0.01
  -3   2  14    0.00    0.01
   3  -2 -13    0.02    0.01
   3   2 -13    0.03    0.01
   3  -2 -13    0.02    0.01
  -3  -2  13    0.02    0.01
  -3   2  13    0.01    0.01
   3  -2 -12    1.16    0.04
   3  -2 -12    1.10    0.05
  -3  -2  12    1.08    0.05
  -3   2  12    1.19    0.05
   3   2 -12    1.17    0.05
   3   2 -11    2.07    0.07
   3  -2 -11    2.11    0.06
  -3   2  11    2.12    0.08
   3  -2 -11    2.03    0.07
  -3  -2  11    2.11    0.08
   3   2 -10    0.28    0.02
   3  -2 -10    0.27    0.02
   3  -2 -10    0.28    0.02
  -3   2  10    0.33    0.03
  -3  -2  10    0.30    0.03
   3  -2  -9    3.01    0.08
   3   2  -9    2.86    0.09
   3  -2  -9    3.06    0.09
  -3   2   9    3.17    0.09
  -3  -2   9    2.93    0.09
   3   2  -8    0.74    0.03
   3  -2  -8    0.74    0.03
  -3   2   8    0.81    0.04
   3  -2  -8    0.79    0.03
   3   2  -8    0.73    0.03
  -3  -2   8    0.79    0.04
   3  -2  -7    0.02    0.02
   3   2  -7    0.03    0.01
  -3  -2   7    0.02    0.00
   3  -2  -7    0.06    0.01
   3   2  -7    0.03    0.01
   3  -2  -7    0.03    0.01
  -3  -2   7    0.04    0.01
  -3   2   7    0.02    0.01
   3  -2  -6    0.76    0.05
   3  -2  -6    0.74    0.03
   3  -2  -6    0.76    0.03
   3   2  -6    0.77    0.03
  -3  -2   6    0.71    0.02
  -3   2   6    0.83    0.03
  -3   2   6    0.77    0.04
  -3  -2   6    0.76    0.04
   3  -2  -5    4.79    0.12
   3  -2  -5    4.96    0.15
   3   2  -5    4.75    0.12
   3  -2  -5    4.88    0.12
  -3   2   5    4.79    0.12
  -3  -2   5    4.83    0.13
  -3   2   5    4.93    0.13
   3   2  -4    0.40    0.02
  -3  -2   4    0.45    0.03
  -3   2   4    0.47    0.03
   3  -2  -4    0.39    0.03
  -3   2   4    0.50    0.02
   3  -2  -4    0.44    0.02
  -3   2   3    0.06    0.02
   3  -2  -3    0.06    0.02
   3  -2  -3    0.06    0.01
  -3   2   3    0.06    0.01
   3   2  -3    0.05    0.01
   3  -2  -3    0.05    0.01
  -3  -2   3    0.04    0.01
  -3   2   3    0.06    0.01
  -3  -2   2    0.01    0.01
  -3   2   2    0.00    0.01
   3   2  -2    0.00    0.01
   3  -2  -2    0.01    0.01
  -3  -2   2    0.00    0.01
  -3   2   2    0.00    0.01
  -3   2   2    0.01    0.01
  -3   2   1    0.17    0.02
  -3  -2   1    0.16    0.01
  -3   2   1    0.17    0.01
  -3   2   1    0.19    0.01
  -3  -2   1    0.18    0.02
  -3   2   1    0.18    0.02
  -3   2   0    0.11    0.02
  -3   2   0    0.09    0.01
  -3   2   0    0.08    0.01
  -3  -2   0    0.10    0.01
  -3   2   0    0.09    0.01
  -3  -2   0    0.10    0.01
  -3   2  -1    0.05    0.01
  -3  -2  -1    0.05    0.01
  -3  -2  -1    0.05    0.01
  -3   2  -1    0.05    0.01
  -3   2  -1    0.04    0.01
  -3  -2  -2    0.36    0.02
  -3  -2  -2    0.33    0.02
  -3   2  -2    0.34    0.02
  -3   2  -2    0.32    0.02
  -3   2  -3    0.05    0.01
  -3  -2  -3    0.06    0.01
  -3   2  -3    0.06    0.01
  -3  -2  -3    0.08    0.01
  -3  -2  -4    3.14    0.09
  -3   2  -4    3.01    0.09
   3   2   4    3.18    0.09
   3  -2   4    3.07    0.09
  -3  -2  -5    8.63    0.21
  -3   2  -5    8.89    0.21
   3   2   5    8.89    0.22
   3  -2   5    8.78    0.22
  -3   2  -6    0.19    0.02
  -3  -2  -6    0.18    0.02
   3   2   6    0.21    0.02
   3  -2   6    0.17    0.02
   3  -2   7    0.09    0.01
   3   2   7    0.12    0.02
  -3  -2  -7    0.10    0.01
  -3   2  -7    0.09    0.01
  -3  -2  -8    0.97    0.04
  -3   2  -8    0.92    0.04
   3   2   8    1.03    0.04
   3  -2   8    0.96    0.04
   3  -2   9    0.02    0.01
  -3  -2  -9    0.02    0.01
  -3   2  -9    0.01    0.01
   3   2   9    0.02    0.01
   3   2  10    0.19    0.02
   3  -2  10    0.22    0.02
  -3  -2 -10    0.24    0.02
  -3   2 -10    0.22    0.02
   3   2  11    3.11    0.09
   3  -2  11    2.99    0.09
  -3  -2 -11    2.92    0.09
  -3   2 -11    2.94    0.09
   3   2  12    0.53    0.03
   3  -2  12    0.53    0.03
  -3  -2 -12    0.49    0.03
  -3   2 -12    0.54    0.03
   3   2  13    0.37    0.03
   3  -2  13    0.40    0.03
   3   2  14    0.28    0.03
   3  -2  14    0.34    0.03
   3  -2  15    1.87    0.07
   3   2  15    1.83    0.07
   3   2  16    0.00    0.01
   3  -2  16    0.01    0.01
   3   2  17    0.39    0.03
   3  -2  17    0.42    0.03
   3   2  18    0.31    0.03
   3  -2  18    0.33    0.03
   3  -2  19    0.30    0.03
   3   2  19    0.32    0.03
   3   2  20    0.78    0.05
   3  -2  20    0.74    0.05
   3   2  21    2.91    0.11
   3  -2  21    3.00    0.11
   3  -2  22    0.47    0.04
   3   2  22    0.46    0.04
   3   2  23    0.65    0.05
   3  -2  23    0.65    0.05
   3   2  24    0.16    0.03
   3  -2  24    0.11    0.02
   3  -2  25    0.01    0.02
   3   2  25    0.03    0.02
   3   2  26    0.02    0.02
   3  -2  26    0.01    0.02
   3  -2  27    0.14    0.03
   3   2  27    0.18    0.03
   3   2  28    0.01    0.02
   3  -2  28    0.03    0.03
  -3  -3  29    0.08    0.02
  -3   3  29    0.04    0.02
  -3  -3  28    0.01    0.02
  -3   3  28    0.00    0.02
  -3   3  27    0.03    0.02
  -3  -3  27    0.00    0.02
   3  -3 -27    0.04    0.02
  -3   3  26    0.03    0.02
  -3  -3  26    0.05    0.02
   3  -3 -26    0.08    0.02
  -3  -3  25    0.05    0.02
   3  -3 -25    0.07    0.02
  -3   3  25    0.06    0.02
   3  -3 -24    2.03    0.08
  -3   3  24    1.99    0.08
  -3  -3  24    1.98    0.08
   3  -3 -23    0.02    0.01
  -3   3  23    0.03    0.01
  -3  -3  23    0.02    0.01
   3  -3 -22    0.51    0.04
  -3   3  22    0.52    0.04
  -3  -3  22    0.49    0.04
   3  -3 -21    0.06    0.02
  -3   3  21    0.06    0.02
  -3  -3  21    0.03    0.01
  -3  -3  21    0.03    0.02
   3  -3 -20    1.03    0.05
  -3  -3  20    1.04    0.06
  -3   3  20    1.08    0.06
   3  -3 -19    0.04    0.01
  -3  -3  19    0.03    0.02
  -3   3  19    0.03    0.02
   3  -3 -18    1.27    0.05
  -3  -3  18    1.16    0.06
  -3   3  18    1.33    0.07
   3  -3 -17    0.01    0.01
  -3  -3  17    0.00    0.02
   3  -3 -16    0.67    0.04
  -3   3  16    0.69    0.05
  -3  -3  16    0.63    0.05
   3  -3 -15    0.04    0.01
  -3  -3  15    0.04    0.02
  -3   3  15    0.06    0.02
   3  -3 -14    1.07    0.05
  -3   3  14    0.95    0.05
  -3  -3  14    0.99    0.05
   3  -3 -13    0.54    0.03
   3   3 -13    0.61    0.03
  -3  -3  13    0.53    0.04
  -3   3  13    0.53    0.04
   3  -3 -13    0.57    0.03
   3  -3 -12    0.45    0.04
   3  -3 -12    0.53    0.03
   3   3 -12    0.50    0.03
   3  -3 -12    0.47    0.03
  -3  -3  12    0.44    0.03
  -3   3  12    0.41    0.03
  -3   3  11    0.23    0.02
  -3  -3  11    0.21    0.02
   3   3 -11    0.21    0.02
   3  -3 -11    0.18    0.02
   3  -3 -11    0.25    0.03
   3  -3 -11    0.23    0.02
   3  -3 -10    0.95    0.04
   3  -3 -10    0.89    0.04
   3   3 -10    0.94    0.04
  -3   3  10    0.95    0.05
  -3  -3  10    0.98    0.05
   3  -3  -9    0.21    0.02
  -3   3   9    0.18    0.02
   3   3  -9    0.19    0.02
   3  -3  -9    0.19    0.02
  -3  -3   9    0.19    0.02
   3   3  -9    0.16    0.01
   3  -3  -9    0.24    0.03
  -3  -3   9    0.18    0.01
  -3  -3   8    3.11    0.08
   3   3  -8    3.21    0.09
  -3   3   8    3.31    0.10
   3  -3  -8    3.40    0.09
  -3  -3   8    3.21    0.10
   3  -3  -8    3.19    0.09
   3  -3  -8    3.50    0.12
  -3  -3   7    0.19    0.02
  -3  -3   7    0.20    0.01
   3  -3  -7    0.21    0.02
   3  -3  -7    0.18    0.02
   3  -3  -7    0.20    0.03
  -3   3   7    0.22    0.02
   3   3  -7    0.19    0.02
   3  -3  -6    4.76    0.15
   3  -3  -6    4.58    0.12
  -3  -3   6    4.39    0.11
   3  -3  -6    4.62    0.12
  -3   3   6    4.58    0.12
  -3  -3   6    4.37    0.12
   3   3  -6    4.55    0.12
  -3   3   6    4.74    0.12
   3  -3  -5    0.10    0.01
  -3  -3   5    0.11    0.01
  -3   3   5    0.11    0.01
  -3  -3   5    0.10    0.01
   3   3  -5    0.07    0.01
   3  -3  -5    0.06    0.01
  -3   3   5    0.07    0.01
   3  -3  -5    0.09    0.02
   3  -3  -4    0.72    0.03
   3  -3  -4    0.80    0.05
   3  -3  -4    0.77    0.03
  -3  -3   4    0.69    0.03
  -3  -3   4    0.68    0.03
  -3   3   4    0.73    0.03
   3   3  -4    0.69    0.03
  -3   3   4    0.81    0.03
   3  -3  -3    0.09    0.01
   3  -3  -3    0.08    0.01
  -3   3   3    0.10    0.01
   3   3  -3    0.06    0.01
  -3  -3   3    0.06    0.01
  -3   3   3    0.08    0.01
  -3  -3   2    1.41    0.05
  -3   3   2    1.50    0.05
  -3   3   2    1.54    0.07
  -3  -3   2    1.54    0.05
  -3   3   2    1.42    0.05
  -3   3   2    1.64    0.05
   3  -3  -2    1.51    0.05
  -3   3   1    0.10    0.01
  -3   3   1    0.04    0.01
  -3  -3   1    0.07    0.01
  -3   3   1    0.10    0.02
  -3   3   1    0.11    0.02
   3  -3  -1    0.09    0.01
  -3   3   0    0.03    0.01
  -3  -3   0   -0.01    0.01
  -3   3   0   -0.01    0.01
  -3  -3   0    0.02    0.01
  -3   3   0    0.01    0.01
  -3   3  -1    0.00    0.01
  -3   3  -1    0.04    0.02
  -3  -3  -1    0.02    0.01
  -3   3  -1    0.02    0.01
  -3  -3  -1    0.03    0.01
  -3   3  -2    1.77    0.06
  -3  -3  -2    1.74    0.06
  -3   3  -2    1.85    0.08
  -3  -3  -2    1.84    0.06
  -3   3  -2    1.78    0.06
  -3   3  -3    1.36    0.06
  -3   3  -3    1.30    0.05
  -3  -3  -3    1.27    0.05
  -3   3  -3    1.39    0.05
  -3  -3  -3    1.33    0.05
  -3   3  -4    5.26    0.13
  -3  -3  -4    5.02    0.13
  -3  -3  -4    4.97    0.13
  -3   3  -4    4.90    0.13
  -3   3  -4    5.29    0.13
  -3   3  -5    0.41    0.02
  -3   3  -5    0.49    0.03
  -3  -3  -5    0.46    0.03
   3   3   5    0.49    0.03
   3  -3   5    0.40    0.03
  -3  -3  -6    1.66    0.06
  -3   3  -6    1.76    0.06
  -3   3  -6    1.70    0.06
   3   3   6    1.72    0.06
   3  -3   6    1.67    0.06
   3  -3   7    0.07    0.01
  -3  -3  -7    0.07    0.01
  -3   3  -7    0.05    0.01
   3   3   7    0.06    0.01
   3   3   8    0.03    0.01
  -3  -3  -8    0.03    0.01
  -3   3  -8    0.01    0.01
   3  -3   8    0.03    0.01
   3   3   9    0.23    0.02
   3  -3   9    0.25    0.02
  -3  -3  -9    0.20    0.02
  -3   3  -9    0.25    0.02
   3   3  10    2.94    0.09
   3  -3  10    3.02    0.09
  -3  -3 -10    3.01    0.09
  -3   3 -10    3.10    0.09
  -3  -3 -11    0.01    0.01
  -3   3 -11    0.00    0.01
   3   3  11    0.02    0.01
   3  -3  11    0.01    0.01
   3   3  12   -0.01    0.01
   3  -3  12   -0.01    0.01
   3  -3  13   -0.01    0.01
   3   3  14    0.56    0.04
   3  -3  14    0.61    0.04
   3   3  15    0.00    0.01
   3  -3  15   -0.01    0.02
   3   3  16    1.16    0.05
   3  -3  16    1.08    0.05
   3   3  17    0.02    0.01
   3  -3  17    0.04    0.01
   3   3  18    0.01    0.01
   3  -3  18    0.00    0.01
   3   3  19    0.36    0.03
   3  -3  19    0.36    0.03
   3   3  20    2.93    0.11
   3  -3  20    2.91    0.11
   3   3  21    0.23    0.03
   3  -3  21    0.18    0.03
   3   3  22    0.43    0.04
   3  -3  22    0.52    0.04
   3   3  23    0.02    0.02
   3  -3  23    0.01    0.02
   3   3  24    0.80    0.05
   3  -3  24    0.76    0.05
   3   3  25    0.03    0.02
   3  -3  25    0.01    0.02
   3   3  26    0.05    0.03
   3  -3  26    0.05    0.02
   3   3  27   -0.03    0.02
   3  -3  27    0.01    0.02
   3  -3  28    0.00    0.02
  -3  -4  29   -0.03    0.02
  -3   4  28   -0.02    0.02
  -3  -4  28   -0.02    0.02
  -3   4  27    0.00    0.02
  -3  -4  27    0.01    0.02
   3  -4 -27    0.02    0.02
  -3  -4  26    0.06    0.02
   3  -4 -26    0.08    0.02
  -3   4  26    0.11    0.02
   3  -4 -25    0.29    0.03
  -3   4  25    0.28    0.03
  -3  -4  25    0.27    0.03
   3  -4 -24    0.23    0.03
  -3   4  24    0.22    0.03
  -3  -4  24    0.21    0.03
  -3  -4  23    0.04    0.02
   3  -4 -23    0.08    0.02
  -3   4  23    0.06    0.02
   3  -4 -22    0.49    0.04
  -3   4  22    0.45    0.04
  -3  -4  22    0.47    0.03
   3  -4 -21    0.31    0.03
  -3   4  21    0.28    0.03
  -3  -4  21    0.28    0.03
   3  -4 -20    0.03    0.02
  -3   4  20    0.04    0.01
  -3  -4  20    0.01    0.01
   3  -4 -19    0.64    0.04
  -3   4  19    0.59    0.04
  -3  -4  19    0.58    0.04
   3  -4 -18    0.71    0.04
  -3  -4  18    0.67    0.05
   3  -4 -17    0.05    0.02
  -3  -4  17    0.04    0.02
  -3   4  17    0.01    0.02
   3  -4 -16    0.33    0.03
  -3  -4  16    0.30    0.03
  -3   4  16    0.26    0.03
   3  -4 -16    0.28    0.04
   3  -4 -15    0.12    0.03
   3  -4 -15    0.17    0.02
  -3  -4  15    0.16    0.02
  -3   4  15    0.17    0.02
   3  -4 -14    0.12    0.03
   3  -4 -14    0.06    0.02
  -3  -4  14    0.08    0.02
  -3   4  14    0.08    0.02
   3  -4 -13    0.35    0.04
   3  -4 -13    0.35    0.03
   3  -4 -13    0.34    0.03
  -3  -4  13    0.30    0.03
  -3   4  13    0.32    0.03
   3  -4 -12    0.19    0.02
   3  -4 -12    0.22    0.03
   3  -4 -12    0.20    0.02
  -3  -4  12    0.20    0.02
  -3   4  12    0.17    0.02
   3  -4 -11    0.44    0.04
   3   4 -11    0.35    0.64
   3  -4 -11    0.33    0.02
  -3  -4  11    0.38    0.03
  -3   4  11    0.39    0.03
   3  -4 -11    0.33    0.03
   3  -4 -10    0.10    0.02
   3  -4 -10    0.07    0.01
   3   4 -10    0.03    0.01
   3  -4 -10    0.11    0.01
  -3  -4  10    0.06    0.02
  -3   4  10    0.08    0.02
  -3  -4   9    1.30    0.04
   3  -4  -9    1.31    0.07
   3  -4  -9    1.26    0.04
  -3   4   9    1.26    0.05
   3  -4  -9    1.27    0.05
  -3  -4   9    1.30    0.05
   3  -4  -8    1.27    0.07
   3   4  -8    1.19    0.04
   3  -4  -8    1.12    0.04
  -3  -4   8    1.10    0.04
  -3  -4   8    1.12    0.05
  -3   4   8    1.14    0.05
   3  -4  -8    1.18    0.05
   3  -4  -7    0.03    0.01
  -3  -4   7    0.02    0.01
   3  -4  -7    0.03    0.02
   3   4  -7    0.02    0.01
   3  -4  -7    0.02    0.01
  -3  -4   7    0.01    0.01
  -3   4   7    0.02    0.01
   3  -4  -6    1.12    0.06
   3  -4  -6    1.04    0.04
  -3  -4   6    0.95    0.04
   3   4  -6    0.96    0.04
   3  -4  -6    1.07    0.04
  -3  -4   6    0.86    0.04
  -3   4   6    0.96    0.04
   3  -4  -5    1.84    0.07
   3  -4  -5    2.03    0.09
   3  -4  -5    2.03    0.06
  -3  -4   5    1.91    0.06
  -3  -4   5    1.79    0.06
  -3   4   5    2.02    0.06
   3   4  -5    1.95    0.06
   3  -4  -4    0.84    0.03
   3  -4  -4    0.71    0.04
   3   4  -4    0.73    0.03
  -3  -4   4    0.71    0.03
  -3  -4   4    0.69    0.03
  -3   4   4    0.72    0.03
   3  -4  -4    0.74    0.05
   3  -4  -3    0.15    0.02
  -3  -4   3    0.17    0.02
  -3  -4   3    0.12    0.02
  -3   4   3    0.15    0.02
  -3  -4   3    0.14    0.02
  -3   4   3    0.15    0.02
   3  -4  -2    0.21    0.02
  -3  -4   2    0.21    0.02
  -3   4   2    0.17    0.02
  -3  -4   2    0.19    0.02
  -3   4   2    0.16    0.02
  -3  -4   2    0.14    0.02
  -3  -4   1    0.35    0.02
  -3   4   1    0.32    0.02
  -3  -4   1    0.43    0.02
  -3   4   1    0.40    0.02
   3  -4  -1    0.40    0.03
  -3  -4   0    0.53    0.03
  -3   4   0    0.53    0.03
  -3  -4   0    0.60    0.03
  -3   4   0    0.56    0.03
   3  -4   0    0.53    0.03
  -3  -4  -1    0.44    0.02
  -3  -4  -1    0.51    0.03
  -3   4  -1    0.41    0.02
  -3   4  -1    0.49    0.02
  -3   4  -2    0.06    0.01
  -3  -4  -2    0.06    0.01
  -3  -4  -2    0.08    0.01
  -3   4  -2    0.07    0.01
  -3  -4  -3    0.25    0.02
  -3  -4  -3    0.26    0.02
  -3   4  -3    0.21    0.02
  -3   4  -3    0.26    0.02
  -3  -4  -4    0.99    0.04
  -3   4  -4    0.99    0.04
  -3  -4  -4    1.08    0.04
  -3   4  -4    1.02    0.04
  -3  -4  -5    2.92    0.08
  -3   4  -5    2.85    0.08
  -3  -4  -5    2.77    0.08
  -3   4  -5    2.79    0.08
  -3  -4  -6    2.16    0.07
  -3   4  -6    2.02    0.06
  -3  -4  -6    2.05    0.06
  -3   4  -6    2.14    0.06
   3   4   7    0.15    0.02
   3  -4   7    0.15    0.02
  -3  -4  -7    0.15    0.02
  -3   4  -7    0.14    0.01
   3   4   8    0.57    0.03
   3  -4   8    0.60    0.03
  -3  -4  -8    0.58    0.03
  -3   4  -8    0.55    0.03
   3  -4   9    0.03    0.01
  -3   4  -9    0.03    0.01
   3   4   9    0.02    0.01
   3   4  10    0.28    0.02
   3  -4  10    0.31    0.02
  -3  -4 -10    0.31    0.02
  -3   4 -10    0.34    0.02
   3   4  11    1.00    0.05
   3  -4  11    0.98    0.05
  -3  -4 -11    1.03    0.04
  -3   4 -11    0.96    0.04
   3   4  12    1.46    0.06
   3  -4  12    1.46    0.06
   3  -4  13   -0.02    0.02
   3   4  13   -0.01    0.02
   3   4  14    0.14    0.02
   3  -4  14    0.12    0.02
   3   4  15    1.51    0.06
   3  -4  15    1.41    0.06
   3   4  16    0.46    0.03
   3  -4  16    0.42    0.03
   3   4  17    0.00    0.01
   3  -4  17    0.01    0.02
   3   4  18    0.07    0.02
   3  -4  18    0.05    0.02
   3   4  19    0.16    0.03
   3  -4  19    0.12    0.02
   3   4  20    0.38    0.04
   3  -4  20    0.38    0.04
   3   4  21    1.29    0.06
   3  -4  21    1.16    0.06
   3   4  22    1.62    0.07
   3  -4  22    1.50    0.07
   3   4  23    0.20    0.03
   3  -4  23    0.20    0.03
   3   4  24    0.00    0.02
   3  -4  24    0.03    0.02
   3   4  25    0.00    0.02
   3  -4  25    0.00    0.02
   3   4  26    0.00    0.02
   3  -4  26    0.01    0.02
   3   4  27    0.01    0.02
   3  -4  27    0.04    0.02
  -3  -5  28    0.01    0.02
  -3   5  27    0.00    0.02
  -3  -5  27    0.02    0.02
   3  -5 -27    0.00    0.02
  -3   5  26    0.09    0.02
  -3  -5  26    0.07    0.02
  -3   5  25    0.02    0.02
   3  -5 -25    0.05    0.02
  -3  -5  25    0.01    0.02
  -3   5  24    0.07    0.02
  -3  -5  24    0.07    0.02
   3  -5 -24    0.06    0.02
  -3   5  23    1.71    0.07
  -3  -5  23    1.68    0.07
  -3  -5  22    0.14    0.02
  -3   5  22    0.15    0.02
   3  -5 -21    0.22    0.04
  -3  -5  21    0.16    0.02
   3  -5 -21    0.17    0.03
  -3   5  21    0.19    0.03
   3  -5 -20    0.41    0.05
   3  -5 -20    0.40    0.04
  -3   5  20    0.34    0.03
  -3  -5  20    0.30    0.03
  -3  -5  19    0.04    0.01
   3  -5 -19    0.02    0.02
   3  -5 -19    0.03    0.02
  -3   5  19    0.03    0.01
   3  -5 -18    0.05    0.02
   3  -5 -18    0.05    0.02
  -3   5  18    0.04    0.01
  -3  -5  18    0.01    0.01
   3  -5 -17    0.24    0.03
  -3   5  17    0.27    0.03
   3  -5 -17    0.23    0.04
   3  -5 -16    0.23    0.04
   3  -5 -16    0.22    0.03
  -3   5  16    0.26    0.02
  -3  -5  16    0.23    0.02
   3  -5 -15    0.57    0.04
  -3   5  15    0.59    0.03
  -3  -5  15    0.58    0.04
  -3  -5  15    0.55    0.03
   3  -5 -15    0.62    0.06
   3  -5 -14    0.01    0.02
   3  -5 -14    0.04    0.01
  -3  -5  14    0.02    0.01
   3  -5 -13    1.84    0.09
   3  -5 -13    1.62    0.06
   3  -5 -13    1.84    0.07
  -3  -5  13    1.72    0.07
  -3   5  13    1.74    0.07
   3  -5 -12    0.07    0.03
   3  -5 -12    0.08    0.02
   3  -5 -12    0.05    0.01
  -3   5  12    0.06    0.02
   3  -5 -11    0.30    0.04
   3  -5 -11    0.43    0.03
   3   5 -11    0.36    0.02
  -3  -5  11    0.35    0.03
  -3   5  11    0.39    0.03
   3  -5 -11    0.33    0.02
   3  -5 -10    0.65    0.05
   3  -5 -10    0.66    0.04
   3   5 -10    0.62    0.03
   3  -5 -10    0.55    0.03
  -3  -5  10    0.57    0.04
  -3   5  10    0.61    0.04
  -3  -5  10    0.57    0.03
   3  -5  -9    0.21    0.02
   3  -5  -9    0.23    0.02
  -3  -5   9    0.21    0.02
  -3  -5   9    0.20    0.02
  -3   5   9    0.22    0.02
   3  -5  -9    0.25    0.04
   3   5  -9    0.19    0.02
  -3  -5   8    0.01    0.01
   3  -5  -8    0.03    0.01
   3   5  -8    0.01    0.01
   3  -5  -8    0.01    0.01
   3  -5  -8    0.01    0.02
  -3  -5   8    0.01    0.01
  -3   5   8    0.01    0.01
   3  -5  -7    8.04    0.24
  -3  -5   7    7.63    0.19
   3   5  -7    7.91    0.18
   3  -5  -7    7.77    0.18
  -3  -5   7    7.24    0.19
  -3   5   7    7.71    0.19
   3  -5  -7    7.73    0.20
   3  -5  -6    0.91    0.05
   3  -5  -6    0.89    0.03
  -3  -5   6    0.84    0.04
  -3   5   6    0.87    0.04
  -3  -5   6    0.87    0.04
   3  -5  -6    0.89    0.06
  -3  -5   6    0.79    0.03
  -3  -5   5    0.01    0.01
   3  -5  -5    0.06    0.02
  -3  -5   5    0.06    0.01
  -3  -5   5    0.02    0.01
  -3   5   5    0.06    0.01
  -3   5   5    0.02    0.01
   3  -5  -4    0.28    0.03
  -3  -5   4    0.29    0.02
  -3  -5   4    0.25    0.02
  -3   5   4    0.26    0.02
  -3  -5   4    0.25    0.02
  -3   5   4    0.22    0.02
   3  -5  -3    0.00    0.01
  -3  -5   3    0.01    0.01
  -3  -5   3   -0.01    0.01
  -3   5   3    0.02    0.01
  -3   5   3    0.01    0.01
  -3  -5   3    0.00    0.01
  -3  -5   2    0.35    0.02
  -3  -5   2    0.38    0.02
  -3  -5   2    0.32    0.02
  -3   5   2    0.41    0.02
  -3   5   2    0.37    0.02
   3  -5  -2    0.34    0.03
  -3  -5   1    0.01    0.01
   3  -5  -1    0.04    0.01
  -3   5   1    0.01    0.01
  -3  -5   1    0.06    0.01
  -3  -5   1    0.02    0.01
  -3   5   1    0.01    0.01
  -3  -5   0    0.16    0.02
  -3  -5   0    0.18    0.02
  -3   5   0    0.18    0.01
  -3   5   0    0.15    0.01
  -3  -5   0    0.17    0.01
   3  -5   0    0.20    0.02
  -3   5  -1    0.72    0.03
  -3  -5  -1    0.71    0.03
  -3  -5  -1    0.72    0.03
  -3   5  -1    0.78    0.03
  -3  -5  -1    0.69    0.04
  -3  -5  -1    0.70    0.03
   3  -5   1    0.74    0.04
  -3  -5  -2    0.02    0.01
  -3  -5  -2    0.02    0.01
  -3  -5  -2    0.00    0.01
  -3   5  -2    0.00    0.01
  -3   5  -2    0.01    0.01
  -3   5  -3    4.81    0.12
  -3  -5  -3    4.83    0.12
  -3  -5  -3    4.70    0.12
  -3   5  -3    4.74    0.12
  -3  -5  -4    0.43    0.02
  -3   5  -4    0.47    0.02
  -3  -5  -4    0.42    0.02
  -3   5  -4    0.42    0.02
  -3  -5  -5    0.17    0.02
  -3   5  -5    0.18    0.02
  -3  -5  -5    0.17    0.02
  -3   5  -5    0.15    0.01
  -3  -5  -6    0.52    0.03
  -3   5  -6    0.49    0.03
  -3   5  -6    0.48    0.02
  -3  -5  -7    1.91    0.06
  -3   5  -7    1.87    0.06
  -3  -5  -7    1.85    0.06
  -3   5  -7    1.78    0.05
  -3   5  -8    0.21    0.02
  -3  -5  -8    0.18    0.02
  -3   5  -8    0.20    0.02
  -3  -5  -8    0.20    0.02
  -3   5  -9    5.58    0.14
  -3  -5  -9    5.22    0.13
  -3   5  -9    5.22    0.13
   3   5   9    5.22    0.14
  -3  -5 -10    0.68    0.03
   3   5  10    0.68    0.04
   3  -5  10    0.70    0.04
   3   5  11    0.07    0.02
  -3  -5 -11    0.06    0.01
   3  -5  11    0.07    0.02
   3   5  12    0.03    0.01
   3  -5  12   -0.01    0.01
   3   5  13   -0.01    0.01
   3  -5  13    0.00    0.01
   3   5  14    0.25    0.02
   3  -5  14    0.20    0.02
   3  -5  15    0.08    0.02
   3   5  15    0.04    0.01
   3   5  16    0.00    0.01
   3  -5  16   -0.01    0.01
   3  -5  17    0.03    0.01
   3   5  17    0.02    0.01
   3  -5  18    0.01    0.01
   3   5  18    0.01    0.01
   3   5  19    1.13    0.06
   3  -5  19    1.11    0.06
   3   5  20    0.26    0.03
   3  -5  20    0.24    0.03
   3   5  21   -0.01    0.02
   3  -5  21   -0.01    0.02
   3   5  22    0.02    0.02
   3  -5  22    0.02    0.02
   3  -5  23    1.37    0.07
   3   5  23    1.35    0.07
   3   5  24    0.16    0.03
   3  -5  24    0.13    0.03
   3   5  25    0.50    0.05
   3  -5  25    0.46    0.04
   3  -5  26    0.04    0.02
   3  -6 -22    0.65    0.06
   3  -6 -21    0.21    0.04
   3  -6 -21    0.44    0.06
   3  -6 -20    0.11    0.04
   3  -6 -20    0.05    0.02
  -3  -6  19    0.19    0.02
   3  -6 -19    0.22    0.03
   3  -6 -18    0.58    0.06
   3  -6 -18    0.56    0.04
  -3  -6  18    0.54    0.03
   3  -6 -17   -0.01    0.02
  -3  -6  17    0.01    0.01
   3  -6 -17    0.00    0.01
  -3  -6  16    0.01    0.01
   3  -6 -16    0.03    0.02
   3  -6 -16    0.05    0.02
  -3  -6  15    0.00    0.01
   3  -6 -15    0.01    0.02
   3  -6 -15    0.02    0.02
  -3  -6  14    0.00    0.01
   3  -6 -14    0.03    0.02
   3  -6 -14    0.00    0.01
   3  -6 -13    0.06    0.03
   3  -6 -13    0.03    0.02
  -3  -6  13    0.02    0.01
   3  -6 -12    0.76    0.06
   3  -6 -12    0.90    0.05
  -3  -6  12    0.84    0.04
   3  -6 -11    0.11    0.03
   3  -6 -11    0.09    0.02
  -3  -6  11    0.10    0.01
   3  -6 -10    0.06    0.03
   3  -6 -10    0.05    0.02
  -3  -6  10    0.05    0.01
  -3  -6  10    0.06    0.01
   3  -6  -9    0.00    0.02
  -3  -6   9    0.00    0.01
   3  -6  -9    0.02    0.02
  -3  -6   9    0.01    0.01
  -3  -6   9    0.00    0.01
  -3  -6   8    1.54    0.06
  -3  -6   8    1.47    0.05
   3  -6  -8    1.52    0.07
   3  -6  -7    0.40    0.03
  -3  -6   7    0.43    0.03
  -3  -6   7    0.44    0.03
   3  -6  -6    1.44    0.06
  -3  -6   6    1.47    0.06
  -3  -6   6    1.35    0.05
   3  -6  -5    1.23    0.06
  -3  -6   5    1.29    0.05
  -3  -6   5    1.14    0.04
   3  -6  -4    0.46    0.03
  -3  -6   4    0.49    0.02
  -3  -6   4    0.43    0.02
  -3  -6   4    0.50    0.03
   3  -6  -3    0.09    0.02
  -3  -6   3    0.09    0.02
  -3  -6   3    0.07    0.01
  -3  -6   3    0.06    0.01
   3  -6  -2    0.05    0.02
  -3  -6   2    0.07    0.02
  -3  -6   2    0.05    0.01
  -3  -6   2    0.03    0.01
   3  -6  -1    0.00    0.01
  -3  -6   1    0.01    0.01
  -3  -6   1    0.01    0.01
  -3  -6   1    0.00    0.01
  -3  -6   0    0.01    0.01
   3  -6   0    0.01    0.01
  -3  -6   0    0.01    0.01
  -3  -6   0    0.01    0.01
  -3  -6  -1    0.18    0.02
  -3  -6  -1    0.20    0.01
  -3  -6  -1    0.19    0.01
  -3  -6  -2    0.33    0.03
  -3  -6  -2    0.31    0.02
  -3  -6  -2    0.37    0.02
  -3  -6  -3    0.01    0.01
  -3  -6  -3    0.02    0.01
  -3  -6  -3    0.01    0.01
  -3  -6  -4    2.25    0.06
  -3  -6  -4    2.20    0.08
  -3  -6  -5    0.17    0.03
  -3  -6  -6    0.95    0.04
  -3  -6  -7    0.29    0.02
  -3  -6  -8    1.34    0.05
  -3  -6  -9    0.16    0.02
  -3  -6 -10    0.23    0.02
  -3  -6 -11    0.76    0.03
   3  -6  14    0.28    0.03
   3  -6  15   -0.01    0.02
   3  -6  16    0.13    0.03
   3  -6  17    0.15    0.03
   3  -6  18    0.51    0.04
   3  -7 -17    0.55    0.06
   3  -7 -16    0.05    0.03
   3  -7 -15    0.00    0.02
   3  -7 -15    0.03    0.02
   3  -7 -14    0.16    0.04
   3  -7 -14    0.18    0.03
   3  -7 -13    0.31    0.05
   3  -7 -13    0.34    0.04
   3  -7 -12    0.14    0.04
   3  -7 -12    0.09    0.02
   3  -7 -11    0.21    0.03
   3  -7 -11    0.28    0.04
   3  -7 -10    0.09    0.03
  -3  -7  10    0.06    0.01
   3  -7 -10    0.03    0.02
   3  -7  -9    0.18    0.03
  -3  -7   9    0.18    0.02
  -3  -7   8    1.61    0.06
   3  -7  -8    1.70    0.07
  -3  -7   7    1.05    0.05
   3  -7  -7    1.10    0.06
  -3  -7   6    0.01    0.01
   3  -7  -6    0.01    0.01
   3  -7  -5    0.16    0.03
  -3  -7   5    0.18    0.02
   3  -7  -4    0.03    0.02
  -3  -7   4    0.01    0.01
   3  -7  -3    0.87    0.05
  -3  -7   3    0.90    0.05
  -3  -7   2    1.04    0.05
   3  -7  -2    1.02    0.06
  -3  -7   1    0.29    0.03
  -3  -7   0    0.07    0.02
  -3  -7  -1    0.03    0.02
  -3  -7  -2    0.17    0.02
  -3  -7  -3    0.90    0.05
  -3  -7  -4    1.06    0.06
  -3  -7  -5    0.11    0.02
  -3  -7  -6    0.22    0.03
  -3  -7  -7    0.54    0.04
  -3  -7  -8    0.47    0.04
  -3  -7  -9    0.40    0.04
  -3  -7 -10    0.03    0.02
  -3  -7 -11    0.55    0.05
  -3  -8   9    1.22    0.06
  -3  -8   8    0.02    0.01
  -3  -8   7    0.05    0.02
  -3  -8   6    0.09    0.02
  -3  -8   5    1.39    0.06
  -3  -8   4    0.05    0.02
  -3  -8   3    0.01    0.01
  -3  -8   2    0.10    0.02
  -3  -8   1    0.07    0.02
  -3  -8   0    0.29    0.03
  -3  -8  -1    0.04    0.02
  -3  -8  -2    0.04    0.02
  -3  -8  -3    0.01    0.02
  -3  -8  -4    0.35    0.04
  -3  -8  -5    1.92    0.09
  -3  -8  -6    0.12    0.03
  -3  -8  -7    0.14    0.03
  -4   0  29    0.02    0.02
  -4   0  28    0.30    0.03
  -4   0  27    0.00    0.01
  -4   0  26   -0.02    0.03
  -4   0  25    0.00    0.02
  -4   0  24    1.83    0.09
  -4   0  23    0.03    0.02
  -4   0  22    0.70    0.06
   4   0 -21    0.01    0.01
  -4   0  21    0.03    0.02
   4   0 -20    1.14    0.03
  -4   0  20    1.42    0.07
   4   0 -19    0.02    0.01
  -4   0  19    0.04    0.02
   4   0 -18   15.83    0.35
  -4   0  18   19.46    0.42
   4   0 -17    0.18    0.01
  -4   0  17    0.28    0.04
  -4   0  16   13.41    0.31
   4   0 -16   11.54    0.26
  -4   0  15    0.12    0.03
  -4   0  14    4.40    0.14
  -4   0  13    0.00    0.01
   4   0 -12    9.24    0.25
  -4   0  12    9.97    0.25
   4   0 -11    0.03    0.02
  -4   0  11    0.05    0.02
   4   0 -10    0.08    0.02
   4   0 -10    0.05    0.01
  -4   0  10    0.05    0.02
   4   0  -9    0.00    0.01
   4   0  -9    0.01    0.01
  -4   0   9    0.01    0.01
   4   0  -8    5.22    0.15
   4   0  -8    5.35    0.14
  -4   0   8    4.98    0.12
  -4   0   8    5.34    0.14
   4   0  -7    0.16    0.02
   4   0  -7    0.18    0.02
  -4   0   7    0.15    0.02
  -4   0   7    0.12    0.01
   4   0  -6    3.01    0.10
   4   0  -6    2.92    0.08
  -4   0   6    3.17    0.09
   4   0  -5    0.06    0.01
  -4   0   5    0.08    0.01
  -4   0   5    0.05    0.01
  -4   0   4    0.45    0.03
   4   0  -4    0.45    0.03
  -4   0   4    0.44    0.03
  -4   0   4    0.40    0.02
   4   0  -3    0.18    0.02
  -4   0   3    0.22    0.02
  -4   0   2   66.17    1.43
   4   0  -2   64.32    1.42
  -4   0   2   66.74    1.42
   4   0  -1   10.09    0.25
  -4   0   1    9.82    0.25
  -4   0   1   10.58    0.26
  -4   0   0   45.47    1.01
  -4   0   0   47.05    1.01
  -4   0  -1    4.83    0.16
  -4   0  -1    8.44    0.17
  -4   0  -2    0.25    0.03
  -4   0  -2    0.68    0.03
  -4   0  -3    0.05    0.01
  -4   0  -3    0.02    0.01
  -4   0  -4   10.58    0.25
  -4   0  -4   10.57    0.25
  -4   0  -5    0.20    0.02
   4   0   5    0.14    0.02
  -4   0  -6    0.94    0.04
   4   0   6    0.98    0.05
   4   0   7    0.02    0.01
  -4   0  -7    0.00    0.01
   4   0   8    1.95    0.07
  -4   0  -8    1.89    0.07
   4   0   9    0.04    0.01
   4   0  10    3.74    0.12
   4   0  11    0.01    0.01
   4   0  12    5.17    0.15
   4   0  13    0.11    0.02
   4   0  14   22.79    0.53
   4   0  15    0.24    0.03
   4   0  16   13.30    0.33
   4   0  17    0.00    0.02
   4   0  18    1.20    0.06
   4   0  19    0.00    0.02
   4   0  20    0.95    0.06
   4   0  21    0.01    0.02
   4   0  22    2.33    0.10
   4   0  23    0.01    0.02
   4   0  24    0.09    0.02
   4   0  25    0.00    0.02
   4   0  26    0.16    0.03
   4   0  27    0.03    0.02
  -4   1  29    0.40    0.04
  -4  -1  29    0.40    0.04
  -4   1  28    0.03    0.02
  -4  -1  28    0.01    0.02
  -4   1  27    0.03    0.02
  -4  -1  27    0.04    0.02
  -4  -1  26    0.04    0.03
  -4   1  26    0.01    0.02
  -4  -1  25    0.11    0.03
  -4   1  25    0.12    0.03
  -4  -1  24    0.09    0.03
  -4   1  24    0.11    0.03
  -4  -1  23    1.88    0.09
  -4   1  23    1.76    0.09
   4  -1 -22    0.48    0.02
  -4  -1  22    0.49    0.05
  -4   1  22    0.45    0.05
   4  -1 -21    0.04    0.01
  -4  -1  21    0.03    0.02
  -4   1  21    0.01    0.02
   4  -1 -20    0.21    0.02
  -4  -1  20    0.23    0.04
  -4   1  20    0.16    0.03
   4  -1 -19    0.59    0.03
  -4  -1  19    0.52    0.05
  -4   1  19    0.62    0.05
   4  -1 -18    0.00    0.01
  -4  -1  18    0.01    0.02
  -4   1  18    0.00    0.02
   4  -1 -17    0.12    0.01
  -4  -1  17    0.10    0.02
  -4   1  17    0.11    0.02
   4  -1 -16    0.02    0.01
  -4  -1  16    0.01    0.02
  -4   1  16    0.01    0.02
   4  -1 -15    0.23    0.01
  -4  -1  15    0.22    0.03
  -4   1  15    0.18    0.03
   4  -1 -14    0.01    0.01
  -4  -1  14    0.01    0.01
  -4   1  14    0.01    0.01
   4  -1 -13    0.69    0.05
   4  -1 -13    0.63    0.02
  -4   1  13    0.60    0.04
   4  -1 -12    0.14    0.01
   4   1 -12    0.12    0.02
  -4   1  12    0.13    0.02
   4  -1 -12    0.16    0.02
   4   1 -11    0.10    0.02
   4  -1 -11    0.12    0.02
  -4   1  11    0.06    0.02
   4  -1 -10    1.24    0.06
   4   1 -10    1.18    0.05
   4   1 -10    1.23    0.05
   4  -1 -10    1.23    0.05
  -4   1  10    1.31    0.06
   4  -1 -10    1.38    0.04
   4  -1  -9    6.05    0.17
   4   1  -9    5.96    0.16
  -4   1   9    6.20    0.17
   4   1  -9    5.88    0.16
   4  -1  -8    0.68    0.04
   4   1  -8    0.74    0.04
   4   1  -8    0.70    0.03
   4  -1  -8    0.66    0.03
  -4   1   8    0.71    0.03
  -4   1   8    0.64    0.04
  -4  -1   7    0.12    0.01
   4   1  -7    0.15    0.02
   4  -1  -7    0.13    0.02
  -4   1   7    0.17    0.01
   4   1  -7    0.12    0.02
   4  -1  -7    0.15    0.02
  -4   1   7    0.17    0.02
   4  -1  -6    0.26    0.03
  -4   1   6    0.27    0.02
   4   1  -6    0.21    0.02
   4  -1  -6    0.24    0.02
  -4   1   6    0.22    0.02
  -4   1   5    0.02    0.01
   4   1  -5    0.00    0.01
   4  -1  -5    0.01    0.01
  -4   1   5    0.02    0.01
  -4  -1   4    0.76    0.04
  -4   1   4    0.83    0.04
  -4   1   4    0.74    0.03
   4   1  -4    0.72    0.03
  -4   1   4    0.78    0.04
   4  -1  -4    0.76    0.03
  -4   1   3    3.13    0.08
   4   1  -3    3.17    0.09
   4  -1  -3    3.28    0.09
  -4   1   3    3.25    0.10
  -4  -1   3    3.27    0.10
  -4   1   2    1.71    0.07
  -4  -1   2    1.63    0.06
   4   1  -2    1.28    0.05
   4  -1  -2    1.36    0.05
  -4   1   2    1.31    0.05
  -4   1   1    0.95    0.05
  -4   1   1    0.89    0.04
  -4  -1   1    0.92    0.04
  -4  -1   1    0.96    0.05
  -4   1   1    0.98    0.05
  -4   1   1    0.96    0.03
  -4   1   0    1.36    0.06
  -4   1   0    1.35    0.05
  -4  -1   0    1.35    0.06
  -4   1   0    1.42    0.06
  -4   1  -1    6.72    0.17
  -4  -1  -1    6.59    0.17
  -4   1  -1    6.90    0.17
  -4   1  -2    1.52    0.06
  -4  -1  -2    1.67    0.06
  -4   1  -2    1.66    0.06
  -4   1  -3    0.14    0.02
  -4  -1  -3    0.16    0.02
  -4   1  -3    0.18    0.02
  -4   1  -4    0.09    0.01
  -4  -1  -4    0.08    0.01
  -4   1  -4    0.10    0.01
  -4   1  -5    0.14    0.02
  -4  -1  -5    0.13    0.02
   4   1   5    0.15    0.02
  -4  -1  -6    1.52    0.06
  -4   1  -6    1.62    0.06
   4   1   6    1.59    0.06
   4  -1   6    1.54    0.06
  -4  -1  -7    8.95    0.22
  -4   1  -7    9.05    0.22
   4   1   7    9.44    0.23
   4  -1   7    9.21    0.23
  -4  -1  -8    2.48    0.08
  -4   1  -8    2.46    0.08
   4   1   8    2.49    0.09
   4  -1   8    2.43    0.09
   4   1   9    1.89    0.07
   4  -1   9    1.93    0.07
   4   1  10    0.05    0.02
   4  -1  10    0.06    0.01
   4   1  11    0.00    0.01
   4  -1  11    0.01    0.02
   4   1  12    0.21    0.02
   4  -1  12    0.18    0.02
   4   1  13    0.79    0.05
   4  -1  13    0.76    0.04
   4   1  14    0.38    0.03
   4  -1  14    0.38    0.03
   4   1  15    0.03    0.02
   4  -1  15    0.02    0.02
   4  -1  16    0.22    0.03
   4   1  16    0.18    0.03
   4   1  17    3.09    0.11
   4  -1  17    3.08    0.11
   4   1  18    0.97    0.06
   4  -1  18    1.00    0.06
   4   1  19    0.57    0.04
   4  -1  19    0.64    0.05
   4   1  20    0.05    0.02
   4  -1  20    0.06    0.02
   4   1  21    0.82    0.05
   4  -1  21    0.85    0.06
   4   1  22    0.01    0.02
   4  -1  22    0.04    0.02
   4   1  23    0.51    0.05
   4  -1  23    0.55    0.05
   4   1  24    0.24    0.03
   4  -1  24    0.24    0.03
   4   1  25    0.64    0.05
   4  -1  25    0.60    0.05
   4   1  26    0.03    0.02
   4  -1  26    0.03    0.02
   4   1  27    0.01    0.02
   4  -1  27   -0.01    0.02
  -4  -2  29    4.65    0.15
  -4   2  28    0.41    0.04
  -4  -2  28    0.42    0.04
  -4   2  27    1.61    0.07
  -4  -2  27    1.51    0.07
  -4   2  26    0.33    0.03
  -4  -2  26    0.31    0.03
  -4  -2  25    0.04    0.03
  -4   2  25    0.04    0.03
  -4  -2  24    1.08    0.07
  -4   2  24    1.12    0.07
   4  -2 -23    2.73    0.08
  -4  -2  23    2.64    0.11
  -4   2  23    2.61    0.11
  -4  -2  22    1.13    0.07
  -4   2  22    1.13    0.07
   4  -2 -22    1.18    0.05
   4  -2 -21    0.12    0.02
  -4  -2  21    0.12    0.03
  -4   2  21    0.11    0.03
   4  -2 -20    1.21    0.05
  -4  -2  20    1.12    0.07
  -4   2  20    1.19    0.07
   4  -2 -19    5.31    0.14
  -4  -2  19    5.29    0.17
  -4   2  19    5.46    0.17
   4  -2 -18    1.56    0.05
  -4  -2  18    1.41    0.07
  -4   2  18    1.52    0.08
   4  -2 -17    0.18    0.02
  -4  -2  17    0.14    0.03
  -4   2  17    0.11    0.03
  -4  -2  16    1.22    0.06
  -4   2  16    1.29    0.07
   4  -2 -16    1.22    0.04
   4  -2 -15    0.13    0.03
   4  -2 -15    0.11    0.01
  -4  -2  15    0.14    0.02
  -4   2  15    0.13    0.02
   4  -2 -14    0.05    0.02
   4  -2 -14    0.04    0.01
  -4  -2  14    0.01    0.02
  -4   2  14    0.02    0.02
   4  -2 -13   19.78    0.48
   4  -2 -13   19.94    0.43
  -4  -2  13   18.95    0.46
  -4   2  13   20.03    0.46
   4   2 -12    4.29    0.12
   4  -2 -12    4.74    0.15
   4  -2 -12    4.36    0.11
  -4  -2  12    4.25    0.13
  -4   2  12    4.38    0.13
   4   2 -11    1.54    0.06
   4  -2 -11    1.73    0.05
  -4  -2  11    1.72    0.07
  -4   2  11    1.72    0.07
   4  -2 -10    0.86    0.03
   4   2 -10    0.80    0.04
   4   2 -10    0.83    0.04
   4  -2 -10    0.80    0.04
  -4  -2  10    0.87    0.05
  -4   2  10    0.79    0.04
   4  -2  -9    0.69    0.03
   4   2  -9    0.66    0.03
   4   2  -9    0.62    0.03
   4  -2  -9    0.61    0.03
  -4  -2   9    0.59    0.04
  -4   2   9    0.68    0.04
   4   2  -8    3.09    0.09
   4  -2  -8    2.98    0.09
  -4   2   8    3.07    0.09
  -4  -2   8    2.97    0.10
  -4   2   8    2.91    0.10
   4  -2  -8    3.13    0.08
   4   2  -7   10.00    0.24
   4  -2  -7    9.89    0.23
  -4   2   7    9.58    0.23
  -4  -2   7    9.47    0.24
  -4   2   7    9.86    0.24
   4  -2  -7    9.80    0.23
   4   2  -6    3.96    0.11
   4  -2  -6    4.10    0.11
  -4   2   6    3.70    0.10
  -4  -2   6    3.85    0.11
  -4   2   6    4.10    0.12
   4  -2  -5    4.74    0.13
   4   2  -5    4.73    0.13
  -4   2   5    4.82    0.12
  -4  -2   5    4.62    0.13
  -4   2   5    4.64    0.13
  -4   2   4    1.67    0.05
   4   2  -4    1.59    0.06
   4  -2  -4    1.73    0.06
  -4  -2   4    1.47    0.06
  -4   2   4    1.53    0.06
  -4  -2   3   11.68    0.27
  -4   2   3   11.15    0.26
   4   2  -3   11.18    0.27
   4  -2  -3   11.51    0.27
  -4  -2   3   11.63    0.27
  -4   2   3   10.87    0.27
  -4   2   2    7.80    0.20
  -4  -2   2    7.32    0.18
  -4   2   2    7.22    0.17
   4   2  -2    7.27    0.18
   4  -2  -2    7.42    0.18
  -4  -2   2    7.28    0.18
  -4   2   2    6.80    0.18
  -4  -2   2    6.69    0.19
  -4   2   1    2.86    0.08
  -4   2   1    3.23    0.11
  -4  -2   1    3.10    0.09
  -4   2   1    3.17    0.09
  -4  -2   1    2.61    0.09
  -4   2   1    2.46    0.09
  -4   2   0    4.17    0.11
  -4   2   0    4.66    0.14
  -4   2   0    4.77    0.12
  -4  -2   0    4.81    0.13
  -4  -2   0    4.25    0.13
  -4   2   0    4.17    0.13
  -4   2  -1    5.76    0.15
  -4   2  -1    5.81    0.15
  -4  -2  -1    6.17    0.16
  -4  -2  -1    5.78    0.16
  -4   2  -1    5.60    0.15
  -4   2  -1    5.91    0.17
  -4   2  -2    1.83    0.08
  -4  -2  -2    1.61    0.06
  -4   2  -2    1.37    0.06
  -4  -2  -2    1.79    0.07
  -4   2  -2    1.48    0.06
  -4   2  -2    1.72    0.06
  -4  -2  -3   12.52    0.29
  -4   2  -3   11.75    0.29
  -4  -2  -3   12.41    0.29
  -4   2  -3   12.63    0.29
  -4   2  -3   11.81    0.28
  -4  -2  -4    5.84    0.15
  -4   2  -4    5.67    0.15
  -4  -2  -4    6.02    0.15
  -4   2  -4    6.12    0.15
  -4  -2  -5    3.36    0.10
  -4   2  -5    3.29    0.10
  -4  -2  -5    3.36    0.10
  -4   2  -5    3.47    0.10
  -4  -2  -6    1.97    0.07
  -4   2  -6    1.89    0.07
   4   2   6    1.95    0.07
   4  -2   6    1.85    0.07
  -4   2  -7    0.05    0.01
  -4  -2  -7    0.04    0.01
   4   2   7    0.06    0.01
   4  -2   7    0.04    0.01
  -4   2  -8    2.23    0.07
  -4  -2  -8    2.27    0.07
   4   2   8    2.22    0.08
   4  -2   8    2.25    0.08
   4   2   9    6.63    0.18
   4  -2   9    6.51    0.18
   4   2  10    3.20    0.10
   4  -2  10    3.35    0.11
   4   2  11   13.98    0.34
   4  -2  11   14.40    0.35
   4   2  12    0.04    0.02
   4  -2  12    0.02    0.02
   4   2  13    0.46    0.04
   4  -2  13    0.48    0.04
   4   2  14    1.92    0.08
   4  -2  14    2.06    0.08
   4   2  15    1.72    0.07
   4  -2  15    1.86    0.08
   4  -2  16    0.78    0.05
   4   2  16    0.81    0.05
   4   2  17    5.33    0.16
   4  -2  17    5.34    0.16
   4   2  18    1.39    0.07
   4  -2  18    1.30    0.07
   4   2  19    0.40    0.04
   4  -2  19    0.39    0.04
   4   2  20    1.37    0.07
   4  -2  20    1.38    0.07
   4   2  21    2.32    0.10
   4  -2  21    2.25    0.10
   4   2  22    1.38    0.07
   4  -2  22    1.44    0.07
   4   2  23    0.17    0.03
   4  -2  23    0.19    0.03
   4   2  24    0.46    0.04
   4  -2  24    0.54    0.05
   4   2  25    1.91    0.09
   4  -2  25    1.98    0.09
   4   2  26    0.40    0.04
   4  -2  26    0.35    0.04
  -4   3  28    0.35    0.04
  -4  -3  28    0.38    0.04
  -4   3  27    0.00    0.02
  -4  -3  27    0.00    0.02
  -4   3  26    0.43    0.04
  -4  -3  26    0.45    0.04
  -4   3  25    0.00    0.02
  -4  -3  25    0.00    0.02
   4  -3 -24    0.42    0.03
  -4  -3  24    0.40    0.03
  -4  -3  24    0.34    0.04
   4  -3 -23    0.05    0.01
  -4  -3  23   -0.01    0.02
  -4   3  23   -0.01    0.03
   4  -3 -22    1.34    0.06
  -4  -3  22    1.26    0.07
  -4   3  22    1.19    0.07
   4  -3 -21    0.14    0.02
  -4  -3  21    0.14    0.03
  -4   3  21    0.15    0.03
   4  -3 -20    0.46    0.03
  -4  -3  20    0.46    0.04
  -4   3  20    0.43    0.04
   4  -3 -19    0.01    0.01
  -4  -3  19    0.00    0.02
  -4   3  19    0.00    0.02
   4  -3 -18    0.03    0.01
  -4  -3  18    0.04    0.02
  -4   3  18    0.01    0.02
   4  -3 -17    0.12    0.02
  -4  -3  17    0.10    0.02
  -4   3  17    0.08    0.02
   4  -3 -16    0.01    0.01
  -4  -3  16    0.02    0.02
  -4   3  16    0.01    0.02
   4  -3 -15    0.00    0.01
  -4  -3  15   -0.01    0.02
  -4   3  15    0.00    0.02
   4   3 -14    0.01    0.01
   4  -3 -14    0.02    0.01
  -4  -3  14    0.00    0.02
  -4   3  14    0.01    0.02
   4  -3 -13    0.09    0.01
   4   3 -13    0.09    0.01
  -4  -3  13    0.10    0.02
  -4   3  13    0.08    0.02
   4  -3 -12    1.13    0.07
   4   3 -12    0.95    0.04
   4  -3 -12    1.05    0.04
  -4  -3  12    1.04    0.05
  -4   3  12    1.07    0.05
   4  -3 -11    0.11    0.02
   4  -3 -11    0.11    0.03
  -4  -3  11    0.09    0.02
  -4   3  11    0.11    0.02
   4  -3 -10    4.49    0.15
   4  -3 -10    4.36    0.12
   4  -3 -10    4.31    0.12
  -4  -3  10    4.24    0.13
  -4   3  10    4.41    0.13
   4  -3  -9    0.03    0.02
  -4  -3   9    0.02    0.00
   4  -3  -9    0.03    0.01
   4   3  -9    0.03    0.01
   4  -3  -9    0.03    0.01
  -4  -3   9    0.02    0.01
  -4   3   9    0.03    0.01
   4  -3  -8    1.83    0.06
   4  -3  -8    1.96    0.09
  -4  -3   8    1.69    0.05
   4   3  -8    1.93    0.06
   4  -3  -8    1.97    0.06
  -4  -3   8    1.76    0.07
  -4   3   8    1.85    0.07
   4  -3  -7    0.24    0.02
  -4  -3   7    0.21    0.01
   4   3  -7    0.24    0.02
   4  -3  -7    0.25    0.02
  -4   3   7    0.25    0.02
  -4  -3   7    0.23    0.02
  -4   3   7    0.21    0.02
   4  -3  -6    1.49    0.08
   4   3  -6    1.47    0.05
   4  -3  -6    1.49    0.05
  -4  -3   6    1.25    0.04
  -4   3   6    1.39    0.05
  -4  -3   6    1.33    0.05
  -4   3   6    1.38    0.05
   4  -3  -6    1.39    0.05
  -4   3   5    0.07    0.01
   4   3  -5    0.07    0.01
   4  -3  -5    0.08    0.01
  -4  -3   5    0.07    0.02
  -4   3   5    0.05    0.01
   4  -3  -5    0.09    0.01
   4   3  -4    1.57    0.05
   4  -3  -4    1.63    0.05
  -4   3   4    1.53    0.05
  -4  -3   4    1.56    0.06
  -4   3   4    1.59    0.06
   4   3  -3    0.12    0.02
   4  -3  -3    0.19    0.02
  -4   3   3    0.12    0.02
  -4   3   3    0.09    0.02
  -4  -3   3   -0.01    0.02
  -4  -3   3    0.07    0.02
  -4  -3   2    2.04    0.05
  -4   3   2    2.09    0.07
  -4  -3   2    2.03    0.07
  -4   3   2    1.94    0.07
  -4  -3   2    2.05    0.07
  -4   3   2    2.01    0.07
  -4  -3   1    1.00    0.03
  -4   3   1    0.92    0.04
  -4  -3   1    0.91    0.04
  -4   3   1    0.90    0.04
  -4  -3   1    0.99    0.05
  -4   3   1    0.95    0.04
  -4  -3   0    3.27    0.10
  -4   3   0    3.05    0.09
  -4  -3   0    3.24    0.10
  -4   3   0    3.17    0.09
  -4  -3  -1    0.35    0.03
  -4   3  -1    0.28    0.02
  -4  -3  -1    0.37    0.03
  -4   3  -1    0.27    0.03
  -4  -3  -2    2.76    0.09
  -4   3  -2    2.62    0.08
  -4  -3  -2    2.71    0.08
  -4   3  -2    2.68    0.08
  -4  -3  -3    0.05    0.01
  -4   3  -3    0.03    0.01
  -4   3  -3    0.05    0.01
  -4  -3  -4    0.81    0.04
  -4   3  -4    0.75    0.04
  -4  -3  -4    0.80    0.04
  -4   3  -4    0.76    0.04
  -4  -3  -5    0.32    0.02
  -4   3  -5    0.34    0.02
  -4  -3  -5    0.37    0.03
  -4   3  -5    0.38    0.03
  -4  -3  -6    3.42    0.10
  -4   3  -6    3.47    0.10
  -4   3  -6    3.28    0.10
  -4  -3  -6    3.49    0.10
   4  -3   7    0.11    0.02
   4   3   7    0.10    0.02
  -4  -3  -7    0.09    0.02
  -4   3  -7    0.12    0.02
  -4  -3  -8    7.90    0.20
  -4   3  -8    8.25    0.20
   4   3   8    7.93    0.21
   4  -3   8    7.89    0.21
   4   3   9    0.30    0.03
   4  -3   9    0.33    0.03
   4  -3  10    0.06    0.02
   4   3  10    0.04    0.01
   4   3  11   -0.02    0.01
   4  -3  11    0.00    0.01
   4   3  12    0.60    0.04
   4  -3  12    0.64    0.04
   4   3  13    0.01    0.01
   4  -3  13    0.01    0.01
   4   3  14    0.50    0.04
   4  -3  14    0.51    0.04
   4   3  15    0.30    0.03
   4  -3  15    0.32    0.03
   4   3  16    0.84    0.05
   4  -3  16    0.89    0.05
   4   3  17    0.06    0.02
   4  -3  17    0.04    0.02
   4   3  18    1.97    0.08
   4  -3  18    2.04    0.08
   4   3  19    0.00    0.02
   4  -3  19    0.01    0.02
   4   3  20    0.21    0.03
   4  -3  20    0.09    0.03
   4   3  21    0.05    0.02
   4  -3  21    0.07    0.03
   4   3  22   -0.01    0.02
   4  -3  22   -0.02    0.02
   4   3  23   -0.01    0.02
   4  -3  23    0.02    0.02
   4   3  24    1.48    0.08
   4  -3  24    1.48    0.08
   4   3  25    0.06    0.02
   4  -3  25    0.05    0.02
   4   3  26   -0.01    0.02
   4  -3  26   -0.01    0.02
  -4  -4  28    0.44    0.04
  -4   4  27    1.19    0.06
  -4  -4  27    1.08    0.06
  -4   4  26    0.13    0.03
  -4  -4  26    0.15    0.03
   4  -4 -25    0.03    0.02
  -4   4  25   -0.02    0.02
  -4  -4  25    0.00    0.02
   4  -4 -24    1.54    0.07
  -4   4  24    1.48    0.07
  -4  -4  24    1.33    0.06
   4  -4 -24    1.60    0.10
   4  -4 -23    1.74    0.07
  -4   4  23    1.55    0.07
  -4  -4  23    1.54    0.07
   4  -4 -23    1.72    0.11
   4  -4 -22    0.56    0.06
   4  -4 -22    0.60    0.04
  -4  -4  22    0.51    0.04
  -4  -4  22    0.44    0.05
   4  -4 -21    0.29    0.03
   4  -4 -21    0.30    0.05
  -4  -4  21    0.21    0.03
  -4   4  21    0.25    0.04
   4  -4 -20    1.40    0.09
   4  -4 -20    1.26    0.06
  -4  -4  20    1.17    0.07
  -4   4  20    1.20    0.07
   4  -4 -19    3.11    0.10
  -4  -4  19    2.95    0.11
  -4   4  19    2.97    0.12
   4  -4 -18    2.35    0.08
  -4  -4  18    2.31    0.10
  -4   4  18    2.08    0.09
   4  -4 -17    0.44    0.05
   4  -4 -17    0.42    0.03
  -4  -4  17    0.38    0.04
  -4   4  17    0.35    0.04
   4   4 -17    0.30    0.02
   4  -4 -16    0.58    0.06
   4  -4 -16    0.60    0.04
  -4  -4  16    0.50    0.04
  -4   4  16    0.62    0.04
   4  -4 -15    0.20    0.02
   4   4 -15    0.12    0.01
  -4  -4  15    0.16    0.03
  -4   4  15    0.16    0.03
   4  -4 -14    0.29    0.04
   4  -4 -14    0.28    0.03
  -4  -4  14    0.21    0.03
  -4   4  14    0.26    0.03
   4  -4 -13   10.38    0.29
   4  -4 -13    9.90    0.25
  -4  -4  13    9.58    0.26
  -4   4  13    9.91    0.26
   4  -4 -12    4.90    0.17
   4  -4 -12    4.85    0.13
  -4   4  12    4.61    0.14
   4  -4 -11    1.58    0.09
   4  -4 -11    1.51    0.06
  -4  -4  11    1.41    0.06
  -4   4  11    1.49    0.06
   4  -4 -10    0.21    0.02
   4  -4 -10    0.26    0.04
   4  -4 -10    0.21    0.02
  -4  -4  10    0.25    0.03
  -4   4  10    0.26    0.03
  -4  -4  10    0.21    0.01
   4  -4  -9    0.10    0.03
  -4  -4   9    0.07    0.01
   4  -4  -9    0.06    0.01
   4   4  -9    0.03    0.01
   4  -4  -9    0.07    0.01
  -4  -4   9    0.08    0.02
  -4   4   9    0.06    0.02
   4  -4  -8    3.68    0.11
   4  -4  -8    3.94    0.14
  -4  -4   8    3.60    0.09
   4  -4  -8    3.74    0.10
  -4  -4   8    3.61    0.11
  -4   4   8    3.71    0.11
   4  -4  -7    5.46    0.17
  -4  -4   7    4.75    0.12
   4  -4  -7    5.39    0.13
  -4  -4   7    4.96    0.14
  -4   4   7    5.05    0.14
   4  -4  -7    5.00    0.13
   4  -4  -6    1.63    0.06
   4  -4  -6    1.65    0.09
   4  -4  -6    1.68    0.06
  -4  -4   6    1.62    0.05
  -4  -4   6    1.60    0.06
  -4   4   6    1.67    0.06
   4   4  -5    3.42    0.11
   4  -4  -5    4.38    0.11
  -4  -4   5    3.75    0.10
  -4  -4   5    3.88    0.11
  -4   4   5    3.97    0.11
   4  -4  -5    3.91    0.11
  -4  -4   4    1.57    0.05
  -4   4   4    1.52    0.06
  -4   4   4    1.59    0.06
   4  -4  -4    1.54    0.06
  -4  -4   3    5.46    0.16
  -4   4   3    5.98    0.15
  -4  -4   3    6.33    0.16
  -4   4   3    5.97    0.15
   4  -4  -3    5.51    0.16
  -4  -4   2    6.56    0.18
  -4   4   2    6.62    0.18
  -4  -4   2    7.32    0.18
  -4   4   2    7.12    0.17
  -4  -4   1    0.96    0.06
  -4   4   1    1.11    0.06
  -4  -4   1    1.68    0.06
  -4   4   1    1.75    0.06
  -4  -4   0    2.33    0.07
  -4   4   0    2.33    0.07
  -4  -4  -1    4.02    0.11
  -4   4  -1    3.69    0.10
  -4  -4  -2    0.56    0.04
  -4   4  -2    0.45    0.03
  -4   4  -2    0.56    0.03
  -4  -4  -3    6.17    0.16
  -4  -4  -3    6.29    0.16
  -4   4  -3    6.19    0.16
  -4   4  -3    5.99    0.16
  -4   4  -4    4.86    0.13
  -4  -4  -4    4.77    0.13
  -4   4  -4    4.71    0.13
  -4  -4  -4    4.76    0.13
  -4  -4  -5    2.11    0.07
  -4  -4  -5    2.13    0.07
  -4   4  -5    2.06    0.07
  -4   4  -5    1.97    0.37
  -4  -4  -6    1.46    0.05
  -4   4  -6    1.51    0.05
  -4  -4  -6    1.40    0.06
  -4   4  -6    1.39    0.05
  -4  -4  -7    0.01    0.01
  -4   4  -7    0.04    0.01
  -4  -4  -7    0.03    0.01
  -4   4  -7    0.00    0.01
  -4   4  -8    1.95    0.07
  -4  -4  -8    1.93    0.07
   4   4   9    4.44    0.13
   4  -4   9    4.21    0.13
   4   4  10    2.14    0.08
   4  -4  10    2.18    0.08
   4   4  11    8.96    0.23
   4  -4  11    9.20    0.23
   4  -4  12    0.18    0.02
   4   4  12    0.14    0.02
   4   4  13    0.41    0.03
   4  -4  13    0.46    0.03
   4   4  14    1.46    0.06
   4  -4  14    1.45    0.06
   4   4  15    1.08    0.05
   4  -4  15    1.07    0.06
   4   4  16    0.88    0.05
   4  -4  16    1.01    0.05
   4   4  17    2.56    0.09
   4  -4  17    2.48    0.09
   4   4  18    1.04    0.06
   4  -4  18    1.05    0.06
   4   4  19    0.31    0.03
   4  -4  19    0.29    0.03
   4   4  20    0.66    0.05
   4  -4  20    0.69    0.05
   4   4  21    1.20    0.06
   4  -4  21    1.23    0.07
   4   4  22    1.80    0.08
   4  -4  22    1.68    0.08
   4   4  23    0.06    0.02
   4  -4  23    0.08    0.03
   4   4  24    0.34    0.04
   4  -4  24    0.34    0.04
   4   4  25    1.96    0.09
   4  -4  25    1.90    0.09
  -4  -5  27    0.00    0.02
  -4   5  26    0.11    0.03
  -4  -5  26    0.13    0.03
  -4   5  25    0.11    0.02
  -4  -5  25    0.09    0.02
   4  -5 -25    0.15    0.03
  -4   5  24   -0.01    0.02
  -4  -5  24    0.00    0.02
   4  -5 -24    0.04    0.02
  -4   5  23    1.12    0.05
  -4  -5  23    1.05    0.05
  -4   5  22    0.42    0.03
  -4  -5  22    0.40    0.03
   4  -5 -21    0.10    0.04
   4  -5 -21    0.08    0.02
  -4   5  21    0.09    0.02
  -4  -5  21    0.07    0.02
   4  -5 -20    0.14    0.04
   4  -5 -20    0.14    0.02
  -4   5  20    0.07    0.02
  -4  -5  20    0.07    0.02
   4  -5 -19    0.18    0.04
   4  -5 -19    0.17    0.02
  -4  -5  19    0.09    0.03
   4  -5 -18    0.02    0.02
   4  -5 -18   -0.01    0.01
  -4  -5  18    0.01    0.02
  -4   5  18    0.01    0.02
   4  -5 -17    0.08    0.03
   4  -5 -17    0.12    0.02
  -4  -5  17    0.05    0.02
  -4   5  17    0.09    0.02
   4  -5 -16    0.07    0.03
   4  -5 -16    0.04    0.02
  -4  -5  16    0.06    0.02
  -4   5  16    0.02    0.02
   4  -5 -15    0.01    0.02
   4  -5 -15   -0.01    0.01
  -4  -5  15    0.03    0.02
  -4   5  15    0.00    0.02
   4  -5 -14    0.00    0.01
   4  -5 -14    0.00    0.02
  -4  -5  14    0.01    0.01
  -4   5  14    0.00    0.02
   4  -5 -13    0.54    0.05
   4  -5 -13    0.49    0.03
  -4  -5  13    0.40    0.03
  -4   5  13    0.48    0.04
   4  -5 -12    0.78    0.06
   4  -5 -12    0.75    0.04
  -4  -5  12    0.74    0.04
  -4   5  12    0.78    0.05
   4  -5 -11    0.07    0.03
   4  -5 -11    0.08    0.02
  -4  -5  11    0.04    0.02
  -4   5  11    0.06    0.02
   4  -5 -10    0.73    0.03
  -4  -5  10    0.67    0.04
  -4   5  10    0.73    0.04
   4  -5 -10    0.75    0.04
  -4  -5  10    0.73    0.03
  -4  -5   9    3.92    0.10
   4  -5  -9    4.00    0.12
   4  -5  -9    4.12    0.16
   4  -5  -9    4.14    0.11
  -4  -5   9    4.00    0.12
  -4   5   9    3.98    0.12
   4  -5  -8    0.51    0.03
   4  -5  -8    0.53    0.05
  -4  -5   8    0.45    0.02
   4  -5  -8    0.48    0.03
  -4  -5   8    0.48    0.03
  -4   5   8    0.50    0.03
   4  -5  -7    0.05    0.01
  -4  -5   7    0.03    0.01
   4   5  -7    0.05    0.01
   4  -5  -7    0.02    0.01
  -4  -5   7    0.03    0.01
  -4   5   7    0.05    0.01
   4  -5  -6    1.24    0.05
  -4  -5   6    1.24    0.05
  -4  -5   6    1.29    0.05
  -4   5   6    1.29    0.05
  -4  -5   6    1.29    0.05
   4  -5  -5    0.04    0.01
  -4   5   5    0.03    0.01
  -4  -5   5    0.07    0.01
  -4  -5   5    0.02    0.01
  -4   5   5    0.02    0.01
  -4  -5   5    0.02    0.01
   4  -5  -4    0.05    0.01
  -4  -5   4    0.04    0.01
  -4  -5   4    0.04    0.01
  -4  -5   4    0.06    0.01
  -4   5   4    0.03    0.01
  -4   5   4    0.03    0.01
  -4  -5   3    0.78    0.04
  -4  -5   3    0.78    0.04
  -4   5   3    0.85    0.04
  -4  -5   3    1.01    0.04
  -4   5   3    0.93    0.04
   4  -5  -3    0.81    0.04
  -4  -5   2    0.21    0.02
  -4   5   2    0.16    0.02
  -4  -5   2    0.27    0.02
  -4   5   2    0.31    0.02
  -4  -5   1    2.09    0.06
  -4  -5   1    1.80    0.07
  -4  -5   1    1.70    0.07
  -4   5   1    1.85    0.06
  -4   5   1    1.94    0.06
  -4  -5   0    0.26    0.03
  -4   5   0    0.23    0.02
  -4  -5  -1    2.41    0.07
  -4   5  -1    2.33    0.07
  -4  -5  -1    2.22    0.07
  -4   5  -1    2.30    0.07
  -4   5  -2    0.13    0.02
  -4  -5  -2    0.15    0.02
  -4  -5  -3    0.03    0.01
  -4   5  -3    0.02    0.01
  -4  -5  -3    0.02    0.01
  -4   5  -3    0.01    0.01
  -4   5  -4    1.35    0.05
  -4  -5  -4    1.33    0.05
  -4   5  -4    1.48    0.05
  -4  -5  -4    1.34    0.05
  -4  -5  -5    0.03    0.01
  -4  -5  -5    0.03    0.01
  -4   5  -5    0.02    0.01
  -4  -5  -6    0.39    0.03
  -4   5  -6    0.42    0.03
  -4  -5  -6    0.37    0.02
  -4  -5  -7    5.56    0.15
  -4   5  -7    5.64    0.14
  -4  -5  -7    5.33    0.14
  -4  -5  -8    0.89    0.04
  -4   5  -8    0.91    0.04
  -4  -5  -8    0.85    0.04
  -4  -5  -9    1.10    0.05
  -4   5  -9    1.05    0.04
  -4  -5 -10    0.59    0.03
  -4   5 -10    0.65    0.03
   4   5  11    0.00    0.01
  -4  -5 -11    0.00    0.01
  -4   5 -11    0.00    0.01
   4  -5  12   -0.01    0.01
   4   5  12    0.00    0.01
   4  -5  13    0.13    0.02
   4   5  13    0.12    0.02
   4   5  14    0.03    0.01
   4  -5  14    0.03    0.01
   4   5  15    0.47    0.04
   4  -5  15    0.51    0.04
   4  -5  16    0.01    0.01
   4   5  16    0.00    0.01
   4   5  17    1.52    0.07
   4  -5  17    1.42    0.07
   4   5  18    0.15    0.02
   4  -5  18    0.17    0.03
   4   5  19    0.14    0.02
   4  -5  19    0.14    0.03
   4   5  20    0.40    0.04
   4  -5  20    0.35    0.04
   4   5  21    0.43    0.04
   4  -5  21    0.39    0.04
   4   5  22   -0.02    0.02
   4  -5  22   -0.01    0.02
   4   5  23    0.41    0.04
   4  -5  23    0.44    0.04
   4   5  24    0.14    0.03
   4  -5  24    0.14    0.03
   4  -5  25    0.32    0.04
   4  -6 -21    0.00    0.02
   4  -6 -20    0.23    0.04
   4  -6 -19    0.20    0.04
   4  -6 -19    0.08    0.03
   4  -6 -18    6.69    0.23
  -4  -6  18    6.10    0.16
   4  -6 -17    0.10    0.03
  -4  -6  17    0.06    0.02
   4  -6 -16    5.39    0.20
   4  -6 -16    5.58    0.16
  -4  -6  16    5.12    0.14
   4  -6 -15    0.12    0.03
   4  -6 -15    0.14    0.04
  -4  -6  15    0.10    0.02
  -4  -6  15    0.07    0.02
   4  -6 -14    1.21    0.06
  -4  -6  14    1.11    0.06
   4  -6 -13    0.21    0.03
   4  -6 -13    0.29    0.04
  -4  -6  13    0.21    0.03
   4  -6 -12    3.04    0.14
   4  -6 -12    2.78    0.10
  -4  -6  12    2.80    0.10
   4  -6 -11    0.14    0.04
   4  -6 -11    0.13    0.02
  -4  -6  11    0.11    0.02
   4  -6 -10    0.05    0.03
  -4  -6  10    0.03    0.01
   4  -6 -10    0.03    0.01
  -4  -6  10    0.03    0.01
  -4  -6   9    0.06    0.01
   4  -6  -9    0.07    0.02
  -4  -6   9    0.05    0.02
   4  -6  -8    1.52    0.07
  -4  -6   8    1.58    0.06
  -4  -6   8    1.49    0.06
   4  -6  -7    0.28    0.03
  -4  -6   7    0.24    0.02
  -4  -6   7    0.24    0.02
   4  -6  -6    1.36    0.06
  -4  -6   6    1.29    0.05
  -4  -6   6    1.36    0.05
   4  -6  -5    0.08    0.02
  -4  -6   5    0.06    0.02
  -4  -6   4    0.21    0.02
  -4  -6   4    0.19    0.02
   4  -6  -4    0.21    0.03
  -4  -6   3    0.48    0.03
  -4  -6   3    0.43    0.03
   4  -6  -3    0.40    0.03
  -4  -6   2   14.85    0.36
  -4  -6   2   15.86    0.35
  -4  -6   1    2.27    0.08
  -4  -6   1    2.58    0.08
  -4  -6   0    9.34    0.25
  -4  -6   0   10.82    0.24
  -4  -6  -1    1.24    0.06
  -4  -6  -1    1.31    0.05
  -4  -6  -2    0.32    0.03
  -4  -6  -2    0.35    0.03
  -4  -6  -3    0.08    0.02
  -4  -6  -3    0.07    0.02
  -4  -6  -4    2.95    0.09
  -4  -6  -5    0.06    0.01
  -4  -6  -6    0.44    0.03
  -4  -6  -7    0.01    0.01
  -4  -6  -8    0.72    0.04
  -4  -6  -9    0.05    0.01
  -4  -6 -10    1.18    0.05
  -4  -6 -11    0.07    0.01
  -4  -6 -12    1.37    0.05
  -4  -6 -13    0.05    0.01
  -4  -6 -14    6.72    0.18
   4  -6  16    3.88    0.13
   4  -7 -14    0.02    0.03
   4  -7 -13    0.24    0.04
   4  -7 -13    0.19    0.03
   4  -7 -12    0.13    0.04
   4  -7 -12    0.11    0.02
   4  -7 -11    0.01    0.01
   4  -7 -10    0.13    0.02
  -4  -7   9    1.01    0.05
   4  -7  -9    1.01    0.06
   4  -7  -8    0.03    0.02
  -4  -7   8    0.04    0.01
   4  -7  -7    0.16    0.02
  -4  -7   7    0.13    0.02
   4  -7  -6    0.05    0.02
  -4  -7   6    0.06    0.02
   4  -7  -5    0.07    0.02
  -4  -7   5    0.09    0.02
  -4  -7   4    0.27    0.03
   4  -7  -4    0.24    0.03
  -4  -7   3    0.52    0.03
   4  -7  -3    0.51    0.04
  -4  -7   2    0.23    0.03
  -4  -7   1    0.08    0.02
  -4  -7   0    0.35    0.03
  -4  -7  -1    0.88    0.05
  -4  -7  -2    0.27    0.03
  -4  -7  -3    0.04    0.02
  -4  -7  -4    0.16    0.03
  -4  -7  -5    0.32    0.03
  -4  -7  -6    0.29    0.03
  -4  -7  -7    1.19    0.07
  -4  -7  -8    0.45    0.05
  -4  -8   5    0.96    0.05
  -4  -8   4    0.14    0.03
  -4  -8   3    2.12    0.08
  -4  -8   2    0.71    0.05
  -4  -8   1    0.39    0.04
  -4  -8   0    0.58    0.04
  -4  -8  -1    1.41    0.07
  -4  -8  -2    0.35    0.04
  -4  -8  -3    2.17    0.09
  -4  -8  -4    0.50    0.04
  -4  -8  -5    0.49    0.04
  -5   0  27   -0.01    0.03
  -5   0  26    0.55    0.06
  -5   0  24    0.59    0.05
  -5   0  23    0.02    0.02
  -5   0  22    0.51    0.05
  -5   0  21    0.00    0.02
  -5   0  20    1.79    0.09
   5   0 -19    0.02    0.02
  -5   0  19    0.01    0.02
   5   0 -18    0.13    0.03
  -5   0  18    0.12    0.03
   5   0 -17    0.01    0.02
  -5   0  17    0.02    0.02
   5   0 -16    0.06    0.02
  -5   0  16    0.05    0.02
   5   0 -15    0.00    0.01
  -5   0  15    0.01    0.02
   5   0 -14    0.34    0.03
  -5   0  14    0.32    0.03
   5   0 -13    0.02    0.01
  -5   0  13   -0.02    0.02
   5   0 -12    0.39    0.04
  -5   0  12    0.41    0.04
   5   0 -11    0.00    0.01
  -5   0  11    0.00    0.01
   5   0 -10    1.49    0.07
  -5   0  10    1.53    0.07
   5   0  -9   -0.01    0.01
  -5   0   9    0.01    0.01
  -5   0   9    0.00    0.01
  -5   0   8    0.52    0.02
  -5   0   8    0.62    0.04
  -5   0   7    0.03    0.01
  -5   0   7    0.03    0.01
  -5   0   6    3.82    0.10
  -5   0   6    4.27    0.12
  -5   0   5    0.10    0.01
  -5   0   5    0.07    0.02
  -5   0   4    0.50    0.04
  -5   0   4    0.48    0.03
  -5   0   4    0.45    0.02
  -5   0   3    0.02    0.01
  -5   0   3    0.03    0.01
  -5   0   2    1.31    0.06
  -5   0   2    1.20    0.05
  -5   0   2    1.37    0.06
  -5   0   1    0.05    0.02
  -5   0   1    0.06    0.02
  -5   0   1    0.04    0.02
  -5   0   0    0.05    0.02
  -5   0   0    0.02    0.01
  -5   0  -1    0.00    0.01
  -5   0  -2    0.54    0.03
  -5   0  -3    0.05    0.02
  -5   0  -4    6.37    0.17
  -5   0  -5    0.05    0.01
  -5   0  -6    0.10    0.01
   5   0   7   -0.01    0.02
   5   0   8    0.02    0.02
   5   0   9   -0.01    0.02
   5   0  10    3.37    0.11
   5   0  11   -0.01    0.02
   5   0  12    0.39    0.03
   5   0  13    0.00    0.02
   5   0  14    2.85    0.11
   5   0  15   -0.01    0.02
   5   0  16    0.12    0.02
   5   0  17    0.00    0.02
   5   0  18    0.03    0.02
   5   0  19   -0.01    0.02
   5   0  20    4.61    0.16
   5   0  21    0.03    0.02
   5   0  22    0.23    0.04
   5   0  23   -0.01    0.02
   5   0  24    0.22    0.04
   5   0  25   -0.04    0.03
  -5  -1  27   -0.02    0.03
  -5   1  27   -0.02    0.03
  -5  -1  26    0.10    0.03
  -5   1  26    0.08    0.03
  -5   1  25    0.78    0.06
  -5  -1  24    0.36    0.05
  -5   1  24    0.30    0.04
  -5  -1  23   -0.01    0.02
  -5   1  23    0.02    0.02
  -5  -1  22    0.05    0.02
  -5   1  22    0.07    0.03
  -5  -1  21    0.33    0.04
  -5   1  21    0.28    0.04
   5  -1 -21    0.34    0.04
   5  -1 -20    0.05    0.02
  -5  -1  20    0.02    0.02
  -5   1  20    0.02    0.02
   5   1 -19    0.99    0.06
   5  -1 -19    1.08    0.07
  -5  -1  19    0.99    0.06
  -5   1  19    0.96    0.06
   5   1 -18    0.69    0.05
   5  -1 -18    0.64    0.05
  -5  -1  18    0.71    0.05
  -5   1  18    0.68    0.05
   5  -1 -18    0.70    0.03
   5   1 -17    0.14    0.02
   5  -1 -17    0.11    0.03
  -5  -1  17    0.13    0.03
  -5   1  17    0.14    0.03
   5  -1 -17    0.14    0.01
   5   1 -16    0.02    0.02
   5  -1 -16    0.01    0.02
  -5  -1  16    0.01    0.02
  -5   1  16    0.00    0.02
   5  -1 -15    0.24    0.03
   5   1 -15    0.25    0.03
  -5   1  15    0.27    0.03
  -5  -1  15    0.21    0.03
   5  -1 -14    0.54    0.04
   5   1 -14    0.51    0.04
  -5   1  14    0.55    0.04
   5  -1 -13    0.14    0.02
   5   1 -13    0.11    0.02
  -5   1  13    0.12    0.02
   5  -1 -12    0.30    0.03
   5   1 -12    0.29    0.03
  -5   1  12    0.26    0.03
   5  -1 -11    0.37    0.04
   5   1 -11    0.43    0.03
  -5   1  11    0.38    0.03
   5  -1 -10    0.01    0.02
   5   1 -10    0.01    0.01
  -5   1  10    0.02    0.01
   5  -1  -9    2.27    0.09
  -5   1   9    2.12    0.06
  -5   1   9    2.21    0.08
   5  -1  -8    1.99    0.08
  -5   1   8    1.89    0.05
  -5   1   8    2.10    0.07
  -5   1   7    0.92    0.03
  -5   1   7    0.92    0.05
  -5   1   6    0.04    0.01
  -5   1   6    0.05    0.02
  -5   1   5    0.69    0.04
  -5   1   5    0.69    0.03
  -5   1   5    0.69    0.04
  -5  -1   4    0.42    0.03
  -5   1   4    0.43    0.04
  -5   1   4    0.40    0.02
  -5   1   4    0.34    0.03
  -5   1   3    0.81    0.03
  -5   1   3    0.81    0.05
  -5  -1   3    0.85    0.04
  -5   1   3    0.84    0.04
  -5   1   2    0.40    0.03
  -5  -1   2    0.44    0.03
  -5   1   2    0.36    0.03
  -5  -1   2    0.38    0.03
  -5   1   2    0.35    0.02
  -5   1   1    0.04    0.02
  -5  -1   1    0.00    0.02
  -5   1   1    0.04    0.01
  -5   1   1    0.05    0.01
  -5   1   0    0.03    0.01
  -5   1  -1    0.70    0.05
  -5   1  -1    0.60    0.04
  -5   1  -2    1.53    0.06
  -5   1  -3    0.90    0.04
  -5   1  -4    0.34    0.03
  -5   1  -5    1.34    0.05
  -5   1  -6    0.63    0.03
  -5   1  -7    0.18    0.02
   5  -1   7    0.17    0.02
   5   1   7    0.16    0.02
   5   1   8    1.20    0.06
   5  -1   8    1.17    0.06
   5   1   9    0.56    0.04
   5  -1   9    0.71    0.04
   5   1  10    0.19    0.02
   5  -1  10    0.19    0.02
   5   1  11    0.11    0.02
   5  -1  11    0.20    0.03
   5   1  12    0.45    0.04
   5  -1  12    0.39    0.03
   5   1  13    0.11    0.02
   5  -1  13    0.12    0.02
   5   1  14    0.02    0.02
   5  -1  14   -0.01    0.02
   5   1  15    0.76    0.05
   5  -1  15    0.72    0.05
   5   1  16    0.06    0.02
   5  -1  16    0.06    0.02
   5   1  17    0.06    0.02
   5  -1  17    0.06    0.02
   5   1  18    0.47    0.04
   5  -1  18    0.41    0.04
   5   1  19    0.74    0.05
   5  -1  19    0.88    0.06
   5   1  20    0.09    0.03
   5  -1  20    0.10    0.03
   5   1  21    0.53    0.05
   5  -1  21    0.49    0.05
   5   1  22    0.77    0.06
   5  -1  22    0.80    0.06
   5   1  23    0.47    0.05
   5  -1  23    0.40    0.04
   5   1  24   -0.02    0.03
   5  -1  24    0.02    0.02
   5   1  25    0.01    0.02
   5  -1  25    0.05    0.03
  -5  -2  27    0.15    0.04
  -5   2  27    0.11    0.04
  -5  -2  26    0.21    0.04
  -5   2  26    0.14    0.04
  -5  -2  25    0.09    0.03
  -5   2  25    0.11    0.03
   5  -2 -24    0.14    0.03
  -5  -2  24    0.09    0.03
  -5   2  24    0.10    0.03
   5  -2 -23    1.01    0.08
  -5  -2  23    1.03    0.07
  -5   2  23    1.07    0.07
   5  -2 -22    0.18    0.04
  -5  -2  22    0.18    0.03
  -5   2  22    0.15    0.03
   5  -2 -21    0.18    0.04
  -5  -2  21    0.11    0.03
  -5   2  21    0.09    0.03
   5   2 -20    0.30    0.03
   5  -2 -20    0.28    0.02
   5  -2 -20    0.28    0.04
  -5   2  20    0.29    0.04
  -5  -2  20    0.24    0.04
   5  -2 -19    0.12    0.01
   5   2 -19    0.14    0.02
   5  -2 -19    0.14    0.03
  -5  -2  19    0.10    0.03
  -5   2  19    0.10    0.03
   5   2 -18    0.02    0.02
   5  -2 -18    0.02    0.02
   5  -2 -18    0.05    0.01
  -5  -2  18    0.04    0.02
  -5   2  18    0.05    0.02
   5   2 -17    0.03    0.02
   5  -2 -17    0.04    0.02
   5  -2 -17    0.02    0.01
  -5  -2  17    0.03    0.02
  -5   2  17    0.02    0.02
   5  -2 -16    0.15    0.03
   5   2 -16    0.13    0.02
   5  -2 -16    0.11    0.01
  -5  -2  16    0.10    0.02
  -5   2  16    0.09    0.02
   5  -2 -15    0.03    0.02
   5   2 -15    0.04    0.01
   5  -2 -15    0.01    0.01
  -5  -2  15    0.01    0.02
  -5   2  15    0.00    0.02
   5  -2 -14    0.01    0.02
   5   2 -14    0.01    0.01
   5  -2 -14    0.00    0.01
  -5  -2  14    0.00    0.02
  -5   2  14    0.00    0.02
   5  -2 -13    2.15    0.10
   5   2 -13    2.09    0.08
  -5  -2  13    1.94    0.08
  -5   2  13    2.02    0.08
   5  -2 -13    2.08    0.06
   5  -2 -12    0.28    0.04
   5   2 -12    0.27    0.03
  -5  -2  12    0.24    0.03
  -5   2  12    0.25    0.03
   5  -2 -12    0.27    0.02
   5  -2 -11    0.17    0.03
  -5  -2  11    0.20    0.03
  -5   2  11    0.19    0.03
   5  -2 -10    0.72    0.05
  -5  -2  10    0.69    0.04
  -5   2  10    0.67    0.04
   5  -2  -9    1.94    0.09
  -5   2   9    1.99    0.06
  -5  -2   9    1.88    0.08
  -5   2   9    1.98    0.08
   5  -2  -8    0.06    0.02
  -5   2   8    0.07    0.01
  -5  -2   8    0.04    0.02
  -5   2   8    0.02    0.02
  -5   2   7    4.88    0.13
  -5  -2   7    5.11    0.15
  -5   2   7    5.07    0.15
  -5   2   6    0.94    0.04
  -5  -2   6    0.91    0.05
  -5   2   6    0.97    0.05
  -5   2   5    0.77    0.03
  -5  -2   5    0.82    0.05
  -5   2   5    0.75    0.04
  -5   2   4    0.06    0.01
  -5  -2   4    0.05    0.02
  -5   2   4    0.04    0.02
  -5  -2   3    0.02    0.01
  -5   2   3    0.03    0.01
  -5  -2   3    0.01    0.01
  -5   2   3    0.02    0.01
  -5  -2   2    0.03    0.01
  -5   2   2    0.04    0.01
  -5   2   2    0.04    0.01
  -5  -2   1    0.00    0.01
  -5   2   1    0.01    0.01
  -5  -2   1    0.01    0.01
  -5   2   1    0.01    0.01
  -5   2   0    0.06    0.01
  -5  -2   0    0.06    0.02
  -5   2   0    0.05    0.01
  -5  -2  -1    0.04    0.01
  -5   2  -1    0.04    0.01
  -5  -2  -2    0.00    0.01
  -5   2  -2    0.01    0.01
  -5  -2  -3    7.13    0.19
  -5   2  -3    6.69    0.18
  -5  -2  -4    1.67    0.07
  -5   2  -4    1.56    0.06
  -5  -2  -5    0.43    0.03
  -5   2  -5    0.41    0.03
  -5  -2  -6    0.23    0.02
  -5   2  -6    0.17    0.02
  -5  -2  -7    2.24    0.08
  -5   2  -7    2.17    0.08
   5   2   8    0.09    0.02
  -5   2  -8    0.10    0.02
   5  -2   8    0.09    0.02
   5   2   9    4.11    0.13
   5  -2   9    4.10    0.13
   5   2  10    0.54    0.04
   5  -2  10    0.47    0.04
   5   2  11    1.55    0.07
   5  -2  11    1.54    0.07
   5  -2  12    0.23    0.03
   5   2  12    0.18    0.03
   5  -2  13    0.22    0.03
   5   2  13    0.20    0.03
   5   2  14    0.03    0.01
   5  -2  14    0.04    0.02
   5   2  15    0.18    0.02
   5  -2  15    0.20    0.03
   5   2  16    0.02    0.01
   5  -2  16   -0.01    0.02
   5   2  17    0.02    0.02
   5  -2  17    0.04    0.02
   5   2  18    0.03    0.02
   5  -2  18    0.04    0.02
   5   2  19    1.88    0.09
   5  -2  19    2.18    0.09
   5   2  20    0.90    0.06
   5  -2  20    0.92    0.06
   5   2  21    0.87    0.06
   5  -2  21    0.88    0.06
   5   2  22    0.01    0.02
   5  -2  22    0.02    0.02
   5   2  23    0.47    0.05
   5  -2  23    0.40    0.04
   5  -2  24    0.06    0.03
   5   2  24    0.04    0.03
  -5  -3  27   -0.01    0.02
  -5  -3  26    0.11    0.03
  -5   3  26    0.11    0.04
   5  -3 -25   -0.02    0.03
  -5  -3  25   -0.01    0.02
  -5   3  25    0.00    0.02
  -5  -3  24    1.54    0.09
  -5   3  24    1.64    0.09
   5  -3 -23    0.17    0.04
  -5  -3  23    0.15    0.03
  -5   3  23    0.15    0.03
   5   3 -22    0.64    0.04
   5  -3 -22    0.70    0.07
  -5  -3  22    0.60    0.05
  -5   3  22    0.58    0.05
   5   3 -21    0.09    0.02
   5  -3 -21    0.05    0.03
   5  -3 -21    0.06    0.02
  -5  -3  21    0.13    0.03
  -5   3  21    0.11    0.03
   5   3 -20    0.00    0.01
   5  -3 -20    0.00    0.02
   5  -3 -20    0.00    0.01
  -5  -3  20   -0.02    0.03
  -5   3  20   -0.05    0.03
   5   3 -19    0.10    0.02
   5  -3 -19    0.10    0.03
   5  -3 -19    0.10    0.02
  -5  -3  19    0.10    0.03
  -5   3  19    0.07    0.03
   5  -3 -18    0.84    0.07
   5  -3 -18    0.84    0.04
  -5  -3  18    0.78    0.05
  -5   3  18    0.75    0.05
   5  -3 -17    0.02    0.02
   5   3 -17    0.02    0.01
   5  -3 -17    0.02    0.01
  -5  -3  17    0.03    0.02
  -5   3  17    0.02    0.02
   5  -3 -16    0.45    0.05
   5   3 -16    0.33    0.03
   5  -3 -16    0.40    0.03
  -5  -3  16    0.43    0.04
  -5   3  16    0.40    0.04
   5  -3 -15    0.00    0.01
  -5  -3  15    0.01    0.02
  -5   3  15    0.00    0.02
   5  -3 -14    0.57    0.03
  -5  -3  14    0.59    0.04
  -5   3  14    0.56    0.04
   5  -3 -13    0.06    0.01
  -5  -3  13    0.08    0.02
  -5   3  13    0.07    0.02
  -5  -3  12    0.62    0.04
  -5   3  12    0.62    0.04
   5  -3 -11    0.01    0.01
  -5  -3  11    0.00    0.02
  -5   3  11    0.02    0.02
   5  -3 -10    0.01    0.01
  -5  -3  10    0.01    0.01
  -5   3  10    0.00    0.01
  -5  -3   9    0.01    0.00
  -5  -3   9    0.04    0.02
  -5   3   9    0.02    0.01
  -5  -3   8    6.94    0.17
  -5   3   8    7.10    0.17
  -5  -3   7    0.58    0.04
  -5   3   7    0.56    0.04
  -5  -3   6    0.05    0.02
  -5   3   6    0.09    0.02
  -5   3   5    0.17    0.02
  -5  -3   5    0.15    0.02
  -5  -3   4    0.29    0.03
  -5   3   4    0.35    0.03
  -5  -3   3    0.07    0.02
  -5   3   3    0.10    0.02
  -5  -3   2    0.12    0.02
  -5  -3   2    0.09    0.02
  -5   3   2    0.10    0.02
  -5  -3   1    0.10    0.02
  -5  -3   1    0.06    0.02
  -5   3   1    0.09    0.02
  -5  -3   0    0.55    0.04
  -5   3   0    0.54    0.03
  -5  -3  -1    0.01    0.02
  -5   3  -1    0.01    0.01
  -5  -3  -2    3.48    0.11
  -5   3  -2    3.24    0.10
  -5  -3  -3    0.12    0.02
  -5   3  -3    0.10    0.02
  -5  -3  -4    0.90    0.05
  -5   3  -4    0.93    0.04
  -5  -3  -5    0.06    0.02
  -5   3  -5    0.04    0.01
  -5  -3  -6    2.25    0.08
  -5   3  -6    2.19    0.08
  -5  -3  -7    0.07    0.01
  -5   3  -7    0.04    0.01
  -5  -3  -8    3.93    0.12
  -5   3  -8    4.02    0.12
  -5  -3  -9    0.25    0.02
  -5   3  -9    0.28    0.02
   5   3   9    0.25    0.03
   5   3  10    0.15    0.02
   5  -3  10    0.19    0.02
   5  -3  11    0.07    0.02
   5   3  11    0.07    0.02
   5   3  12    0.52    0.04
   5  -3  12    0.48    0.04
   5   3  13   -0.01    0.02
   5  -3  13    0.00    0.01
   5   3  14    0.35    0.03
   5  -3  14    0.33    0.03
   5   3  15    0.03    0.02
   5  -3  15    0.04    0.02
   5   3  16    0.10    0.02
   5  -3  16    0.11    0.02
   5   3  17    0.01    0.02
   5  -3  17    0.02    0.02
   5   3  18    1.38    0.07
   5  -3  18    1.43    0.08
   5   3  19   -0.01    0.02
   5  -3  19   -0.02    0.02
   5   3  20    0.17    0.03
   5  -3  20    0.16    0.03
   5   3  21   -0.01    0.02
   5  -3  21   -0.01    0.02
   5   3  22    2.46    0.10
   5  -3  22    2.50    0.11
   5   3  23    0.05    0.03
   5  -3  23    0.04    0.02
   5   3  24    0.14    0.03
   5  -3  24    0.16    0.03
  -5   4  26    0.11    0.03
  -5  -4  26    0.12    0.02
  -5   4  25    0.04    0.02
  -5  -4  25    0.03    0.02
  -5  -4  25    0.06    0.03
  -5  -4  24    0.39    0.05
  -5   4  24    0.42    0.05
  -5  -4  23    0.44    0.05
  -5   4  23    0.45    0.05
   5  -4 -22    0.05    0.02
  -5  -4  22    0.00    0.03
  -5   4  22    0.01    0.02
   5  -4 -21    0.01    0.01
  -5  -4  21    0.01    0.02
  -5   4  21   -0.02    0.03
   5  -4 -20    0.23    0.03
  -5  -4  20    0.18    0.03
  -5   4  20    0.16    0.03
   5  -4 -19    0.46    0.03
  -5  -4  19    0.41    0.04
  -5   4  19    0.40    0.04
   5  -4 -18    0.10    0.02
  -5  -4  18    0.11    0.03
  -5   4  18    0.14    0.03
   5  -4 -17    0.22    0.04
   5  -4 -17    0.14    0.02
  -5  -4  17    0.15    0.03
  -5   4  17    0.16    0.03
   5  -4 -16    0.02    0.02
   5  -4 -16    0.02    0.01
  -5  -4  16    0.04    0.02
  -5   4  16    0.00    0.02
   5  -4 -15    0.01    0.02
   5  -4 -15    0.01    0.01
  -5  -4  15    0.02    0.02
  -5   4  15    0.01    0.02
   5  -4 -14    0.00    0.01
  -5  -4  14    0.01    0.02
   5  -4 -14    0.01    0.02
  -5   4  14    0.01    0.02
   5  -4 -13    0.97    0.05
   5  -4 -13    0.99    0.07
  -5  -4  13    0.97    0.06
  -5   4  13    0.98    0.06
   5  -4 -12    0.13    0.02
   5  -4 -12    0.16    0.03
  -5  -4  12    0.13    0.02
  -5   4  12    0.16    0.03
   5  -4 -11    0.19    0.02
   5  -4 -11    0.14    0.03
  -5  -4  11    0.12    0.02
  -5   4  11    0.14    0.02
   5  -4 -10    0.37    0.05
  -5  -4  10    0.34    0.03
  -5   4  10    0.38    0.03
   5  -4 -10    0.40    0.03
  -5  -4   9    0.83    0.03
   5  -4  -9    1.08    0.07
  -5  -4   9    0.96    0.05
  -5   4   9    1.00    0.05
   5  -4  -9    0.89    0.04
  -5  -4   8    0.88    0.03
  -5  -4   8    0.95    0.05
  -5   4   8    0.98    0.05
   5  -4  -8    1.02    0.05
  -5  -4   7    1.42    0.05
  -5  -4   7    1.53    0.07
  -5   4   7    1.53    0.06
  -5  -4   6    0.09    0.01
  -5  -4   6    0.06    0.02
  -5   4   6    0.04    0.02
  -5  -4   5    0.85    0.03
  -5  -4   5    0.88    0.05
  -5   4   5    0.92    0.05
  -5  -4   4    0.02    0.02
  -5   4   4    0.01    0.01
  -5  -4   3    0.55    0.04
  -5   4   3    0.57    0.04
  -5  -4   2    0.91    0.05
  -5   4   2    0.98    0.05
  -5  -4   1    0.13    0.02
  -5   4   1    0.11    0.02
  -5  -4   0    0.03    0.01
  -5  -4   0    0.01    0.02
  -5   4   0    0.00    0.01
  -5  -4  -1    0.03    0.02
  -5   4  -1    0.03    0.01
  -5  -4  -2    0.03    0.02
  -5   4  -2    0.02    0.01
  -5  -4  -3    2.81    0.10
  -5   4  -3    2.88    0.09
  -5  -4  -4    2.29    0.08
  -5   4  -4    2.22    0.08
  -5   4  -5    0.15    0.02
  -5  -4  -5    0.16    0.02
  -5  -4  -6    0.06    0.02
  -5   4  -6    0.07    0.02
  -5  -4  -7    1.14    0.05
  -5   4  -7    1.03    0.05
  -5  -4  -8    0.45    0.03
  -5   4  -8    0.45    0.03
  -5  -4  -9    0.67    0.04
  -5   4  -9    0.67    0.04
  -5  -4 -10    0.09    0.02
  -5   4 -10    0.08    0.02
  -5  -4 -11    1.24    0.06
  -5   4 -11    1.42    0.06
   5   4  11    1.35    0.06
   5  -4  12    0.08    0.02
   5   4  12    0.08    0.02
   5  -4  13    0.01    0.02
   5   4  13    0.00    0.02
   5   4  14    1.41    0.07
   5  -4  14    1.47    0.07
   5   4  15    0.21    0.03
   5  -4  15    0.23    0.03
   5   4  16    0.00    0.02
   5  -4  16   -0.02    0.02
   5  -4  17    0.13    0.02
   5   4  17    0.11    0.02
   5   4  18    0.07    0.02
   5  -4  18    0.07    0.02
   5   4  19    0.81    0.05
   5  -4  19    0.74    0.05
   5   4  20    1.60    0.08
   5  -4  20    1.48    0.08
   5   4  21    0.33    0.04
   5  -4  21    0.28    0.04
   5   4  22   -0.02    0.03
   5  -4  22    0.00    0.02
   5   4  23    0.12    0.03
   5  -4  23    0.09    0.03
  -5   5  25    0.63    0.05
  -5  -5  25    0.67    0.05
  -5   5  24    0.00    0.02
  -5  -5  24   -0.01    0.02
  -5   5  23    0.00    0.02
  -5  -5  23    0.00    0.02
  -5  -5  23    0.04    0.03
   5  -5 -22    0.04    0.02
  -5  -5  22    0.00    0.03
   5  -5 -21    0.29    0.03
  -5  -5  21    0.25    0.04
  -5   5  21    0.27    0.04
   5  -5 -20    0.02    0.03
   5  -5 -20    0.03    0.02
  -5  -5  20    0.02    0.02
  -5   5  20    0.01    0.02
   5  -5 -19    0.45    0.06
   5  -5 -19    0.38    0.03
  -5  -5  19    0.43    0.04
  -5   5  19    0.32    0.04
   5  -5 -18   -0.02    0.02
   5  -5 -18   -0.02    0.02
  -5  -5  18   -0.01    0.02
  -5   5  18    0.00    0.02
   5  -5 -17    0.32    0.03
   5  -5 -17    0.36    0.05
  -5  -5  17    0.24    0.03
  -5   5  17    0.26    0.04
   5  -5 -16    0.13    0.04
   5  -5 -16    0.08    0.02
  -5  -5  16    0.13    0.03
  -5   5  16    0.12    0.03
   5  -5 -15    0.02    0.02
   5  -5 -15    0.02    0.01
  -5  -5  15    0.05    0.02
  -5   5  15    0.02    0.02
   5  -5 -14    0.00    0.02
   5  -5 -14    0.02    0.01
  -5  -5  14    0.04    0.02
  -5   5  14    0.02    0.02
   5  -5 -13    0.34    0.03
   5  -5 -13    0.31    0.05
  -5  -5  13    0.30    0.03
  -5   5  13    0.29    0.03
   5  -5 -12    0.68    0.04
   5  -5 -12    0.70    0.06
  -5  -5  12    0.67    0.04
  -5   5  12    0.70    0.04
   5  -5 -11    0.68    0.04
   5  -5 -11    0.73    0.06
  -5  -5  11    0.77    0.05
  -5   5  11    0.79    0.05
   5  -5 -10    0.13    0.03
  -5  -5  10    0.07    0.01
   5  -5 -10    0.07    0.02
  -5  -5  10    0.07    0.02
  -5   5  10    0.09    0.02
  -5  -5   9    1.45    0.05
  -5  -5   9    1.71    0.07
  -5   5   9    1.66    0.07
   5  -5  -9    1.66    0.07
  -5  -5   8    0.26    0.02
  -5  -5   8    0.23    0.03
  -5   5   8    0.27    0.03
   5  -5  -8    0.28    0.03
  -5  -5   7    0.90    0.04
  -5  -5   7    0.86    0.05
  -5   5   7    0.91    0.05
   5  -5  -7    1.02    0.05
  -5  -5   6    0.07    0.01
  -5  -5   6    0.04    0.02
  -5   5   6    0.04    0.02
  -5  -5   5    0.54    0.03
  -5  -5   5    0.55    0.04
  -5   5   5    0.59    0.04
  -5  -5   4    0.05    0.01
  -5  -5   4    0.02    0.02
  -5   5   4    0.03    0.02
  -5  -5   3    0.13    0.02
  -5  -5   3    0.14    0.02
  -5   5   3    0.13    0.02
  -5  -5   2    0.12    0.02
  -5  -5   2    0.09    0.02
  -5   5   2    0.13    0.02
  -5  -5   1    0.26    0.03
  -5   5   1    0.29    0.03
  -5  -5   0    0.13    0.02
  -5   5   0    0.14    0.02
  -5  -5  -1    0.07    0.02
  -5   5  -1    0.07    0.02
  -5  -5  -2    0.47    0.03
  -5   5  -2    0.49    0.03
  -5  -5  -3    1.02    0.05
  -5   5  -3    1.02    0.05
  -5  -5  -4    0.80    0.04
  -5   5  -4    0.81    0.04
  -5  -5  -5    1.35    0.06
  -5   5  -5    1.40    0.06
  -5  -5  -6    0.03    0.02
  -5   5  -6    0.04    0.01
  -5  -5  -7    0.12    0.02
  -5   5  -7    0.11    0.02
  -5  -5  -8    0.24    0.02
  -5   5  -8    0.30    0.03
  -5  -5  -9    0.66    0.04
  -5   5  -9    0.68    0.04
  -5  -5 -10   -0.01    0.02
  -5   5 -10    0.00    0.01
  -5  -5 -11    0.12    0.02
  -5   5 -11    0.11    0.02
  -5   5 -12    0.00    0.01
  -5  -5 -13    0.00    0.01
  -5   5 -13    0.01    0.01
  -5  -5 -14    0.16    0.02
  -5   5 -14    0.12    0.02
   5   5  14    0.15    0.02
   5   5  15    0.07    0.02
   5  -5  15    0.07    0.02
   5   5  16    0.00    0.02
   5  -5  16   -0.01    0.02
   5  -5  17    0.10    0.03
   5   5  17    0.11    0.02
   5   5  18    0.37    0.04
   5  -5  18    0.30    0.04
   5   5  19    0.65    0.05
   5  -5  19    0.50    0.05
   5   5  20    0.09    0.03
   5  -5  20    0.11    0.03
   5  -5  21    0.32    0.04
   5   5  21    0.37    0.04
   5  -5  22    0.08    0.03
   5  -6 -20    0.56    0.05
   5  -6 -19    0.00    0.01
   5  -6 -18    0.07    0.02
   5  -6 -17    0.01    0.02
  -5  -6  17    0.04    0.02
   5  -6 -16  732.41   15.62
   5  -6 -15    0.00    0.03
   5  -6 -14    0.00    0.02
  -5  -6  14    0.01    0.02
   5  -6 -13    0.67    0.05
   5  -6 -13    0.74    0.07
  -5  -6  13    0.73    0.05
   5  -6 -12    0.06    0.03
   5  -6 -12    0.08    0.02
  -5  -6  12    0.07    0.02
  -5  -6  11    0.27    0.03
  -5  -6  10    0.45    0.04
   5  -6 -10    0.53    0.04
   5  -6  -9    0.02    0.01
  -5  -6   9    0.02    0.01
  -5  -6   8    0.13    0.02
   5  -6  -8    0.15    0.02
  -5  -6   8    0.10    0.02
   5  -6  -7    0.10    0.02
  -5  -6   7    0.10    0.02
  -5  -6   7    0.08    0.02
  -5  -6   6    1.01    0.04
  -5  -6   6    1.02    0.05
  -5  -6   5    0.07    0.02
  -5  -6   5    0.06    0.02
  -5  -6   4    0.33    0.03
  -5  -6   4    0.26    0.03
  -5  -6   3    0.06    0.02
  -5  -6   3    0.04    0.02
  -5  -6   2    0.40    0.03
  -5  -6   2    0.43    0.03
  -5  -6   1    0.03    0.01
  -5  -6   1    0.00    0.02
  -5  -6   0    0.05    0.01
  -5  -6   0    0.03    0.02
  -5  -6  -1    0.04    0.02
  -5  -6  -1    0.02    0.01
  -5  -6  -2    0.06    0.02
  -5  -6  -3    1.71    0.06
  -5  -6  -4    1.74    0.06
  -5  -6  -6    0.04    0.01
  -5  -6  -7    0.02    0.01
  -5  -6  -8    0.04    0.01
  -5  -6  -9    0.29    0.03
  -5  -6 -10    0.71    0.04
  -5  -6 -11    0.05    0.02
  -5  -6 -12    0.02    0.01
  -5  -6 -13    0.01    0.01
  -5  -6 -14    0.85    0.04
  -5  -6 -15    0.02    0.01
  -5  -6 -16    0.12    0.02
   5  -7  -8    1.19    0.06
  -5  -7   5    0.24    0.02
  -5  -7   4    0.11    0.02
  -5  -7   3    0.05    0.02
  -5  -7   2    0.37    0.03
  -5  -7   1    0.11    0.02
  -5  -7   0    0.04    0.02
  -5  -7  -1    0.45    0.04
  -5  -7  -2    0.31    0.03
  -5  -7  -3    0.02    0.02
  -5  -7  -4    0.06    0.02
  -5  -7  -5    0.41    0.04
  -5  -7  -6    0.71    0.05
  -5  -8   0    0.06    0.02
  -5  -8  -1    0.06    0.02
  -5  -8  -2    0.08    0.02
  -5  -8  -3    1.84    0.08
   6   0 -29   -0.01    0.03
   6   0 -28    0.87    0.07
   6   0 -27    0.02    0.02
   6   0 -26    0.27    0.04
   6   0 -25    0.01    0.02
  -6   0  25    0.00    0.02
   6   0 -24    0.09    0.03
  -6   0  24    0.13    0.03
   6   0 -23   -0.01    0.02
  -6   0  23    0.02    0.02
   6   0 -22    2.26    0.11
  -6   0  22    2.37    0.11
   6   0 -21    0.04    0.02
  -6   0  21    0.05    0.03
   6   0 -20    0.12    0.03
  -6   0  20    0.14    0.03
   6   0 -19    0.02    0.02
  -6   0  19   -0.01    0.02
   6   0 -18    0.09    0.02
  -6   0  18    0.09    0.03
   6   0 -17    0.01    0.02
  -6   0  17    0.01    0.02
   6   0 -16    0.07    0.02
  -6   0  16    0.09    0.02
   6   0 -15    0.00    0.02
  -6   0  15    0.01    0.02
   6   0 -14    0.17    0.03
  -6   0  14    0.18    0.03
   6   0 -13   -0.01    0.02
  -6   0  13    0.00    0.02
   6   0 -12    4.75    0.16
  -6   0  12    4.80    0.15
  -6   0  11    0.08    0.02
  -6   0  10    0.34    0.02
  -6   0  10    0.40    0.03
  -6   0   9    0.01    0.01
  -6   0   9    0.00    0.01
  -6   0   8    0.85    0.03
  -6   0   8    0.96    0.05
  -6   0   7    0.03    0.01
  -6   0   7    0.04    0.02
  -6   0   6    2.96    0.08
  -6   0   6    3.65    0.11
  -6   0   5    0.07    0.01
  -6   0   5    0.13    0.02
  -6   0   4    0.16    0.02
  -6   0   4    0.15    0.01
  -6   0   3    0.02    0.01
  -6   0   2    0.06    0.02
  -6   0   1    0.03    0.01
  -6   0   0    0.53    0.04
  -6   0  -1    0.02    0.01
  -6   0  -2    1.12    0.06
  -6   0  -3    0.04    0.02
  -6   0  -4    2.66    0.09
  -6   0  -5    0.04    0.02
  -6   0  -6    0.12    0.02
  -6   0  -7    0.04    0.01
  -6   0  -8    4.06    0.12
  -6   0  -9    0.04    0.02
   6   0  10    0.09    0.02
   6   0  11   -0.01    0.02
   6   0  12    0.05    0.02
   6   0  13    0.00    0.02
   6   0  14    0.10    0.02
   6   0  15   -0.01    0.02
   6   0  16    0.37    0.04
   6   0  17    0.02    0.02
   6   0  18    2.03    0.09
   6   0  19   -0.02    0.02
   6   0  20    0.03    0.02
   6   0  21   -0.02    0.03
   6   0  22    0.05    0.02
   6   1 -30    0.06    0.03
   6   1 -29    2.69    0.13
   6   1 -28    0.40    0.05
   6  -1 -28    0.34    0.05
   6   1 -27    1.01    0.07
   6  -1 -27    1.19    0.09
   6   1 -26    0.45    0.05
   6  -1 -26    0.61    0.06
   6   1 -25    0.33    0.04
   6  -1 -25    0.36    0.05
  -6  -1  25    0.25    0.04
  -6   1  25    0.25    0.04
   6   1 -24    0.84    0.06
   6  -1 -24    0.92    0.08
  -6  -1  24    0.82    0.07
  -6   1  24    0.81    0.07
   6   1 -23    1.04    0.07
   6  -1 -23    1.12    0.08
  -6  -1  23    0.97    0.07
  -6   1  23    0.96    0.07
   6   1 -22    1.16    0.07
   6  -1 -22    1.19    0.08
  -6  -1  22    1.20    0.08
  -6   1  22    1.20    0.08
   6  -1 -21    0.69    0.06
   6   1 -21    0.65    0.05
  -6  -1  21    0.71    0.06
  -6   1  21    0.74    0.06
   6  -1 -20    0.18    0.03
   6   1 -20    0.14    0.03
  -6  -1  20    0.18    0.04
  -6   1  20    0.15    0.03
   6  -1 -19    2.56    0.11
   6   1 -19    2.38    0.10
  -6  -1  19    2.48    0.11
  -6   1  19    2.42    0.11
   6  -1 -18    1.63    0.09
   6   1 -18    1.62    0.08
  -6  -1  18    1.70    0.09
  -6   1  18    1.78    0.09
   6  -1 -17    0.16    0.03
   6   1 -17    0.15    0.03
  -6  -1  17    0.14    0.03
  -6   1  17    0.09    0.03
   6  -1 -16    0.52    0.05
   6   1 -16    0.60    0.05
  -6  -1  16    0.50    0.05
  -6   1  16    0.52    0.05
   6  -1 -15    1.68    0.09
   6   1 -15    1.75    0.08
  -6  -1  15    1.63    0.08
  -6   1  15    1.73    0.08
   6  -1 -14    0.31    0.04
   6   1 -14    0.30    0.03
  -6   1  14    0.34    0.04
   6   1 -13    9.58    0.26
  -6   1  13    9.64    0.26
   6  -1 -12    3.32    0.13
  -6   1  12    3.18    0.12
   6  -1 -11    0.60    0.05
  -6   1  11    0.59    0.04
  -6   1  10    0.37    0.02
  -6   1  10    0.40    0.03
  -6  -1   9    0.03    0.01
  -6   1   9    0.05    0.01
  -6   1   9    0.05    0.02
  -6   1   8    3.20    0.08
  -6   1   8    3.62    0.11
  -6   1   7    6.46    0.15
  -6   1   7    7.34    0.18
  -6   1   6    1.73    0.06
  -6   1   6    1.98    0.08
  -6   1   5    3.34    0.09
  -6   1   5    3.87    0.12
  -6   1   4    0.51    0.03
  -6   1   4    0.59    0.04
  -6   1   3    4.90    0.12
  -6   1   3    5.57    0.15
  -6  -1   2 1000.00   21.28
  -6   1   1    4.30    0.12
  -6   1   1    3.29    0.09
  -6  -1   0    0.65    0.07
  -6   1   0    1.49    0.06
  -6   1  -1    3.12    0.10
  -6   1  -2    1.14    0.06
  -6   1  -3    8.22    0.22
  -6   1  -4    5.06    0.15
  -6   1  -5    0.38    0.03
  -6   1  -6    0.56    0.04
  -6   1  -7    0.03    0.01
  -6   1  -8    2.92    0.10
  -6   1  -9    8.72    0.22
  -6   1 -10    0.58    0.04
   6   1  10    0.61    0.05
   6  -1  10    0.67    0.05
   6   1  11    4.78    0.15
   6  -1  11    4.83    0.16
   6   1  12    0.12    0.03
   6  -1  12    0.13    0.03
   6   1  13    0.27    0.03
   6  -1  13    0.25    0.03
   6   1  14    2.46    0.10
   6  -1  14    2.63    0.11
   6   1  15    3.79    0.13
   6  -1  15    3.87    0.14
   6   1  16    0.02    0.02
   6  -1  16    0.00    0.02
   6   1  17    1.16    0.07
   6  -1  17    1.26    0.07
   6   1  18    0.74    0.05
   6  -1  18    0.65    0.05
   6   1  19    0.88    0.06
   6  -1  19    1.03    0.07
   6   1  20    1.37    0.08
   6  -1  20    1.51    0.08
   6   1  21    0.45    0.05
   6  -1  21    0.39    0.05
   6   1  22    0.84    0.06
   6  -1  22    0.87    0.06
   6  -2 -26    0.09    0.04
   6   2 -25    0.23    0.03
   6  -2 -25    0.21    0.04
  -6  -2  25    0.12    0.04
  -6   2  25    0.15    0.04
   6   2 -24    0.03    0.02
   6  -2 -24    0.04    0.03
  -6  -2  24    0.01    0.03
  -6   2  24   -0.02    0.03
   6  -2 -23    1.54    0.10
   6   2 -23    1.29    0.07
  -6  -2  23    1.29    0.08
  -6   2  23    1.34    0.08
   6  -2 -22    0.62    0.06
   6   2 -22    0.57    0.05
  -6  -2  22    0.49    0.05
  -6   2  22    0.66    0.06
   6  -2 -21    0.49    0.06
   6   2 -21    0.52    0.04
  -6  -2  21    0.57    0.05
  -6   2  21    0.48    0.05
   6  -2 -20    0.04    0.03
   6   2 -20    0.03    0.02
  -6  -2  20    0.07    0.03
  -6   2  20    0.01    0.02
   6  -2 -19    0.09    0.03
   6   2 -19    0.03    0.02
  -6  -2  19    0.01    0.02
  -6   2  19    0.03    0.02
   6  -2 -18    0.01    0.02
   6   2 -18    0.01    0.02
  -6  -2  18    0.02    0.02
  -6   2  18    0.00    0.02
   6  -2 -17    0.19    0.03
   6   2 -17    0.19    0.03
  -6  -2  17    0.20    0.03
  -6   2  17    0.20    0.03
   6  -2 -16    0.00    0.02
   6   2 -16    0.00    0.01
  -6  -2  16    0.02    0.02
  -6   2  16    0.01    0.02
   6  -2 -15    0.00    0.02
  -6  -2  15    0.02    0.02
  -6   2  15    0.01    0.02
   6  -2 -14    0.00    0.02
  -6  -2  14    0.02    0.02
  -6   2  14    0.00    0.02
  -6  -2  13    1.36    0.07
  -6   2  13    1.44    0.07
   6  -2 -12    1.32    0.08
  -6  -2  12    1.12    0.06
  -6   2  12    1.20    0.06
   6  -2 -11    1.20    0.07
  -6  -2  11    1.17    0.06
  -6   2  11    1.12    0.06
  -6   2  10    0.17    0.02
  -6  -2  10    0.18    0.03
  -6   2  10    0.13    0.02
  -6   2   9    1.29    0.05
  -6  -2   9    1.40    0.07
  -6   2   9    1.44    0.07
  -6   2   8    0.51    0.03
  -6  -2   8    0.57    0.04
  -6   2   8    0.57    0.04
  -6   2   7    0.43    0.03
  -6  -2   7    0.43    0.04
  -6   2   7    0.40    0.03
  -6  -2   6    0.99    0.06
  -6   2   6    1.05    0.05
  -6  -2   5    0.76    0.05
  -6   2   5    0.79    0.05
  -6  -2   4    0.04    0.02
  -6  -2   4    0.06    0.02
  -6   2   4    0.06    0.02
  -6  -2   3    0.01    0.02
  -6  -2   3    0.01    0.02
  -6   2   3    0.01    0.02
  -6  -2   2    0.01    0.02
  -6  -2   2   -0.02    0.02
  -6   2   2    0.01    0.02
  -6  -2   1    0.00    0.02
  -6  -2   1    0.05    0.02
  -6  -2   0    0.05    0.02
  -6  -2   0    0.11    0.02
  -6   2   0    0.11    0.02
  -6  -2  -1    1.33    0.06
  -6   2  -1    1.26    0.06
  -6  -2  -2    0.37    0.03
  -6   2  -2    0.39    0.03
  -6  -2  -3    0.01    0.02
  -6   2  -3    0.00    0.02
  -6  -2  -4    1.13    0.06
  -6   2  -4    1.07    0.05
  -6  -2  -5    1.55    0.07
  -6   2  -5    1.54    0.06
  -6  -2  -6    0.08    0.02
  -6   2  -6    0.06    0.02
  -6  -2  -7    1.68    0.07
  -6   2  -7    1.55    0.06
  -6  -2  -8    1.05    0.05
  -6   2  -8    1.08    0.05
  -6  -2  -9    0.74    0.04
  -6   2  -9    0.68    0.04
  -6  -2 -10    0.05    0.02
  -6   2 -10    0.06    0.02
   6  -2  11    0.02    0.02
   6   2  11    0.03    0.02
  -6  -2 -11   -0.01    0.01
  -6   2 -11    0.01    0.01
   6   2  12    0.01    0.01
   6  -2  12    0.00    0.01
   6   2  13    0.06    0.02
   6  -2  13    0.05    0.02
   6   2  14    0.07    0.02
   6  -2  14    0.05    0.02
   6   2  15    0.01    0.02
   6  -2  15   -0.01    0.02
   6   2  16   -0.01    0.02
   6  -2  16   -0.01    0.02
   6   2  17    1.51    0.08
   6  -2  17    1.49    0.08
   6   2  18    0.51    0.05
   6  -2  18    0.66    0.05
   6   2  19    1.08    0.07
   6  -2  19    1.02    0.07
   6   2  20    0.13    0.03
   6  -2  20    0.14    0.03
   6   2  21    0.44    0.05
   6  -2  21    0.42    0.05
   6   2  22    0.00    0.02
   6  -2  22    0.00    0.03
  -6  -3  24    0.64    0.06
  -6   3  24    0.56    0.06
   6  -3 -23    0.02    0.03
  -6  -3  23    0.02    0.03
  -6   3  23   -0.03    0.03
   6  -3 -22    1.20    0.09
  -6  -3  22    1.16    0.08
  -6   3  22    1.07    0.07
   6  -3 -21    0.02    0.02
  -6  -3  21    0.00    0.02
  -6   3  21    0.03    0.02
   6  -3 -20    0.08    0.03
  -6  -3  20    0.12    0.03
  -6   3  20    0.12    0.03
   6  -3 -19    0.10    0.03
  -6  -3  19    0.06    0.03
  -6   3  19    0.12    0.03
   6  -3 -18   11.13    0.33
  -6  -3  18   10.25    0.29
  -6   3  18   10.99    0.30
   6  -3 -18   10.88    0.26
   6  -3 -17    0.22    0.05
  -6  -3  17    0.15    0.04
  -6   3  17    0.15    0.03
   6  -3 -17    0.20    0.02
   6  -3 -16    6.26    0.22
  -6  -3  16    6.02    0.19
  -6   3  16    6.13    0.19
   6  -3 -15    0.05    0.03
  -6  -3  15    0.05    0.03
  -6   3  15    0.02    0.02
   6  -3 -14    0.06    0.03
  -6  -3  14    0.09    0.02
  -6   3  14    0.08    0.02
   6  -3 -13    0.04    0.02
  -6  -3  13    0.04    0.02
  -6   3  13    0.03    0.02
   6  -3 -12    3.22    0.14
  -6  -3  12    3.24    0.12
  -6   3  12    3.32    0.12
   6  -3 -11    0.09    0.03
  -6  -3  11    0.06    0.02
  -6   3  11    0.06    0.02
  -6  -3  10    0.01    0.02
  -6   3  10    0.01    0.02
  -6  -3   9    0.01    0.00
  -6  -3   9    0.00    0.02
  -6   3   9    0.02    0.02
  -6  -3   8    3.46    0.11
  -6   3   8    3.60    0.10
  -6   3   7    0.19    0.03
  -6  -3   7    0.21    0.03
  -6  -3   6    1.00    0.06
  -6   3   6    1.17    0.06
  -6  -3   5   -0.02    0.02
  -6   3   5   -0.01    0.02
  -6  -3   4    0.91    0.05
  -6   3   4    0.80    0.05
  -6  -3   3    0.84    0.05
  -6   3   3    0.66    0.04
  -6  -3   2   35.35    0.63
  -6   3   2   32.96    0.62
  -6  -3   1    2.02    0.10
  -6   3   1    3.26    0.11
  -6  -3   0   11.71    0.26
  -6   3   0   10.83    0.25
  -6  -3  -1    1.17    0.06
  -6   3  -1    1.01    0.05
  -6  -3  -2    0.51    0.04
  -6   3  -2    0.68    0.04
  -6  -3  -3    0.08    0.02
  -6   3  -3    0.07    0.02
  -6  -3  -4    5.86    0.17
  -6   3  -4    5.62    0.16
  -6  -3  -5    0.22    0.03
  -6   3  -5    0.18    0.03
  -6  -3  -6    0.01    0.01
  -6   3  -6    0.00    0.01
  -6  -3  -7    0.01    0.01
  -6   3  -7    0.01    0.01
  -6  -3  -8    3.18    0.10
  -6   3  -8    3.13    0.10
  -6  -3  -9    0.11    0.02
  -6   3  -9    0.09    0.02
  -6  -3 -10    0.03    0.01
  -6   3 -10    0.03    0.01
  -6  -3 -11    0.01    0.01
  -6   3 -11    0.00    0.01
  -6  -3 -12    2.99    0.11
  -6   3 -12    3.16    0.11
   6   3  13    0.16    0.03
  -6   3 -13    0.20    0.03
   6  -3  13    0.18    0.03
   6   3  14   14.34    0.37
   6  -3  14   14.57    0.37
   6  -3  15    0.15    0.03
   6   3  15    0.15    0.03
   6   3  16    1.12    0.07
   6  -3  16    1.29    0.07
   6   3  17    0.02    0.02
   6  -3  17   -0.01    0.02
   6  -3  18    0.26    0.04
   6   3  18    0.29    0.04
   6   3  19    0.02    0.02
   6  -3  19    0.03    0.02
   6   3  20    1.22    0.07
   6  -3  20    1.22    0.07
   6  -3  21    0.02    0.02
   6   3  21    0.00    0.02
  -6   4  24    0.09    0.03
  -6  -4  23    0.70    0.06
  -6   4  23    0.71    0.06
  -6  -4  22    0.43    0.05
  -6   4  22    0.29    0.04
  -6  -4  21    0.19    0.04
  -6   4  21    0.26    0.04
   6  -4 -20    0.06    0.03
  -6  -4  20    0.03    0.03
  -6   4  20    0.02    0.03
  -6  -4  19    0.14    0.03
  -6   4  19    0.18    0.03
   6  -4 -18    0.06    0.02
  -6  -4  18    0.04    0.02
  -6   4  18    0.07    0.03
  -6  -4  17    0.35    0.04
  -6   4  17    0.31    0.04
   6  -4 -17    0.36    0.03
   6  -4 -16    0.06    0.02
  -6  -4  16    0.07    0.02
  -6   4  16    0.08    0.03
   6  -4 -15    0.05    0.01
  -6  -4  15    0.04    0.02
  -6   4  15    0.05    0.02
  -6  -4  14    0.20    0.03
  -6   4  14    0.18    0.03
  -6  -4  13    0.65    0.05
  -6   4  13    0.75    0.05
  -6  -4  12    0.29    0.03
  -6   4  12    0.30    0.03
  -6  -4  11    0.37    0.04
  -6   4  11    0.42    0.04
  -6  -4  10    0.00    0.02
  -6   4  10    0.02    0.02
  -6  -4   9    0.88    0.05
  -6   4   9    0.90    0.05
  -6  -4   8    0.01    0.01
  -6  -4   8   -0.01    0.02
  -6   4   8    0.01    0.02
  -6  -4   7    0.19    0.01
  -6  -4   7    0.24    0.03
  -6   4   7    0.18    0.02
  -6  -4   6    0.27    0.02
  -6  -4   6    0.33    0.03
  -6   4   6    0.32    0.03
  -6  -4   5    0.45    0.04
  -6   4   5    0.51    0.04
  -6  -4   4   -0.01    0.02
  -6   4   4    0.02    0.02
  -6  -4   3    0.15    0.03
  -6   4   3    0.10    0.02
  -6  -4   2    0.00    0.02
  -6   4   2   -0.02    0.02
  -6  -4   1    0.31    0.03
  -6   4   1    0.35    0.03
  -6  -4   0    0.05    0.02
  -6   4   0    0.03    0.02
  -6  -4  -1    1.16    0.06
  -6   4  -1    1.21    0.06
  -6  -4  -2    0.13    0.03
  -6   4  -2    0.09    0.02
  -6  -4  -3    0.02    0.02
  -6   4  -3    0.00    0.01
  -6   4  -4    0.16    0.02
  -6  -4  -4    0.11    0.02
  -6  -4  -5    1.05    0.05
  -6   4  -5    1.10    0.05
  -6  -4  -6    0.03    0.02
  -6   4  -6    0.05    0.02
  -6  -4  -7    0.84    0.05
  -6   4  -7    0.83    0.05
  -6  -4  -8    0.32    0.03
  -6   4  -8    0.35    0.03
  -6  -4  -9    0.41    0.03
  -6   4  -9    0.41    0.03
  -6  -4 -10    0.08    0.02
  -6   4 -10    0.09    0.02
  -6  -4 -11   -0.01    0.02
  -6   4 -11   -0.01    0.01
  -6  -4 -12    0.00    0.02
  -6   4 -12    0.02    0.01
  -6  -4 -13    0.08    0.02
  -6   4 -13    0.09    0.02
  -6  -4 -14    0.03    0.02
  -6   4 -14    0.02    0.01
  -6  -4 -15    0.25    0.03
  -6   4 -15    0.24    0.03
   6   4  15    0.24    0.03
   6  -4  16    0.07    0.02
   6   4  16    0.05    0.02
   6   4  17    0.92    0.06
   6  -4  17    0.78    0.06
   6   4  18    0.48    0.04
   6  -4  18    0.44    0.04
   6   4  19    0.61    0.05
   6  -4  19    0.55    0.05
   6   4  20    0.03    0.02
   6  -4  20    0.01    0.02
  -6  -5  22    0.44    0.05
  -6  -5  21    0.32    0.04
  -6  -5  20    0.07    0.03
  -6   5  20    0.05    0.03
  -6  -5  19    1.46    0.08
  -6   5  19    1.65    0.08
  -6  -5  18    0.68    0.06
  -6   5  18    0.66    0.06
   6  -5 -18    0.65    0.04
   6  -5 -17    0.02    0.03
   6  -5 -17    0.03    0.02
  -6  -5  17    0.03    0.02
  -6   5  17    0.02    0.02
   6  -5 -16    0.41    0.06
  -6  -5  16    0.33    0.04
  -6   5  16    0.37    0.04
   6  -5 -16    0.36    0.03
   6  -5 -15    1.42    0.10
  -6  -5  15    1.35    0.07
  -6   5  15    1.51    0.07
   6  -5 -15    1.33    0.06
   6  -5 -14    0.25    0.05
  -6  -5  14    0.24    0.03
  -6   5  14    0.19    0.03
   6  -5 -14    0.26    0.03
  -6  -5  13    6.00    0.18
  -6   5  13    6.21    0.18
   6  -5 -13    5.83    0.17
  -6  -5  12    0.87    0.06
  -6   5  12    0.92    0.06
  -6  -5  11    0.27    0.03
  -6   5  11    0.21    0.03
  -6  -5  10    0.27    0.03
  -6   5  10    0.24    0.03
  -6  -5   9    0.00    0.02
  -6   5   9    0.00    0.02
  -6  -5   8    0.86    0.05
  -6   5   8    0.87    0.05
  -6  -5   7    3.45    0.11
  -6   5   7    3.33    0.11
  -6  -5   6    1.27    0.05
  -6  -5   6    1.44    0.07
  -6   5   6    1.35    0.06
  -6  -5   5    1.78    0.07
  -6   5   5    1.83    0.07
  -6  -5   4    0.17    0.02
  -6   5   4    0.25    0.03
  -6  -5   3    2.52    0.08
  -6  -5   3    2.79    0.10
  -6  -5   2    2.25    0.09
  -6   5   2    2.07    0.09
  -6  -5   1    2.65    0.10
  -6   5   1    2.67    0.10
  -6  -5   0    0.84    0.06
  -6   5   0    0.71    0.05
  -6  -5  -1    1.75    0.08
  -6   5  -1    1.89    0.08
  -6  -5  -2    0.86    0.05
  -6   5  -2    0.71    0.05
  -6  -5  -3    4.89    0.14
  -6   5  -3    4.70    0.14
  -6  -5  -4    1.51    0.07
  -6   5  -4    1.32    0.06
  -6  -5  -5    0.15    0.02
  -6   5  -5    0.15    0.02
  -6  -5  -6    0.40    0.03
  -6   5  -6    0.41    0.03
  -6  -5  -7    0.08    0.02
  -6   5  -7    0.08    0.02
  -6  -5  -8    0.85    0.05
  -6   5  -8    0.91    0.05
  -6  -5  -9    4.71    0.14
  -6   5  -9    4.82    0.14
  -6  -5 -10    0.69    0.04
  -6   5 -10    0.60    0.04
  -6  -5 -11    2.45    0.09
  -6   5 -11    2.62    0.09
  -6  -5 -12    0.15    0.03
  -6   5 -12    0.09    0.02
  -6  -5 -13    0.16    0.02
  -6   5 -13    0.15    0.02
  -6  -5 -14    0.62    0.04
  -6   5 -14    0.81    0.05
  -6  -5 -15    2.60    0.09
  -6   5 -15    2.44    0.09
  -6  -5 -16    0.01    0.02
  -6  -5 -17    1.07    0.06
  -6  -5 -18    0.46    0.04
  -6  -5 -19    0.56    0.05
   6  -5  20    0.31    0.04
   6  -6 -17    0.00    0.02
   6  -6 -16   -0.01    0.01
   6  -6 -15    0.00    0.01
  -6  -6  14    0.04    0.02
   6  -6 -14   20.72    0.65
  -6  -6  13    0.29    0.03
   6  -6 -13   26.20    0.50
  -6  -6  12    1.43    0.07
  -6  -6  11    0.04    0.02
  -6  -6  10    0.20    0.03
  -6  -6   9    0.04    0.02
  -6  -6   8    0.29    0.03
  -6  -6   7    0.05    0.02
  -6  -6   6    0.96    0.05
  -6  -6   5    0.19    0.03
  -6  -6   4    0.06    0.01
  -6  -6   4    0.01    0.02
  -6  -6   3    0.13    0.02
  -6  -6   3    0.12    0.02
  -6  -6   2    0.04    0.01
  -6  -6   2    0.00    0.02
  -6  -6   1    0.18    0.02
  -6  -6   1    0.20    0.03
  -6  -6   0    0.11    0.02
  -6  -6   0    0.11    0.02
  -6  -6  -1    0.02    0.02
  -6  -6  -2    0.30    0.03
  -6  -6  -3    0.17    0.02
  -6  -6  -4    0.95    0.05
  -6  -6  -5    0.06    0.02
  -6  -6  -6    0.04    0.01
  -6  -6  -7    0.02    0.01
  -6  -6  -8    1.37    0.06
  -6  -6  -9    0.18    0.02
  -6  -6 -10    0.01    0.01
  -6  -6 -11   -0.01    0.01
  -6  -6 -12    0.00    0.01
  -6  -6 -13    0.02    0.01
  -6  -7   0    0.31    0.03
  -6  -7  -1    0.95    0.05
  -6  -7  -2    0.19    0.03
  -6  -7  -3    1.04    0.06
  -6  -7  -4    1.47    0.07
  -6  -7  -5    0.20    0.03
   7   0 -27    0.01    0.02
   7   0 -26    0.05    0.03
   7   0 -25    0.04    0.03
   7   0 -24    1.53    0.09
   7   0 -23    0.02    0.02
  -7   0  23    0.03    0.03
   7   0 -22    0.26    0.04
  -7   0  22    0.24    0.04
   7   0 -21    0.01    0.02
  -7   0  21    0.01    0.02
   7   0 -20    0.22    0.04
  -7   0  20    0.15    0.03
   7   0 -19    0.01    0.02
  -7   0  19   -0.01    0.02
   7   0 -18    0.07    0.03
  -7   0  18    0.06    0.03
   7   0 -17    0.01    0.02
  -7   0  17    0.00    0.02
   7   0 -16    0.25    0.04
  -7   0  16    0.27    0.04
  -7   0  15    0.00    0.02
  -7   0  14    0.76    0.05
  -7   0  13    0.01    0.02
  -7   0  12    0.33    0.04
  -7   0  11    0.02    0.02
  -7   0  10    0.78    0.03
  -7   0  10    1.10    0.06
  -7   0   9    0.03    0.01
  -7   0   9    0.11    0.03
  -7   0   8    3.94    0.10
  -7   0   8    5.54    0.15
  -7   0   7    0.24    0.03
  -7   0   7    0.08    0.01
  -7   0   6    0.28    0.02
  -7   0   6    0.32    0.04
  -7   0   5    0.03    0.01
  -7   0   5    0.02    0.02
  -7   0   4    0.25    0.03
  -7   0   4    0.19    0.02
  -7   0   3    0.01    0.01
  -7   0   3    0.01    0.02
  -7   0   2    0.06    0.02
  -7   0   1    0.03    0.02
  -7   0   0    0.43    0.04
  -7   0  -1    0.05    0.02
  -7   0  -2    4.43    0.14
  -7   0  -3    0.18    0.03
  -7   0  -4    0.08    0.02
  -7   0  -5    0.02    0.02
  -7   0  -6    2.17    0.08
  -7   0  -7    0.09    0.02
  -7   0  -8    2.63    0.09
  -7   0  -9    0.04    0.02
  -7   0 -10    1.22    0.06
  -7   0 -11    0.03    0.01
  -7   0 -12   -0.01    0.01
  -7   0 -13   -0.01    0.02
  -7   0 -14    0.04    0.01
   7   0  14    0.05    0.02
   7   0  15    0.00    0.02
   7   0  16    0.01    0.02
   7   0  17    0.07    0.03
   7   0  18    2.30    0.11
   7   0  19    0.04    0.02
   7   1 -26    0.36    0.05
   7  -1 -26    0.32    0.05
   7   1 -25    0.44    0.05
   7  -1 -25    0.40    0.05
   7  -1 -24    0.07    0.03
   7   1 -24    0.14    0.03
   7  -1 -23    0.29    0.05
   7   1 -23    0.29    0.04
   7  -1 -22    0.06    0.03
   7   1 -22    0.06    0.03
  -7  -1  22    0.04    0.03
  -7   1  22    0.00    0.03
   7  -1 -21    0.03    0.03
   7   1 -21    0.01    0.02
  -7  -1  21    0.01    0.02
  -7   1  21    0.00    0.03
   7  -1 -20    0.26    0.04
  -7   1  20    0.32    0.04
  -7  -1  20    0.24    0.04
   7  -1 -19    0.42    0.05
   7   1 -19    0.38    0.04
  -7  -1  19    0.40    0.05
  -7   1  19    0.45    0.05
   7   1 -18    0.04    0.02
  -7  -1  18    0.04    0.03
  -7   1  18    0.03    0.02
   7  -1 -17    0.06    0.02
  -7  -1  17    0.04    0.02
  -7   1  17    0.01    0.02
   7  -1 -16    0.01    0.02
  -7  -1  16    0.01    0.02
  -7   1  16   -0.01    0.02
   7  -1 -15    0.24    0.04
  -7  -1  15    0.20    0.03
  -7   1  15    0.24    0.04
  -7  -1  14    0.01    0.02
  -7   1  14    0.06    0.02
  -7   1  13    0.72    0.05
  -7   1  12    0.07    0.02
  -7   1  11    0.04    0.02
  -7   1  10    0.65    0.03
  -7   1  10    0.78    0.05
  -7   1   9    2.59    0.07
  -7   1   9    2.88    0.10
  -7   1   8    0.10    0.01
  -7  -1   8    0.05    0.01
  -7  -1   7    0.26    0.02
  -7   1   7    0.30    0.02
  -7  -1   6    0.06    0.01
  -7   1   6    0.06    0.01
  -7   1   6    0.06    0.02
  -7   1   5    0.51    0.03
  -7   1   5    0.61    0.05
  -7   1   4    0.15    0.03
  -7   1   3    0.37    0.03
  -7   1   2    0.01    0.02
  -7   1   1    0.21    0.03
  -7   1   0    0.03    0.02
  -7   1  -1    0.66    0.04
  -7   1  -2    0.32    0.03
  -7   1  -3    1.65    0.07
  -7   1  -4    0.95    0.05
  -7   1  -5    0.43    0.04
  -7   1  -6    0.12    0.02
  -7   1  -7    1.92    0.08
  -7   1  -8    0.05    0.02
  -7   1  -9    0.13    0.02
  -7   1 -10    0.01    0.01
  -7   1 -11    0.57    0.04
  -7   1 -12    0.00    0.01
  -7   1 -13    0.00    0.01
  -7   1 -14    0.24    0.03
   7   1  14    0.26    0.04
   7  -1  14    0.33    0.04
   7   1  15    0.13    0.03
   7  -1  15    0.14    0.03
   7   1  16    0.02    0.02
   7  -1  16    0.01    0.02
   7   1  17    0.29    0.04
   7  -1  17    0.24    0.04
   7   1  18    0.27    0.04
   7  -1  18    0.29    0.04
   7   1  19    0.49    0.05
   7  -1  19    0.42    0.05
   7  -2 -23    0.06    0.03
   7  -2 -22    0.02    0.02
  -7  -2  22    0.00    0.03
  -7   2  22   -0.02    0.03
   7  -2 -21    0.55    0.06
  -7  -2  21    0.47    0.05
  -7   2  21    0.44    0.05
   7  -2 -20    0.21    0.04
   7   2 -20    0.16    0.03
  -7  -2  20    0.18    0.04
  -7   2  20    0.13    0.03
  -7  -2  19    0.10    0.03
  -7   2  19    0.16    0.04
  -7  -2  18    0.00    0.02
  -7   2  18   -0.01    0.03
   7  -2 -17    0.11    0.03
  -7  -2  17    0.14    0.03
  -7   2  17    0.10    0.03
   7  -2 -16    0.02    0.02
  -7  -2  16    0.03    0.02
  -7   2  16    0.01    0.02
   7  -2 -15    0.00    0.02
  -7  -2  15    0.00    0.02
  -7   2  15    0.01    0.02
  -7  -2  14    0.38    0.04
  -7   2  14    0.41    0.04
  -7  -2  13    0.22    0.03
  -7   2  13    0.23    0.03
  -7  -2  12    0.42    0.04
  -7   2  12    0.40    0.04
  -7  -2  11    0.53    0.04
  -7   2  11    0.55    0.04
  -7  -2  10    0.03    0.02
  -7   2  10    0.04    0.02
  -7  -2   9    0.66    0.05
  -7   2   9    0.73    0.05
  -7  -2   8    0.55    0.04
  -7   2   8    0.50    0.04
  -7  -2   7    1.11    0.06
  -7   2   7    1.01    0.06
  -7  -2   6    0.22    0.03
  -7   2   6    0.20    0.03
  -7   2   5    0.26    0.03
  -7  -2   5    0.18    0.03
  -7  -2   4    0.12    0.03
  -7   2   4    0.09    0.02
  -7  -2   3    0.28    0.03
  -7   2   3    0.26    0.03
  -7  -2   2    0.01    0.02
  -7   2   2    0.00    0.02
  -7  -2   1    0.14    0.03
  -7   2   1    0.17    0.03
  -7  -2   0    0.00    0.02
  -7   2   0    0.01    0.02
  -7  -2  -1    0.10    0.02
  -7   2  -1    0.07    0.02
  -7  -2  -2    1.47    0.07
  -7   2  -2    1.33    0.06
  -7  -2  -3    1.89    0.08
  -7   2  -3    1.86    0.08
  -7  -2  -4    0.23    0.03
  -7   2  -4    0.18    0.03
  -7  -2  -5    0.14    0.02
  -7   2  -5    0.11    0.02
  -7  -2  -6    0.23    0.03
  -7   2  -6    0.19    0.02
  -7  -2  -7    0.06    0.02
  -7   2  -7    0.05    0.02
  -7  -2  -8    0.31    0.03
  -7   2  -8    0.25    0.03
  -7  -2  -9    0.87    0.05
  -7   2  -9    0.88    0.05
  -7  -2 -10    0.29    0.03
  -7   2 -10    0.25    0.03
  -7  -2 -11    0.02    0.01
  -7   2 -11   -0.01    0.02
  -7  -2 -12   -0.01    0.02
  -7   2 -12   -0.02    0.02
  -7  -2 -13    0.37    0.03
  -7   2 -13    0.37    0.03
  -7  -2 -14    0.00    0.02
  -7   2 -14   -0.01    0.02
  -7  -2 -15    0.01    0.01
  -7   2 -15    0.02    0.01
   7   2  15    0.01    0.02
   7  -2  15    0.03    0.02
   7  -2  16    0.04    0.03
   7   2  16    0.04    0.02
   7   2  17    0.04    0.02
   7  -2  17    0.09    0.03
   7   2  18    0.59    0.05
   7  -2  18    0.68    0.06
  -7  -3  21    0.03    0.03
  -7   3  21   -0.01    0.03
   7  -3 -20    1.30    0.09
  -7  -3  20    1.21    0.08
  -7   3  20    1.36    0.08
  -7  -3  19    0.00    0.02
  -7   3  19   -0.01    0.02
   7  -3 -18    0.00    0.03
  -7  -3  18    0.01    0.02
  -7   3  18    0.00    0.02
   7  -3 -17    0.04    0.03
  -7  -3  17    0.08    0.03
  -7   3  17   -0.01    0.03
   7  -3 -16    0.05    0.03
  -7  -3  16   -0.01    0.02
  -7   3  16    0.00    0.02
   7  -3 -15    0.03    0.03
  -7  -3  15    0.09    0.03
  -7   3  15    0.04    0.02
  -7  -3  14   -0.01    0.02
  -7   3  14   -0.01    0.02
  -7  -3  13    0.19    0.03
  -7   3  13    0.19    0.03
  -7  -3  12    0.00    0.03
  -7   3  12    0.02    0.02
  -7  -3  11    0.07    0.03
  -7   3  11    0.12    0.03
  -7  -3  10    1.14    0.07
  -7   3  10    1.04    0.06
  -7  -3   9    0.02    0.02
  -7   3   9    0.01    0.02
  -7  -3   8    0.10    0.03
  -7   3   8    0.14    0.03
  -7  -3   7   -0.01    0.02
  -7   3   7    0.02    0.02
  -7  -3   6    0.94    0.06
  -7   3   6    0.84    0.05
  -7  -3   5    0.03    0.02
  -7   3   5    0.07    0.02
  -7  -3   4    0.78    0.05
  -7   3   4    0.67    0.05
  -7  -3   3    0.05    0.03
  -7   3   3   -0.02    0.02
  -7  -3   2    0.17    0.03
  -7   3   2    0.14    0.03
  -7  -3   1    0.03    0.02
  -7   3   1    0.00    0.02
  -7  -3   0    0.34    0.04
  -7   3   0    0.25    0.03
  -7  -3  -1    0.13    0.03
  -7   3  -1    0.08    0.02
  -7  -3  -2    0.22    0.03
  -7   3  -2    0.20    0.03
  -7  -3  -3    0.56    0.04
  -7   3  -3    0.48    0.04
  -7  -3  -4    1.57    0.07
  -7   3  -4    1.57    0.07
  -7  -3  -5    0.19    0.03
  -7   3  -5    0.13    0.02
  -7  -3  -6    0.00    0.02
  -7   3  -6   -0.01    0.02
  -7  -3  -7    0.01    0.01
  -7   3  -7    0.02    0.02
  -7  -3  -8    0.47    0.04
  -7   3  -8    0.51    0.04
  -7  -3  -9    0.02    0.02
  -7   3  -9    0.01    0.01
  -7  -3 -10    0.35    0.03
  -7   3 -10    0.40    0.03
  -7  -3 -11    0.02    0.02
  -7   3 -11    0.01    0.02
  -7  -3 -12    0.03    0.01
  -7   3 -12   -0.01    0.02
  -7  -3 -13    0.00    0.02
  -7   3 -13    0.00    0.02
  -7  -3 -14    1.04    0.06
  -7   3 -14    1.10    0.06
  -7  -3 -15    0.01    0.02
  -7   3 -15    0.00    0.01
  -7  -3 -16    0.02    0.02
  -7   3 -16    0.04    0.02
  -7  -3 -17    0.02    0.02
  -7   3 -17    0.03    0.02
   7   3  17    0.05    0.02
  -7   3 -18    0.27    0.03
   7  -3  18    0.35    0.04
   7   3  18    0.36    0.04
  -7   4  21    0.32    0.04
  -7  -4  20    0.16    0.04
  -7   4  20    0.10    0.03
  -7  -4  19    0.14    0.03
  -7   4  19    0.10    0.03
  -7  -4  18    0.27    0.04
  -7   4  18    0.31    0.04
   7  -4 -17    0.03    0.03
  -7  -4  17    0.00    0.02
  -7   4  17    0.00    0.02
   7  -4 -16    0.01    0.03
  -7  -4  16    0.03    0.03
  -7   4  16    0.00    0.02
  -7  -4  15    0.12    0.03
  -7   4  15    0.14    0.03
  -7  -4  14    0.25    0.04
  -7   4  14    0.24    0.04
  -7  -4  13    0.02    0.02
  -7   4  13    0.01    0.02
  -7  -4  12    0.02    0.02
  -7   4  12    0.03    0.02
  -7  -4  11    0.22    0.03
  -7   4  11    0.24    0.03
  -7  -4  10    0.18    0.03
  -7   4  10    0.22    0.03
  -7  -4   9    0.37    0.04
  -7   4   9    0.29    0.04
  -7  -4   8    1.00    0.06
  -7   4   8    0.95    0.06
  -7  -4   7    0.55    0.04
  -7   4   7    0.37    0.04
  -7   4   6    0.24    0.03
  -7  -4   6    0.27    0.04
  -7  -4   5    0.14    0.03
  -7   4   5    0.20    0.03
  -7  -4   4    0.18    0.03
  -7   4   4    0.20    0.03
  -7  -4   3    0.16    0.03
  -7   4   3    0.18    0.03
  -7  -4   2    0.25    0.04
  -7   4   2    0.25    0.03
  -7  -4   1    0.00    0.02
  -7   4   1    0.01    0.02
  -7  -4   0   -0.03    0.03
  -7   4   0   -0.01    0.02
  -7  -4  -1    0.20    0.03
  -7   4  -1    0.24    0.03
  -7  -4  -2    1.04    0.06
  -7   4  -2    0.94    0.05
  -7  -4  -3    0.68    0.05
  -7   4  -3    0.59    0.04
  -7  -4  -4    0.15    0.03
  -7   4  -4    0.17    0.03
  -7  -4  -5    0.19    0.03
  -7   4  -5    0.18    0.03
  -7  -4  -6    0.50    0.04
  -7   4  -6    0.41    0.04
  -7  -4  -7    0.02    0.02
  -7   4  -7    0.04    0.02
  -7  -4  -8    0.52    0.04
  -7   4  -8    0.52    0.04
  -7  -4  -9    0.33    0.03
  -7   4  -9    0.30    0.03
  -7  -4 -10    0.63    0.05
  -7   4 -10    0.62    0.04
  -7  -4 -11    0.02    0.02
  -7   4 -11   -0.01    0.02
  -7  -4 -12   -0.02    0.02
  -7   4 -12   -0.01    0.02
  -7  -4 -13    0.31    0.03
  -7   4 -13    0.33    0.03
  -7  -4 -14    0.01    0.02
  -7   4 -14    0.01    0.02
  -7  -4 -15    0.12    0.02
  -7   4 -15    0.10    0.02
  -7  -4 -16   -0.02    0.02
  -7   4 -16   -0.02    0.02
  -7   4 -17   -0.02    0.02
  -7  -5  19    0.03    0.02
  -7  -5  18    0.04    0.03
  -7  -5  17    0.27    0.04
  -7  -5  16    0.05    0.03
  -7   5  16    0.06    0.03
  -7  -5  15    0.11    0.03
  -7   5  15    0.08    0.03
  -7  -5  14    0.02    0.02
  -7   5  14    0.02    0.02
  -7  -5  13    0.73    0.06
  -7   5  13    0.77    0.06
  -7  -5  12    0.20    0.03
  -7   5  12    0.18    0.03
  -7  -5  11    0.06    0.03
  -7   5  11    0.02    0.02
  -7  -5  10    0.17    0.03
  -7   5  10    0.16    0.03
  -7  -5   9    3.12    0.12
  -7   5   9    3.18    0.12
  -7  -5   8    0.29    0.04
  -7   5   8    0.15    0.03
  -7  -5   7    0.51    0.05
  -7   5   7    0.60    0.05
  -7  -5   6    0.26    0.04
  -7   5   6    0.26    0.03
  -7  -5   5    0.09    0.03
  -7   5   5    0.13    0.03
  -7  -5   4    0.02    0.02
  -7   5   4    0.01    0.02
  -7  -5   3    0.01    0.02
  -7   5   3   -0.01    0.02
  -7  -5   2    0.23    0.03
  -7   5   2    0.20    0.03
  -7  -5   1    0.56    0.04
  -7   5   1    0.56    0.04
  -7  -5   0    0.03    0.02
  -7   5   0    0.04    0.02
  -7  -5  -1    0.33    0.04
  -7   5  -1    0.43    0.04
  -7  -5  -2    0.09    0.02
  -7   5  -2    0.12    0.03
  -7  -5  -3    1.71    0.08
  -7   5  -3    1.61    0.07
  -7  -5  -4    0.53    0.04
  -7   5  -4    0.46    0.04
  -7  -5  -5    0.41    0.04
  -7   5  -5    0.30    0.03
  -7  -5  -6    0.07    0.02
  -7   5  -6    0.06    0.02
  -7  -5  -7    2.64    0.10
  -7   5  -7    2.78    0.10
  -7  -5  -8    0.32    0.04
  -7   5  -8    0.32    0.03
  -7  -5  -9    0.48    0.04
  -7   5  -9    0.50    0.04
  -7  -5 -10    0.06    0.02
  -7  -5 -11    0.22    0.03
  -7  -5 -12    0.13    0.02
  -7  -5 -13    0.09    0.02
  -7  -5 -14    0.01    0.02
  -7  -6   8    1.47    0.07
  -7  -6   7    0.48    0.04
  -7  -6   6    0.10    0.03
  -7  -6   5    0.10    0.03
  -7  -6   4    0.07    0.02
  -7  -6   3    0.01    0.02
  -7  -6   2    0.00    0.02
  -7  -6   1    0.13    0.02
  -7  -6   0    0.01    0.02
  -7  -6  -1    0.00    0.02
  -7  -6  -2    1.51    0.07
  -7  -6  -3    0.20    0.03
  -7  -6  -4    0.00    0.02
  -7  -6  -5    0.02    0.02
  -7  -6  -6    0.79    0.05
   8   0 -25    0.05    0.03
   8   0 -24    0.35    0.05
   8   0 -23    0.01    0.02
   8   0 -22    1.10    0.08
  -8   0  19    0.11    0.04
  -8   0  18    7.56    0.24
  -8   0  17    0.24    0.05
  -8   0  16    3.82    0.15
  -8   0  15    0.11    0.03
  -8   0  14    0.64    0.05
  -8   0  13    0.04    0.02
  -8   0  12    0.88    0.06
  -8   0  11    0.02    0.02
  -8   0  10    0.26    0.04
  -8   0   9    0.05    0.02
  -8   0   8    1.98    0.09
  -8   0   7    0.08    0.03
  -8   0   6    0.70    0.06
  -8   0   5    0.06    0.03
  -8   0   4    5.24    0.17
  -8   0   3    1.59    0.08
  -8   0   2   20.19    0.49
  -8   0   1    4.14    0.14
  -8   0   0    4.57    0.15
  -8   0  -1    1.13    0.07
  -8   0  -2    1.33    0.07
  -8   0  -3    0.23    0.03
  -8   0  -4    2.15    0.09
  -8   0  -5    0.17    0.03
  -8   0  -6    0.09    0.02
  -8   0  -7    0.04    0.02
  -8   0  -8    2.02    0.08
  -8   0  -9    0.09    0.02
  -8   0 -10    0.20    0.03
  -8   0 -11    0.02    0.02
  -8   0 -12    3.63    0.12
  -8   0 -13    0.16    0.03
  -8   0 -14    6.34    0.18
   8  -1 -23    0.37    0.05
   8  -1 -22    0.26    0.04
   8  -1 -21    0.21    0.04
   8  -1 -20    0.02    0.03
  -8  -1  18    0.04    0.03
  -8   1  18    0.03    0.02
  -8  -1  17    0.23    0.04
  -8   1  17    0.24    0.04
  -8  -1  16    0.01    0.02
  -8   1  16    0.00    0.02
  -8  -1  15    0.03    0.02
  -8   1  15    0.04    0.02
  -8  -1  14    0.01    0.02
  -8   1  14    0.00    0.02
  -8  -1  13    0.35    0.04
  -8   1  13    0.37    0.04
  -8  -1  12    0.90    0.06
  -8   1  12    0.79    0.06
  -8   1  11    1.15    0.07
  -8   1  10    0.10    0.02
  -8   1   9    0.34    0.04
  -8   1   8    0.12    0.03
  -8   1   7    0.13    0.03
  -8   1   6    0.37    0.04
  -8   1   5    0.67    0.05
  -8   1   4    0.24    0.04
  -8   1   3    0.02    0.02
  -8   1   2    0.07    0.03
  -8   1   1    0.94    0.06
  -8   1   0    0.07    0.03
  -8   1  -1    0.21    0.03
  -8   1  -2    0.12    0.03
  -8   1  -3    0.05    0.02
  -8   1  -4    0.76    0.05
  -8   1  -5    1.97    0.08
  -8   1  -6    0.26    0.03
  -8   1  -7    0.01    0.02
  -8   1  -8    0.15    0.02
  -8   1  -9    0.04    0.02
  -8   1 -10    0.00    0.01
  -8   1 -11    0.01    0.01
  -8   1 -12    0.02    0.01
  -8   1 -13    0.02    0.01
  -8   1 -14   -0.01    0.01
   8  -2 -20    0.07    0.03
  -8  -2  18    0.88    0.07
  -8   2  18    0.68    0.06
  -8  -2  17    0.00    0.02
  -8   2  17    0.04    0.03
  -8  -2  16    0.19    0.04
  -8   2  16    0.16    0.03
  -8  -2  15    3.34    0.14
  -8   2  15    3.46    0.14
  -8  -2  14    0.75    0.06
  -8   2  14    0.76    0.06
  -8  -2  13    3.37    0.13
  -8   2  13    3.00    0.12
  -8  -2  12    0.94    0.07
  -8   2  12    0.95    0.06
  -8  -2  11    0.37    0.04
  -8   2  11    0.24    0.04
  -8  -2  10    0.45    0.05
  -8   2  10    0.42    0.04
  -8  -2   9    0.60    0.05
  -8   2   9    0.47    0.04
  -8  -2   8    1.30    0.08
  -8   2   8    1.34    0.07
  -8  -2   7    2.74    0.12
  -8   2   7    2.67    0.11
  -8  -2   6    1.20    0.08
  -8   2   6    1.22    0.07
  -8  -2   5    3.34    0.13
  -8   2   5    3.06    0.12
  -8  -2   4    0.61    0.06
  -8   2   4    0.62    0.06
  -8  -2   3    1.17    0.08
  -8   2   3    1.14    0.07
  -8  -2   2    2.50    0.11
  -8   2   2    2.44    0.10
  -8  -2   1    3.09    0.12
  -8   2   1    2.64    0.11
  -8  -2   0    0.83    0.07
  -8   2   0    0.60    0.06
  -8  -2  -1    2.78    0.11
  -8   2  -1    2.71    0.11
  -8  -2  -2    1.46    0.08
  -8   2  -2    1.25    0.07
  -8  -2  -3    2.82    0.11
  -8   2  -3    2.76    0.11
  -8  -2  -4    1.67    0.08
  -8   2  -4    1.44    0.07
  -8  -2  -5    0.17    0.03
  -8   2  -5    0.14    0.03
  -8  -2  -6    0.37    0.04
  -8   2  -6    0.37    0.04
  -8  -2  -7    0.18    0.03
  -8   2  -7    0.09    0.02
  -8  -2  -8    1.35    0.07
  -8   2  -8    1.29    0.07
  -8  -2  -9    5.11    0.16
  -8   2  -9    5.25    0.16
  -8  -2 -10    0.26    0.03
  -8   2 -10    0.29    0.03
  -8  -2 -11    1.39    0.07
  -8   2 -11    1.36    0.07
  -8  -2 -12    0.30    0.03
  -8   2 -12    0.24    0.03
  -8  -2 -13    0.00    0.02
  -8   2 -13   -0.01    0.02
  -8   2 -14    0.74    0.05
  -8  -3  17    0.01    0.02
  -8   3  17   -0.01    0.03
  -8  -3  16   -0.01    0.02
  -8   3  16   -0.01    0.02
  -8  -3  15   -0.01    0.02
  -8   3  15    0.04    0.02
  -8  -3  14   -0.01    0.02
  -8   3  14    0.03    0.02
  -8  -3  13    0.09    0.03
  -8   3  13    0.10    0.03
  -8  -3  12    3.08    0.12
  -8   3  12    2.66    0.11
  -8  -3  11    0.16    0.03
  -8   3  11    0.09    0.03
  -8  -3  10    0.02    0.02
  -8   3  10   -0.01    0.02
  -8  -3   9    0.04    0.02
  -8   3   9    0.01    0.02
  -8  -3   8    0.77    0.06
  -8   3   8    0.72    0.05
  -8  -3   7    0.11    0.03
  -8   3   7    0.11    0.03
  -8  -3   6    1.28    0.08
  -8   3   6    1.22    0.07
  -8  -3   5    0.08    0.03
  -8   3   5    0.08    0.03
  -8  -3   4    0.54    0.05
  -8   3   4    0.52    0.05
  -8  -3   3    0.12    0.03
  -8   3   3    0.13    0.03
  -8   3   2    0.35    0.04
  -8  -3   2    0.24    0.04
  -8  -3   1    0.00    0.02
  -8   3   1    0.01    0.02
  -8  -3   0   -0.02    0.03
  -8   3   0    0.00    0.02
  -8  -3  -1   -0.01    0.03
  -8   3  -1   -0.03    0.02
  -8  -3  -2    0.45    0.04
  -8  -3  -3    0.14    0.03
  -8   3  -3    0.20    0.03
  -8  -3  -4    2.08    0.09
  -8   3  -4    1.99    0.09
  -8  -3  -5    0.15    0.03
  -8   3  -5    0.09    0.03
  -8  -3  -6    0.45    0.04
  -8   3  -6    0.48    0.04
  -8  -3  -7    0.01    0.02
  -8   3  -7    0.05    0.02
  -8  -3  -8    1.13    0.06
  -8   3  -8    1.11    0.06
  -8  -3  -9    0.04    0.02
  -8   3  -9    0.03    0.02
  -8  -3 -10    0.09    0.02
  -8   3 -10    0.08    0.02
  -8  -3 -11    0.02    0.02
  -8   3 -11    0.01    0.02
  -8  -3 -12    0.03    0.02
  -8   3 -12    0.04    0.02
  -8   3 -13    0.00    0.02
  -8  -4  16    0.29    0.04
  -8   4  16    0.29    0.04
  -8  -4  15    2.00    0.10
  -8   4  15    2.00    0.10
  -8  -4  14    0.48    0.05
  -8   4  14    0.49    0.05
  -8  -4  13    1.77    0.09
  -8   4  13    1.97    0.10
  -8  -4  12    0.83    0.06
  -8   4  12    0.70    0.06
  -8  -4  11    0.12    0.03
  -8   4  11    0.14    0.03
  -8  -4  10    0.51    0.05
  -8   4  10    0.53    0.05
  -8  -4   9    0.60    0.05
  -8   4   9    0.47    0.05
  -8  -4   8    1.16    0.07
  -8   4   8    1.02    0.06
  -8  -4   7    2.47    0.11
  -8   4   7    2.41    0.10
  -8  -4   6    0.55    0.07
  -8   4   6    0.84    0.06
  -8  -4   5    2.32    0.11
  -8   4   5    2.34    0.11
  -8  -4   4    0.37    0.06
  -8   4   4    0.25    0.06
  -8  -4   3    0.54    0.06
  -8   4   3    0.49    0.06
  -8  -4   2    2.12    0.10
  -8   4   2    1.83    0.09
  -8  -4   1    1.51    0.09
  -8   4   1    1.18    0.08
  -8  -4   0    0.19    0.05
  -8   4   0    0.05    0.05
  -8  -4  -1    1.30    0.08
  -8   4  -1    1.19    0.07
  -8  -4  -2    0.51    0.06
  -8   4  -2    0.34    0.05
  -8   4  -3    1.29    0.07
  -8  -4  -4    1.64    0.08
  -8   4  -4    1.40    0.07
  -8  -4  -5    0.20    0.03
  -8   4  -5    0.08    0.03
  -8  -4  -6    0.36    0.04
  -8   4  -6    0.37    0.04
  -8  -4  -7    0.27    0.04
  -8   4  -7    0.26    0.03
  -8  -4  -8    1.33    0.07
  -8   4  -8    1.39    0.07
  -8  -4  -9    3.99    0.14
  -8   4  -9    4.15    0.14
  -8  -4 -10    0.10    0.03
  -8   4 -10    0.09    0.03
  -8  -4 -11    1.37    0.07
  -8   4 -11    1.47    0.07
  -8   4 -12    0.27    0.03
  -8  -5  14    0.10    0.03
  -8  -5  13    0.32    0.04
  -8  -5  12    0.57    0.05
  -8  -5  11    0.93    0.07
  -8  -5  10    0.05    0.03
  -8  -5   9    0.28    0.04
  -8  -5   8    0.48    0.05
  -8  -5   7    0.05    0.03
  -8  -5   6    0.18    0.03
  -8  -5   5    0.32    0.04
  -8  -5   4    0.00    0.03
  -8  -5   3    0.19    0.03
  -8  -5   2    0.02    0.02
  -8  -5   1    0.13    0.03
  -8  -5   0    0.00    0.03
  -8  -5  -1    0.12    0.03
  -8  -5  -2    0.27    0.04
  -8  -5  -3    0.00    0.02
  -8  -5  -4    0.52    0.04
  -8  -5  -5    1.21    0.07
  -8  -5  -6    0.11    0.03
  -8  -5  -7    0.06    0.02
  -8  -5  -8    0.47    0.04
  -8  -5  -9    0.06    0.02
  -9   0  12    0.03    0.03
  -9   0  10    0.46    0.05
  -9   0   9    0.02    0.02
  -9   0   8    0.36    0.05
  -9   0   7    0.05    0.03
  -9   0   6    0.42    0.05
  -9   0   5    0.08    0.03
  -9   0   4    0.61    0.05
  -9   0   3    0.08    0.03
  -9   0   2    0.06    0.02
  -9   0   1   -0.01    0.02
  -9   0   0    0.25    0.03
  -9   0  -2    0.69    0.05
  -9   0  -3    0.08    0.02
  -9   0  -4    0.29    0.03
  -9   0  -5   -0.03    0.02
  -9   0  -6    0.01    0.01
  -9   0  -7    0.03    0.02
  -9  -1  12    0.07    0.03
  -9   1  12    0.06    0.03
  -9  -1  11    0.44    0.05
  -9   1  11    0.42    0.05
  -9  -1  10    0.40    0.05
  -9   1  10    0.30    0.04
  -9  -1   9    0.04    0.03
  -9   1   9    0.06    0.03
  -9  -1   8    0.11    0.03
  -9   1   8    0.10    0.03
  -9   1   7    0.25    0.04
  -9   1   6    0.25    0.04
  -9   1   5    0.21    0.04
  -9   1   4    0.20    0.04
  -9   1   3   -0.02    0.03
  -9   1   2   -0.03    0.03
  -9   1   1   -0.02    0.02
  -9   1   0    0.03    0.02
  -9   1  -1    0.03    0.02
  -9   1  -2    0.50    0.04
  -9   1  -3    0.48    0.04
  -9   1  -4    0.08    0.02
  -9   1  -5    0.03    0.02
  -9   1  -6    0.31    0.03
  -9   1  -7   -0.02    0.02
  -9  -2  11    0.12    0.04
  -9   2  11    0.11    0.03
  -9  -2  10    0.26    0.04
  -9   2  10    0.25    0.04
  -9  -2   9    2.74    0.12
  -9   2   9    2.48    0.11
  -9   2   8    0.37    0.04
  -9  -2   8    0.31    0.05
  -9  -2   7   -0.01    0.03
  -9   2   7    0.03    0.03
  -9  -2   6    0.03    0.03
  -9   2   6    0.00    0.03
  -9  -2   5    0.14    0.03
  -9   2   5    0.09    0.03
  -9  -2   4    0.00    0.03
  -9   2   4   -0.01    0.03
  -9  -2   3   -0.02    0.03
  -9   2   3    0.00    0.03
  -9  -2   2    0.02    0.03
  -9   2   2    0.08    0.03
  -9  -2   1    0.31    0.04
  -9   2   1    0.27    0.04
  -9  -2   0    0.05    0.03
  -9   2   0    0.10    0.03
  -9  -2  -1    1.18    0.07
  -9   2  -1    1.23    0.07
  -9  -2  -2    0.43    0.05
  -9   2  -2    0.50    0.05
  -9  -2  -3    0.32    0.04
  -9   2  -3    0.30    0.04
  -9  -2  -4    0.32    0.04
  -9   2  -4    0.30    0.04
  -9  -2  -5    0.52    0.05
  -9   2  -5    0.50    0.04
  -9  -2  -6    0.08    0.03
  -9   2  -6    0.11    0.03
  -9   2  -7    1.77    0.08
  -9   3  10    1.49    0.08
  -9  -3   9    0.34    0.05
  -9   3   9    0.20    0.04
  -9  -3   8    0.88    0.07
  -9   3   8    0.80    0.06
  -9  -3   7    0.19    0.04
  -9   3   7    0.16    0.03
  -9  -3   6    0.17    0.04
  -9   3   6    0.22    0.04
  -9  -3   5    0.01    0.03
  -9   3   5    0.04    0.03
  -9  -3   4    0.07    0.03
  -9   3   4    0.05    0.03
  -9  -3   3   -0.03    0.03
  -9   3   3    0.02    0.02
  -9  -3   2    0.23    0.04
  -9   3   2    0.19    0.03
  -9  -3   1   -0.01    0.03
  -9   3   1    0.04    0.03
  -9  -3   0    0.02    0.03
  -9   3   0    0.04    0.02
  -9  -3  -1    0.07    0.03
  -9   3  -1    0.11    0.03
  -9  -3  -2    1.29    0.08
  -9   3  -2    1.28    0.07
  -9   3  -3    0.13    0.03
  -9  -3  -4    0.23    0.03
  -9   3  -4    0.20    0.03
  -9   3  -5    0.10    0.03
  -9   4   8    0.08    0.03
  -9   4   7    0.07    0.03
  -9   4   6    0.01    0.02
  -9   4   5    0.36    0.04
  -9  -4   4    0.24    0.04
  -9   4   4    0.23    0.04
  -9  -4   3    0.11    0.04
  -9   4   3    0.07    0.03
  -9  -4   2   -0.01    0.03
  -9   4   2   -0.02    0.03
  -9  -4   1   -0.03    0.03
  -9   4   1   -0.04    0.03
  -9   4   0   -0.03    0.03
  -9   4  -1    0.62    0.05
  -9   4  -2    0.39    0.04
  -9   4  -3    0.15    0.03
   0   0   0    0.00    0.00
;
_shelx_hkl_checksum              32953
loop_
_space_group_symop_operation_xyz
'x, y, z'
'-x, y+1/2, -z+1/2'
'-x, -y, -z'
'x, -y-1/2, z-1/2'
loop_
_atom_site_label
_atom_site_type_symbol
_atom_site_fract_x
_atom_site_fract_y
_atom_site_fract_z
_atom_site_U_iso_or_equiv
_atom_site_adp_type
_atom_site_occupancy
_atom_site_site_symmetry_order
_atom_site_calc_flag
_atom_site_refinement_flags_posn
_atom_site_refinement_flags_adp
_atom_site_refinement_flags_occupancy
_atom_site_disorder_assembly
_atom_site_disorder_group
In1 In 0.35485(16) 0.09161(16) 0.43549(5) 0.0162(4) Uani 1 1 d . . . . .
In2 In 0.83594(15) 0.08540(17) 0.36597(5) 0.0175(4) Uani 1 1 d . . . . .
Cs3 Cs 0.2883(2) 0.09945(19) 0.25879(5) 0.0362(5) Uani 1 1 d . . . . .
In4 In 0.60634(16) -0.40940(17) 0.43444(5) 0.0167(4) Uani 1 1 d . . . . .
In5 In 0.10772(16) 0.57401(17) 0.43457(5) 0.0171(4) Uani 1 1 d . . . . .
S6 S 0.3493(6) 0.4156(5) 0.38204(17) 0.0142(9) Uani 1 1 d . . . . .
S8 S 0.1115(5) -0.0975(6) 0.37960(17) 0.0146(9) Uani 1 1 d . . . . .
S10 S 0.6163(5) 0.2408(6) 0.50195(15) 0.0163(9) Uani 1 1 d . . . . .
S11 S 0.1370(5) 0.2774(6) 0.50125(15) 0.0150(9) Uani 1 1 d . . . . .
S12 S 0.5652(6) -0.0950(6) 0.37404(18) 0.0174(9) Uani 1 1 d . . . . .
S17 S 0.8419(5) 0.4479(6) 0.37589(17) 0.0148(8) Uani 1 1 d . . . . .
Cl22 Cl 0.8101(7) 0.0957(7) 0.26502(19) 0.0304(11) Uani 1 1 d . . . . .
loop_
_atom_site_aniso_label
_atom_site_aniso_U_11
_atom_site_aniso_U_22
_atom_site_aniso_U_33
_atom_site_aniso_U_23
_atom_site_aniso_U_13
_atom_site_aniso_U_12
In1 0.0161(7) 0.0102(7) 0.0218(7) 0.0001(4) -0.0020(5) -0.0001(4)
In2 0.0145(7) 0.0117(7) 0.0260(8) 0.0000(4) -0.0010(5) 0.0001(4)
Cs3 0.0511(10) 0.0240(8) 0.0326(8) -0.0016(5) -0.0033(6) -0.0015(5)
In4 0.0128(7) 0.0138(7) 0.0232(8) -0.0018(4) -0.0008(5) -0.0002(4)
In5 0.0148(7) 0.0115(7) 0.0247(8) 0.0018(4) 0.0002(5) 0.0003(4)
S6 0.0108(19) 0.0094(19) 0.022(2) 0.0005(14) -0.0011(15) 0.0000(14)
S8 0.0085(19) 0.0109(19) 0.024(2) 0.0030(14) -0.0013(15) -0.0002(14)
S10 0.015(2) 0.014(2) 0.020(2) -0.0014(15) 0.0009(16) 0.0017(16)
S11 0.013(2) 0.0107(19) 0.022(2) 0.0005(14) 0.0017(15) 0.0010(14)
S12 0.015(2) 0.010(2) 0.027(2) 0.0022(15) 0.0018(16) 0.0012(15)
S17 0.0123(19) 0.0117(19) 0.020(2) -0.0025(14) 0.0010(15) -0.0014(15)
Cl22 0.044(3) 0.023(2) 0.023(2) -0.0021(16) -0.002(2) -0.0031(19)
loop_
_atom_type_symbol
_atom_type_description
_atom_type_scat_dispersion_real
_atom_type_scat_dispersion_imag
_atom_type_scat_source
S S 0.1246 0.1234 'International Tables Vol C Tables 4.2.6.8 and 6.1.1.4'
Cl Cl 0.1484 0.1585 'International Tables Vol C Tables 4.2.6.8 and 6.1.1.4'
In In -0.7276 1.3100 'International Tables Vol C Tables 4.2.6.8 and 6.1.1.4'
Cs Cs -0.3680 2.1192 'International Tables Vol C Tables 4.2.6.8 and 6.1.1.4'
loop_
_geom_angle_atom_site_label_1
_geom_angle_atom_site_label_2
_geom_angle_atom_site_label_3
_geom_angle
_geom_angle_site_symmetry_1
_geom_angle_site_symmetry_3
_geom_angle_publ_flag
S6 In1 S8 98.51(14) . . ?
S6 In1 S12 94.41(14) . . ?
S8 In1 S12 83.93(14) . . ?
S6 In1 S10 89.64(13) . . ?
S8 In1 S10 171.82(13) . . ?
S12 In1 S10 94.77(13) . . ?
S6 In1 S10 175.10(14) . 3_656 ?
S8 In1 S10 86.39(13) . 3_656 ?
S12 In1 S10 85.93(12) . 3_656 ?
S10 In1 S10 85.46(13) . 3_656 ?
S6 In1 S11 87.09(13) . . ?
S8 In1 S11 96.07(13) . . ?
S12 In1 S11 178.49(13) . . ?
S10 In1 S11 85.01(12) . . ?
S10 In1 S11 92.56(12) 3_656 . ?
S6 In1 Cs3 57.63(10) . . ?
S8 In1 Cs3 55.78(10) . . ?
S12 In1 Cs3 56.12(10) . . ?
S10 In1 Cs3 129.67(9) . . ?
S10 In1 Cs3 125.97(9) 3_656 . ?
S11 In1 Cs3 125.09(9) . . ?
S12 In2 S8 118.29(14) . 1_655 ?
S12 In2 S17 119.78(15) . . ?
S8 In2 S17 118.43(15) 1_655 . ?
S12 In2 Cl22 95.72(17) . . ?
S8 In2 Cl22 98.72(17) 1_655 . ?
S17 In2 Cl22 94.31(15) . . ?
S12 In2 Cs3 139.07(11) . 1_655 ?
S8 In2 Cs3 53.49(10) 1_655 1_655 ?
S17 In2 Cs3 91.80(10) . 1_655 ?
Cl22 In2 Cs3 53.60(13) . 1_655 ?
S12 In2 Cs3 64.60(11) . 2_645 ?
S8 In2 Cs3 82.50(10) 1_655 2_645 ?
S17 In2 Cs3 141.20(11) . 2_645 ?
Cl22 In2 Cs3 48.24(10) . 2_645 ?
Cs3 In2 Cs3 74.48(3) 1_655 2_645 ?
Cl22 Cs3 Cl22 149.11(18) 2_655 2_645 ?
Cl22 Cs3 S17 93.84(11) 2_655 2_645 ?
Cl22 Cs3 S17 61.82(10) 2_645 2_645 ?
Cl22 Cs3 Cl22 79.04(11) 2_655 1_455 ?
Cl22 Cs3 Cl22 78.43(12) 2_645 1_455 ?
S17 Cs3 Cl22 80.67(10) 2_645 1_455 ?
Cl22 Cs3 S8 113.58(12) 2_655 . ?
Cl22 Cs3 S8 73.03(11) 2_645 . ?
S17 Cs3 S8 125.98(10) 2_645 . ?
Cl22 Cs3 S8 61.84(10) 1_455 . ?
Cl22 Cs3 S12 125.45(11) 2_655 . ?
Cl22 Cs3 S12 84.11(10) 2_645 . ?
S17 Cs3 S12 137.68(10) 2_645 . ?
Cl22 Cs3 S12 118.30(11) 1_455 . ?
S8 Cs3 S12 56.46(10) . . ?
Cl22 Cs3 S6 67.21(10) 2_655 . ?
Cl22 Cs3 S6 134.09(11) 2_645 . ?
S17 Cs3 S6 160.67(10) 2_645 . ?
Cl22 Cs3 S6 91.51(10) 1_455 . ?
S8 Cs3 S6 62.99(9) . . ?
S12 Cs3 S6 61.46(9) . . ?
Cl22 Cs3 Cl22 102.54(13) 2_655 . ?
Cl22 Cs3 Cl22 101.65(12) 2_645 . ?
S17 Cs3 Cl22 103.61(10) 2_645 . ?
Cl22 Cs3 Cl22 175.24(15) 1_455 . ?
S8 Cs3 Cl22 113.55(10) . . ?
S12 Cs3 Cl22 57.10(10) . . ?
S6 Cs3 Cl22 85.03(10) . . ?
Cl22 Cs3 S12 56.96(11) 2_655 2_655 ?
Cl22 Cs3 S12 113.85(11) 2_645 2_655 ?
S17 Cs3 S12 56.72(9) 2_645 2_655 ?
Cl22 Cs3 S12 111.84(10) 1_455 2_655 ?
S8 Cs3 S12 170.34(10) . 2_655 ?
S12 Cs3 S12 129.27(7) . 2_655 ?
S6 Cs3 S12 111.48(9) . 2_655 ?
Cl22 Cs3 S12 72.56(9) . 2_655 ?
Cl22 Cs3 In1 101.06(9) 2_655 . ?
Cl22 Cs3 In1 99.59(9) 2_645 . ?
S17 Cs3 In1 160.28(8) 2_645 . ?
Cl22 Cs3 In1 89.49(8) 1_455 . ?
S8 Cs3 In1 35.40(7) . . ?
S12 Cs3 In1 36.35(7) . . ?
S6 Cs3 In1 34.99(6) . . ?
Cl22 Cs3 In1 85.80(8) . . ?
S12 Cs3 In1 142.90(7) 2_655 . ?
Cl22 Cs3 In2 87.57(10) 2_655 1_455 ?
Cl22 Cs3 In2 85.34(10) 2_645 1_455 ?
S17 Cs3 In2 112.77(8) 2_645 1_455 ?
Cl22 Cs3 In2 33.78(8) 1_455 1_455 ?
S8 Cs3 In2 32.22(6) . 1_455 ?
S12 Cs3 In2 86.62(8) . 1_455 ?
S6 Cs3 In2 64.61(7) . 1_455 ?
Cl22 Cs3 In2 141.50(8) . 1_455 ?
S12 Cs3 In2 139.01(7) 2_655 1_455 ?
In1 Cs3 In2 55.72(3) . 1_455 ?
Cl22 Cs3 In2 33.32(8) 2_655 2_655 ?
Cl22 Cs3 In2 122.54(9) 2_645 2_655 ?
S17 Cs3 In2 61.68(7) 2_645 2_655 ?
Cl22 Cs3 In2 83.21(8) 1_455 2_655 ?
S8 Cs3 In2 139.07(8) . 2_655 ?
S12 Cs3 In2 150.07(8) . 2_655 ?
S6 Cs3 In2 100.01(7) . 2_655 ?
Cl22 Cs3 In2 100.60(7) . 2_655 ?
S12 Cs3 In2 31.75(6) 2_655 2_655 ?
In1 Cs3 In2 134.36(4) . 2_655 ?
In2 Cs3 In2 107.28(4) 1_455 2_655 ?
S6 In4 S11 170.79(14) 1_545 3_656 ?
S6 In4 S12 90.91(14) 1_545 . ?
S11 In4 S12 98.06(14) 3_656 . ?
S6 In4 S17 94.45(13) 1_545 1_545 ?
S11 In4 S17 87.46(13) 3_656 1_545 ?
S12 In4 S17 91.22(14) . 1_545 ?
S6 In4 S10 90.15(13) 1_545 3_656 ?
S11 In4 S10 88.18(12) 3_656 3_656 ?
S12 In4 S10 87.55(13) . 3_656 ?
S17 In4 S10 175.26(13) 1_545 3_656 ?
S6 In4 S10 85.22(12) 1_545 1_545 ?
S11 In4 S10 85.69(12) 3_656 1_545 ?
S12 In4 S10 174.57(14) . 1_545 ?
S17 In4 S10 92.88(12) 1_545 1_545 ?
S10 In4 S10 88.65(12) 3_656 1_545 ?
S17 In5 S6 97.82(14) 1_455 . ?
S17 In5 S11 98.35(14) 1_455 . ?
S6 In5 S11 89.46(13) . . ?
S17 In5 S8 90.74(14) 1_455 1_565 ?
S6 In5 S8 91.97(14) . 1_565 ?
S11 In5 S8 170.52(14) . 1_565 ?
S17 In5 S11 85.00(13) 1_455 3_566 ?
S6 In5 S11 174.61(13) . 3_566 ?
S11 In5 S11 85.58(13) . 3_566 ?
S8 In5 S11 92.60(13) 1_565 3_566 ?
S17 In5 S10 173.19(13) 1_455 3_666 ?
S6 In5 S10 86.44(13) . 3_666 ?
S11 In5 S10 86.96(12) . 3_666 ?
S8 In5 S10 83.78(13) 1_565 3_666 ?
S11 In5 S10 91.20(12) 3_566 3_666 ?
In1 S6 In4 97.84(15) . 1_565 ?
In1 S6 In5 93.42(15) . . ?
In4 S6 In5 95.68(14) 1_565 . ?
In1 S6 Cs3 87.38(11) . . ?
In4 S6 Cs3 136.31(15) 1_565 . ?
In5 S6 Cs3 127.44(15) . . ?
In2 S8 In1 114.17(16) 1_455 . ?
In2 S8 In5 116.94(17) 1_455 1_545 ?
In1 S8 In5 99.33(15) . 1_545 ?
In2 S8 Cs3 94.29(12) 1_455 . ?
In1 S8 Cs3 88.82(11) . . ?
In5 S8 Cs3 139.96(15) 1_545 . ?
In4 S10 In1 92.99(13) 3_656 . ?
In4 S10 In1 91.30(12) 3_656 3_656 ?
In1 S10 In1 94.54(13) . 3_656 ?
In4 S10 In5 87.61(11) 3_656 3_666 ?
In1 S10 In5 174.95(17) . 3_666 ?
In1 S10 In5 90.46(12) 3_656 3_666 ?
In4 S10 In4 91.35(12) 3_656 1_565 ?
In1 S10 In4 87.17(11) . 1_565 ?
In1 S10 In4 176.77(16) 3_656 1_565 ?
In5 S10 In4 87.81(11) 3_666 1_565 ?
In4 S11 In5 99.53(14) 3_656 . ?
In4 S11 In1 93.78(13) 3_656 . ?
In5 S11 In1 88.85(12) . . ?
In4 S11 In5 91.48(13) 3_656 3_566 ?
In5 S11 In5 94.42(13) . 3_566 ?
In1 S11 In5 173.27(17) . 3_566 ?
In2 S12 In4 112.86(17) . . ?
In2 S12 In1 112.35(16) . . ?
In4 S12 In1 95.14(15) . . ?
In2 S12 Cs3 101.47(14) . . ?
In4 S12 Cs3 141.30(16) . . ?
In1 S12 Cs3 87.53(12) . . ?
In2 S12 Cs3 83.65(12) . 2_645 ?
In4 S12 Cs3 92.65(11) . 2_645 ?
In1 S12 Cs3 157.51(16) . 2_645 ?
Cs3 S12 Cs3 73.37(9) . 2_645 ?
In2 S17 In5 113.25(17) . 1_655 ?
In2 S17 In4 114.53(16) . 1_565 ?
In5 S17 In4 96.05(14) 1_655 1_565 ?
In2 S17 Cs3 100.47(13) . 2_655 ?
In5 S17 Cs3 126.72(15) 1_655 2_655 ?
In4 S17 Cs3 106.24(13) 1_565 2_655 ?
In2 Cl22 Cs3 98.44(15) . 2_645 ?
In2 Cl22 Cs3 101.35(14) . 2_655 ?
Cs3 Cl22 Cs3 149.11(18) 2_645 2_655 ?
In2 Cl22 Cs3 92.62(15) . 1_655 ?
Cs3 Cl22 Cs3 101.73(13) 2_645 1_655 ?
Cs3 Cl22 Cs3 100.80(13) 2_655 1_655 ?
In2 Cl22 Cs3 92.10(15) . . ?
Cs3 Cl22 Cs3 78.17(11) 2_645 . ?
Cs3 Cl22 Cs3 77.63(11) 2_655 . ?
Cs3 Cl22 Cs3 175.24(15) 1_655 . ?
loop_
_geom_bond_atom_site_label_1
_geom_bond_atom_site_label_2
_geom_bond_distance
_geom_bond_site_symmetry_2
_geom_bond_publ_flag
In1 S6 2.531(4) . ?
In1 S8 2.554(4) . ?
In1 S12 2.615(5) . ?
In1 S10 2.674(4) . ?
In1 S10 2.703(4) 3_656 ?
In1 S11 2.720(4) . ?
In1 Cs3 4.4081(18) . ?
In2 S12 2.400(4) . ?
In2 S8 2.418(4) 1_655 ?
In2 S17 2.419(4) . ?
In2 Cl22 2.518(5) . ?
In2 Cs3 4.523(2) 1_655 ?
In2 Cs3 4.5337(17) 2_645 ?
Cs3 Cl22 3.419(4) 2_655 ?
Cs3 Cl22 3.467(5) 2_645 ?
Cs3 S17 3.578(4) 2_645 ?
Cs3 Cl22 3.644(6) 1_455 ?
Cs3 S8 3.646(5) . ?
Cs3 S12 3.663(5) . ?
Cs3 S6 3.727(4) . ?
Cs3 Cl22 3.951(6) . ?
Cs3 S12 4.121(5) 2_655 ?
Cs3 In2 4.523(2) 1_455 ?
Cs3 In2 4.5337(17) 2_655 ?
In4 S6 2.541(4) 1_545 ?
In4 S11 2.578(4) 3_656 ?
In4 S12 2.580(4) . ?
In4 S17 2.580(4) 1_545 ?
In4 S10 2.659(4) 3_656 ?
In4 S10 2.868(4) 1_545 ?
In5 S17 2.539(4) 1_455 ?
In5 S6 2.565(4) . ?
In5 S11 2.578(4) . ?
In5 S8 2.579(4) 1_565 ?
In5 S11 2.735(4) 3_566 ?
In5 S10 2.807(4) 3_666 ?
S6 In4 2.541(4) 1_565 ?
S8 In2 2.418(4) 1_455 ?
S8 In5 2.579(4) 1_545 ?
S10 In4 2.659(4) 3_656 ?
S10 In1 2.703(4) 3_656 ?
S10 In5 2.807(4) 3_666 ?
S10 In4 2.868(4) 1_565 ?
S11 In4 2.578(4) 3_656 ?
S11 In5 2.735(4) 3_566 ?
S12 Cs3 4.121(5) 2_645 ?
S17 In5 2.539(4) 1_655 ?
S17 In4 2.581(4) 1_565 ?
S17 Cs3 3.578(4) 2_655 ?
Cl22 Cs3 3.419(4) 2_645 ?
Cl22 Cs3 3.467(5) 2_655 ?
Cl22 Cs3 3.644(6) 1_655 ?
