#------------------------------------------------------------------------------
#$Date: 2022-06-29 01:53:26 +0300 (Wed, 29 Jun 2022) $
#$Revision: 276372 $
#$URL: file:///home/coder/svn-repositories/cod/cif/7/71/06/7710624.cif $
#------------------------------------------------------------------------------
#
# This file is available in the Crystallography Open Database (COD),
# http://www.crystallography.net/
#
# All data on this site have been placed in the public domain by the
# contributors.
#
data_7710624
loop_
_publ_author_name
'Gross, Peter'
'Zhang, Yue'
'Bayarjargal, Lkhamsuren'
'Winkler, Bjoern'
'H\"oppe, Henning A.'
_publ_section_title
;
 New Alkaline-Earth Amidosulfates and their Unexpected Decomposition to
 S4N4
;
_journal_name_full               'Dalton Transactions'
_journal_paper_doi               10.1039/D2DT01380K
_journal_year                    2022
_chemical_formula_sum            'Ca H6 N2 O7 S2'
_chemical_formula_weight         250.27
_space_group_crystal_system      orthorhombic
_space_group_IT_number           19
_space_group_name_Hall           'P 2ac 2ab'
_space_group_name_H-M_alt        'P 21 21 21'
_atom_sites_solution_hydrogens   difmap
_audit_creation_method           SHELXL-2018/3
_audit_update_record
;
2021-10-27 deposited with the CCDC.	2022-06-06 downloaded from the CCDC.
;
_cell_angle_alpha                90
_cell_angle_beta                 90
_cell_angle_gamma                90
_cell_formula_units_Z            4
_cell_length_a                   7.990(3)
_cell_length_b                   8.123(3)
_cell_length_c                   12.009(4)
_cell_measurement_reflns_used    5133
_cell_measurement_temperature    298(2)
_cell_measurement_theta_max      27.511
_cell_measurement_theta_min      3.027
_cell_volume                     779.4(5)
_computing_structure_refinement  'SHELXL-2018/3 (Sheldrick, 2018)'
_diffrn_ambient_temperature      298(2)
_diffrn_measured_fraction_theta_full 0.998
_diffrn_measured_fraction_theta_max 0.987
_diffrn_measurement_device_type  'D8 Venture Bruker'
_diffrn_measurement_method       'generic phi and omega scans'
_diffrn_radiation_type           MoK\a
_diffrn_radiation_wavelength     0.71073
_diffrn_reflns_av_R_equivalents  0.0635
_diffrn_reflns_av_unetI/netI     0.0787
_diffrn_reflns_Laue_measured_fraction_full 0.998
_diffrn_reflns_Laue_measured_fraction_max 0.987
_diffrn_reflns_limit_h_max       10
_diffrn_reflns_limit_h_min       -10
_diffrn_reflns_limit_k_max       10
_diffrn_reflns_limit_k_min       -10
_diffrn_reflns_limit_l_max       13
_diffrn_reflns_limit_l_min       -15
_diffrn_reflns_number            5133
_diffrn_reflns_point_group_measured_fraction_full 0.996
_diffrn_reflns_point_group_measured_fraction_max 0.985
_diffrn_reflns_theta_full        25.242
_diffrn_reflns_theta_max         27.511
_diffrn_reflns_theta_min         3.027
_exptl_absorpt_coefficient_mu    1.347
_exptl_crystal_colour            colourless
_exptl_crystal_density_diffrn    2.133
_exptl_crystal_description       block
_exptl_crystal_F_000             512
_exptl_crystal_size_max          0.20
_exptl_crystal_size_mid          0.02
_exptl_crystal_size_min          0.02
_exptl_transmission_factor_max   0.7455
_exptl_transmission_factor_min   0.5924
_refine_diff_density_max         0.714
_refine_diff_density_min         -0.627
_refine_diff_density_rms         0.158
_refine_ls_abs_structure_details
;
 Refined as an inversion twin.
;
_refine_ls_abs_structure_Flack   0.0(2)
_refine_ls_extinction_coef       0.001(2)
_refine_ls_extinction_expression Fc^*^=kFc[1+0.001xFc^2^\l^3^/sin(2\q)]^-1/4^
_refine_ls_extinction_method     'SHELXL-2018/3 (Sheldrick 2018)'
_refine_ls_goodness_of_fit_ref   1.164
_refine_ls_hydrogen_treatment    refxyz
_refine_ls_matrix_type           full
_refine_ls_number_parameters     129
_refine_ls_number_reflns         1773
_refine_ls_number_restraints     9
_refine_ls_restrained_S_all      1.161
_refine_ls_R_factor_all          0.0881
_refine_ls_R_factor_gt           0.0658
_refine_ls_shift/su_max          0.018
_refine_ls_shift/su_mean         0.002
_refine_ls_structure_factor_coef Fsqd
_refine_ls_weighting_details
'w=1/[\s^2^(Fo^2^)+(0.0230P)^2^+7.2582P] where P=(Fo^2^+2Fc^2^)/3'
_refine_ls_weighting_scheme      calc
_refine_ls_wR_factor_gt          0.1500
_refine_ls_wR_factor_ref         0.1571
_reflns_Friedel_coverage         0.692
_reflns_Friedel_fraction_full    0.995
_reflns_Friedel_fraction_max     0.982
_reflns_number_gt                1416
_reflns_number_total             1773
_reflns_threshold_expression     'I > 2\s(I)'
_cod_data_source_file            d2dt01380k2.cif
_cod_data_source_block           mo_PG_19_1143_0m
_cod_database_code               7710624
_shelx_shelxl_version_number     2018/3
_shelx_space_group_comment
;
The symmetry employed for this shelxl refinement is uniquely defined
by the following loop, which should always be used as a source of
symmetry information in preference to the above space-group names.
They are only intended as comments.
;
_shelx_res_file
;

TITL mo_PG_19_1143_0m in P2(1)2(1)2(1)
    mo_PG_19_1143_0m.res
    created by SHELXL-2018/3 at 09:59:14 on 06-May-2020
CELL 0.71073   7.9896   8.1234  12.0088  90.000  90.000  90.000
ZERR    4.00   0.0033   0.0033   0.0044   0.000   0.000   0.000
LATT -1
SYMM 0.5-X, -Y, 0.5+Z
SYMM -X, 0.5+Y, 0.5-Z
SYMM 0.5+X, 0.5-Y, -Z
SFAC N H O S CA
UNIT 8 24 28 8 4
LIST 6 ! automatically inserted. Change 6 to 4 for CHECKCIF!!
TEMP 24.730

L.S. 4
BOND
FMAP 2
PLAN 20

TWIN

htab

acta
dfix 0.99 0.01 N1 H11 N2 H21 N1 H12 N2 H21 N2 H22
dfix 0.99 0.1 OW HW1 OW HW2
dfix 1.4 0.2 H21 H22 HW1 HW2

WGHT    0.023000    7.258200
EXTI    0.001023
BASF   0.01173
FVAR       0.18037
MOLE   1
CA1   5    0.780973    0.470458    0.627705    11.00000    0.01674    0.01588 =
         0.01503    0.00079   -0.00104   -0.00127
S1    4    0.458057    0.153380    0.643338    11.00000    0.03103    0.02374 =
         0.01693   -0.00237    0.00166   -0.01280
O11   3    0.549480    0.302960    0.619228    11.00000    0.02742    0.02860 =
         0.03468    0.00404    0.00716   -0.01426
O12   3    0.619441    0.655237    0.747177    11.00000    0.04490    0.03358 =
         0.01273    0.00231    0.01083    0.01224
O13   3    0.839122    0.381160    0.445513    11.00000    0.04160    0.06134 =
         0.01681   -0.00155    0.00568    0.02848
N1    1    0.601348    0.013385    0.652545    11.00000    0.04772    0.02359 =
         0.05539   -0.00833   -0.00165    0.00388
H11   2    0.582352   -0.103192    0.672605    11.00000   -1.20000
H12   2    0.708377    0.052516    0.684220    11.00000   -1.20000
S2    4    0.638292    0.744164    0.398959    11.00000    0.02544    0.03091 =
         0.01728    0.00162    0.00244    0.01491
O21   3    0.628848    0.658098    0.505053    11.00000    0.03492    0.03804 =
         0.01539    0.00591    0.00502    0.01446
O22   3    0.978207    0.682098    0.631617    11.00000    0.02290    0.03203 =
         0.02545    0.00104   -0.00624   -0.01096
O23   3    0.798069    0.360637    0.810694    11.00000    0.05976    0.04957 =
         0.01879   -0.00015   -0.00087    0.03820
N2    1    0.767125    0.898820    0.419670    11.00000    0.02600    0.04253 =
         0.04179    0.00408   -0.00367    0.00374
H21   2    0.838598    0.996855    0.431057    11.00000   -1.20000
H22   2    0.727604    0.931208    0.344686    11.00000   -1.20000
OW    3    1.012401    0.280067    0.635145    11.00000    0.07037    0.10474 =
         0.04023    0.03725    0.02173    0.05931
HW1   2    1.074204    0.272170    0.703779    11.00000   -1.20000
HW2   2    1.098837    0.287791    0.588522    11.00000   -1.20000
MOLE   2
HKLF 4




REM  mo_PG_19_1143_0m in P2(1)2(1)2(1)
REM wR2 = 0.1571, GooF = S = 1.164, Restrained GooF = 1.161 for all data
REM R1 = 0.0658 for 1416 Fo > 4sig(Fo) and 0.0881 for all 1773 data
REM 129 parameters refined using 9 restraints

END

WGHT      0.0166      7.3401

REM Instructions for potential hydrogen bonds
EQIV $3 -x+1, y-1/2, -z+3/2
HTAB N1 S1_$3
EQIV $9 x, y-1, z
HTAB N1 O12_$9
EQIV $6 x+1/2, -y+3/2, -z+1
HTAB N2 O11_$6
EQIV $5 -x+3/2, -y+1, z+1/2
HTAB OW S2_$5
EQIV $10 -x+2, y-1/2, -z+3/2
HTAB OW O22_$10
EQIV $2 x+1/2, -y+1/2, -z+1
HTAB OW O11_$2
HTAB OW O13_$2

REM Highest difference peak  0.714,  deepest hole -0.627,  1-sigma level  0.158
Q1    1   0.5536  0.6822  0.3651  11.00000  0.05    0.71
Q2    1   0.5984  0.2025  0.6004  11.00000  0.05    0.71
Q3    1   0.8887  0.4536  0.7954  11.00000  0.05    0.61
Q4    1   0.5251  0.0816  0.6453  11.00000  0.05    0.57
Q5    1   0.6438  1.0313  0.2694  11.00000  0.05    0.57
Q6    1   0.6447 -0.1324  0.8014  11.00000  0.05    0.54
Q7    1   0.8517  0.3765  0.8790  11.00000  0.05    0.54
Q8    1   0.9008  0.4806  0.4434  11.00000  0.05    0.52
Q9    1   0.7123  0.5654  0.6580  11.00000  0.05    0.52
Q10   1   0.6655  0.5441  0.4662  11.00000  0.05    0.51
Q11   1   0.6749 -0.0117  0.5717  11.00000  0.05    0.51
Q12   1   0.9432  0.3451  0.8049  11.00000  0.05    0.51
Q13   1   0.9421  0.8147  0.6325  11.00000  0.05    0.50
Q14   1   0.6938  0.5412  0.6776  11.00000  0.05    0.49
Q15   1   0.9532  0.5529  0.4427  11.00000  0.05    0.49
Q16   1   0.8650  0.3847  0.6075  11.00000  0.05    0.49
Q17   1   1.2553  0.2621  0.5633  11.00000  0.05    0.47
Q18   1   0.6392  0.5006  0.7640  11.00000  0.05    0.47
Q19   1   0.6435  0.2804  0.8442  11.00000  0.05    0.47
Q20   1   0.7385  0.5996  0.5577  11.00000  0.05    0.46
;
_shelx_res_checksum              27134
_shelx_hkl_file
;
   1   0   0    0.26    0.22
   1   0   0    0.17    0.13
  -1   0   0    0.28    0.21
  -1   0   0    0.19    0.14
   2   0   0   30.84    1.23
  -2   0   0   33.87    1.25
  -3   0   0    1.29    0.68
  -3   0   0    0.32    0.36
   3   0   0   -0.50    0.45
   3   0   0    1.09    0.40
  -4   0   0    8.63    0.83
  -5   0   0   -0.54    0.55
   5   0   0   -0.13    0.80
   7   0   0   -0.03    1.08
  -7   0   0    0.06    0.74
   8   0   0    9.20    1.84
  -8   0   0    8.64    1.33
   9   0   0    0.30    2.07
  -9   0   0    0.76    1.36
 -10   0   0    6.41    1.74
  10   0   0    7.83    2.74
   0  -1   0    0.21    0.13
   0   1   0    0.24    0.25
   0   1   0   -0.01    0.14
  -1   1   0  316.78    9.82
  -1  -1   0  324.12    9.84
   1   1   0  316.73    9.82
   1   1   0  297.78    9.74
  -1  -1   0  296.17    9.74
   1  -1   0  310.46    9.83
  -2   1   0  375.52   11.88
  -2  -1   0  373.14   11.85
   2   1   0  367.50   11.84
   2  -1   0  370.05   11.86
   2   1   0  369.87   11.97
   2  -1   0  376.89   11.99
  -2   1   0  389.60   12.01
  -2  -1   0  380.24   12.01
   3   1   0   12.16    1.06
  -3  -1   0   12.73    0.79
   3   1   0   11.83    0.78
  -3   1   0   11.37    0.83
  -3   1   0   10.69    1.46
  -3  -1   0   12.99    1.29
   4   1   0   40.77    2.07
   4  -1   0   42.81    2.08
  -4   1   0   40.85    1.81
  -4  -1   0   38.79    1.74
  -5  -1   0   13.79    1.08
  -5   1   0   14.71    1.18
   5  -1   0   14.87    1.51
   5   1   0   18.34    1.59
  -6  -1   0   18.75    1.38
  -6   1   0   19.10    1.42
   6  -1   0   19.13    1.87
   6   1   0   18.79    1.95
   7  -1   0    5.64    1.53
  -7   1   0    5.80    0.98
  -7  -1   0    6.71    1.03
   7   1   0    6.73    1.55
   8  -1   0    6.85    2.03
  -8  -1   0    4.11    1.21
  -8   1   0    4.88    1.39
   8   1   0    3.43    1.59
  -9   1   0    0.71    1.45
   9  -1   0    0.13    1.83
   9   1   0    2.17    2.19
  -9  -1   0    1.31    1.30
 -10   1   0    1.64    1.62
  10   1   0    4.04    2.84
 -10  -1   0    4.29    1.61
  10  -1   0    2.71    2.45
   0   2   0  127.56    4.17
   0   2   0  125.69    4.27
   0  -2   0  129.86    4.34
   0  -2   0  124.59    4.17
  -1  -2   0  260.03    8.17
   1  -2   0  231.71    8.10
   1   2   0  259.75    8.12
  -1   2   0  253.57    8.25
   1   2   0  247.48    8.01
  -1   2   0  256.65    8.09
  -2  -2   0  335.48   10.85
  -2  -2   0  353.54   11.05
   2  -2   0  339.59   11.01
   2   2   0  338.26   10.82
   2   2   0  344.30   10.98
  -2   2   0  334.77   10.97
  -3  -2   0  135.07    4.42
   3  -2   0  130.53    4.65
   3   2   0  125.32    4.62
  -3  -2   0  128.70    4.77
   4   2   0   37.84    2.09
   4  -2   0   36.04    2.02
  -4  -2   0   37.09    1.69
  -5   2   0    4.66    0.94
   5   2   0    1.61    1.02
   5  -2   0    3.45    1.00
  -5  -2   0    4.10    0.80
  -6   2   0   32.97    1.95
   6  -2   0   34.04    2.32
   6   2   0   33.06    2.40
  -6  -2   0   35.39    1.84
  -7  -2   0    4.67    1.08
  -7   2   0    3.92    0.94
   7   2   0    6.29    1.68
   7  -2   0    5.86    1.33
   8   2   0    3.08    1.77
   8  -2   0    5.06    1.87
  -8   2   0    3.83    1.41
  -8  -2   0    3.84    1.35
  -9  -2   0    3.40    1.52
   9  -2   0    0.33    2.02
   9   2   0    2.69    2.16
  10   2   0   18.82    3.63
  10  -2   0   16.04    2.89
   0  -3   0   -0.01    0.91
   0   3   0   -0.42    0.61
   0   3   0    0.21    0.48
   0  -3   0    0.32    0.33
  -1   3   0   41.01    1.78
   1  -3   0   43.16    1.79
  -1  -3   0   39.68    2.00
   1   3   0   40.14    1.63
   1   3   0   40.09    1.83
  -1   3   0   42.20    2.03
   2   3   0   23.18    1.43
  -2  -3   0   22.32    1.07
  -2  -3   0   21.30    1.64
   3  -3   0  306.93   10.26
  -3  -3   0  305.70   10.35
  -3  -3   0  306.72    9.98
   3   3   0  311.76   10.19
   4  -3   0    0.44    0.81
   4   3   0    1.03    0.93
  -4  -3   0    0.94    0.50
   5  -3   0    0.46    0.93
   5   3   0   -0.44    1.13
  -5  -3   0    1.26    0.67
   6  -3   0   51.36    2.95
   6   3   0   53.87    3.05
  -6  -3   0   48.54    2.38
   7   3   0   19.18    2.60
  -7  -3   0   20.35    2.36
   8  -3   0    6.66    2.03
   8   3   0    3.22    1.97
  -8  -3   0    1.88    1.12
  -9  -3   0    5.68    1.79
   9  -3   0   10.49    2.55
   0  -4   0    1.13    0.51
   0  -4   0    1.92    1.32
   0   4   0    1.30    0.86
   1  -4   0    3.32    0.65
  -1  -4   0    3.01    1.28
   1   4   0    5.99    0.99
  -1   4   0    5.29    1.08
  -2  -4   0   21.85    1.14
   2  -4   0   20.50    1.53
  -2   4   0   21.95    2.06
   2   4   0   21.29    1.63
  -2  -4   0   26.06    2.15
   3  -4   0    1.68    0.83
   3   4   0    0.67    0.93
  -3  -4   0    0.18    0.40
  -3  -4   0    0.57    1.57
   4   4   0    1.86    1.15
   4  -4   0    2.54    0.94
  -4  -4   0    2.87    0.65
   5   4   0   29.05    2.35
  -5  -4   0   29.43    1.66
   5  -4   0   26.86    2.19
  -6  -4   0    4.67    0.95
   6  -4   0    2.01    1.27
   6   4   0    4.51    1.72
  -7  -4   0    7.36    1.30
   7  -4   0    7.78    1.90
   7   4   0   10.73    2.10
   8   4   0    5.08    2.22
   8  -4   0    4.60    1.93
  -8  -4   0    5.83    1.40
  -9  -4   0    5.32    1.74
   9  -4   0    5.09    2.37
   9   4   0    8.27    3.68
   0  -5   0   -2.36    1.87
   0  -5   0    0.59    0.58
   0   5   0    0.82    1.10
  -1  -5   0   28.04    2.82
   1   5   0   28.75    1.93
  -1   5   0   27.90    2.13
   1  -5   0   27.86    1.62
   2  -5   0    2.87    0.99
  -2  -5   0    1.36    1.92
  -2  -5   0    2.35    0.60
   2   5   0    4.07    1.15
  -2   5   0    4.57    1.46
   3  -5   0    5.50    1.16
  -3  -5   0    5.67    0.79
   3   5   0    6.12    1.30
  -3   5   0    7.14    1.85
  -4  -5   0   39.48    1.90
   4   5   0   38.53    2.54
   4  -5   0   35.70    2.38
  -5  -5   0   20.06    1.47
   5   5   0   23.20    2.43
   5  -5   0   22.51    2.14
   6  -5   0   -1.33    1.18
  -6  -5   0    0.91    0.79
   6   5   0    0.15    1.74
  -7  -5   0    1.58    1.13
   7  -5   0    0.86    1.67
   8  -5   0    0.89    1.87
  -8  -5   0    6.62    1.48
   8   5   0    4.26    2.54
  -9  -5   0    3.34    1.56
   9  -5   0   -0.34    2.14
   9   5   0    2.79    3.16
   0  -6   0   65.62    2.80
   0  -6   0   61.26    4.77
   0   6   0   65.31    3.14
  -1  -6   0   11.96    3.13
   1  -6   0    9.72    1.26
  -1   6   0   11.79    1.81
   1   6   0   13.56    1.90
  -2   6   0   14.45    2.04
  -2  -6   0   13.69    1.13
   2   6   0   13.54    1.66
   2  -6   0   13.73    1.46
  -3  -6   0   16.02    1.20
   3   6   0   15.03    2.05
   3  -6   0   13.21    1.73
  -3   6   0   13.91    2.31
  -4   6   0   27.22    3.04
  -4  -6   0   20.43    1.40
   4  -6   0   16.51    2.06
   4   6   0   20.07    2.14
  -5  -6   0    1.40    0.81
   5   6   0    1.75    2.00
  -5   6   0   -0.63    2.45
   5  -6   0    0.75    1.40
  -6  -6   0    7.56    1.38
   6   6   0    6.44    2.19
   6  -6   0    7.53    1.92
  -7  -6   0    8.36    1.52
   7   6   0    6.96    2.66
   7  -6   0    5.54    1.96
   8   6   0    7.22    3.00
   8  -6   0    6.00    2.24
  -8  -6   0    3.99    1.48
   0  -7   0   -0.95    0.80
   0   7   0    3.66    1.73
   1   7   0   15.50    2.14
   1  -7   0   12.56    1.52
  -1   7   0   17.05    2.76
   2  -7   0    0.35    0.89
   2   7   0    2.32    1.65
  -2  -7   0    0.52    0.75
  -2   7   0   -3.52    2.05
   3   7   0    1.57    1.64
  -3  -7   0    1.07    0.77
  -3   7   0    2.01    2.11
   4  -7   0    2.78    1.64
  -4  -7   0    3.86    0.86
   4   7   0    2.35    1.89
  -4   7   0    0.96    2.74
   5  -7   0    7.63    1.99
  -5   7   0    4.55    3.14
  -5  -7   0    6.05    1.24
   5   7   0    7.12    2.20
  -6  -7   0   25.75    2.14
  -6   7   0   40.01    4.87
   6  -7   0   17.66    2.70
   6   7   0   29.28    3.16
  -7  -7   0    3.55    1.35
   7   7   0    3.56    2.96
  -7   7   0    4.02    4.47
   7  -7   0    6.10    2.17
   0  -8   0   12.10    1.59
  -1   8   0   26.64    2.86
   1   8   0   22.03    2.87
   1  -8   0   18.79    2.10
  -2   8   0    6.69    2.70
  -2  -8   0    5.56    1.04
   2   8   0    6.46    2.18
   2  -8   0    8.49    1.65
   3   8   0    2.83    2.10
  -3  -8   0    3.51    1.11
  -3   8   0   -3.52    2.92
   3  -8   0    2.73    1.38
  -4   8   0    6.09    3.23
  -4  -8   0    8.52    1.39
   4   8   0    9.95    2.44
   4  -8   0    5.60    1.81
  -5  -8   0    3.56    1.15
  -5   8   0   11.59    4.07
   5   8   0    0.65    2.45
   5  -8   0    7.96    2.37
   6  -8   0    2.98    2.26
  -6  -8   0    1.80    1.31
  -6   8   0    0.99    4.56
   6   8   0   -2.04    2.85
   0   9   0    1.55    2.52
   0  -9   0   -1.20    1.13
   1   9   0    2.12    2.61
   1  -9   0    2.76    1.53
   2  -9   0   31.69    2.88
  -2  -9   0   30.72    2.18
   3  -9   0    3.76    1.81
  -3  -9   0    1.08    1.14
   3   9   0    0.25    3.13
  -3   9   0   -4.83    3.50
  -4  -9   0    4.05    1.34
  -4   9   0    3.24    4.10
   4  -9   0    5.31    1.75
   5  -9   0    7.97    2.20
  -5  -9   0    7.71    1.53
  -5   9   0   -1.63    5.01
   1 -10   0    1.23    1.55
   2 -10   0    0.82    1.68
  -2 -10   0    1.36    1.26
  -3 -10   0    3.68    1.36
   3 -10   0    2.12    1.87
  -1   0   1   16.46    0.78
  -1   0  -1   16.13    0.74
   1   0  -1   16.25    0.77
   1   0   1   16.37    0.73
  -1   0  -1   16.00    0.61
  -1   0   1   16.58    0.65
   1   0  -1   16.80    0.65
  -2   0   1   40.82    1.69
   2   0   1   38.32    1.44
  -2   0  -1   41.08    1.68
   2   0  -1   38.63    1.68
   2   0  -1   41.95    1.50
   2   0   1   40.52    1.63
  -2   0  -1   40.55    1.46
  -2   0   1   40.95    1.50
  -3   0   1   30.90    1.32
   3   0  -1   29.63    1.54
   3   0  -1   30.35    1.36
  -3   0  -1   30.55    1.64
  -3   0  -1   30.55    1.28
   3   0   1   29.75    1.28
   3   0   1   29.55    1.51
  -3   0   1   29.37    1.67
   4   0   1   12.03    1.22
   4   0  -1   12.32    1.25
  -4   0  -1   13.67    0.94
  -4   0   1   12.93    0.96
   5   0  -1   59.55    2.87
  -5   0  -1   62.20    2.49
   5   0   1   62.75    2.85
  -5   0   1   62.74    2.53
  -6   0   1  102.69    3.88
  -6   0  -1   97.78    3.83
   6   0   1  104.76    4.28
   6   0  -1  101.54    4.30
   7   0  -1    0.85    1.17
   7   0   1    2.77    1.31
  -8   0  -1    7.42    1.34
  -8   0   1    9.44    1.51
   8   0   1    7.77    1.89
  -9   0   1   16.43    2.11
  -9   0  -1   16.52    2.16
   9   0  -1   20.76    2.84
   9   0   1   18.29    2.80
  10   0  -1    2.85    2.46
 -10   0  -1   -0.83    1.57
 -10   0   1    1.58    1.60
  10   0   1    1.70    2.71
   0  -1   1    7.56    0.45
   0   1  -1    7.29    0.44
   0  -1   1    6.90    0.71
   0   1  -1    7.75    0.66
   1   1  -1   76.57    2.76
   1  -1   1   78.15    2.72
   1   1  -1   80.09    2.58
  -1  -1  -1   77.98    2.56
  -1  -1  -1   77.43    2.61
  -1   1   1   80.98    2.63
  -1  -1   1   79.35    2.59
   1   1   1   80.67    2.56
  -1   1  -1   77.23    2.71
  -1  -1   1   75.11    2.76
   1  -1  -1   79.62    2.64
  -2   1   1   77.89    2.64
  -2  -1  -1   74.44    2.57
   2  -1   1   77.59    2.60
  -2   1   1   74.78    2.75
  -2  -1  -1   77.21    2.73
   2   1  -1   73.89    2.79
   2  -1   1   74.81    2.78
   2   1  -1   76.34    2.60
   2   1   1   78.49    2.57
  -2   1  -1   75.00    2.79
  -2  -1   1   73.22    2.82
  -2  -1   1   75.89    2.60
  -2   1  -1   78.52    2.62
   2  -1  -1   76.62    2.63
   2   1   1   75.55    2.70
   2  -1  -1   73.13    2.73
  -3  -1  -1   45.67    1.70
   3   1  -1   41.71    1.97
   3  -1   1   40.69    1.74
  -3   1   1   45.45    1.78
  -3  -1  -1   45.06    2.05
   3  -1   1   44.45    1.96
   3   1   1   42.83    1.67
   3   1   1   42.65    1.91
  -3   1  -1   42.32    2.10
  -3   1  -1   44.99    1.75
  -3  -1   1   43.48    1.73
  -3  -1   1   47.31    2.20
   3  -1  -1   41.35    1.93
   4   1  -1  104.43    4.11
  -4   1   1  111.10    3.89
   4  -1   1  107.00    4.12
  -4  -1  -1  111.49    3.81
  -4   1  -1  111.28    3.85
   4   1   1  106.45    4.06
   4  -1  -1  107.02    4.12
  -4  -1   1  110.05    3.85
   5   1  -1   36.50    2.19
   5  -1   1   34.28    2.12
  -5  -1  -1   37.65    1.74
  -5   1   1   35.31    1.78
  -5  -1   1   38.04    1.76
   5  -1  -1   36.96    2.14
   5   1   1   35.05    2.10
  -5   1  -1   37.69    1.80
   6  -1   1   10.75    1.46
  -6   1   1   14.32    1.32
  -6  -1  -1   14.75    1.27
   6   1  -1   13.12    1.76
   6   1   1   12.62    1.60
  -6   1  -1   13.15    1.29
  -6  -1   1   14.78    1.29
   6  -1  -1   11.29    1.61
   7   1  -1   15.70    2.12
  -7  -1  -1   14.15    1.43
   7  -1   1   13.95    1.88
  -7   1   1   15.28    1.45
   7   1   1   14.79    1.91
  -7  -1   1   13.14    1.41
  -7   1  -1   11.06    1.39
   7  -1  -1   13.94    1.82
  -8  -1  -1   41.48    2.47
   8   1  -1   46.16    3.24
  -8   1   1   42.48    2.61
  -8  -1   1   41.16    2.53
  -8   1  -1   41.73    2.55
   8  -1  -1   43.10    3.19
   8   1   1   46.30    3.18
  -9   1   1    2.08    1.31
   9  -1   1    1.54    2.03
  -9  -1  -1    2.46    1.48
   9   1  -1    1.45    2.02
  -9  -1   1    1.97    1.43
  -9   1  -1    3.42    1.55
   9   1   1    2.52    2.22
   9  -1  -1    1.90    2.00
  10  -1   1    3.06    2.67
 -10  -1  -1    0.39    1.61
  10   1  -1    1.91    2.60
 -10   1   1    2.37    1.71
  10   1   1    9.02    3.04
 -10   1  -1    1.83    1.52
 -10  -1   1    4.81    1.74
  10  -1  -1    9.41    2.69
   0  -2  -1   46.11    1.74
   0   2  -1   48.89    1.76
   0   2  -1   45.70    1.98
   0  -2   1   45.31    1.74
   0  -2   1   45.99    2.06
   0  -2  -1   45.06    1.61
   1  -2   1   57.64    2.22
   1   2  -1   60.41    2.30
  -1   2   1   57.80    2.07
   1   2  -1   59.67    2.13
  -1  -2  -1   58.50    2.11
  -1  -2   1   58.33    2.03
  -1  -2   1   59.88    2.37
  -1   2  -1   57.45    2.23
   1   2   1   59.87    1.99
   1  -2  -1   58.35    2.11
  -1   2  -1   57.02    2.48
  -2  -2  -1  150.57    4.84
  -2   2   1  145.07    4.94
   2   2  -1  143.06    5.08
   2   2  -1  150.07    4.84
  -2  -2  -1  147.14    4.99
   2  -2   1  146.71    5.07
  -2   2  -1  146.14    5.05
   2   2   1  153.92    4.82
  -2  -2   1  143.23    5.13
   2  -2  -1  144.72    4.97
  -2  -2   1  146.75    4.86
   2   2   1  143.85    4.90
   2  -2  -1  150.54    4.93
  -3  -2  -1   22.71    1.12
  -3  -2  -1   20.10    1.56
   3   2  -1   21.59    1.49
   3   2   1   23.58    1.38
  -3  -2   1   23.80    1.15
  -3  -2   1   25.96    1.88
  -4  -2  -1   44.85    1.83
   4   2  -1   39.81    2.20
   4  -2   1   42.80    2.19
  -4  -2   1   42.14    1.84
   4  -2  -1   40.71    2.10
   4   2   1   40.51    2.11
   5   2  -1   30.66    2.12
   5  -2   1   30.37    2.06
  -5   2   1   27.96    1.69
  -5  -2  -1   32.03    1.61
   5  -2  -1   32.70    2.04
  -5  -2   1   31.87    1.64
   5   2   1   32.95    2.07
  -6   2   1    0.15    0.73
   6   2  -1    1.00    1.25
   6  -2   1    1.17    1.07
  -6  -2  -1    1.56    0.75
  -6  -2   1    0.74    0.63
   6  -2  -1    1.21    1.05
   6   2   1   -0.36    1.20
  -6   2  -1   -0.03    0.71
   7   2  -1   39.51    2.86
  -7  -2  -1   35.94    2.07
   7  -2   1   37.49    2.68
   7   2   1   37.58    2.77
   7  -2  -1   35.87    2.57
  -7   2  -1   35.92    2.20
  -8  -2  -1    4.99    1.31
   8   2  -1    2.87    1.84
  -8   2   1    1.84    1.27
   8  -2   1    3.81    1.77
   8   2   1    2.80    1.80
  -8  -2   1    3.06    1.23
   8  -2  -1   -0.16    1.60
  -8   2  -1    2.68    1.15
   9   2  -1   -1.45    2.33
  -9  -2  -1    2.22    1.44
  -9   2   1   -0.33    1.28
   9  -2   1   -2.52    1.98
   9  -2  -1    0.07    1.90
  -9  -2   1    0.98    1.42
  10   2  -1   13.79    3.09
 -10  -2  -1    5.69    1.71
  10  -2   1   14.46    3.08
  10   2   1   10.58    3.47
  10  -2  -1   11.64    2.87
 -10  -2   1    8.34    1.80
   0  -3   1   45.16    2.32
   0  -3  -1   43.16    1.68
   0   3   1   44.69    1.68
   0  -3  -1   46.26    2.01
   0  -3   1   46.61    1.84
   0   3  -1   42.75    2.07
   0   3  -1   44.27    1.84
   1   3  -1    9.07    1.00
  -1   3   1    9.67    0.84
  -1   3   1    8.30    1.33
   1   3  -1    9.05    1.12
  -1  -3  -1    9.47    1.05
   1  -3  -1    6.23    0.78
   1   3   1   10.44    0.72
  -1  -3   1   11.21    1.45
  -1   3  -1    7.34    1.14
  -2  -3  -1  102.89    3.47
   2   3  -1   96.59    3.76
   2  -3   1  107.01    3.80
  -2  -3  -1   96.74    3.70
  -2  -3   1   97.69    3.47
   2  -3  -1  101.66    3.66
  -2  -3   1   90.01    3.90
   2   3   1   98.07    3.55
   2   3   1  112.73    3.62
  -3  -3  -1  123.73    4.59
   3  -3   1  117.51    4.52
   3   3  -1  119.02    4.53
  -3  -3  -1  122.30    4.20
   3  -3  -1  119.44    4.46
   3   3   1  119.86    4.34
  -3  -3   1  127.09    4.24
   4  -3   1   35.00    2.09
   4   3  -1   31.01    2.08
  -4  -3  -1   34.81    1.61
   4  -3  -1   31.24    1.92
   4   3   1   33.83    1.98
  -4  -3   1   34.00    1.63
  -5  -3  -1   15.77    1.17
   5  -3   1   13.39    1.77
   5   3  -1   14.31    1.82
  -5  -3   1   14.74    1.18
   5  -3  -1   15.32    1.58
   5   3   1   12.98    1.76
  -6  -3  -1   23.37    1.57
   6  -3   1   21.66    2.20
   6   3  -1   18.17    2.28
   6  -3  -1   24.78    2.05
   6   3   1   25.76    2.31
  -6  -3   1   24.32    1.59
   7   3  -1    7.86    1.81
  -7  -3   1   10.22    1.33
   7   3   1    7.06    1.81
   7  -3  -1    5.38    1.56
   8   3  -1    2.78    1.87
  -8  -3  -1    0.15    1.08
   8  -3   1    2.61    1.93
   8  -3  -1    1.65    1.62
  -8  -3   1    2.27    1.33
   8   3   1    2.27    1.98
   9  -3   1   19.20    2.99
  -9  -3  -1   15.43    2.03
   9   3  -1   21.21    3.21
   9  -3  -1   18.67    2.84
  -9  -3   1   14.88    2.04
   9   3   1   22.35    3.15
   0  -4  -1   28.98    1.37
   0  -4  -1   28.47    2.10
   0  -4   1   27.76    2.49
   0   4   1   29.41    1.50
   0   4  -1   28.25    1.92
   0  -4   1   29.99    1.52
   1  -4   1   90.70    3.47
  -1  -4  -1   94.41    3.67
   1   4  -1   95.05    3.64
  -1   4   1   90.86    3.50
  -1   4  -1   89.89    3.78
   1  -4  -1   90.74    3.38
  -1  -4   1   92.22    4.03
   2  -4   1   37.65    1.94
  -2   4   1   32.85    2.22
  -2  -4  -1   38.65    1.58
  -2  -4  -1   36.85    2.19
   2   4  -1   34.91    2.03
  -2   4  -1   35.27    2.45
   2  -4  -1   35.60    1.86
  -2  -4   1   33.06    2.59
  -2  -4   1   36.95    1.59
   2   4   1   33.29    1.76
  -3  -4  -1   23.70    2.24
   3  -4   1   22.06    1.75
  -3  -4  -1   25.20    1.29
   3   4  -1   24.42    1.82
  -3  -4   1   25.36    1.30
   3   4   1   26.89    1.64
   3  -4  -1   22.47    1.67
  -4  -4  -1    9.03    0.92
   4  -4   1   10.62    1.52
   4   4  -1   11.20    1.53
   4  -4  -1   10.15    1.38
   4   4   1   10.30    1.38
  -4  -4   1    8.12    0.93
   5  -4   1    6.91    1.39
  -5  -4  -1    7.38    0.94
   5   4  -1   10.89    1.67
   5   4   1    7.14    1.52
   5  -4  -1    5.77    1.38
  -5  -4   1    7.71    1.02
  -6  -4  -1    5.80    1.04
   6  -4   1    7.00    1.53
   6   4  -1    6.64    1.88
  -6  -4   1    8.27    1.20
   6   4   1    6.93    1.62
   6  -4  -1    7.19    1.76
  -7  -4  -1    6.22    1.25
   7   4  -1    4.90    1.94
   7  -4   1    7.32    1.74
   7  -4  -1    6.24    1.80
   7   4   1    8.36    2.01
  -7  -4   1    8.37    1.43
   8  -4   1   25.63    3.14
  -8  -4  -1   19.14    2.10
   8   4  -1   24.57    3.35
   8   4   1   20.93    2.82
  -8  -4   1   15.22    2.02
   8  -4  -1   19.97    2.60
   9  -4   1    1.36    2.15
  -9  -4  -1    0.51    1.53
   9   4  -1    0.14    3.13
   9   4   1    2.47    2.71
   9  -4  -1    2.34    2.31
  -9  -4   1    1.74    1.43
   0   5  -1    4.40    1.24
   0  -5  -1   -0.82    1.64
   0  -5   1    3.85    2.19
   1   5  -1   61.96    2.92
  -1  -5  -1   60.98    2.41
  -1   5   1   57.26    2.77
  -1  -5  -1   61.62    3.27
   1  -5   1   62.11    2.68
   1  -5  -1   60.06    2.55
  -1   5  -1   58.85    3.12
  -1  -5   1   63.33    4.81
   2   5  -1   15.81    1.85
  -2  -5  -1   22.86    2.49
   2  -5   1   19.02    1.50
  -2   5   1   19.04    2.07
  -2  -5  -1   17.41    1.14
   2  -5  -1   14.99    1.50
   2   5   1   19.63    1.50
  -2  -5   1   19.48    1.15
  -2   5  -1   18.35    2.28
   3   5  -1   12.96    1.66
  -3   5   1   17.96    2.18
   3  -5   1   14.11    1.57
  -3  -5  -1   11.08    2.24
  -3  -5  -1   15.37    1.09
   3   5   1   15.13    1.64
  -3   5  -1   16.62    2.22
  -3  -5   1   14.34    1.06
   3  -5  -1   13.64    1.55
   4  -5   1   16.02    1.86
  -4  -5  -1   15.91    1.17
   4   5  -1   16.06    2.04
   4  -5  -1   17.57    1.75
  -4  -5   1   16.33    1.20
   4   5   1   16.25    1.95
   5  -5   1   12.75    1.80
  -5  -5  -1   11.58    1.17
   5   5  -1   13.04    1.99
   5  -5  -1   13.51    1.88
  -5  -5   1   11.13    1.21
   5   5   1   12.00    1.75
  -6  -5  -1    7.05    1.27
   6   5  -1    6.71    2.03
   6  -5   1    5.94    1.63
   6  -5  -1    6.07    1.77
  -6  -5   1    7.97    1.33
   7   5  -1    9.95    2.39
   7  -5   1    8.36    2.18
  -7  -5  -1    6.31    1.31
   7  -5  -1    7.64    2.19
  -7  -5   1    5.73    1.23
   7   5   1   11.34    2.31
  -8  -5  -1    5.60    1.53
   8   5  -1    3.80    4.31
   8  -5   1    5.62    2.35
   8   5   1    8.25    2.52
   8  -5  -1    6.24    2.30
  -8  -5   1    6.87    1.65
   9   5  -1   15.03    3.94
  -9  -5  -1    8.38    1.85
   9  -5   1    9.53    2.92
   9  -5  -1    8.44    2.47
  -9  -5   1    6.36    1.66
   9   5   1    5.00    3.15
   0  -6  -1   51.26    2.30
   0  -6   1   48.40    2.36
   0  -6  -1   43.97    4.01
   0   6  -1   48.54    2.91
  -1   6   1   31.32    2.30
   1   6  -1   31.57    2.43
  -1  -6  -1   26.67    3.50
   1  -6   1   32.06    1.91
  -1   6  -1   30.92    2.63
   1  -6  -1   31.17    1.82
  -2   6   1    5.35    1.71
   2   6  -1    8.32    1.60
  -2  -6  -1    5.85    0.90
  -2  -6  -1    7.24    2.58
   2  -6   1    7.71    1.25
   2  -6  -1   10.58    1.39
  -2  -6   1    7.02    0.91
  -2   6  -1    5.73    1.93
   2   6   1    7.21    1.37
  -3   6   1   17.14    2.29
   3  -6   1   13.51    1.73
   3   6  -1   17.18    2.21
  -3  -6  -1   13.62    1.16
  -3   6  -1   14.10    2.44
  -3  -6   1   15.26    1.20
   3  -6  -1   16.74    1.82
  -4  -6  -1    7.37    0.97
   4   6  -1    8.99    1.83
   4  -6   1    9.25    1.71
  -4   6   1   10.55    2.57
  -4  -6   1    6.74    1.07
  -4   6  -1    8.78    2.42
   4   6   1    8.60    1.66
   4  -6  -1   10.38    1.58
   5  -6   1    7.88    1.88
  -5   6   1   16.33    3.92
   5   6  -1   11.97    2.12
  -5  -6  -1   12.56    1.37
  -5  -6   1   14.74    1.41
   5   6   1   14.67    2.05
  -5   6  -1   17.49    3.20
   5  -6  -1   15.62    2.03
   6   6  -1    3.23    3.62
   6  -6   1    3.95    1.91
  -6  -6  -1    3.40    1.16
   6  -6  -1    2.62    1.85
  -6  -6   1    3.66    1.16
   6   6   1    2.86    2.05
   7  -6   1   10.29    2.39
  -7  -6  -1    3.71    1.19
   7   6  -1   11.36    2.73
   7   6   1    3.79    2.50
  -7  -6   1    5.14    1.34
   7  -6  -1    8.58    2.27
   8   6  -1    2.14    3.01
   8  -6   1    4.94    2.39
  -8  -6  -1    0.59    1.35
  -8  -6   1    0.58    1.32
   8  -6  -1    1.66    2.05
   8   6   1   -1.63    2.77
   0  -7  -1   42.37    2.22
   0  -7  -1   42.33    4.70
   0  -7   1   43.40    2.32
   0   7  -1   36.85    3.00
   1  -7   1   10.38    1.41
  -1  -7  -1    0.78    3.92
   1   7  -1   10.66    2.02
  -1   7   1    8.74    2.19
   1  -7  -1   10.00    1.34
  -1   7  -1    8.18    2.11
   2   7  -1   11.54    2.18
  -2  -7  -1    9.42    1.17
  -2   7   1   13.72    2.22
   2  -7   1   10.93    1.56
  -2   7  -1   12.69    2.45
   2   7   1    7.58    2.21
   2  -7  -1   13.00    1.58
  -2  -7   1   10.82    1.25
   3   7  -1   26.24    3.26
   3  -7   1   21.48    2.20
  -3  -7  -1   17.18    1.83
  -3   7   1   25.98    3.29
  -3  -7   1   21.88    1.59
   3   7   1   24.98    2.32
  -3   7  -1   26.44    2.99
   4   7  -1    6.46    2.07
  -4  -7  -1    5.33    1.02
  -4   7   1    3.17    2.66
   4  -7   1    6.85    1.68
   4   7   1    8.94    1.91
   4  -7  -1    7.17    1.67
  -4  -7   1    5.33    0.95
  -4   7  -1    8.80    4.24
  -5  -7  -1    5.75    1.19
   5   7  -1    5.77    2.36
  -5   7   1    6.76    3.21
   5  -7   1    4.91    1.99
   5   7   1    7.35    2.14
  -5   7  -1    5.42    3.33
   5  -7  -1    7.32    2.01
  -5  -7   1    5.39    1.25
   6  -7   1    2.66    1.77
  -6  -7  -1    2.45    1.26
  -6   7   1    7.09    3.99
   6   7  -1    3.01    2.57
  -6   7  -1    2.74    3.84
   6  -7  -1    1.68    1.77
   6   7   1    4.75    2.35
  -6  -7   1    4.64    1.29
   7   7  -1    2.14    2.96
  -7  -7  -1    1.23    1.23
  -7   7   1    7.14    4.61
   7  -7   1    5.74    2.24
   7   7   1   -1.71    2.73
  -7   7  -1    9.32    4.52
  -7  -7   1    1.45    1.21
   7  -7  -1    1.24    1.95
   0  -8   1    0.60    1.03
   0  -8  -1   -0.46    1.84
   0   8  -1    3.67    2.27
   1   8  -1    4.60    2.21
   1  -8   1    6.19    1.44
  -1   8  -1    4.99    2.43
   1  -8  -1    6.51    1.40
   2   8  -1   43.29    3.53
  -2  -8  -1   42.66    2.35
  -2   8   1   40.67    4.52
   2  -8   1   40.41    2.80
  -2  -8   1   41.54    2.32
  -2   8  -1   45.55    4.14
   2  -8  -1   38.51    2.73
   3  -8   1    6.82    1.86
  -3   8   1    5.96    2.93
  -3  -8  -1    6.02    1.13
  -3  -8   1    6.07    1.23
  -3   8  -1    1.76    2.84
   3  -8  -1    5.22    1.61
   4   8  -1   10.08    2.61
   4  -8   1    8.33    1.91
  -4   8   1    9.22    3.40
  -4  -8  -1    8.16    1.42
   4  -8  -1    9.21    2.10
  -4   8  -1   11.98    3.34
  -4  -8   1    8.94    1.47
  -5   8   1    2.37    3.82
  -5  -8  -1    6.89    1.30
   5  -8   1    7.05    2.04
   5   8  -1    7.25    2.75
   5  -8  -1    6.99    2.21
  -5  -8   1    8.86    1.48
  -5   8  -1    7.14    3.99
  -6  -8  -1    3.62    1.44
   6  -8   1    2.88    2.32
   6   8  -1    0.17    3.05
  -6   8   1    2.97    4.43
  -6  -8   1    5.59    1.47
   6  -8  -1    2.69    1.99
  -6   8  -1   -0.02    4.43
   0   9  -1    6.22    2.98
   0  -9  -1    3.26    1.36
   0  -9   1    4.10    1.50
   1  -9   1   11.60    1.99
   1   9  -1   12.52    2.99
  -1   9  -1   19.16    3.47
   1  -9  -1   16.84    2.08
   2   9  -1    2.46    2.73
  -2  -9  -1    4.56    1.25
   2  -9   1    6.79    1.89
  -2  -9   1    6.61    1.47
   2  -9  -1    7.40    1.76
  -2   9  -1    6.36    3.41
  -3  -9  -1    8.73    1.38
   3  -9   1    7.03    1.89
   3  -9  -1    6.20    1.97
  -3   9  -1    1.22    3.73
  -3  -9   1   10.84    1.56
   4  -9   1   20.79    2.72
  -4  -9  -1   17.41    1.91
  -4  -9   1   18.21    1.89
   4  -9  -1   20.40    2.65
  -5  -9  -1    1.69    1.22
   5  -9   1    1.23    1.81
   5   9  -1   -3.43    4.31
   5  -9  -1    1.92    1.90
  -5  -9   1    2.30    1.27
  -5   9  -1    8.37    4.67
   1 -10   1    2.08    1.62
   1 -10  -1    3.40    1.79
   2 -10   1    2.95    1.81
  -2 -10  -1    3.44    1.32
   2 -10  -1    2.61    1.83
  -2 -10   1    2.55    1.24
   3 -10   1   15.10    2.57
  -3 -10  -1   12.61    1.74
   3 -10  -1   16.63    2.55
  -3 -10   1   12.54    1.75
   0   0  -2    0.71    0.40
   1   0   2   14.27    0.56
   1   0  -2   15.75    0.88
   1   0  -2   14.69    0.64
  -1   0   2   14.60    0.90
  -1   0   2   15.62    0.65
   1   0   2   14.92    0.76
  -1   0  -2   15.68    0.58
  -1   0  -2   14.95    0.78
  -2   0   2   15.95    0.80
   2   0  -2   15.14    1.02
  -2   0   2   16.45    1.15
  -2   0  -2   15.97    1.03
   2   0   2   15.17    0.70
   2   0   2   15.09    0.95
  -2   0  -2   15.33    0.73
   2   0  -2   15.85    0.79
   3   0  -2   45.71    2.07
   3   0   2   45.06    2.01
  -3   0  -2   46.06    1.74
  -3   0   2   44.50    1.79
  -3   0  -2   46.01    2.12
  -4   0  -2   10.94    0.89
   4   0   2   11.17    1.26
  -4   0   2   11.58    0.92
   4   0  -2   13.35    1.33
   5   0  -2   39.83    2.22
   5   0   2   37.25    2.18
  -5   0  -2   36.99    1.74
  -5   0   2   34.87    1.76
   6   0   2    2.34    1.16
   6   0  -2    1.93    1.12
  -6   0  -2    1.72    0.77
  -6   0   2    3.21    0.79
   7   0   2    4.74    1.61
  -7   0  -2    7.40    1.06
  -7   0   2    8.13    1.19
   7   0  -2    6.47    1.47
   8   0  -2    1.77    1.54
  -8   0  -2    2.07    1.14
  -8   0   2    1.25    1.12
   8   0   2    0.63    1.65
   9   0  -2   19.95    2.87
  -9   0   2   17.10    2.14
   9   0   2   17.35    2.85
  -9   0  -2   16.40    1.92
 -10   0  -2    2.15    1.59
 -10   0   2    0.39    1.64
  10   0   2    5.63    2.87
  10   0  -2   -0.20    2.33
   0   1  -2   31.57    1.52
   0  -1   2   32.34    1.54
   0  -1   2   28.37    1.18
   0   1  -2   27.59    1.17
   1   1  -2  317.86   10.59
  -1  -1  -2  308.52   10.55
   1  -1   2  347.45   10.76
  -1   1   2  345.94   10.63
  -1  -1  -2  337.16   10.59
  -1  -1   2  379.07   10.88
   1  -1  -2  353.00   10.65
  -1  -1   2  307.76   10.59
  -1   1  -2  345.71   10.79
   1  -1  -2  329.79   10.62
   2   1  -2  160.51    5.42
  -2  -1  -2  163.36    5.37
  -2  -1  -2  168.78    5.54
  -2   1   2  167.72    5.57
   2  -1   2  164.68    5.39
   2  -1   2  170.71    5.64
  -2   1   2  166.57    5.47
   2   1  -2  187.39    5.74
   2  -1  -2  170.52    5.57
  -2  -1   2  175.55    5.74
   2   1   2  155.60    5.47
   2   1   2  159.84    5.36
   2  -1  -2  160.60    5.45
  -2  -1   2  165.72    5.44
  -2   1  -2  170.45    5.65
   3   1  -2   12.96    1.18
  -3  -1  -2   10.50    0.72
  -3   1   2    9.89    0.82
   3  -1   2   12.31    1.11
  -3  -1  -2    8.91    1.17
   3  -1   2   11.05    0.83
  -3   1  -2   11.50    1.34
  -3  -1   2    9.08    0.73
   3  -1  -2   10.76    1.07
  -3   1  -2   10.72    0.79
   3   1   2    9.96    0.72
   3   1   2    9.96    1.02
  -4   1   2   92.59    3.37
   4  -1   2   92.08    3.65
   4   1  -2   93.87    3.71
  -4  -1  -2   88.68    3.25
   4   1   2   92.45    3.55
  -4  -1   2   91.21    3.32
  -4   1  -2   91.16    3.31
   4  -1  -2   90.11    3.59
  -5  -1  -2    8.88    0.94
   5  -1   2    6.32    1.15
   5   1  -2    8.95    1.34
  -5   1   2    6.95    1.00
   5   1   2   11.53    1.51
   5  -1  -2    7.65    1.17
  -5  -1   2    9.00    0.97
  -5   1  -2    8.09    1.04
   6   1  -2   14.56    1.88
  -6   1   2   13.55    1.31
   6  -1   2   15.57    1.86
  -6  -1  -2   16.68    1.33
  -6   1  -2   13.99    1.34
   6  -1  -2   12.85    1.75
   6   1   2   16.47    1.96
  -6  -1   2   16.75    1.33
  -7  -1  -2    9.77    1.29
  -7   1   2   10.64    1.48
   7  -1   2    9.81    1.63
   7   1  -2    7.17    1.52
   7  -1  -2   10.03    1.71
  -7  -1   2   10.27    1.29
   7   1   2    9.26    1.75
  -7   1  -2    9.74    1.33
   8  -1   2    3.28    1.75
  -8  -1  -2    4.42    1.17
   8   1  -2    3.54    2.76
  -8   1   2    2.48    1.24
   8   1   2    3.90    1.76
  -8  -1   2    2.03    1.16
   8  -1  -2    4.64    1.72
  -8   1  -2    4.28    1.20
   9  -1   2    6.16    2.49
  -9   1   2    7.70    1.65
  -9  -1  -2    7.54    1.51
   9   1  -2    6.93    2.58
  -9  -1   2    7.08    1.53
  -9   1  -2    7.02    1.73
   9  -1  -2   10.16    2.47
  10   1  -2    0.86    2.47
 -10  -1  -2    4.56    1.59
  10  -1   2   -2.42    2.54
 -10   1   2    2.55    1.75
  10  -1  -2    5.66    2.30
 -10   1  -2    4.32    1.53
 -10  -1   2    1.93    1.59
  10   1   2    1.77    3.24
   0  -2   2    6.24    0.64
   0   2  -2    7.05    0.70
   0  -2   2    9.96    1.26
   1   2  -2  287.82    9.24
   1  -2   2  279.11    9.13
   1   2  -2  271.97    9.04
  -1   2  -2  295.47    9.42
  -1  -2   2  263.53    8.91
  -1  -2   2  284.92    9.30
   1  -2  -2  282.82    8.91
  -2  -2  -2   79.18    2.72
   2   2  -2   81.57    3.13
   2   2  -2   78.90    2.75
  -2  -2  -2   78.91    2.87
   2  -2   2   82.26    3.07
  -2   2   2   76.91    2.86
   2  -2  -2   75.53    2.82
  -2   2  -2   76.74    3.04
  -2  -2   2   80.07    2.77
  -2  -2   2   77.88    3.21
   2  -2  -2   80.07    2.89
  -3  -2  -2   25.70    1.20
  -3  -2  -2   24.10    1.65
  -3  -2   2   27.23    1.25
   3   2   2   24.75    1.45
   4   2  -2   55.61    2.63
  -4  -2  -2   51.38    2.13
   4  -2   2   52.59    2.56
  -4  -2  -2   55.52    2.75
   4  -2  -2   50.57    2.50
   4   2   2   52.35    2.42
  -4  -2   2   53.60    2.19
  -5   2   2    2.14    0.71
  -5  -2  -2    1.93    0.69
   5   2  -2    4.31    1.27
   5  -2   2    3.57    1.19
   5   2   2    3.05    1.07
  -5  -2   2    3.71    0.83
   5  -2  -2    2.74    1.01
  -6  -2  -2   22.45    1.49
   6  -2   2   25.37    2.23
  -6   2   2   20.65    1.61
   6   2  -2   27.14    2.29
  -6  -2   2   21.17    1.50
   6   2   2   23.29    2.16
   6  -2  -2   21.89    2.01
   7  -2   2    7.57    1.49
  -7  -2  -2    7.22    1.09
   7   2  -2    5.23    1.57
   7   2   2    6.85    1.66
  -8   2   2   17.97    2.03
  -8  -2  -2   18.78    2.00
   8  -2   2   24.14    2.78
  -8  -2   2   18.48    2.10
   8  -2  -2   19.26    2.36
   8   2   2   22.32    2.54
  -9  -2  -2    1.90    1.36
   9   2  -2   -3.44    2.38
   9  -2   2    0.85    2.16
  -9   2   2    1.29    1.28
   9   2   2    3.01    2.34
   9  -2  -2    1.99    1.98
  -9  -2   2    2.53    1.40
  10   2  -2    2.89    2.75
  10  -2   2   -1.19    2.57
 -10  -2  -2    2.98    1.62
 -10  -2   2    2.71    1.80
  10  -2  -2   -3.07    2.25
  10   2   2    5.14    3.50
   0  -3  -2   45.95    1.75
   0  -3  -2   47.76    1.97
   0   3  -2   51.61    2.43
   0  -3   2   46.06    1.99
   0  -3   2   55.00    2.74
   1  -3   2    8.14    0.84
  -1  -3  -2    6.28    0.86
  -1  -3   2   12.42    1.73
   1  -3  -2    6.56    0.76
   2   3  -2   96.63    3.95
  -2  -3  -2  104.01    3.71
  -2  -3  -2  102.02    3.51
   2  -3   2  103.90    3.87
  -2  -3   2  105.84    4.75
  -2  -3   2  100.21    3.56
   2  -3  -2  105.81    3.69
   2   3   2  101.20    3.42
  -3  -3  -2   51.00    2.04
   3  -3   2   52.15    2.51
  -3  -3  -2   54.27    2.54
   3   3  -2   53.86    2.58
   3  -3  -2   49.56    2.31
  -3  -3   2   53.66    2.11
   3   3   2   49.68    2.21
   4   3  -2   24.26    1.93
  -4  -3  -2   16.87    1.11
  -4  -3  -2   16.39    2.30
   4  -3   2   18.88    1.75
  -4  -3   2   17.95    1.16
   4   3   2   15.44    1.56
   4  -3  -2   16.30    1.51
   5   3  -2    5.80    1.34
   5  -3   2    7.09    1.33
  -5  -3  -2    6.29    0.90
   5   3   2    6.81    1.30
  -5  -3   2    7.47    0.98
   5  -3  -2    5.69    1.16
  -6  -3  -2    4.27    0.91
   6  -3   2    3.09    1.30
   6   3  -2    4.10    1.53
   6   3   2    4.89    1.38
  -6  -3   2    4.68    1.06
   6  -3  -2    5.21    1.33
   7   3  -2    3.56    1.69
   7   3   2    4.94    1.70
   7  -3  -2    2.12    1.36
  -7  -3   2    7.38    1.27
  -8  -3  -2    2.99    1.24
   8   3  -2    7.37    3.25
   8  -3   2    4.38    2.14
   8   3   2    3.79    2.16
  -8  -3   2    3.65    1.42
   8  -3  -2    1.52    1.67
  -9  -3  -2    0.91    1.54
   9   3  -2    2.59    2.80
   9  -3   2    2.71    2.18
   9   3   2    5.45    2.51
   9  -3  -2    2.18    1.93
  -9  -3   2    0.87    1.65
   0   4  -2    0.74    1.16
   0  -4  -2    0.71    0.42
   0  -4   2    0.49    2.22
   0  -4  -2   -0.21    1.07
   0  -4   2    1.59    0.59
   1  -4   2   73.72    2.97
  -1  -4  -2   71.97    2.96
   1   4  -2   78.42    3.27
   1  -4  -2   71.64    2.77
  -1   4  -2   70.13    3.39
   2   4  -2   58.08    2.88
   2  -4   2   60.53    2.66
  -2  -4  -2   59.74    2.30
  -2  -4  -2   57.27    2.67
   2  -4  -2   60.48    2.53
  -2   4  -2   61.66    3.29
  -2  -4   2   60.64    2.33
  -3  -4  -2   18.16    1.11
   3   4  -2   22.36    1.93
   3  -4   2   19.02    1.66
  -3  -4  -2   20.50    1.94
   3   4   2   20.49    1.50
   3  -4  -2   21.12    1.55
  -3  -4   2   17.82    1.13
  -4  -4  -2   10.78    0.99
  -4  -4  -2   12.11    2.03
   4  -4   2   13.50    1.78
   4   4  -2   12.91    1.82
  -4  -4   2   11.64    1.02
   4  -4  -2   12.08    1.51
   4   4   2   12.79    1.59
   5  -4   2   79.64    3.64
   5   4  -2   77.78    3.76
  -5  -4  -2   73.76    3.03
   5  -4  -2   74.82    3.49
  -5  -4   2   68.84    3.02
   5   4   2   74.23    3.37
  -6  -4  -2   55.81    2.60
   6  -4   2   56.61    3.28
   6   4  -2   56.23    3.40
   6   4   2   54.24    3.11
   7  -4   2    2.54    1.77
   7   4  -2    5.98    1.97
  -7  -4  -2    3.20    1.06
   7  -4  -2    4.66    1.84
   7   4   2    2.75    2.31
  -7  -4   2    4.41    1.15
   8   4  -2   -1.35    2.74
   8  -4   2   -1.20    1.80
  -8  -4  -2    1.73    1.38
   8   4   2    4.89    2.35
  -8  -4   2    1.41    1.23
   8  -4  -2    1.04    1.72
  -9  -4  -2    3.94    1.65
   9   4  -2    4.94    3.17
   9  -4   2    5.87    2.47
   9   4   2   -1.17    2.81
  -9  -4   2    2.60    1.54
   9  -4  -2    3.52    2.26
   0  -5  -2   37.80    2.68
   0   5  -2   37.90    2.49
   0  -5   2   42.62    2.05
   0  -5  -2   39.19    1.76
   1   5  -2   23.37    2.07
   1  -5   2   26.82    1.67
  -1  -5  -2   27.46    2.31
   1  -5  -2   25.40    1.52
  -1   5  -2   23.03    2.28
   2   5  -2    5.24    1.41
  -2  -5  -2    5.67    1.50
   2  -5   2    7.43    1.21
  -2  -5  -2    5.30    0.71
   2  -5  -2    4.34    0.96
  -2  -5   2    5.19    0.74
  -2   5  -2    4.81    1.71
   3  -5   2   23.94    2.02
  -3  -5  -2   24.29    1.38
  -3  -5  -2   24.37    2.62
   3   5  -2   23.23    2.22
  -3   5   2   21.37    2.37
  -3   5  -2   25.82    2.88
  -3  -5   2   25.66    1.41
   3  -5  -2   27.47    1.82
   4  -5   2   29.63    2.22
  -4  -5  -2   30.91    1.62
   4   5  -2   31.73    2.51
  -4  -5   2   32.10    1.68
  -4   5  -2   27.26    3.39
   4  -5  -2   26.61    2.14
   4   5   2   27.08    2.15
  -5  -5  -2   71.37    2.93
   5   5  -2   68.44    3.72
   5  -5   2   66.05    3.59
   5  -5  -2   64.43    3.41
  -5  -5   2   70.84    2.96
   5   5   2   63.34    3.27
   6   5  -2    6.25    1.97
   6  -5   2    5.53    1.73
  -6  -5  -2    5.47    1.22
   6  -5  -2    3.01    1.57
   6   5   2    4.68    1.75
  -6  -5   2    5.16    1.10
   7  -5   2   36.02    3.32
   7   5  -2   36.73    3.53
  -7  -5  -2   34.17    2.30
   7  -5  -2   37.96    3.34
   7   5   2   34.87    3.19
  -7  -5   2   31.21    2.28
   8   5  -2    0.46    2.65
   8  -5   2    0.90    2.17
  -8  -5  -2    1.94    1.30
   8   5   2   -0.92    2.60
  -8  -5   2    1.59    1.40
   8  -5  -2   -0.04    1.90
  -9  -5  -2    2.96    1.58
  -9  -5   2    1.57    1.50
   0  -6  -2   12.68    2.40
   0  -6  -2   15.06    1.22
   0  -6   2   13.90    1.39
   0   6  -2   14.60    2.01
  -1  -6  -2   31.70    3.04
   1   6  -2   30.58    2.49
   1  -6   2   30.78    1.97
   1  -6  -2   31.43    1.79
  -1   6  -2   30.49    2.80
   2   6  -2    6.69    1.66
  -2  -6  -2    5.29    2.24
   2  -6   2    6.60    1.22
  -2   6  -2    5.30    2.03
   2  -6  -2    6.47    1.14
  -2  -6   2    7.90    0.94
   3   6  -2    3.03    1.53
  -3   6   2    1.37    1.77
   3  -6   2    2.65    1.06
  -3  -6  -2    3.34    0.75
  -3  -6  -2    1.91    2.63
   3  -6  -2    3.64    1.14
  -3  -6   2    4.36    0.81
  -3   6  -2    4.87    2.08
   4   6  -2   32.83    2.81
  -4  -6  -2   30.56    1.70
  -4   6   2   32.84    3.10
   4  -6   2   23.40    3.32
  -4   6  -2   27.98    3.61
   4   6   2   32.18    2.36
  -4  -6   2   27.74    2.36
   4  -6  -2   28.00    2.24
  -5   6   2   25.80    3.23
   5   6  -2   20.03    2.55
  -5  -6  -2   17.53    1.54
   5  -6   2   16.31    2.25
   5   6   2   17.17    2.10
  -5  -6   2   16.41    1.54
   5  -6  -2   18.38    2.30
  -5   6  -2   24.95    3.35
   6  -6   2   19.43    2.80
  -6  -6  -2   14.26    1.65
   6   6  -2   14.94    2.60
   6   6   2   22.01    2.43
  -6  -6   2   15.33    1.74
   6  -6  -2   18.48    2.40
  -7  -6  -2    3.67    1.22
   7   6  -2    3.66    3.29
   7  -6   2    6.16    2.29
   7  -6  -2    6.77    2.07
  -7  -6   2    4.31    1.25
   7   6   2   -1.88    2.24
   8   6  -2    9.95    4.19
  -8  -6  -2    6.55    1.71
   8  -6   2   10.33    2.80
  -8  -6   2    5.14    1.71
   8   6   2    1.82    2.95
   8  -6  -2    9.36    2.48
   0  -7   2   19.38    1.69
   0   7  -2   21.64    2.56
   0  -7  -2   18.28    1.49
   0  -7  -2   17.11    3.54
   1   7  -2    2.23    1.81
  -1  -7  -2   -7.96    3.13
   1  -7   2   -0.46    0.82
   1  -7  -2    1.19    0.91
  -1   7  -2    3.09    2.07
  -2  -7  -2   19.02    3.53
   2   7  -2   19.98    2.44
  -2  -7   2   15.49    1.97
   2  -7  -2   19.54    1.71
  -2   7  -2   22.27    2.86
  -3  -7  -2   45.88    3.32
  -3   7   2   47.13    5.41
   3  -7   2   60.31    3.22
   3   7  -2   59.16    3.68
  -3  -7   2   59.77    2.71
   3  -7  -2   63.16    4.28
  -3   7  -2   60.36    4.23
  -4  -7  -2    2.21    0.85
   4   7  -2    5.66    2.68
   4  -7   2    3.98    1.54
  -4   7   2    1.15    2.63
   4  -7  -2    2.37    1.59
  -4   7  -2    0.80    2.76
  -4  -7   2    3.22    1.00
   5  -7   2    5.13    1.96
   5   7  -2    7.73    2.38
  -5  -7  -2    6.74    1.17
  -5   7   2    9.29    3.30
   5  -7  -2    4.42    1.85
   5   7   2    8.16    2.17
  -5  -7   2    7.64    1.43
  -5   7  -2    6.75    3.27
   6   7  -2    3.59    2.57
  -6  -7  -2    1.56    1.15
   6  -7   2   -1.26    2.01
  -6   7   2    2.53    3.87
   6  -7  -2    0.84    1.75
   6   7   2   -1.42    2.18
  -6  -7   2    1.70    1.14
  -7   7   2    0.18    4.75
  -7  -7  -2    0.28    1.22
   7  -7   2   -1.33    1.99
   7   7  -2   -2.90    2.83
  -7  -7   2   -0.09    1.12
   7  -7  -2    1.00    2.01
  -7   7  -2    8.33    5.80
   0  -8   2   -0.52    1.07
   0  -8  -2   10.55    5.43
   0   8  -2   -5.55    2.29
   1   8  -2    5.09    2.40
   1  -8   2    8.66    1.72
  -1  -8  -2   16.97    5.97
  -1   8  -2   11.38    2.71
   2  -8   2    2.90    1.37
   2   8  -2    1.76    2.27
  -2  -8  -2    2.51    0.99
  -2   8  -2    0.86    2.66
   2  -8  -2    3.06    1.23
  -2  -8   2    2.79    0.98
  -3  -8  -2    0.86    0.92
   3   8  -2    1.31    2.37
   3  -8   2    1.83    1.58
  -3  -8   2    2.00    0.92
   3  -8  -2    2.29    1.45
  -3   8  -2    2.51    2.91
   4   8  -2   18.20    3.03
   4  -8   2   17.83    2.39
  -4  -8  -2   19.60    1.80
  -4   8  -2   23.88    3.86
  -4  -8   2   20.73    1.79
   4  -8  -2   19.70    2.57
   5  -8   2    2.00    1.85
  -5  -8  -2    3.03    1.21
  -5   8   2   -4.94    3.64
   5   8  -2    7.45    2.92
   5  -8  -2    1.06    1.73
  -5   8  -2    9.71    3.92
  -5  -8   2    5.18    1.24
   6   8  -2   -2.01    2.98
  -6  -8  -2    1.69    1.35
   6  -8   2    0.06    1.88
  -6   8  -2    2.49    4.55
   6  -8  -2   -1.02    2.03
  -6  -8   2    0.99    1.28
   0   9  -2   -2.56    3.00
   0  -9  -2    0.82    1.19
   1   9  -2    3.82    3.02
   1  -9   2    3.42    1.48
  -1   9  -2   -2.18    3.10
   1  -9  -2    3.41    1.41
   2  -9   2    3.63    1.71
  -2  -9  -2    0.51    1.08
   2   9  -2   -0.07    2.95
  -2   9  -2   -0.57    3.42
  -2  -9   2   -0.64    1.00
   2  -9  -2    2.01    1.44
   3   9  -2    1.50    3.05
  -3  -9  -2   -0.70    0.93
   3  -9   2   -0.17    1.58
  -3  -9   2    0.15    1.02
  -3   9  -2    0.02    3.89
   3  -9  -2   -0.05    1.43
  -4  -9  -2    1.16    1.17
   4  -9   2    0.41    1.82
   4   9  -2   -3.18    3.12
   4  -9  -2    2.27    1.81
  -4   9  -2    5.63    4.20
  -4  -9   2    3.02    1.18
  -5  -9  -2    5.40    1.48
   5  -9   2    7.50    2.20
   5   9  -2    4.62    3.50
   5  -9  -2    6.24    2.12
  -5   9  -2    0.02    4.47
  -5  -9   2    4.57    1.42
   0  10  -2    1.34    3.75
   1  10  -2    0.56    3.51
   1 -10   2    1.21    1.52
  -1  10  -2    1.45    3.99
  -1 -10   2    2.42    1.24
   1 -10  -2   -0.61    1.59
   2  10  -2    2.61    4.28
   2 -10   2    2.45    1.87
  -2 -10  -2   -0.10    1.15
   2 -10  -2    1.35    1.75
  -2 -10   2    2.62    1.49
  -2  10  -2   -1.79    4.23
   0   0  -3   -0.51    0.52
  -1   0   3   22.53    0.87
   1   0   3   20.55    0.95
  -1   0  -3   22.32    1.00
   1   0  -3   21.30    1.21
  -1   0   3   20.17    1.24
   1   0  -3   21.76    0.85
   2   0   3    3.48    0.56
   2   0  -3    3.43    0.69
  -2   0  -3    4.00    0.42
   2   0   3    4.06    0.39
  -2   0   3    3.91    0.51
   2   0  -3    4.36    0.54
  -2   0   3    4.71    0.82
  -2   0  -3    3.01    0.61
  -3   0  -3   32.47    1.34
  -3   0  -3   33.45    1.84
   3   0  -3   31.15    1.72
  -3   0   3   33.61    1.42
   3   0   3   31.36    1.61
  -4   0   3    1.41    0.58
   4   0   3    0.81    0.81
   4   0  -3    0.65    0.83
  -4   0  -3    1.47    0.55
   5   0   3   -0.51    0.92
  -5   0  -3    0.26    0.59
  -5   0   3   -0.22    0.57
   5   0  -3   -0.14    0.98
   6   0  -3   43.84    2.61
  -6   0   3   42.22    2.11
  -6   0  -3   41.19    2.03
   6   0   3   41.99    2.67
  -7   0  -3   13.39    1.34
  -7   0   3    7.10    1.61
   7   0  -3   11.52    1.69
   7   0   3   11.27    1.75
  -8   0   3    0.80    1.23
  -8   0  -3    0.25    1.16
   8   0   3    0.51    1.75
   8   0  -3    2.31    1.72
   9   0   3   19.53    3.25
  -9   0   3   12.79    1.90
   9   0  -3   17.78    2.70
  -9   0  -3   15.17    1.98
  10   0  -3    8.83    2.56
 -10   0   3    6.16    1.77
 -10   0  -3    6.75    1.79
  10   0   3    7.20    3.41
   0  -1   3   52.31    2.34
   0   1  -3   54.03    1.98
   0  -1   3   52.99    1.76
   0   1  -3   52.93    2.30
   0  -1   3   54.54    1.96
   1  -1   3  172.02    5.67
   1   1  -3  172.64    5.47
  -1  -1  -3  172.41    5.40
  -1  -1  -3  182.85    5.49
   1   1  -3  166.25    5.82
  -1  -1   3  169.53    5.47
   1  -1  -3  169.84    5.56
  -1  -1   3  165.17    5.84
   1  -1  -3  169.86    5.49
  -1   1  -3  168.37    5.68
  -2   1   3   76.80    2.69
   2   1  -3   77.31    2.65
  -2  -1  -3   77.93    2.77
   2  -1   3   76.69    2.87
   2   1  -3   72.77    3.00
  -2   1   3   75.76    2.87
  -2  -1  -3   75.22    2.55
   2  -1   3   74.11    2.58
   2  -1  -3   74.46    2.81
   2  -1  -3   77.35    2.69
   2   1   3   75.67    2.54
   2   1   3   82.82    2.77
  -2  -1   3   79.49    2.66
  -2   1  -3   78.36    2.92
  -2  -1   3   69.44    3.06
   3  -1   3    9.56    0.86
  -3  -1  -3   11.16    0.73
   3  -1   3    9.57    1.11
  -3  -1  -3   12.56    1.25
   3   1  -3    9.44    1.19
  -3   1   3   10.44    0.85
   3  -1  -3   10.23    1.16
   3   1   3   10.47    1.01
   3   1   3    9.50    0.71
  -3  -1   3   10.41    0.78
  -3   1  -3    9.43    0.75
  -3   1  -3   10.23    1.45
  -4  -1  -3   23.05    1.95
   4  -1   3   23.03    1.61
  -4  -1  -3   23.64    1.18
  -4   1   3   23.66    1.34
   4   1  -3   21.59    1.65
   4  -1  -3   20.65    1.63
  -4   1  -3   21.98    1.21
   4   1   3   22.71    1.55
  -4  -1   3   22.41    1.25
  -5  -1  -3   34.31    1.57
  -5   1   3   30.08    1.69
   5  -1   3   29.25    2.08
   5   1  -3   30.46    2.22
  -5   1  -3   30.39    1.61
   5  -1  -3   29.44    2.04
  -5  -1   3   33.33    1.66
   5   1   3   34.58    2.08
  -6   1   3    7.81    1.10
   6   1  -3    6.96    1.45
  -6  -1  -3    8.27    1.05
   6  -1   3    6.60    1.40
   6  -1  -3    4.86    1.23
  -6   1  -3    9.28    1.18
  -6  -1   3    8.02    1.10
   6   1   3    6.25    1.43
   7  -1   3   21.24    2.44
  -7  -1  -3   19.07    1.56
   7   1  -3   18.08    2.23
   7  -1  -3   21.35    2.83
   7   1   3   18.06    2.15
  -7   1  -3   21.26    1.64
   8   1  -3   17.74    2.47
  -8   1   3   19.68    2.01
  -8  -1  -3   21.00    1.86
   8  -1   3   18.30    2.40
   8   1   3   16.26    2.34
  -8   1  -3   19.81    1.95
  -8  -1   3   18.61    1.94
   8  -1  -3   16.79    2.48
   9  -1   3   12.89    2.71
  -9   1   3   11.70    1.87
   9   1  -3   12.27    2.69
  -9  -1  -3   10.32    1.69
  -9   1  -3    8.27    1.63
   9   1   3   13.11    2.61
  -9  -1   3    8.87    1.68
   9  -1  -3   10.96    2.31
 -10  -1  -3    8.26    1.83
 -10   1   3    6.33    1.98
  10   1  -3    7.11    2.87
  10  -1   3    3.79    2.91
  10  -1  -3    5.80    2.53
  10   1   3    9.13    3.54
 -10   1  -3    6.09    1.87
 -10  -1   3    4.52    1.69
   0   2  -3   18.84    1.09
   0   2  -3   19.23    1.49
   0  -2   3   21.02    1.85
   0  -2   3   18.86    1.05
   1   2  -3   39.74    1.64
   1  -2   3   38.82    1.69
   1   2  -3   37.41    1.95
  -1  -2   3   34.51    2.17
  -1   2  -3   37.09    2.17
  -1   2  -3   38.40    1.75
  -1  -2   3   37.54    1.42
  -2  -2  -3    2.24    0.35
  -2   2   3    0.78    0.70
  -2  -2  -3    1.80    0.57
   2  -2   3    1.53    0.60
   2   2  -3    2.96    0.59
   2   2  -3    3.55    0.87
  -2  -2   3    1.18    0.36
   2  -2  -3    0.71    0.54
   3   2  -3   23.64    1.74
  -3  -2  -3   25.31    1.15
  -3  -2  -3   23.43    1.58
   3  -2   3   23.37    1.61
   3   2   3   24.88    1.37
  -3  -2   3   25.08    1.22
   3  -2  -3   23.60    1.47
   4   2  -3   39.93    2.27
  -4  -2  -3   42.34    2.43
  -4  -2  -3   40.94    1.75
   4  -2   3   40.05    2.21
   4   2   3   38.96    2.03
   4  -2  -3   38.63    2.12
  -4  -2   3   40.24    1.81
   5  -2   3   37.28    2.35
   5   2  -3   34.77    2.45
  -5  -2  -3   40.78    1.83
  -5   2   3   37.57    1.98
  -5  -2   3   37.78    1.87
   5   2   3   41.59    2.30
   5  -2  -3   37.18    2.29
  -6   2   3   11.02    1.31
   6  -2   3   12.76    1.83
  -6  -2  -3   11.97    1.17
   6   2  -3   12.25    1.73
  -6  -2   3   10.62    1.18
   6   2   3   13.24    1.72
   6  -2  -3   12.81    1.75
   7   2  -3   56.57    3.33
   7  -2   3   54.52    3.32
  -7  -2  -3   52.39    2.52
  -7   2   3   50.92    2.82
   7   2   3   57.61    3.41
  -7  -2   3   55.13    2.76
   7  -2  -3   50.47    3.35
   8   2  -3    5.86    2.15
  -8   2   3    7.06    1.55
   8  -2   3    8.98    2.28
  -8  -2  -3    9.28    1.41
   8   2   3    9.05    2.19
  -8  -2   3    8.95    1.51
   8  -2  -3    8.22    1.90
   9  -2   3    2.50    2.23
  -9  -2  -3   -1.49    1.39
   9   2  -3    1.65    2.51
  -9   2   3    0.90    1.23
   9   2   3    2.43    2.46
  -9  -2   3    0.55    1.34
   9  -2  -3    3.38    2.11
 -10  -2  -3    1.83    1.68
 -10  -2   3    2.59    1.84
   0   3  -3   12.02    1.55
   0  -3   3   12.90    1.01
   1  -3   3   30.59    1.58
   1   3  -3   28.09    1.94
  -1   3  -3   31.97    2.14
  -1  -3   3   29.12    1.26
  -2   3   3   16.10    1.27
  -2  -3  -3   19.17    1.25
  -2  -3  -3   19.43    0.94
   2  -3   3   18.11    1.35
   2   3  -3   19.76    1.61
  -2  -3   3   18.05    0.96
   2  -3  -3   18.69    1.19
  -2   3  -3   18.73    2.06
   3  -3   3  129.20    4.87
  -3  -3  -3  130.10    4.43
   3   3  -3  125.24    4.95
  -3  -3  -3  130.24    4.70
  -3  -3   3  133.03    4.51
   3  -3  -3  127.97    4.66
  -4  -3  -3   10.79    1.78
   4   3  -3   10.02    1.44
  -4  -3  -3   13.79    1.00
   4   3   3   14.25    1.50
   4  -3  -3    9.83    1.36
  -4  -3   3   11.95    1.01
   5  -3   3   40.51    2.48
  -5  -3  -3   36.79    1.86
   5   3  -3   40.28    2.61
  -5  -3   3   38.03    1.95
   5  -3  -3   40.48    2.37
   5   3   3   39.97    2.38
  -6  -3  -3   44.60    2.23
   6  -3   3   48.90    2.98
   6   3  -3   42.93    3.04
  -6  -3   3   47.38    2.29
   6   3   3   42.65    2.84
   6  -3  -3   47.88    2.74
  -7  -3  -3   17.30    1.58
   7  -3   3   14.26    3.47
   7   3  -3   18.08    2.37
  -7  -3   3   16.44    1.66
   7  -3  -3   18.24    2.31
   7   3   3   19.42    2.52
   8   3  -3    0.99    2.08
  -8  -3  -3    2.48    1.38
   8  -3   3    2.22    2.00
  -8  -3   3   -0.35    1.15
   8   3   3   -1.42    2.12
   8  -3  -3    0.77    1.56
  -9  -3  -3   13.29    2.15
   9   3  -3   10.30    2.99
   9  -3   3   16.22    2.86
   9   3   3   12.18    3.01
   9  -3  -3   17.76    2.77
  -9  -3   3   12.70    2.00
   0  -4   3    0.48    0.57
   0   4  -3    1.12    1.18
   1  -4   3   36.87    1.86
   1   4  -3   36.40    2.34
  -1   4  -3   32.34    2.47
   1  -4  -3   34.67    1.58
   2   4  -3   14.91    1.71
   2  -4   3   16.37    1.42
  -2  -4  -3   16.72    1.41
  -2  -4  -3   14.60    0.95
   2  -4  -3   14.92    1.26
  -2  -4   3   18.35    1.01
  -2   4  -3   15.59    2.02
  -3  -4  -3   79.59    3.35
   3  -4   3   78.21    3.45
   3   4  -3   73.12    3.51
  -3  -4  -3   78.10    2.91
  -3   4  -3   75.10    3.98
  -3  -4   3   74.68    2.94
   3  -4  -3   81.74    3.20
  -4  -4  -3   70.42    2.74
   4   4  -3   67.19    3.41
   4  -4   3   66.63    3.28
  -4  -4  -3   71.48    3.73
   4   4   3   66.83    2.87
   4  -4  -3   66.50    3.07
  -4  -4   3   69.99    2.80
  -5  -4  -3   16.79    1.26
   5   4  -3   16.20    2.13
   5  -4   3   15.75    2.00
   5   4   3   14.98    1.94
   5  -4  -3   13.64    1.76
  -5  -4   3   16.58    1.27
   6  -4   3    7.76    1.72
   6   4  -3    5.62    1.81
  -6  -4  -3    7.92    1.09
   6   4   3    8.94    1.81
   6  -4  -3    5.68    2.20
  -7  -4  -3    3.94    1.11
   7  -4   3    3.27    1.82
   7   4  -3    0.56    1.88
   7  -4  -3    2.29    1.56
  -7  -4   3    2.52    1.12
   7   4   3    5.99    1.93
  -8  -4  -3   14.88    1.94
   8   4  -3   11.55    2.92
   8  -4   3   15.70    2.72
  -8  -4   3   14.31    1.90
   8   4   3   19.00    2.90
   8  -4  -3   15.94    2.47
  -9  -4  -3    1.53    1.52
   9   4  -3   -0.39    3.00
   9  -4   3    2.12    2.28
  -9  -4   3    3.61    1.55
   9   4   3   -2.91    2.95
   9  -4  -3    4.04    2.19
   0  -5   3    1.10    0.67
   0  -5  -3    0.24    0.50
   0  -5  -3    0.85    1.35
   0   5  -3   -1.60    1.33
   1  -5   3   72.29    3.09
  -1  -5  -3   66.07    3.18
   1   5  -3   73.38    3.53
  -1   5  -3   67.82    3.65
   1  -5  -3   72.33    2.80
  -2  -5  -3   49.86    2.72
   2   5  -3   54.21    2.99
   2  -5   3   51.02    2.61
   2  -5  -3   53.63    2.45
  -2  -5   3   56.69    2.26
  -2   5  -3   52.89    3.41
   3  -5   3    5.73    1.19
  -3  -5  -3    6.39    1.65
  -3  -5  -3    9.30    0.90
   3   5  -3    7.81    1.64
  -3  -5   3    9.27    0.89
   3  -5  -3    6.03    1.13
  -3   5  -3    4.13    2.08
   4   5  -3   21.06    2.48
   4  -5   3   27.07    2.25
  -4  -5  -3   26.09    1.46
  -4  -5  -3   26.71    3.14
  -4  -5   3   23.51    1.51
   4  -5  -3   22.41    1.94
  -4   5  -3   26.49    3.38
   5   5  -3    3.81    1.74
   5  -5   3    4.70    1.30
  -5  -5  -3    2.72    0.78
  -5  -5   3    5.21    1.28
   5  -5  -3    4.92    1.27
   5   5   3    4.56    1.52
   6   5  -3    0.80    1.84
  -6  -5  -3    2.07    1.48
   6  -5   3    0.78    1.69
   6   5   3    3.26    1.88
   6  -5  -3    0.70    1.33
  -6  -5   3    0.91    0.93
  -7  -5  -3    3.23    1.19
   7   5  -3    7.25    2.23
   7  -5   3    3.78    2.16
   7   5   3    6.86    2.34
   7  -5  -3    3.92    1.74
  -7  -5   3    4.06    1.36
   8  -5   3    3.20    2.27
  -8  -5  -3    1.78    1.40
   8   5  -3    2.40    2.87
  -8  -5   3    1.69    1.30
   8   5   3   -1.35    2.74
   8  -5  -3    3.08    1.99
   0   6  -3   50.41    3.20
   0  -6   3   54.93    2.60
   0  -6  -3   49.56    2.16
   0  -6  -3   42.67    3.37
  -1  -6  -3   19.91    2.68
   1  -6   3   22.81    1.79
   1   6  -3   21.79    2.45
  -1   6  -3   22.14    2.76
   1  -6  -3   22.35    1.49
   2  -6   3   23.40    1.92
   2   6  -3   23.69    2.49
  -2  -6  -3   23.91    2.90
  -2   6  -3   22.85    2.71
  -2  -6   3   23.18    1.43
  -3  -6  -3   31.62    1.65
  -3  -6  -3   23.75    3.26
   3  -6   3   28.17    2.14
   3   6  -3   28.04    2.77
  -3  -6   3   31.74    1.69
   3  -6  -3   26.87    2.04
  -3   6  -3   24.62    3.38
  -4   6   3   11.68    2.36
   4   6  -3    5.33    1.90
  -4  -6  -3    6.11    0.88
  -4  -6  -3    3.17    3.23
   4  -6  -3    6.59    1.45
  -4   6  -3   10.83    2.74
  -5   6   3    0.71    2.71
   5  -6   3    3.21    1.73
   5   6  -3    2.37    1.89
  -5  -6  -3    2.74    0.96
  -5  -6   3    2.73    0.97
   5  -6  -3    0.56    1.40
  -5   6  -3    4.68    2.78
  -6  -6  -3    4.60    1.21
   6   6  -3    3.51    2.17
   6  -6   3    2.51    1.83
  -6  -6   3    2.42    0.99
   6   6   3    5.34    2.15
   6  -6  -3    2.49    1.70
  -6   6  -3    4.40    3.19
   7   6  -3   10.41    2.69
   7  -6   3    7.66    2.22
  -7  -6  -3    5.14    1.44
  -7  -6   3    4.34    1.26
   7   6   3    0.59    2.48
   7  -6  -3    6.58    2.16
   8   6  -3    4.56    3.70
  -8  -6  -3    2.37    1.49
   8  -6   3    1.96    2.19
   8  -6  -3    2.67    2.09
  -8  -6   3    1.95    1.41
   0  -7  -3   39.10    4.32
   0   7  -3   51.17    3.65
   0  -7  -3   54.19    2.39
   0  -7   3   52.46    2.75
  -1  -7  -3   15.32    3.15
   1   7  -3   16.97    2.37
   1  -7   3   19.14    2.69
  -1   7  -3   16.08    2.67
   1  -7  -3   13.24    1.47
  -2  -7  -3    5.14    2.98
   2  -7   3    8.38    2.47
   2   7  -3   10.61    2.27
   2  -7  -3    5.83    1.21
  -2   7  -3   10.90    2.52
   3  -7   3   11.73    2.00
   3   7  -3    9.71    2.28
  -3  -7  -3   11.15    3.75
  -3   7  -3   10.29    2.81
   3  -7  -3   15.26    2.21
  -3  -7   3   13.26    1.35
  -4  -7  -3    0.42    0.75
   4   7  -3    1.66    1.99
   4  -7   3    1.71    1.50
  -4  -7   3   -0.52    0.73
  -4   7  -3   -0.73    2.81
   4  -7  -3    1.24    1.43
  -5  -7  -3    4.85    1.13
   5   7  -3    3.87    2.55
  -5   7   3    8.25    3.29
   5  -7   3    3.29    1.77
  -5  -7   3    6.07    1.30
  -5   7  -3    0.52    3.05
   5  -7  -3    5.26    1.74
   6   7  -3    3.96    2.56
  -6   7   3    3.25    3.94
   6  -7   3    0.53    1.63
  -6  -7  -3    2.06    1.23
   6  -7  -3   -2.38    1.81
  -6   7  -3    4.58    3.86
  -6  -7   3    0.66    1.08
   7   7  -3    3.26    3.03
  -7   7   3    0.74    4.71
   7  -7   3    0.91    2.22
  -7  -7  -3    0.95    1.21
  -7   7  -3   -0.33    5.18
   7  -7  -3    1.36    2.04
  -7  -7   3   -0.28    1.14
   0   8  -3    4.16    2.79
   0  -8  -3    1.42    1.02
   0  -8   3    2.87    1.26
   1   8  -3   14.01    4.20
   1  -8   3   17.58    2.20
  -1  -8  -3   13.30    4.38
  -1   8  -3   16.61    3.19
   2  -8   3   23.92    2.59
  -2  -8  -3   23.59    1.84
   2   8  -3   20.01    3.17
   2  -8  -3   25.85    2.08
  -2   8  -3   30.35    4.53
  -2  -8   3   24.28    1.88
  -3  -8  -3    2.52    1.08
   3   8  -3   -0.90    2.43
   3  -8   3    2.81    1.58
  -3  -8   3    2.82    1.10
   3  -8  -3    2.94    1.46
   4  -8   3    3.99    1.94
  -4  -8  -3    3.64    1.20
   4   8  -3    8.68    2.75
  -4  -8   3    3.13    1.16
  -4   8  -3   -0.40    3.26
   4  -8  -3    7.34    1.90
  -5  -8  -3   10.32    1.53
   5   8  -3   12.49    3.17
   5  -8   3    7.70    2.06
  -5  -8   3    9.18    1.58
   5  -8  -3   12.31    2.43
  -5   8  -3    7.62    3.92
   6  -8   3    0.61    2.08
   6   8  -3    3.16    3.28
  -6  -8  -3    2.60    1.31
  -6   8  -3    2.69    5.88
  -6  -8   3    1.70    1.39
   6  -8  -3    2.42    1.94
   0  -9  -3   11.77    1.65
   0   9  -3   15.12    3.43
   1   9  -3   21.08    3.62
   1  -9   3   18.01    2.43
  -1   9  -3   23.53    3.79
  -1  -9   3   18.73    1.86
   1  -9  -3   18.98    2.21
   2   9  -3   -0.82    2.94
  -2  -9  -3   -0.21    1.07
   2  -9   3   -1.61    1.56
   2  -9  -3    0.48    1.45
  -2   9  -3   -0.12    3.37
  -2  -9   3    1.09    0.98
  -3  -9  -3    0.85    1.02
   3   9  -3    5.71    3.25
   3  -9   3    0.10    1.78
   3  -9  -3    1.67    1.42
  -3  -9   3    0.72    1.12
  -3   9  -3    0.90    3.87
  -4  -9  -3    9.79    1.75
   4  -9   3    6.56    2.17
   4   9  -3    2.42    3.40
  -4   9  -3   19.57    4.50
  -4  -9   3    5.86    1.31
   4  -9  -3   10.74    2.12
   0  10  -3    6.81    4.13
   1  10  -3    0.68    3.92
   1 -10   3    3.31    1.74
   1 -10  -3    0.39    1.59
  -1  10  -3    6.58    4.23
  -1 -10   3    1.20    1.25
   2 -10   3    3.41    2.02
  -2 -10  -3    2.18    1.43
   2  10  -3   10.81    3.95
  -2  10  -3    1.77    4.40
  -2 -10   3    3.83    1.39
   2 -10  -3    3.48    1.94
   0   0  -4  993.43   31.11
   0   0  -4 1000.00   31.32
  -1   0   4   40.73    1.43
  -1   0  -4   40.95    1.62
   1   0  -4   39.35    1.41
   1   0  -4   37.45    1.84
  -1   0   4   38.19    1.89
   1   0   4   39.09    1.52
  -2   0   4   24.25    1.10
   2   0  -4   24.96    1.53
   2   0  -4   25.99    1.12
  -2   0  -4   22.95    1.37
   2   0   4   25.52    1.27
  -3   0   4    1.65    0.51
   3   0   4    1.43    0.43
  -3   0  -4    1.06    0.42
  -3   0  -4   -0.59    0.93
   3   0  -4    0.67    0.71
   3   0   4    1.66    0.71
  -4   0  -4  172.57    5.55
   4   0  -4  162.62    6.02
  -4   0   4  166.48    5.67
   4   0   4  162.79    5.86
   5   0   4   23.63    1.86
  -5   0  -4   22.86    1.34
   5   0  -4   26.90    2.01
  -5   0   4   23.68    1.43
  -6   0   4    0.51    0.85
   6   0  -4    1.06    1.19
   6   0   4   -1.13    1.17
  -6   0  -4    0.19    0.71
   7   0   4    7.97    1.76
  -7   0  -4    8.82    1.20
   8   0  -4    0.63    1.74
  -8   0   4   -0.36    1.13
   8   0   4    1.68    1.95
  -9   0   4    1.26    1.43
   9   0  -4    0.28    2.10
  -9   0  -4    1.90    1.57
 -10   0  -4    2.18    1.74
 -10   0   4    1.40    1.62
   0   1  -4   25.31    1.70
   0  -1   4   23.76    1.80
   0   1  -4   26.81    1.22
   1   1  -4   22.42    1.55
   1   1  -4   23.23    0.95
  -1  -1  -4   24.53    1.02
   1  -1   4   23.46    1.21
   1  -1  -4   25.00    1.26
  -1  -1   4   25.15    0.98
   1  -1  -4   24.51    1.00
  -1   1  -4   24.02    1.30
  -1  -1   4   23.05    1.79
  -2   1   4    1.55    0.88
  -2   1   4    1.73    0.48
  -2  -1  -4    1.52    0.30
   2  -1   4    1.96    0.39
   2  -1   4    1.26    0.57
   2   1  -4    2.10    0.43
   2   1  -4    1.15    0.79
  -2  -1  -4    2.70    0.59
   2  -1  -4    0.97    0.50
  -2  -1   4    2.33    0.45
  -2   1  -4    2.30    0.78
   2  -1  -4    2.33    0.69
  -3  -1  -4   60.65    2.64
  -3   1   4   64.17    2.43
  -3  -1  -4   61.99    2.25
   3  -1   4   64.04    2.68
   3  -1   4   59.70    2.28
   3   1  -4   64.00    2.85
   3  -1  -4   64.40    2.69
   3   1   4   65.64    2.52
   3   1   4   64.42    2.24
  -3  -1   4   63.24    2.38
   4   1  -4    8.76    1.28
  -4  -1  -4    9.21    0.79
  -4   1   4   10.49    1.00
   4  -1   4    7.07    1.05
  -4  -1  -4    7.97    1.44
  -4   1  -4    8.66    0.84
   4  -1  -4   11.00    1.37
   4   1   4    7.65    1.04
  -4  -1   4    6.37    0.84
  -5   1   4   56.15    2.40
   5  -1   4   54.95    2.81
  -5  -1  -4   51.71    2.22
   5   1  -4   56.13    2.92
   5  -1  -4   52.36    2.80
  -5   1  -4   55.41    2.29
   5   1   4   55.13    2.69
  -5  -1   4   53.41    2.36
  -6   1   4    3.17    0.91
   6  -1   4    5.53    1.44
  -6  -1  -4    3.28    0.87
   6   1  -4    2.57    1.24
   6  -1  -4    2.28    1.26
   6   1   4    2.83    1.33
  -6  -1   4    3.55    0.96
  -6   1  -4    5.22    0.99
   7  -1   4   17.39    2.32
  -7   1   4   16.70    1.79
  -7  -1  -4   14.88    1.42
   7   1  -4   16.32    2.57
   7   1   4   16.80    2.16
  -7   1  -4   13.76    1.55
   7  -1  -4   14.22    2.13
  -7  -1   4   19.27    1.99
  -8  -1  -4   -0.65    1.23
   8  -1   4   -0.91    1.58
   8   1  -4    1.12    1.84
  -8   1   4   -0.02    1.33
  -8  -1   4    0.95    1.17
   8  -1  -4    0.53    1.90
   8   1   4   -0.17    1.95
  -8   1  -4    1.49    1.76
  -9  -1  -4   -0.49    1.37
   9  -1   4    0.98    2.48
  -9   1   4   -0.88    1.32
   9   1  -4   -0.84    2.09
   9   1   4    0.90    4.26
  -9  -1   4   -0.71    1.25
   9  -1  -4   -3.28    1.79
  -9   1  -4    0.15    1.57
   0   2  -4    5.56    0.75
   0  -2   4    6.31    0.75
   0   2  -4    7.38    1.22
   1   2  -4    3.86    0.67
   1  -2   4    5.36    0.74
   1   2  -4    5.44    1.16
  -1   2  -4    4.06    0.78
  -1   2  -4    3.19    1.16
  -1  -2   4    3.41    0.41
  -2  -2  -4  228.81    7.23
  -2  -2  -4  237.20    7.35
   2  -2   4  226.16    7.63
   2   2  -4  222.09    7.82
  -2   2   4  209.28    7.32
   2  -2  -4  230.20    7.44
  -2  -2   4  224.13    7.31
   3  -2   4    8.47    0.99
  -3  -2  -4    9.69    1.28
   3  -2   4   10.25    1.24
   3   2  -4    9.94    1.36
  -3  -2  -4    8.00    0.69
   3  -2  -4    8.68    1.16
  -3  -2   4    8.82    0.80
  -4  -2  -4   18.91    1.11
  -4  -2  -4   18.54    2.03
   4   2  -4   18.62    1.78
   4  -2   4   18.57    1.66
  -4  -2   4   20.01    1.20
   4   2   4   15.93    1.43
   4  -2  -4   15.92    1.56
   5   2  -4   30.57    2.34
   5  -2   4   32.87    2.25
  -5   2   4   31.88    1.82
  -5  -2  -4   32.95    1.63
  -5  -2   4   32.78    1.72
   5   2   4   31.41    2.14
   5  -2  -4   30.59    2.14
   6   2  -4   23.49    2.33
   6  -2   4   25.88    2.25
  -6   2   4   24.41    1.77
  -6  -2  -4   26.67    1.59
  -6  -2   4   26.39    1.66
   6   2   4   25.16    2.40
   6  -2  -4   23.98    2.16
  -7  -2  -4   12.67    1.56
   7  -2   4   17.63    2.43
   7   2  -4   19.99    2.64
  -7   2   4   14.66    1.69
   7   2   4   16.52    2.11
   7  -2  -4   18.15    2.35
  -7  -2   4   18.62    1.80
  -8   2   4    2.38    1.51
   8   2  -4    1.36    2.10
  -8  -2  -4    1.20    1.25
   8  -2   4    1.84    2.30
   8   2   4    2.48    2.18
   8  -2  -4    0.33    1.88
  -8  -2   4    1.13    1.36
   9  -2   4    4.72    2.60
  -9  -2  -4    1.67    1.51
   9   2  -4    1.12    2.21
   9   2   4    5.42    2.75
   9  -2  -4    3.18    2.07
  -9  -2   4   -0.35    1.41
   0   3  -4   14.46    1.76
   0  -3   4    8.35    0.92
   1   3  -4   77.64    3.45
   1  -3   4   76.86    3.06
  -1  -3   4   75.23    2.71
  -1   3  -4   76.92    3.61
   2  -3   4   10.99    1.19
  -2  -3  -4   10.82    0.72
   2   3  -4   15.81    1.70
   2  -3  -4   12.54    1.03
  -2   3  -4   14.99    1.93
  -2  -3   4   11.07    0.78
   3   3  -4   93.89    3.89
   3  -3   4   88.64    3.68
  -3  -3  -4   81.94    3.42
  -3  -3  -4   83.84    3.11
   3  -3  -4   89.09    3.43
  -3  -3   4   89.79    3.24
   4  -3   4   11.40    1.43
   4   3  -4   12.18    1.68
  -4  -3  -4   12.74    0.99
  -4  -3  -4   15.81    1.83
   4  -3  -4   11.50    1.47
  -4  -3   4   13.23    1.04
   4   3   4   13.61    1.36
   5   3  -4   20.79    2.15
  -5  -3  -4   18.42    1.31
   5  -3   4   22.63    2.04
  -5  -3   4   15.93    1.30
   5  -3  -4   20.30    1.88
   5   3   4   17.36    1.87
  -6  -3  -4   49.14    2.33
   6   3  -4   48.77    3.18
   6  -3   4   47.12    3.03
   6   3   4   53.84    4.17
  -6  -3   4   47.94    2.38
   6  -3  -4   49.82    2.97
   7  -3   4   18.72    3.16
  -7  -3  -4   22.69    1.72
   7   3  -4   23.68    3.19
   7  -3  -4   21.11    2.56
   7   3   4   21.32    2.32
  -7  -3   4   21.95    1.82
  -8  -3  -4    6.34    1.40
   8   3  -4    4.47    2.37
   8  -3   4    6.25    2.22
   8  -3  -4    5.26    2.10
  -8  -3   4    2.62    1.26
   8   3   4    7.47    2.45
  -9  -3  -4    4.45    1.70
   9   3  -4    5.11    2.71
   9  -3   4    1.36    2.37
   9   3   4    4.87    2.94
   9  -3  -4    2.28    2.07
  -9  -3   4    4.69    1.87
   0   4  -4  163.08    6.19
   0  -4   4  155.38    5.65
   1  -4   4   16.34    1.40
   1   4  -4   21.28    2.05
  -1  -4   4   18.56    1.03
  -1   4  -4   18.77    2.27
  -2  -4  -4   46.04    2.15
   2  -4   4   47.94    2.42
   2   4  -4   47.07    2.77
  -2  -4  -4   48.22    1.93
   2  -4  -4   47.95    2.08
  -2  -4   4   48.84    1.99
  -2   4  -4   49.97    3.19
  -3  -4  -4   25.46    1.27
   3   4  -4   22.89    2.23
   3  -4   4   25.50    1.86
  -3  -4  -4   23.92    1.99
  -3  -4   4   26.20    1.37
   3  -4  -4   23.47    1.59
  -3   4  -4   24.81    2.86
   4  -4   4   19.06    2.01
  -4  -4  -4   21.31    2.61
   4   4  -4   19.45    2.26
  -4  -4  -4   21.27    1.29
   4  -4  -4   21.76    1.71
  -4  -4   4   21.89    1.35
   5  -4   4   10.06    1.62
  -5  -4  -4   16.78    1.28
   5  -4  -4   13.07    1.71
   5   4   4   15.29    1.58
  -5  -4   4   13.66    1.20
   6  -4   4    5.73    1.82
   6   4  -4   13.19    2.12
  -6  -4  -4   11.56    1.34
   6  -4  -4    6.75    1.52
   6   4   4    8.37    1.80
  -6  -4   4   11.42    1.36
   7  -4   4   -0.80    1.80
  -7  -4  -4    0.65    1.04
  -7  -4   4    1.52    1.18
   7   4   4    2.81    2.05
   7  -4  -4    0.55    1.59
   8  -4   4    6.52    2.50
  -8  -4  -4    4.45    1.50
   8   4  -4    7.61    2.78
   8   4   4    5.74    2.70
   8  -4  -4    6.72    2.05
  -8  -4   4    9.06    1.67
   9  -4   4   13.36    3.14
  -9  -4  -4    6.79    1.78
   9   4  -4   12.87    3.28
  -9  -4   4    9.34    1.87
   9  -4  -4   11.09    2.63
   0  -5   4    1.28    0.68
   0   5  -4   -0.63    1.39
   1   5  -4   36.69    2.77
   1  -5   4   36.06    2.10
  -1  -5   4   34.17    1.67
   1  -5  -4   35.58    1.74
  -1   5  -4   39.91    2.93
  -2  -5  -4   38.49    2.35
   2   5  -4   47.23    2.92
   2  -5   4   46.25    2.48
  -2   5  -4   48.20    3.43
   2  -5  -4   45.21    2.15
  -2  -5   4   43.65    1.97
   3  -5   4    4.70    1.14
  -3  -5  -4    7.20    0.82
  -3  -5  -4    5.61    1.62
   3   5  -4    7.10    1.69
  -3   5  -4    5.61    2.07
   3  -5  -4    5.82    1.02
  -3  -5   4    4.57    0.72
  -4  -5  -4   44.19    3.35
   4  -5   4   49.36    2.83
  -4  -5  -4   46.08    2.12
   4   5  -4   46.08    3.20
  -4   5  -4   46.00    3.83
  -4  -5   4   46.60    2.23
   4  -5  -4   51.71    2.63
  -5  -5  -4   14.79    1.32
   5   5  -4   17.65    2.40
   5  -5   4   19.52    2.91
   6  -5   4    4.61    1.72
   6   5  -4    0.62    1.87
  -6  -5   4    7.24    1.36
   6   5   4    6.25    1.94
   6  -5  -4    7.34    1.73
   7  -5   4    1.18    1.84
  -7  -5  -4    0.60    1.15
  -7  -5   4    2.19    1.14
   7   5   4    2.87    2.33
   7  -5  -4    1.51    1.78
  -8  -5  -4    9.37    1.78
   8   5  -4    9.90    3.33
   8  -5   4    5.74    2.42
   8  -5  -4    6.75    2.27
  -8  -5   4    6.44    1.66
   0  -6   4    4.00    0.98
   0  -6  -4    5.02    0.80
   0   6  -4    6.40    1.98
   1   6  -4   12.07    2.29
  -1  -6  -4   12.23    1.92
   1  -6   4   10.99    1.47
   1  -6  -4   11.50    1.32
  -1   6  -4   12.70    2.31
  -1  -6   4   10.08    1.06
   2  -6   4   12.83    1.64
  -2  -6  -4    8.41    1.94
   2   6  -4   13.46    2.12
  -2   6  -4   11.77    2.37
   2  -6  -4   10.28    1.44
  -2  -6   4   14.48    1.13
  -3  -6  -4   27.89    3.14
   3   6  -4   34.06    2.97
   3  -6   4   31.39    2.34
  -3  -6  -4   32.77    1.72
   3  -6  -4   32.70    2.13
  -3  -6   4   32.60    1.75
  -3   6  -4   26.73    3.67
   4   6  -4   53.97    3.59
  -4  -6  -4   44.45    4.21
   4  -6   4   47.43    3.30
  -4  -6  -4   51.31    2.35
  -4  -6   4   44.90    2.82
  -4   6  -4   58.80    4.55
   4  -6  -4   56.50    2.89
   5  -6   4    2.05    1.45
   5   6  -4    0.51    1.98
  -5   6   4    2.49    2.88
  -5  -6  -4    2.14    1.09
  -5   6  -4    2.15    2.80
  -5  -6   4    3.58    1.06
   5  -6  -4    1.19    1.49
   6   6  -4    6.00    2.35
  -6  -6  -4    4.95    1.20
   6  -6   4    7.93    2.24
  -6  -6   4    4.82    1.15
   6  -6  -4    7.57    2.06
   7   6  -4   10.37    3.43
   7  -6   4    8.18    2.51
  -7  -6  -4    6.20    1.51
  -7  -6   4    9.19    1.72
   7  -6  -4    5.53    2.16
   8  -6   4   13.17    2.97
  -8  -6  -4    7.37    1.91
   8   6  -4    9.49    3.90
   8  -6  -4    8.72    2.58
  -8  -6   4   11.40    1.83
   0   7  -4    2.88    2.17
   0  -7  -4    6.24    0.97
   1  -7   4    3.64    2.23
  -1  -7  -4    2.09    2.63
   1   7  -4    2.87    2.08
  -1  -7   4    4.21    0.91
  -1   7  -4    6.27    2.37
   1  -7  -4    5.26    0.98
   2  -7   4    6.96    1.53
  -2  -7  -4    6.98    2.74
   2   7  -4    5.92    2.25
   2  -7  -4   11.00    1.45
  -2   7  -4   10.13    2.72
   3   7  -4    5.76    2.12
   3  -7   4    5.85    1.55
  -3  -7  -4    7.21    1.82
  -3  -7  -4    0.48    3.22
  -3   7  -4    9.23    2.82
  -3  -7   4    8.46    1.16
   3  -7  -4    4.67    1.61
   4  -7   4    3.87    1.51
  -4  -7  -4    3.14    0.95
   4   7  -4    3.48    2.30
  -4   7  -4    1.64    2.94
  -4  -7   4    2.62    0.93
   4  -7  -4    3.53    1.45
  -5  -7  -4   11.80    1.54
   5  -7   4   12.12    2.19
  -5   7  -4   16.19    3.65
  -5  -7   4   13.55    1.70
   5  -7  -4   14.30    2.18
  -6  -7  -4   30.74    2.30
   6  -7   4   31.54    3.39
   6   7  -4   34.55    4.55
   6  -7  -4   31.40    3.18
  -6  -7   4   26.75    2.28
  -6   7  -4   33.68    5.30
  -7  -7  -4    8.74    1.63
   7   7  -4   16.35    4.11
   7  -7   4    6.64    2.54
  -7  -7   4    6.12    1.53
  -7   7  -4   10.11    5.65
   7  -7  -4    6.45    2.25
   0  -8  -4    2.77    0.98
   0   8  -4    4.68    2.61
   1   8  -4    7.83    2.49
  -1  -8  -4    1.49    3.70
   1  -8   4    5.46    1.63
   1  -8  -4    8.66    1.61
  -1   8  -4    2.93    2.74
  -1  -8   4    4.91    1.09
   2   8  -4    7.27    2.72
   2  -8   4    3.63    1.61
  -2  -8  -4    5.16    1.24
   2  -8  -4    5.52    1.32
  -2   8  -4    3.95    2.96
  -2  -8   4    4.61    1.21
   3  -8   4   -0.71    1.50
  -3  -8  -4    1.53    0.99
   3   8  -4   -1.49    3.88
  -3  -8   4    1.38    0.90
  -3   8  -4   -3.24    2.99
   3  -8  -4    0.84    1.54
  -4  -8  -4    5.08    1.16
   4  -8   4    8.38    2.06
   4   8  -4   10.13    2.88
  -4   8  -4    4.93    3.52
  -4  -8   4    4.75    1.15
   4  -8  -4    6.64    1.88
  -5  -8  -4   12.70    1.64
   5  -8   4   15.35    2.42
   5   8  -4   15.73    3.32
   5  -8  -4   10.75    2.24
  -5  -8   4   11.40    1.67
  -5   8  -4   11.06    7.21
  -6  -8  -4    2.71    1.41
   6   8  -4    4.72    4.76
   6  -8   4    2.22    1.89
   6  -8  -4    3.67    2.02
  -6   8  -4   13.67    5.76
  -6  -8   4    2.41    1.42
   0   9  -4    0.31    3.21
   1   9  -4   -0.30    3.09
   1  -9   4    0.33    1.30
  -1  -9   4   -0.05    1.07
  -1   9  -4   -0.63    3.39
   1  -9  -4    0.47    1.30
   2  -9   4   16.37    2.38
   2   9  -4    5.98    3.24
  -2  -9  -4   11.36    1.62
  -2   9  -4   12.64    3.78
  -2  -9   4   12.33    1.71
   2  -9  -4   12.25    1.96
   3   9  -4    7.44    3.36
  -3  -9  -4    1.13    1.01
   3  -9   4    1.86    2.07
   3  -9  -4    2.23    1.61
  -3   9  -4    1.76    3.94
  -3  -9   4    3.97    1.25
  -4  -9  -4    1.97    1.18
   4   9  -4    2.18    3.34
   4  -9   4    0.62    1.99
   4  -9  -4    1.19    1.77
  -4  -9   4    3.25    1.18
  -4   9  -4    4.66    4.23
   0  10  -4   -3.02    4.04
   1 -10   4    3.34    1.84
   1  10  -4   -1.29    4.08
  -1  10  -4   -2.09    4.04
  -1 -10   4    4.54    1.59
   1 -10  -4    1.92    1.60
   0   0  -5    0.57    0.38
   0   0  -5    1.31    0.84
  -1   0   5    6.16    0.52
   1   0  -5    6.90    0.50
   1   0  -5    7.99    1.11
  -1   0   5    7.05    1.26
   1   0   5    6.10    0.67
  -1   0  -5    6.61    0.82
  -2   0   5    5.25    0.64
   2   0   5    5.85    0.80
  -2   0  -5    4.16    0.83
   2   0  -5    5.09    0.95
   2   0  -5    6.60    0.70
  -3   0  -5   87.76    3.48
  -3   0  -5   89.12    2.93
   3   0  -5   88.30    3.54
   3   0   5   85.19    3.28
   3   0   5   78.46    2.89
  -3   0   5   88.81    3.11
  -4   0  -5   15.20    0.96
   4   0   5   12.06    1.53
   4   0   5   12.65    1.48
   4   0  -5   14.58    1.56
  -4   0   5   15.48    1.12
   5   0  -5   31.62    2.32
  -5   0   5   31.49    1.72
  -5   0  -5   31.04    1.56
   5   0   5   30.96    2.10
  -6   0   5   42.09    2.17
   6   0   5   44.67    2.75
   6   0  -5   41.82    2.82
  -6   0  -5   40.98    2.04
   7   0   5    2.10    1.60
  -7   0   5    1.64    0.93
   7   0  -5    1.05    1.38
  -8   0   5   19.64    2.12
   8   0   5   22.73    2.74
   8   0  -5   21.82    2.83
  -9   0  -5   25.44    2.44
   9   0  -5   25.57    3.41
   9   0   5   25.77    3.99
  -9   0   5   19.07    2.35
   0   1  -5    8.35    1.22
   0   1  -5    6.85    0.84
   1  -1   5   33.46    1.56
   1   1  -5   33.08    1.26
   1   1  -5   34.53    2.04
  -1  -1  -5   33.63    1.41
   1  -1  -5   32.95    1.32
  -1   1  -5   33.01    2.18
  -1  -1   5   35.09    1.30
  -1   1  -5   33.92    1.70
   1  -1  -5   34.25    1.75
   2   1  -5   57.38    2.09
  -2  -1  -5   58.10    2.27
   2  -1   5   55.95    2.37
  -2   1   5   59.69    2.18
   2   1  -5   56.09    2.69
   2  -1  -5   54.87    2.13
   2  -1  -5   56.42    2.43
  -2  -1   5   60.25    2.12
  -2   1  -5   53.99    2.54
  -3  -1  -5   21.24    1.64
   3  -1   5   19.96    1.11
   3   1  -5   19.81    1.72
  -3  -1  -5   21.94    1.02
   3  -1   5   22.69    1.45
  -3   1   5   21.05    1.22
   3  -1  -5   22.26    1.58
  -3  -1   5   21.76    1.16
   3   1   5   23.59    1.02
   3   1   5   21.99    1.32
  -4  -1  -5   53.81    2.11
  -4  -1  -5   57.14    2.93
  -4   1   5   55.53    2.34
   4   1  -5   53.07    2.80
   4  -1   5   56.43    2.63
   4  -1  -5   54.41    2.73
   4   1   5   54.72    2.49
  -4  -1   5   56.26    2.28
   5  -1   5   43.83    2.57
  -5  -1  -5   40.68    1.88
  -5   1   5   42.61    2.10
   5   1  -5   38.56    2.57
  -5   1  -5   45.05    1.97
   5   1   5   41.05    2.32
  -5  -1   5   44.30    2.08
   5  -1  -5   44.02    2.63
   6   1  -5    1.96    1.30
  -6   1   5    5.48    1.10
  -6  -1  -5    5.72    0.93
   6  -1   5    1.76    1.30
   6  -1  -5    4.22    1.40
  -6  -1   5    6.14    1.06
  -6   1  -5    5.52    1.00
   6   1   5    6.80    1.50
  -7  -1  -5   16.72    1.47
   7   1  -5   19.36    2.63
   7  -1   5   11.89    1.96
  -7   1   5   13.69    1.66
  -7  -1   5   16.43    1.62
   7   1   5   12.53    2.04
   7  -1  -5   14.58    2.09
  -7   1  -5   15.03    1.58
   8   1  -5   26.79    3.33
  -8   1   5   25.37    2.25
   8  -1   5   21.71    3.02
   8  -1  -5   21.36    2.81
  -8  -1   5   21.03    2.18
  -9  -1  -5    8.69    1.75
  -9   1   5    6.35    1.66
   9   1  -5    2.03    2.45
   9  -1   5    0.26    2.53
  -9  -1   5    5.67    1.53
   9   1   5    6.34    2.59
   9  -1  -5    8.78    2.34
   0  -2   5   26.20    1.03
   0   2  -5   24.11    1.98
   1   2  -5   78.48    3.65
   1  -2   5   86.89    3.28
  -1  -2   5   86.50    2.95
  -1   2  -5   83.88    3.88
   1  -2  -5   93.42    3.07
  -2  -2  -5  151.18    4.96
   2  -2   5  151.48    5.43
   2   2  -5  151.87    5.74
  -2  -2  -5  156.99    5.13
  -2  -2   5  155.78    5.09
   2  -2  -5  149.06    5.24
  -3  -2  -5   10.81    1.37
   3   2  -5   10.95    1.59
   3  -2   5    8.63    1.23
  -3  -2  -5   10.19    0.74
   3  -2   5   10.19    1.05
  -3  -2   5   10.62    0.86
   3  -2  -5   12.00    1.29
   4   2  -5   27.86    2.18
   4  -2   5   28.32    2.00
  -4  -2  -5   29.94    1.42
  -4  -2  -5   30.43    2.31
   4  -2  -5   28.45    1.97
   4   2   5   29.24    1.76
  -4  -2   5   29.95    1.54
   5   2  -5   14.21    1.94
   5  -2   5   16.14    1.89
  -5  -2  -5   12.88    1.16
  -5  -2   5   12.39    1.18
   5   2   5   15.79    1.70
   5  -2  -5   16.64    1.77
  -6   2   5    0.09    0.85
   6   2  -5    2.66    1.50
   6  -2   5    1.87    1.40
  -6  -2  -5    4.61    0.91
   6   2   5    0.78    1.27
  -6  -2   5    4.09    0.93
   6  -2  -5   -0.45    1.19
   7   2  -5   18.99    2.58
  -7   2   5   16.27    1.90
   7  -2   5   21.69    2.59
  -7  -2  -5   17.58    1.62
   7   2   5   23.17    2.60
   7  -2  -5   21.33    2.74
  -7  -2   5   21.15    1.87
  -8  -2  -5    4.68    1.33
  -8   2   5    3.37    1.29
   8   2  -5    2.79    2.28
   8  -2  -5    3.07    1.90
  -8  -2   5    4.45    1.33
   8   2   5    1.07    2.03
   9  -2   5    0.81    2.65
   9   2  -5    0.80    2.42
  -9  -2  -5    0.63    1.67
   9  -2  -5    0.59    1.94
  -9  -2   5    0.00    1.45
   9   2   5   -2.97    2.59
   0  -3   5   62.68    2.58
   0   3  -5   59.98    3.17
   1  -3   5   23.22    1.48
   1   3  -5   20.64    1.94
  -1   3  -5   18.30    2.18
  -1  -3   5   21.28    1.04
  -2  -3  -5   18.41    0.93
   2  -3   5   17.28    1.44
   2   3  -5   18.22    1.98
   2  -3  -5   18.53    1.27
  -2   3  -5   19.32    2.30
  -2  -3   5   19.83    1.05
   3  -3   5    2.46    0.93
  -3  -3  -5    2.56    0.49
  -3  -3  -5    4.18    1.00
   3   3  -5    2.77    1.29
  -3  -3   5    2.93    0.60
   3  -3  -5    3.12    0.90
  -4  -3  -5   33.71    2.43
   4   3  -5   32.83    2.47
   4  -3   5   31.45    2.18
  -4  -3  -5   31.93    1.55
   4  -3  -5   31.51    2.05
  -4  -3   5   30.95    1.64
  -5  -3  -5    2.72    0.77
   5   3  -5    1.49    1.33
   5  -3   5    2.15    1.16
   5   3   5    2.04    1.14
  -5  -3   5    2.37    0.88
   5  -3  -5    2.72    1.09
   6  -3   5   56.01    3.27
   6   3  -5   50.53    3.25
  -6  -3  -5   50.61    2.36
   6   3   5   49.91    2.94
  -7  -3  -5    9.11    1.24
   7   3  -5    8.24    2.26
   7  -3   5    1.53    2.61
  -7  -3   5    8.48    1.49
   7  -3  -5    6.82    1.95
   7   3   5    9.74    2.00
  -8  -3  -5    1.99    1.48
   8  -3   5    4.36    2.30
   8   3  -5    3.50    2.61
   8  -3  -5    2.47    1.78
   8   3   5    4.24    2.37
  -8  -3   5    1.27    1.46
   9   3  -5    5.22    2.84
  -9  -3  -5    3.21    1.71
   9  -3   5    3.73    2.62
   9   3   5    3.54    2.85
  -9  -3   5    2.04    1.69
   9  -3  -5    2.20    2.30
   0   4  -5   18.42    2.34
   0  -4   5   18.89    1.44
   1  -4   5   10.39    1.27
   1   4  -5    9.31    1.68
  -1  -4   5   12.40    0.85
  -1   4  -5    9.41    1.84
  -2  -4  -5   46.93    1.86
   2  -4   5   47.48    2.41
   2   4  -5   43.90    2.87
   2  -4  -5   43.34    1.99
  -2  -4   5   45.34    1.93
  -2   4  -5   48.77    3.31
   3  -4   5   27.37    2.01
   3   4  -5   28.68    2.51
  -3  -4  -5   30.46    2.08
  -3  -4  -5   29.43    1.44
  -3   4  -5   28.76    3.04
  -3  -4   5   33.31    1.60
   3  -4  -5   33.31    1.82
  -4  -4  -5   23.52    1.37
   4   4  -5   20.96    2.39
  -4  -4  -5   20.99    2.61
   4  -4   5   21.97    2.01
  -4  -4   5   23.93    1.43
   4  -4  -5   21.96    1.82
   5  -4   5   21.25    2.24
   5   4  -5   18.71    2.34
  -5  -4  -5   20.20    1.41
  -5  -4  -5   20.02    3.34
   5  -4  -5   16.84    1.91
  -5  -4   5   18.04    1.40
   6  -4   5   16.68    2.45
  -6  -4  -5   17.38    1.48
   6   4  -5   15.34    2.19
  -6  -4   5   15.33    1.55
   6   4   5   19.56    2.39
   6  -4  -5   14.61    2.04
  -7  -4  -5   10.17    1.53
   7  -4   5    4.91    1.91
   7   4  -5    5.35    2.50
   7  -4  -5   10.52    2.19
   7   4   5    7.23    2.22
  -7  -4   5    8.29    1.54
   8  -4   5   11.68    2.63
  -8  -4  -5   11.23    1.70
   8   4  -5   10.22    2.98
  -8  -4   5    9.19    1.58
   8   4   5    2.08    2.58
   8  -4  -5    8.55    2.23
  -9  -4  -5   -0.02    1.70
  -9  -4   5   -0.71    1.39
   0  -5   5   22.10    1.67
   0   5  -5   25.73    2.67
   1  -5   5   12.63    1.46
   1   5  -5   14.09    2.04
  -1   5  -5   13.12    2.09
  -1  -5   5   11.43    0.99
   2   5  -5    1.12    1.55
   2  -5   5    1.93    0.95
  -2  -5   5    3.31    0.70
   2  -5  -5    0.92    0.78
  -2   5  -5    2.70    1.95
   3  -5   5    0.15    1.01
   3   5  -5   -1.10    1.58
  -3  -5  -5    0.77    0.53
  -3  -5  -5    0.95    1.34
  -3   5  -5    1.84    2.02
  -3  -5   5    0.50    0.59
   3  -5  -5    1.32    0.86
   4   5  -5   35.25    3.00
   4  -5   5   37.72    2.57
  -4  -5  -5   30.56    3.10
  -4  -5  -5   40.18    1.85
  -4  -5   5   39.56    1.99
  -4   5  -5   40.78    3.85
   4  -5  -5   36.35    2.24
  -5  -5  -5   39.91    2.00
   5   5  -5   38.18    3.17
  -5  -5  -5   39.93    4.09
  -5  -5   5   34.62    2.13
   6   5  -5    4.24    2.33
   6  -5   5    3.59    1.87
  -6  -5   5    4.10    1.13
   6  -5  -5    5.38    1.60
   7   5  -5    4.66    2.65
  -7  -5  -5    5.20    1.41
   7  -5   5    5.87    2.28
   7  -5  -5    6.77    1.95
   7   5   5   -0.55    3.28
  -7  -5   5    5.66    1.39
  -8  -5  -5    7.91    1.69
   8  -5   5    9.40    2.83
   8   5  -5    4.62    3.10
  -8  -5   5    5.52    1.61
   8  -5  -5    7.89    2.29
   0  -6   5   12.82    1.52
   0   6  -5   12.00    2.22
   1   6  -5    4.66    2.05
   1  -6   5    6.54    1.25
  -1   6  -5    9.18    2.31
  -1  -6   5    8.90    1.03
   2   6  -5   22.35    2.90
   2  -6   5   29.43    2.23
   2  -6  -5   31.36    1.90
  -2  -6   5   31.66    1.68
  -2   6  -5   31.88    3.49
   3   6  -5   17.48    2.53
  -3  -6  -5   20.17    1.33
   3  -6   5   16.23    2.32
  -3  -6  -5   12.87    2.19
  -3   6  -5   14.08    2.84
  -3  -6   5   17.47    1.33
   3  -6  -5   19.94    1.81
  -4  -6  -5   23.28    1.46
  -4  -6  -5   27.95    3.73
   4   6  -5   18.73    2.48
   4  -6   5   18.77    2.26
  -4   6  -5   19.09    3.08
   4  -6  -5   22.09    2.44
  -4  -6   5   21.73    1.65
   5   6  -5    4.69    2.01
   5  -6   5    4.54    1.85
   5  -6  -5    5.99    1.63
  -5   6  -5   -1.33    2.88
  -5  -6   5    4.26    1.13
   6  -6   5    1.44    1.96
  -6   6   5   -1.83    3.61
  -6  -6  -5    2.46    1.21
  -6   6  -5    6.13    3.83
   6  -6  -5    1.80    1.69
  -6  -6   5    0.21    1.00
   7   6  -5    0.79    3.12
   7  -6   5   -1.06    1.99
  -7  -6  -5    3.57    1.42
   7  -6  -5   -0.56    1.78
  -7  -6   5    1.92    1.36
  -7   6  -5   -5.41    4.23
   0   7  -5   53.81    4.08
   1  -7   5   14.53    2.00
  -1  -7  -5   16.33    2.45
   1   7  -5   17.51    2.80
  -1  -7   5   19.02    1.61
  -1   7  -5   14.60    2.86
   1  -7  -5   16.63    1.42
   2   7  -5    7.49    2.31
  -2  -7  -5   11.72    2.64
   2  -7   5   12.79    1.93
  -2  -7   5   12.79    1.37
  -2   7  -5    9.38    2.93
   2  -7  -5   13.29    1.59
   3  -7   5   15.53    2.10
  -3  -7  -5    9.56    3.15
  -3  -7  -5   14.68    1.98
   3   7  -5   17.75    2.64
   3  -7  -5   17.63    2.70
  -3   7  -5   18.13    3.35
  -3  -7   5   14.74    1.49
  -4  -7  -5    8.68    1.30
   4   7  -5    8.15    2.47
   4  -7   5    8.25    1.98
  -4  -7   5    5.34    1.22
   4  -7  -5    6.79    1.71
  -4   7  -5   12.60    3.21
   5  -7   5    0.66    1.50
   5   7  -5    0.98    2.46
  -5  -7  -5    0.41    0.98
  -5   7  -5    0.86    4.53
  -5  -7   5    0.33    1.04
   5  -7  -5   -1.27    1.49
  -6  -7  -5    1.53    1.22
   6  -7   5    3.35    1.95
   6   7  -5    0.94    3.36
  -6   7  -5    1.00    4.57
   6  -7  -5    1.65    1.84
  -6  -7   5    2.32    1.08
  -7  -7  -5    6.13    1.60
  -7  -7   5    4.36    1.46
   0  -8  -5    0.20    0.83
   0   8  -5   -4.35    2.69
  -1  -8  -5    9.05    3.43
   1   8  -5   15.87    3.09
   1  -8   5   13.46    1.93
   1  -8  -5   14.30    1.57
  -1   8  -5   14.89    3.09
  -1  -8   5   16.05    1.67
   2   8  -5   36.25    3.94
   2  -8   5   33.97    3.00
  -2  -8  -5   35.43    2.17
  -2   8  -5   31.97    3.95
   2  -8  -5   34.55    2.44
  -2  -8   5   31.47    2.19
   3   8  -5   -1.99    2.49
  -3  -8  -5    3.81    1.15
   3  -8   5    0.85    1.67
  -3   8  -5    5.25    3.21
  -3  -8   5    1.62    0.96
   3  -8  -5    1.94    1.63
  -4  -8  -5   -0.15    0.95
   4   8  -5   -2.50    3.30
   4  -8   5    2.09    1.72
   4  -8  -5    0.26    1.78
  -4  -8   5    0.63    1.02
   5  -8   5    0.10    1.87
  -5  -8  -5    4.18    1.30
  -5   8  -5   -4.56    4.62
   5  -8  -5    1.45    1.90
  -5  -8   5    0.73    1.20
   0   9  -5    6.05    3.21
   1  -9   5   12.22    2.34
   1   9  -5   13.07    3.52
   1  -9  -5   13.74    1.72
  -1  -9   5   16.32    1.91
  -1   9  -5   16.78    3.67
   2  -9   5    2.26    1.67
  -2  -9  -5    5.86    1.33
   2   9  -5   13.00    3.55
  -2   9  -5    4.67    3.63
   2  -9  -5    5.93    1.60
  -2  -9   5    4.75    1.34
   3  -9   5    9.90    2.25
  -3  -9  -5    7.80    1.47
   3   9  -5   11.67    3.49
   3  -9  -5    7.48    1.79
  -3   9  -5    0.80    4.33
  -3  -9   5    6.65    1.45
   4   9  -5   18.48    5.07
  -4  -9  -5   14.64    1.85
   4  -9   5   17.97    2.95
  -4   9  -5   19.98    5.65
   4  -9  -5   17.78    2.66
  -4  -9   5   16.70    2.06
   0   0  -6    1.84    0.52
   0   0  -6    0.33    1.05
   1   0  -6  101.24    3.35
  -1   0  -6  101.52    3.68
  -1   0   6  103.19    3.38
   1   0  -6  101.35    4.03
  -2   0  -6   31.13    1.82
   2   0  -6   30.89    1.98
   2   0  -6   31.02    1.37
   2   0   6   30.53    1.51
  -2   0   6   31.51    1.37
  -3   0   6   74.10    2.71
   3   0  -6   70.93    3.23
   3   0   6   71.55    2.88
  -3   0  -6   70.81    3.19
  -4   0   6   29.56    1.54
  -4   0  -6   26.66    1.32
   4   0   6   29.17    1.82
   4   0  -6   25.55    2.01
  -5   0   6   12.68    1.23
   5   0  -6   13.64    1.84
  -5   0  -6   13.16    1.13
   5   0   6   13.53    1.68
   6   0  -6    2.48    1.42
   6   0   6    2.33    1.30
  -6   0   6    3.35    0.90
  -7   0   6   -0.25    0.96
  -7   0  -6    2.04    1.05
   7   0  -6    1.08    1.76
   7   0   6    2.37    1.82
  -8   0   6    8.14    1.58
  -8   0  -6    8.42    1.64
   8   0  -6    6.74    2.16
   8   0   6   12.18    4.05
  -9   0   6    3.46    1.67
   9   0  -6    9.47    2.63
   9   0   6    5.60    2.74
  -9   0  -6    6.84    1.83
   0   1  -6   87.99    3.80
   0  -1  -6   88.54    3.43
   0   1  -6   93.16    3.36
   1  -1   6   69.21    2.66
   1   1  -6   66.74    3.19
   1   1  -6   68.06    2.36
  -1  -1  -6   69.84    2.55
  -1  -1   6   70.59    2.38
  -1   1  -6   69.20    2.83
   1  -1  -6   70.22    2.89
   1  -1  -6   67.68    2.40
  -1   1  -6   67.55    3.37
  -2  -1  -6   97.31    3.53
   2   1  -6   97.29    4.05
   2   1  -6   98.60    3.35
   2  -1   6   95.06    3.60
   2  -1  -6   93.13    3.36
  -2   1  -6   89.30    3.82
  -2  -1   6   97.34    3.32
   2  -1  -6  100.63    3.78
  -3  -1  -6   19.18    1.72
  -3   1   6   20.57    1.26
   3  -1   6   21.29    1.49
   3   1  -6   19.21    1.95
  -3  -1  -6   19.19    0.95
  -3  -1   6   20.67    1.17
   3   1   6   21.41    1.33
   3  -1  -6   21.88    1.66
  -4  -1  -6   23.42    1.27
   4   1  -6   22.67    2.06
  -4   1   6   25.80    1.50
  -4  -1  -6   28.16    2.41
   4  -1   6   25.65    1.81
   4   1   6   28.15    1.43
  -4  -1   6   27.35    1.47
   4   1   6   25.79    1.68
   4  -1  -6   27.69    2.00
   5  -1   6   14.50    1.74
  -5  -1  -6   12.09    1.10
   5   1  -6   12.39    1.71
  -5   1   6   11.99    1.29
   5   1   6   13.27    1.71
   5  -1  -6   14.72    1.86
  -5  -1   6   11.21    1.22
   6  -1   6   25.45    2.45
  -6   1   6   21.35    1.69
   6   1  -6   25.71    2.59
  -6  -1  -6   24.80    1.55
  -6  -1   6   24.93    1.70
   6   1   6   26.67    2.39
  -7  -1  -6    6.58    1.16
  -7   1   6    6.19    1.33
   7   1  -6    5.15    1.99
   7  -1   6    3.04    1.70
  -7  -1   6    2.42    1.15
   7  -1  -6    6.19    1.98
   7   1   6    4.09    2.15
   8  -1   6    1.35    2.00
  -8   1   6    0.48    1.42
   8   1  -6    0.85    2.11
   8  -1  -6    3.63    1.87
   8   1   6    0.01    2.19
  -8  -1   6    2.57    1.42
  -9   1   6    3.97    1.74
   9  -1   6    4.09    3.17
   9   1  -6    5.17    2.50
  -9  -1  -6    4.43    1.66
   9  -1  -6    5.48    2.35
  -9  -1   6   -0.63    1.45
   9   1   6    0.38    2.76
   0  -2   6   18.70    0.83
   0   2  -6   20.19    2.01
   1  -2   6  116.64    4.17
   1   2  -6  111.26    4.64
  -1   2  -6  111.72    4.76
  -1  -2   6  109.88    3.77
   1  -2  -6  114.98    3.86
  -2  -2  -6    3.50    0.78
   2  -2   6    3.22    0.84
  -2  -2  -6    3.87    0.43
   2   2  -6    5.82    1.36
  -2   2  -6    1.51    1.59
   2  -2  -6    4.09    0.86
  -2  -2   6    5.12    0.63
   3   2  -6   15.00    1.95
  -3  -2  -6   17.95    1.61
   3  -2   6   16.20    1.48
  -3  -2  -6   16.51    0.91
   3  -2   6   16.26    1.14
  -3  -2   6   14.29    1.04
   3  -2  -6   19.08    1.55
   4   2  -6   91.27    4.23
  -4  -2  -6   97.05    3.39
   4  -2   6   93.67    3.97
  -4  -2  -6   94.74    4.06
  -4  -2   6   95.17    3.55
   4  -2  -6   98.79    4.03
   5  -2   6    1.59    1.21
   5   2  -6    3.81    1.32
  -5  -2  -6    4.34    0.85
   5  -2  -6    3.20    1.30
  -5  -2   6    3.85    0.80
   6  -2   6    4.93    1.50
   6   2  -6   -0.01    2.63
  -6  -2  -6    4.90    0.92
   6   2   6    4.98    1.53
  -6  -2   6    3.40    0.89
   6  -2  -6    1.64    2.02
  -7  -2  -6    6.52    1.21
   7  -2   6    4.27    1.84
   7   2  -6    3.57    2.08
  -7  -2   6    5.45    1.38
   7   2   6    4.62    1.90
   7  -2  -6    3.58    1.70
  -8  -2  -6   14.84    1.94
   8   2  -6   14.02    2.77
   8   2   6   14.42    2.54
  -8  -2   6   14.77    1.90
   8  -2  -6   17.27    2.70
   9   2  -6    5.22    2.82
   9  -2   6   -2.05    3.07
  -9  -2  -6    1.74    1.70
  -9  -2   6   -0.66    1.38
   9   2   6    2.92    2.92
   9  -2  -6    2.13    2.14
   0   3  -6   18.95    2.31
   0  -3   6   18.54    0.93
   1  -3   6   12.05    1.26
   1   3  -6   14.72    1.85
  -1  -3   6   12.02    0.79
  -1   3  -6   14.04    2.02
   2   3  -6   31.15    2.51
   2  -3   6   32.10    1.92
  -2  -3  -6   32.74    1.35
  -2   3  -6   33.23    2.95
  -2  -3   6   33.27    1.50
   2  -3  -6   35.71    1.74
  -3  -3  -6   49.51    2.40
  -3  -3  -6   51.63    2.01
   3   3  -6   52.35    3.13
   3  -3   6   52.86    2.66
  -3  -3   6   50.58    2.14
   3  -3  -6   52.99    2.47
  -4  -3  -6    6.13    1.64
   4   3  -6    7.54    1.68
  -4  -3  -6    7.29    0.90
   4  -3   6    5.10    1.20
  -4  -3   6    7.59    0.98
   4  -3  -6   10.67    1.48
   5  -3   6    7.44    1.55
  -5  -3  -6   11.17    3.42
  -5  -3  -6    9.04    1.14
   5   3  -6    4.31    1.45
   5  -3  -6    7.84    1.44
  -5  -3   6    9.87    1.13
   6  -3   6   10.83    1.81
  -6  -3  -6   10.88    1.36
   6   3   6    7.97    1.72
  -6  -3   6   12.01    1.98
   6  -3  -6   12.53    1.91
  -7  -3  -6    4.41    1.16
   7   3  -6    1.84    2.25
   7  -3  -6    4.65    1.97
  -7  -3   6    4.63    1.22
   7   3   6    0.83    2.04
   8   3  -6    1.73    2.50
   8  -3   6    3.15    2.45
  -8  -3  -6    5.99    1.59
  -8  -3   6    2.88    1.60
   8  -3  -6    2.43    1.86
   8   3   6   -2.87    2.40
  -9  -3  -6    0.67    1.81
   9  -3   6    3.75    2.90
   9   3  -6    2.52    2.85
   9   3   6   -2.35    2.98
   9  -3  -6    2.57    2.01
  -9  -3   6    3.60    1.72
   0  -4   6   15.09    0.98
   0   4  -6   18.07    2.42
   1   4  -6    9.39    1.72
   1  -4   6    9.52    1.31
  -1   4  -6   14.05    2.15
  -1  -4   6    7.53    0.78
   2   4  -6   48.08    3.05
   2  -4   6   45.96    2.49
  -2  -4  -6   43.95    1.84
  -2   4  -6   46.05    3.53
   2  -4  -6   45.00    2.07
  -2  -4   6   48.69    1.98
  -3  -4  -6    5.43    0.71
   3  -4   6    6.33    1.24
   3   4  -6    9.83    1.83
  -3  -4  -6    4.52    1.22
  -3   4  -6    9.30    2.16
   3  -4  -6    6.36    1.10
  -3  -4   6    6.73    0.88
  -4  -4  -6    7.53    0.97
   4   4  -6   11.87    2.02
   4  -4   6    8.74    1.39
  -4  -4  -6    7.56    1.93
   4  -4  -6   11.21    1.49
  -4  -4   6    9.27    1.04
  -5  -4  -6   42.13    4.16
   5  -4   6   46.94    2.98
  -5  -4  -6   47.64    2.21
   5   4  -6   50.64    3.31
   5  -4  -6   52.48    2.99
  -5  -4   6   45.14    2.30
   6   4  -6   28.14    3.26
  -6  -4  -6   27.74    1.84
   6  -4  -6   32.36    2.72
  -6  -4   6   27.96    2.04
   7  -4   6    4.30    2.17
   7   4  -6    4.19    2.61
  -7  -4  -6    1.26    1.55
   7  -4  -6   -0.19    1.61
  -7  -4   6    1.16    1.16
   7   4   6   -1.66    2.17
   8   4  -6    2.10    2.79
   8  -4   6    0.85    2.46
  -8  -4  -6    4.67    1.57
   8  -4  -6    0.71    1.98
  -8  -4   6    4.74    1.47
   0   5  -6   18.70    2.46
   1  -5   6   13.98    1.57
   1   5  -6   15.70    2.22
  -1   5  -6   13.53    2.32
  -1  -5   6   13.29    1.04
  -2  -5  -6   20.47    1.24
   2   5  -6   19.81    2.65
   2  -5   6   22.65    1.98
  -2  -5   6   18.96    1.26
  -2   5  -6   22.51    3.14
   2  -5  -6   18.89    1.40
   3   5  -6   19.62    2.67
  -3  -5  -6   16.88    1.15
   3  -5   6   18.71    1.99
  -3  -5  -6   17.02    1.82
   3  -5  -6   18.59    1.60
  -3  -5   6   19.11    1.34
  -3   5  -6   15.57    2.66
   4   5  -6   33.68    3.07
   4  -5   6   29.28    2.32
  -4  -5  -6   29.83    1.61
  -4  -5  -6   35.07    3.13
  -4  -5   6   32.05    1.81
   4  -5  -6   27.50    2.11
  -4   5  -6   32.56    3.65
  -5  -5  -6   19.11    3.38
   5  -5   6   18.97    3.30
   5   5  -6   16.51    2.47
  -5  -5  -6   20.33    1.44
  -5  -5   6   13.92    1.50
   5  -5  -6   19.73    2.15
   6  -5   6   -0.38    1.78
   6   5  -6    2.38    2.16
   6  -5  -6    0.34    1.48
  -6  -5   6   -0.47    1.02
   7  -5   6   16.96    2.59
   7   5  -6   14.10    3.08
  -7  -5  -6   14.94    1.82
   7  -5  -6   15.86    2.45
  -7  -5   6   15.26    1.95
  -8  -5  -6    4.35    1.76
   8  -5   6    4.07    2.57
   8   5  -6    5.64    3.21
   8  -5  -6    5.63    2.22
  -8  -5   6    2.40    1.46
   0   6  -6   42.42    3.58
   1  -6   6   15.96    1.78
   1   6  -6   12.25    2.47
  -1   6  -6   13.47    2.60
  -1  -6   6   14.17    1.19
   2  -6   6    0.45    0.96
  -2  -6  -6   -0.42    0.67
   2   6  -6   -0.44    1.95
  -2  -6   6    0.98    0.63
  -2   6  -6    1.57    2.26
  -3  -6  -6    8.27    1.02
   3   6  -6    8.36    2.27
  -3  -6   6    8.09    1.09
  -3   6  -6   12.07    2.74
   3  -6  -6    7.41    1.30
   4   6  -6   11.44    2.48
  -4  -6  -6    9.98    1.10
  -4  -6  -6    7.97    2.59
   4  -6   6    5.01    1.60
  -4   6  -6    6.87    2.68
  -4  -6   6    8.04    1.17
   5  -6   6    1.40    1.59
  -5   6  -6    3.36    3.20
   5  -6  -6    2.77    1.48
  -5  -6   6    3.67    1.20
  -6  -6  -6    8.02    1.41
   6  -6   6    9.66    2.13
   6   6  -6    6.49    2.81
  -6  -6   6    5.45    1.32
   6  -6  -6    5.79    1.90
  -6   6  -6    4.62    3.88
   7  -6   6    2.14    2.43
   7   6  -6    1.61    3.38
  -7  -6  -6    1.69    1.49
  -7  -6   6    1.59    1.52
   7  -6  -6    3.48    1.97
  -7   6  -6   -1.41    4.37
   0   7  -6    1.60    2.47
   1   7  -6    3.82    2.46
   1  -7   6    4.01    1.34
  -1   7  -6    4.73    2.64
  -2  -7  -6   29.93    2.19
   2  -7   6   27.38    2.65
   2   7  -6   34.21    3.57
  -2  -7   6   30.43    1.90
   2  -7  -6   24.64    1.99
  -2   7  -6   31.58    4.11
  -3  -7  -6   18.75    3.19
   3   7  -6   26.91    3.58
  -3  -7  -6   18.04    1.92
   3  -7   6   23.83    2.76
  -3   7  -6   26.37    3.79
  -3  -7   6   25.19    1.83
   4  -7   6    1.60    1.80
  -4  -7  -6    1.58    0.92
  -4  -7   6    1.38    1.07
  -4   7  -6   -6.54    3.49
   4  -7  -6    1.42    1.47
  -5  -7  -6    7.13    1.36
   5  -7   6    4.21    2.01
   5   7  -6    9.30    3.13
  -5   7  -6    4.66    4.21
  -5  -7   6    5.34    1.40
   5  -7  -6    7.11    1.94
  -6  -7  -6    2.12    1.40
   6   7  -6    1.52    3.46
   6  -7   6    1.51    1.87
  -6  -7   6   -0.18    1.32
  -6   7  -6   -0.66    4.53
   6  -7  -6    2.58    1.83
   0   8  -6    6.95    3.10
   1  -8   6    3.79    1.66
   1   8  -6    5.84    2.89
  -1  -8   6    5.65    1.29
  -1   8  -6    5.93    2.95
  -2  -8  -6    1.74    1.12
   2  -8   6   -0.64    1.45
   2   8  -6    1.91    2.63
   2  -8  -6    1.72    1.29
  -2   8  -6    4.04    3.40
  -2  -8   6    1.62    1.01
  -3  -8  -6    0.94    1.01
   3  -8   6    2.42    1.85
   3  -8  -6    1.90    1.51
  -3   8  -6   -0.91    4.46
  -3  -8   6    1.46    1.01
  -4  -8  -6   16.20    1.78
   4  -8   6   22.27    3.09
   4   8  -6   15.33    3.83
  -4   8  -6   14.51    4.85
  -4  -8   6   15.91    2.04
   4  -8  -6   15.84    2.26
   5  -8   6    1.87    2.13
   5   8  -6    0.58    3.68
  -5  -8  -6    0.24    1.21
  -5  -8   6    1.76    1.41
   5  -8  -6   -1.83    1.72
  -5   8  -6    2.97    5.10
   0  -9   6    0.25    1.17
  -1  -9   6    1.16    1.28
   1  -9  -6   -2.10    1.26
  -2  -9  -6    2.19    1.23
   2  -9   6    5.31    1.98
   2  -9  -6    3.80    1.58
  -2   9  -6    4.06    4.70
  -2  -9   6    3.53    1.38
  -3  -9  -6    3.93    1.30
   3  -9   6    5.07    2.05
   3   9  -6    2.48    4.29
   3  -9  -6    3.14    1.73
  -3  -9   6    2.57    1.23
  -3   9  -6   -0.54    5.12
   0   0  -7   -0.48    1.09
   0   0  -7    0.87    0.61
  -1   0  -7   19.78    2.05
  -1   0  -7   19.90    1.42
   1   0  -7   21.10    1.95
   2   0  -7    1.44    0.58
  -2   0   7    2.65    0.57
  -2   0  -7    0.90    1.06
   2   0   7    2.11    0.66
   2   0  -7    2.41    1.22
  -3   0   7   25.73    1.33
   3   0   7   25.77    1.58
  -3   0  -7   22.73    2.15
   3   0  -7   23.42    2.06
  -4   0   7    0.57    0.70
   4   0   7    0.50    0.86
  -4   0  -7    1.17    0.55
   4   0  -7   -0.62    0.99
  -5   0  -7    3.93    0.79
  -5   0   7    2.47    0.82
   5   0  -7    2.93    1.39
   5   0   7    3.43    1.16
   6   0   7   47.97    2.96
   6   0  -7   47.84    3.29
  -6   0  -7   49.73    2.24
  -6   0   7   48.17    2.40
   7   0   7    6.07    2.31
   7   0  -7    3.06    2.07
  -7   0   7    3.75    1.22
  -7   0  -7    5.51    1.15
   8   0   7   -1.03    2.18
  -8   0   7    0.75    1.31
  -8   0  -7    2.06    1.28
   8   0  -7   -2.55    2.10
   9   0  -7    4.32    2.41
   9   0   7    2.35    2.83
  -9   0   7    2.94    1.81
  -9   0  -7    2.82    1.82
   0  -1  -7   45.14    2.37
   0  -1  -7   43.38    1.79
   0   1  -7   44.10    2.10
   0   1  -7   45.94    2.69
   1   1  -7   48.37    2.73
  -1  -1  -7   45.33    1.93
   1   1  -7   40.34    2.12
  -1  -1   7   44.44    1.65
   1  -1  -7   44.50    1.70
  -1   1  -7   45.43    2.28
  -1   1  -7   43.16    2.83
   1  -1  -7   43.70    2.37
   2  -1   7    6.93    0.98
   2   1  -7    6.45    1.42
  -2  -1  -7    7.36    1.10
   2  -1  -7   10.46    1.33
  -2  -1   7    7.82    0.76
   3   1  -7    9.75    1.66
   3  -1   7    8.00    1.10
  -3   1   7    8.13    0.96
  -3  -1  -7   12.19    1.68
   3  -1  -7    9.14    1.45
  -3  -1   7    6.72    0.89
   4  -1   7   22.77    1.77
  -4  -1  -7   19.69    2.56
  -4   1   7   25.21    1.53
   4   1  -7   23.15    2.23
  -4  -1   7   25.03    1.47
   4   1   7   22.67    1.70
   4  -1  -7   21.10    1.95
   5   1  -7   31.51    2.51
  -5  -1  -7   31.99    1.61
  -5   1   7   34.87    1.89
   5  -1   7   29.40    2.22
  -5  -1   7   32.62    1.84
   5   1   7   32.23    2.43
   5  -1  -7   30.16    2.47
  -6  -1  -7    9.82    1.26
  -6   1   7    9.70    1.32
   6   1  -7    4.90    1.76
   6  -1   7    8.60    1.71
   6   1   7    7.21    1.60
  -6  -1   7    8.41    1.18
   6  -1  -7   11.76    2.09
  -7  -1  -7   17.83    1.66
   7  -1   7   21.72    2.78
   7   1  -7   17.92    2.71
  -7   1   7   19.72    2.06
   7  -1  -7   21.15    2.79
  -7  -1   7   16.79    1.90
   7   1   7   21.46    2.78
  -8  -1  -7    4.74    1.44
   8   1  -7    4.74    2.47
   8  -1   7    5.92    4.00
  -8   1   7    4.36    1.53
   8  -1  -7    5.32    2.23
   8   1   7    4.93    2.44
  -8  -1   7    6.34    1.58
  -9  -1  -7   13.85    2.07
   9   1  -7   13.45    3.22
  -9   1   7    5.98    1.69
   9  -1   7   17.11    4.06
   9  -1  -7   11.51    2.78
  -9  -1   7    7.95    1.81
   9   1   7   -1.93    2.93
   0   2  -7    3.86    1.48
   0  -2  -7    0.34    0.59
   1  -2   7    3.01    0.80
   1   2  -7    4.93    1.39
  -1  -2  -7    3.02    0.59
   1  -2  -7    2.35    1.00
   1  -2  -7    2.03    0.69
  -1   2  -7    2.76    1.52
  -1  -2   7    2.80    0.49
   2   2  -7    0.92    1.43
   2  -2   7   -0.13    0.69
  -2  -2  -7    1.18    0.82
  -2   2  -7    3.79    1.64
   2  -2  -7    0.79    0.90
  -2  -2   7    1.23    0.53
   3  -2   7    3.89    1.00
   3   2  -7    2.47    1.31
  -3  -2  -7    4.38    1.23
   3  -2  -7    2.86    1.12
  -3  -2   7    4.71    0.77
   4   2  -7   15.98    2.20
  -4  -2  -7   17.13    1.13
   4  -2   7   20.34    1.77
  -4  -2  -7   20.53    2.15
   4  -2  -7   15.06    1.91
  -4  -2   7   17.30    1.26
  -5  -2  -7   32.12    1.64
   5   2  -7   31.34    2.62
   5  -2   7   30.71    2.35
  -5  -2   7   30.67    1.80
   5  -2  -7   33.63    2.45
   5   2   7   28.38    2.12
  -6  -2  -7    8.99    1.15
   6  -2   7    5.32    1.58
   6   2  -7    6.66    1.91
   6  -2  -7    7.54    2.01
   6   2   7    6.05    1.61
   7  -2   7   35.24    3.18
  -7  -2  -7   33.67    2.08
   7   2  -7   35.35    3.65
   7  -2  -7   35.32    3.32
  -7  -2   7   31.53    2.35
   7   2   7   35.21    3.16
   8   2  -7   10.40    2.83
  -8  -2   7    8.38    1.68
   8  -2  -7    8.09    2.34
   9   2  -7    5.39    3.01
   9  -2   7    0.28    3.16
  -9  -2  -7    1.50    1.69
   9  -2  -7    1.78    2.34
  -9  -2   7   -0.57    1.70
   9   2   7    0.32    3.16
   0  -3   7    7.34    0.66
   0   3  -7    8.09    1.87
   1  -3   7   15.37    1.39
   1   3  -7   15.49    2.16
  -1   3  -7   17.04    2.22
  -1  -3   7   14.92    0.92
   2   3  -7   11.02    2.10
  -2  -3  -7   10.51    0.73
   2  -3   7   14.02    1.47
   2  -3  -7   10.55    1.34
  -2  -3   7   11.85    0.91
  -2   3  -7   13.09    2.19
  -3  -3  -7   88.83    3.50
   3   3  -7   87.78    4.24
   3  -3   7   84.86    3.75
  -3  -3  -7   86.86    3.10
   3  -3  -7   89.35    3.62
  -3   3  -7   90.13    4.83
  -3  -3   7   85.84    3.28
  -4  -3  -7   20.43    2.44
   4   3  -7   20.89    2.51
   4  -3   7   18.94    1.95
  -4  -3  -7   21.65    1.29
   4  -3  -7   21.04    1.99
  -4  -3   7   19.85    1.39
  -5  -3  -7   11.81    1.25
  -5  -3  -7   18.54    2.87
   5   3  -7   10.85    2.15
   5  -3   7   13.09    1.81
   5  -3  -7   15.40    2.04
  -5  -3   7   14.21    1.32
  -6  -3  -7   17.14    1.50
   6  -3   7   10.50    1.87
   6   3  -7   11.94    2.34
  -6  -3   7   14.83    1.58
   6  -3  -7   11.67    2.05
  -7  -3  -7    4.26    1.16
   7   3  -7    2.73    2.32
   7  -3  -7    1.26    1.94
   7   3   7    2.22    1.99
  -7  -3   7    3.55    1.35
   8   3  -7    4.91    2.71
  -8  -3  -7    7.20    1.62
   8  -3   7    2.77    2.61
   8  -3  -7    4.94    2.17
   8   3   7    3.16    2.59
  -8  -3   7    3.84    1.71
   0   4  -7    8.63    2.04
   0  -4   7    8.21    0.80
   1  -4   7   20.50    1.70
   1   4  -7   19.16    2.44
  -1  -4   7   22.13    1.19
  -1   4  -7   21.50    2.63
   2   4  -7   13.31    2.17
  -2  -4  -7   12.97    0.90
   2  -4   7   11.32    1.58
  -2  -4   7   15.26    1.07
   2  -4  -7   12.67    1.36
  -2   4  -7    9.82    2.18
  -3  -4  -7   36.58    1.66
   3   4  -7   39.22    2.99
   3  -4   7   39.40    2.45
  -3   4  -7   32.64    3.46
   3  -4  -7   39.80    2.17
  -3  -4   7   39.60    1.85
  -4  -4  -7   35.70    2.77
   4   4  -7   32.64    3.02
   4  -4   7   34.46    2.51
  -4  -4  -7   35.19    1.73
  -4   4  -7   38.03    3.71
   4  -4  -7   38.45    2.32
  -4  -4   7   36.92    1.89
  -5  -4  -7    0.24    0.85
   5  -4   7    2.45    1.28
  -5  -4  -7    7.03    2.84
  -5  -4   7    3.63    1.50
   5  -4  -7    3.32    1.96
   6   4  -7    1.02    2.10
  -6  -4  -7    1.78    1.07
   6  -4  -7    3.20    1.71
  -6  -4   7    3.99    1.26
   7  -4   7    0.51    2.11
   7   4  -7   -0.96    2.39
   7  -4  -7    0.51    1.80
  -7  -4   7    1.49    1.35
   8  -4   7    6.59    2.70
   8   4  -7    2.84    3.16
  -8  -4  -7    6.69    1.69
   8  -4  -7    5.57    2.24
  -8  -4   7    5.64    1.66
   0  -5   7    6.62    0.85
   0   5  -7    6.46    1.93
   1   5  -7   47.99    3.53
   1  -5   7   51.49    2.74
  -1  -5   7   55.38    2.26
  -1   5  -7   50.29    3.73
   2  -5   7   33.79    2.33
  -2  -5  -7   29.25    1.54
   2   5  -7   31.45    3.07
  -2  -5   7   32.67    1.68
  -2   5  -7   30.13    3.54
   3  -5   7    0.09    1.08
  -3  -5  -7    1.96    0.61
   3   5  -7    0.33    1.62
   3  -5  -7    1.43    0.96
  -3   5  -7    2.44    2.35
  -3  -5   7    0.61    0.71
  -4  -5  -7    2.40    0.76
   4   5  -7    3.55    1.99
  -4  -5  -7    5.49    2.15
   4  -5   7    5.48    1.54
   4  -5  -7    3.12    1.16
  -4  -5   7    4.35    0.94
  -5  -5  -7    5.46    0.96
   5   5  -7    4.90    2.28
   5  -5   7    5.22    1.62
  -5  -5   7    3.86    1.15
  -5   5  -7    1.92    3.06
   5  -5  -7    3.84    1.49
   6   5  -7    1.91    2.43
  -6  -5  -7    0.85    1.34
   6  -5   7   -0.92    1.75
  -6   5  -7    2.43    3.43
   6  -5  -7    0.25    1.69
  -6  -5   7    0.86    1.27
  -7  -5  -7    5.41    1.57
   7  -5   7    3.52    2.16
   7   5  -7    5.29    2.81
   7  -5  -7    2.38    2.00
  -7  -5   7    2.62    1.48
   0   6  -7   23.41    3.14
   0  -6   7   23.23    1.48
   1   6  -7   20.23    2.94
   1  -6   7   20.70    1.93
  -1  -6   7   20.03    1.42
  -1   6  -7   19.91    2.97
   2   6  -7    6.11    2.24
  -2  -6  -7    5.50    0.90
  -2  -6   7    5.26    0.87
  -2   6  -7    4.90    2.48
   3  -6   7   21.81    2.51
  -3  -6  -7   20.32    1.36
   3   6  -7   17.35    2.54
   3  -6  -7   19.95    1.76
   4  -6   7    4.08    1.74
   4   6  -7    4.44    2.46
  -4  -6  -7    4.35    2.42
  -4  -6  -7    3.01    0.81
  -4  -6   7    1.87    1.10
   4  -6  -7    4.20    1.35
  -4   6  -7    5.44    3.42
   5   6  -7    2.40    2.76
   5  -6   7    2.25    2.08
  -5   6  -7    1.03    3.40
  -5  -6   7    1.70    1.09
   5  -6  -7    2.26    1.52
   6  -6   7   25.53    3.29
  -6  -6  -7   29.54    2.20
   6   6  -7   23.55    3.69
  -6  -6   7   22.54    2.20
   6  -6  -7   25.22    2.81
  -6   6  -7   24.58    4.90
  -7  -6  -7   11.53    1.92
   7  -6   7   10.17    2.53
   7   6  -7   13.77    3.84
  -7   6  -7    7.47    4.49
   7  -6  -7    9.84    2.31
  -7  -6   7   10.94    2.00
   0  -7   7   10.32    1.32
   0   7  -7    9.36    2.73
   1   7  -7    8.56    2.87
   1  -7   7    7.35    1.76
  -1   7  -7    7.95    2.94
   2  -7   7    3.20    1.54
  -2  -7   7    5.37    1.07
   2  -7  -7    0.58    1.11
   3  -7   7   10.65    2.07
   3   7  -7    9.67    3.39
  -3  -7  -7   12.47    1.46
  -3   7  -7    3.80    3.43
  -3  -7   7    9.36    1.37
   4   7  -7    5.75    3.27
   4  -7   7    4.44    1.98
  -4  -7  -7    3.08    1.03
  -4  -7   7    3.73    1.25
  -4   7  -7    2.31    3.80
   4  -7  -7    4.41    1.59
  -5  -7  -7   10.12    1.46
   5   7  -7   11.30    3.38
   5  -7   7   14.99    2.77
  -5  -7   7   12.97    1.74
   5  -7  -7   14.89    2.34
  -5   7  -7   15.60    4.71
  -6  -7  -7    7.05    1.65
   6   7  -7   10.65    3.76
   6  -7   7    8.25    2.65
   6  -7  -7    5.36    2.12
  -6   7  -7   15.12    4.90
  -6  -7   7    4.27    1.48
   0  -8   7   -1.09    1.05
   0   8  -7   -4.61    3.44
   1   8  -7    9.51    3.51
  -1  -8   7   17.00    1.82
  -1   8  -7   19.06    4.17
   2   8  -7    0.58    3.24
   2  -8   7    2.62    1.64
  -2  -8  -7    4.95    1.30
  -2   8  -7    9.57    4.02
  -2  -8   7    5.39    1.29
  -3  -8  -7    4.74    1.26
   3   8  -7    6.16    3.64
   3  -8   7    4.94    2.04
   3  -8  -7    8.14    1.79
  -3   8  -7    6.01    4.29
  -3  -8   7    3.62    1.23
  -4  -8  -7    3.44    1.20
   4   8  -7    6.31    3.82
   4  -8   7    4.53    2.17
   4  -8  -7    4.44    1.87
  -4  -8   7    3.42    1.38
  -4   8  -7    6.34    4.61
   0  -9   7   21.05    2.16
   0   9  -7   20.82    4.85
   1   9  -7    3.72    4.29
  -1  -9   7   12.18    1.71
  -1   9  -7   10.99    4.74
   2   9  -7    6.18    4.55
  -2  -9  -7    2.44    1.31
   2  -9   7   -0.42    1.71
  -2  -9   7    3.07    1.41
  -2   9  -7    6.29    5.06
   2  -9  -7    3.16    1.52
   0   0  -8  280.06    9.59
   0   0  -8  272.89    9.12
   1   0  -8   22.41    2.18
  -1   0  -8   23.14    1.72
  -1   0  -8   21.41    2.38
  -2   0   8   16.57    1.07
  -2   0  -8   17.53    1.93
   2   0  -8   17.37    2.01
  -3   0   8    1.81    0.73
   3   0  -8    2.63    1.40
   3   0   8    3.37    0.91
   4   0  -8   10.73    1.81
   4   0   8   15.07    1.59
  -4   0   8   10.22    1.21
   5   0   8   28.23    2.33
  -5   0   8   28.52    1.77
   6   0  -8   -0.11    1.72
   6   0   8    2.82    1.49
  -6   0   8    5.73    1.58
   7   0  -8    9.32    2.40
   7   0   8   16.28    2.25
  -7   0   8   15.39    1.82
  -8   0   8    3.67    1.65
   8   0   8    2.53    2.32
   8   0  -8    1.53    2.50
   0   1  -8   15.52    1.90
   0  -1  -8   14.00    1.65
   0  -1  -8   13.63    1.12
   1   1  -8   50.54    2.99
  -1  -1  -8   47.61    2.18
  -1  -1  -8   47.57    2.81
   1  -1  -8   49.80    1.85
   1  -1  -8   51.27    2.68
  -1   1  -8   46.59    2.95
   2  -1   8   18.92    1.40
  -2  -1  -8   18.48    1.71
   2   1  -8   16.39    2.24
  -2  -1   8   14.80    1.04
  -2   1  -8   19.82    2.66
   2  -1  -8   16.34    1.88
  -3  -1  -8   29.89    2.41
   3   1  -8   34.33    2.67
   3  -1   8   30.18    1.97
   3  -1  -8   36.25    2.36
  -3  -1   8   35.34    1.65
   4  -1   8    2.49    1.10
  -4   1   8    2.48    0.87
   4   1  -8    2.05    1.47
   4  -1  -8    0.07    1.06
  -4  -1   8    3.00    0.81
   4   1   8    2.70    1.02
  -5   1   8   25.17    1.70
  -5  -1  -8   26.35    1.41
   5  -1   8   20.72    2.12
  -5  -1   8   24.11    1.65
   5   1   8   26.38    2.13
   6   1  -8    5.23    2.15
   6  -1   8    5.27    1.59
  -6  -1  -8    7.31    1.07
   6  -1  -8    3.33    1.88
   6   1   8    6.01    1.58
   7  -1   8    9.72    2.16
  -7   1   8   11.94    1.76
  -7  -1  -8   10.55    1.39
   7   1  -8    7.41    2.34
  -7  -1   8   10.04    1.73
   7   1   8   13.17    2.17
   7  -1  -8    9.20    2.43
  -8  -1  -8    1.41    1.39
  -8   1   8   -0.27    1.26
   8   1  -8   -0.13    2.36
   8  -1   8    3.56    2.35
   8  -1  -8    1.73    2.17
  -8  -1   8   -0.72    1.25
   8   1   8    3.22    2.55
   0   2  -8    6.88    1.87
   0  -2  -8    5.37    0.69
   1   2  -8   11.13    1.90
  -1  -2  -8    9.97    1.09
  -1  -2   8    9.51    0.81
  -1   2  -8   15.03    2.23
   1  -2  -8    9.73    1.45
   1  -2  -8   10.70    1.06
   2  -2   8   87.14    3.54
  -2  -2  -8   88.19    3.37
   2   2  -8   86.32    4.26
   2  -2  -8   89.23    3.63
  -2  -2   8   82.21    3.08
  -2   2  -8   84.42    4.61
   3  -2   8    1.21    0.99
  -3  -2  -8   -0.08    1.31
   3   2  -8    0.68    1.42
   3  -2  -8    0.64    1.07
  -3  -2   8    0.16    0.67
  -4  -2  -8   21.61    2.41
   4  -2   8   25.75    2.13
   4   2  -8   28.80    2.71
   4  -2  -8   31.48    2.29
  -4  -2   8   26.30    1.57
  -5  -2  -8   26.47    1.56
   5   2  -8   26.36    2.90
   5  -2   8   28.21    2.35
  -5  -2   8   28.47    1.77
   6  -2   8   13.05    1.92
  -6  -2  -8   13.86    1.44
   6   2  -8    7.64    2.06
   6  -2  -8   11.09    2.33
   6   2   8   13.73    1.83
  -6  -2   8   14.07    1.79
   7  -2   8    0.11    1.82
  -7  -2  -8   -0.55    1.18
   7   2  -8   -1.53    2.26
  -7  -2   8   -0.31    1.38
   7   2   8   -2.70    1.92
   7  -2  -8    2.57    2.15
  -8  -2  -8    3.89    2.62
   8   2  -8    7.79    2.78
  -8  -2   8    4.78    1.61
   8  -2  -8    5.13    2.35
   8   2   8   -0.66    2.41
   0   3  -8    8.13    1.99
   0  -3   8    5.34    0.65
   1   3  -8   34.94    2.88
   1  -3   8   32.07    1.31
  -1  -3   8   30.68    1.41
  -1   3  -8   27.98    3.04
  -2  -3  -8    1.04    0.40
   2   3  -8    0.02    1.71
   2  -3   8    1.22    1.01
  -2   3  -8    2.15    1.84
  -2  -3   8    0.34    0.56
   2  -3  -8    0.95    0.96
   3  -3   8  101.94    4.36
  -3  -3  -8  100.31    3.55
  -3  -3  -8  101.23    4.04
   3   3  -8  108.65    4.98
  -3  -3   8  101.40    3.77
   3  -3  -8  102.37    4.12
  -3   3  -8  108.24    5.45
  -4  -3  -8    8.08    1.95
   4  -3   8    7.21    1.47
  -4  -3  -8    8.52    0.95
   4   3  -8    8.84    2.03
   4  -3  -8    8.28    1.54
  -4  -3   8    9.34    1.13
   5  -3   8   -0.27    1.31
  -5  -3  -8   -0.70    0.83
   5   3  -8    0.53    1.78
  -5  -3  -8   -2.01    2.85
   5  -3  -8    0.15    1.55
  -5  -3   8   -0.29    0.79
   6  -3   8   14.91    2.06
   6   3  -8   13.71    2.49
  -6  -3  -8   13.51    1.54
   6  -3  -8   17.10    2.34
  -6  -3   8   13.34    1.70
  -7  -3  -8   10.47    1.49
   7   3  -8    8.86    2.68
  -7  -3   8   11.50    1.81
   7  -3  -8   12.32    2.34
  -8  -3  -8    5.73    1.82
   8  -3   8    7.47    2.93
   8   3  -8    7.49    3.11
  -8  -3   8    7.12    1.91
   8  -3  -8    8.80    2.62
   0  -4   8   28.54    1.40
   0   4  -8   31.50    3.11
   1  -4   8   17.04    1.71
   1   4  -8   17.89    2.47
   1  -4   8   17.26    1.07
  -1  -4   8   17.19    1.11
  -1   4  -8   17.19    2.51
  -2  -4  -8   45.04    1.85
   2   4  -8   46.34    3.49
   2  -4   8   45.57    2.65
   2  -4  -8   45.58    2.22
  -2  -4   8   45.86    2.03
  -2   4  -8   48.26    3.83
   3  -4   8   15.37    1.95
   3   4  -8   13.53    2.28
  -3  -4  -8   15.66    1.04
   3  -4  -8   13.31    1.72
  -3  -4   8   14.32    1.20
  -3   4  -8   13.19    2.59
   4  -4   8    7.62    1.49
  -4  -4  -8   11.75    2.07
   4   4  -8    0.90    3.61
  -4  -4  -8    6.71    0.92
   4  -4  -8    6.45    1.45
  -4   4  -8    7.35    2.84
  -4  -4   8    8.71    1.17
   5   4  -8   17.59    2.88
  -5  -4  -8   20.41    1.60
   5  -4   8   19.46    2.41
  -5  -4   8   19.29    2.48
  -5   4  -8   16.40    3.50
   5  -4  -8   19.88    2.38
  -6  -4  -8   10.12    1.35
   6  -4   8    8.68    2.47
   6   4  -8    3.58    2.47
  -6  -4   8    7.55    1.51
   6  -4  -8    5.24    1.95
   7   4  -8   10.83    2.99
   7  -4   8    8.44    2.46
  -7  -4  -8    5.47    2.25
   7  -4  -8   10.16    2.20
  -7  -4   8    9.70    1.64
   0  -5   8    4.19    0.73
   0   5  -8    4.38    2.13
   1  -5   8   40.28    2.58
   1   5  -8   47.32    3.60
  -1  -5   8   47.14    2.04
  -1   5  -8   46.18    3.85
   2   5  -8    5.66    2.06
   2  -5   8    2.01    1.11
  -2  -5  -8    4.96    0.70
  -2  -5   8    5.75    0.88
  -2   5  -8    2.38    2.32
   3  -5   8    2.22    1.26
  -3  -5  -8    0.25    0.61
  -3  -5   8    1.38    0.80
  -3   5  -8    6.06    3.94
   3  -5  -8    0.27    1.03
  -4  -5  -8   29.69    1.63
   4   5  -8   24.56    3.27
  -4  -5  -8   23.56    3.20
  -4   5  -8   26.73    3.94
   5  -5   8    0.05    1.57
  -5  -5  -8    1.45    0.99
   5   5  -8    0.61    2.35
  -5  -5   8    0.86    1.09
   5  -5  -8    3.40    1.57
  -5   5  -8    3.76    3.30
   6  -5   8   10.60    2.40
  -6  -5  -8    6.01    1.41
   6   5  -8    8.39    2.89
  -6   5  -8    6.39    3.71
  -6  -5   8   11.40    1.73
   6  -5  -8    7.64    2.02
  -7  -5  -8    3.96    1.56
   7   5  -8    4.24    3.21
   7  -5   8    1.97    2.18
  -7   5  -8   -3.86    4.01
  -7  -5   8    3.81    1.62
   7  -5  -8    3.35    2.14
   0  -6   8   37.21    1.93
  -1  -6   8    8.82    1.12
  -2  -6  -8    5.32    0.92
   2  -6   8    4.83    1.61
   2   6  -8    2.50    2.83
  -2  -6   8    5.12    0.99
  -2   6  -8   10.35    3.15
   3   6  -8   14.27    2.87
  -3  -6  -8   26.59    1.56
   3  -6   8   22.70    2.73
  -3   6  -8   24.95    4.09
   3  -6  -8   23.08    1.79
   4   6  -8    5.27    3.00
  -4  -6  -8    2.58    0.87
   4  -6   8    5.13    1.92
   4  -6  -8    2.77    1.32
  -4  -6   8    4.69    1.20
  -4   6  -8    3.42    3.71
   5  -6   8   13.52    2.35
   5   6  -8    9.00    3.23
  -5   6  -8   11.82    4.08
  -5  -6   8   10.67    1.73
   5  -6  -8   11.69    1.92
  -6  -6  -8    2.88    1.50
   6  -6   8    2.18    2.22
   6   6  -8    3.38    2.74
   6  -6  -8    0.61    1.66
  -6  -6   8    0.87    1.39
  -6   6  -8    2.05    3.96
   0   7  -8   11.06    3.31
   1   7  -8   10.96    3.36
  -1   7  -8    5.97    3.28
  -1  -7   8    8.62    1.33
   2   7  -8    9.74    3.32
   2  -7   8   10.09    2.31
  -2  -7   8    7.44    1.23
  -2   7  -8    9.14    3.85
   3   7  -8    6.74    3.35
  -3  -7  -8    2.71    1.06
   3  -7   8    2.71    1.97
  -3   7  -8    0.71    3.66
  -3  -7   8    2.84    1.21
  -4  -7  -8    8.50    1.31
   4  -7   8    6.23    2.39
   4   7  -8    2.40    3.23
   4  -7  -8    7.22    1.74
  -4  -7   8    3.70    1.35
  -4   7  -8    4.18    4.15
   5   7  -8    0.28    3.49
  -5  -7  -8    1.29    1.32
   5  -7   8    0.30    2.26
  -5  -7   8    1.53    1.32
   5  -7  -8    1.38    1.74
  -5   7  -8   -0.93    4.16
   0   8  -8    0.16    3.84
   0  -8   8   -3.10    1.14
   1  -8   8   18.02    2.02
   1   8  -8   15.17    4.01
  -1  -8   8   13.78    1.73
  -1   8  -8   11.21    4.11
   2   8  -8    4.35    3.57
  -2  -8  -8    0.42    1.17
   2  -8   8    1.55    1.93
  -2   8  -8   -0.34    4.04
  -2  -8   8    1.07    1.04
  -3  -8  -8    5.45    1.37
   3  -8   8    2.08    1.93
   3   8  -8    3.11    3.93
  -3   8  -8    6.31    4.63
  -3  -8   8    5.41    1.44
   4  -8   8    4.72    2.25
   4   8  -8    1.04    3.88
  -4  -8  -8    6.35    1.45
  -4   8  -8    4.02    4.54
  -4  -8   8    4.69    1.57
   4  -8  -8    2.58    1.82
   0  -9   8   -1.80    1.32
   0   0  -9    0.94    1.03
  -1   0  -9   28.61    2.19
   1   0  -9   27.16    1.92
  -1   0  -9   33.47    2.63
   1   0  -9   31.13    2.55
  -2   0  -9   35.75    2.57
   2   0  -9   36.00    2.69
  -2   0  -9   37.40    3.18
  -2   0   9   37.20    1.67
  -3   0   9    2.79    0.81
   3   0  -9    1.27    1.49
   4   0   9    5.96    1.23
  -4   0   9    5.09    1.02
   4   0  -9    6.58    1.67
   5   0  -9   24.69    2.88
  -5   0   9   24.44    1.79
   5   0   9   30.27    2.29
   6   0   9   21.19    2.63
   6   0  -9   17.52    2.73
  -6   0   9   21.33    2.55
   7   0  -9   10.08    2.74
   7   0   9   11.74    2.23
  -7   0   9    7.98    1.87
   8   0  -9   14.98    3.13
  -8   0   9   19.39    2.35
   0  -1  -9   27.26    1.66
   0  -1  -9   29.33    2.30
   0   1  -9   30.89    2.69
  -1  -1  -9   35.02    2.04
   1   1  -9   37.91    2.79
  -1  -1  -9   34.81    2.59
  -1   1  -9   35.59    2.99
   1  -1  -9   36.44    2.51
  -2  -1  -9   -0.67    1.35
   2   1  -9    4.28    1.77
  -2  -1   9    3.03    0.67
   2  -1  -9    1.28    1.35
  -2   1  -9    1.96    1.84
  -3  -1  -9   21.80    2.53
   3   1  -9   24.10    2.45
   3  -1   9   19.17    1.76
  -3  -1   9   21.01    1.38
   3  -1  -9   21.04    2.27
   4  -1   9   35.52    2.36
  -4  -1   9   38.38    1.99
   4  -1  -9   39.50    2.76
   5   1  -9   10.92    2.23
  -5   1   9   10.90    1.43
   5   1   9   14.22    1.58
  -5  -1   9    9.78    1.30
   5  -1  -9   11.42    1.98
   6   1  -9    8.59    2.53
   6  -1   9    6.03    1.82
  -6   1   9    6.97    1.50
  -6  -1   9   10.90    1.59
   6   1   9   13.79    1.97
   6  -1  -9    6.93    2.23
  -7  -1  -9   13.69    1.49
   7   1  -9    6.96    2.60
   7  -1   9   10.79    2.22
  -7   1   9   10.74    1.94
  -7  -1   9    8.32    1.67
   7  -1  -9    6.80    2.48
  -8  -1  -9   16.39    2.14
   8   1  -9   12.18    3.09
  -8   1   9   12.95    2.07
   8  -1   9   17.91    2.98
   8  -1  -9   15.04    2.96
  -8  -1   9   13.59    2.08
   0  -2  -9   33.51    2.27
   0   2  -9   30.11    2.94
   0  -2  -9   30.64    1.60
  -1  -2  -9   10.71    1.67
  -1  -2  -9    7.55    1.07
   1   2  -9    7.53    1.89
   1  -2  -9    8.57    1.63
  -1   2  -9    7.45    2.29
   2   2  -9   73.03    4.22
   2  -2   9   69.99    3.21
  -2  -2  -9   71.23    3.10
   2  -2  -9   78.12    3.46
  -2  -2   9   71.27    2.72
  -2   2  -9   76.15    4.35
  -3  -2  -9   37.04    2.67
   3  -2   9   37.19    2.36
   3   2  -9   40.47    3.09
  -3   2  -9   39.98    3.74
  -3  -2   9   41.35    1.88
   3  -2  -9   40.60    2.55
  -4  -2  -9    6.66    2.28
   4  -2   9    7.33    1.45
   4   2  -9    1.26    2.38
   4  -2  -9    3.67    1.44
  -4  -2   9    7.00    1.05
   5  -2   9    6.82    1.62
   5   2  -9    6.23    2.17
   5  -2  -9    8.78    2.05
  -5  -2   9    7.25    1.21
  -6  -2  -9    0.85    1.04
   6  -2   9   -0.07    1.69
   6   2  -9    1.70    2.08
  -6  -2   9    3.29    1.27
   6  -2  -9   -1.82    1.85
  -7  -2  -9    6.40    1.32
   7  -2   9    4.51    2.00
   7   2  -9    3.38    2.42
   7  -2  -9    1.91    2.08
  -7  -2   9    5.59    1.64
  -8  -2  -9    0.19    1.51
   8   2  -9    0.56    2.92
   8  -2  -9   -0.47    2.15
  -8  -2   9    1.51    1.64
   0  -3   9    7.36    0.79
   0   3  -9    8.44    2.15
   1   3  -9   16.64    2.36
  -1   3  -9   19.18    2.77
  -1  -3   9   16.78    1.07
   2   3  -9   52.10    3.79
   2  -3   9   58.83    2.90
  -2   3  -9   58.46    4.15
   2  -3  -9   55.93    2.76
  -2  -3   9   55.72    2.29
   3  -3   9    4.54    1.41
  -3  -3  -9    6.35    1.64
   3  -3  -9    6.29    1.36
  -3  -3   9    4.04    0.90
  -4  -3  -9    3.55    2.10
   4  -3   9    2.39    1.37
   4   3  -9    2.38    2.05
  -4   3  -9    1.50    2.49
   4  -3  -9    0.53    1.41
  -4  -3   9    1.24    0.83
   5   3  -9    4.05    2.23
   5  -3   9    5.39    1.51
  -5  -3  -9    3.11    0.98
   5  -3  -9    3.48    1.81
  -5  -3   9    3.97    1.08
   6   3  -9   17.45    3.09
  -6  -3  -9   20.50    1.72
   6  -3   9   23.76    2.80
   6  -3  -9   21.79    3.02
  -6  -3   9   17.49    2.03
   7   3  -9   -1.58    2.59
  -7  -3  -9    2.29    1.36
  -7  -3   9    3.68    1.54
   7  -3  -9    1.39    2.04
   0  -4   9   49.66    2.00
   0   4  -9   47.85    3.83
   1  -4   9   14.99    1.04
   1   4  -9   15.16    2.44
  -1   4  -9   21.40    2.93
  -1  -4   9   19.22    1.21
  -2  -4  -9    2.20    0.58
   2  -4   9    1.72    1.13
  -2  -4   9    1.72    0.75
   2  -4  -9    3.44    1.11
  -3  -4  -9    2.54    0.69
   3   4  -9    2.32    1.85
   3  -4   9    2.18    1.26
   3  -4  -9    0.40    1.15
  -3   4  -9    1.99    2.40
  -3  -4   9    1.90    0.83
  -4  -4  -9    6.29    2.16
   4   4  -9    8.69    2.44
  -4  -4  -9    4.26    0.92
   4  -4   9    4.31    1.48
  -4  -4   9    4.37    0.99
  -4   4  -9    2.77    2.79
   5  -4   9   13.16    1.99
  -5  -4  -9   14.78    1.53
   5   4  -9   12.12    2.74
   5  -4  -9   15.42    2.15
  -5  -4   9   16.35    1.69
  -5   4  -9    9.26    3.36
   6  -4   9   11.22    2.35
  -6  -4  -9   11.79    1.45
   6   4  -9    5.17    2.35
  -6  -4   9   10.95    1.65
   6  -4  -9    9.54    2.14
   7  -4   9   12.26    2.90
   7   4  -9   10.76    3.19
  -7  -4  -9    8.51    1.63
   7  -4  -9   11.13    2.59
  -7  -4   9   10.59    1.75
   0  -5   9    5.65    0.84
   0   5  -9    3.78    3.19
   1   5  -9   17.86    2.97
   1  -5   9   21.45    1.36
  -1   5  -9   18.84    3.46
  -1  -5   9   21.04    1.40
   2  -5   9    1.83    1.11
  -2  -5  -9    1.57    0.66
   2   5  -9   -1.65    2.40
  -2   5  -9   -2.72    2.63
  -2  -5   9    0.02    0.77
   3  -5   9    1.36    1.39
   3   5  -9    2.18    2.45
  -3  -5  -9    1.29    0.69
   3  -5  -9    0.46    1.11
  -3  -5   9    1.15    0.85
  -3   5  -9    2.22    3.18
   4   5  -9   16.71    3.32
   4  -5   9   16.85    4.07
  -4  -5  -9   17.28    1.44
  -4  -5   9   13.73    1.72
   4  -5  -9   18.41    2.22
  -4   5  -9   15.26    3.65
  -5  -5  -9   26.36    1.91
   5  -5   9   24.99    3.34
   5   5  -9   30.78    4.26
   5  -5  -9   28.60    2.76
  -5   5  -9   22.34    4.15
  -5  -5   9   26.89    2.16
   6   5  -9    0.27    2.56
  -6  -5  -9    4.51    1.40
   6  -5   9    3.76    2.24
  -6  -5   9    4.01    1.57
   6  -5  -9    1.73    1.88
  -6   5  -9    2.62    3.81
   0   6  -9   24.03    3.68
   0  -6   9   25.27    1.60
   1   6  -9   11.83    3.08
   1  -6   9   12.46    1.30
  -1  -6   9   11.46    1.28
  -1   6  -9   13.50    3.65
   2  -6   9    6.75    1.63
   2   6  -9    4.70    2.98
  -2  -6  -9    7.03    1.02
  -2  -6   9    5.74    1.03
  -2   6  -9    5.53    3.50
   3   6  -9    4.80    2.72
  -3  -6  -9   10.10    1.23
   3  -6   9    8.04    2.02
  -3   6  -9    8.08    3.87
   3  -6  -9    7.81    1.35
  -3  -6   9    7.08    1.32
  -4  -6  -9   11.13    1.32
   4  -6   9   11.64    2.30
   4   6  -9    8.84    3.33
  -4  -6   9    8.30    1.47
  -4   6  -9    9.61    3.83
   4  -6  -9   12.13    1.74
   5  -6   9    3.48    2.47
   5   6  -9    3.41    3.04
  -5  -6   9    2.93    1.47
   5  -6  -9    2.40    1.69
  -5   6  -9   -1.76    3.44
  -6  -6  -9   -0.06    1.59
   6  -6   9    1.66    2.47
  -6  -6   9    1.08    1.54
  -6   6  -9    3.02    4.22
   6  -6  -9    2.10    1.86
   0   7  -9   13.46    3.72
   1   7  -9   10.54    3.90
   1  -7   9   14.08    1.64
  -1   7  -9    5.84    3.67
  -1  -7   9   13.72    1.59
   2  -7   9    9.05    2.23
   2   7  -9   10.33    3.51
  -2   7  -9   12.75    4.41
  -2  -7   9    6.65    1.40
   3   7  -9    8.78    3.24
   3  -7   9   11.14    2.39
  -3  -7  -9   13.48    1.57
  -3  -7   9    8.25    1.52
  -3   7  -9    7.18    4.35
   4   7  -9    3.31    3.38
  -4  -7  -9    3.37    1.28
   4  -7   9    1.83    2.03
   4  -7  -9    2.36    1.73
  -4  -7   9    3.70    1.44
  -4   7  -9    5.68    4.41
   0  -8   9    1.92    1.34
   0   8  -9    3.48    4.08
   1  -8   9    6.99    1.55
   1   8  -9    6.42    3.88
  -1  -8   9    3.69    1.33
  -1   8  -9    6.83    4.35
  -2  -8  -9   17.91    2.07
   2  -8   9   25.83    3.27
   2   8  -9   12.94    4.11
  -2  -8   9   17.26    2.08
  -3  -8  -9    4.22    1.38
   3  -8   9    2.94    2.13
  -3  -8   9    1.80    1.47
   0   0 -10    5.38    1.86
   0   0 -10    6.65    1.49
  -1   0 -10   54.03    3.09
   1   0 -10   50.80    3.25
  -1   0 -10   51.00    3.46
   2   0 -10   24.48    2.62
  -2   0 -10   25.95    3.07
   3   0 -10   24.74    2.80
  -3   0  10   27.92    1.64
   4   0 -10   26.72    2.94
  -4   0  10   22.94    1.70
   4   0  10   26.57    2.13
   5   0  10    8.28    1.63
  -5   0  10    6.45    1.22
   5   0 -10    5.30    1.92
   6   0  10    3.43    1.92
   6   0 -10    2.65    2.13
  -6   0  10    3.28    1.36
  -7   0  10    2.08    1.53
   7   0 -10    2.07    2.39
   7   0  10    3.11    2.30
   0  -1 -10   37.72    2.75
   0   1 -10   34.16    3.10
   0  -1 -10   37.36    2.13
  -1  -1 -10    6.43    1.77
   1   1 -10    4.94    1.82
  -1  -1 -10    5.86    1.39
   1  -1 -10    5.04    1.27
   1  -1 -10    5.33    1.69
  -1   1 -10    5.61    2.08
  -2  -1 -10   23.98    2.68
  -2  -1 -10   27.07    3.02
   2   1 -10   31.79    2.95
  -2   1 -10   25.41    3.12
   2  -1 -10   25.08    2.49
  -2  -1  10   27.60    1.42
   3  -1  10    7.95    1.57
  -3  -1  10   10.36    1.07
   3  -1 -10   12.81    1.95
  -3   1 -10    6.66    3.28
   4   1 -10   14.20    2.61
   4  -1  10   16.19    2.03
  -4  -1  10   13.78    1.40
   4  -1 -10   16.95    2.32
   5   1 -10    2.80    1.96
   5  -1  10    3.24    1.54
  -5  -1  10    4.46    1.04
   5  -1 -10    1.66    1.86
   6  -1  10   16.96    2.33
   6   1 -10   16.48    2.68
  -6  -1  10   17.25    1.92
   6  -1 -10   19.48    2.93
   7   1 -10    1.66    2.60
   7  -1  10    1.36    2.26
   7  -1 -10    1.43    2.38
   7   1  10    0.76    2.73
  -7  -1  10    1.83    1.44
   0   2 -10   20.57    2.64
   0  -2 -10   18.67    1.58
   0  -2 -10   21.80    2.26
  -1  -2 -10   35.89    2.19
   1   2 -10   33.33    3.06
  -1  -2 -10   37.05    2.63
  -1   2 -10   34.31    3.28
   1  -2 -10   34.64    2.63
  -2  -2 -10   11.92    1.73
   2   2 -10   10.27    2.76
   2  -2 -10    9.55    1.71
  -2   2 -10    8.38    2.48
  -2  -2  10    9.31    1.06
   3  -2  10   28.28    2.09
  -3  -2 -10   29.62    2.76
   3   2 -10   24.41    3.07
  -3  -2  10   24.74    1.56
   3  -2 -10   20.42    2.32
  -3   2 -10   17.68    3.32
  -4  -2 -10   27.55    3.87
   4   2 -10   28.56    3.62
   4  -2  10   34.16    2.50
  -4  -2  10   32.64    1.91
  -4   2 -10   36.14    4.48
   4  -2 -10   35.52    3.02
   5  -2  10    6.14    1.76
   5   2 -10    4.44    2.36
   5  -2 -10    8.36    2.18
  -5  -2  10    8.89    1.27
   6  -2  10    2.56    1.88
   6   2 -10   -1.69    2.25
   6  -2 -10    0.00    2.02
  -6  -2  10    1.69    1.39
   7   2 -10   -0.08    2.48
   7  -2  10    1.42    2.28
   7  -2 -10    3.25    2.44
  -7  -2  10    2.01    1.58
  -1  -3  10    2.88    0.71
   2   3 -10   35.76    3.62
   2  -3 -10   33.07    2.23
  -2  -3  10   34.54    1.70
  -2   3 -10   31.70    3.96
   3  -3  10   16.93    2.06
  -3  -3 -10   18.26    2.01
   3   3 -10   14.71    2.86
  -3   3 -10   11.64    3.11
  -3  -3  10   16.57    1.34
   3  -3 -10   15.49    1.98
  -4  -3 -10   10.50    2.48
   4   3 -10    3.49    2.39
   4  -3  10    6.67    1.73
  -4   3 -10    2.39    2.95
   4  -3 -10    7.47    1.86
  -4  -3  10    8.15    1.17
   5  -3  10    4.41    1.66
   5   3 -10   -0.39    2.21
  -5   3 -10    0.05    2.92
   5  -3 -10    2.50    2.00
   6   3 -10    5.16    2.39
   6  -3  10    5.61    3.44
  -6  -3  10    8.81    1.72
   6  -3 -10    3.81    2.15
   7   3 -10    4.69    3.06
  -7  -3 -10   10.78    1.63
   7  -3 -10    6.45    2.41
  -7  -3  10    6.82    1.74
   0  -4  10   24.80    1.35
   0   4 -10   25.61    3.59
   1   4 -10    9.79    2.61
  -1   4 -10    4.34    2.83
  -1  -4  10    5.90    0.84
   2   4 -10   15.73    2.99
  -2  -4  10   12.85    1.27
  -2   4 -10   10.44    3.12
   3  -4  10    9.18    1.68
   3   4 -10    9.74    2.88
   3  -4 -10   10.09    1.71
  -3  -4  10    8.92    1.19
  -3   4 -10   10.08    3.35
   4   4 -10    6.17    2.75
   4  -4  10    5.43    1.55
  -4   4 -10    6.77    3.40
  -4  -4  10    7.88    1.22
   4  -4 -10    7.75    1.81
  -5  -4 -10    8.49    1.27
   5  -4  10    9.81    2.07
   5   4 -10    7.22    2.89
  -5  -4  10    9.64    1.58
  -5   4 -10    6.73    3.61
   5  -4 -10    8.39    2.00
   6  -4  10   27.00    3.20
  -6  -4 -10   20.94    1.96
   6   4 -10   12.84    3.03
   6  -4 -10   20.63    2.72
  -6  -4  10   16.73    2.15
  -6   4 -10   18.46    4.05
   0  -5  10   15.96    1.23
   0   5 -10   14.08    3.18
   1   5 -10    4.13    2.72
  -1   5 -10    6.34    3.22
  -1  -5  10    4.14    0.88
   2   5 -10   16.65    3.21
  -2  -5 -10   24.55    1.39
   2  -5  10   22.54    1.41
   2  -5  10   23.02    2.36
  -2  -5  10   17.81    1.52
  -2   5 -10   19.40    3.91
  -3  -5 -10    1.60    0.79
   3   5 -10    1.69    2.64
  -3  -5  10    1.88    0.96
  -3   5 -10    5.01    3.43
   3  -5 -10    2.33    1.30
   4  -5  10    9.62    2.24
  -4  -5 -10   11.17    1.44
   4   5 -10    8.42    3.14
  -4  -5  10   12.82    1.66
   4  -5 -10   10.06    1.80
  -4   5 -10    4.79    3.88
   5   5 -10   11.25    3.18
   5  -5  10    8.90    2.49
  -5  -5 -10   11.44    1.45
  -5  -5  10   11.00    1.73
   5  -5 -10    6.37    2.00
  -5   5 -10    3.89    3.64
   6  -5  10    0.04    2.66
   6   5 -10    2.87    2.77
  -6  -5 -10   -0.05    1.41
  -6  -5  10    2.10    1.55
   6  -5 -10    1.97    2.02
  -6   5 -10    1.56    4.11
   0   6 -10   28.35    4.17
   0  -6  10   32.81    1.83
   1   6 -10    6.71    3.51
   1  -6  10    4.71    0.99
  -1  -6  10    4.45    0.99
  -1   6 -10    5.33    3.68
   2   6 -10    3.75    3.11
  -2  -6 -10    4.49    0.96
   2  -6  10    4.01    0.99
  -2   6 -10    4.66    3.78
  -2  -6  10    3.06    1.03
   3   6 -10    1.32    2.67
   3  -6  10    2.57    1.98
  -3  -6 -10    2.95    0.95
  -3  -6  10    2.98    1.27
  -3   6 -10    1.39    3.87
  -4  -6 -10    6.95    1.21
   4   6 -10    5.58    3.33
   4  -6  10    8.90    2.65
  -4   6 -10   10.46    4.47
   4  -6 -10    8.20    1.84
  -4  -6  10    7.01    1.53
   5   6 -10    0.12    3.17
   5  -6  10    1.51    2.30
  -5  -6 -10   -1.82    1.46
  -5   6 -10   -1.41    3.84
   5  -6 -10    0.12    1.77
  -5  -6  10    1.73    1.56
   0   7 -10    0.32    3.65
   1   7 -10    3.57    3.70
  -1  -7  10    0.96    1.19
  -1   7 -10   -2.10    3.83
   2  -7  10   15.35    1.72
   2   7 -10   15.78    3.97
  -2  -7  10   10.00    1.55
  -2   7 -10   11.12    4.35
  -3  -7 -10   15.55    1.71
   3  -7  10   13.52    2.31
   3   7 -10    7.08    3.73
  -3  -7  10   11.78    1.79
  -3   7 -10   11.06    4.54
   0  -8  10    1.68    1.45
   0   8 -10    3.84    4.17
   0   0 -11    0.61    1.84
  -1   0 -11   36.24    3.29
   1   0 -11   38.71    3.12
  -2   0 -11   78.76    4.70
  -3   0 -11   19.03    3.18
   3   0 -11   19.99    2.79
  -4   0  11    6.86    1.26
   4   0 -11    6.59    2.39
   5   0 -11   -1.35    1.85
  -5   0  11    0.97    1.18
   5   0  11    4.77    1.68
  -6   0  11    8.56    1.77
   6   0 -11   10.13    2.72
   7   0 -11   -1.74    2.53
  -7   0  11    0.17    1.64
   7   0  11   -1.52    3.40
   0  -1 -11   93.45    4.00
   0  -1 -11   89.31    4.41
   0   1 -11   95.39    5.04
  -1  -1 -11   43.90    3.37
  -1  -1 -11   40.91    3.05
   1  -1 -11   41.50    2.67
   1  -1 -11   43.09    3.22
  -1   1 -11   46.78    5.33
  -2  -1 -11    7.53    2.30
   2   1 -11   10.59    2.52
  -2  -1 -11   10.03    2.42
  -2   1 -11    8.40    3.41
   2  -1 -11    8.28    1.94
   3   1 -11   11.73    2.48
  -3   1 -11   12.79    3.05
   3  -1 -11   15.54    2.48
  -3  -1  11   15.39    1.36
   4  -1  11    4.40    1.53
   4   1 -11    3.76    2.32
  -4  -1  11    4.80    1.10
   4  -1 -11    7.17    2.12
   5   1 -11   12.93    2.72
   5  -1  11   12.38    1.97
   5  -1 -11   13.57    2.61
  -5  -1  11   12.31    1.61
   6  -1  11    0.86    2.12
   6   1 -11    6.33    2.52
  -6  -1  11    9.12    1.72
   6  -1 -11    4.03    2.52
   7   1 -11    6.88    2.86
   7  -1 -11    8.37    2.76
  -7  -1  11    6.48    1.87
   0  -2 -11   38.73    2.73
   0   2 -11   36.58    3.88
   0  -2 -11   38.13    2.30
  -1  -2 -11   16.47    2.19
  -1  -2 -11   17.81    1.88
   1   2 -11   18.44    2.69
   1  -2 -11   14.66    1.95
  -1   2 -11   14.16    2.84
   1  -2 -11   18.29    2.47
   2   2 -11    8.86    2.70
  -2  -2 -11    8.45    1.96
  -2  -2 -11    5.18    2.19
  -2  -2  11   10.29    1.49
  -2   2 -11    5.04    2.80
   2  -2 -11   10.42    1.87
   3   2 -11    1.75    2.11
  -3  -2 -11    1.95    2.40
  -3   2 -11    7.18    3.10
  -3  -2  11    4.22    1.00
   4  -2  11    6.34    1.67
   4   2 -11    6.61    2.70
  -4  -2  11    7.17    1.21
  -4   2 -11    2.17    3.32
   4  -2 -11    7.34    2.08
   5  -2  11    5.08    1.83
   5   2 -11    1.62    2.39
  -5  -2  11    7.86    1.38
   5  -2 -11    5.80    2.31
   6   2 -11    9.74    3.06
   6  -2  11   14.05    2.40
   6  -2 -11    6.83    2.54
  -6  -2  11   13.07    1.88
   7   2 -11    8.43    3.06
   7  -2 -11   10.68    3.04
  -7  -2  11   12.10    2.01
   0   3 -11    2.96    2.53
   1   3 -11   16.77    2.94
  -1   3 -11   16.68    3.34
   1  -3 -11   19.30    2.06
  -2  -3 -11    6.08    2.03
   2   3 -11    3.46    2.58
   2  -3 -11    5.08    1.52
  -2   3 -11    4.25    3.16
  -3  -3 -11   10.03    2.34
   3  -3  11   10.45    1.76
   3   3 -11   12.26    2.82
  -3  -3  11   12.85    1.34
  -3   3 -11   10.04    3.28
   4   3 -11   16.38    3.21
   4  -3  11   21.25    3.24
   4  -3 -11   16.11    2.26
  -4  -3  11   14.90    1.55
  -4   3 -11   12.78    3.57
   5   3 -11    2.03    2.58
   5  -3  11    1.77    1.93
  -5  -3  11    4.41    1.47
  -5   3 -11   -2.11    3.32
   5  -3 -11    0.79    2.08
   6   3 -11    0.66    2.56
   6  -3  11    7.60    2.33
  -6  -3  11    4.29    1.60
  -6   3 -11    6.23    3.49
   6  -3 -11    5.32    2.51
   0   4 -11   -0.87    2.56
   1   4 -11    2.92    2.58
  -1  -4  11    1.92    0.88
  -1   4 -11    1.00    3.00
   2   4 -11    3.77    2.98
  -2  -4  11    9.16    1.22
   2  -4 -11    8.50    1.55
  -2   4 -11    8.96    3.42
   3  -4  11   19.08    2.39
   3   4 -11   13.55    3.02
  -3   4 -11   15.39    4.01
  -3  -4  11   15.55    1.52
   4   4 -11    7.81    3.14
   4  -4  11    9.81    1.93
   4  -4 -11   13.05    2.22
  -4   4 -11    8.95    3.41
  -4  -4  11   12.63    1.44
   5   4 -11   -1.20    2.87
  -5  -4  11   -0.02    1.34
  -5   4 -11   -2.66    3.27
   5  -4 -11   -0.30    1.96
   6  -4  11    1.03    2.87
   6   4 -11   -3.34    2.63
  -6   4 -11    0.91    3.80
  -6  -4  11    1.01    1.63
   6  -4 -11    2.01    2.17
   0   5 -11    5.25    2.81
   1   5 -11    8.32    3.08
  -1  -5 -11    6.77    1.00
   1  -5  11    4.18    0.87
  -1  -5  11    6.28    1.00
  -1   5 -11    9.57    3.48
  -2  -5 -11   13.66    1.25
   2   5 -11   10.57    3.11
  -2   5 -11   14.05    3.91
  -2  -5  11   12.10    1.46
   3   5 -11    2.25    2.78
   3  -5  11    2.19    2.01
  -3   5 -11    2.07    3.75
  -3  -5  11    2.89    1.15
   3  -5 -11    1.97    1.57
   4   5 -11    2.70    3.18
   4  -5  11   -2.97    1.91
  -4   5 -11   -5.75    3.54
   4  -5 -11    1.19    1.71
  -4  -5  11    2.26    1.41
   5   5 -11    4.33    3.18
   5  -5  11    0.45    2.35
  -5  -5  11    4.18    1.63
   5  -5 -11   -0.94    2.09
  -5   5 -11    0.19    3.83
   0   6 -11    5.75    3.36
   1  -6  11    3.50    1.02
   1   6 -11    3.26    3.44
  -1  -6  11    4.27    1.21
  -2  -6 -11    1.85    0.95
   2   6 -11    2.90    3.22
   2  -6  11    2.58    1.02
  -2   6 -11    0.07    3.78
  -3  -6 -11   10.56    1.29
   3   6 -11    8.80    3.20
   3  -6  11    9.31    1.29
   3  -6  11    8.82    2.47
  -3   6 -11    8.50    4.28
  -3  -6  11    3.78    1.53
   4  -6  11   -1.34    2.18
  -4  -6 -11    0.61    1.27
   4   6 -11    0.19    3.22
  -4   6 -11    0.32    4.23
  -4  -6  11    1.40    1.62
   4  -6 -11   -0.08    1.63
   0  -7  11   -2.25    1.56
   0   7 -11    6.97    3.89
   1  -7  11    5.51    2.00
   1   7 -11    2.53    4.06
  -1  -7  11    3.64    1.45
  -1   7 -11    4.77    4.10
   2   7 -11    3.57    3.67
   2  -7  11    2.57    1.24
  -2  -7  11   -0.45    1.49
  -2   7 -11   12.42    4.77
   0   0 -12   17.65    2.75
  -1   0 -12    8.30    2.35
   1   0 -12    6.66    2.27
   2   0 -12    4.15    2.30
  -2   0 -12    0.07    2.67
  -3   0 -12    4.61    3.09
   3   0 -12    4.13    2.44
   4   0 -12   31.94    3.89
  -4   0 -12   25.28    4.04
   5   0 -12   16.74    3.14
  -6   0  12    0.46    1.76
   6   0 -12   -1.21    2.68
   0  -1 -12    2.92    2.79
   0   1 -12    0.29    2.34
   0  -1 -12   -3.39    1.96
  -1  -1 -12   23.46    2.73
   1   1 -12   18.55    2.91
  -1   1 -12   21.67    3.27
   2   1 -12    9.73    2.60
  -2  -1 -12    7.83    2.65
  -2   1 -12   12.05    3.23
   2  -1 -12   11.80    2.22
   3   1 -12   28.26    3.60
  -3  -1 -12   33.04    4.41
   3  -1 -12   24.19    3.31
  -3   1 -12   24.47    3.97
   4   1 -12    3.45    2.43
  -4  -1  12    5.46    1.77
  -4   1 -12    2.31    3.42
   4  -1 -12    2.16    2.21
   5   1 -12    9.42    2.57
  -5  -1  12   14.28    1.60
   5  -1 -12   10.20    2.43
   6   1 -12    4.34    2.68
   6  -1  12    2.05    2.11
   6  -1 -12    3.40    2.63
  -6  -1  12    3.79    1.78
   0   2 -12    7.52    2.65
   0  -2 -12   11.50    1.84
   0  -2 -12    8.85    1.95
   1   2 -12    0.33    2.36
  -1  -2 -12    4.75    1.87
  -1  -2 -12    0.13    1.89
   1  -2 -12    4.88    1.89
  -1   2 -12    3.36    2.79
   1  -2 -12    6.54    1.97
   2   2 -12   31.11    4.07
  -2   2 -12   24.36    4.09
   2  -2 -12   31.80    3.62
  -3  -2 -12    4.07    2.67
   3   2 -12    4.32    2.42
  -3   2 -12    1.13    3.05
  -3  -2  12    1.97    0.96
   3  -2 -12    0.96    1.80
   4   2 -12    1.34    2.63
   4  -2 -12    6.22    2.16
  -4   2 -12    6.10    3.65
  -4  -2  12    8.41    1.81
   5   2 -12   16.63    3.42
  -5   2 -12   19.04    4.11
   5  -2 -12   16.49    2.63
   6  -2  12   -1.84    2.09
   6   2 -12    2.95    2.56
  -6  -2  12    0.36    1.61
   6  -2 -12    5.06    2.68
   0  -3 -12    5.67    1.57
   0   3 -12    5.91    2.78
   0  -3 -12    4.01    1.82
   1   3 -12   29.30    4.08
  -1   3 -12   26.20    3.84
   1  -3 -12   25.02    2.38
   2   3 -12    7.52    2.98
  -2   3 -12    6.81    3.58
   3   3 -12    4.20    2.71
  -3   3 -12    6.95    3.75
  -3  -3  12    7.65    1.24
   3  -3 -12    7.04    1.91
   4   3 -12    5.18    3.01
   4  -3  12    5.62    1.94
  -4  -3  12    6.47    1.70
   4  -3 -12    2.32    1.93
  -4   3 -12    6.54    3.49
   5  -3  12   -0.38    1.86
   5   3 -12    0.06    2.91
   5  -3 -12   -0.57    2.25
  -5  -3  12    2.29    1.56
  -5   3 -12    8.21    3.84
   0   4 -12    5.71    3.09
   1   4 -12    9.60    3.25
  -1   4 -12   13.70    3.72
   2   4 -12    9.08    3.08
  -2   4 -12    8.81    3.80
  -2  -4  12   11.48    1.28
   3   4 -12    9.47    3.15
  -3   4 -12    8.14    4.12
   3  -4 -12    9.70    2.06
  -3  -4  12   11.17    1.35
   4  -4  12    9.88    2.04
   4   4 -12    9.78    3.63
   4  -4 -12    5.16    2.19
  -4   4 -12    5.73    3.78
   5   4 -12    2.62    3.20
   5  -4 -12   -1.22    2.09
  -5  -4  12    2.09    1.68
  -5   4 -12    1.89    3.88
   0   5 -12    3.06    3.19
   1   5 -12   16.04    3.79
  -1   5 -12   21.37    4.09
  -1  -5  12   20.30    1.68
   2   5 -12    0.62    2.88
  -2  -5  12    4.01    1.19
  -2   5 -12    5.87    3.95
   3   5 -12    5.88    3.31
  -3  -5  12    2.04    1.26
   3  -5 -12   -1.20    1.72
  -3   5 -12    4.16    4.21
   4   5 -12    3.58    3.34
   4  -5  12    2.33    2.24
  -4   5 -12    1.73    4.42
  -4  -5  12    1.70    1.55
   4  -5 -12    2.51    1.99
   0  -6  12    1.60    1.18
   0   6 -12   -2.15    3.44
  -1  -6 -12    4.50    1.15
   1   6 -12    3.19    3.82
  -1  -6  12    0.51    1.18
  -1   6 -12    2.46    3.73
   2   6 -12    4.01    3.40
  -2  -6 -12    4.01    1.16
  -2   6 -12    4.97    4.43
   0   0 -13    3.09    2.36
   1   0 -13    3.32    2.56
  -1   0 -13    3.47    2.73
  -2   0 -13   -1.17    3.00
   2   0 -13    3.56    2.47
   3   0 -13   -1.07    2.48
  -3   0 -13    2.02    3.13
   4   0 -13    4.46    2.71
  -4   0 -13    1.08    3.75
   5   0 -13    4.74    2.54
   0   1 -13    3.60    2.70
   0  -1 -13    2.49    2.30
  -1  -1 -13    5.67    2.66
   1   1 -13    5.99    2.80
   1  -1 -13    5.67    2.50
  -1   1 -13    5.73    3.07
  -2  -1 -13    2.71    2.81
   2   1 -13    3.64    2.59
  -2   1 -13    7.75    3.34
   2  -1 -13    2.57    2.15
   3   1 -13   11.92    2.84
  -3  -1 -13   10.25    3.29
  -3   1 -13    5.77    3.54
   3  -1 -13   11.10    2.57
  -4  -1 -13    7.46    3.72
   4   1 -13    7.77    2.83
  -4  -1  13    8.80    1.55
   4  -1 -13    4.24    2.38
  -4   1 -13    8.01    3.80
   5   1 -13    0.83    2.60
   5  -1 -13    2.74    2.37
  -5   1 -13    2.79    3.96
   0   2 -13   -0.44    2.74
   0  -2 -13    5.42    2.29
  -1  -2 -13    3.30    2.55
   1   2 -13    2.68    2.64
   1  -2 -13    2.62    2.08
  -1   2 -13    5.60    3.23
  -2  -2 -13    8.32    2.88
   2   2 -13   14.26    3.20
  -2   2 -13   17.15    3.96
   2  -2 -13   15.28    2.65
  -3  -2 -13    8.34    3.32
   3   2 -13   12.73    2.75
  -3   2 -13    9.83    3.85
   3  -2 -13   13.76    2.48
   4   2 -13   -0.20    2.88
  -4  -2  13    1.61    1.28
   4  -2 -13    1.17    2.11
  -4   2 -13    7.01    3.88
   5   2 -13    3.48    3.15
  -5   2 -13    0.35    3.82
   5  -2 -13    8.60    2.51
  -5  -2  13    3.82    1.82
   0   3 -13   -1.22    2.87
  -1  -3 -13    8.08    4.60
   1   3 -13    8.83    2.99
  -1   3 -13   12.56    3.88
   1  -3 -13   11.60    2.16
   2   3 -13    6.63    2.71
  -2  -3 -13    5.54    2.69
   2  -3 -13    6.43    2.11
  -2   3 -13    6.74    3.69
   3   3 -13   -0.53    2.59
  -3  -3 -13   -0.91    3.02
  -3   3 -13   -0.32    3.83
  -3  -3  13    0.16    1.22
   3  -3 -13   -2.40    1.71
   4   3 -13   -3.30    2.91
  -4  -3  13   -0.54    1.30
   4  -3 -13   -0.78    2.06
  -4   3 -13    1.76    4.00
   0   4 -13    5.08    3.48
   1   4 -13    4.71    3.36
  -1   4 -13   -0.35    3.65
   2   4 -13    2.02    2.91
  -2   4 -13   -0.62    3.95
   3   4 -13    0.54    2.93
  -3  -4  13    5.83    1.36
   3  -4 -13    4.19    2.13
  -3   4 -13    0.84    4.20
   4   4 -13    1.48    3.05
   4  -4 -13    7.41    2.49
  -4   4 -13   -0.24    4.28
   0   5 -13    5.24    3.64
   1   5 -13    0.19    3.48
  -1   5 -13    3.75    3.80
   2   5 -13    0.95    3.28
  -2   5 -13   -3.41    4.22
  -2  -5  13    0.47    1.27
   0   0 -14    0.83    2.68
   1   0 -14    6.69    2.96
  -1   0 -14   12.65    3.47
  -2   0 -14    4.05    3.37
   2   0 -14    8.91    2.68
  -3   0 -14    5.19    3.80
   3   0 -14    2.46    2.79
   4   0 -14   20.63    3.44
  -4   0 -14   14.10    4.11
   0  -1 -14    8.09    2.77
   0   1 -14    4.78    2.77
   1   1 -14    6.96    3.14
  -1  -1 -14    1.78    2.95
  -1   1 -14   -3.04    3.07
   1  -1 -14   -0.85    2.65
   2   1 -14    6.33    2.72
  -2  -1 -14    3.91    3.17
  -2   1 -14    8.91    3.68
   2  -1 -14    4.13    2.31
   3   1 -14    1.09    2.72
  -3  -1 -14    1.28    3.46
   3  -1 -14    1.47    2.44
  -3   1 -14    0.76    3.84
   4   1 -14   12.25    3.30
  -4  -1 -14    8.35    4.03
   4  -1 -14    7.20    2.70
  -4   1 -14    8.54    3.98
   0   2 -14    0.24    2.88
   0  -2 -14    3.57    2.55
  -1  -2 -14    9.26    2.96
   1   2 -14    3.54    3.12
   1  -2 -14   11.82    2.61
  -1   2 -14    8.92    3.64
  -2  -2 -14    9.12    3.23
   2   2 -14    3.84    2.91
   2  -2 -14    9.71    2.65
  -2   2 -14    9.10    3.81
  -3  -2 -14   15.42    3.77
   3   2 -14   12.95    3.13
  -3   2 -14   24.34    4.65
   3  -2 -14   16.69    2.73
   4   2 -14    2.30    2.97
  -4  -2 -14    2.93    3.79
   4  -2 -14    4.01    2.45
   0   3 -14    9.06    3.37
   1   3 -14   -0.39    3.20
  -1  -3 -14   -3.22    2.59
  -1   3 -14    5.02    3.71
   1  -3 -14    2.60    2.13
  -2  -3 -14   18.62    3.37
   2   3 -14   17.44    3.61
   2  -3 -14   20.98    2.82
  -2   3 -14   23.97    4.67
  -3  -3 -14    9.07    3.51
   3   3 -14    7.49    3.03
   3  -3 -14    7.41    2.29
  -3   3 -14    3.18    4.36
   0   4 -14    9.23    3.55
   1   4 -14   18.52    4.09
  -1   4 -14   13.27    4.00
   2   4 -14    5.57    3.42
  -2   4 -14   10.38    4.54
   0   0 -15    1.54    2.83
   1   0 -15    4.57    3.10
  -1   0 -15    0.65    3.29
  -2   0 -15   11.99    3.84
   2   0 -15   13.82    3.08
   0   1 -15   10.27    3.26
   0  -1 -15    9.41    3.11
  -1  -1 -15   -0.11    2.96
   1   1 -15   -0.58    3.10
  -1   1 -15   -0.06    3.26
   1  -1 -15    2.21    2.68
  -2  -1 -15   -0.16    3.32
   2   1 -15    2.15    2.99
  -2   1 -15   -0.85    3.75
   2  -1 -15    4.06    2.57
   0   2 -15    6.86    3.38
   0  -2 -15    7.28    3.01
  -1  -2 -15    0.67    2.91
   1   2 -15    3.55    3.32
   1  -2 -15    6.80    2.48
  -1   2 -15    1.43    3.38
   0   0   0    0.00    0.00
;
_shelx_hkl_checksum              33474
loop_
_space_group_symop_operation_xyz
'x, y, z'
'-x+1/2, -y, z+1/2'
'-x, y+1/2, -z+1/2'
'x+1/2, -y+1/2, -z'
loop_
_atom_site_label
_atom_site_type_symbol
_atom_site_fract_x
_atom_site_fract_y
_atom_site_fract_z
_atom_site_U_iso_or_equiv
_atom_site_adp_type
_atom_site_occupancy
_atom_site_site_symmetry_order
_atom_site_calc_flag
_atom_site_refinement_flags_posn
_atom_site_refinement_flags_adp
_atom_site_refinement_flags_occupancy
_atom_site_disorder_assembly
_atom_site_disorder_group
Ca1 Ca 0.7810(3) 0.4705(3) 0.62770(19) 0.0159(5) Uani 1 1 d . . . . .
S1 S 0.4581(4) 0.1534(4) 0.6433(3) 0.0239(7) Uani 1 1 d . . . . .
O11 O 0.5495(11) 0.3030(10) 0.6192(8) 0.030(2) Uani 1 1 d . . . . .
O12 O 0.6194(12) 0.6552(12) 0.7472(7) 0.030(2) Uani 1 1 d . . . . .
O13 O 0.8391(12) 0.3812(14) 0.4455(7) 0.040(3) Uani 1 1 d . . . . .
N1 N 0.6013(16) 0.0134(14) 0.6525(11) 0.042(3) Uani 1 1 d D . . . .
H11 H 0.582(19) -0.103(6) 0.673(12) 0.051 Uiso 1 1 d D U . . .
H12 H 0.708(10) 0.053(18) 0.684(11) 0.051 Uiso 1 1 d D U . . .
S2 S 0.6383(4) 0.7442(4) 0.3990(2) 0.0245(7) Uani 1 1 d . . . . .
O21 O 0.6288(11) 0.6581(12) 0.5051(7) 0.029(2) Uani 1 1 d . . . . .
O22 O 0.9782(10) 0.6821(10) 0.6316(8) 0.0268(19) Uani 1 1 d . . . . .
O23 O 0.7981(14) 0.3606(13) 0.8107(7) 0.043(3) Uani 1 1 d . . . . .
N2 N 0.7671(15) 0.8988(15) 0.4197(11) 0.037(3) Uani 1 1 d D . . . .
H21 H 0.839(14) 0.997(10) 0.431(11) 0.044 Uiso 1 1 d D U . . .
H22 H 0.728(17) 0.931(16) 0.345(5) 0.044 Uiso 1 1 d D U . . .
OW O 1.0124(15) 0.2801(18) 0.6351(10) 0.072(4) Uani 1 1 d D . . . .
HW1 H 1.07(2) 0.27(3) 0.704(11) 0.086 Uiso 1 1 d D U . . .
HW2 H 1.099(19) 0.29(3) 0.589(13) 0.086 Uiso 1 1 d D U . . .
loop_
_atom_site_aniso_label
_atom_site_aniso_U_11
_atom_site_aniso_U_22
_atom_site_aniso_U_33
_atom_site_aniso_U_23
_atom_site_aniso_U_13
_atom_site_aniso_U_12
Ca1 0.0167(10) 0.0159(10) 0.0150(11) 0.0008(9) -0.0010(9) -0.0013(8)
S1 0.0310(15) 0.0237(15) 0.0169(15) -0.0024(13) 0.0017(13) -0.0128(12)
O11 0.027(4) 0.029(5) 0.035(5) 0.004(4) 0.007(4) -0.014(4)
O12 0.045(5) 0.034(5) 0.013(4) 0.002(4) 0.011(4) 0.012(5)
O13 0.042(5) 0.061(7) 0.017(5) -0.002(5) 0.006(4) 0.028(5)
N1 0.048(7) 0.024(6) 0.055(8) -0.008(6) -0.002(6) 0.004(5)
S2 0.0254(14) 0.0309(16) 0.0173(14) 0.0016(14) 0.0024(12) 0.0149(13)
O21 0.035(5) 0.038(5) 0.015(4) 0.006(4) 0.005(4) 0.014(5)
O22 0.023(4) 0.032(5) 0.025(4) 0.001(4) -0.006(4) -0.011(3)
O23 0.060(6) 0.050(6) 0.019(5) 0.000(4) -0.001(4) 0.038(6)
N2 0.026(6) 0.043(7) 0.042(7) 0.004(6) -0.004(5) 0.004(5)
OW 0.070(9) 0.105(10) 0.040(6) 0.037(8) 0.022(6) 0.059(8)
loop_
_atom_type_symbol
_atom_type_description
_atom_type_scat_dispersion_real
_atom_type_scat_dispersion_imag
_atom_type_scat_source
N N 0.0061 0.0033 'International Tables Vol C Tables 4.2.6.8 and 6.1.1.4'
H H 0.0000 0.0000 'International Tables Vol C Tables 4.2.6.8 and 6.1.1.4'
O O 0.0106 0.0060 'International Tables Vol C Tables 4.2.6.8 and 6.1.1.4'
S S 0.1246 0.1234 'International Tables Vol C Tables 4.2.6.8 and 6.1.1.4'
Ca Ca 0.2262 0.3064 'International Tables Vol C Tables 4.2.6.8 and 6.1.1.4'
loop_
_geom_angle_atom_site_label_1
_geom_angle_atom_site_label_2
_geom_angle_atom_site_label_3
_geom_angle
_geom_angle_site_symmetry_1
_geom_angle_site_symmetry_3
_geom_angle_publ_flag
O11 Ca1 O22 168.8(3) . . ?
O11 Ca1 O13 86.3(4) . . ?
O22 Ca1 O13 96.5(4) . . ?
O11 Ca1 O23 82.2(4) . . ?
O22 Ca1 O23 102.7(4) . . ?
O13 Ca1 O23 137.2(3) . . ?
O11 Ca1 OW 103.8(4) . . ?
O22 Ca1 OW 87.4(4) . . ?
O13 Ca1 OW 71.7(4) . . ?
O23 Ca1 OW 71.4(4) . . ?
O11 Ca1 O21 86.7(3) . . ?
O22 Ca1 O21 83.6(3) . . ?
O13 Ca1 O21 74.3(3) . . ?
O23 Ca1 O21 145.1(3) . . ?
OW Ca1 O21 143.5(3) . . ?
O11 Ca1 O12 88.0(3) . . ?
O22 Ca1 O12 83.8(3) . . ?
O13 Ca1 O12 147.1(3) . . ?
O23 Ca1 O12 73.6(3) . . ?
OW Ca1 O12 140.9(4) . . ?
O21 Ca1 O12 73.0(3) . . ?
O11 S1 O12 112.8(6) . 3_646 ?
O11 S1 O13 110.2(6) . 4_456 ?
O12 S1 O13 112.8(6) 3_646 4_456 ?
O11 S1 N1 104.3(6) . . ?
O12 S1 N1 104.3(7) 3_646 . ?
O13 S1 N1 112.1(7) 4_456 . ?
S1 O11 Ca1 153.4(6) . . ?
S1 O12 Ca1 138.5(6) 3_656 . ?
S1 O13 Ca1 150.5(6) 4_556 . ?
O23 S2 O21 112.1(6) 2_664 . ?
O23 S2 O22 111.4(6) 2_664 4_466 ?
O21 S2 O22 111.8(5) . 4_466 ?
O23 S2 N2 109.9(7) 2_664 . ?
O21 S2 N2 105.5(6) . . ?
O22 S2 N2 105.9(6) 4_466 . ?
S2 O21 Ca1 143.3(5) . . ?
S2 O22 Ca1 152.8(6) 4_566 . ?
S2 O23 Ca1 156.3(6) 2_665 . ?
loop_
_geom_bond_atom_site_label_1
_geom_bond_atom_site_label_2
_geom_bond_distance
_geom_bond_site_symmetry_2
_geom_bond_publ_flag
Ca1 O11 2.298(9) . ?
Ca1 O22 2.333(8) . ?
Ca1 O13 2.351(9) . ?
Ca1 O23 2.376(9) . ?
Ca1 OW 2.412(10) . ?
Ca1 O21 2.443(9) . ?
Ca1 O12 2.445(9) . ?
S1 O11 1.447(8) . ?
S1 O12 1.453(8) 3_646 ?
S1 O13 1.456(9) 4_456 ?
S1 N1 1.617(12) . ?
S2 O23 1.451(10) 2_664 ?
S2 O21 1.455(9) . ?
S2 O22 1.459(8) 4_466 ?
S2 N2 1.643(13) . ?
