#------------------------------------------------------------------------------
#$Date: 2022-07-07 01:58:50 +0300 (Thu, 07 Jul 2022) $
#$Revision: 276713 $
#$URL: file:///home/coder/svn-repositories/cod/cif/7/71/06/7710690.cif $
#------------------------------------------------------------------------------
#
# This file is available in the Crystallography Open Database (COD),
# http://www.crystallography.net/
#
# All data on this site have been placed in the public domain by the
# contributors.
#
data_7710690
loop_
_publ_author_name
'Kelderman, Cormac'
'Davey, Patrick'
'Ma, Michelle'
'de Veer, Michael'
'Salimova, Ekaterina'
'Donnelly, Paul Stephen'
'Paterson, Brett Michael'
_publ_section_title
;
 Hexadentate Technetium-99m Bis(thiosemicarbazonato) Complexes: Synthesis,
 Characterisation and Biodistribution
;
_journal_name_full               'Dalton Transactions'
_journal_paper_doi               10.1039/D2DT01264B
_journal_year                    2022
_chemical_formula_moiety         'C4 H11 N3 O S'
_chemical_formula_sum            'C4 H11 N3 O S'
_chemical_formula_weight         149.22
_chemical_properties_physical    Deliquescent
_space_group_crystal_system      monoclinic
_space_group_IT_number           14
_space_group_name_Hall           '-P 2yn'
_space_group_name_H-M_alt        'P 1 21/n 1'
_atom_sites_solution_hydrogens   mixed
_atom_sites_solution_primary     dual
_audit_creation_date             2021-11-09
_audit_creation_method
;
Olex2 1.3
(compiled 2020.11.12 svn.r5f609507 for OlexSys, GUI svn.r6408)
;
_audit_update_record
;
2021-11-09 deposited with the CCDC.	2022-06-30 downloaded from the CCDC.
;
_cell_angle_alpha                90
_cell_angle_beta                 92.937(3)
_cell_angle_gamma                90
_cell_formula_units_Z            4
_cell_length_a                   9.9054(3)
_cell_length_b                   7.1107(2)
_cell_length_c                   10.2511(4)
_cell_measurement_reflns_used    3874
_cell_measurement_temperature    123.00(10)
_cell_measurement_theta_max      31.1700
_cell_measurement_theta_min      3.4700
_cell_volume                     721.08(4)
_computing_cell_refinement       'CrysAlisPro 1.171.40.81a (Rigaku OD, 2020)'
_computing_data_collection       'CrysAlisPro 1.171.40.81a (Rigaku OD, 2020)'
_computing_data_reduction        'CrysAlisPro 1.171.40.81a (Rigaku OD, 2020)'
_computing_molecular_graphics    'Olex2 1.3 (Dolomanov et al., 2009)'
_computing_publication_material  'Olex2 1.3 (Dolomanov et al., 2009)'
_computing_structure_refinement  'SHELXL 2018/3 (Sheldrick, 2015)'
_computing_structure_solution    'SHELXT 2018/2 (Sheldrick, 2018)'
_diffrn_ambient_environment      N~2~
_diffrn_ambient_temperature      123.00(10)
_diffrn_detector                 'Hybrid Pixel Array Detector'
_diffrn_detector_area_resol_mean 10.0000
_diffrn_detector_type            HyPix
_diffrn_measured_fraction_theta_full 0.998
_diffrn_measured_fraction_theta_max 0.832
_diffrn_measurement_details
;
List of Runs (angles in degrees, time in seconds):

  # Type    Start    End  Width  t~exp~   \w     \q     \k     \f   Frames
#--------------------------------------------------------------------------
  1  \w     -4.00  41.00   0.50    0.20    --    8.03  38.00  60.00   90
  2  \w     50.00  79.00   0.50    0.20    --    8.03  38.00  60.00   58
  3  \w    -41.00  32.00   0.50    0.20    --    8.03 -91.00  -1.00  146
  4  \w    -18.00  39.00   0.50    0.20    --    8.03 -99.00-120.00  114
  5  \w    -21.00  13.00   0.50    0.20    --   -8.65 -99.00-150.00   68
  6  \w    -36.00  19.00   0.50    0.20    --   -8.65  91.00 111.00  110
  7  \w     10.00  36.00   0.50    0.20    --   -8.65  38.00-120.00   52
  8  \w    -23.00  21.00   0.50    0.20    --   -8.65 -99.00 120.00   88
  9  \w    -25.00   0.00   0.50    0.20    --   -8.65 -91.00  -1.00   50
;
_diffrn_measurement_device       'four-circle diffractometer'
_diffrn_measurement_device_type  'XtaLAB Synergy, Dualflex, HyPix'
_diffrn_measurement_method       '\w scans'
_diffrn_orient_matrix_type
'CrysAlisPro convention (1999,Acta A55,543-557)'
_diffrn_orient_matrix_UB_11      0.0078531000
_diffrn_orient_matrix_UB_12      -0.0527002000
_diffrn_orient_matrix_UB_13      -0.0578673000
_diffrn_orient_matrix_UB_21      -0.0375660000
_diffrn_orient_matrix_UB_22      -0.0748945000
_diffrn_orient_matrix_UB_23      0.0260447000
_diffrn_orient_matrix_UB_31      -0.0605711000
_diffrn_orient_matrix_UB_32      0.0395890000
_diffrn_orient_matrix_UB_33      -0.0277565000
_diffrn_radiation_monochromator  mirror
_diffrn_radiation_probe          x-ray
_diffrn_radiation_type           'Mo K\a'
_diffrn_radiation_wavelength     0.71073
_diffrn_reflns_av_R_equivalents  0.0347
_diffrn_reflns_av_unetI/netI     0.0282
_diffrn_reflns_Laue_measured_fraction_full 0.998
_diffrn_reflns_Laue_measured_fraction_max 0.832
_diffrn_reflns_limit_h_max       13
_diffrn_reflns_limit_h_min       -13
_diffrn_reflns_limit_k_max       10
_diffrn_reflns_limit_k_min       -10
_diffrn_reflns_limit_l_max       13
_diffrn_reflns_limit_l_min       -13
_diffrn_reflns_number            9274
_diffrn_reflns_point_group_measured_fraction_full 0.998
_diffrn_reflns_point_group_measured_fraction_max 0.832
_diffrn_reflns_theta_full        25.242
_diffrn_reflns_theta_max         31.953
_diffrn_reflns_theta_min         3.489
_diffrn_source                   'micro-focus sealed X-ray tube'
_diffrn_source_type              'PhotonJet (Mo) X-ray Source'
_exptl_absorpt_coefficient_mu    0.375
_exptl_absorpt_correction_T_max  1.00000
_exptl_absorpt_correction_T_min  0.87027
_exptl_absorpt_correction_type   multi-scan
_exptl_absorpt_process_details
;
CrysAlisPro 1.171.40.81a (Rigaku Oxford Diffraction, 2020)
Empirical absorption correction using spherical harmonics,
implemented in SCALE3 ABSPACK scaling algorithm.
;
_exptl_crystal_colour            'clear colourless'
_exptl_crystal_colour_lustre     clear
_exptl_crystal_colour_primary    colourless
_exptl_crystal_density_diffrn    1.374
_exptl_crystal_description       irregular
_exptl_crystal_F_000             320
_exptl_crystal_recrystallization_method
'Crystallised from residual ethyl acetate from work up of reaction mixture'
_exptl_crystal_size_max          0.575
_exptl_crystal_size_mid          0.477
_exptl_crystal_size_min          0.256
_refine_diff_density_max         0.327
_refine_diff_density_min         -0.252
_refine_diff_density_rms         0.055
_refine_ls_extinction_method     none
_refine_ls_goodness_of_fit_ref   1.058
_refine_ls_hydrogen_treatment    mixed
_refine_ls_matrix_type           full
_refine_ls_number_parameters     99
_refine_ls_number_reflns         2079
_refine_ls_number_restraints     0
_refine_ls_restrained_S_all      1.058
_refine_ls_R_factor_all          0.0402
_refine_ls_R_factor_gt           0.0325
_refine_ls_shift/su_max          0.000
_refine_ls_shift/su_mean         0.000
_refine_ls_structure_factor_coef Fsqd
_refine_ls_weighting_details
'w=1/[\s^2^(Fo^2^)+(0.0334P)^2^+0.2243P] where P=(Fo^2^+2Fc^2^)/3'
_refine_ls_weighting_scheme      calc
_refine_ls_wR_factor_gt          0.0765
_refine_ls_wR_factor_ref         0.0816
_reflns_Friedel_coverage         0.000
_reflns_number_gt                1747
_reflns_number_total             2079
_reflns_threshold_expression     'I > 2\s(I)'
_cod_data_source_file            d2dt01264b2.cif
_cod_data_source_block           ck-b079
_cod_database_code               7710690
_shelx_shelxl_version_number     2018/3
_shelx_space_group_comment
;
The symmetry employed for this shelxl refinement is uniquely defined
by the following loop, which should always be used as a source of
symmetry information in preference to the above space-group names.
They are only intended as comments.
;
_reflns_odcompleteness_completeness 99.73
_reflns_odcompleteness_iscentric 1
_reflns_odcompleteness_theta     27.82
_olex2_refinement_description
;
1. Fixed Uiso
 At 1.2 times of:
  All C(H,H) groups
 At 1.5 times of:
  All C(H,H,H) groups
2.a Secondary CH2 refined with riding coordinates:
 C3(H3a,H3b), C2(H2a,H2b)
2.b Idealised Me refined as rotating group:
 C4(H4a,H4b,H4c)
;
_shelx_res_file
;
TITL ck-b079_a.res in P2(1)/n
    ck-b079.res
    created by SHELXL-2018/3 at 10:33:27 on 09-Nov-2021
REM Old TITL ck-b079_a.res in Pn
REM SHELXT solution in P2(1)/n: R1 0.102, Rweak 0.001, Alpha 0.019
REM <I/s> 0.259 for 126 systematic absences, Orientation as input
REM Formula found by SHELXT: C6 N O S
CELL 0.71073 9.9054 7.1107 10.2511 90 92.937 90
ZERR 4 0.0003 0.0002 0.0004 0 0.003 0
LATT 1
SYMM 0.5-X,0.5+Y,0.5-Z
SFAC C H N O S
UNIT 16 44 12 4 4

L.S. 50
PLAN  99
CONF
BOND
list 4
MORE -1
BOND $H
fmap 2
acta
REM <olex2.extras>
REM <HklSrc "%.\\CK-B079.hkl">
REM </olex2.extras>

WGHT    0.033400    0.224300
FVAR       0.77394
S1    5    0.422022    0.749702    0.614493    11.00000    0.01408    0.02321 =
         0.02273   -0.00247    0.00330   -0.00126
O1    4    0.139374    0.311027    0.465662    11.00000    0.01885    0.01189 =
         0.01755   -0.00067    0.00215    0.00062
N3    3    0.158533    0.675290    0.564837    11.00000    0.01426    0.01612 =
         0.01439   -0.00208    0.00196   -0.00015
N2    3    0.220333    0.763540    0.772228    11.00000    0.01447    0.02355 =
         0.01410   -0.00429    0.00059   -0.00159
N1    3    0.083504    0.747859    0.803340    11.00000    0.01804    0.02473 =
         0.01619   -0.00269    0.00447    0.00023
C1    1    0.256669    0.727913    0.650643    11.00000    0.01687    0.01010 =
         0.01529    0.00056    0.00106    0.00113
C3    1    0.220766    0.441015    0.398637    11.00000    0.02036    0.01637 =
         0.01525   -0.00148    0.00571   -0.00094
AFIX  23
H3A   2    0.212608    0.417165    0.305400    11.00000   -1.20000
H3B   2    0.314914    0.426399    0.427725    11.00000   -1.20000
AFIX   0
C2    1    0.173691    0.638917    0.427056    11.00000    0.02097    0.01513 =
         0.01282    0.00000    0.00137    0.00049
AFIX  23
H2B   2    0.238238    0.727648    0.394395    11.00000   -1.20000
H2A   2    0.087588    0.660509    0.380068    11.00000   -1.20000
AFIX   0
C4    1    0.168665    0.121084    0.431232    11.00000    0.02724    0.01369 =
         0.02904   -0.00256   -0.00229    0.00269
AFIX 137
H4C   2    0.137337    0.098345    0.342461    11.00000   -1.50000
H4A   2    0.123852    0.036888    0.488081    11.00000   -1.50000
H4B   2    0.264478    0.100458    0.440032    11.00000   -1.50000
AFIX   0
H2    2    0.278079    0.791573    0.829408    11.00000    0.02669
H3    2    0.080329    0.670619    0.591681    11.00000    0.02382
H1A   2    0.075842    0.650024    0.852486    11.00000    0.03500
H1B   2    0.060909    0.847065    0.847008    11.00000    0.02571
HKLF 4




REM  ck-b079_a.res in P2(1)/n
REM wR2 = 0.0816, GooF = S = 1.058, Restrained GooF = 1.058 for all data
REM R1 = 0.0325 for 1747 Fo > 4sig(Fo) and 0.0402 for all 2079 data
REM 99 parameters refined using 0 restraints

END

WGHT      0.0334      0.2243

REM Highest difference peak  0.327,  deepest hole -0.252,  1-sigma level  0.055
Q1    1   0.1544  0.2253  0.4581  11.00000  0.05    0.33
Q2    1   0.2352  0.7157  0.7164  11.00000  0.05    0.30
Q3    1   0.1792  0.5400  0.4079  11.00000  0.05    0.29
Q4    1   0.2053  0.7237  0.5992  11.00000  0.05    0.29
Q5    1   0.4022  0.6683  0.5434  11.00000  0.05    0.24
Q6    1   0.3383  0.7300  0.6597  11.00000  0.05    0.23
Q7    1   0.1779  0.3617  0.4334  11.00000  0.05    0.22
Q8    1   0.4698  0.6285  0.6214  11.00000  0.05    0.21
Q9    1   0.0380  0.7431  0.7314  11.00000  0.05    0.19
Q10   1   0.1567  0.7542  0.7761  11.00000  0.05    0.19
Q11   1   0.1120  0.0544  0.3949  11.00000  0.05    0.19
Q12   1   0.2468  0.7540  0.7965  11.00000  0.05    0.18
Q13   1   0.1482  0.4349  0.2400  11.00000  0.05    0.18
Q14   1   0.1829  0.2888  0.5134  11.00000  0.05    0.18
Q15   1   0.1716  0.6488  0.4995  11.00000  0.05    0.18
Q16   1   0.2744  0.0790  0.5196  11.00000  0.05    0.17
Q17   1   0.0453  0.6603  0.7785  11.00000  0.05    0.17
Q18   1   0.2494  0.9196  0.6933  11.00000  0.05    0.17
Q19   1   0.2364  0.0804  0.4169  11.00000  0.05    0.16
Q20   1   0.4379  0.8682  0.6615  11.00000  0.05    0.16
Q21   1   0.0632  0.3360  0.4229  11.00000  0.05    0.16
Q22   1   0.4378  0.7537  0.4864  11.00000  0.05    0.16
Q23   1   0.2996  0.0345  0.4655  11.00000  0.05    0.16
Q24   1   0.2025  0.8583  0.7558  11.00000  0.05    0.16
Q25   1   0.1900  0.0933  0.3143  11.00000  0.05    0.16
Q26   1  -0.0537  0.6397  0.2712  11.00000  0.05    0.16
Q27   1   0.1258  0.6958  0.5644  11.00000  0.05    0.15
Q28   1   0.0823  0.0749  0.4784  11.00000  0.05    0.15
Q29   1   0.1664  0.7271  0.3600  11.00000  0.05    0.15
Q30   1   0.0431  0.8263  0.7546  11.00000  0.05    0.15
Q31   1   0.5044  0.9170  0.5243  11.00000  0.05    0.15
Q32   1   0.2965  0.3920  0.4113  11.00000  0.05    0.15
Q33   1   0.0000  0.0000  0.5000  10.50000  0.05    0.14
Q34   1   0.1389  0.8375  0.5606  11.00000  0.05    0.14
Q35   1   0.4981  0.6931  0.7236  11.00000  0.05    0.14
Q36   1   0.3623  0.6187  0.6328  11.00000  0.05    0.14
Q37   1   0.4238  0.9361  0.6775  11.00000  0.05    0.14
Q38   1   0.2476  0.9634  0.7951  11.00000  0.05    0.14
Q39   1   0.1856  0.0479  0.5098  11.00000  0.05    0.14
Q40   1   0.2342  0.8383  0.7567  11.00000  0.05    0.13
Q41   1   0.0627  1.0065  0.9366  11.00000  0.05    0.13
Q42   1   0.5197  0.9415  0.6196  11.00000  0.05    0.13
Q43   1   0.0389  0.5039  0.9545  11.00000  0.05    0.13
Q44   1   0.3758  0.8839  0.4578  11.00000  0.05    0.13
Q45   1   0.2945 -0.0827  0.4193  11.00000  0.05    0.13
Q46   1  -0.0448  0.5252  0.9501  11.00000  0.05    0.13
Q47   1   0.0226  0.8586  0.7428  11.00000  0.05    0.13
Q48   1  -0.0209  0.6692  0.6970  11.00000  0.05    0.13
Q49   1   0.3473  0.1311  0.4075  11.00000  0.05    0.12
Q50   1   0.0415  0.9142  0.8177  11.00000  0.05    0.12
Q51   1   0.0785  0.0569  0.2968  11.00000  0.05    0.12
Q52   1   0.0662 -0.0873  0.5192  11.00000  0.05    0.12
Q53   1   0.0733  0.5011  0.2284  11.00000  0.05    0.12
Q54   1   0.3772  0.0786  0.3226  11.00000  0.05    0.12
Q55   1   0.4195  0.9139  0.5658  11.00000  0.05    0.12
Q56   1   0.0576 -0.1126  0.4171  11.00000  0.05    0.12
Q57   1   0.5829  0.7666  0.5966  11.00000  0.05    0.12
Q58   1   0.1192  0.3908  0.5768  11.00000  0.05    0.12
Q59   1   0.1759  0.5498  0.5803  11.00000  0.05    0.12
Q60   1   0.0394  0.5530  0.8214  11.00000  0.05    0.12
Q61   1   0.2659  0.7705  0.6423  11.00000  0.05    0.12
Q62   1   0.3875  0.8020  0.5335  11.00000  0.05    0.12
Q63   1   0.3210  0.8458  0.4946  11.00000  0.05    0.12
Q64   1   0.2161  0.3858  0.1835  11.00000  0.05    0.12
Q65   1   0.1866  0.6424  0.8061  11.00000  0.05    0.12
Q66   1   0.4856  0.7907  0.6976  11.00000  0.05    0.12
Q67   1   0.3759  0.4587  0.3937  11.00000  0.05    0.12
Q68   1   0.0019  1.0341  0.7406  11.00000  0.05    0.12
Q69   1   0.3395  0.4680  0.3051  11.00000  0.05    0.11
Q70   1   0.4556  0.6142  0.7737  11.00000  0.05    0.11
Q71   1   0.2677  0.4156  0.3362  11.00000  0.05    0.11
Q72   1  -0.0149  0.6674  0.4456  11.00000  0.05    0.11
Q73   1   0.1062  0.2519  0.3684  11.00000  0.05    0.11
Q74   1   0.3501 -0.0347  0.5313  11.00000  0.05    0.11
Q75   1  -0.0154  0.7438  0.6173  11.00000  0.05    0.11
Q76   1   0.1800  0.2944  0.2411  11.00000  0.05    0.11
Q77   1   0.3006 -0.0264  0.3613  11.00000  0.05    0.11
Q78   1   0.0870  0.3306  0.5085  11.00000  0.05    0.11
Q79   1   0.4857  0.4515  0.4343  11.00000  0.05    0.11
Q80   1   0.1154  0.5758  0.9238  11.00000  0.05    0.11
Q81   1   0.0239  0.0122  0.5826  11.00000  0.05    0.11
Q82   1   0.3842  0.0303  0.5147  11.00000  0.05    0.11
Q83   1  -0.0032  0.5564  0.3850  11.00000  0.05    0.11
Q84   1   0.3142  0.0657  0.4028  11.00000  0.05    0.11
Q85   1   0.0192  0.5072  0.8142  11.00000  0.05    0.11
Q86   1   0.3218  0.9186  0.6823  11.00000  0.05    0.11
Q87   1   0.2418  0.5240  0.6760  11.00000  0.05    0.11
Q88   1   0.3290  0.3795  0.2504  11.00000  0.05    0.11
Q89   1  -0.0787  0.5439  0.8534  11.00000  0.05    0.11
Q90   1   0.4114  0.7517  0.7690  11.00000  0.05    0.11
Q91   1   0.3592  0.6068  0.3942  11.00000  0.05    0.10
Q92   1   0.0635  0.4950  0.6627  11.00000  0.05    0.10
Q93   1   0.1579  0.4606  0.3201  11.00000  0.05    0.10
Q94   1   0.0414  0.0148  0.3666  11.00000  0.05    0.10
Q95   1   0.1425  0.5781  0.6315  11.00000  0.05    0.10
Q96   1   0.4764  0.5845  0.5406  11.00000  0.05    0.10
Q97   1   0.1282  0.2541  0.2992  11.00000  0.05    0.10
Q98   1   0.1240  0.2880  0.5767  11.00000  0.05    0.10
Q99   1  -0.0015  0.8076  0.3334  11.00000  0.05    0.10
;
_shelx_res_checksum              97975
_shelx_hkl_file
;
   0   0  -2  751.19   16.60
   0   0  -3    0.83    0.50
   0   0  -4 1248.25   29.19
   0   0  -4 1229.66   29.03
   0   0  -5    0.47    0.85
   0   0  -5    0.49    0.45
   0   0  -6  776.55   24.32
   0   0  -6  794.01   23.95
   0   0   7   -0.08    0.17
   0   0  -7    0.73    1.15
   0   0  -7   -0.67    0.61
   0   0   8    0.75    0.96
   0   0  -8   -0.86    1.10
   0   0  -8   -0.78    1.00
   0   0  -9   -0.88    2.41
   0   0  -9   -0.99    1.27
   0   0 -10   26.96    5.42
   0   0 -10   34.72    4.21
   0   0 -11   -1.26    1.97
   0   0 -11    0.57    1.17
   0   0 -12   54.33    5.64
   0   0 -12   65.20    9.30
   0   0 -13   -3.03    3.63
   0  -1  -1  816.62   15.96
   0  -1   1  814.84   15.70
   0   1  -1  832.86   16.41
   0  -1  -1  795.49   17.46
   0   1   2 3468.46   64.25
   0  -1   2 3480.96   62.80
   0  -1  -2 3507.55   63.41
   0  -1  -3    4.23    1.15
   0  -1   3    4.91    1.06
   0  -1  -3    3.67    0.96
   0  -1  -4 2470.91   50.43
   0  -1   4 2420.75   48.78
   0  -1  -4 2471.62   48.89
   0  -1  -4 2460.48   50.18
   0  -1  -5  102.38    6.87
   0  -1  -5   97.91    6.60
   0  -1  -5   97.99    5.84
   0  -1  -6  584.75   19.86
   0  -1  -6  591.09   17.73
   0  -1  -6  605.48   20.58
   0  -1  -7   35.37    3.89
   0  -1  -7   37.96    4.95
   0  -1  -7   29.50    4.38
   0  -1  -8   77.81    6.14
   0  -1  -8   87.28    8.26
   0  -1  -8   79.81    7.60
   0  -1  -9    1.00    1.56
   0  -1  -9    5.07    1.70
   0  -1  -9    1.77    1.80
   0  -1 -10   82.21    9.25
   0  -1 -10   74.33    6.58
   0  -1  10   86.63    3.99
   0  -1  11    3.21    2.17
   0  -1 -11   -1.26    3.02
   0  -1 -11    1.30    1.02
   0  -1  11    1.04    0.58
   0  -1 -12   29.16    6.45
   0   1 -12   35.43    4.44
   0  -1  12   27.28    5.72
   0  -1 -12   36.50    4.90
   0   1 -13    1.51    2.38
   0  -1  13   -1.30    2.04
   0  -1 -13   -1.52    2.38
   0   1  13    1.26    1.15
   0  -2   0 9984.05  167.52
   0   2   0 9999.00  166.82
   0   2  -1    2.68    0.49
   0   2  -1    0.91    0.44
   0   2   1    2.82    0.66
   0   2  -1    2.36    0.47
   0  -2  -1    1.86    0.44
   0  -2  -1    2.13    0.44
   0   2  -2  103.57    4.46
   0   2  -2  102.21    4.48
   0   2  -2  103.43    4.89
   0  -2  -2  105.46    4.54
   0  -2  -2  114.15    5.50
   0  -2  -2  105.57    4.60
   0   2  -3   33.95    2.98
   0   2   3   27.50    3.10
   0  -2  -3   26.46    2.90
   0  -2  -3   31.60    2.90
   0  -2   3   32.85    2.66
   0   2  -3   27.63    2.68
   0  -2  -3   31.06    2.86
   0  -2  -4  207.51    9.13
   0  -2  -4  198.00    8.88
   0   2  -4  195.89    8.91
   0   2  -4  218.03    9.11
   0  -2   4  203.80    8.04
   0  -2  -4  207.13    9.35
   0  -2  -4  210.61    9.34
   0   2  -5    0.48    0.43
   0  -2  -5    0.46    0.60
   0  -2   5    0.35    0.45
   0   2  -5   -0.51    0.92
   0  -2  -5    0.94    0.86
   0  -2  -5   -0.51    0.80
   0  -2  -5    0.48    0.75
   0   2  -6   27.74    3.80
   0  -2  -6   23.25    3.60
   0  -2  -6   30.61    4.22
   0  -2  -6   22.09    3.32
   0   2  -6   21.76    3.46
   0  -2  -7   20.11    3.84
   0  -2  -7   27.55    3.84
   0  -2  -7   18.45    3.48
   0   2  -7   26.52    4.11
   0   2  -7   24.47    4.06
   0   2   8   68.37    6.95
   0  -2  -8   71.48    7.61
   0   2  -8   69.51    7.42
   0  -2  -8   92.97    8.15
   0  -2  -8   74.36    6.52
   0   2  -8   72.94    7.40
   0  -2  -9   46.40    5.28
   0  -2  -9   28.01    5.01
   0   2  -9   40.84    5.84
   0  -2  -9   33.05    5.29
   0   2  -9   42.75    6.28
   0   2   9   35.04    5.37
   0   2 -10   -1.12    2.50
   0  -2 -10    3.39    2.71
   0   2  10    2.93    2.35
   0  -2 -10    6.94    2.27
   0   2 -11   27.55    5.82
   0  -2 -11   33.60    4.85
   0  -2 -11   31.48    6.17
   0  -2  11   26.26    4.09
   0   2  11   34.54    5.98
   0  -2 -12  108.09   11.97
   0   2 -12  115.80   12.55
   0   2  12  122.66   11.80
   0  -2 -12  123.14    9.49
   0   2 -13   -1.51    4.75
   0  -2  13   -1.29    2.02
   0  -2 -13   -1.51    5.14
   0   2  13    6.38    2.84
   0  -3   0   -0.21    0.33
   0  -3   0    0.28    0.44
   0   3   0   -0.26    0.33
   0  -3  -1  950.35   17.85
   0   3  -1  947.31   21.72
   0  -3   1  966.05   21.34
   0   3   1  970.18   21.12
   0   3   2  237.66    9.34
   0   3  -2  244.38    7.54
   0  -3  -2  247.14    9.78
   0  -3  -2  255.64    7.83
   0   3  -2  247.61    9.13
   0  -3   2  251.77    8.53
   0  -3  -2  247.07    7.66
   0   3  -2  245.12    7.64
   0   3   2  250.89    8.30
   0  -3   3  107.83    5.49
   0   3  -3  116.66    5.67
   0   3  -3  111.11    5.70
   0  -3  -3  105.31    6.45
   0  -3  -3  110.66    5.63
   0   3  -3  116.59    6.21
   0  -3  -3  113.35    5.78
   0  -3  -4  247.87   10.94
   0   3   4  262.12   11.44
   0   3  -4  235.83   10.00
   0   3   4  266.75   12.08
   0  -3  -4  242.25    9.99
   0   3  -4  254.36   10.07
   0  -3  -4  260.71   10.49
   0  -3  -5    4.39    1.54
   0  -3  -5    5.94    1.84
   0   3  -5    5.66    1.87
   0  -3  -5    5.71    1.77
   0   3  -5    6.75    1.86
   0   3   5    6.65    1.88
   0   3  -6  747.91   24.18
   0  -3  -6  756.39   24.01
   0  -3  -6  764.64   23.61
   0   3  -6  745.29   23.27
   0   3   6  751.80   24.08
   0  -3  -6  740.34   23.41
   0  -3  -6  763.07   24.23
   0  -3   6  759.60   21.02
   0   3  -7   26.21    4.26
   0  -3   7   22.26    3.21
   0   3   7   15.81    3.28
   0   3  -7   18.51    3.54
   0  -3  -7   22.01    3.70
   0  -3  -7   23.46    4.07
   0  -3  -7   16.59    3.51
   0   3  -8   74.02    7.49
   0   3   8   68.56    7.08
   0  -3  -8   74.75    7.06
   0   3  -8   68.67    7.41
   0  -3  -8   76.28    7.76
   0  -3   8   67.00    5.72
   0  -3  -8   61.08    6.89
   0   3  -9   36.73    5.96
   0  -3   9   49.78    5.25
   0  -3  -9   42.26    6.15
   0   3   9   51.25    6.52
   0   3  -9   43.74    6.37
   0  -3  -9   46.02    5.70
   0  -3  -9   40.02    6.14
   0  -3  10   64.57    6.21
   0   3 -10   71.75    8.71
   0   3  10   77.41    8.44
   0  -3 -10   72.21    8.65
   0  -3 -11   30.12    6.16
   0   3  11   32.60    5.78
   0   3 -11   38.57    7.07
   0   3  12    3.54    2.39
   0   3 -12    5.50    3.53
   0  -3 -13   10.54    4.32
   0   3 -13    7.48    4.08
   0   3  13    7.61    3.26
   0  -4   0  873.10   20.96
   0   4   0  931.31   22.79
   0  -4   0  909.12   23.30
   0   4  -1   -0.36    0.46
   0   4   1    0.35    0.55
   0  -4   1    0.74    0.67
   0   4   1    1.15    0.70
   0   4   1    0.95    0.71
   0  -4   1    0.30    0.61
   0   4  -2  525.04   15.98
   0   4   2  533.68   16.40
   0   4   2  503.60   14.71
   0  -4  -2  525.90   16.94
   0   4  -2  506.63   12.10
   0  -4  -2  518.71   12.41
   0   4  -3  101.39    5.29
   0   4   3  102.94    6.79
   0   4  -3   94.17    6.21
   0  -4  -3  105.50    6.94
   0   4   3  107.14    5.81
   0  -4  -3  102.73    5.36
   0  -4  -3   95.28    5.22
   0   4  -3  106.86    5.30
   0  -4  -4  205.58   10.37
   0   4   4  175.20   10.90
   0  -4  -4  175.86    8.50
   0   4  -4  201.48    8.92
   0  -4  -4  180.12    8.45
   0   4  -4  190.29    9.42
   0   4   4  190.18    9.88
   0   4  -4  186.19    8.42
   0   4  -5   53.39    4.87
   0   4  -5   54.07    5.03
   0  -4  -5   64.68    5.38
   0  -4  -5   61.32    5.40
   0  -4  -5   54.27    5.47
   0  -4   5   48.28    4.29
   0   4  -6   23.13    3.61
   0   4  -6   20.37    3.40
   0  -4   6   17.80    2.75
   0  -4  -6   23.45    3.91
   0  -4  -6   31.95    4.17
   0  -4  -6   17.79    3.28
   0  -4  -7  241.24   12.67
   0  -4  -7  225.94   12.74
   0  -4   7  228.42   10.47
   0  -4  -7  213.64   12.34
   0   4  -7  214.96   12.34
   0   4   7  220.33   12.79
   0   4  -7  207.54   11.84
   0   4   8  404.07   18.77
   0   4  -8  415.43   18.43
   0  -4  -8  437.91   18.74
   0  -4   8  409.70   15.40
   0   4  -8  405.75   18.84
   0  -4  -8  419.67   19.13
   0  -4  -9   48.79    6.87
   0   4  -9   44.52    6.36
   0  -4   9   53.07    5.34
   0   4  -9   42.41    6.51
   0  -4  -9   53.86    6.91
   0   4   9   47.74    6.41
   0  -4 -10   96.38    9.98
   0   4 -10   88.89    9.74
   0  -4  10   92.80    7.26
   0   4  10   84.62    9.01
   0  -4 -11    8.73    3.39
   0   4 -11    2.48    2.51
   0   4  11    5.52    2.83
   0   4 -12  150.65   13.94
   0   4  12  125.04   11.79
   0  -4 -12  113.63   12.30
   0   5   0    0.45    0.71
   0  -5   0   -0.47    0.61
   0   5  -1  358.39   13.49
   0   5   1  347.82   13.27
   0   5   1  361.06   12.81
   0  -5   1  356.04   13.49
   0   5  -2  464.68   16.30
   0   5   2  468.43   15.06
   0  -5  -2  504.82   17.59
   0   5   2  479.71   16.52
   0   5   2  455.92   15.74
   0   5   2  445.87   19.28
   0  -5   2  481.27   16.14
   0  -5   3   14.66    2.34
   0   5   3   21.78    3.33
   0   5  -3   20.11    3.20
   0   5  -3   15.37    1.84
   0   5   3   16.75    2.56
   0  -5  -3   16.68    1.96
   0  -5  -3   18.58    3.22
   0   5   3   17.90    3.55
   0  -5   3   18.25    2.76
   0   5   4   58.67    4.83
   0   5   4   57.94    5.67
   0  -5  -4   61.55    4.66
   0  -5   4   61.31    4.82
   0  -5  -4   52.91    5.58
   0   5  -4   71.13    6.02
   0   5   4   49.68    6.24
   0   5  -4   66.45    4.72
   0   5  -5    6.32    1.82
   0   5   5    5.74    1.66
   0   5   5    7.94    2.66
   0   5   5    5.25    1.79
   0  -5   5    6.03    1.71
   0  -5  -5    3.38    1.74
   0  -5  -5    5.03    1.77
   0   5  -6  944.55   27.38
   0  -5  -6  924.99   27.18
   0  -5   6  965.07   25.12
   0   5   6  926.93   28.85
   0  -5  -6  879.98   26.36
   0   5   6  936.80   25.43
   0  -5  -6  920.28   29.01
   0  -5   7    2.94    1.48
   0  -5  -7    1.36    1.39
   0   5  -7    0.73    1.32
   0  -5  -7    2.96    1.78
   0  -5  -7    2.39    1.45
   0   5  -7    4.66    1.91
   0  -5  -8   13.76    3.67
   0   5  -8   15.22    3.77
   0  -5  -8   14.88    3.49
   0  -5   8   14.71    2.87
   0  -5   9   27.90    3.89
   0  -5  -9   29.99    5.21
   0  -5  -9   25.50    4.98
   0   5  -9   33.83    5.64
   0   5 -10   21.74    4.85
   0  -5 -10   29.78    5.59
   0  -5 -11   51.25    7.79
   0   5 -11   39.72    6.86
   0  -5 -12   54.48    8.57
   0   5 -12   51.14    8.21
   0   6   0  474.57   17.19
   0  -6   0  479.24   17.37
   0  -6   1   77.85    6.46
   0  -6   1   70.03    5.17
   0   6  -1   74.48    6.30
   0   6   1   79.81    6.39
   0  -6  -2  214.91   11.70
   0  -6   2  215.10   10.90
   0   6  -2  211.73   11.20
   0  -6   2  216.10    9.82
   0   6   2  218.61   13.93
   0   6   2  217.44   11.10
   0   6   2  222.84   10.47
   0   6   3  331.42   14.14
   0  -6   3  339.47   13.30
   0   6   3  337.72   17.80
   0   6  -3  350.89   14.97
   0  -6   3  343.85   14.18
   0  -6   3  322.41    7.77
   0  -6  -3  360.93   15.54
   0  -6   3  325.70    7.18
   0   6   3  369.16   15.23
   0   6   3  341.09   13.35
   0   6  -4  301.70    9.67
   0   6  -4  277.90   13.54
   0   6   4  279.84   12.19
   0  -6   4  314.27   12.16
   0  -6  -4  267.04    9.60
   0  -6  -4  288.97   14.31
   0   6   4  266.94   13.39
   0  -6   4  299.77   12.72
   0   6   4  278.19   16.43
   0   6   5   23.80    4.06
   0  -6   5   25.39    3.42
   0  -6  -5   24.52    3.21
   0   6   5   24.75    4.88
   0   6  -5   26.44    4.16
   0   6  -5   20.19    2.88
   0  -6  -5   23.48    4.09
   0   6   5   28.79    3.82
   0   6  -6    3.25    1.55
   0   6   6    6.22    2.23
   0  -6  -6    4.04    2.20
   0  -6  -6    2.26    1.36
   0   6   6    4.87    1.84
   0  -6   6    2.50    1.36
   0  -6  -7   25.50    4.07
   0   6  -7   20.64    3.64
   0  -6   7   16.11    2.81
   0   6   7   15.13    3.67
   0  -6  -8  207.91   12.63
   0   6  -8  190.61   12.02
   0   6   8  195.40   12.97
   0   6  -9    0.91    1.64
   0   6   9    0.97    1.52
   0  -6  -9    0.93    1.46
   0  -6 -10  125.96   11.07
   0   6 -10  110.16   10.37
   0  -6 -11   11.51    3.91
   0   6 -11   11.29    3.84
   0   6 -12   27.09    5.82
   0  -7   0    0.66    1.04
   0   7   0   -1.05    1.35
   0   7   0    0.67    1.05
   0   7  -1   25.97    4.09
   0  -7   1   23.74    3.91
   0   7   1   32.13    4.45
   0   7  -1   28.98    5.33
   0  -7   1   31.04    3.64
   0   7  -2   67.84    6.64
   0  -7   2   61.99    6.27
   0  -7   2   64.76    5.43
   0   7   2   68.57    6.62
   0  -7  -2   76.99    7.33
   0  -7   3   19.44    3.61
   0   7   3   14.60    3.17
   0   7   3   17.97    4.45
   0  -7  -3   16.78    3.61
   0   7   3   16.92    3.10
   0  -7   3   15.05    2.84
   0   7  -3   12.58    3.01
   0  -7   4    1.70    1.03
   0   7   4    1.48    1.50
   0   7   4   -1.15    1.47
   0   7   4    0.59    1.08
   0   7  -4    0.77    0.99
   0   7   4    0.71    1.11
   0   7   5   -1.18    1.52
   0  -7  -5    0.30    0.72
   0   7   5   -0.23    0.55
   0   7  -5   -0.79    1.44
   0  -7   5    0.62    1.49
   0   7   5   -0.79    1.01
   0   7  -6  414.09   14.11
   0  -7   6  412.82   17.25
   0  -7  -6  412.26   14.51
   0   7   6  432.53   19.09
   0   7  -7    9.46    2.48
   0  -7  -7    7.63    2.27
   0   7   7   11.57    3.23
   0   7   8    1.90    2.11
   0   7  -8    2.04    1.64
   0   7   9    6.01    2.57
   0   7  -9    3.99    2.62
   0   7 -10   10.02    2.98
   0   8   0  168.90   11.17
   0   8   0  173.63   14.06
   0   8   1   -0.78    1.00
   0   8  -1    1.19    1.87
   0   8  -1    0.81    1.27
   0   8   1   -1.24    1.95
   0   8   2   53.83    6.44
   0   8  -2   42.37    6.97
   0   8  -2   48.93    6.17
   0  -8   2   55.53    5.18
   0   8  -3    4.30    1.91
   0   8   3    3.21    1.93
   0   8   3    1.28    1.64
   0  -8   3    0.54    0.98
   0   8  -3    4.65    2.58
   0   8  -4  102.33    9.25
   0   8  -4  109.18   10.92
   0  -8   4   98.76    7.43
   0   8   4  106.93   11.41
   0   8   4   89.69    8.52
   0   8   5   23.81    4.46
   0   8  -5   18.80    4.09
   0  -8   5   31.33    4.35
   0   8   5   32.11    5.05
   0   8   5   29.45    6.09
   0  -8   6   16.96    3.44
   0   8   6   10.65    3.23
   0   8   6   16.37    3.76
   0   8   7    2.82    1.91
   0   8   7    4.42    2.27
   0  -8   7    4.39    2.10
   0  -8   8   17.17    3.76
   0   8   8   11.82    3.35
   0   9   0   -1.37    1.25
   0   9   0    2.74    2.03
   0   9   1   43.03    7.70
   0   9  -1   43.21    7.49
   0   9  -1   54.41    6.85
   0   9   1   40.78    5.98
   0   9  -2   12.33    3.55
   0   9   2   14.46    3.67
   0   9  -2    9.28    3.62
   0   9   3   28.56    6.37
   0   9  -3   28.28    5.10
   0   9  -3   22.17    5.31
   0  -9   3   27.31    3.91
   0   9   3   35.68    5.59
   0  -9   4    3.49    1.49
   0   9   4    0.93    1.19
   0   9  -4   -1.28    2.33
   0   9  -4   -0.99    1.55
   0   9  -5   25.25    5.63
   0   9  -5   26.77    5.11
   0  -9   5   31.30    4.50
   0  -9   6  232.68   12.43
   0   9  -6  231.24   16.62
   0   9  -7   60.26    8.30
   0  -9   7   45.06    5.67
   0   9  -8    4.66    2.36
  -1   0  13   31.90    6.26
   1   0 -13   37.25    7.43
  -1   0  12   -1.17    1.51
   1   0 -12   -1.36    3.03
   1   0 -12   -0.70    1.27
   1   0 -11   -1.22    2.22
   1   0 -10    1.08    1.39
   1   0  -9  238.58   13.97
   1   0  -9  231.90   14.43
  -1   0   8   -0.13    0.28
   1   0  -8   -0.81    0.73
   1   0  -8    0.75    0.96
  -1   0   7  358.32    9.06
   1   0  -7  419.45   16.78
   1   0  -6    0.55    0.50
  -1   0   6    0.13    0.27
  -1   0   5  238.78    6.55
   1   0  -5  235.06   10.24
  -1   0   4   -0.12    0.18
   1   0  -4    3.41    1.07
  -1   0   3  187.62    5.17
  -1   0   2    0.09    0.19
   1   0   2   -0.19    0.25
  -1   0  -2   -0.24    0.38
  -1   0  -3 6579.38  116.61
  -1   0  -3 6509.58  116.83
   1   0   3 6429.65  115.45
  -1   0  -3 6327.99  111.58
  -1   0  -4   -0.42    0.85
   1   0   4   -0.37    0.48
  -1   0  -4   -0.44    0.40
   1   0   5  685.44   20.37
  -1   0  -5  702.28   21.74
  -1   0  -5  700.72   21.36
  -1   0  -6   -0.66    0.85
   1   0   6   -0.57    0.73
  -1   0  -6   -0.61    0.97
   1   0   7    3.28    1.40
  -1   0  -7    0.78    1.42
  -1   0  -7    4.22    1.18
   1   0   7    2.01    1.36
  -1   0  -7    1.43    1.12
   1   0   8   -0.77    0.99
  -1   0  -8    0.82    1.05
  -1   0  -8   -0.37    0.58
   1   0   8    0.62    0.97
  -1   0  -8   -0.90    1.16
   1   0   9  710.76   26.32
  -1   0  -9  713.67   27.95
  -1   0  -9  716.29   26.96
  -1   0  -9  713.24   20.05
  -1   0 -10   -1.16    1.82
   1   0  10   -0.99    1.27
  -1   0 -10   -0.45    0.58
  -1   0 -11   15.48    4.54
   1   0  11    8.76    2.99
  -1   0 -11   15.77    2.82
  -1   0 -12    1.42    2.58
  -1   0 -12   -0.98    1.09
   1   0  12    1.20    1.88
  -1   0 -13  269.37   19.79
   1   0  13  288.61   18.69
  -1   1  13   14.98    4.25
   1  -1 -13   22.38    5.59
   1   1 -13   16.37    5.24
   1  -1 -12   35.65    5.05
   1  -1 -12   36.85    6.92
  -1   1  12   40.44    6.74
   1  -1 -11  113.14    8.87
  -1   1  11  102.88   10.19
  -1  -1  11  101.00    4.41
   1  -1 -11   83.56    9.93
   1  -1 -10    1.09    1.71
  -1   1  10    0.96    0.87
  -1  -1  10    4.40    1.04
   1  -1 -10    3.39    1.74
   1  -1  -9    6.34    1.99
  -1   1   9    9.36    2.89
   1  -1  -9    7.70    2.80
   1  -1  -9    2.84    1.72
  -1  -1   9    5.56    1.16
   1  -1  -8    3.25    1.95
   1  -1  -8    3.75    1.93
  -1   1   8    5.23    1.92
   1  -1  -7  293.05   14.09
  -1   1   7  285.56   13.67
   1  -1  -6   -0.55    1.01
   1  -1  -5 3041.85   61.46
   1  -1  -4   28.41    1.54
   1  -1  -4   32.95    3.17
   1  -1  -3   99.86    3.50
   1  -1  -2    3.41    0.74
  -1  -1   2    1.37    0.35
  -1   1   1   69.05    2.91
   1  -1  -1   70.62    3.68
   1   1  -1   69.44    2.25
   1  -1  -1   70.10    2.71
   1  -1   0  122.52    3.13
   1  -1   0  118.11    3.38
   1  -1   0  118.42    4.37
   1   1   0  123.64    4.22
  -1  -1   0  110.52    3.52
  -1   1   0  117.92    4.01
  -1  -1  -1  175.58    5.62
  -1   1  -1  170.33    5.78
   1  -1   1  169.08    5.54
  -1  -1  -2  185.09    7.05
   1   1   2  198.11    6.63
   1  -1   2  201.30    7.12
   1   1   2  209.84    7.38
   1  -1   2  192.40    7.01
  -1  -1  -3 1079.27   25.89
  -1  -1  -3 1114.24   20.78
   1  -1   3 1135.08   25.25
   1  -1   3 1131.46   25.67
  -1  -1  -3 1162.75   26.46
   1   1   3 1110.61   25.80
   1   1   3 1133.23   24.13
  -1  -1  -4   10.63    2.09
   1  -1   4    7.17    1.60
  -1  -1  -4   10.96    1.67
   1   1   4   10.03    1.93
  -1  -1  -4   10.93    2.10
  -1  -1  -5  114.34    7.47
  -1  -1  -5  110.26    7.47
  -1  -1  -5  106.14    5.71
   1   1   5   99.47    6.74
  -1  -1  -6   45.85    5.23
  -1  -1  -6   35.52    3.51
  -1  -1  -6   35.12    4.41
   1   1   6   35.89    4.35
   1  -1   6   38.40    4.13
  -1  -1  -7 1475.44   40.15
   1  -1   7 1442.21   36.13
   1   1   7 1440.93   38.39
  -1  -1  -7 1430.77   38.99
  -1  -1  -7 1496.41   33.86
   1   1   8   30.51    4.78
  -1  -1  -8   20.48    4.10
  -1  -1  -8   33.49    5.28
  -1  -1  -8   26.80    3.40
   1   1   9   51.20    6.55
  -1  -1  -9   39.77    5.92
  -1  -1  -9   36.05    6.03
  -1  -1  -9   45.46    4.61
   1  -1  10    3.91    1.98
  -1   1 -10    1.97    1.01
   1   1  10    2.94    1.78
  -1  -1 -10   -1.16    1.82
  -1  -1 -10    1.59    1.18
  -1  -1 -11   25.80    6.10
  -1  -1 -11   24.08    3.62
  -1   1 -11   25.56    3.23
   1  -1  11   26.12    1.90
   1  -1  11   28.37    5.62
  -1   1 -12   29.13    3.35
  -1  -1 -12   27.03    6.34
   1  -1  12   25.22    5.58
  -1  -1 -13   -1.55    1.98
  -1   1 -13    3.09    2.43
   1  -1  13   -1.30    1.67
   1  -2 -13   47.71    8.60
   1   2 -13   43.00    8.23
  -1   2  13   55.05    8.07
   1   2 -12    4.07    3.70
   1  -2 -12    6.82    3.50
  -1   2  12    3.46    2.09
   1   2 -11    1.23    2.23
   1  -2 -11    2.47    2.24
  -1  -2  11   -0.62    0.97
   1  -2 -11    0.80    1.26
  -1   2  11    1.05    1.35
  -1  -2  10   64.65    5.93
   1  -2 -10   59.13    6.42
   1   2 -10   69.75    8.40
   1  -2 -10   52.65    7.25
  -1   2  10   55.93    7.11
  -1   2   9  419.23   19.04
   1   2  -9  417.82   20.11
   1  -2  -9  432.65   19.55
   1   2  -9  451.46   19.87
   1  -2  -9  418.78   19.95
   1  -2  -9  409.41   17.58
   1   2  -8  206.01   12.55
   1  -2  -8  193.41   11.09
   1  -2  -8  205.80   12.61
   1  -2  -8  185.17   11.67
  -1   2   8  196.92   11.83
   1   2  -8  199.42   12.04
   1  -2  -7  345.27   14.69
   1  -2  -7  336.53   15.44
   1   2  -7  338.88   15.05
   1  -2  -7  312.00   14.70
   1   2  -7  358.78   15.71
  -1   2   7  355.71   15.35
  -1  -2   6  200.89    8.54
  -1   2   6  196.14   10.36
   1  -2  -6  222.50   11.01
   1  -2  -6  191.71   10.36
   1  -2  -6  197.88    4.68
   1   2  -6  206.93   10.81
  -1  -2   5    7.64    1.49
   1  -2  -5    9.54    2.19
  -1   2   5    7.56    1.83
   1   2  -5    7.61    1.82
   1  -2  -5   10.72    1.16
   1  -2  -5    9.96    2.06
   1  -2  -4  135.53    6.83
   1  -2  -4  152.43    7.43
  -1  -2   4  150.31    6.13
   1   2  -4  156.15    7.31
  -1   2   4  143.69    7.36
  -1  -2   3 1728.98   33.44
   1   2  -3 1726.36   34.89
  -1   2   3 1686.15   35.89
   1  -2  -3 1732.15   35.02
   1  -2  -3 1668.71   35.73
   1  -2  -2  177.93    8.10
  -1   2   2  187.22    6.93
  -1  -2   2  173.53    5.60
  -1   2   2  173.83    6.33
   1  -2  -2  176.27    6.71
   1   2  -2  189.24    6.10
   1   2  -1 1260.11   24.63
  -1   2   1 1228.53   25.68
  -1   2   1 1299.90   25.61
   1  -2  -1 1229.81   28.04
  -1   2   1 1234.63   25.12
   1   2   0  333.41    9.63
  -1   2   0  326.83    7.39
  -1   2   0  323.26    9.18
   1   2   0  327.69    7.04
   1   2   0  328.29    7.80
  -1  -2   0  323.61    7.52
   1  -2   0  326.79    8.53
   1  -2   0  321.94    6.83
  -1  -2   0  318.87    7.39
   1  -2   1 4506.27   82.43
   1   2   1 4763.62   84.93
  -1   2  -1 4760.64   84.50
   1   2   1 4601.85   82.50
  -1  -2  -1 4771.57   82.53
   1   2   1 4633.26   82.45
  -1   2  -1 4631.01   82.55
  -1  -2  -2  123.14    5.43
   1   2   2  124.50    5.32
  -1   2  -2  115.61    5.70
   1  -2   2  111.41    5.01
   1   2   2  123.07    5.23
   1  -2   2  122.06    5.25
  -1   2  -2  119.98    5.39
  -1  -2  -3  702.11   18.83
  -1   2  -3  728.20   19.05
   1   2   3  740.85   19.29
   1  -2   3  731.64   18.40
   1   2   3  738.32   18.52
   1   2   3  678.76   17.76
  -1  -2  -3  699.69   18.66
  -1   2  -3  706.50   18.74
   1  -2   3  717.59   17.99
   1  -2   4   34.74    3.33
   1  -2   4   30.92    3.18
  -1   2  -4   39.91    3.88
  -1  -2  -4   34.79    3.68
  -1   2  -4   31.80    3.52
  -1  -2  -4   36.92    3.83
   1   2   4   38.07    3.76
   1   2   4   33.59    3.26
  -1  -2  -5  362.45   14.26
  -1  -2  -5  345.78   14.22
   1  -2   5  336.38   12.41
  -1  -2  -5  352.37    7.71
  -1   2  -5  352.16   14.25
  -1   2  -5  373.59   14.26
  -1   2  -6   30.82    4.18
   1  -2   6   28.84    3.57
  -1   2  -6   28.54    4.16
   1  -2   6   27.21    3.40
  -1  -2  -6   29.15    4.09
  -1  -2  -6   24.73    3.91
   1   2   6   31.23    3.70
   1  -2   7  114.03    7.72
  -1   2  -7  123.91    9.08
  -1   2  -7  108.51    8.84
  -1  -2  -7  133.53    9.45
  -1  -2  -7  112.49    9.05
   1   2   7  117.91    7.82
  -1  -2  -7  114.77    7.58
  -1  -2  -8   57.32    5.46
  -1  -2  -8   51.85    6.33
  -1   2  -8   68.91    7.25
  -1  -2  -8   60.77    7.15
  -1   2  -8   55.94    6.77
  -1  -2  -9  250.15   15.02
  -1   2  -9  263.64   15.30
  -1  -2  -9  271.39   16.27
  -1   2  -9  249.72   15.63
  -1  -2 -10    2.33    2.11
  -1   2 -10    2.31    2.10
  -1   2 -11   23.14    5.36
  -1  -2 -11   24.55    5.51
   1  -2  12   38.02    6.50
  -1   2 -12   32.51    6.93
  -1  -2 -12   32.62    6.83
  -1  -2 -13   93.98   11.91
   1  -2  13  102.62   11.31
  -1   2 -13  108.93   12.57
  -1   3  13   -1.24    1.59
   1   3 -13    1.47    3.27
   1  -3 -13   -1.48    3.29
   1  -3 -12   34.04    6.78
   1   3 -12   21.61    5.36
  -1   3  12   24.17    5.24
  -1  -3  11  107.93    7.99
   1  -3 -11  104.97   10.94
  -1   3  11   91.04    9.62
   1   3 -11  100.64   10.82
  -1   3  10   31.82    5.41
   1  -3 -10   21.94    4.21
   1  -3 -10   18.76    4.61
   1   3 -10   18.67    4.58
  -1  -3  10   24.70    3.69
   1  -3  -9   46.58    6.59
  -1   3   9   54.76    6.70
   1   3  -9   49.19    6.78
   1   3  -9   60.52    7.20
   1  -3  -9   63.22    6.87
  -1  -3   9   47.88    4.84
   1  -3  -9   44.37    6.13
   1  -3  -8   87.97    8.16
  -1  -3   8   95.00    6.44
   1   3  -8   73.84    7.44
   1   3  -8   67.48    7.22
   1  -3  -8   70.93    7.18
   1  -3  -8   90.50    8.11
  -1   3   8   79.15    7.61
   1  -3  -7   84.18    7.48
   1  -3  -7   89.20    7.66
   1   3  -7   90.03    7.56
   1   3  -7   77.91    7.07
   1  -3  -7   95.38    7.69
   1  -3  -7   96.18    3.21
  -1  -3   7   85.41    5.83
  -1   3   7  102.71    8.08
   1   3  -6   48.22    5.08
   1  -3  -6   39.48    4.57
   1  -3  -6   46.64    5.02
   1   3  -6   42.34    4.66
   1  -3  -6   38.88    4.87
  -1   3   6   34.15    4.34
  -1  -3   5 1583.30   33.92
   1  -3  -5 1547.14   37.16
   1   3  -5 1573.67   36.85
   1  -3  -5 1589.31   36.96
   1  -3  -5 1599.67   39.53
  -1   3   5 1569.43   37.56
  -1  -3   4    4.50    1.08
   1  -3  -4    4.36    1.28
  -1   3   4    3.14    1.22
   1   3  -4    3.94    1.22
   1  -3  -4    2.17    1.04
   1   3  -3  196.26    7.72
  -1   3   3  197.59    7.71
  -1  -3   3  186.43    6.95
   1   3  -3  181.02    7.01
   1  -3  -3  175.19    7.02
   1  -3  -3  182.58    8.31
  -1  -3   2  579.10   14.36
  -1   3   2  592.86   15.49
   1  -3  -2  581.52   16.07
   1   3  -2  554.51   13.47
   1  -3  -2  595.20   13.74
   1   3  -2  610.44   15.23
  -1   3   2  590.73   15.82
  -1  -3   1  958.03   18.04
   1   3  -1  943.40   21.08
  -1   3   1  896.46   21.94
  -1   3   1  980.28   21.57
  -1   3   1  939.01   17.76
  -1  -3   1  922.95   20.01
  -1   3   1  929.84   21.94
   1  -3   0  383.77   11.08
   1  -3   0  390.18    8.29
   1   3   0  374.60    8.16
  -1  -3   0  359.15    9.40
  -1   3   0  371.46   11.53
   1   3   0  389.42   10.92
   1   3   1  243.08    6.59
   1   3   1  236.66    6.34
   1   3   1  239.34    6.61
  -1   3  -1  238.44    8.99
   1  -3   1  241.52    6.35
   1  -3   1  249.56    6.69
   1  -3   1  244.23    6.61
   1   3   1  245.86    7.56
  -1  -3  -2   23.45    2.23
   1  -3   2   24.06    2.07
  -1   3  -2   27.59    2.99
  -1   3  -2   23.58    2.24
   1   3   2   20.60    1.94
  -1   3  -3 1262.50   29.89
   1   3   3 1227.36   26.92
  -1   3  -3 1242.80   28.38
   1   3   3 1250.47   31.59
  -1  -3  -3 1285.71   28.70
   1  -3   3 1235.14   26.98
   1   3   4   26.60    3.64
   1   3   4   20.37    2.46
  -1  -3  -4   23.70    3.06
   1  -3   4   18.92    2.43
  -1   3  -4   20.26    2.90
  -1  -3  -5  164.62    9.38
   1  -3   5  169.13    8.36
  -1  -3  -5  153.77    9.34
   1   3   5  165.54    9.61
   1  -3   5  168.68    8.10
  -1   3  -5  174.14    9.32
  -1   3  -5  158.92    9.16
  -1  -3  -5  152.78    8.82
   1   3   6    1.41    0.85
  -1  -3  -6    1.34    1.49
   1  -3   6    1.43    0.97
  -1  -3  -6    0.62    1.13
   1  -3   6    1.87    1.04
  -1  -3  -6    2.84    0.64
  -1  -3  -6    5.14    1.94
  -1   3  -6    2.46    1.37
  -1   3  -6    3.32    1.70
   1  -3   7  927.82   26.02
  -1  -3  -7  972.17   29.43
  -1  -3  -7  940.91   30.04
  -1   3  -7  945.75   29.82
  -1   3  -7  922.46   28.82
  -1   3  -8   -0.82    1.66
  -1   3  -8   -0.90    1.42
  -1  -3  -8   -0.91    1.43
   1  -3   8   -2.31    1.66
  -1  -3  -8    0.82    1.83
  -1  -3  -9    5.55    2.52
  -1   3  -9    5.51    2.63
   1  -3   9    7.52    2.28
   1   3   9    5.59    2.39
  -1   3  -9    4.11    2.47
  -1  -3  -9    3.10    2.10
  -1  -3 -10    1.16    2.11
   1  -3  10    0.68    0.87
   1   3  10    1.02    1.31
  -1   3 -10    2.30    2.34
  -1  -3 -11   14.16    4.68
  -1   3 -11   11.51    4.19
   1   3  11   13.39    3.80
  -1   3 -12   15.40    4.76
   1   3  12   10.87    3.64
  -1  -3 -12   11.27    4.05
  -1   3 -13   13.59    5.14
  -1  -3 -13   33.44    7.18
   1   4 -12   21.35    6.06
   1  -4 -12   10.78    4.58
  -1   4  12   18.43    4.57
   1   4 -11    1.22    1.56
   1  -4 -11   -1.23    2.23
  -1   4  11    1.07    1.68
   1  -4 -10   -2.20    3.00
   1   4 -10    2.19    2.62
  -1   4  10    0.98    1.54
  -1  -4  10    1.63    1.30
   1   4  -9  135.40   11.06
  -1   4   9  119.80   10.00
   1  -4  -9  124.80   10.37
   1   4  -9  146.01   11.08
   1  -4  -9  142.64   10.89
   1  -4  -9  139.83   11.28
  -1  -4   9  135.95    8.15
   1   4  -8   49.85    6.08
   1  -4  -8   47.16    5.82
   1   4  -8   48.99    5.93
   1  -4  -8   37.48    5.51
  -1  -4   8   30.38    3.73
   1  -4  -8   38.80    2.08
  -1   4   8   48.81    6.03
   1  -4  -8   43.92    5.89
   1   4  -7    0.72    1.31
   1  -4  -7    3.64    1.62
   1  -4  -7    5.72    2.34
   1   4  -7    3.98    1.81
   1  -4  -7    1.34    1.22
  -1   4   7    3.69    1.77
  -1  -4   7    4.57    1.69
  -1   4   6  245.53   12.54
   1   4  -6  213.15   11.24
   1   4  -6  243.73   11.54
   1  -4  -6  197.00   12.23
   1  -4  -6  202.85   11.19
  -1  -4   6  209.31    9.15
   1  -4  -6  226.07   11.23
   1  -4  -6  228.78   11.64
   1   4  -5  203.62    9.74
   1  -4  -5  204.50   10.75
   1  -4  -5  216.51   10.21
   1   4  -5  228.65   10.44
   1  -4  -5  223.41   10.40
   1   4  -4  618.78   18.37
   1  -4  -4  592.67   19.20
  -1   4   4  625.74   17.94
   1   4  -4  630.50   17.78
   1  -4  -4  618.77   17.84
   1  -4  -4  635.88   17.75
   1   4  -4  635.36   17.61
   1   4  -3  675.01   16.86
  -1   4   3  690.12   19.53
   1   4  -3  679.03   16.70
   1  -4  -3  668.92   16.91
   1   4  -3  641.88   18.38
   1  -4  -3  632.57   16.68
   1  -4  -3  681.02   19.85
  -1   4   3  623.75   18.04
   1  -4  -2   18.52    1.78
  -1  -4   2   21.52    2.36
  -1   4   2   17.62    2.47
   1  -4  -2   17.60    1.72
   1  -4  -2   20.87    2.85
  -1   4   2   16.92    2.44
   1   4  -2   16.86    1.66
   1   4  -2   20.40    1.77
   1   4  -2   22.11    2.64
  -1   4   2   21.48    2.74
  -1  -4   1   14.69    2.42
   1  -4  -1   16.42    1.12
  -1  -4   1   18.60    2.04
  -1   4   1   14.83    2.28
  -1  -4   1   13.34    1.06
  -1   4   1   16.44    2.38
   1  -4  -1   17.78    1.15
  -1  -4   0   80.58    5.54
  -1   4   0   74.50    5.13
  -1  -4   0   70.12    3.84
   1  -4   0   74.28    4.83
   1   4   0   77.26    4.90
  -1   4  -1 3059.02   60.55
   1  -4   1 3074.98   59.07
   1   4   1 3069.78   57.65
   1   4   1 3017.30   52.60
   1  -4   1 2968.34   52.23
  -1  -4  -2   23.33    3.38
   1  -4   2   27.89    1.98
  -1   4  -2   20.90    2.94
   1   4   2   28.56    2.21
   1   4   2   23.36    2.50
  -1  -4  -2   22.17    2.11
   1  -4   3   32.54    2.69
   1   4   3   37.07    3.23
  -1  -4  -3   40.64    4.49
   1   4   3   37.22    4.19
  -1  -4  -3   40.08    3.41
  -1   4  -3   43.38    3.48
  -1   4  -3   37.85    4.19
   1   4   3   31.75    4.38
   1  -4   3   44.71    3.91
  -1   4  -4   62.72    5.50
  -1   4  -4   56.24    4.66
  -1  -4  -4   51.44    5.34
   1   4   4   53.76    5.28
  -1  -4  -4   61.79    4.90
   1   4   4   48.50    5.49
   1  -4   4   61.87    4.80
   1   4   5  146.22   10.04
  -1  -4  -5  141.05    9.34
  -1  -4  -5  151.66    8.79
  -1   4  -5  144.70    8.59
   1  -4   5  139.41    7.76
  -1  -4  -6   -0.71    1.12
  -1  -4  -6    0.67    1.05
   1  -4   6    0.49    1.18
  -1   4  -6    0.65    0.84
  -1  -4  -7  100.16    8.52
  -1  -4  -7  102.55    4.19
  -1  -4  -7   91.68    8.15
  -1   4  -7  114.97    8.95
   1   4   7  126.47    9.77
   1  -4   7  107.08    7.34
   1  -4   8    0.58    1.05
   1   4   8    0.90    1.83
  -1  -4  -8   -0.90    1.83
  -1   4  -8    0.89    1.15
   1  -4   9   72.29    6.62
  -1   4  -9   72.98    8.47
   1   4   9   75.46    8.34
  -1  -4  -9   75.92    8.47
  -1  -4 -10    3.44    2.76
  -1   4 -10    7.94    3.57
   1   4  10   10.61    3.34
  -1   4 -11    2.50    1.97
  -1  -4 -11   -1.27    1.62
   1   4  11    1.14    1.47
  -1  -4 -12    4.14    4.51
   1   4  12    3.69    2.49
  -1   4 -12   12.27    4.63
   1  -5 -12   43.63    7.61
   1   5 -12   26.17    6.08
  -1   5  12   34.90    6.30
  -1   5  11    6.74    3.23
   1   5 -11    4.77    3.06
   1  -5 -11    4.81    3.28
   1  -5 -10   15.19    4.19
  -1  -5  10   14.78    2.84
   1   5 -10   16.04    4.24
  -1  -5   9   28.79    3.66
   1   5  -9   24.73    4.98
   1   5  -9   27.50    4.70
   1  -5  -9   31.81    5.41
   1  -5  -9   24.37    4.70
   1  -5  -8   40.01    5.47
   1   5  -8   55.33    6.28
  -1  -5   8   52.40    4.76
   1  -5  -8   48.95    6.28
   1   5  -8   50.65    6.40
   1   5  -7    9.97    2.75
   1  -5  -7   11.37    2.65
   1  -5  -7    6.70    2.35
  -1  -5   7   10.44    2.09
   1  -5  -7    5.81    2.19
   1   5  -7    9.85    2.60
   1  -5  -6   24.36    3.65
   1  -5  -6   30.62    4.04
   1  -5  -6   32.65    4.57
  -1  -5   6   24.86    3.08
   1   5  -6   27.69    3.79
  -1   5   6   28.65    3.70
   1   5  -6   17.23    3.08
  -1   5   5  108.21    7.84
  -1  -5   5  121.00    6.58
  -1   5   5   95.23    6.62
   1   5  -5  110.55    7.42
   1  -5  -5   83.94    7.12
   1   5  -5  101.53    6.74
   1  -5  -5   99.70    6.86
   1   5  -5  112.88    6.97
   1  -5  -5   97.61    6.58
  -1   5   4    3.43    1.91
  -1   5   4    9.38    2.24
  -1  -5   4    5.79    1.55
  -1   5   4   10.65    2.19
   1  -5  -4    7.61    2.13
   1   5  -4    6.94    1.61
   1   5  -4    7.71    1.98
   1  -5  -4   10.14    1.89
   1   5  -4    7.99    1.75
   1  -5  -4    8.34    1.76
  -1   5   3  318.18   12.76
   1   5  -3  300.79    9.44
  -1   5   3  301.09   12.62
   1  -5  -3  290.35   12.68
   1   5  -3  303.40   12.28
   1   5  -3  305.06    9.40
   1  -5  -3  297.21    9.64
   1  -5  -3  291.71    9.51
  -1   5   3  320.74   15.85
  -1   5   3  290.37   11.89
  -1   5   2  126.92    9.63
  -1  -5   2  142.27    8.27
   1  -5  -2  143.64    8.35
  -1   5   2  143.29    7.94
   1   5  -2  156.70    8.15
  -1   5   2  160.16    8.64
  -1  -5   2  138.38    4.31
  -1   5   2  158.87    8.27
   1   5  -2  138.62    4.12
   1  -5  -2  148.50    4.70
   1   5  -1   51.21    4.43
  -1   5   1   47.46    4.63
  -1  -5   1   38.64    4.27
  -1   5   0  102.90    6.83
   1  -5   0  106.04    6.20
   1  -5   0   95.43    6.31
  -1  -5   0   93.67    6.74
  -1   5   0  101.83    8.18
   1   5   0  102.79    6.46
   1  -5   1   43.69    4.07
   1   5   1   42.80    3.75
   1   5   1   36.53    3.85
  -1   5  -1   39.40    4.31
  -1   5  -1   47.22    5.47
   1  -5   1   42.08    4.07
   1  -5   2   14.07    1.17
   1  -5   2   18.27    2.69
   1   5   2   12.81    2.11
   1   5   2   14.55    1.20
  -1  -5  -2   19.98    3.40
   1  -5   2   15.26    2.55
   1   5   2   16.41    3.03
   1  -5   2   17.03    2.69
   1   5   2   15.08    3.39
  -1   5  -2   18.40    3.08
   1  -5   3  554.85   16.92
   1   5   3  512.51   13.75
   1  -5   3  524.11   17.59
  -1  -5  -3  532.93   19.28
  -1   5  -3  548.02   18.95
  -1  -5  -3  534.36   14.33
   1   5   3  529.21   15.88
   1   5   3  535.25   18.84
   1   5   3  543.81   21.55
  -1  -5  -4   63.88    4.82
   1   5   4   57.16    4.57
  -1   5  -4   56.57    4.50
   1   5   4   57.62    6.74
   1   5   4   62.24    6.05
   1  -5   4   63.79    5.18
  -1   5  -4   62.55    5.99
  -1  -5  -4   57.75    6.06
   1   5   5   -0.87    0.79
   1   5   5    1.40    1.42
  -1  -5  -5    0.52    0.81
   1   5   5    0.83    0.92
  -1  -5  -5    2.17    1.60
   1  -5   5    1.43    1.14
  -1   5  -5   -0.50    0.78
  -1  -5  -6   11.66    3.08
  -1   5  -6   10.48    2.51
   1  -5   6    9.15    2.22
  -1  -5  -6   12.67    2.76
   1   5   6   12.12    3.00
   1   5   6    5.45    2.48
  -1   5  -7  693.88   24.04
  -1  -5  -7  696.82   24.27
   1  -5   7  696.69   21.63
  -1  -5  -8    0.87    1.94
  -1  -5  -8    0.36    0.52
   1  -5   8   -0.58    1.29
  -1   5  -8   -1.71    1.90
  -1   5  -9   35.08    5.90
  -1  -5  -9   37.64    6.06
  -1   5 -10   -3.27    3.71
  -1  -5 -10   -2.22    3.48
  -1  -5 -11   46.44    7.58
  -1   5 -11   67.51    8.80
  -1   5 -12   13.12    4.30
  -1  -5 -12   14.63    4.52
   1   6 -11   27.31    5.68
   1  -6 -11   32.40    6.05
   1   6 -10   -1.03    2.95
   1  -6 -10    1.04    3.55
   1   6  -9    2.73    2.03
  -1   6   9    0.92    1.45
   1  -6  -9    4.34    1.16
   1  -6  -9    2.79    1.89
  -1   6   8   14.60    3.49
   1   6  -8    7.12    2.69
  -1  -6   8    9.83    2.23
   1  -6  -8   13.40    3.17
   1  -6  -8    4.05    2.33
   1   6  -8    8.70    2.55
   1  -6  -7   -0.69    1.40
  -1   6   7   -0.79    1.25
   1   6  -7    0.62    0.80
   1  -6  -7   -0.64    1.01
  -1  -6   7    0.47    0.85
   1   6  -7    0.67    1.61
  -1   6   6   27.71    4.42
   1  -6  -6   26.90    3.95
  -1  -6   6   35.02    3.87
   1  -6  -6   29.85    4.68
   1   6  -6   23.65    3.53
   1  -6  -6   31.16    4.02
  -1   6   5   22.54    3.57
   1  -6  -5   29.68    4.47
   1   6  -5   32.27    3.58
   1   6  -5   23.56    3.81
  -1   6   5   26.19    4.07
   1  -6  -5   23.81    3.14
   1   6  -4  102.52    5.37
  -1   6   4  126.40   10.73
   1  -6  -4  102.24    5.62
  -1  -6   4  116.55    4.74
  -1   6   4  103.19    7.82
  -1   6   4  102.08    7.36
   1  -6  -4  108.40    8.24
   1   6  -4   95.79    7.43
  -1  -6   4  109.70    6.95
  -1   6   4  123.70    8.40
   1   6  -3   41.00    2.00
  -1  -6   3   47.89    5.21
   1  -6  -3   47.58    5.32
  -1   6   3   50.95    5.44
  -1  -6   3   37.41    3.80
   1  -6  -3   43.98    2.52
  -1   6   3   43.24    6.33
  -1   6   3   50.59    5.04
  -1   6   3   49.65    5.13
  -1  -6   3   42.67    2.20
   1   6  -3   35.36    4.43
  -1   6   2  155.58    8.90
  -1   6   2  149.81    9.17
  -1  -6   2  146.36    9.15
  -1  -6   2  144.02    7.29
   1  -6  -2  136.15    8.79
   1   6  -2  146.24    8.74
  -1   6   1   47.02    5.14
   1   6  -1   63.49    5.55
  -1  -6   1   48.79    5.29
   1  -6   0  151.02    8.87
   1  -6   0  156.68    8.19
   1   6   0  142.77    8.51
  -1   6   0  130.82    8.62
  -1  -6   0  128.67    8.71
  -1   6   0  159.06   11.31
   1  -6   1  950.46   25.36
   1   6   1  929.34   31.77
   1  -6   1  927.26   26.24
  -1   6  -1  981.54   31.29
   1   6   1  944.24   26.46
  -1   6  -1  938.97   27.48
  -1   6  -2    2.49    1.69
  -1   6  -2    2.59    1.44
   1   6   2    1.64    1.11
   1  -6   2    1.06    1.53
   1   6   2    3.11    1.56
  -1  -6  -2    3.52    1.81
   1  -6   2    2.02    1.37
   1   6   2   -0.95    0.86
   1   6   3   82.31    7.10
   1  -6   3   78.02    3.13
   1  -6   3   70.82    6.07
  -1   6  -3   80.11    7.13
   1   6   3   76.91    2.98
   1  -6   3   79.24    6.38
  -1  -6  -3   84.31    7.59
   1   6   3   85.97    6.02
   1   6   3   69.53    7.91
   1  -6   4   17.50    2.93
  -1  -6  -4   27.26    4.57
   1  -6   4   18.10    3.21
   1   6   4   22.35    3.21
   1   6   4   24.06    4.83
   1   6   4   20.08    3.70
   1   6   4   21.47    2.37
  -1   6  -4   27.55    4.33
   1   6   5  121.80    7.62
  -1   6  -5  130.90    9.59
   1   6   5  131.71    9.68
   1  -6   5  136.34    8.20
  -1  -6  -5  121.81    9.68
  -1  -6  -5  131.83    7.47
   1   6   5  132.14   11.21
  -1   6  -5  128.93    7.29
   1   6   6  213.60   10.48
   1   6   6  226.10   13.29
   1   6   6  211.64   14.50
   1  -6   6  226.28   10.97
  -1   6  -6  209.97   10.69
  -1  -6  -6  194.61   10.46
  -1  -6  -7   11.13    2.83
  -1   6  -7    8.08    2.45
   1   6   7   15.01    3.59
   1   6   8    3.79    2.28
  -1  -6  -8    6.52    2.45
  -1   6  -8    6.34    2.28
  -1  -6  -9  153.93   11.69
  -1   6  -9  150.06   11.38
   1   6   9  138.19   11.56
  -1   6 -10   10.22    3.48
  -1  -6 -10   14.64    4.03
  -1   6 -11   23.73    5.14
  -1  -6 -11   16.14    4.20
  -1   6 -12   -1.23    2.50
  -1   7  10    2.02    1.84
   1   7 -10   -0.92    2.04
  -1   7   9   82.88    8.71
   1   7  -9   79.99    7.88
  -1   7   8    3.59    2.45
   1   7  -8    5.52    2.34
   1  -7  -7    5.39    1.96
  -1   7   7   10.89    3.14
   1   7  -7   10.16    2.56
  -1   7   6    2.31    1.71
   1   7  -6    0.86    1.35
  -1   7   6    1.57    1.59
  -1  -7   6    0.60    1.09
   1  -7  -6   -1.86    1.40
  -1  -7   5   58.69    3.35
  -1  -7   5   62.53    5.65
  -1   7   5   58.79    3.13
  -1   7   5   54.22    6.13
   1  -7  -5   50.49    3.97
   1   7  -5   61.09    6.44
   1   7  -5   54.11    3.78
  -1   7   5   67.39    6.96
  -1   7   4   16.15    4.32
   1   7  -4   17.28    3.47
  -1   7   4   20.54    3.95
  -1   7   4   17.84    3.36
   1  -7  -4   18.07    3.62
  -1  -7   4   14.45    1.15
  -1  -7   4   18.14    2.96
  -1   7   3  159.18   10.51
  -1   7   3  161.47   13.13
   1   7  -3  181.28   10.80
  -1  -7   3  174.79    8.76
  -1   7   3  159.83    9.85
   1  -7  -3  156.63   10.38
   1   7  -2    2.66    1.71
   1  -7  -2    4.85    1.89
  -1  -7   2    3.64    1.37
  -1   7   2    3.52    1.69
  -1   7   1  133.51   11.37
   1   7  -1  108.60    8.03
  -1  -7   1   96.66    8.04
  -1   7   1  122.99    8.99
   1   7   0   -0.64    1.29
  -1   7   0    1.04    1.33
  -1   7   0   -0.71    1.12
  -1  -7   0   -0.71    1.43
  -1   7  -1    1.47    1.49
   1  -7   1    2.55    1.46
   1   7   1    1.92    1.43
   1  -7   1    1.24    1.26
  -1   7  -1   -1.01    1.29
  -1   7  -2    0.98    0.89
   1  -7   2   -0.55    1.00
   1   7   2    2.23    1.75
   1  -7   2    0.62    0.80
  -1  -7  -2    2.39    1.77
  -1   7  -2   -0.76    1.38
   1   7   2    1.31    1.19
   1  -7   3  322.60   14.46
  -1   7  -3  314.80   17.22
   1   7   3  305.75   14.50
  -1   7  -3  297.00   15.42
   1   7   3  309.06   18.31
   1   7   3  325.85   13.41
   1  -7   3  329.76   14.03
   1  -7   4   26.82    1.29
  -1   7  -4   37.07    5.99
   1  -7   4   38.02    4.83
   1   7   4   36.18    5.27
  -1   7  -4   30.71    4.90
   1   7   4   36.10    4.41
   1   7   4   34.78    6.15
   1   7   5   13.45    3.43
  -1   7  -5   22.23    4.26
   1  -7   5   22.04    3.82
   1   7   5   15.36    4.30
   1   7   5   20.81    3.40
   1   7   5   20.11    2.19
   1   7   6    0.88    1.39
   1  -7   6    1.48    1.50
  -1  -7  -6    0.93    1.03
   1   7   6    1.16    1.31
   1   7   6    1.21    1.91
   1   7   7  381.48   18.67
  -1  -7  -7  335.03   14.45
  -1   7  -7  338.98   14.17
  -1   7  -8    2.75    1.76
   1   7   8    2.99    2.21
   1   7   9   -1.05    1.90
  -1   7  -9    0.80    1.63
  -1  -8   9   -0.75    1.53
  -1  -8   8   13.34    3.19
  -1   8   8    5.59    2.68
  -1  -8   7   30.21    4.44
  -1   8   7   26.18    4.87
  -1   8   7   28.15    4.94
  -1   8   6   30.94    5.04
  -1   8   6   42.34    5.72
  -1  -8   6   34.56    4.37
  -1  -8   5    1.64    1.32
  -1   8   5    0.79    1.44
  -1   8   5    4.31    2.35
   1   8  -5    2.51    1.70
  -1   8   4   18.30    4.90
   1   8  -4   17.33    3.60
  -1   8   4   12.64    3.34
  -1  -8   4   19.20    3.19
   1   8  -3   34.51    5.08
  -1  -8   3   32.81    3.74
  -1   8   3   30.68    4.91
   1   8  -2   -0.78    1.42
  -1   8   2   -0.82    1.29
   1   8  -1   12.18    3.09
   1   8  -1    6.16    3.17
  -1   8   1    7.26    3.11
  -1   8   1   10.68    2.89
  -1   8   0    2.38    2.41
   1   8   0    2.49    1.96
   1   8   0    3.00    1.67
  -1   8   0   -0.83    1.51
   1  -8   1  352.88   14.48
  -1   8  -1  365.59   17.52
  -1   8  -1  334.73   19.49
   1   8   1  356.94   16.46
   1  -8   2    5.18    1.96
  -1   8  -2    4.57    2.54
   1   8   2   11.45    3.02
   1   8   2    6.42    3.09
  -1   8  -2    9.70    3.10
   1   8   3   33.83    6.38
  -1   8  -3   36.84    6.27
   1  -8   3   34.58    4.59
   1   8   3   28.23    4.59
  -1   8  -3   33.89    5.48
  -1   8  -4   12.20    3.41
   1   8   4   14.46    4.63
   1  -8   4   11.78    3.04
   1   8   4   20.92    4.01
  -1   8  -4    9.84    3.59
   1   8   5   85.55    8.47
   1  -8   5   69.84    6.76
  -1   8  -5   67.49    8.34
   1   8   5   69.48    9.32
  -1   8  -5   79.33    8.46
   1   8   5   73.89    7.59
   1   8   6   38.93    5.63
   1   8   6   46.43    7.77
   1  -8   6   42.15    5.51
   1   8   6   38.53    5.95
  -1   8  -6   38.69    6.33
   1  -8   7    4.02    2.06
   1   8   7    4.95    2.54
  -1   8  -7    6.09    2.61
  -1   8  -8    3.91    2.17
   1  -8   8    1.70    2.04
  -1  -9   6    0.58    1.05
  -1  -9   5   37.90    4.42
   1   9  -5   26.01    4.87
   1   9  -4    0.93    1.46
  -1  -9   4    0.50    1.12
   1   9  -4   -1.34    2.11
   1   9  -3  109.57    9.62
  -1   9   3  120.45   10.23
   1   9  -3  127.46   12.76
   1   9  -2   15.29    3.75
  -1   9   2   16.61    4.87
   1   9  -2   21.91    5.56
  -1   9   2   16.95    4.11
  -1   9   1  115.45   12.22
  -1   9   1  108.54    9.75
   1   9  -1  109.22    9.54
   1   9  -1  102.27   11.64
  -1   9   0   13.35    4.54
   1   9   0   21.74    4.26
  -1   9   0   15.39    3.82
   1   9   0   16.80    5.09
  -1   9  -1    7.88    3.16
   1   9   1    6.93    2.49
  -1   9  -1    7.83    2.95
   1   9   2   73.36    7.68
  -1   9  -2   57.05    7.35
   1  -9   2   65.55    6.28
  -1   9  -2   67.19    9.15
   1   9   3  115.38    9.80
  -1   9  -3   80.36    8.82
   1  -9   3  102.58    7.85
  -1   9  -3   83.75   10.10
   1   9   3  101.26   11.78
   1  -9   4    1.98    1.58
  -1   9  -4   -1.24    1.94
  -1   9  -4    1.04    1.34
   1   9   4    0.91    1.43
   1  -9   5   26.00    4.44
  -1   9  -5   28.43    5.43
  -1   9  -5   34.92    6.39
  -1   9  -6   10.51    3.97
   1  -9   6   14.04    3.36
  -1   9  -7   71.00    8.87
   1  -9   7   63.06    6.98
   1 -10   4   57.02    6.08
  -2   0  13   -1.26    1.62
   2   0 -13   -1.47    3.52
   2   0 -12  350.05   21.17
  -2   0  12  379.54   20.63
   2   0 -11   -1.18    1.85
  -2   0  11   -1.05    0.95
   2   0 -10    9.35    3.27
  -2   0  10    7.47    2.81
  -2   0   9    0.19    0.30
   2   0  -9   -0.89    1.62
   2   0  -8  276.09   14.50
  -2   0   8  295.50    8.79
   2   0  -7   -0.62    0.80
  -2   0   7    0.21    0.33
   2   0  -6  187.30    9.86
  -2   0   6  174.21    6.38
  -2   0   5   -0.20    0.31
  -2   0   4  247.96    7.67
  -2   0   3   -0.18    0.23
  -2   0   2 5632.81   99.64
  -2   0   1   -0.17    0.27
   2   0  -1    0.62    0.19
   2   0   0 2177.41   38.80
   2   0   0 2172.32   40.73
  -2   0   0 2185.61   41.12
   2   0   1   -0.14    0.18
   2   0   1    0.17    0.27
   2   0   1    0.43    0.34
   2   0   2 3716.24   66.77
  -2   0  -2 3703.26   68.76
   2   0   2 3519.32   65.91
  -2   0  -3    0.40    0.36
   2   0   3   -0.31    0.40
   2   0   3   -0.18    0.28
   2   0   4    7.61    1.67
  -2   0  -4    7.90    1.91
   2   0   4    8.95    1.30
   2   0   5   -0.50    0.64
  -2   0  -5   -0.60    0.55
   2   0   5   -0.18    0.34
   2   0   6   72.85    3.64
  -2   0  -6   72.05    6.87
   2   0   6   69.97    6.19
  -2   0  -6   75.26    3.82
   2   0   7    0.60    0.77
  -2   0  -7    0.83    0.75
   2   0   7    0.17    0.34
   2   0   7   -0.69    0.89
  -2   0  -7    0.24    0.37
   2   0   8    4.49    1.75
   2   0   8    2.59    0.65
  -2   0  -8    4.44    1.23
   2   0   8    6.36    2.17
  -2   0  -8    0.95    1.93
  -2   0  -9    0.31    0.56
   2   0   9    0.90    1.15
   2   0   9    0.71    1.12
  -2   0  -9    1.07    1.69
  -2   0 -10  487.67   23.82
   2   0  10  458.62   21.57
   2   0  11    1.10    1.74
  -2   0 -11   -1.33    1.20
   2   0  12    2.40    1.88
  -2   0 -12   -1.45    2.63
   2   0  13   -1.29    1.65
  -2   0 -13   -1.56    2.83
  -2  -1  13   11.44    3.83
   2  -1 -13    8.83    4.01
  -2   1  13    9.90    3.55
   2   1 -13    5.87    3.53
  -2   1  12   42.40    6.85
   2  -1 -12   33.29    6.76
   2  -1 -11   37.45    5.34
   2  -1 -11   28.44    5.81
  -2   1  11   27.14    5.30
   2  -1 -10  183.87   13.28
  -2  -1  10  191.41    7.48
  -2   1  10  182.99   12.86
   2  -1  -9   15.25    3.74
  -2   1   9   15.85    3.64
  -2  -1   9   18.04    2.25
  -2   1   8   50.22    5.93
   2  -1  -8   47.06    5.87
  -2  -1   8   51.23    3.70
  -2  -1   7   13.03    1.87
   2  -1  -7   10.62    2.61
  -2   1   7   13.72    2.84
   2  -1  -6   42.77    4.58
  -2   1   6   41.74    4.47
   2  -1  -5   47.68    2.72
  -2   1   5   50.85    4.48
   2  -1  -4  249.62    7.48
  -2   1   4  263.79    9.65
   2  -1  -3   35.94    2.50
  -2   1   3   35.73    2.79
  -2   1   2  678.67   14.85
   2  -1  -1  228.01    6.29
  -2  -1   1  235.65    6.73
   2  -1   0  267.45    7.43
   2  -1   0  272.99    7.50
  -2  -1   0  262.54    7.80
   2   1   0  278.88    7.82
   2  -1   1  203.04    7.30
   2  -1   1  196.14    6.86
   2  -1   1  212.65    6.02
  -2   1  -1  187.72    6.93
   2  -1   2  704.23   18.28
  -2  -1  -2  721.11   15.83
  -2  -1  -2  718.65   18.41
   2   1   2  753.15   18.21
  -2  -1  -3   17.03    2.45
   2   1   3   12.87    1.61
   2  -1   3    9.38    1.84
   2  -1   3    9.81    1.89
  -2  -1  -3   11.00    1.29
   2   1   3   14.04    2.07
   2  -1   4  400.81   14.55
   2   1   4  409.73   14.26
  -2  -1  -4  416.51   15.07
   2  -1   4  411.41   14.49
   2   1   4  428.10   11.84
  -2  -1  -5   39.20    4.62
   2   1   5   33.74    3.99
   2   1   6  122.31    8.37
   2  -1   6  112.07    7.62
  -2  -1  -6  117.21    8.80
   2  -1   7    7.14    2.23
   2   1   7    2.81    1.56
  -2   1  -7    6.23    1.05
  -2  -1  -7    1.66    1.31
  -2  -1  -8 1014.50   34.52
   2   1   8 1078.47   33.13
   2  -1   8 1129.50   31.27
  -2   1  -8 1098.55   23.12
   2  -1   8 1115.91   33.11
  -2   1  -9    0.46    0.56
   2  -1   9   -0.71    1.29
   2  -1   9    0.89    1.14
   2   1   9   -0.90    1.41
  -2  -1  -9   -1.08    1.38
   2  -1  10   53.90    3.61
   2   1  10   50.11    6.87
   2  -1  10   55.91    7.37
  -2   1 -10   63.65    3.87
  -2  -1 -10   58.84    8.14
   2  -1  11    2.52    0.74
   2   1  11    1.10    1.42
  -2  -1 -11    1.32    1.20
   2  -1  11    4.42    2.24
   2  -1  12  111.13   11.25
  -2  -1 -12  138.74   13.77
   2   1  12  108.59   11.18
  -2   1 -13    1.56    2.45
  -2  -1 -13    4.68    2.83
   2   1  13    1.31    2.06
   2  -1  13    3.92    2.65
  -2   2  13   91.65   10.32
   2   2 -13   71.80   10.31
   2  -2 -13   83.96   10.78
  -2  -2  12  219.41   11.39
   2   2 -12  179.95   15.22
  -2   2  12  204.26   14.64
   2  -2 -12  208.46   16.33
  -2   2  11   20.44    4.56
   2   2 -11   33.38    6.32
   2  -2 -11   16.71    4.61
  -2  -2  11   26.81    3.81
   2  -2 -10   -0.81    1.28
  -2  -2  10   -0.51    0.92
   2   2 -10   -1.05    1.91
  -2  -2  10   -0.37    0.74
   2  -2 -10    1.05    2.13
  -2   2  10   -0.92    1.45
   2  -2  -9    9.91    3.02
   2  -2  -9   17.81    4.00
  -2   2   9   15.59    3.50
   2   2  -9    9.28    2.97
   2   2  -9   13.71    3.52
   2  -2  -9   11.90    3.43
  -2  -2   9   10.49    2.20
   2  -2  -8  109.01    8.54
   2  -2  -8  103.79    8.64
   2   2  -8  120.76    9.16
  -2   2   8  108.60    8.57
   2  -2  -7  184.23   10.59
   2   2  -7  187.14   10.67
   2  -2  -7  188.60   10.97
  -2   2   7  190.09   10.74
   2   2  -6    0.53    0.48
   2  -2  -6    1.51    0.57
  -2   2   6    0.53    0.68
  -2  -2   6    2.03    0.79
   2  -2  -6    1.07    0.97
   2  -2  -6    0.61    0.78
  -2   2   5  378.69   13.70
   2  -2  -5  358.68   14.65
  -2  -2   5  381.79   10.93
   2   2  -5  378.99   13.66
   2  -2  -5  381.17   13.82
   2  -2  -5  376.13   10.49
  -2   2   4  255.91    9.90
  -2  -2   4  261.00    7.73
   2  -2  -3    0.89    0.70
  -2  -2   3    0.12    0.23
   2  -2  -3    1.56    0.67
  -2   2   3    0.81    0.55
   2  -2  -2  626.91   17.83
   2  -2  -2  583.36   14.36
  -2   2   2  590.79   15.26
  -2   2   2  645.68   14.75
   2   2  -2  617.79   13.27
  -2   2   1  325.68    8.13
  -2   2   1  340.73   10.26
  -2  -2   1  329.11    6.97
  -2  -2   1  337.61    8.75
   2  -2  -1  349.15   11.60
  -2   2   1  319.71    8.52
   2   2  -1  332.87    8.06
   2  -2  -1  343.41    8.54
  -2  -2   0   14.03    1.56
  -2   2   0   15.86    1.87
  -2   2   0   15.75    1.61
   2   2   0   16.18    1.99
   2   2   0   16.45    0.99
   2   2   0   16.03    1.44
   2  -2   0   22.16    1.62
   2  -2   0   15.11    2.01
   2  -2   0   16.11    1.28
   2   2   1  220.81    7.76
   2  -2   1  228.88    7.34
  -2   2  -1  221.31    7.93
   2   2   1  236.15    8.65
   2  -2   1  218.04    7.74
  -2   2  -1  222.12    8.39
   2   2   1  220.50    7.25
  -2  -2  -2 1887.15   38.92
  -2   2  -2 1971.88   39.66
  -2   2  -2 1951.69   39.17
  -2   2  -2 1841.87   37.05
   2  -2   2 1852.81   38.93
   2   2   2 1864.40   38.98
   2   2   3    9.60    1.88
  -2   2  -3    8.96    1.81
   2   2   3    8.47    1.71
  -2   2  -3    6.99    1.12
   2   2   3   13.74    2.34
   2  -2   3    7.31    1.61
  -2  -2  -3    5.52    1.52
   2  -2   3    7.76    1.65
  -2  -2  -4  525.03   17.49
   2   2   4  531.39   16.76
   2  -2   4  533.57   16.79
  -2  -2  -4  523.16   12.62
   2  -2   4  539.89   17.15
   2   2   4  505.89   16.81
   2   2   4  528.25   16.22
  -2   2  -4  522.58   17.33
   2   2   4  556.71   17.69
  -2  -2  -5   55.20    5.50
  -2   2  -5   54.68    5.42
   2  -2   5   52.27    4.89
   2  -2   5   49.76    4.95
   2   2   5   58.96    5.46
   2   2   5   65.90    5.06
  -2  -2  -5   56.88    2.98
   2   2   6   81.94    6.98
   2  -2   6   86.15    6.59
  -2  -2  -6  105.66    8.21
   2  -2   6  102.22    6.94
   2   2   6   91.35    6.74
  -2   2  -6   84.92    7.37
   2  -2   7  156.32    9.12
  -2   2  -7  168.32   11.35
   2   2   7  157.12   10.50
   2  -2   7  149.75    9.08
  -2  -2  -7  157.02   11.04
   2   2   7  162.62    9.40
   2  -2   8    0.64    1.30
   2   2   8   -0.84    1.31
  -2   2  -8    0.94    1.21
  -2  -2  -8   -0.95    1.22
   2   2   8    1.28    1.30
   2   2   9   51.47    5.95
   2  -2   9   58.65    6.30
  -2  -2  -9   71.91    8.44
  -2   2  -9   65.10    7.93
   2   2   9   64.33    7.49
   2   2  10  776.15   29.15
  -2  -2 -10  740.15   30.63
  -2   2 -10  728.33   16.94
  -2  -2 -11    1.32    1.20
   2   2  11    2.25    2.04
  -2   2 -11    2.62    2.06
  -2   2 -11    0.70    0.55
   2  -2  11    3.28    2.43
   2  -2  12    9.63    3.79
  -2   2 -12    8.57    3.89
  -2  -2 -12    4.31    3.19
  -2  -2 -13   24.83    6.15
   2  -2  13   23.51    5.57
  -2   2 -13   29.35    6.74
   2   3 -13   39.38    7.51
   2  -3 -13   44.00    7.78
  -2   3  13   24.17    5.51
  -2  -3  12   -0.58    1.17
   2   3 -12   -1.34    2.71
  -2   3  12    1.12    1.44
   2  -3 -12   -1.34    3.22
  -2  -3  11    1.61    1.38
   2   3 -11    1.20    2.67
   2  -3 -11    3.62    2.68
  -2   3  11    2.06    1.87
  -2   3  10  167.26   11.93
   2  -3 -10  136.96   11.61
  -2  -3  10  126.34    7.77
   2   3 -10  153.37   12.34
  -2   3   9   11.75    3.24
   2   3  -9    8.44    3.07
   2  -3  -9   13.60    3.45
   2   3  -9    7.43    2.80
   2  -3  -9   13.08    3.50
  -2  -3   9   10.70    2.15
   2  -3  -9    7.69    2.80
   2  -3  -8   -0.80    0.72
   2   3  -8    0.75    1.52
  -2   3   8    0.75    1.17
   2   3  -8    0.79    0.72
  -2  -3   8    0.39    0.51
   2  -3  -8   -0.80    1.03
   2  -3  -7   12.72    2.85
   2  -3  -7    9.25    1.35
   2   3  -7   13.89    3.00
  -2   3   7   11.74    2.72
   2  -3  -7    5.25    1.93
  -2   3   6  175.86    9.75
   2  -3  -6  161.59    9.22
  -2  -3   6  168.47    7.19
   2   3  -6  148.14    8.78
   2  -3  -6  172.00    6.84
   2  -3  -6  164.77   10.48
  -2   3   5   35.42    3.93
  -2  -3   5   32.77    2.77
   2  -3  -5   34.62    3.83
   2   3  -5   32.72    3.61
  -2   3   4  105.06    5.98
   2  -3  -4   93.76    6.01
  -2  -3   4  102.62    4.72
   2  -3  -3    3.59    1.15
   2   3  -3    4.19    1.03
  -2  -3   3    3.85    0.88
  -2   3   3    0.98    0.73
   2  -3  -3    2.21    1.23
   2  -3  -2 1152.95   30.33
  -2   3   2 1166.96   23.90
  -2  -3   2 1238.72   24.21
  -2   3   2 1205.57   25.81
  -2   3   2 1172.42   27.14
   2   3  -2 1183.10   24.98
   2  -3  -2 1193.56   26.26
  -2   3   1   34.68    3.25
  -2  -3   1   38.87    2.44
  -2  -3   1   35.14    2.00
  -2   3   1   34.42    3.15
  -2   3   1   36.99    2.38
  -2   3   1   37.01    2.63
   2   3  -1   37.42    2.70
   2  -3  -1   37.74    3.97
   2   3   0   96.85    3.61
  -2   3   0   84.28    3.91
  -2  -3   0   88.36    4.18
   2  -3   0   86.88    3.34
   2  -3   0   80.47    4.09
  -2   3   0   85.03    5.16
  -2   3   0   95.01    6.09
   2   3   1   44.61    2.57
   2  -3   1   47.83    2.84
   2   3   1   53.42    4.26
   2  -3   1   47.72    3.23
   2   3   1   44.94    3.14
  -2   3  -1   51.39    4.32
   2   3   1   46.60    2.87
   2  -3   2    5.13    1.26
   2   3   2    4.48    1.15
   2  -3   2    4.00    1.06
   2  -3   2    2.92    0.96
  -2   3  -2    2.50    1.07
   2   3   2    6.72    1.62
  -2   3  -2    2.15    0.98
   2   3   2    6.35    1.31
   2   3   2    4.87    1.13
  -2  -3  -2    6.61    1.36
   2  -3   3    2.95    1.06
  -2   3  -3    6.10    1.59
   2   3   3    3.51    1.06
  -2  -3  -3    7.37    1.69
  -2   3  -3    2.30    1.03
  -2   3  -3    3.34    1.10
   2   3   3    4.71    1.54
   2   3   3    6.23    1.45
   2  -3   3    3.90    1.20
   2  -3   4  877.05   23.33
  -2   3  -4  840.94   23.71
   2  -3   4  840.54   22.71
   2  -3   4  838.94   22.86
   2   3   4  898.55   25.22
   2   3   4  853.83   22.77
  -2  -3  -4  874.64   24.18
  -2  -3  -5    0.59    0.54
   2   3   5   -0.57    0.73
  -2  -3  -5   -0.61    0.79
  -2   3  -5   -0.59    0.75
   2  -3   5    0.46    0.73
   2   3   5    0.64    0.83
  -2  -3  -5    0.21    0.42
   2  -3   5   -0.47    0.86
   2  -3   6   16.69    2.88
  -2  -3  -6   19.80    3.57
   2   3   6   24.46    3.69
  -2  -3  -6   15.54    3.28
   2  -3   6   19.04    3.05
  -2   3  -6   18.84    3.65
  -2  -3  -6   19.20    1.81
   2   3   6   15.49    2.70
   2  -3   7   39.93    4.68
  -2   3  -7   34.95    5.15
  -2  -3  -7   39.85    5.40
  -2  -3  -7   41.90    5.62
   2  -3   7   40.20    4.61
   2   3   7   35.61    4.40
   2  -3   8  904.21   26.92
   2  -3   8  884.34   26.61
   2   3   8  865.64   26.46
  -2   3  -8  922.72   31.14
  -2  -3  -8  824.47   29.86
  -2  -3  -9  101.92    9.98
  -2   3  -9  114.63   10.43
   2  -3   9  100.53    8.23
  -2   3 -10   55.12    7.71
  -2  -3 -10   40.20    6.66
  -2   3 -11   41.42    7.28
  -2  -3 -11   50.81    7.88
  -2   3 -12   67.67    9.57
   2  -3  12   84.80    9.65
  -2  -3 -12   68.17    9.55
   2  -4 -12  124.11   12.65
  -2   4  12  118.12   11.28
   2   4 -12  141.64   13.33
  -2  -4  11    0.50    1.02
   2   4 -11   -1.20    2.18
   2  -4 -11   -1.21    1.55
  -2   4  11   -1.03    1.62
   2  -4 -10   15.16    4.29
  -2  -4  10   14.51    2.60
   2   4 -10   18.24    4.58
  -2   4  10   26.37    4.99
   2  -4  -9    9.44    2.82
   2   4  -9    9.35    3.09
   2   4  -9   15.09    3.83
   2  -4  -9   17.12    3.96
  -2  -4   9   12.87    2.38
  -2   4   9   12.83    3.21
   2   4  -8   24.35    4.38
   2  -4  -8   24.26    2.22
   2  -4  -8   25.13    4.63
   2   4  -8   25.38    4.36
   2  -4  -8   33.62    5.07
   2  -4  -8   24.91    4.30
  -2  -4   8   30.67    3.32
  -2   4   8   27.76    4.50
  -2  -4   7   -0.35    0.71
   2  -4  -7   -0.30    0.62
   2  -4  -7   -0.85    0.77
   2  -4  -7   -0.66    1.04
   2   4  -7    1.37    1.08
  -2   4   7   -0.70    0.89
   2  -4  -7   -0.69    0.63
   2   4  -7   -0.65    1.02
   2  -4  -6    5.73    1.80
  -2   4   6    6.87    2.12
   2  -4  -6    4.01    1.93
   2   4  -6    3.39    1.45
   2   4  -5  112.95    6.95
   2  -4  -5   95.09    6.85
  -2   4   5  123.41    7.22
   2  -4  -5  115.57    6.98
  -2   4   4    9.18    2.01
   2  -4  -4    8.63    1.76
   2  -4  -4    6.89    1.78
  -2   4   4   10.05    2.03
  -2  -4   4    9.68    1.57
   2   4  -4   13.15    2.10
   2   4  -4    8.38    1.68
  -2   4   3   39.15    3.68
   2   4  -3   29.95    2.73
  -2   4   3   34.51    3.64
   2   4  -3   33.94    3.19
   2  -4  -3   40.38    3.84
   2  -4  -3   29.42    4.33
  -2   4   2   23.45    3.01
  -2  -4   2   21.68    1.89
  -2   4   2   27.08    2.82
  -2  -4   2   23.61    2.16
   2  -4  -2   22.65    2.76
  -2   4   2   19.14    2.67
   2   4  -2   22.79    2.56
  -2   4   2   21.29    1.81
   2   4  -1   30.62    2.93
  -2   4   1   36.09    3.77
  -2   4   1   34.85    3.62
  -2  -4   1   36.58    2.45
  -2  -4   1   35.48    2.41
  -2   4   1   36.77    2.29
   2  -4   0  103.68    4.45
  -2   4   0  116.59    6.83
   2   4   0  113.36    4.51
   2  -4   0  119.30    5.89
   2  -4   1    3.60    1.09
   2   4   1    2.91    0.69
   2  -4   1    3.04    0.65
   2   4   1    2.68    0.86
   2  -4   1    1.87    0.68
   2  -4   1    2.97    0.86
   2   4   1    3.02    0.82
   2   4   1    2.47    0.80
  -2   4  -1    4.59    1.44
   2  -4   2  843.74   19.66
   2  -4   2  867.56   20.45
   2  -4   2  871.02   20.39
   2   4   2  856.61   20.23
  -2   4  -2  909.10   24.67
   2   4   2  868.14   20.48
   2   4   2  903.15   20.03
   2   4   2  853.48   19.74
  -2  -4  -3   44.41    3.92
  -2  -4  -3   39.16    4.71
   2   4   3   42.54    5.18
   2   4   3   49.94    3.96
   2  -4   3   42.13    3.55
  -2   4  -3   43.88    4.68
   2  -4   3   46.17    3.79
  -2   4  -3   49.22    4.04
   2  -4   3   49.61    4.30
   2   4   3   43.46    3.58
   2   4   4  353.72   12.19
   2   4   4  357.24   15.94
   2  -4   4  362.16   12.35
   2  -4   4  374.48   13.52
  -2   4  -4  347.16   14.69
  -2  -4  -4  351.12   15.17
  -2   4  -4  329.75   12.95
  -2  -4  -4  331.72   13.17
   2  -4   5   71.26    5.29
  -2   4  -5   68.64    6.01
  -2  -4  -5   81.62    6.56
   2  -4   5   81.09    6.04
   2   4   5   71.87    6.93
  -2  -4  -5   88.86    7.48
   2   4   6  287.98   14.77
  -2  -4  -6  319.65   15.46
  -2   4  -6  320.71   14.71
   2   4   6  313.77   12.80
   2  -4   6  321.10   12.86
   2  -4   6  329.01   13.66
  -2  -4  -6  321.25   14.88
  -2  -4  -6  309.50    9.77
   2   4   7  221.85   11.03
  -2  -4  -7  199.11   12.33
   2  -4   7  215.81   10.76
   2  -4   7  212.62   10.99
  -2  -4  -7  182.24   12.05
  -2   4  -7  207.15   12.45
  -2  -4  -7  205.73    6.90
  -2  -4  -8   76.73    8.10
   2  -4   8   73.94    6.71
  -2   4  -8   74.68    7.86
  -2   4  -9    6.18    2.65
  -2  -4  -9    7.30    2.68
   2   4  10  353.01   19.65
  -2  -4 -10  382.07   20.63
  -2   4 -10  372.94   20.46
  -2  -4 -11   31.91    6.37
  -2   4 -11   27.80    5.65
   2   4  11   44.02    7.26
   2   4  12   34.35    6.45
  -2   4 -12   24.77    5.75
  -2  -4 -12   38.88    7.15
   2  -5 -12    1.31    3.36
   2   5 -12    1.30    3.11
  -2   5  12    1.15    1.48
   2  -5 -11    1.20    2.66
  -2   5  11   -1.08    1.96
   2  -5 -10  102.40   10.18
  -2  -5  10  130.32    7.61
  -2   5  10  110.69   10.28
   2   5 -10  132.06   11.49
  -2  -5   9   11.14    2.24
   2  -5  -9   12.63    1.55
   2   5  -9   15.25    3.61
   2  -5  -9    8.61    3.14
   2   5  -9   12.26    3.54
  -2  -5   8   17.30    2.66
   2  -5  -8   24.27    4.14
   2   5  -8   19.71    3.96
   2  -5  -8   19.13    4.01
   2  -5  -8   24.50    2.78
   2   5  -8   20.95    3.86
   2   5  -7   18.74    3.38
  -2  -5   7   13.22    2.16
   2  -5  -7   15.75    3.22
   2   5  -7   16.76    3.36
   2  -5  -7   14.86    3.29
   2   5  -6  156.56    9.13
   2  -5  -6  155.71    9.38
   2  -5  -6  165.72   10.12
  -2   5   6  160.79    9.21
   2  -5  -6  166.45    9.48
  -2  -5   6  171.35    7.78
   2   5  -6  162.82    9.53
  -2   5   5   30.17    3.84
   2  -5  -5   30.71    3.71
   2   5  -5   34.66    3.87
   2   5  -5   30.47    3.75
   2   5  -5   27.91    3.56
   2  -5  -5   29.72    3.69
  -2  -5   5   34.23    3.25
   2  -5  -5   36.12    4.43
  -2   5   5   30.99    4.03
  -2   5   4  338.57   13.50
   2  -5  -4  317.74   11.56
   2  -5  -4  319.59   13.43
  -2   5   4  352.80   13.65
   2   5  -4  323.89   12.65
   2   5  -4  320.53   11.42
   2  -5  -3   -0.49    0.77
  -2  -5   3   -0.21    0.42
  -2  -5   3   -0.31    0.49
   2   5  -3   -0.26    0.33
  -2   5   3    0.18    0.33
  -2   5   3   -0.45    0.58
  -2  -5   3   -0.55    1.00
   2  -5  -3    0.27    0.42
   2   5  -3   -0.43    0.68
  -2  -5   2  163.96    9.32
  -2  -5   2  171.07    5.88
  -2   5   2  170.44    8.27
   2   5  -2  149.84    5.46
   2  -5  -2  172.37    5.86
  -2   5   2  167.17    9.10
  -2  -5   2  176.82    6.90
  -2   5   2  164.14    9.09
  -2   5   2  181.60    5.62
   2   5  -2  182.53    8.53
   2  -5  -2  182.11    8.98
  -2   5   1   49.88    5.87
   2  -5  -1   65.39    2.94
  -2  -5   1   68.23    3.83
   2  -5  -1   61.18    4.89
  -2  -5   1   64.80    5.73
   2  -5  -1   67.52    2.70
   2   5  -1   63.03    2.63
  -2   5   1   66.56    5.62
   2   5  -1   61.56    2.36
   2   5  -1   71.36    5.10
   2  -5   0  250.88    6.21
   2  -5   0  268.36   10.55
   2   5   0  260.47   10.56
  -2  -5   0  264.65   12.09
  -2   5   0  261.22   11.81
   2  -5   0  285.94   11.27
   2  -5   0  258.52    6.25
  -2   5   0  274.50   13.73
  -2   5  -1   19.84    3.58
   2  -5   1   15.13    2.66
   2  -5   1   19.78    1.52
   2   5   1   13.74    2.08
   2  -5   1   18.44    2.68
  -2   5  -1   14.55    2.84
   2   5   1   17.55    1.37
   2   5   2   42.85    2.68
   2   5   2   41.94    2.65
   2  -5   2   43.64    2.62
  -2  -5  -2   42.27    5.06
   2  -5   2   34.43    2.45
   2  -5   2   51.90    4.94
   2  -5   2   38.32    4.00
   2   5   2   41.81    3.52
  -2   5  -2   38.71    4.61
  -2   5  -2   43.67    5.10
   2  -5   2   44.39    4.07
   2  -5   3    6.91    1.37
   2  -5   3    9.33    2.08
   2   5   3    9.89    1.68
   2   5   3    9.15    2.83
  -2  -5  -3    9.31    2.49
  -2   5  -3   10.28    2.55
  -2   5  -3    6.28    1.98
   2   5   3   11.52    1.69
   2   5   3    8.85    1.86
   2  -5   3    6.95    1.37
   2  -5   3   11.26    2.56
  -2   5  -4  592.25   17.88
   2   5   4  537.20   20.73
  -2  -5  -4  602.99   21.87
  -2   5  -4  598.98   20.41
  -2  -5  -4  596.62   18.12
   2  -5   4  600.11   16.44
   2   5   4  621.24   16.61
   2   5   4  579.59   16.84
  -2   5  -4  617.66   21.55
   2   5   4  566.69   22.94
   2  -5   4  634.18   19.27
   2   5   4  591.09   17.29
   2  -5   5    0.78    0.79
  -2  -5  -5    2.30    1.71
   2  -5   5    4.68    1.64
  -2   5  -5    1.60    1.08
   2   5   5    5.25    2.38
   2   5   5    4.44    1.90
  -2  -5  -5    0.55    0.86
   2   5   6   67.91    7.46
  -2  -5  -6   69.31    7.25
  -2   5  -6   52.28    5.59
   2  -5   6   61.24    5.69
  -2  -5  -6   59.41    6.08
   2   5   6   56.82    6.49
   2  -5   7   13.05    2.86
  -2  -5  -7   21.14    2.39
  -2   5  -7   18.20    3.65
  -2  -5  -7   20.14    3.93
  -2  -5  -8  195.94   12.74
  -2  -5  -8  184.78    6.61
  -2   5  -8  197.50   12.72
  -2  -5  -9   65.44    7.90
  -2   5  -9   77.17    8.51
  -2  -5 -10   24.71    5.11
  -2   5 -10   27.61    5.41
  -2   5 -11   26.74    5.64
  -2  -5 -11   30.82    6.04
  -2   5 -12    1.32    2.08
  -2  -5 -12   -1.34    2.10
   2   6 -12   41.04    6.99
   2  -6 -11    6.92    3.14
   2   6 -11    9.09    3.86
   2  -6 -10   -1.04    1.89
   2   6 -10    3.07    2.27
   2   6  -9    0.91    1.17
  -2   6   9    0.87    1.37
   2   6  -9    0.83    1.30
   2  -6  -9    0.93    1.68
  -2  -6   9    1.34    0.91
   2   6  -8  110.01    9.06
   2  -6  -8   94.90    8.51
  -2   6   8   80.94    7.94
   2  -6  -8   89.83    7.96
   2   6  -8   98.97    8.25
  -2  -6   8   95.78    6.32
   2  -6  -7    6.26    2.19
   2  -6  -7    6.42    2.18
   2   6  -7    9.39    2.41
  -2   6   7    8.18    2.70
   2   6  -7   10.83    2.75
   2  -6  -7    6.81    2.38
  -2  -6   7    8.60    1.90
   2   6  -6   31.93    4.19
   2  -6  -6   30.01    4.52
  -2   6   6   26.45    4.21
   2  -6  -6   28.44    4.01
   2  -6  -6   35.21    4.26
   2   6  -6   33.55    4.10
   2  -6  -5    4.62    1.90
   2   6  -5    5.19    1.81
  -2   6   5    3.70    1.48
   2   6  -5    6.29    1.62
   2   6  -5    5.77    1.61
   2  -6  -5    5.58    1.69
  -2  -6   5    5.08    1.31
   2  -6  -5    3.51    1.26
   2  -6  -4   23.81    2.84
   2  -6  -4   26.63    2.99
  -2   6   4   21.75    2.07
   2   6  -4   21.22    2.53
  -2  -6   4   19.33    2.11
  -2  -6   4   17.81    3.30
  -2   6   4   17.82    3.25
  -2   6   4   19.26    3.19
   2   6  -4   20.77    3.40
   2   6  -4   17.91    2.41
  -2   6   3   66.80    5.59
  -2  -6   3   54.70    5.72
  -2   6   3   62.58    2.92
  -2   6   3   67.08    6.08
   2  -6  -3   67.44    5.93
   2  -6  -3   53.92    3.46
   2   6  -3   56.67    3.27
   2  -6  -3   55.82    3.51
  -2   6   3   71.88    6.40
   2   6  -3   65.86    5.63
   2   6  -3   55.92    3.26
  -2  -6   3   56.61    3.19
  -2  -6   2  149.70    9.47
  -2   6   2  137.06    8.83
  -2   6   2  146.64    9.26
   2   6  -2  132.63    8.02
   2  -6  -2  153.40    8.88
  -2   6   1   33.02    5.35
  -2  -6   1   41.68    4.98
   2   6  -1   36.16    4.12
  -2   6   1   42.21    4.89
   2   6   0   15.07    2.63
  -2  -6   0   12.40    2.85
  -2   6   0   18.46    3.28
   2  -6   0   11.88    2.47
   2  -6   0   13.19    2.60
  -2   6   0   14.65    3.68
  -2   6  -1  215.02   13.13
   2  -6   1  220.32   10.39
   2  -6   1  234.92   11.15
   2   6   1  227.33   10.86
  -2   6  -1  224.31   11.99
   2   6   2  552.95   24.03
  -2  -6  -2  613.41   22.35
   2   6   2  570.48   20.85
  -2   6  -2  588.84   22.55
   2   6   2  579.64   17.17
   2  -6   2  583.67   18.59
  -2   6  -2  556.92   20.93
   2  -6   2  599.44   19.76
  -2   6  -3  197.66   12.17
   2  -6   3  199.64   10.00
   2   6   3  198.57   11.67
   2  -6   3  210.14   11.16
   2  -6   3  194.11    6.29
   2  -6   3  196.59   10.03
   2   6   3  216.29   14.12
  -2  -6  -3  208.52   12.29
   2   6   3  206.86    9.21
   2   6   3  200.45    6.48
  -2   6  -3  183.75   11.50
  -2  -6  -4   40.85    5.62
   2   6   4   40.12    3.40
   2  -6   4   42.42    3.52
  -2   6  -4   42.24    5.49
   2  -6   4   49.78    5.50
   2   6   4   37.74    3.91
   2   6   4   30.50    4.74
   2  -6   4   47.02    4.88
  -2   6  -4   36.22    5.21
   2   6   4   27.42    5.17
   2   6   5    2.49    1.13
   2   6   5    4.85    2.08
   2   6   5    5.17    2.30
   2   6   5    5.80    1.77
   2  -6   5    6.18    1.91
  -2   6  -5    5.86    2.21
   2   6   6  120.79   10.75
  -2   6  -6   96.53    7.25
  -2  -6  -6   98.44    7.51
  -2   6  -6  100.59    8.14
   2   6   6  108.26    9.30
   2   6   6  102.43    6.84
  -2   6  -7    7.66    2.45
  -2  -6  -7    8.61    2.61
   2   6   7    3.24    1.96
   2   6   7    6.47    2.52
  -2   6  -7    4.09    1.75
  -2   6  -8   88.08    7.43
  -2   6  -8  103.92    8.88
  -2  -6  -8   80.00    7.93
   2   6   8  101.84    9.70
  -2  -6  -8   86.05    5.06
  -2  -6  -9   29.36    5.24
   2   6   9   16.83    4.17
  -2   6  -9   31.46    5.25
  -2   6  -9   15.65    3.16
  -2   6 -10   49.78    7.09
   2   6  10   46.65    7.03
  -2  -6 -10   45.36    6.82
  -2  -6 -11    1.16    2.11
  -2   6 -11    4.57    2.74
  -2   6 -12    1.24    1.59
  -2   7  10   46.80    6.53
  -2   7   9   26.04    4.69
   2   7  -9   17.40    3.85
  -2   7   8    2.50    1.85
   2   7  -8   -0.71    1.12
  -2   7   7    4.85    2.20
  -2   7   7    6.25    2.35
   2  -7  -7    3.12    1.70
   2   7  -7    2.96    1.61
   2  -7  -6  160.20    8.88
  -2  -7   6  155.89    8.98
  -2   7   6  182.26   11.14
  -2  -7   6  173.14    7.34
   2   7  -6  167.60    8.78
   2  -7  -5    0.73    0.94
  -2  -7   5   -0.48    0.49
  -2   7   5    0.99    0.63
  -2   7   5    2.02    1.72
   2   7  -5    0.68    0.87
  -2  -7   5    0.46    0.94
   2   7  -5   -0.32    0.50
   2  -7  -5    0.36    0.74
  -2   7   4   99.40    7.63
   2   7  -4   81.52    3.32
  -2   7   4  101.90    8.54
  -2  -7   4   95.80    4.07
   2  -7  -4  105.49    4.50
  -2  -7   4  110.00    6.50
   2   7  -4   87.90    7.37
   2  -7  -4   92.99    7.85
   2   7  -3   23.07    3.78
  -2   7   3   22.19    3.98
   2  -7  -3   13.92    3.03
  -2  -7   3   22.04    2.74
  -2   7   2  122.40    9.21
   2  -7  -2  148.68    9.47
   2   7  -2  146.75    9.18
  -2   7   2  143.93   12.02
   2   7  -1   36.91    4.61
  -2   7   1   39.92    5.23
  -2   7   1   36.51    6.02
   2  -7   0   64.85    5.88
  -2   7   0   68.80    8.05
   2   7   0   74.76    6.53
  -2   7   0   87.64    7.79
  -2   7  -1   11.05    2.87
   2   7   1    7.46    2.33
   2  -7   1    8.12    2.17
  -2   7  -1   10.85    3.47
   2  -7   1   11.96    2.74
   2   7   2    7.99    2.93
  -2   7  -2   12.52    3.50
   2  -7   2    9.17    2.54
   2  -7   2    5.83    1.84
   2   7   2   12.77    2.90
  -2   7  -2    7.34    2.46
   2   7   3   21.97    5.06
   2   7   3   28.11    4.27
  -2   7  -3   31.73    5.32
   2   7   3   33.70    3.93
   2  -7   3   31.19    4.25
  -2   7  -3   32.58    5.19
   2  -7   3   42.45    4.91
  -2   7  -4  380.39   18.63
   2  -7   4  390.71   15.86
   2   7   4  391.49    9.51
   2   7   4  422.42   18.77
   2   7   4  422.96   15.11
  -2   7  -4  406.94   18.90
   2  -7   4  373.42    9.34
   2   7   4  381.97   21.00
   2  -7   4  413.38   17.24
  -2   7  -5    4.38    2.25
   2   7   5    3.36    1.02
   2   7   5    2.65    1.80
   2  -7   5    3.76    2.05
  -2   7  -5    1.83    1.66
   2   7   5    2.09    1.26
   2   7   5    3.57    2.41
  -2   7  -6   12.68    3.27
   2   7   6   21.69    4.90
   2   7   6   19.80    2.85
   2  -7   6   14.45    3.43
   2   7   6   16.71    3.78
   2   7   7   -1.23    1.58
  -2   7  -7    0.81    1.28
   2   7   7    0.98    1.99
   2   7   8  115.22   10.64
  -2   7  -8   97.19    8.22
  -2   7  -8  110.66    9.03
  -2   7  -9   -0.82    1.29
   2   7   9    1.09    2.21
  -2   7  -9    2.85    1.94
  -2   8   9    9.14    3.11
  -2  -8   8  151.53    9.58
  -2   8   8  136.94   10.76
  -2   8   7    8.15    2.57
  -2  -8   7   12.94    2.80
  -2   8   6    3.85    1.98
  -2  -8   6    7.62    2.06
  -2   8   5    2.64    1.78
   2   8  -5    5.41    2.22
  -2  -8   5    1.38    1.11
  -2   8   4   89.12    8.45
  -2  -8   4   86.83    5.94
   2   8  -4  104.02    8.53
   2   8  -3    3.75    1.93
  -2   8   3    6.84    2.57
  -2  -8   3    3.06    1.20
   2   8  -2  108.36    8.74
   2  -8  -2  117.80    9.09
  -2   8   2  137.47   10.46
  -2   8   2  146.70   12.88
   2  -8  -1    3.62    2.18
   2   8  -1   10.06    2.61
  -2   8   1    8.62    2.82
  -2   8   1   10.74    3.59
  -2   8   0   32.57    5.91
   2   8   0   39.36    5.27
  -2   8   0   38.04    5.54
   2   8   1   13.09    3.17
   2   8   1   19.37    4.98
  -2   8  -1   19.29    4.72
   2  -8   1   14.16    3.02
  -2   8  -1   11.78    3.30
   2   8   2  289.75   14.62
   2   8   2  291.99   18.84
  -2   8  -2  265.83   16.68
   2  -8   2  255.21   12.91
  -2   8  -2  246.46   14.78
   2   8   3    6.63    3.19
   2   8   3    1.53    1.70
   2  -8   3    6.13    2.32
  -2   8  -3   11.92    3.68
  -2   8  -3    5.82    2.64
   2   8   4   16.03    4.70
   2   8   4   18.77    3.83
  -2   8  -4   11.95    3.39
   2  -8   4   13.68    3.21
  -2   8  -4   12.66    3.59
  -2   8  -5   31.64    5.57
   2  -8   5   18.39    3.76
   2   8   5   24.65    4.88
   2   8   5   14.80    4.58
   2   8   5   25.01    4.41
  -2   8  -5   23.36    4.89
   2   8   6   30.59    5.32
   2   8   6   24.51    5.69
  -2   8  -6   28.51    5.23
   2  -8   6   37.74    5.44
  -2   8  -7   -0.94    1.48
   2   8   7   -1.04    1.33
   2  -8   7    0.87    1.36
   2  -8   8   22.85    4.48
  -2   8  -8   20.43    4.20
   2   9  -5   14.68    3.51
   2   9  -4   40.01    5.79
   2   9  -3   28.48    4.91
  -2   9   3   23.38    4.70
  -2   9   2   36.23    5.72
   2   9  -2   31.41    4.97
   2   9  -2   31.24    6.47
  -2   9   2   35.91    6.77
   2   9  -1    4.28    2.89
   2   9  -1    4.19    2.28
  -2   9   1    3.96    2.01
  -2   9   1    1.34    2.11
  -2   9   0    3.05    2.07
   2   9   0    1.44    2.61
   2   9   0    3.33    2.14
  -2   9   0    2.61    1.68
  -2   9  -1    4.13    2.29
   2   9   1    2.50    1.69
  -2   9  -1    5.11    2.59
  -2   9  -2   29.91    6.11
   2   9   2   28.00    4.77
  -2   9  -2   30.82    5.65
   2  -9   2   30.82    4.54
   2   9   2   27.87    6.40
  -2   9  -3    1.21    1.56
  -2   9  -3    1.08    1.70
   2  -9   3    3.46    2.08
   2   9   3   -0.86    1.57
   2   9   3    1.48    2.33
  -2   9  -4  160.69   13.44
  -2   9  -4  145.98   12.29
   2  -9   4  159.45   10.63
   2   9   4  165.45   11.84
  -2   9  -5   16.67    4.41
  -2   9  -5   17.17    4.42
   2  -9   5   25.44    4.38
  -2   9  -6   -1.10    2.23
   2  -9   6    0.81    1.47
   2  10  -3    0.97    1.75
   2  10  -2   53.51    7.05
   2 -10   3   26.06    4.40
  -3   0  13    7.50    3.41
   3   0 -13    1.44    3.20
   3   0 -12   -1.29    2.04
  -3   0  12    1.14    2.32
   3   0 -11  289.02   17.64
  -3   0  11  265.63   16.19
   3   0 -10   -1.00    1.28
   3   0  -9    5.86    2.15
  -3   0   9    9.61    1.69
   3   0  -8    0.74    0.95
  -3   0   8   -0.29    0.53
  -3   0   7   82.45    4.79
   3   0  -7   72.87    6.65
  -3   0   6   -0.29    0.52
  -3   0   5    3.64    1.08
  -3   0   4   -0.27    0.49
  -3   0   3  398.07   11.79
   3   0  -3  412.89   11.64
  -3   0   2   -0.26    0.34
  -3   0   2    0.16    0.16
   3   0  -1 1186.54   24.88
  -3   0   1 1208.37   26.03
  -3   0   1 1194.27   23.58
   3   0  -1 1170.44   22.49
   3   0  -1 1215.10   23.08
   3   0   0    0.15    0.20
   3   0   0    0.22    0.35
   3   0   0   -0.11    0.14
  -3   0   0    0.26    0.34
   3   0   0    0.16    0.37
  -3   0  -1 7144.38  125.77
   3   0   1 6996.75  125.83
   3   0   1 7374.78  128.03
   3   0   1 7194.73  127.39
  -3   0  -2   -0.25    0.32
   3   0   2   -0.26    0.33
  -3   0  -2   -0.40    0.36
   3   0   2   -0.35    0.64
   3   0   2   -0.25    0.23
   3   0   3 2938.03   56.66
   3   0   3 2848.29   55.22
  -3   0  -3 2918.51   59.35
   3   0   4   -0.42    0.54
   3   0   4   -0.26    0.24
   3   0   5  776.99   22.53
  -3   0  -5  721.25   23.75
   3   0   5  753.36   18.32
   3   0   6    0.61    0.79
  -3   0  -6    0.76    0.97
   3   0   6    0.25    0.32
   3   0   7 1085.33   31.87
   3   0   7 1098.61   32.89
   3   0   7 1110.08   31.81
   3   0   7 1081.94   23.78
  -3   0  -7 1088.83   34.12
   3   0   8   -0.81    1.28
   3   0   8   -0.72    0.93
  -3   0  -8   -0.99    1.27
   3   0   8    0.21    0.50
   3   0   9  462.27   10.98
  -3   0  -9  482.14   22.95
   3   0   9  443.51   18.72
   3   0   9  441.82   20.32
   3   0  10    1.01    1.83
  -3   0 -10   -1.23    1.93
   3   0  11  289.43   17.50
  -3   0 -11  302.22   19.58
   3   0  12   -1.20    1.55
  -3   0 -12    1.47    2.31
  -3   0 -13   -1.58    2.87
   3   0  13    3.90    2.36
  -3   1  13   35.44    6.31
  -3  -1  13   45.12    7.49
   3   1 -13   46.08    7.87
   3  -1 -13   46.23    7.90
   3  -1 -12    1.29    1.66
  -3   1  12    1.13    2.29
  -3   1  11   -1.03    1.61
   3  -1 -11   -1.15    1.48
   3  -1 -10    1.99    1.81
  -3   1  10    1.84    1.67
  -3  -1  10    2.40    1.08
   3  -1  -9  687.29   25.59
  -3  -1   9  714.47   19.11
  -3  -1   8    8.84    1.75
   3  -1  -8   11.09    2.85
  -3   1   8    8.48    2.57
  -3  -1   7    9.54    1.80
  -3   1   7   16.27    3.00
   3  -1  -7   13.58    3.00
  -3  -1   6    0.63    0.50
   3  -1  -5  151.12    6.22
  -3  -1   5  142.23    6.73
   3  -1  -4   29.78    2.67
  -3  -1   4   32.49    2.96
  -3  -1   3   35.00    3.03
   3  -1  -3   34.70    2.96
  -3  -1   2    2.51    0.75
  -3   1   2    2.78    0.66
  -3  -1   2    2.15    0.77
   3  -1  -1 1003.27   20.62
   3  -1  -1  994.01   20.56
  -3  -1   1  941.62   21.15
  -3  -1   1  940.97   17.76
  -3  -1   1  970.08   21.88
   3  -1  -1  972.69   19.88
  -3   1   1  945.98   20.29
   3  -1   0  235.93    7.79
  -3  -1   0  232.04    8.34
   3  -1   0  253.26    7.70
   3  -1   0  237.50    7.88
   3   1   0  236.21    7.59
   3  -1   1   11.42    1.61
   3  -1   1    9.26    1.53
   3  -1   1   13.31    1.21
  -3  -1  -1   10.52    1.75
   3  -1   1    9.00    1.69
   3   1   1    8.08    1.34
   3   1   1   12.22    1.62
   3  -1   2  253.67    9.77
   3  -1   2  231.37    9.81
   3  -1   2  251.56    8.05
  -3  -1  -2  251.75    8.56
   3  -1   2  258.00    6.78
   3   1   2  254.54    8.31
   3   1   3  406.88   13.43
  -3  -1  -3  392.98   11.53
   3  -1   3  397.97   12.30
   3  -1   3  391.81   14.24
  -3  -1  -3  408.01   14.41
   3   1   3  413.75   11.15
   3   1   4    0.73    0.50
   3   1   4    0.46    0.84
  -3  -1  -4    1.11    0.87
   3   1   4    1.24    0.62
   3  -1   4    1.19    0.81
  -3  -1  -5 2404.79   53.96
   3  -1   5 2420.97   53.59
   3   1   5 2370.91   46.30
   3  -1   5 2384.30   51.34
   3   1   5 2383.39   44.88
   3   1   5 2376.92   52.60
   3  -1   5 2281.24   52.86
   3  -1   6   51.76    5.53
  -3  -1  -6   58.35    6.35
   3  -1   6   64.94    6.39
   3  -1   6   66.58    6.04
   3   1   6   59.00    5.93
   3  -1   7   23.91    3.99
  -3  -1  -7   25.22    4.48
   3   1   7   27.90    4.39
   3  -1   7   27.19    4.42
   3  -1   7   20.90    3.76
   3   1   8   54.81    6.50
   3  -1   8   43.30    5.70
  -3  -1  -8   55.24    7.04
   3  -1   8   52.44    6.00
  -3  -1  -9  342.79   19.12
   3   1   9  306.73   16.96
   3  -1   9  337.86   17.34
   3  -1   9  314.77   15.54
   3  -1   9  352.29   11.58
   3   1  10    1.03    1.32
  -3  -1 -10    3.68    2.95
   3  -1  10    0.29    0.60
   3  -1  10   -1.01    1.84
   3  -1  11   11.16    3.66
   3   1  11   20.34    4.81
  -3  -1 -11    9.44    3.47
  -3  -1 -12    8.80    3.76
   3  -1  12    6.06    3.11
   3   1  12    6.14    3.16
   3  -1  13   11.67    4.08
  -3   2  13    2.38    2.86
   3  -2 -13   -2.90    4.16
  -3  -2  12   13.87    2.70
  -3   2  12   12.05    3.73
   3  -2 -12   10.42    3.74
   3   2 -12   10.41    4.09
   3   2 -11  245.27   16.48
   3  -2 -11  249.17   16.51
  -3   2  11  259.96   15.79
  -3  -2  11  251.85   11.28
   3  -2 -10  100.46    9.74
   3   2 -10  109.88   10.34
  -3  -2  10  106.54    6.51
  -3   2  10  106.90    9.43
  -3  -2  10   98.30    6.51
   3  -2 -10  122.54   10.05
  -3  -2   9   -0.41    0.74
   3   2  -9    0.87    0.79
   3  -2  -9   -0.83    1.30
  -3   2   9    0.80    1.46
   3  -2  -9    0.87    1.11
   3   2  -8   29.34    4.45
  -3   2   8   28.15    4.32
   3  -2  -8   36.98    5.05
   3  -2  -7  138.01    9.25
  -3   2   7  123.36    8.52
   3   2  -7  140.13    9.25
  -3  -2   7  156.96    6.64
   3  -2  -7  146.81    5.84
   3  -2  -6    0.26    0.41
  -3   2   6   -0.51    0.46
  -3  -2   6    0.67    0.49
  -3   2   5   89.87    5.98
   3  -2  -5   89.77    5.10
   3  -2  -4   15.79    2.17
  -3  -2   4   17.47    1.32
  -3   2   3   36.47    2.81
  -3   2   3   31.88    2.71
  -3   2   2   63.48    3.06
   3   2  -2   53.66    2.25
  -3   2   2   59.89    3.72
  -3   2   2   58.27    3.53
  -3  -2   2   56.34    3.51
  -3   2   1   35.29    3.10
  -3   2   1   28.01    2.47
  -3  -2   1   35.80    2.80
   3  -2  -1   38.55    1.78
   3  -2  -1   28.74    2.47
   3  -2  -1   37.90    3.61
   3   2   0   12.29    1.53
   3   2   0   10.16    1.69
  -3   2   0   18.27    2.09
   3  -2   0   13.19    0.94
  -3  -2   0   12.90    1.78
   3  -2   0   17.31    2.01
   3  -2   0   11.41    1.50
   3  -2   0   13.50    2.04
   3   2   1  631.10   17.45
   3   2   1  643.52   16.42
   3  -2   1  647.03   16.42
   3   2   1  647.94   17.51
   3  -2   1  648.64   17.57
   3  -2   1  675.60   16.87
   3   2   2    9.60    1.82
   3  -2   2   10.47    1.97
   3   2   2    8.53    1.80
   3   2   2    8.66    1.82
   3  -2   2   12.94    2.06
  -3  -2  -2    9.53    1.51
  -3   2  -2   12.62    2.15
  -3   2  -3  838.57   23.13
   3  -2   3  844.86   23.19
   3   2   3  836.59   23.00
  -3  -2  -3  840.79   23.24
  -3  -2  -3  833.23   19.71
   3   2   4   18.61    3.15
   3  -2   4   26.90    3.59
  -3   2  -4   26.81    3.63
  -3  -2  -4   17.13    2.90
   3  -2   4   23.07    3.40
  -3  -2  -4   21.35    2.22
   3   2   4   17.91    2.58
  -3   2  -5  199.67   11.32
  -3  -2  -5  217.52   11.73
   3  -2   5  230.75   11.37
   3   2   5  200.60   10.70
   3  -2   5  222.47   11.60
   3   2   5  229.51    9.81
  -3  -2  -5  220.98    7.69
   3   2   5  206.88   11.01
   3   2   5  205.24   11.17
   3   2   6   52.57    5.79
  -3   2  -6   42.72    5.44
  -3  -2  -6   57.49    6.29
   3  -2   6   55.75    5.71
   3   2   6   68.42    6.31
   3  -2   6   62.60    6.22
   3   2   6   65.01    6.31
   3   2   7  159.83   10.19
  -3   2  -7  174.02   11.76
  -3  -2  -7  175.24   11.81
   3  -2   7  167.70   10.37
   3  -2   7  167.32    9.83
   3   2   7  173.78   11.25
   3   2   8    6.99    2.38
   3  -2   8    7.71    2.30
  -3   2  -8    7.81    2.66
  -3  -2  -8    7.86    2.82
   3   2   8    6.02    2.59
   3  -2   8    7.96    2.41
  -3  -2  -9  133.26   11.61
  -3   2  -9  130.25   11.45
   3  -2   9  132.97   10.57
   3   2   9  120.11   10.29
   3  -2   9  133.35    9.62
   3   2  10    8.40    3.16
   3  -2  10   10.03    3.16
  -3   2 -10    8.50    3.12
  -3  -2 -10    8.55    3.33
  -3   2 -11  177.53   14.80
   3   2  11  166.97   13.42
  -3  -2 -11  152.84   13.83
   3  -2  11  163.26   13.17
   3   2  12    7.42    3.37
  -3   2 -12    5.81    3.49
  -3  -2 -12    4.38    2.65
   3  -2  12    7.27    3.30
  -3   3  13   29.40    5.87
  -3   3  12    1.09    1.98
   3   3 -12   -1.31    2.06
   3  -3 -12    2.63    2.39
   3   3 -11   17.50    4.62
  -3   3  11   12.98    3.74
   3  -3 -11   17.66    4.54
  -3  -3  11   16.19    2.63
  -3   3  10   -0.90    1.42
   3   3 -10    2.06    1.62
  -3  -3  10    1.64    0.98
   3  -3 -10    2.07    1.88
   3   3  -9  356.83   17.71
   3  -3  -9  348.58   17.70
  -3   3   9  359.36   17.05
   3  -3  -9  363.63   17.96
  -3   3   8   21.42    3.86
   3   3  -8   30.56    4.61
   3  -3  -8   31.65    4.71
   3  -3  -8   25.43    2.33
   3  -3  -8   32.11    5.05
  -3  -3   7   20.27    2.27
   3   3  -7   10.91    2.55
  -3   3   7   19.84    3.39
   3  -3  -7   16.25    3.19
   3  -3  -7   18.20    3.74
   3  -3  -7   14.35    2.00
   3  -3  -6    1.48    1.16
   3   3  -6    0.55    0.87
   3  -3  -6    1.69    1.02
  -3   3   6    0.53    0.48
  -3  -3   6    3.51    0.87
   3  -3  -6    2.71    1.02
  -3   3   5  115.37    6.99
  -3   3   5  126.04    7.01
  -3  -3   5  122.18    4.81
   3  -3  -4   25.35    3.84
  -3   3   4   34.47    3.36
  -3   3   4   24.42    2.98
   3  -3  -3   28.60    3.92
  -3  -3   3   25.89    2.52
  -3   3   3   25.81    3.05
   3  -3  -3   21.88    2.40
   3   3  -3   26.59    2.21
  -3   3   3   28.87    3.04
  -3   3   3   28.37    2.56
   3  -3  -2  746.52   22.32
   3   3  -2  725.40   16.07
  -3  -3   2  714.99   17.31
   3  -3  -2  710.44   16.90
  -3   3   2  726.29   16.49
  -3   3   2  695.07   16.94
  -3   3   2  695.58   19.38
  -3   3   1   77.07    4.30
   3  -3  -1   81.95    6.20
  -3   3   1   96.07    5.87
  -3  -3   1   83.93    4.54
   3  -3  -1   82.58    3.92
   3  -3   0  438.34   14.83
   3  -3   0  409.67   10.88
   3   3   0  423.22   11.18
  -3  -3   0  412.64   12.41
  -3   3   0  427.45   12.37
   3  -3   0  416.16   10.47
   3  -3   1    4.35    1.03
   3   3   1    5.04    1.15
   3   3   1    5.06    1.48
   3  -3   1    3.65    1.17
  -3   3  -1    2.98    1.16
   3   3   1    5.95    1.38
   3   3   1    4.15    0.71
   3   3   2  105.73    5.74
   3   3   2  115.15    7.00
  -3   3  -2  110.61    7.07
   3  -3   2  102.32    6.14
  -3   3  -2  105.33    6.01
   3  -3   2  112.32    5.91
   3   3   2  108.91    6.31
  -3   3  -3    1.89    0.75
   3   3   3   -0.41    0.74
   3  -3   3    0.89    0.70
  -3   3  -3    1.04    0.82
   3  -3   3    0.47    0.60
  -3   3  -3    0.46    0.72
  -3  -3  -3    1.84    1.11
   3   3   3    0.46    0.60
   3   3   3    0.44    0.40
   3   3   3    1.02    0.93
  -3  -3  -4   16.61    2.10
  -3   3  -4   18.52    2.18
  -3   3  -4   16.68    2.90
  -3  -3  -4   15.24    2.77
   3   3   4   17.12    2.98
   3  -3   4   17.18    2.88
   3  -3   4   16.02    2.84
   3   3   5  583.17   19.38
  -3  -3  -5  556.13   20.15
  -3   3  -5  537.14   19.89
   3  -3   5  567.78   19.98
   3  -3   5  598.68   19.60
  -3  -3  -5  552.43   20.13
   3   3   5  563.22   19.36
  -3  -3  -5  592.32   15.28
   3   3   5  572.11   19.79
  -3   3  -5  581.15   14.81
  -3   3  -6   17.90    1.85
   3  -3   6   13.31    2.69
  -3   3  -6   11.83    2.94
  -3  -3  -6   20.95    3.91
   3  -3   6   21.63    3.69
   3   3   6   21.95    4.07
   3   3   6   13.94    2.80
   3   3   6   15.50    3.13
  -3  -3  -6   10.81    2.79
   3   3   6   14.39    2.89
  -3  -3  -6   12.57    1.72
   3  -3   6   19.96    3.35
   3  -3   7    7.73    2.27
   3  -3   7    1.88    1.71
   3   3   7    4.96    2.12
  -3  -3  -7    3.12    1.87
  -3   3  -7    8.49    2.88
  -3  -3  -7    8.59    2.70
  -3   3  -7    4.71    0.92
   3   3   7    5.74    2.01
  -3   3  -8   71.45    7.96
  -3  -3  -8   88.76    8.82
   3   3   8   76.41    6.91
   3  -3   8   77.18    6.91
   3  -3   8   90.87    7.66
   3   3   8   85.08    8.45
  -3  -3  -9  175.92   13.40
  -3   3  -9  173.30   13.29
   3   3   9  194.70   13.44
  -3   3 -10   43.24    7.10
  -3  -3 -10   48.43    7.65
   3   3  10   42.04    6.60
  -3   3 -11   36.89    6.89
  -3  -3 -11   30.54    6.40
   3  -3  11   40.58    6.48
   3   3  11   30.32    5.92
  -3   3 -12    1.43    1.83
  -3  -3 -12    2.88    2.61
   3  -3  12    2.40    2.44
   3   3  12    1.25    2.28
  -3   4  12    5.37    2.76
   3   4 -12   11.78    4.28
   3  -4 -12    5.28    3.17
  -3   4  11  240.65   14.95
   3   4 -11  208.53   15.47
   3  -4 -11  240.74   16.43
   3   4 -10   -1.04    1.90
  -3  -4  10   -1.52    1.76
   3  -4 -10    1.05    1.65
  -3   4  10   -0.90    1.16
  -3   4   9   86.38    8.04
   3  -4  -9   71.96    7.96
   3  -4  -9   74.92    3.71
   3   4  -9   73.20    7.90
   3   4  -9   72.78    7.83
  -3  -4   9   88.53    5.35
   3   4  -8   25.77    4.38
   3  -4  -8   13.38    3.21
  -3   4   8   25.52    4.25
   3  -4  -8   19.44    2.35
   3  -4  -7  532.75   22.46
  -3   4   7  568.19   20.13
  -3   4   7  596.81   19.16
   3   4  -7  527.89   19.62
   3  -4  -7  520.67   19.60
   3  -4  -6  106.11    7.44
  -3   4   6  100.74    7.33
   3   4  -6   95.41    7.02
  -3   4   6  103.97    7.00
  -3  -4   6  101.22    5.07
  -3   4   5  132.27    7.75
   3   4  -5  122.01    7.42
   3  -4  -4  211.22   12.24
  -3   4   4  225.87   10.01
  -3   4   4  187.64    9.40
   3  -4  -4  205.70    9.28
   3   4  -4  192.49    7.95
  -3   4   4  207.06    9.14
  -3   4   3  313.06   10.83
  -3  -4   3  318.29   10.20
   3  -4  -3  303.65   14.62
  -3   4   3  331.57   12.68
  -3   4   3  318.06    9.99
   3  -4  -3  316.22   11.20
   3   4  -3  312.50   10.35
   3  -4  -2    2.81    0.94
  -3  -4   2    3.36    0.94
  -3   4   2    3.86    0.96
  -3   4   2    3.50    1.01
  -3   4   2    1.85    1.19
  -3  -4   2    1.63    0.57
   3   4  -2    2.15    0.85
  -3  -4   1  468.69   13.27
  -3   4   1  479.41   13.05
   3   4  -1  461.72   13.38
   3   4   0  115.74    5.71
   3  -4   0  106.51    5.60
   3  -4   0  114.28    5.41
  -3   4   0  113.15    7.08
   3   4   1    2.83    0.79
   3  -4   1    2.02    0.74
   3  -4   1    3.44    1.02
   3   4   1    2.71    0.72
   3  -4   1    1.28    0.71
   3   4   1    3.15    1.03
  -3   4  -1    2.58    1.15
   3  -4   2  141.52    6.33
   3  -4   2  139.05    7.13
   3   4   2  127.41    6.74
   3   4   2  136.02    6.33
   3   4   2  155.71    8.83
   3  -4   2  138.74    7.18
   3   4   2  122.77    6.84
  -3   4  -2  139.35    8.60
   3   4   2  133.27    5.36
   3   4   3  233.76    9.54
   3  -4   3  228.58    9.46
  -3  -4  -3  215.16   11.51
   3   4   3  230.73    9.87
   3   4   3  223.57   11.39
   3  -4   3  234.49   10.10
  -3   4  -3  216.77   11.38
   3   4   3  217.93    9.95
   3  -4   3  229.45   10.17
   3  -4   4   24.13    3.36
   3  -4   4   28.18    3.68
  -3  -4  -4   30.25    4.34
  -3   4  -4   33.67    4.02
   3   4   4   27.61    4.33
   3   4   4   24.43    3.33
  -3  -4  -4   24.50    3.52
   3   4   4   27.84    4.14
  -3   4  -4   28.18    3.37
  -3   4  -5   43.25    4.00
  -3   4  -5   37.05    4.63
   3   4   5   33.35    4.74
   3  -4   5   37.09    4.28
   3   4   5   34.03    4.01
  -3  -4  -5   34.11    4.83
   3   4   5   41.19    4.62
  -3  -4  -5   33.88    3.21
   3  -4   5   30.48    4.00
   3  -4   5   28.72    3.98
   3   4   5   33.68    4.67
  -3  -4  -5   38.89    4.70
  -3   4  -6  123.75    6.64
  -3  -4  -6  137.98    6.40
  -3  -4  -6  127.16    9.30
  -3   4  -6  139.36    9.63
   3  -4   6  135.89    8.72
   3   4   6  113.70    7.80
   3   4   6  147.48    9.98
   3  -4   6  133.23    8.41
  -3  -4  -7    2.56    1.73
  -3   4  -7    0.63    0.57
   3   4   7   -0.76    1.19
   3   4   7    0.59    0.76
  -3  -4  -7   -0.84    0.76
  -3   4  -7    0.83    1.06
   3  -4   7    1.18    0.92
  -3  -4  -7    0.78    0.58
  -3   4  -8   38.23    3.12
   3   4   8   40.04    4.96
  -3   4  -8   38.63    5.90
  -3  -4  -8   40.12    5.98
  -3   4  -9    1.20    0.64
  -3   4  -9    2.11    1.92
  -3  -4  -9    1.07    1.94
  -3   4 -10    8.20    3.19
  -3  -4 -10   11.84    3.88
  -3  -4 -11  191.95   15.40
  -3   4 -11  234.98   16.70
  -3   4 -12    5.57    2.83
  -3  -4 -12    7.03    3.61
   3   5 -12    5.18    2.63
  -3   5  12    6.61    2.83
   3  -5 -12   -1.31    1.68
   3   5 -11    1.18    1.85
  -3   5  11   -1.03    1.32
   3  -5 -11    1.19    1.53
   3   5 -10    6.33    3.03
  -3   5  10    3.79    2.11
   3  -5 -10    2.12    1.93
  -3  -5   9  232.93    9.42
   3  -5  -9  248.65    8.69
   3   5  -9  229.52   14.20
   3  -5  -9  224.03   14.14
  -3  -5   8   10.03    1.87
   3   5  -8   10.39    2.70
   3  -5  -8    3.78    1.68
   3  -5  -8    4.88    2.34
   3   5  -8    4.81    2.19
   3   5  -7   32.66    4.52
   3  -5  -7   28.13    4.25
  -3  -5   7   29.87    3.06
   3   5  -6    0.56    0.72
   3  -5  -6   -0.57    0.73
  -3   5   6    0.58    1.17
  -3   5   6   -0.58    1.05
   3   5  -5  478.91   15.87
  -3   5   5  504.00   16.99
   3  -5  -5  456.06   15.77
  -3   5   5  487.33   17.63
   3  -5  -5  462.09   16.80
  -3   5   5  496.57   17.69
   3  -5  -5  493.12   21.35
  -3   5   4    0.55    1.12
  -3  -5   4    1.21    0.73
  -3   5   4    2.80    1.24
   3   5  -4    1.11    0.82
   3  -5  -4    1.14    0.85
   3  -5  -4    0.49    0.88
  -3   5   4    1.78    0.99
   3   5  -4    0.81    0.64
  -3  -5   3   54.80    5.48
  -3   5   3   60.37    3.77
  -3  -5   3   62.29    4.01
  -3   5   3   62.09    4.72
   3  -5  -3   52.43    4.63
  -3   5   3   50.56    5.16
   3   5  -3   60.85    4.63
  -3  -5   3   55.47    3.49
   3  -5  -2  343.30   12.30
   3   5  -2  337.60   11.78
  -3  -5   2  318.08   10.25
  -3   5   2  343.21   10.09
  -3  -5   2  346.11   14.46
  -3  -5   2  323.40    8.99
  -3   5   2  352.02   14.19
  -3  -5   1  329.79   14.12
   3   5  -1  363.20   10.58
  -3  -5   1  337.10   10.51
  -3   5   1  325.03   15.80
   3  -5  -1  354.04   13.34
  -3   5   1  337.95   14.04
   3   5  -1  325.37   11.95
   3   5   0  153.67    6.21
   3   5   0  143.48    7.40
  -3  -5   0  143.64    9.06
  -3   5   0  153.72    9.22
   3  -5   0  133.49    6.91
   3  -5   0  175.52    9.03
  -3   5   0  149.64   10.03
   3  -5   0  152.72    6.37
  -3   5  -1  117.91    8.62
   3  -5   1  113.98    5.66
   3  -5   1  126.73    6.53
   3   5   1  114.25    5.50
   3   5   1  107.50    5.32
   3   5   1  110.61    4.59
   3  -5   1  103.46    5.40
  -3   5  -1  120.89    8.31
   3   5   1  110.99    5.54
   3  -5   1  115.19    4.35
   3  -5   1  109.49    7.36
   3  -5   2   28.80    3.23
   3  -5   2   28.12    2.45
   3  -5   2   30.69    3.10
   3   5   2   32.10    3.07
   3  -5   2   31.64    3.12
   3   5   2   24.26    2.52
   3  -5   2   31.62    4.07
  -3  -5  -2   25.00    4.11
  -3   5  -2   36.29    4.78
   3   5   2   26.70    2.84
   3   5   2   30.39    2.66
  -3   5  -2   36.37    4.55
  -3   5  -3    3.03    1.35
   3   5   3    0.98    0.89
   3  -5   3    2.85    1.08
   3  -5   3    2.48    1.38
  -3  -5  -3    0.71    0.91
   3   5   3    1.76    0.84
   3   5   3    2.29    1.04
   3  -5   3    2.31    1.05
   3  -5   3    0.73    0.88
  -3   5  -3    3.51    1.68
   3   5   3    2.87    1.13
   3  -5   4   11.12    2.16
   3   5   4   15.61    3.61
  -3  -5  -4    9.83    2.75
  -3   5  -4   11.85    3.01
   3   5   4   13.49    2.43
   3  -5   4   13.60    2.51
   3   5   4   15.69    2.29
   3  -5   4   11.68    2.51
   3   5   5  258.13   11.63
   3   5   5  263.71   14.88
  -3  -5  -5  263.87   12.51
   3  -5   5  266.39   11.21
   3   5   5  257.68   10.92
   3  -5   5  273.62   12.40
  -3  -5  -5  260.31   14.42
  -3   5  -5  247.90   12.16
  -3  -5  -6    9.08    1.87
   3  -5   6   15.06    3.00
   3   5   6    8.06    2.70
  -3   5  -6    6.88    2.17
  -3  -5  -6    9.11    2.47
   3   5   6   12.63    2.56
   3  -5   6    5.04    1.66
   3   5   7   60.22    7.24
  -3  -5  -7   50.19    6.14
  -3   5  -7   53.19    6.31
   3  -5   7   57.60    5.68
   3   5   7   64.42    5.89
  -3  -5  -7   58.47    4.28
  -3  -5  -8   51.35    3.57
  -3   5  -8   38.91    5.86
  -3  -5  -8   45.19    6.26
  -3   5  -9  300.27   17.13
  -3  -5  -9  303.28   17.27
  -3   5  -9  296.29   10.54
  -3   5 -10   32.77    5.91
  -3  -5 -10   30.91    5.81
  -3   5 -11   19.79    5.03
  -3  -5 -11   10.02    3.94
  -3   5 -12    6.70    3.44
  -3  -5 -12    2.71    2.46
   3   6 -12    1.24    1.95
   3   6 -11   83.06    9.47
   3  -6 -11   98.14   10.38
   3  -6 -10    3.14    2.33
   3   6 -10    3.09    2.09
  -3   6   9   55.66    6.71
   3   6  -9   60.32    7.24
   3  -6  -9   51.09    6.70
   3  -6  -8    0.81    1.27
   3   6  -8    0.80    1.25
   3   6  -8    1.46    1.48
   3  -6  -8    2.46    1.41
  -3   6   8    2.27    1.53
   3   6  -7  226.21   12.33
   3  -6  -7  261.83   13.15
  -3   6   7  234.25   12.53
   3   6  -7  231.98   12.12
   3  -6  -7  248.16   12.57
  -3   6   7  218.61   12.42
   3  -6  -6    0.65    1.03
  -3  -6   6    0.38    0.69
  -3   6   6    2.46    1.06
  -3   6   6   -0.62    0.98
  -3   6   6    2.79    1.55
   3  -6  -6    0.55    0.71
   3   6  -6    1.70    1.26
   3  -6  -6    1.16    0.91
   3   6  -6    1.07    1.19
   3   6  -5    9.61    2.08
  -3  -6   5    9.36    1.80
   3   6  -5   12.35    2.47
  -3   6   5   14.52    2.78
   3  -6  -5    8.54    2.29
  -3   6   5    4.78    1.96
   3  -6  -5    8.76    2.10
   3   6  -5    7.95    1.89
   3  -6  -5    7.55    1.92
  -3  -6   4  148.40    6.70
  -3   6   4  151.24    8.52
   3  -6  -4  142.03    8.72
   3   6  -4  138.84    6.97
  -3   6   4  156.91    6.49
  -3   6   4  147.89    9.57
   3  -6  -4  140.67    7.21
   3   6  -4  165.04    8.81
   3   6  -3  375.24   11.21
   3  -6  -3  391.44   14.91
  -3  -6   3  394.07   11.61
  -3   6   3  394.39   10.94
  -3  -6   3  390.43   16.57
  -3   6   3  409.56   16.49
  -3  -6   3  385.54   11.32
   3   6  -3  420.29   14.74
   3  -6  -3  379.67   11.53
   3  -6  -2   61.58    5.37
   3   6  -2   68.10    3.31
  -3  -6   2   63.21    3.86
  -3  -6   2   73.51    6.77
   3  -6  -2   64.55    3.47
   3   6  -2   69.87    5.55
  -3   6   2   63.31    6.26
   3   6  -2   73.28    3.77
   3   6  -1  333.97    8.32
  -3   6   1  360.67   17.86
  -3  -6   1  337.42   15.35
   3  -6  -1  332.41    8.91
   3   6  -1  340.06    7.86
   3  -6  -1  356.16   14.10
  -3   6   1  337.09   15.18
   3   6  -1  342.88   13.18
   3  -6  -1  371.90   13.81
  -3   6   0   -0.86    1.35
   3   6   0    0.48    0.98
  -3  -6   0   -0.69    1.66
  -3   6   0    0.69    1.09
   3   6   0    0.38    0.30
   3  -6   0   -0.55    1.00
   3   6   0    0.10    0.26
   3  -6   0    0.13    0.41
   3  -6   0    0.13    0.32
  -3   6  -1    4.09    1.97
   3   6   1    5.45    1.62
   3  -6   1    4.69    1.84
   3  -6   1    6.67    1.81
   3   6   1    3.74    0.75
   3  -6   1    5.61    0.94
  -3   6  -1    5.05    2.07
   3  -6   2  146.13    4.78
   3   6   2  156.98    5.29
  -3   6  -2  159.16   10.75
   3  -6   2  158.04    8.32
   3  -6   2  137.47    5.47
   3   6   2  141.46    5.40
   3   6   2  132.09    6.86
   3  -6   2  160.57    9.71
  -3   6  -2  156.12   10.51
   3  -6   2  147.71    8.72
  -3  -6  -2  156.10   10.81
  -3  -6  -3   97.97    8.54
  -3   6  -3  106.76    8.58
   3  -6   3  110.02    5.02
   3  -6   3   93.26    6.57
   3   6   3  110.28   10.33
   3  -6   3   96.75    5.02
   3   6   3  101.27    5.12
   3  -6   3  110.53    8.31
   3   6   3   95.68    5.94
   3   6   3   99.32    4.94
  -3   6  -3  102.84    8.64
   3  -6   3   92.95    6.99
  -3   6  -4  119.53    8.98
   3  -6   4  147.70    9.85
   3   6   4  127.73    6.53
   3  -6   4  127.87    6.51
   3  -6   4  127.78    6.43
   3   6   4  122.95    6.88
  -3   6  -4  118.11    9.59
   3   6   4  132.67   11.10
   3   6   5   35.72    6.01
  -3   6  -5   53.52    5.93
   3   6   5   45.59    4.44
   3  -6   5   52.78    4.72
   3   6   5   59.53    6.95
   3   6   5   44.82    4.22
   3  -6   5   45.80    4.18
   3   6   6  121.32   11.00
   3   6   6  138.98    8.54
   3  -6   6  143.45    8.74
   3   6   6  132.67   10.69
   3   6   6  149.52    8.05
  -3   6  -6  137.39    9.23
  -3   6  -7    7.24    2.12
   3   6   7    5.14    2.10
  -3   6  -7    8.16    2.61
   3   6   7   11.74    3.63
  -3  -6  -7   11.37    3.00
   3   6   7    8.65    3.15
  -3  -6  -7    7.45    1.78
  -3   6  -8    3.81    1.64
  -3   6  -8    3.38    2.03
  -3  -6  -8    7.76    2.59
   3   6   8    1.03    1.61
  -3   6  -9    4.67    1.64
  -3  -6  -9    1.94    1.97
   3   6   9    6.54    2.80
  -3   6 -10   31.65    5.77
  -3  -6 -10   30.09    5.63
  -3   6 -11  218.57   15.74
  -3  -6 -11  228.99   16.22
  -3   7  10    0.89    1.40
   3   7  -9   69.80    7.48
  -3   7   9   63.67    7.10
  -3   7   9   62.46    7.21
  -3   7   8   20.95    3.25
   3   7  -8   24.13    4.11
  -3   7   8   27.99    4.70
  -3   7   8   33.14    5.25
  -3  -7   7    2.41    1.26
  -3   7   7    2.57    1.15
  -3   7   7    4.15    1.99
  -3   7   7    2.15    1.84
  -3  -7   7    1.49    1.10
   3   7  -7    2.47    1.49
  -3   7   6   21.08    4.04
   3  -7  -6   16.51    2.87
  -3  -7   6   14.39    2.27
   3   7  -6   20.07    3.13
   3  -7  -6   20.18    3.88
  -3   7   6   12.63    3.03
   3   7  -6   15.66    2.84
  -3  -7   6   15.15    2.59
  -3   7   5  180.35   10.27
  -3  -7   5  172.03    7.37
  -3   7   5  174.59    6.98
   3   7  -5  166.36    7.96
   3  -7  -5  169.05    8.39
  -3  -7   5  170.91    7.96
   3  -7  -5  172.22   10.68
   3   7  -5  180.50   10.22
   3   7  -5  182.12    8.13
   3   7  -4    9.92    1.57
  -3  -7   4    6.59    1.39
  -3   7   4    9.73    1.36
   3  -7  -4    8.89    2.45
   3   7  -4    9.37    1.57
   3  -7  -4    9.37    1.65
   3   7  -4   11.60    2.66
  -3   7   3   36.93    5.06
   3  -7  -3   28.19    1.98
   3   7  -3   36.10    4.42
   3  -7  -3   25.95    2.04
   3  -7  -3   45.11    5.12
   3  -7  -3   29.04    2.07
  -3   7   2   16.22    3.51
   3  -7  -2   12.21    2.80
   3   7  -2   11.55    2.63
   3  -7  -1   74.41    6.34
  -3   7   1   65.94    6.95
   3   7  -1   79.36    6.47
  -3   7   1   83.80    9.01
   3   7   0   -0.58    0.75
   3  -7   0   -0.60    0.77
  -3   7   0   -1.01    1.29
  -3   7   0    0.81    1.28
  -3   7  -1   79.17    8.25
   3   7   1   61.88    6.10
   3  -7   1   57.85    5.46
   3  -7   1   70.92    6.46
  -3   7  -1   67.16    7.15
   3   7   2   -0.62    1.25
  -3   7  -2   -0.93    1.19
   3  -7   2   -0.54    1.10
   3  -7   2   -0.67    1.22
  -3   7  -2   -0.88    1.13
   3   7   3   18.93    4.81
  -3   7  -3   15.24    3.83
  -3   7  -3   15.51    3.62
   3   7   3   17.10    2.72
   3  -7   3   19.54    3.37
   3  -7   3   24.11    3.98
  -3   7  -4    4.31    2.07
   3   7   4    5.97    2.87
   3   7   4    6.44    1.24
   3   7   4    2.63    1.95
   3  -7   4    5.18    1.73
   3  -7   4    7.60    2.39
   3   7   4    6.88    1.86
  -3   7  -4    4.71    2.26
   3   7   5   21.81    5.05
  -3   7  -5   20.64    4.12
   3   7   5   25.70    2.88
   3   7   5   29.64    5.20
   3  -7   5   24.34    4.37
   3   7   5   21.73    3.42
  -3   7  -6    0.78    1.23
   3   7   6   -0.43    0.77
   3  -7   6   -0.86    1.56
   3   7   6   -0.97    1.53
   3   7   6    1.21    2.20
   3   7   7   41.66    7.07
   3   7   7   39.77    6.25
  -3   7  -7   44.63    5.68
  -3   7  -8    3.34    1.92
   3   7   8   -1.08    1.38
  -3   8   9    4.24    2.31
  -3   8   8    1.60    1.62
  -3   8   7   -0.74    1.35
  -3  -8   6    3.66    1.48
  -3  -8   5    2.47    1.06
   3   8  -5   -0.71    1.11
  -3  -8   4    7.92    1.66
   3   8  -4    5.70    2.05
  -3   8   3   91.75    8.68
   3   8  -3   82.72    7.37
   3   8  -2    2.77    1.54
  -3   8   2    0.90    1.41
   3  -8  -2    3.99    2.00
  -3   8   1   63.77    7.37
   3  -8  -1   58.41    6.03
   3   8  -1   53.25    5.83
   3   8   0    1.37    1.25
  -3   8   0    5.77    3.31
  -3   8   0    1.88    1.48
   3   8   1   13.33    4.37
   3   8   1   17.51    3.55
   3  -8   1   10.72    2.73
  -3   8  -1   12.26    3.65
  -3   8  -1   13.45    3.49
   3   8   2    1.45    1.14
   3  -8   2    0.63    1.27
   3  -8   2   -0.70    1.27
  -3   8  -2    1.08    1.38
   3   8   2   -1.34    2.10
  -3   8  -2   -1.00    1.57
   3   8   3   25.53    5.74
  -3   8  -3   29.06    5.43
   3   8   3   23.81    4.29
  -3   8  -3   30.73    5.44
   3  -8   3   26.77    4.40
   3   8   4   20.46    5.54
  -3   8  -4   21.99    4.54
   3  -8   4   14.06    3.34
   3   8   4   11.48    3.12
  -3   8  -4   20.95    4.57
  -3   8  -5   39.23    6.12
   3  -8   5   49.61    6.23
   3   8   5   41.74    6.36
   3   8   5   47.68    7.85
  -3   8  -6    4.55    2.61
   3   8   6    5.46    3.03
   3  -8   6    3.53    1.96
   3   8   6    7.20    2.95
  -3   8  -7   11.07    3.10
   3  -8   7    8.37    2.93
   3   8   7   13.75    4.50
   3   9  -4    1.62    1.27
   3   9  -3   37.14    5.32
  -3   9   2    1.03    1.61
   3   9  -2    3.21    1.93
   3   9  -1   29.44    4.82
  -3   9   1   30.33    5.48
  -3   9   0   77.34    8.80
   3   9   0   76.42    7.69
   3   9   1   50.42    8.44
  -3   9  -1   45.25    7.35
   3   9   1   48.98    6.23
  -3   9  -1   42.27    6.57
  -3   9  -2   85.19    9.89
   3   9   2   65.59    9.65
   3  -9   2   79.26    7.39
  -3   9  -2   75.91    8.86
   3   9   2   65.69    7.22
   3   9   3   12.70    3.36
  -3   9  -3   15.26    4.40
  -3   9  -3   12.48    3.57
   3  -9   3   11.33    3.00
   3   9   4    0.87    1.12
  -3   9  -4    1.13    1.77
   3  -9   4    1.59    1.45
   3  -9   5    5.00    2.72
  -3   9  -5    1.08    1.39
  -3   9  -6   41.93    6.40
   3  10  -2   43.30    6.11
   3  10  -1   30.90    5.31
  -4   0  13    1.23    1.58
   4   0 -13    1.41    2.21
   4   0 -12   23.90    5.36
  -4   0  12   13.51    3.83
   4   0 -11   -1.11    2.46
  -4   0  11   -1.02    1.60
   4   0 -10   82.37    8.62
   4   0  -9    2.57    1.74
  -4   0   9   -0.37    0.75
  -4   0   8  132.80    7.07
  -4   0   7    0.38    0.68
  -4   0   6  493.11   15.15
  -4   0   5   -0.37    0.33
  -4   0   4   54.28    2.46
  -4   0   4   53.50    4.27
   4   0  -3   -0.33    0.42
  -4   0   3   -0.10    0.21
  -4   0   3    0.61    0.49
  -4   0   3    0.35    0.45
  -4   0   2 2874.07   52.64
  -4   0   2 2826.42   51.18
  -4   0   2 2830.43   56.40
   4   0  -1    0.28    0.31
   4   0  -1    1.04    0.47
  -4   0   1    0.15    0.23
   4   0  -1    0.17    0.21
  -4   0   1   -0.35    0.45
   4   0   0  583.51   15.44
  -4   0   0  578.42   16.37
   4   0   0  570.48   13.80
   4   0   0  561.17   13.81
   4   0   0  556.72   12.78
   4   0   1    0.34    0.31
  -4   0  -1   -0.22    0.40
   4   0   1   -0.34    0.43
   4   0   2  140.14    6.26
  -4   0  -2  129.66    6.13
   4   0   2  129.76    6.62
   4   0   2  139.52    7.44
   4   0   3    0.36    0.33
  -4   0  -3    0.35    0.31
   4   0   3    0.49    0.44
  -4   0  -3    1.11    0.87
   4   0   3   -0.34    0.31
   4   0   4   94.58    3.25
  -4   0  -4   89.02    7.14
   4   0   4   96.12    6.34
   4   0   4   87.37    5.33
  -4   0  -5    0.71    0.65
   4   0   5    0.53    0.84
   4   0   5    0.34    0.61
  -4   0  -6  198.98   12.22
   4   0   6  179.45   10.46
   4   0   6  169.55   11.29
   4   0   6  183.69    7.92
   4   0   7   -0.86    0.78
   4   0   7    0.72    0.93
  -4   0  -7   -0.92    0.83
   4   0   7   -0.31    0.57
   4   0   7   -0.77    1.22
   4   0   8   19.61    4.25
  -4   0  -8   20.58    4.49
   4   0   8   14.66    3.48
   4   0   8   17.32    2.22
   4   0   8   18.06    3.81
   4   0   9   -0.92    0.84
   4   0   9    0.24    0.48
  -4   0  -9   -1.14    2.08
  -4   0 -10   42.94    7.00
   4   0  10   30.66    5.52
  -4   0 -11    1.38    3.07
   4   0  11   -1.12    1.02
  -4   0 -12  215.27   17.52
   4   0  12  229.98   16.49
  -4   1  13    9.61    3.45
   4   1 -13    8.45    3.62
   4  -1 -13   11.30    3.85
  -4   1  12   19.93    4.72
   4  -1 -12   16.47    4.61
   4  -1 -11   34.60    6.02
  -4   1  11   31.21    5.58
   4  -1 -10   23.63    4.65
  -4   1  10   30.70    5.27
  -4  -1  10   31.33    3.53
   4  -1  -9    7.73    2.59
  -4   1   9    9.53    2.80
  -4  -1   9   12.51    2.25
  -4   1   8  324.03   15.10
  -4  -1   8  346.87   12.57
  -4  -1   7    2.41    1.09
   4  -1  -6  827.09   20.63
  -4  -1   6  824.53   21.82
  -4  -1   5   24.94    2.98
   4  -1  -5   21.51    2.56
  -4  -1   4 1507.83   34.01
  -4   1   4 1534.84   32.54
   4  -1  -4 1520.20   33.70
  -4   1   4 1562.25   30.69
  -4  -1   3   63.72    4.67
  -4   1   3   62.12    3.93
   4  -1  -3   56.83    4.33
  -4   1   3   64.59    3.42
  -4   1   2   14.68    1.65
  -4   1   2   16.83    2.00
  -4  -1   2   17.04    1.39
  -4  -1   2   19.39    2.49
   4  -1  -1   11.53    1.62
  -4  -1   1    7.21    1.49
  -4   1   1    9.85    1.60
  -4  -1   1    7.42    1.29
   4  -1  -1   10.03    1.48
   4  -1  -1    7.36    1.15
  -4   1   1   10.00    1.51
  -4  -1   1    7.49    1.55
   4   1   0  558.50   14.14
   4  -1   0  568.14   14.85
  -4  -1   0  511.33   15.61
  -4  -1   0  537.37   14.16
   4   1   0  517.58   11.75
   4  -1   0  562.47   14.70
  -4   1   0  545.14   14.68
   4  -1   0  540.89   14.11
   4  -1   1   15.97    1.42
  -4  -1  -1   12.90    1.95
   4   1   1   17.81    2.10
   4  -1   1   13.21    2.01
  -4  -1  -1   14.52    2.34
   4   1   1   17.89    2.29
   4  -1   1   15.09    2.05
   4  -1   2  324.45   12.11
   4  -1   2  342.11    9.98
   4   1   2  328.16   10.97
   4  -1   2  343.03   11.70
  -4  -1  -2  341.60   11.57
  -4  -1  -2  332.76   11.75
   4  -1   3   84.22    6.17
  -4  -1  -3   81.90    5.18
   4   1   3   85.07    5.79
   4  -1   3   82.82    3.10
   4  -1   3   81.81    4.99
   4   1   3   79.42    4.76
  -4  -1  -4    4.99    1.79
   4  -1   4    6.73    1.67
   4   1   4    7.45    1.43
   4   1   4    4.43    1.55
   4   1   5    5.57    1.17
  -4  -1  -5    4.99    1.94
  -4  -1  -5   -0.55    1.00
   4  -1   5    4.14    1.48
   4   1   5    5.18    1.73
   4  -1   5    2.89    1.47
   4   1   5    3.83    1.02
   4  -1   5    6.01    2.10
   4   1   6  138.21    9.35
  -4  -1  -6  124.52    9.69
   4  -1   6  160.54   10.34
   4  -1   6  145.29    9.14
   4  -1   6  147.71   10.36
   4   1   6  133.89    5.96
   4   1   7   20.50    3.85
   4  -1   7   16.01    2.58
  -4  -1  -7   12.86    3.35
   4  -1   7   19.72    3.98
   4  -1   7   26.49    4.22
   4  -1   7   17.75    3.51
   4   1   8  113.68    9.39
  -4  -1  -8  117.37   10.57
   4  -1   8  106.57    6.51
   4  -1   8  118.30    9.40
   4  -1   8   95.71    8.53
   4  -1   8  110.99    9.75
   4   1   9   11.44    3.25
  -4  -1  -9   19.45    4.53
   4  -1   9   14.72    3.83
   4  -1   9   14.15    2.38
   4   1  10  121.94   11.02
   4  -1  10  119.41   10.76
   4  -1  10  134.28    6.79
   4  -1  11   -1.11    2.02
   4   1  11   -1.15    1.80
  -4  -1 -11   -1.38    3.07
   4  -1  12    7.21    3.08
   4   1  12    4.96    2.98
  -4  -1 -12    2.99    1.92
  -4   2  13   63.77    8.29
  -4   2  12   38.36    6.22
   4   2 -12   30.67    6.16
   4  -2 -12   28.11    5.82
   4  -2 -11    5.64    2.90
   4   2 -11    2.24    2.69
  -4  -2  11    0.81    0.74
  -4   2  11    3.87    1.96
   4  -2 -10  166.71   12.30
  -4   2  10  162.13   11.51
   4   2 -10  130.30   10.90
  -4  -2  10  152.99    8.46
  -4   2   9  146.71   10.21
   4   2  -9  106.68    9.25
   4  -2  -9  117.75    9.73
  -4  -2   9  128.55    6.28
  -4  -2   9  127.63    7.58
  -4   2   8  162.61   10.29
   4   2  -8  157.55   10.70
   4  -2  -8  165.75   10.92
  -4  -2   8  159.63    6.51
  -4  -2   8  149.40    8.18
   4  -2  -7  358.04   11.49
  -4   2   7  349.65   14.65
  -4  -2   7  363.29    9.81
  -4  -2   7  336.64   12.90
   4  -2  -6  564.28   15.89
  -4   2   6  544.01   17.74
  -4  -2   6  529.89   11.90
  -4  -2   6  566.92   17.35
  -4  -2   5  228.13    5.13
  -4   2   5  242.49    9.86
  -4   2   5  232.23    9.54
  -4  -2   5  236.05   10.21
  -4   2   4    9.22    1.62
  -4  -2   4    7.31    1.77
  -4   2   4    9.11    1.61
  -4   2   3   23.01    2.07
  -4  -2   3   22.87    2.61
  -4  -2   3   20.02    2.79
  -4   2   3   27.26    2.61
  -4  -2   2 2949.32   53.19
  -4   2   2 2718.26   52.93
  -4  -2   2 2609.40   46.69
   4   2  -2 2661.04   47.07
  -4  -2   2 2819.65   54.84
  -4   2   2 2836.42   52.66
   4  -2  -1  221.88    8.04
   4   2  -1  223.11    8.03
  -4   2   1  216.21    8.76
  -4  -2   1  217.93    8.83
  -4   2   1  232.40    8.88
   4  -2  -1  232.26    8.02
  -4  -2   1  231.15    9.38
  -4  -2   1  222.90    8.90
   4   2   0  303.15   10.55
  -4  -2   0  284.83   10.71
  -4   2   0  290.18   10.79
  -4  -2   0  278.00   10.44
   4  -2   0  299.69    9.92
   4  -2   0  283.92    9.50
  -4   2   0  272.66   10.48
   4   2   0  298.15    9.87
   4  -2   1  118.92    6.08
   4  -2   1  116.14    6.89
   4   2   1  115.26    6.22
   4   2   1  114.62    6.35
   4  -2   1  119.12    6.19
  -4  -2  -1  118.47    6.93
  -4  -2  -1  123.59    6.47
   4   2   1  120.45    7.01
   4  -2   1  122.36    6.34
   4  -2   2  174.81    6.94
   4  -2   2  169.38    8.91
   4   2   2  168.11    8.86
   4   2   2  165.11    8.07
   4  -2   2  177.43    8.29
   4   2   2  160.78    8.14
  -4  -2  -2  178.65    7.82
   4  -2   3   15.72    2.72
   4   2   3   20.04    2.98
   4  -2   3   22.08    3.33
  -4  -2  -3   15.81    2.20
  -4   2  -4   99.50    7.57
  -4  -2  -4  100.13    7.61
   4  -2   4  100.36    7.43
   4   2   4   88.59    7.05
  -4  -2  -4   90.97    6.90
  -4  -2  -4   88.64    5.38
   4  -2   4   90.32    7.32
   4  -2   5    3.97    1.70
   4   2   5    2.08    0.93
  -4   2  -5    2.12    1.28
  -4  -2  -5    3.74    1.70
   4   2   5    6.43    2.10
   4  -2   5    3.57    1.72
   4   2   5    4.28    1.71
  -4  -2  -5    7.11    2.14
   4   2   5    5.94    1.89
   4  -2   5    2.19    1.41
  -4  -2  -5    5.27    1.34
   4   2   6  114.44    6.79
   4  -2   6  128.31    9.50
   4  -2   6  110.52    8.60
   4   2   6  107.70    8.60
  -4  -2  -6  116.55    8.65
   4  -2   6   98.05    7.42
   4   2   6  107.40    8.77
  -4   2  -6  103.11    8.85
  -4  -2  -6  105.49    9.01
   4   2   6  130.34    9.20
   4  -2   7   20.37    3.73
  -4   2  -7   17.30    3.80
   4   2   7   21.97    4.14
  -4  -2  -7   15.56    3.82
   4  -2   7   24.56    4.36
   4  -2   7   26.57    4.37
   4   2   7   28.76    4.62
   4   2   7   15.93    3.48
   4   2   8   53.30    6.56
   4  -2   8   56.76    6.67
   4   2   8   59.34    6.72
   4  -2   8   59.02    6.59
  -4   2  -8   52.01    7.11
  -4  -2  -8   47.22    6.65
   4  -2   8   51.92    5.95
   4   2   9    9.81    3.21
   4  -2   9    7.31    2.62
  -4   2  -9    2.27    2.06
  -4  -2  -9    5.70    2.74
   4  -2  10   17.31    4.14
   4   2  10   11.81    3.78
  -4   2 -10   16.25    4.40
  -4  -2 -10    7.53    3.23
   4   2  11    1.17    2.12
  -4   2 -11   -1.36    1.75
  -4  -2 -11   -1.37    1.76
   4  -2  11   -1.12    1.76
   4   2  12  220.01   16.30
  -4   2 -12  230.47   17.92
  -4  -2 -12  258.14   18.88
   4  -2  12  233.92   16.31
  -4   3  13   19.32    4.74
   4   3 -12  103.81   11.20
   4  -3 -12   84.03   10.27
  -4   3  12   87.49    9.30
   4  -3 -11    1.15    3.13
  -4   3  11    2.89    1.96
  -4  -3  11    1.05    0.90
  -4  -3  10    3.75    1.54
   4  -3 -10    5.00    2.57
  -4   3  10    6.96    2.50
   4   3 -10    4.98    2.22
  -4  -3   9   20.10    3.16
   4  -3  -9   24.77    4.53
  -4  -3   9   21.53    2.36
  -4   3   9   18.60    3.73
   4  -3  -8  722.24   26.66
  -4   3   8  683.29   23.39
   4   3  -8  681.49   24.34
   4  -3  -8  717.58   24.94
  -4  -3   8  701.77   16.49
   4  -3  -8  692.55   18.00
  -4   3   7   35.70    4.45
   4  -3  -7   36.25    5.44
  -4  -3   7   34.11    2.39
  -4   3   6  148.41    8.37
  -4  -3   6  151.68    4.90
  -4   3   5    4.42    1.32
   4  -3  -5    6.60    2.21
  -4   3   5    4.71    1.38
  -4  -3   4 1095.97   25.63
   4  -3  -4 1061.05   30.78
  -4   3   4 1033.06   25.81
  -4   3   4 1043.33   24.68
  -4  -3   3  318.32   11.03
   4  -3  -3  309.25   14.05
   4   3  -3  302.57    8.22
  -4   3   3  340.86   11.82
   4  -3  -2   33.79    4.23
  -4  -3   2   36.43    3.29
  -4   3   2   33.68    3.16
  -4   3   2   32.78    2.07
   4   3  -2   35.47    2.26
  -4   3   2   35.07    3.77
   4  -3  -2   37.99    2.42
  -4   3   2   28.93    3.24
   4  -3  -1  281.11   12.40
  -4  -3   1  291.88   10.73
  -4   3   1  288.89   10.46
   4  -3  -1  291.51    7.33
  -4   3   1  286.22   11.14
   4  -3  -1  274.89   10.09
   4  -3   0  626.88   19.31
   4   3   0  654.74   16.38
   4  -3   0  628.75   16.00
  -4   3   0  617.01   17.90
   4  -3   0  652.97   17.75
  -4  -3   0  615.89   18.02
   4  -3   1  207.44    9.55
   4   3   1  232.49   10.13
   4  -3   1  227.48    9.91
   4   3   1  229.59    8.87
   4   3   1  228.85   10.32
   4  -3   1  230.61    8.74
   4   3   2  154.54    8.54
   4  -3   2  158.19    8.52
   4   3   2  148.36    8.33
   4   3   2  149.92    7.53
   4  -3   2  154.48    7.58
  -4   3  -2  128.14    8.36
  -4  -3  -2  163.80    7.79
   4  -3   3   54.10    5.19
   4  -3   3   40.16    4.18
  -4  -3  -3   48.77    4.03
   4   3   3   52.09    5.09
   4   3   3   51.43    4.66
  -4  -3  -4   62.98    6.04
   4   3   4   55.51    5.29
   4  -3   4   52.73    5.35
   4   3   4   50.05    5.26
   4  -3   4   48.35    5.28
   4  -3   4   58.22    5.45
   4  -3   4   60.13    5.36
  -4  -3  -4   57.53    4.39
   4   3   5    0.58    0.90
  -4   3  -5   -0.70    0.63
  -4  -3  -5    0.71    1.11
   4   3   5    1.39    1.09
   4   3   5    0.65    1.02
   4  -3   5    1.95    1.18
   4  -3   5    0.70    1.10
  -4  -3  -5    0.34    0.62
  -4   3  -6  253.96   13.98
  -4  -3  -6  289.35   14.84
   4  -3   6  268.20   13.62
   4   3   6  257.50   13.29
   4   3   6  254.62   13.68
  -4  -3  -6  273.60    9.88
   4   3   6  255.15   12.34
   4  -3   6  263.84   13.91
   4   3   7    9.95    2.38
  -4   3  -7   12.59    3.37
  -4  -3  -7    5.45    2.34
   4  -3   7    8.79    2.54
   4   3   7   10.51    3.08
   4  -3   7    9.14    2.83
   4   3   7    7.46    2.61
   4  -3   7   11.81    3.00
   4   3   7   12.44    3.05
   4  -3   8   49.22    5.90
   4   3   8   51.75    6.08
  -4   3  -8   53.47    7.26
  -4  -3  -8   44.78    6.52
   4   3   8   51.40    6.74
  -4   3  -9    1.12    1.02
  -4  -3  -9   -1.13    1.02
   4   3   9   -1.03    1.62
  -4  -3 -10  171.41   14.00
  -4   3 -10  172.39   14.02
   4  -3  10  152.98   12.00
   4   3  10  176.26   13.46
  -4   3 -11    1.34    2.11
  -4  -3 -11   -1.35    2.13
   4  -3  11   -1.11    1.75
   4   3  11    1.20    1.54
   4  -3  12   -1.21    1.90
  -4   3 -12   -1.45    2.28
  -4  -3 -12    1.46    2.30
  -4   4  13   -1.11    1.42
  -4   4  12    8.23    3.24
   4   4 -12    5.16    2.87
   4  -4 -12   10.39    3.73
  -4   4  11    1.89    1.49
   4   4 -11    1.16    3.15
   4  -4 -11   -1.17    2.99
  -4   4  10   78.15    7.86
   4   4 -10   84.51    9.05
   4  -4 -10   65.59    7.94
   4  -4  -9   -0.29    0.52
   4   4  -9   -0.88    1.39
   4  -4  -9    0.89    1.14
  -4   4   9   -0.77    1.21
   4   4  -8   26.26    4.43
  -4   4   8   17.15    3.43
   4  -4  -8   15.99    3.40
  -4  -4   8   23.92    2.29
  -4   4   7   70.33    6.26
   4   4  -7   70.01    6.56
   4  -4  -7   64.22    6.39
  -4  -4   7   69.29    3.66
  -4   4   6   59.22    5.50
  -4   4   6   61.65    5.50
  -4   4   6   52.12    4.89
   4  -4  -5  292.57   15.62
  -4   4   5  297.15   12.40
  -4   4   5  331.73   13.40
  -4   4   4   21.69    3.09
   4  -4  -4   14.09    3.28
  -4  -4   4   28.52    3.12
  -4   4   4   22.53    2.69
  -4   4   4   19.49    3.11
   4   4  -4   26.06    2.38
   4  -4  -3  142.27    9.86
  -4   4   3  144.00    6.21
  -4  -4   3  129.69    4.37
  -4   4   3  144.39    8.33
   4  -4  -3  145.48    6.67
   4   4  -3  140.94    5.93
  -4   4   3  141.86    8.00
  -4  -4   3  142.64    6.95
   4  -4  -2  756.40   24.73
  -4  -4   2  744.32   19.82
  -4   4   2  765.04   19.74
  -4   4   2  774.81   22.66
   4  -4  -2  791.74   21.72
  -4   4   2  721.60   21.60
   4   4  -2  765.30   18.05
   4  -4  -2  755.78   18.23
   4  -4  -1    0.63    0.81
   4   4  -1    1.28    0.70
  -4  -4   1    1.81    0.93
  -4   4   1    0.35    0.70
   4  -4  -1    0.45    0.71
   4  -4  -1    1.80    0.71
   4  -4   0   24.48    2.33
  -4  -4   0   26.01    3.07
   4  -4   0   26.80    3.20
   4   4   0   22.18    2.86
   4  -4   0   21.79    3.17
   4   4   0   25.74    2.51
   4   4   1  122.28    7.97
   4   4   1  107.60    5.56
   4  -4   1  120.67    7.00
   4   4   1  126.33    7.10
   4  -4   1  118.79    5.25
   4  -4   1  124.50    5.79
   4  -4   1  111.33    6.88
   4   4   1  119.54    4.30
   4  -4   2  565.95   16.19
   4   4   2  568.06   16.40
   4   4   2  595.42   20.06
   4  -4   2  576.04   18.14
   4   4   2  576.82   18.07
   4   4   2  563.97   13.46
  -4   4  -2  566.59   20.11
   4  -4   2  605.73   18.34
   4   4   3   58.72    4.82
   4  -4   3   44.99    4.33
   4  -4   3   49.96    4.93
   4   4   3   61.78    5.93
   4  -4   3   60.26    5.29
  -4   4  -3   54.52    5.77
   4  -4   3   61.65    5.57
   4   4   4  177.72    9.38
   4  -4   4  175.32    9.28
   4  -4   4  171.02    9.66
   4   4   4  153.43    9.20
  -4  -4  -4  155.68   10.25
   4   4   4  169.64   10.49
   4  -4   4  151.85    9.56
  -4  -4  -4  150.31    7.82
   4   4   5   36.69    4.99
  -4  -4  -5   43.76    3.93
  -4  -4  -5   48.33    5.87
   4  -4   5   44.70    5.15
   4   4   5   39.76    4.97
   4   4   5   41.04    4.90
   4   4   5   52.71    5.99
   4   4   5   34.36    4.50
   4  -4   5   37.46    4.67
   4  -4   5   36.17    4.84
  -4  -4  -5   50.22    5.70
   4   4   6  115.42    8.89
  -4  -4  -6  105.67    8.72
  -4   4  -6  111.46    8.99
   4  -4   6  106.48    8.12
   4   4   6  112.76    8.36
   4  -4   6  118.47    8.87
   4  -4   6   99.16    7.80
  -4  -4  -6   98.28    8.74
   4   4   6  110.56    8.62
  -4  -4  -6  103.43    6.07
   4   4   7    6.69    2.43
  -4   4  -7    3.51    2.11
  -4  -4  -7    9.78    2.91
  -4  -4  -7    8.90    1.80
   4  -4   7    4.88    2.00
   4   4   7    6.21    2.17
  -4   4  -8  132.64   11.06
   4  -4   8  142.51    9.95
   4   4   8  141.32    9.74
  -4  -4  -8  136.59   11.18
  -4   4  -9    1.09    1.40
  -4  -4  -9    3.32    2.66
  -4   4 -10   43.37    7.21
  -4  -4 -10   51.14    7.62
  -4   4 -11    9.20    3.77
  -4  -4 -11    9.28    3.61
   4  -4  11    3.29    2.44
  -4   4 -12  111.89   12.26
  -4  -4 -12  102.90   11.81
  -4   5  12   47.23    6.91
   4   5 -12   46.26    7.42
   4  -5 -12   48.04    7.68
   4  -5 -11    3.52    2.61
  -4   5  11    4.87    2.34
   4   5 -11    2.33    1.83
   4   5 -10   10.38    3.27
   4  -5 -10    7.32    3.15
   4   5  -9   26.40    4.76
   4  -5  -9   16.54    3.84
   4   5  -8  467.01   19.46
   4  -5  -8  447.14   19.18
   4  -5  -8  464.19   15.81
   4   5  -7   20.03    3.59
   4  -5  -7   25.09    4.00
   4  -5  -7   27.31    3.72
  -4   5   7   24.53    3.85
   4   5  -6   -0.57    0.73
   4  -5  -6    1.17    0.92
  -4   5   6    1.84    1.24
  -4   5   6    1.05    0.82
  -4   5   6    0.42    0.76
  -4  -5   6    0.88    0.89
   4  -5  -5    7.46    2.68
  -4   5   5    4.77    1.80
  -4  -5   5    5.62    1.55
  -4   5   5    3.66    1.75
  -4   5   5    4.49    1.53
  -4   5   5    6.03    1.57
   4  -5  -4   91.26    8.73
  -4  -5   4   88.86    7.27
  -4   5   4   82.91    5.51
  -4  -5   4  100.17    4.53
  -4   5   4   87.75    7.08
   4  -5  -4   94.11    6.14
  -4   5   4   88.46    6.94
   4   5  -4  101.74    5.79
  -4  -5   4   91.21    5.63
   4  -5  -3  116.85    9.60
  -4   5   3  134.86    6.54
  -4  -5   3  119.69    6.51
  -4  -5   3  117.65    8.27
   4  -5  -3  114.65    6.54
  -4   5   3  122.90    8.37
  -4  -5   3  124.72    4.20
   4   5  -3  124.83    6.42
  -4   5   3  124.41    8.18
   4   5  -2    8.01    1.61
  -4  -5   2    5.74    1.50
   4  -5  -2    8.28    1.72
  -4   5   2    7.95    1.65
  -4  -5   2    9.84    2.44
  -4  -5   1   41.48    3.84
  -4   5   1   50.61    4.01
   4   5  -1   43.97    3.85
   4  -5  -1   48.82    3.82
  -4  -5   1   40.35    4.87
   4   5   0  105.87    6.05
  -4  -5   0   90.84    7.35
   4  -5   0   97.22    5.93
   4  -5   1   95.13    4.64
   4   5   1   95.02    4.81
   4   5   1   97.50    6.00
   4  -5   1  101.82    5.54
   4  -5   1   93.24    5.93
  -4   5  -1   96.18    7.79
   4  -5   1   93.70    6.61
   4  -5   2    6.40    1.71
   4  -5   2    6.71    1.82
   4   5   2    7.55    1.58
   4  -5   2    5.15    1.22
   4  -5   2    7.65    1.66
   4   5   2    7.38    2.20
   4  -5   2    4.81    1.49
   4   5   2    6.73    1.30
  -4  -5  -2    8.84    2.59
   4   5   2    9.00    1.95
  -4   5  -2    4.32    1.85
   4   5   2    6.29    1.78
  -4  -5  -3   64.65    6.71
   4   5   3   56.71    6.18
   4   5   3   60.63    4.66
   4  -5   3   51.18    4.28
   4  -5   3   47.00    4.68
   4  -5   3   50.60    5.62
   4   5   3   58.99    3.83
  -4   5  -3   49.78    5.27
  -4   5  -3   53.88    6.11
   4  -5   3   57.06    5.19
   4   5   4  115.94    7.11
   4  -5   4  125.79    7.35
   4   5   4  118.75    9.20
   4  -5   4  114.96    7.58
   4   5   4  114.40    7.50
   4  -5   4  109.13    7.64
  -4  -5  -4  119.03    9.52
  -4  -5  -5    3.08    1.38
   4  -5   5    2.43    1.56
   4   5   5    0.55    0.87
   4  -5   5    2.23    1.24
   4   5   5    1.68    1.34
   4   5   5    4.89    2.09
   4   5   5    2.47    1.58
   4   5   5    2.68    1.62
   4  -5   5    3.72    1.59
   4  -5   5    0.57    0.73
   4   5   6   68.01    7.57
   4  -5   6   61.69    6.20
   4   5   6   57.87    6.88
   4  -5   6   62.98    5.96
   4   5   6   69.72    6.25
   4   5   6   49.23    5.65
  -4  -5  -6   75.15    5.43
   4  -5   7    8.16    2.21
   4   5   7    5.42    2.46
   4   5   7    6.11    2.00
  -4   5  -7    7.65    2.67
  -4  -5  -7    0.86    1.36
   4   5   7    5.64    2.41
  -4  -5  -7    6.84    1.66
  -4  -5  -8   65.41    7.73
   4   5   8   80.03    8.63
   4  -5   8   76.55    7.03
   4   5   8   87.23    7.56
  -4   5  -8   85.45    8.81
  -4  -5  -8   85.87    5.19
  -4   5  -9   -1.05    1.35
  -4  -5  -9   -1.07    0.97
  -4   5 -10   53.20    7.84
  -4  -5 -10   53.91    7.72
  -4   5 -11   -1.26    2.28
  -4  -5 -11    1.27    2.00
   4  -6 -11    5.77    2.57
   4   6 -11    3.43    2.32
   4   6 -10  115.03   10.66
  -4   6  10  109.13    9.23
  -4   6   9    3.88    2.12
  -4   6   9    1.52    1.54
   4  -6  -9    4.05    1.53
   4   6  -9    0.91    1.43
   4  -6  -9    0.92    1.87
  -4   6   8    0.76    1.19
   4   6  -8    0.79    1.24
  -4  -6   8    1.05    1.06
   4  -6  -8    2.41    1.63
  -4   6   8   -0.69    1.54
   4   6  -8    0.74    1.49
   4  -6  -8   -0.56    1.02
   4  -6  -7    0.69    0.88
   4   6  -7    0.68    0.87
  -4   6   7    0.90    1.00
  -4  -6   7    0.96    1.07
  -4   6   7    0.74    0.95
  -4   6   7   -0.62    1.13
  -4   6   6   66.30    5.06
  -4   6   6   59.86    5.68
   4   6  -6   55.88    5.48
   4  -6  -6   63.78    5.83
  -4  -6   6   66.21    5.23
  -4   6   6   60.50    6.42
   4   6  -5   19.94    2.98
   4  -6  -5   17.46    2.89
  -4   6   5   14.74    3.33
   4  -6  -5   15.75    2.97
  -4  -6   5   21.45    2.86
  -4   6   5   26.68    3.60
  -4  -6   5   17.62    2.17
   4   6  -5   21.05    3.06
  -4   6   4   18.74    3.57
   4   6  -4   14.56    2.40
   4  -6  -4   15.98    2.47
  -4  -6   4   15.43    2.43
  -4   6   4   13.92    2.54
   4  -6  -4   15.06    2.78
  -4  -6   4   15.18    1.77
   4   6  -4   18.55    2.86
  -4  -6   3   12.53    2.09
  -4   6   3   13.66    2.05
   4   6  -3   16.88    2.71
   4  -6  -3   13.75    2.51
   4  -6  -2   70.94    5.43
  -4  -6   2   75.92    5.04
  -4   6   2   80.67    4.80
   4   6  -2   90.45    5.99
   4  -6  -1   73.85    4.69
   4   6  -1   74.25    4.58
   4   6  -1   70.34    5.44
  -4  -6   1   76.21    7.25
   4  -6  -1   72.26    6.22
   4  -6  -1   70.45    5.24
   4  -6   0   51.71    5.38
   4  -6   0   47.18    3.74
   4   6   0   52.83    4.87
  -4   6   0   56.93    6.21
  -4  -6   0   44.54    5.72
   4   6   0   45.42    3.59
   4  -6   1   58.26    4.21
   4  -6   1   49.93    5.51
  -4   6  -1   62.35    6.67
   4   6   1   61.31    4.26
   4  -6   1   61.09    4.41
   4  -6   1   49.96    4.36
   4   6   1   64.07    4.35
  -4   6  -2  283.77   14.58
   4  -6   2  273.96    8.42
   4  -6   2  280.01   11.05
   4  -6   2  261.33   10.08
   4   6   2  277.76   10.23
   4   6   2  274.19    9.53
   4  -6   2  276.93   13.55
   4   6   2  271.64    8.75
  -4   6  -2  256.06   14.40
   4  -6   2  260.29   10.26
   4   6   2  257.14   10.09
  -4   6  -3    0.73    0.94
   4   6   3    0.61    0.73
   4  -6   3    0.29    0.58
   4  -6   3    0.44    0.69
   4  -6   3   -0.73    1.14
   4   6   3    0.65    0.66
  -4   6  -3   -0.86    1.36
   4  -6   3   -0.42    0.85
   4  -6   3   -0.39    0.95
   4   6   4   29.51    5.44
  -4   6  -4   39.14    5.10
   4   6   4   39.13    3.84
   4  -6   4   31.62    3.44
  -4   6  -4   35.03    5.38
   4  -6   4   38.47    3.95
   4   6   4   34.69    3.52
   4  -6   4   28.69    4.60
   4   6   5  224.28   14.76
  -4   6  -5  224.98   11.73
   4   6   5  209.52    9.98
   4  -6   5  213.27   10.02
   4   6   5  220.00   10.06
   4   6   5  212.02    9.24
   4  -6   5  207.20    9.98
  -4   6  -6   92.92    7.21
   4  -6   6   95.19    7.36
   4  -6   6  104.15    7.17
   4   6   6   92.55    6.81
   4   6   6   97.13    6.35
  -4  -6  -6   95.86    6.66
   4   6   6  108.97   10.29
   4   6   6   80.13    6.76
  -4   6  -7   53.48    5.13
   4   6   7   47.85    6.89
   4   6   7   61.65    6.23
   4   6   7   66.39    6.04
  -4  -6  -7   48.33    4.51
   4   6   8   35.31    6.01
  -4   6  -9    7.97    3.26
  -4  -6  -9    7.09    2.76
  -4   6 -10    1.09    2.22
  -4  -6 -10    1.11    1.42
  -4   6 -11    4.75    2.85
  -4   7  10    1.65    1.67
  -4   7   9    0.77    1.56
  -4   7   9    0.51    2.24
   4   7  -9    0.86    1.11
  -4   7   8  470.15   16.14
  -4   7   8  472.60   18.92
   4   7  -8  501.32   19.87
  -4  -7   8  453.71   15.65
  -4   7   8  470.32   20.64
   4  -7  -8  490.23   18.25
  -4   7   7    3.39    2.17
  -4   7   7    4.16    1.46
  -4  -7   7    1.97    1.01
  -4   7   7    0.65    1.18
   4   7  -7    2.59    1.86
  -4   7   6   22.33    4.26
   4   7  -6   17.17    3.10
  -4  -7   6   18.25    2.79
  -4   7   6   17.57    2.54
  -4   7   6   25.78    3.74
   4   7  -6   17.23    2.89
   4  -7  -6   23.52    3.61
  -4   7   5    4.90    2.57
   4   7  -5    5.79    1.50
   4   7  -5    3.80    1.56
  -4  -7   5    3.07    1.26
   4   7  -5    3.45    1.41
   4  -7  -5    2.73    1.43
  -4  -7   4   67.97    4.76
  -4   7   4   70.91    4.41
  -4   7   4   70.12    7.27
   4   7  -4   72.85    4.78
   4  -7  -4   74.47    5.07
   4  -7  -4   67.14    6.10
   4   7  -4   72.53    6.15
   4   7  -4   75.30    4.91
   4  -7  -3   43.11    4.63
  -4  -7   3   32.79    3.12
   4   7  -3   41.23    3.19
   4   7  -3   34.42    2.79
   4  -7  -3   34.77    3.00
   4   7  -3   46.36    4.86
   4   7  -2   -0.54    0.84
   4  -7  -2   -0.52    1.41
   4   7  -2    0.40    0.39
   4  -7  -2    0.21    0.54
   4   7  -2   -0.15    0.39
   4  -7  -2    0.52    0.41
  -4   7   1   42.90    5.78
   4  -7  -1   27.25    1.95
   4   7  -1   27.62    3.80
   4  -7  -1   24.08    1.79
   4  -7  -1   39.21    4.35
   4  -7  -1   26.68    1.70
   4   7   0   77.76    6.34
   4  -7   0   81.06    6.96
  -4   7   0   75.32    7.64
   4  -7   1   -0.11    0.33
   4   7   1   -0.09    0.26
   4   7   1   -0.58    0.91
   4  -7   1   -0.68    1.07
   4  -7   1   -0.48    0.76
   4  -7   2    2.08    0.72
   4   7   2    1.84    0.63
   4   7   2    1.21    1.22
  -4   7  -2    1.88    1.48
   4  -7   2    1.45    1.47
   4  -7   2    0.99    1.01
   4   7   3   26.76    5.65
  -4   7  -3   28.91    4.93
   4   7   3   34.45    2.60
   4   7   3   33.86    3.55
   4   7   3   33.56    2.79
   4  -7   3   24.49    4.31
   4  -7   3   31.88    4.00
  -4   7  -3   28.12    5.08
   4   7   4   92.40   10.20
   4   7   4   99.54    5.34
   4  -7   4  105.45    7.35
   4  -7   4  114.06    9.16
  -4   7  -4  111.80    9.37
  -4   7  -4  103.92    9.84
   4   7   5   14.72    4.32
   4   7   5   13.07    2.31
   4  -7   5   10.28    2.44
  -4   7  -5   17.08    3.60
   4  -7   5   13.03    3.35
   4   7   6  109.03   11.14
  -4   7  -6  108.48    8.58
   4   7   6   90.35    9.42
   4  -7   6  109.14    9.65
  -4  -7  -6  100.80    7.35
   4   7   7    2.44    2.21
   4   7   7    4.23    2.71
   4   7   8   28.12    5.99
  -4   8   8    0.71    1.12
  -4   8   7    8.66    2.64
  -4   8   6  199.19   13.34
  -4   8   5    0.93    2.23
   4   8  -5    0.64    1.15
   4   8  -4  119.40    8.63
   4   8  -3   -0.65    1.02
   4   8  -2   39.50    4.92
  -4   8   2   35.04    5.74
   4   8  -1   -0.65    1.02
  -4   8   1   -0.97    1.25
   4   8   0    1.98    1.34
   4  -8   0    2.13    1.44
  -4   8   0    0.99    1.56
   4   8   1   13.59    3.15
   4  -8   1   15.93    3.67
  -4   8  -1   15.33    3.83
   4   8   2   90.79   10.74
   4  -8   2   77.81    7.50
  -4   8  -2   74.81    8.54
   4   8   2   71.28    7.02
   4   8   3   17.86    5.00
   4   8   3   21.04    3.96
  -4   8  -3   21.62    4.72
   4  -8   3   17.62    3.86
   4   8   4   20.69    5.32
  -4   8  -4   25.09    4.81
   4  -8   4   26.04    4.59
  -4   8  -4   16.56    4.27
   4   8   5   13.86    4.37
  -4   8  -5   16.37    4.05
   4   8   5   21.78    4.71
   4  -8   5   18.57    4.02
   4   8   6   30.23    6.26
   4  -8   6   37.47    5.86
   4   9  -3   15.73    3.34
   4   9  -2    4.54    1.94
   4   9  -1   12.02    3.06
   4   9   0   90.15    8.04
   4   9   1   11.63    3.15
   4  -9   1   12.24    3.19
   4   9   2    4.77    2.04
   4  -9   2    4.68    2.13
   4   9   3    4.95    2.25
   4  -9   3    4.06    1.95
  -5   0  13  101.86   11.03
   5   0 -12   -1.23    3.16
  -5   0  12   -1.11    2.01
   5   0 -11  218.88   14.87
   5   0 -10    1.96    1.78
  -5   0   9  284.67   11.62
  -5   0   8   -0.47    0.95
  -5   0   7   20.93    3.09
  -5   0   6    0.92    1.02
  -5   0   5  619.00   18.99
  -5   0   5  630.16   13.59
  -5   0   4    0.63    0.34
  -5   0   4    0.26    0.34
  -5   0   4   -0.45    0.58
  -5   0   3   45.04    3.18
  -5   0   3   44.50    2.42
  -5   0   3   41.32    4.18
   5   0  -2    0.37    0.28
  -5   0   2    0.24    0.31
  -5   0   2   -0.44    0.57
  -5   0   1 3958.08   71.19
   5   0  -1 4001.27   71.80
   5   0  -1 4129.70   74.62
   5   0  -1 3827.43   71.35
  -5   0   1 3834.62   77.33
   5   0   0   -0.25    0.46
   5   0   0   -0.35    0.32
   5   0   0   -0.25    0.67
  -5   0   0   -0.21    0.27
  -5   0   0    0.44    0.79
   5   0   1   30.75    3.36
  -5   0  -1   31.48    2.73
   5   0   1   29.80    2.46
  -5   0  -2    0.32    0.64
   5   0   2   -0.46    0.59
   5   0   2   -0.42    0.54
   5   0   3  837.24   24.04
  -5   0  -3  788.17   21.01
   5   0   3  779.08   21.65
   5   0   3  810.08   21.34
   5   0   4   -0.47    0.73
   5   0   4   -0.62    1.13
   5   0   4   -0.42    0.38
   5   0   5  383.37   15.19
  -5   0  -5  378.64   17.40
   5   0   5  404.79   17.57
   5   0   5  397.02   18.05
   5   0   5  372.31   13.28
   5   0   6    0.89    1.14
   5   0   6    0.65    0.84
   5   0   6    0.40    0.52
  -5   0  -6   -0.88    0.80
   5   0   6    0.81    0.74
   5   0   7    3.46    2.08
   5   0   7    4.80    2.13
   5   0   7    5.25    2.04
  -5   0  -7    2.93    1.98
   5   0   7    4.25    1.36
   5   0   8   -0.85    1.09
  -5   0  -8   -1.08    1.97
   5   0   8    1.02    1.60
   5   0   8    0.36    0.57
   5   0   9   -0.32    0.58
   5   0   9   -0.95    1.21
  -5   0  -9   -1.20    1.88
   5   0   9   -1.09    2.81
   5   0  10   -0.26    0.62
   5   0  10   -1.04    1.64
  -5   0 -10   -1.31    2.38
   5   0  11    3.43    2.07
  -5   0 -11    4.27    2.58
   5   0  12   -1.23    1.58
  -5   0 -12   -1.53    2.40
  -5   1  13   95.31   10.37
   5   1 -12   -1.24    2.25
   5  -1 -12    1.24    1.59
  -5   1  12   -1.08    1.97
   5  -1 -11  116.25   10.74
  -5   1  11  114.45   10.32
   5  -1 -10   39.32    6.01
  -5   1  10   24.71    4.71
  -5  -1  10   39.59    4.32
  -5  -1   9    0.99    0.90
  -5   1   9    1.55    1.41
  -5   1   8   22.20    3.87
  -5  -1   8   17.10    2.86
  -5  -1   7 1757.35   40.25
  -5  -1   6    0.74    0.27
  -5   1   6    1.22    0.63
  -5  -1   6    1.88    1.20
  -5  -1   6    0.81    0.33
  -5  -1   5   98.15    6.57
  -5   1   5  102.44    5.80
  -5   1   5   99.42    4.72
  -5   1   4   55.31    4.10
  -5  -1   4   64.88    4.94
  -5   1   4   64.90    3.65
  -5  -1   4   55.23    4.81
  -5   1   3  233.22    7.93
  -5   1   3  253.38    9.30
  -5  -1   3  231.11    7.22
  -5  -1   3  258.26   10.77
  -5  -1   2   11.15    1.74
  -5  -1   2    7.66    1.12
  -5   1   2    7.38    1.49
  -5  -1   2    4.75    1.47
   5   1  -2    7.29    0.67
   5  -1  -2   11.36    1.43
  -5   1   2    9.42    1.54
   5  -1  -1   30.22    2.98
  -5  -1   1   25.45    2.56
   5  -1  -1   27.43    2.68
   5   1  -1   27.76    2.00
  -5   1   1   21.34    2.40
   5  -1  -1   26.65    2.38
  -5   1   1   26.12    1.34
  -5  -1   1   26.89    3.25
   5  -1   0   34.87    3.34
   5   1   0   37.98    2.40
   5  -1   0   37.07    3.31
   5  -1   0   32.76    2.93
   5  -1   1  845.32   22.50
   5   1   1  868.07   20.87
   5  -1   1  852.69   21.42
   5   1   1  824.10   21.98
  -5  -1  -1  811.21   21.32
   5  -1   2   37.45    2.88
  -5  -1  -2   34.64    3.56
   5  -1   2   42.69    4.26
   5   1   2   33.94    3.32
   5  -1   2   39.97    3.84
   5  -1   2   44.39    4.45
  -5  -1  -2   34.62    3.71
   5   1   2   38.44    3.66
   5  -1   3   67.56    4.63
   5  -1   3   70.41    6.35
   5  -1   3   70.64    5.95
   5  -1   3   83.94    6.16
   5  -1   3   79.86    5.86
  -5  -1  -3   78.41    5.55
   5   1   3   90.96    5.65
   5   1   4    3.30    1.10
   5   1   4   -0.53    0.48
   5  -1   4    0.62    0.97
   5  -1   4   -0.69    0.88
   5  -1   4    2.58    1.10
  -5  -1  -4    3.66    1.42
   5  -1   4    1.49    1.00
   5   1   5  149.34    9.27
   5   1   5  154.23    6.54
  -5  -1  -5  146.48   10.44
   5  -1   5  134.24    9.71
   5  -1   5  134.12    8.30
  -5  -1  -5  158.43    9.33
   5  -1   5  142.89   10.44
   5   1   5  152.26    7.29
   5  -1   5  150.94    8.53
   5  -1   6   18.65    3.35
   5   1   6   20.97    2.61
   5   1   6   19.34    3.62
   5   1   6   19.85    2.09
  -5  -1  -6   16.65    3.66
   5  -1   6   26.70    4.72
   5  -1   6   24.25    4.23
   5  -1   6   23.25    3.36
   5  -1   7   14.40    3.15
   5   1   7   14.83    3.48
  -5  -1  -7   19.51    4.25
   5  -1   7   14.35    3.79
   5  -1   7   17.23    3.84
   5  -1   7   18.41    2.97
   5  -1   8   14.75    3.41
   5   1   8   11.34    3.18
  -5  -1  -8   17.34    4.40
   5  -1   8   12.23    3.59
   5  -1   8   12.50    2.48
   5  -1   9   78.86    5.82
   5   1   9   69.66    7.96
  -5  -1  -9   80.06    9.48
   5  -1   9   76.96    8.08
   5  -1   9   90.61    9.65
   5   1  10   -1.06    1.36
  -5  -1 -10   -1.31    2.37
   5  -1  10   -1.02    1.30
   5  -1  10    0.40    0.82
   5   1  11    3.47    2.35
  -5  -1 -11    9.93    3.86
   5  -1  11   10.03    3.65
   5   1  12    1.25    1.13
  -5  -1 -12   -1.53    2.40
   5  -1  12    3.63    2.45
  -5   2  13   68.58    8.61
   5   2 -12   54.80    8.12
   5  -2 -12   56.38    8.33
  -5   2  12   50.62    7.01
  -5   2  11  229.70   14.27
   5   2 -11  194.31   14.25
   5  -2 -11  185.50   13.79
  -5  -2  10   20.12    2.19
   5   2 -10   16.59    4.07
   5  -2 -10   20.62    4.47
  -5   2  10   24.64    4.44
  -5  -2  10   15.16    2.93
  -5   2   9  164.64   10.80
   5   2  -9  169.10   11.81
   5  -2  -9  182.73   12.32
  -5  -2   9  146.65    5.64
  -5  -2   9  169.42    9.32
  -5   2   8   86.90    7.27
  -5  -2   8   87.26    3.45
  -5  -2   8   91.53    6.74
  -5   2   7   19.04    3.15
  -5  -2   7   14.83    2.76
  -5   2   6  302.76   12.20
  -5   2   6  304.94   12.00
  -5   2   6  328.71   11.01
  -5  -2   6  290.14   12.40
  -5  -2   5  299.71   12.36
  -5   2   5  281.89   10.74
  -5   2   5  298.06   11.49
  -5   2   5  304.58   10.46
  -5   2   4  152.76    7.86
  -5  -2   4  156.42    7.97
  -5   2   4  140.85    6.23
  -5  -2   4  148.92    8.21
  -5   2   4  140.37    7.42
  -5   2   4  161.24    7.05
  -5  -2   3    3.21    1.25
  -5   2   3    3.51    1.09
  -5   2   3    3.57    0.77
  -5  -2   3    3.25    1.22
  -5   2   3    3.93    1.24
  -5  -2   3    4.03    0.72
  -5   2   2    3.82    1.18
  -5  -2   2    4.92    1.52
  -5  -2   2    6.19    1.59
  -5   2   2    5.18    1.45
   5  -2  -2    1.04    0.83
   5   2  -1 1806.74   36.73
  -5  -2   1 1767.43   38.52
   5  -2  -1 1689.21   35.81
   5  -2  -1 1685.11   37.21
  -5   2   1 1655.58   37.38
  -5  -2   1 1659.11   38.65
   5  -2  -1 1744.66   36.33
   5   2   0  145.26    6.99
   5  -2   0  134.60    6.77
  -5  -2   0  142.57    8.05
   5  -2   0  126.89    6.96
   5   2   0  138.77    3.65
  -5   2   0  133.76    7.40
   5  -2   0  141.07    6.78
   5  -2   1  221.90    5.92
   5   2   1  220.89    9.57
   5  -2   1  229.70    9.67
   5   2   1  230.20    9.68
  -5  -2  -1  232.69   11.09
   5  -2   1  244.02   10.32
   5  -2   1  225.27   10.90
   5  -2   1  230.36    9.53
  -5  -2  -1  224.75    9.97
   5  -2   2   28.68    2.88
   5  -2   2   33.93    4.20
   5   2   2   40.02    4.10
   5  -2   2   35.96    3.84
  -5  -2  -2   28.43    3.36
   5   2   2   38.82    3.96
   5  -2   2   32.05    2.56
   5  -2   2   26.74    3.30
   5  -2   3  441.36   11.98
  -5  -2  -3  435.71   16.11
   5  -2   3  454.87   17.48
   5   2   3  462.97   17.55
   5   2   3  434.18   15.92
   5  -2   3  437.69   15.97
   5   2   3  458.82   16.00
   5  -2   3  464.75   13.66
   5  -2   3  420.32   15.49
  -5  -2  -3  429.45   14.89
   5  -2   4   -0.42    0.66
  -5  -2  -4   -0.59    0.76
   5   2   4    0.61    1.10
   5  -2   4    0.61    1.10
   5  -2   4    1.38    1.08
   5   2   4    1.38    1.25
   5  -2   4    0.54    0.70
  -5  -2  -4    0.42    0.66
   5  -2   5   13.87    3.24
   5  -2   5   13.52    2.64
   5  -2   5    7.77    2.18
   5  -2   5   13.47    3.05
   5   2   5   14.67    3.48
   5   2   5   19.28    3.60
   5  -2   5   10.33    2.59
  -5   2  -5   16.53    3.51
  -5  -2  -5   15.04    3.38
  -5  -2  -5   15.19    3.06
  -5  -2  -5   16.00    2.51
   5   2   5   17.15    3.52
  -5   2  -6   55.82    6.68
   5  -2   6   69.05    7.27
   5   2   6   72.17    7.30
   5   2   6   62.52    7.07
   5  -2   6   71.24    6.32
  -5  -2  -6   67.88    6.76
   5  -2   6   76.07    6.70
   5   2   6   70.61    5.32
   5  -2   6   70.47    7.51
   5   2   6   72.11    7.12
  -5  -2  -6   86.01    8.25
  -5   2  -7   87.06    8.94
  -5  -2  -7   89.59    8.99
   5  -2   7  126.00    9.94
   5   2   7  100.21    8.81
   5  -2   7  103.64    8.22
   5  -2   7   97.37    9.23
   5   2   7  104.77    9.45
   5   2   7   86.65    8.21
   5   2   8   27.41    4.94
  -5   2  -8   41.75    6.54
  -5  -2  -8   32.29    5.81
   5   2   8   45.19    6.60
   5  -2   8   31.19    4.92
   5  -2   8   41.26    6.22
   5  -2   9    1.15    1.17
   5   2   9    1.00    1.29
  -5   2  -9   -1.18    1.86
   5  -2   9   -0.92    0.84
  -5  -2  -9   -1.19    1.52
   5  -2  10    5.10    2.45
  -5   2 -10    2.58    2.87
  -5  -2 -10    3.90    2.89
   5  -2  10    6.16    1.90
   5   2  10    3.27    2.62
   5  -2  11   26.69    5.37
  -5  -2 -11   28.18    6.29
   5   2  11   40.15    6.63
   5  -2  12    5.98    2.87
  -5   2 -12    9.05    3.87
  -5  -2 -12    6.07    3.37
  -5   3  13   13.10    4.09
   5   3 -12   12.63    4.59
   5  -3 -12   21.49    5.26
  -5   3  12   13.15    3.56
   5   3 -11   20.04    4.64
   5  -3 -11   13.47    3.96
  -5   3  11   24.95    4.83
   5  -3 -10   14.64    3.77
  -5  -3  10   23.13    3.62
  -5   3  10   17.47    3.86
  -5  -3  10   20.58    1.88
  -5  -3   9    3.49    1.49
  -5  -3   9    0.13    0.32
   5   3  -9   -0.88    1.79
   5  -3  -9    0.89    1.40
  -5   3   9    0.74    1.16
  -5  -3   8    2.29    1.37
  -5   3   8    3.21    1.65
  -5   3   7  755.79   22.69
  -5   3   7  753.62   22.57
   5  -3  -7  748.23   21.31
  -5   3   7  739.64   21.00
  -5  -3   7  723.11   22.69
  -5  -3   6    1.09    1.31
  -5   3   6   -0.43    0.68
  -5   3   6   -0.45    0.71
  -5   3   6    0.51    0.79
   5  -3  -6    0.99    0.89
  -5   3   5  248.87    9.71
  -5   3   5  241.03   10.47
  -5  -3   5  253.47   10.83
  -5   3   5  214.78   10.45
  -5   3   5  263.77   10.55
   5  -3  -5  254.29   11.54
  -5  -3   5  253.19   11.86
  -5   3   4    2.45    1.11
  -5  -3   4    3.89    1.30
  -5   3   4    2.50    1.07
   5  -3  -4    4.41    1.58
   5  -3  -3  257.02   13.04
  -5  -3   3  253.60   10.46
  -5   3   3  241.12    7.01
   5   3  -3  252.74    6.09
  -5   3   3  248.17   10.29
  -5  -3   3  252.68   11.05
  -5   3   2   10.39    2.12
   5  -3  -2    9.91    2.39
  -5  -3   2   12.82    2.50
  -5  -3   2   11.65    2.22
  -5  -3   2   11.13    2.19
   5  -3  -2    9.59    1.97
   5   3  -2    8.85    1.14
   5  -3  -1   96.39    7.15
  -5  -3   1   90.73    6.27
  -5  -3   1   95.80    6.43
   5  -3  -1   97.67    5.77
   5  -3  -1  103.93    6.52
  -5   3   1   92.51    6.34
   5  -3   0   26.63    3.48
   5   3   0   27.66    2.97
   5  -3   0   33.23    3.16
  -5  -3   0   30.17    3.68
   5  -3   0   35.13    3.55
   5  -3   0   39.49    4.01
  -5   3   0   20.37    3.07
  -5  -3   0   26.03    3.42
   5  -3   1  530.02   17.66
   5   3   1  585.97   18.56
   5  -3   1  564.12   18.68
   5   3   1  581.98   16.97
   5  -3   1  580.05   16.76
   5  -3   1  595.18   18.82
  -5  -3  -1  561.96   17.86
   5  -3   1  575.23   17.44
  -5  -3  -2    9.85    2.11
   5  -3   2    6.91    1.73
   5  -3   2    6.79    1.63
  -5  -3  -2    8.04    2.09
   5   3   2    8.74    1.99
   5  -3   2    8.57    1.87
   5  -3   2    7.36    2.00
   5   3   2   10.10    2.21
   5  -3   3    2.06    1.15
  -5  -3  -3    1.85    1.25
  -5  -3  -3   -0.44    0.80
   5   3   3    1.00    1.02
   5  -3   3    0.50    0.78
   5  -3   3    1.25    0.98
   5   3   3   -0.62    0.80
   5   3   3    0.58    0.91
   5   3   4    0.68    0.88
   5   3   4    1.17    0.92
   5  -3   4   -0.59    0.75
  -5  -3  -4   -0.68    0.87
   5  -3   4   -0.69    0.88
   5   3   4    0.64    0.82
  -5  -3  -4    0.43    0.56
   5  -3   4   -1.12    1.02
   5   3   5  306.36   14.35
   5  -3   5  297.03   14.19
   5  -3   5  290.04   14.58
   5   3   5  306.49   14.86
  -5  -3  -5  302.05   14.76
   5  -3   5  297.26   13.76
   5  -3   5  314.51   15.62
   5   3   5  303.90   15.34
  -5  -3  -5  285.28   11.43
   5   3   6    1.18    0.92
   5   3   6    1.50    1.52
  -5   3  -6    0.87    1.11
  -5  -3  -6    1.75    1.59
   5  -3   6    1.73    1.36
  -5  -3  -6    0.80    1.25
   5   3   6   -0.86    1.56
   5  -3   6   -0.79    1.43
   5   3   6    1.57    1.42
  -5  -3  -6    0.41    0.65
   5   3   7   12.04    2.66
   5  -3   7   11.08    3.25
  -5   3  -7    9.59    3.14
  -5  -3  -7   10.63    3.04
   5  -3   7   14.92    3.23
   5   3   7    6.45    2.52
   5   3   7    9.08    2.71
   5  -3   7   11.59    3.10
   5  -3   8   46.40    5.92
   5  -3   8   43.56    6.47
  -5   3  -8   53.94    7.42
  -5  -3  -8   48.03    6.97
   5   3   8   52.32    6.99
   5   3   8   53.90    7.29
  -5  -3  -9  102.03   10.79
   5  -3   9  128.43   10.43
   5   3   9  135.72   11.62
  -5   3  -9  119.85   11.41
   5  -3  10   40.68    6.29
  -5   3 -10   44.51    7.51
  -5  -3 -10   34.57    6.60
   5   3  10   33.65    6.08
   5  -3  11   17.76    4.62
  -5   3 -11   16.53    4.68
  -5  -3 -11   11.11    4.19
   5   3  11    9.94    3.75
   5  -3  12    1.20    2.18
  -5   4  13  150.23   12.25
   5   4 -12   -2.55    3.27
  -5   4  12    0.98    1.53
  -5   4  11  130.71   10.45
   5   4 -11  119.36   11.53
   5  -4 -11  115.41   11.22
   5   4 -10   -0.99    1.56
   5  -4 -10   -1.01    1.58
  -5   4  10   -0.81    1.04
  -5   4   9  259.94   13.43
   5   4  -9  232.76   14.00
   5  -4  -9  247.22   14.52
  -5   4   8   21.95    3.48
   5   4  -8   18.91    3.87
   5  -4  -8   19.96    4.11
   5  -4  -8   19.27    2.97
  -5   4   8   24.86    3.85
  -5   4   7    0.55    0.86
   5  -4  -7   -0.52    0.82
  -5   4   7   -0.56    0.88
  -5   4   6   27.01    3.68
   5  -4  -6   17.48    3.94
  -5   4   6   22.51    3.25
  -5  -4   6   19.92    3.09
   5  -4  -6   27.63    3.89
  -5  -4   5  313.59   12.50
  -5   4   5  313.89   12.33
   5  -4  -5  325.64   16.77
  -5   4   5  346.12   13.50
   5  -4  -5  310.49   13.77
  -5   4   4    6.11    1.79
   5  -4  -4    7.36    2.46
  -5  -4   4    3.53    1.33
  -5   4   4    6.31    1.67
  -5   4   4    7.78    1.40
   5  -4  -3  104.51    8.73
  -5  -4   3  105.92    6.68
  -5  -4   3  117.53    7.80
  -5   4   3  119.69    7.55
  -5   4   3  101.02    4.44
  -5   4   3  102.46    7.35
   5   4  -3  109.10    4.72
   5  -4  -2   67.06    6.68
  -5  -4   2   69.44    5.44
  -5  -4   2   71.88    6.09
  -5   4   2   64.46    5.81
   5  -4  -2   70.12    5.66
  -5   4   2   77.95    6.18
   5   4  -2   65.11    3.69
   5  -4  -1  510.44   19.28
  -5  -4   1  480.56   16.30
  -5  -4   1  496.28   17.73
   5  -4  -1  495.15   17.04
  -5   4   1  545.16   18.34
   5  -4  -1  512.61   11.58
   5  -4   0   43.72    5.03
   5  -4   0   55.48    3.91
   5   4   0   47.17    3.74
  -5  -4   0   44.60    4.55
  -5  -4   0   39.29    4.58
   5  -4   0   46.77    4.74
   5  -4   0   46.60    4.41
   5  -4   0   47.32    2.74
   5   4   1   66.96    4.64
   5  -4   1   71.52    4.74
   5  -4   1   58.86    5.41
   5  -4   1   75.09    3.64
   5  -4   1   74.34    5.67
   5   4   1   57.84    2.37
   5  -4   1   62.12    5.68
   5   4   1   67.55    6.01
  -5  -4  -2    3.44    1.41
   5  -4   2    1.99    1.11
   5   4   2    1.23    0.98
   5  -4   2    1.58    1.02
   5   4   2    1.25    0.98
   5  -4   2    0.62    0.97
   5  -4   2    2.81    1.35
   5   4   3  143.73    8.15
   5  -4   3  132.73    7.80
   5  -4   3  147.67    9.24
   5   4   3  158.54    9.53
   5   4   3  146.76    9.59
   5  -4   3  150.82    8.84
  -5  -4  -3  154.50    8.39
  -5  -4  -4   14.96    2.63
   5  -4   4   18.67    3.23
   5   4   4   20.83    3.24
   5  -4   4   15.93    3.05
   5   4   4   24.39    4.08
   5   4   4   10.72    2.84
   5  -4   4   13.97    3.03
   5   4   4   17.15    3.34
   5  -4   4   18.68    3.58
   5   4   5    2.27    1.37
   5  -4   5    3.10    1.99
   5   4   5    2.55    1.29
   5  -4   5    2.57    1.54
   5   4   5    0.71    1.29
   5   4   5    4.67    2.34
   5   4   5    3.08    1.85
   5  -4   5    2.15    1.45
  -5  -4  -5    2.27    1.31
   5   4   6   52.85    6.09
   5  -4   6   58.62    6.34
   5  -4   6   48.63    5.92
   5   4   6   57.06    6.31
   5  -4   6   50.86    6.26
   5   4   6   51.98    6.34
   5   4   6   56.29    6.24
   5   4   6   61.13    7.01
  -5  -4  -6   57.18    4.81
   5   4   7  193.19   11.63
  -5   4  -7  170.06   12.37
  -5  -4  -7  175.76   12.64
   5   4   7  184.58   12.01
   5  -4   7  189.78   12.03
   5   4   7  202.35   12.29
   5  -4   7  203.63   13.11
   5   4   7  192.99   12.78
  -5  -4  -7  192.14    8.93
   5   4   8   29.32    4.53
  -5   4  -8   20.83    4.55
  -5  -4  -8   22.10    4.70
   5  -4   9   27.25    4.89
  -5   4  -9   23.98    5.19
  -5  -4  -9   14.98    4.33
   5  -4  10   -1.01    0.91
  -5   4 -10   -1.24    2.98
  -5  -4 -10    1.25    3.21
  -5   4 -11   14.76    4.56
  -5  -4 -11   17.62    5.08
   5  -4  11   15.44    4.01
  -5   5  12    1.49    1.51
  -5   5  11   37.71    5.32
   5  -5 -11   45.21    7.17
   5   5 -11   57.72    7.94
   5   5 -10   19.34    4.54
  -5   5  10   21.84    3.90
   5  -5 -10   15.41    4.08
   5   5  -9    2.67    1.81
   5  -5  -9    8.08    2.82
  -5   5   9    6.18    2.33
   5  -5  -9    8.89    2.02
   5  -5  -8   13.32    3.34
   5   5  -8   14.62    3.43
  -5   5   8   13.36    3.04
  -5   5   8   18.55    3.19
  -5  -5   8   15.23    2.97
   5  -5  -8   12.33    2.68
  -5   5   7  491.57   17.10
  -5  -5   7  509.12   17.49
  -5   5   7  474.98   18.22
   5   5  -7  448.43   18.28
   5  -5  -7  465.92   18.81
   5  -5  -7  456.35   17.45
  -5   5   6    3.17    1.63
  -5  -5   6    2.52    1.29
  -5   5   6    1.91    1.06
  -5   5   6    3.20    1.44
   5  -5  -6    3.90    1.87
  -5  -5   5  119.15    7.31
  -5   5   5  125.89    6.76
  -5   5   5  114.70    7.08
  -5   5   5  121.50    8.42
  -5   5   4    1.23    1.25
   5  -5  -4    1.84    1.44
  -5  -5   4    2.73    1.17
  -5   5   4    3.88    1.41
  -5   5   4    3.35    1.21
  -5   5   4    2.64    1.58
  -5  -5   4    2.20    0.41
   5   5  -4    3.18    1.05
   5  -5  -3  335.94   17.10
  -5  -5   3  349.94   13.22
  -5   5   3  369.16   15.66
   5  -5  -3  354.96   11.27
   5   5  -3  348.81   11.23
  -5   5   3  374.34   15.36
   5  -5  -2   39.50    5.63
  -5  -5   2   44.67    4.37
   5  -5  -2   42.17    3.27
  -5   5   2   40.71    4.91
   5   5  -2   37.30    3.28
  -5   5   1   -0.67    0.61
   5   5  -1    0.66    0.60
   5  -5  -1    0.25    0.55
  -5  -5   1    0.48    0.61
   5  -5   0   15.45    2.72
   5  -5   0   13.29    2.52
   5   5   1  410.50   12.65
   5  -5   1  414.34   12.33
   5  -5   1  401.55   15.08
   5  -5   1  407.78   11.85
   5  -5   1  412.27   15.34
   5  -5   2   13.70    2.69
  -5   5  -2   24.18    4.31
   5   5   2   18.12    2.52
   5  -5   2   19.82    2.57
   5   5   2   15.63    3.24
   5   5   2   15.43    1.69
   5  -5   2   16.99    2.19
   5  -5   2   17.31    3.00
   5   5   3   46.80    4.35
   5  -5   3   44.84    4.21
   5   5   3   42.26    5.40
   5  -5   3   43.33    4.89
   5   5   3   42.70    4.88
   5   5   3   41.09    3.06
   5  -5   3   48.07    5.21
   5  -5   3   38.69    4.65
   5   5   3   43.29    5.04
  -5   5  -3   31.93    4.92
  -5  -5  -3   36.46    4.33
   5  -5   4    0.63    1.51
  -5  -5  -4    1.03    1.05
   5   5   4    0.51    0.92
   5  -5   4    1.00    0.79
   5   5   4    3.19    1.77
   5   5   4   -0.67    1.21
   5  -5   4    2.02    1.37
   5   5   4    2.49    1.26
   5   5   5  167.53    9.74
   5  -5   5  185.86   10.18
   5   5   5  188.55   12.21
   5  -5   5  161.41   10.18
   5   5   5  188.35   10.84
   5  -5   5  170.62   10.87
   5   5   5  174.62   10.89
  -5  -5  -5  171.24    9.16
   5   5   5  173.25   12.13
   5   5   6    2.74    1.66
   5   5   6    1.39    1.41
   5  -5   6    0.78    1.00
   5   5   6    2.70    1.62
   5  -5   6    0.68    1.38
   5   5   6    2.72    1.65
   5   5   6    3.88    1.99
   5  -5   6    3.51    1.80
  -5  -5  -6    0.95    0.75
   5   5   7  104.88    9.37
   5   5   7   73.83    7.75
   5  -5   7   84.56    7.99
   5   5   7  107.11    9.80
   5  -5   7   93.38    8.09
   5   5   7  101.28    8.42
  -5  -5  -7   83.17    5.94
   5   5   8   32.23    5.17
   5   5   8   32.19    5.69
  -5  -5  -8   38.98    3.85
   5   5   9    5.49    2.44
  -5   5  -9    1.11    2.01
  -5  -5  -9    1.12    2.27
  -5   5 -10   31.30    6.00
  -5  -5 -10   25.58    5.44
  -5   5 -11   19.49    5.28
  -5  -5 -11   15.75    4.62
   5  -5  11   23.98    5.05
   5   6 -11   22.75    5.07
   5   6 -10    5.12    2.63
  -5   6  10    8.89    2.84
  -5   6  10    1.91    1.83
  -5  -6  10    7.99    2.34
  -5   6  10    5.30    2.18
   5  -6 -10   10.35    3.25
   5   6  -9   46.24    6.44
  -5   6   9   49.75    6.15
  -5   6   9   58.17    5.75
  -5  -6   9   51.05    5.52
   5  -6  -9   61.22    7.24
  -5   6   9   47.04    5.62
   5  -6  -9   59.47    5.41
   5   6  -8    3.93    1.89
   5  -6  -8    3.18    1.77
  -5   6   8    5.41    2.22
  -5  -6   8    8.10    2.23
  -5   6   8    3.84    1.58
  -5   6   8    1.85    1.48
   5  -6  -8    5.58    1.95
   5   6  -7    3.97    1.80
   5  -6  -7    4.01    1.82
  -5  -6   7    8.10    2.14
  -5   6   7    4.59    1.61
  -5   6   7    4.94    1.73
   5  -6  -7    8.25    2.58
  -5   6   6    1.48    1.64
   5   6  -6    2.33    1.50
   5  -6  -6    1.20    0.94
  -5  -6   6    3.50    1.51
  -5   6   6    4.70    1.60
  -5  -6   6    1.18    0.77
  -5   6   6    3.35    1.30
  -5   6   5  179.89    8.40
  -5   6   5  155.43    8.27
  -5  -6   5  148.60    8.31
  -5  -6   5  144.99    4.93
  -5   6   5  182.44   11.05
  -5   6   4   23.23    4.02
  -5  -6   4   16.29    2.79
  -5   6   4   17.25    2.84
   5  -6  -4   17.92    2.74
   5   6  -4   17.28    2.56
   5   6  -3    8.00    1.78
  -5   6   3   12.46    2.98
  -5  -6   3    7.68    1.93
   5  -6  -3    6.53    1.64
  -5   6   2   -0.75    1.18
   5   6  -2    0.40    0.81
  -5  -6   2   -0.45    1.00
   5  -6  -2    0.35    0.64
   5  -6  -1  458.98   14.14
   5   6  -1  446.83   15.08
   5  -6   0   85.14    5.92
   5   6   0   71.89    5.38
   5   6   0   72.96    5.53
   5  -6   0   78.31    5.14
   5  -6   1    4.83    2.08
   5  -6   1    4.10    1.38
   5  -6   1    9.28    1.85
  -5   6  -1    5.10    2.18
   5   6   2  104.90    5.59
   5  -6   2  105.90    5.43
   5  -6   2  118.01    7.30
   5  -6   2  102.87    6.07
   5  -6   2   99.12    8.20
  -5   6  -2  102.52    9.03
   5  -6   2   84.32    6.44
   5   6   3  132.97   10.15
   5   6   3  141.87    7.13
   5  -6   3  136.00    6.79
   5  -6   3  145.14    7.52
   5  -6   3  133.48    8.22
   5   6   3  138.36    8.25
   5  -6   3  160.40   10.77
   5   6   3  135.41    6.22
  -5   6  -3  160.52   11.60
   5  -6   3  143.00    8.64
   5   6   4    5.29    1.70
   5  -6   4    5.97    1.69
   5   6   4    3.53    1.96
   5  -6   4   10.78    3.01
  -5  -6  -4    4.62    1.74
   5   6   4    3.82    1.23
   5  -6   4    6.08    2.07
   5  -6   4    5.94    2.09
   5   6   4    4.09    1.68
   5   6   4    4.88    1.78
   5   6   5    8.06    2.40
  -5  -6  -5    7.17    2.13
   5   6   5    9.70    3.39
   5   6   5    7.25    2.21
   5  -6   5    7.17    1.92
   5  -6   5    9.68    2.99
   5   6   5   10.21    3.04
   5   6   5    6.02    1.55
   5  -6   5    9.74    2.70
   5  -6   5   10.52    2.71
  -5  -6  -6    5.25    1.97
   5  -6   6    7.95    2.42
   5   6   6    1.81    2.32
   5   6   6    5.40    2.77
   5   6   6    4.17    1.71
   5  -6   6    3.57    1.95
   5   6   6    3.91    2.35
   5   6   7   82.06    9.03
   5   6   7   92.37    7.84
   5   6   7   89.16    9.29
   5   6   7   87.19    7.24
  -5  -6  -7   82.48    6.30
   5   6   8   58.04    7.73
   5   6   8   62.13    7.98
  -5   7   9    8.18    2.63
  -5   7   8   41.04    5.86
  -5   7   8   43.43    4.72
  -5   7   8   31.80    4.36
   5  -7  -8   43.08    5.48
   5   7  -8   47.77    5.93
  -5   7   7   71.12    5.78
  -5   7   7   61.49    5.82
   5   7  -7   75.58    6.96
  -5   7   7   86.27    8.45
  -5   7   6    0.85    1.34
   5   7  -6    0.56    1.24
  -5   7   6    1.36    1.17
  -5   7   6    0.50    0.79
  -5  -7   5  179.57    9.12
  -5   7   5  178.86    8.60
  -5   7   5  172.14   11.70
   5   7  -5  179.29    9.02
   5  -7  -5  153.68    8.62
   5   7  -5  175.45    8.98
  -5   7   4   26.26    4.57
   5  -7  -4   24.25    3.07
  -5  -7   4   27.29    3.43
   5   7  -4   28.30    3.18
   5   7  -4   25.60    3.55
  -5  -7   3  183.03    8.59
   5   7  -3  159.39    7.18
   5   7  -3  154.25    8.69
  -5   7   3  167.93   11.55
   5   7  -2    7.51    1.98
   5   7  -2    7.32    1.63
   5   7  -1   10.27    2.29
   5  -7  -1   12.80    2.36
   5  -7  -1   10.39    2.67
   5   7  -1    8.44    1.60
   5   7   0    2.70    1.39
   5   7   0    2.62    1.06
   5  -7   0    2.82    1.57
  -5   7   0    3.69    2.21
   5  -7   0    1.74    1.05
   5  -7   0    2.65    1.04
   5   7   0    5.13    1.29
   5   7   1  191.21    7.74
   5  -7   1  181.46   11.30
  -5   7  -1  191.85   13.01
   5  -7   1  187.66    8.03
   5   7   1  170.34    7.48
   5   7   1  161.65    9.77
   5  -7   2    1.83    0.94
   5  -7   2    1.56    1.58
   5   7   2    2.11    1.19
  -5   7  -2    0.99    1.56
   5  -7   2    1.77    1.27
   5   7   2    1.33    0.91
  -5   7  -3    1.02    1.31
   5   7   3    1.66    0.87
   5  -7   3    0.82    1.05
   5   7   4    0.40    0.82
   5   7   4   -1.25    1.96
   5   7   4   -0.34    0.75
  -5   7  -4   -1.06    1.36
   5  -7   4    0.87    1.11
   5   7   5  185.91   14.64
   5  -7   5  156.96   11.87
   5   7   6    2.48    1.95
   5  -7   6    0.97    1.52
   5   7   7   36.60    6.39
   5  -7   7   34.72    5.96
   5   7   8    6.04    2.69
  -5   8   5   27.06    4.98
  -5   8   4    5.81    2.64
  -5   8   3   48.07    6.70
   5   8  -3   42.96    4.99
   5   8  -2    2.41    1.45
   5   8  -1  353.88   14.92
   5   8   0   32.21    4.43
   5  -8   0   28.78    4.64
  -5   8   0   25.10    4.96
  -5   8  -1    4.33    2.41
   5   8   1    7.25    2.54
   5  -8   1    8.54    2.73
   5   8   2    6.87    2.33
   5  -8   2    3.25    1.65
  -5   8  -2    3.32    2.01
   5  -8   3  137.65   10.50
  -5   8  -3  116.52   11.13
   5   8   3  120.58    9.34
   5   8   4   19.61    5.25
   5  -8   4   16.07    3.98
  -5   8  -4   16.23    4.47
   5   8   5    5.61    3.12
   5  -8   5   14.99    3.71
   5   8   6   -1.39    2.18
   5   9  -1    3.55    1.93
   5   9   0   31.82    4.72
   5   9   1   20.15    3.79
   5   9   2   20.10    3.98
   5   9   3    0.80    1.63
  -6   0  13    1.19    2.16
   6   0 -12  132.83   12.29
  -6   0  12  167.81   13.25
   6   0 -11   -1.11    1.74
   6   0 -10  239.23   15.27
  -6   0   9   -0.54    0.84
  -6   0   8  111.02    7.53
  -6   0   8   88.45    4.18
  -6   0   7   -0.17    0.30
  -6   0   7   -0.55    0.87
  -6   0   6    0.72    0.49
  -6   0   6    3.18    1.20
  -6   0   6    1.66    1.12
  -6   0   5   -0.51    0.81
  -6   0   5   -0.32    0.58
  -6   0   5   -0.55    0.70
  -6   0   5   -0.14    0.33
  -6   0   4  895.94   24.27
  -6   0   4  836.11   20.72
  -6   0   4  836.70   17.58
  -6   0   4  872.85   24.93
   6   0  -4  866.47   24.07
   6   0  -3   -0.49    0.45
  -6   0   3    0.29    0.46
  -6   0   3    0.54    0.69
   6   0  -2  182.42    5.80
  -6   0   2  184.30    9.79
   6   0  -1    0.22    0.29
   6   0  -1   -0.38    0.69
   6   0  -1    0.25    0.45
  -6   0   1   -0.53    0.48
  -6   0   0  580.41   14.77
   6   0   0  559.32   17.16
   6   0   0  557.33   15.18
   6   0   0  554.10   15.30
   6   0   1   -0.46    1.03
  -6   0  -1   -0.29    0.46
   6   0   1    0.25    0.39
   6   0   1    0.36    0.46
   6   0   1    1.00    0.78
   6   0   2 1452.96   35.50
   6   0   2 1472.04   36.07
   6   0   2 1492.85   32.11
  -6   0  -2 1498.02   32.95
   6   0   3   -0.58    0.91
   6   0   3    0.50    0.64
   6   0   4  443.04   18.92
   6   0   4  458.50   18.15
   6   0   4  471.49   16.18
   6   0   4  444.71   15.93
   6   0   5    0.58    0.91
   6   0   5   -0.11    0.21
   6   0   5   -0.75    1.17
   6   0   5   -0.84    1.08
   6   0   5   -0.49    0.77
   6   0   6  156.87   10.03
  -6   0  -6  158.80   11.98
   6   0   6  164.01   11.36
   6   0   6  160.00   11.57
   6   0   6  154.44   11.88
   6   0   6  149.05    8.30
   6   0   7    0.76    1.38
   6   0   7    0.95    1.49
  -6   0  -7   -1.05    1.91
   6   0   7    1.06    1.36
   6   0   7    0.46    0.84
   6   0   8 1190.28   35.54
  -6   0  -8 1108.40   38.63
   6   0   8 1156.20   38.73
   6   0   8 1140.51   28.43
   6   0   9   -0.40    0.80
   6   0   9    0.96    1.23
  -6   0  -9   -1.25    1.60
   6   0   9    1.18    1.07
  -6   0 -10  135.42   13.13
   6   0  10  158.75   12.40
   6   0  11   -1.14    2.08
  -6   0 -11   -2.92    4.39
   6   0  12   23.35    5.36
  -6   1  13    1.15    1.47
   6   1 -12   13.17    4.07
   6  -1 -12    9.60    3.78
  -6   1  12   15.85    4.19
   6  -1 -11    1.11    1.74
  -6   1  11    2.89    1.95
   6  -1 -10   21.41    4.74
  -6  -1  10   23.96    2.29
  -6   1  10   37.02    5.43
  -6  -1  10   34.09    4.28
  -6   1   9   -0.76    0.97
  -6  -1   9    0.32    0.44
  -6  -1   9    0.58    0.91
  -6  -1   8   26.91    1.58
  -6   1   8   28.44    2.78
  -6   1   7    7.77    1.44
  -6   1   7   11.50    2.24
  -6  -1   7    7.33    2.11
  -6  -1   6 1193.76   30.57
  -6   1   6 1131.17   27.77
  -6  -1   6 1170.28   30.59
  -6   1   6 1091.48   24.62
   6  -1  -6 1144.89   29.22
   6  -1  -5    4.98    1.57
  -6   1   5    4.18    1.08
  -6   1   5    7.73    1.76
  -6  -1   5    6.60    1.34
  -6  -1   5    5.44    1.85
  -6  -1   4  394.52   14.69
  -6   1   4  411.29   13.33
  -6  -1   4  387.55   11.15
  -6   1   4  402.11   11.61
  -6  -1   4  387.51   15.10
   6  -1  -4  391.40   14.79
  -6  -1   3    1.06    0.83
  -6  -1   3    0.97    0.88
  -6  -1   3    0.22    0.35
  -6   1   3   -0.37    0.58
  -6   1   3    0.28    0.36
   6  -1  -3   -0.52    0.67
  -6  -1   2  208.52   10.16
  -6  -1   2  207.49    8.35
  -6   1   2  219.08    5.85
  -6   1   2  218.27    9.09
  -6   1   2  213.13    8.26
   6  -1  -2  215.98    7.41
  -6  -1   2  221.59   10.71
   6   1  -2  184.37    5.31
   6  -1  -1    5.32    1.23
  -6   1   1    5.54    0.72
   6  -1  -1    5.31    1.42
   6  -1  -1    5.61    1.41
   6   1  -1    5.24    0.90
  -6  -1   1    6.65    1.44
  -6  -1   1    5.72    1.77
   6   1  -1    4.72    0.97
   6  -1   0   58.58    4.70
   6  -1   0   61.72    4.53
   6   1   0   55.28    3.24
  -6   1   0   53.30    2.51
   6  -1   0   52.32    4.01
  -6  -1  -1   68.77    4.92
   6  -1   1   60.57    5.11
   6   1   1   64.38    4.53
  -6  -1  -1   66.39    6.14
   6  -1   1   60.86    3.09
   6  -1   1   58.97    4.75
   6  -1   1   62.07    4.78
  -6  -1  -1   64.88    5.60
   6   1   1   67.57    5.41
   6  -1   2  236.17   12.36
   6  -1   2  239.29   11.23
   6   1   2  263.20   10.32
   6  -1   2  245.01   10.71
  -6  -1  -2  261.32   11.76
   6  -1   2  260.49   12.13
   6   1   2  256.12   11.08
   6  -1   3   64.34    4.64
   6  -1   3   68.84    6.79
   6  -1   3   63.82    5.88
   6  -1   3   73.81    5.83
  -6  -1  -3   71.25    5.79
   6  -1   3   69.23    6.10
   6   1   3   68.02    5.41
   6  -1   4  167.33    5.26
   6  -1   4  174.37    8.74
   6  -1   4  146.02   10.41
   6  -1   4  181.77   10.67
  -6  -1  -4  168.17    9.50
   6  -1   4  164.62    9.50
   6  -1   4  175.85    9.82
   6   1   4  164.96    8.54
   6   1   5   -0.44    0.40
  -6  -1  -5    0.61    0.96
   6  -1   5    1.08    0.98
   6  -1   5    0.74    1.17
   6   1   5   -0.65    0.83
   6  -1   5    0.84    1.53
   6  -1   5   -0.58    0.52
   6   1   6  887.18   20.22
  -6  -1  -6  916.04   31.65
   6  -1   6  898.74   26.78
   6  -1   6  874.38   29.17
   6  -1   6  881.10   30.05
   6  -1   6  877.24   31.34
   6  -1   6  885.45   25.75
   6   1   6  868.71   23.23
   6   1   6  885.73   27.92
   6   1   7   52.03    6.13
   6  -1   7   40.68    6.12
  -6  -1  -7   45.21    6.79
   6  -1   7   40.48    5.32
   6  -1   7   41.23    6.34
   6  -1   7   52.17    5.28
   6   1   7   52.76    4.39
   6   1   8    2.68    1.81
  -6  -1  -8    6.88    2.94
   6  -1   8    9.17    2.83
   6  -1   8    6.72    3.05
   6  -1   8    5.97    1.84
   6   1   9   35.53    5.75
  -6  -1  -9   21.18    5.08
   6  -1   9   20.52    4.25
   6  -1   9   37.58    6.58
   6  -1   9   24.61    3.48
   6   1  10  124.05   11.07
  -6  -1 -10  125.76   12.48
   6  -1  10  108.28   10.35
   6  -1  10  109.33    7.05
   6   1  11    2.34    2.37
   6  -1  11    1.13    1.77
  -6  -1 -11   -1.46    1.32
   6  -1  12   29.19    5.96
  -6   2  13   -1.08    1.70
  -6   2  12  181.31   13.10
   6   2 -12  163.11   13.65
   6  -2 -12  161.47   13.85
  -6   2  11   28.15    4.97
   6   2 -11   34.08    6.09
   6  -2 -11   30.94    5.61
  -6   2  10  123.59    9.78
   6   2 -10  101.12    9.96
   6  -2 -10  123.08   10.87
  -6  -2  10  124.05    8.69
  -6   2   9   41.36    5.27
  -6  -2   9   45.51    5.15
  -6   2   9   35.29    3.75
  -6   2   8   76.18    6.76
  -6   2   8   77.45    5.25
  -6  -2   8   74.02    6.56
   6  -2  -7   18.97    3.00
  -6   2   7   15.66    2.35
  -6   2   7   12.77    2.70
  -6   2   7   17.06    2.85
  -6  -2   7   10.54    2.45
  -6   2   6    3.84    1.27
  -6   2   6    7.06    2.09
  -6  -2   6    0.55    0.71
  -6   2   6    2.60    1.11
  -6   2   6    3.34    1.37
  -6  -2   6    4.58    1.80
   6  -2  -6    5.67    1.75
  -6   2   5    7.86    1.64
  -6   2   5    6.66    1.48
  -6  -2   5    5.77    1.78
  -6   2   5    4.63    1.62
  -6   2   5    5.58    1.64
   6  -2  -5    4.85    1.70
  -6  -2   5    3.92    1.69
  -6  -2   4  778.88   22.38
  -6   2   4  773.40   22.31
  -6   2   4  757.56   17.65
  -6   2   4  765.43   21.37
  -6  -2   4  718.83   16.41
  -6   2   4  764.07   19.72
   6  -2  -4  742.26   22.86
  -6  -2   4  756.11   22.85
  -6   2   3  106.98    3.62
  -6  -2   3  108.82    6.58
  -6  -2   3  101.66    6.82
  -6   2   3  104.29    6.92
  -6  -2   3  103.17    3.91
  -6   2   3  112.22    6.84
  -6   2   3   97.22    5.87
   6  -2  -3  119.92    7.94
  -6  -2   3   88.88    6.76
  -6  -2   2  158.59    9.02
  -6  -2   2  150.50    8.60
  -6   2   2  159.76    8.76
   6  -2  -2  146.02    7.48
   6   2  -2  143.97    4.17
  -6   2   2  150.59    7.70
   6  -2  -2  139.23    8.86
   6  -2  -2  147.27    6.66
   6  -2  -1   30.08    3.25
   6   2  -1   35.43    3.56
  -6  -2   1   31.66    3.96
  -6   2   1   26.41    3.56
   6  -2  -1   30.48    3.41
  -6   2   1   31.15    3.53
   6  -2  -1   25.27    2.78
  -6  -2   1   23.05    3.43
   6   2   0  975.52   24.27
   6  -2   0  950.17   24.02
  -6  -2   0  898.81   26.55
  -6   2   0  882.39   26.39
   6  -2   0  959.06   24.76
   6   2   0  922.79   18.15
   6  -2   0  957.13   23.50
  -6   2   0  926.00   25.22
   6  -2   1    3.76    1.37
   6  -2   1    0.62    0.57
   6   2   1    1.81    1.08
   6  -2   1    3.11    1.28
  -6  -2  -1    1.94    1.17
  -6   2  -1    3.84    1.74
  -6  -2  -1    1.54    1.14
   6   2   1    1.25    0.98
   6   2   1    1.30    0.88
   6  -2   1    2.41    1.31
   6  -2   1    1.71    0.38
   6  -2   2  286.65    8.82
  -6  -2  -2  295.52   12.71
   6  -2   2  297.25   10.84
   6  -2   2  308.49   14.20
   6   2   2  303.70   14.19
   6   2   2  298.10   12.48
   6  -2   2  281.41   12.20
   6   2   2  304.85   12.34
   6  -2   2  311.81   12.43
   6  -2   2  332.49   14.42
  -6  -2  -2  306.37   12.80
   6  -2   3    0.28    0.44
   6   2   3    0.57    0.73
   6  -2   3    1.14    1.03
  -6  -2  -3    0.58    1.05
   6  -2   3   -0.32    0.57
   6  -2   3    2.13    1.29
   6   2   3   -0.72    1.13
   6   2   3    1.07    1.08
   6  -2   3    1.29    1.01
  -6  -2  -3    0.51    0.93
   6  -2   3    0.53    0.69
   6   2   4  208.61   11.32
   6  -2   4  196.89   12.10
   6  -2   4  204.82   11.31
   6   2   4  187.80   11.78
   6  -2   4  199.24    9.18
  -6  -2  -4  202.35   11.14
   6  -2   4  200.23   10.74
   6  -2   4  181.00   10.66
  -6  -2  -4  204.36   10.19
   6  -2   5   24.22    3.50
   6   2   5   31.26    4.69
   6  -2   5   36.60    5.00
   6   2   5   31.19    5.16
  -6  -2  -5   28.56    4.32
  -6  -2  -5   32.55    3.91
   6  -2   5   30.92    5.00
   6   2   5   29.30    4.83
   6  -2   5   26.96    4.12
   6  -2   5   29.58    4.20
   6   2   6    6.00    1.70
   6  -2   6    2.47    1.37
   6   2   6    2.44    1.81
   6  -2   6    3.27    1.96
   6  -2   6    2.66    2.13
  -6  -2  -6    3.77    1.94
   6  -2   6    2.96    2.19
   6   2   6    6.90    2.68
   6   2   6    7.98    2.90
   6  -2   6    6.62    2.17
   6  -2   6    3.49    1.79
   6   2   7    6.21    1.58
   6  -2   7   10.75    2.76
   6  -2   7    2.69    1.82
  -6   2  -7    4.18    2.68
  -6  -2  -7    9.45    3.16
   6   2   7    2.64    1.78
   6   2   7    6.27    3.00
   6  -2   7    0.94    1.70
   6   2   7    5.63    2.25
   6  -2   7    5.23    2.51
   6  -2   7    0.66    1.20
  -6   2  -8  308.78   18.34
  -6  -2  -8  313.64   18.56
   6  -2   8  308.09   18.04
   6  -2   8  290.00   15.31
   6   2   8  293.76   17.59
   6  -2   8  306.92   14.15
   6   2   8  295.59   16.60
   6  -2   9    6.38    2.48
   6   2   9   10.39    3.27
   6  -2   9    2.33    2.11
  -6   2  -9    1.24    1.59
  -6  -2  -9    6.22    2.99
   6   2   9    8.12    3.33
   6  -2   9    8.40    2.42
   6  -2  10   27.89    3.95
  -6   2 -10   14.75    4.57
  -6  -2 -10   21.53    5.34
   6   2  10   34.79    6.13
   6  -2  10   32.16    5.49
  -6   2 -11   -2.88    4.72
  -6  -2 -11   -1.45    3.48
   6  -2  11    1.10    1.99
   6   2  11   -1.21    1.90
   6  -2  12    3.56    2.15
  -6   3  13    5.20    2.67
  -6   3  12    1.66    1.42
  -6   3  12    0.96    1.75
   6   3 -11   34.74    6.25
   6  -3 -11   26.27    5.37
  -6   3  11   22.49    3.46
  -6   3  11   28.07    4.99
  -6   3  10   81.10    7.82
   6   3 -10   77.63    8.60
   6  -3 -10   78.25    8.76
  -6   3  10   85.52    6.49
  -6   3   9    0.50    1.10
  -6   3   9   -0.69    0.89
  -6  -3   8   -0.64    0.82
   6  -3  -8   -0.48    0.76
  -6   3   8    0.48    0.75
  -6   3   8    0.60    0.77
  -6  -3   7   13.64    2.93
  -6   3   7   14.33    2.56
  -6   3   7   14.53    2.62
  -6   3   7   18.06    3.14
  -6  -3   7   16.13    3.03
   6  -3  -7   11.69    2.47
  -6   3   6  802.79   21.65
  -6   3   6  811.24   24.00
  -6  -3   6  813.43   24.06
  -6   3   6  819.08   24.07
  -6   3   6  817.47   22.31
   6  -3  -6  786.19   23.84
  -6  -3   6  774.09   24.43
  -6  -3   5   -0.59    1.08
  -6   3   5   -0.30    0.67
  -6   3   5    0.44    0.57
  -6  -3   5    2.14    1.38
  -6   3   5    1.04    0.82
  -6   3   5    0.54    0.85
   6  -3  -5    0.60    0.95
  -6  -3   4  225.22   10.59
  -6   3   4  207.42   10.07
  -6   3   4  217.63   10.55
  -6  -3   4  180.81    5.07
  -6   3   4  228.66    9.95
   6  -3  -4  206.52   11.15
  -6  -3   4  215.41   11.05
  -6  -3   3  133.82    8.11
  -6   3   3  149.42    8.42
  -6  -3   3  127.82    7.99
  -6   3   3  144.54    8.52
  -6   3   3  156.57    8.26
   6  -3  -3  146.31    9.44
  -6  -3   3  138.94    8.72
  -6  -3   2  205.15   10.28
  -6   3   2  214.15   10.37
  -6  -3   2  214.45   10.18
   6  -3  -2  202.60    9.60
  -6   3   2  203.87    9.86
   6   3  -2  175.57    5.41
  -6  -3   2  207.72   10.61
   6  -3  -2  185.79   10.83
   6  -3  -1   88.22    7.10
   6  -3  -1   85.97    5.47
   6   3  -1   79.82    5.37
  -6  -3   1   84.31    6.63
  -6   3   1   70.27    5.97
  -6  -3   1   80.27    6.11
   6  -3  -1   79.15    5.94
  -6   3   1   87.01    6.52
   6  -3  -1   81.90    5.46
  -6  -3   0   28.67    3.84
   6  -3   0   27.69    3.80
   6   3   0   37.98    3.72
   6  -3   0   33.51    3.48
  -6  -3   0   35.62    4.52
  -6   3   0   28.46    3.96
   6  -3   0   36.71    4.18
  -6   3   0   38.60    4.50
   6  -3   0   30.35    3.48
   6  -3   1   94.60    6.64
   6  -3   1   89.67    7.15
   6   3   1   83.29    6.99
   6   3   1   99.88    7.02
   6   3   1  106.55    6.61
   6  -3   1  108.94    6.56
   6  -3   1  101.41    7.26
  -6   3  -1   84.37    6.92
   6  -3   1  106.79    6.82
  -6  -3  -1   89.63    6.73
   6  -3   2  400.73   13.89
   6  -3   2  374.38   16.09
   6   3   2  376.85   16.16
   6   3   2  411.89   14.97
   6  -3   2  387.35   14.37
   6   3   2  409.18   15.74
   6  -3   2  374.98   10.37
   6  -3   2  389.17   15.77
   6  -3   2  402.11   14.81
  -6  -3  -2  388.50   15.01
  -6  -3  -2  410.86   16.23
   6  -3   3    6.66    2.02
  -6  -3  -3   10.55    2.68
   6   3   3    7.22    2.09
   6  -3   3   12.65    2.65
   6  -3   3   10.64    1.85
   6  -3   3   11.37    2.74
   6   3   3   14.34    3.12
   6   3   3   11.70    2.63
  -6  -3  -3   10.97    2.38
   6   3   4    1.85    1.37
   6  -3   4    1.86    1.49
  -6  -3  -4    0.71    1.30
   6  -3   4    3.08    1.71
   6   3   4    4.64    2.22
   6   3   4    1.35    1.22
  -6  -3  -4    4.16    1.56
   6  -3   4    2.09    0.93
   6  -3   4    0.60    1.23
   6  -3   5   18.68    3.06
   6   3   5    9.90    2.66
   6  -3   5   11.35    2.89
   6  -3   5   18.17    3.75
   6  -3   5   17.24    3.78
   6   3   5   10.00    2.98
   6   3   5   14.05    3.44
   6   3   5   10.27    2.75
  -6  -3  -5   10.24    2.29
   6  -3   5   19.03    3.63
  -6  -3  -5   14.52    3.33
   6   3   6  320.08   13.76
   6   3   6  327.13   15.86
   6  -3   6  290.30   15.12
   6  -3   6  296.49   15.83
   6   3   6  323.20   16.55
  -6  -3  -6  303.98   15.82
   6  -3   6  277.27   13.17
   6  -3   6  288.78   16.41
   6   3   6  304.00   16.86
  -6  -3  -6  310.28   12.63
   6   3   7   90.75    6.97
   6  -3   7   89.82    7.76
   6   3   7   72.69    8.43
   6  -3   7   71.85    8.34
  -6   3  -8   -1.13    2.05
  -6  -3  -8   -1.14    1.79
   6  -3   8    0.82    1.05
   6  -3   8   -1.08    2.77
   6   3   8   -1.08    3.24
   6  -3   9   32.96    5.35
  -6   3  -9   25.76    5.59
  -6  -3  -9   32.11    6.16
   6  -3   9   41.24    6.68
   6   3   9   26.32    5.52
   6  -3  10   35.33    5.82
  -6   3 -10   33.15    6.39
  -6  -3 -10   28.04    5.96
   6  -3  10   33.46    4.84
   6  -3  11   10.95    3.45
  -6   3 -11    9.98    3.89
  -6  -3 -11   14.34    4.87
  -6   4  13   10.85    3.59
  -6   4  12   20.62    3.85
  -6   4  12   26.55    4.93
   6   4 -11    1.12    1.44
   6  -4 -11    2.25    2.04
  -6   4  11    4.42    1.98
  -6   4  11    1.67    1.70
   6   4 -10  119.06   10.61
   6  -4 -10  135.41   11.28
  -6   4  10  105.09    8.01
  -6   4  10  115.92    9.12
   6  -4  -9   15.90    2.73
  -6   4   9   20.27    3.39
   6   4  -9   15.50    3.98
   6  -4  -9   19.35    4.27
  -6   4   9   13.36    2.92
  -6   4   8    0.58    1.05
  -6   4   8    0.62    0.98
  -6  -4   8   -0.65    1.55
   6  -4  -8    0.54    0.85
  -6   4   8    0.58    1.06
  -6   4   7    3.36    1.52
  -6   4   7    2.94    1.85
  -6  -4   7    1.82    1.56
  -6   4   7    5.53    1.71
   6  -4  -7    4.17    1.71
  -6  -4   6  141.12    8.75
  -6   4   6  139.27    8.62
  -6   4   6  147.21    8.69
   6  -4  -6  145.69    9.42
   6  -4  -5   77.43    8.06
  -6  -4   5   71.31    5.98
  -6   4   5   81.70    6.32
  -6   4   5   64.52    4.16
  -6   4   5   67.83    6.27
  -6   4   5   69.46    5.92
   6  -4  -5   56.05    6.00
  -6  -4   5   69.94    6.52
   6  -4  -4  448.38   19.95
  -6  -4   4  463.04   17.54
  -6  -4   4  446.95   16.21
  -6   4   4  455.15   16.19
  -6   4   4  434.11   11.16
  -6   4   4  445.67   16.43
   6  -4  -4  472.58   18.57
  -6  -4   4  484.07   18.13
  -6   4   3    8.45    2.18
  -6  -4   3   10.57    2.53
   6  -4  -3    7.26    2.32
  -6  -4   3    8.64    2.20
  -6   4   3    9.91    2.32
  -6  -4   3    9.65    2.39
   6   4  -3    9.99    1.23
  -6   4   2   27.80    4.02
  -6  -4   2   31.00    4.24
   6  -4  -2   37.80    5.25
  -6  -4   2   29.28    3.89
  -6   4   2   30.92    3.94
   6  -4  -2   37.00    4.27
  -6  -4   2   33.96    4.46
   6   4  -2   32.55    2.46
   6  -4  -1   38.22    5.05
  -6  -4   1   38.48    4.46
  -6   4   1   40.39    4.51
  -6  -4   1   28.96    4.18
   6  -4  -1   35.86    4.28
   6  -4  -1   42.74    4.22
  -6   4   1   26.69    3.95
   6  -4   0 1678.78   41.65
   6  -4   0 1702.63   36.33
   6   4   0 1692.00   36.71
  -6  -4   0 1592.45   40.45
  -6   4   0 1660.76   40.58
   6  -4   0 1665.76   40.42
  -6   4   0 1641.94   41.74
   6  -4   0 1668.36   38.46
  -6  -4   0 1626.00   40.39
   6  -4   1   93.65    7.20
   6   4   1   99.18    6.20
   6  -4   1   97.02    7.40
   6  -4   1  106.31    6.28
   6   4   1   92.57    7.43
   6  -4   1   86.32    7.07
   6  -4   1   95.20    3.54
  -6   4  -1  102.49    8.15
   6  -4   1   88.36    6.47
  -6  -4  -1  116.73    7.85
  -6  -4  -2   12.89    2.65
   6  -4   2    6.41    1.76
   6   4   2   10.20    2.19
   6  -4   2    9.87    2.16
   6   4   2   11.77    2.73
   6  -4   2    7.34    2.27
   6  -4   2   13.06    2.91
   6   4   2   15.84    3.12
  -6  -4  -2    8.56    2.43
  -6  -4  -3   68.10    7.00
   6   4   3   71.65    6.10
   6  -4   3   71.25    5.85
   6  -4   3   68.33    6.76
   6   4   3   74.40    6.95
   6   4   3   77.00    6.98
   6  -4   3   74.23    6.99
   6  -4   3   76.08    6.44
  -6  -4  -3   73.30    6.15
  -6  -4  -4  195.00   12.32
   6   4   4  203.96   10.79
   6  -4   4  199.80   10.67
   6  -4   4  204.21   12.19
   6   4   4  198.32   11.98
   6   4   4  191.64   11.70
   6   4   4  184.67   12.03
   6  -4   4  184.41   10.58
  -6  -4  -4  193.57   10.12
   6   4   5   63.25    6.43
   6  -4   5   58.85    6.13
   6  -4   5   61.08    6.85
   6   4   5   61.78    6.92
   6   4   5   72.56    7.36
   6   4   5   79.34    8.07
   6  -4   5   55.57    6.74
  -6  -4  -5   65.84    5.74
   6   4   6   63.18    6.66
   6  -4   6   55.57    6.32
   6  -4   6   54.49    6.58
   6   4   6   58.57    6.91
   6   4   6   55.89    6.74
   6   4   6   48.25    6.00
   6  -4   6   48.04    5.33
   6  -4   6   56.25    6.92
   6   4   6   57.84    7.04
  -6  -4  -6   58.19    5.33
   6   4   7   -0.74    0.95
  -6  -4  -7   -0.49    0.99
   6  -4   7   -0.71    1.12
   6  -4   7   -0.99    1.27
   6   4   7   -0.99    0.89
   6   4   7   -0.94    1.20
   6   4   8   22.88    4.02
   6  -4   8   26.89    4.58
   6  -4   8   25.09    4.95
   6   4   8   28.17    5.29
   6  -4   9    3.65    2.03
   6  -4  10   -1.00    1.58
  -6   4 -10    1.30    1.67
  -6  -4 -10    2.62    2.06
  -6  -4 -11   -1.41    4.03
   6  -4  11   -1.09    1.40
   6   5 -11   17.07    4.74
   6  -5 -11   11.46    4.03
  -6   5  11    7.99    2.64
  -6   5  11   13.52    3.41
  -6  -5  11   13.22    3.24
   6   5 -10   16.07    4.09
   6  -5 -10   19.16    4.49
  -6   5  10   22.76    3.99
  -6   5  10   12.72    3.15
  -6  -5  10   13.17    3.20
   6   5  -9    0.89    1.40
   6  -5  -9    0.90    1.16
  -6   5   9    0.70    1.10
  -6   5   9    0.66    1.04
  -6  -5   9    0.69    0.89
   6  -5  -9    1.05    1.26
  -6   5   8    8.81    2.61
   6   5  -8   13.02    3.39
   6  -5  -8    5.78    2.38
  -6   5   8    8.10    2.53
  -6  -5   8   10.38    2.77
   6  -5  -8   15.77    3.07
  -6   5   7    2.66    1.59
  -6  -5   7    3.06    1.57
  -6   5   7    1.76    1.07
  -6   5   7    4.60    1.56
   6  -5  -7    1.35    1.37
  -6  -5   6  292.70   13.14
  -6   5   6  305.11   13.21
  -6   5   6  300.68   11.22
  -6   5   6  327.53   14.58
   6  -5  -6  317.87   15.15
  -6   5   5   -0.65    1.18
  -6  -5   5    0.56    1.24
  -6   5   5    0.53    0.97
  -6   5   5    0.58    0.59
   6  -5  -5    1.51    1.68
  -6  -5   4  365.06   14.58
  -6   5   4  366.46   14.37
   6   5  -4  355.94   10.07
  -6   5   4  374.25   15.84
   6  -5  -3  104.14    9.45
  -6  -5   3  111.47    7.55
  -6   5   3  106.42    7.28
  -6  -5   3  105.54    8.41
   6   5  -3  120.68    5.50
  -6   5   3  114.70    8.45
   6  -5  -2  195.70   12.65
  -6  -5   2  193.67   10.22
  -6   5   2  201.75   10.28
  -6  -5   2  204.11   11.74
  -6   5   2  203.77   11.65
   6   5  -2  199.92    7.75
   6  -5  -1   27.35    4.52
  -6  -5   1   24.68    3.68
  -6   5   1   20.32    3.38
   6  -5  -1   24.86    1.58
   6  -5  -1   23.80    3.78
   6   5  -1   20.07    2.50
  -6  -5   1   25.31    4.10
  -6   5   1   22.45    4.07
  -6  -5   0   32.70    4.57
   6  -5   0   24.00    1.88
   6  -5   0   29.07    3.83
   6  -5   0   25.19    3.70
   6   5   0   25.02    3.68
   6  -5   0   31.02    4.41
  -6   5   0   22.23    4.02
   6   5   1   41.26    3.86
   6  -5   1   46.49    3.94
   6  -5   1   34.62    4.74
   6  -5   1   31.80    4.27
   6   5   1   35.76    4.58
   6  -5   1   41.21    4.60
  -6  -5  -1   41.13    4.81
   6  -5   2  608.85   20.04
   6   5   2  614.82   22.11
   6   5   2  597.43   17.62
   6  -5   2  594.49   17.31
   6  -5   2  551.21   20.04
   6   5   2  592.28   20.75
   6  -5   2  585.59   14.61
   6   5   2  526.28   12.31
   6  -5   2  590.80   21.54
  -6  -5  -2  555.68   19.74
  -6  -5  -2  573.14   22.35
  -6  -5  -3    6.52    2.16
   6   5   3    5.80    1.81
   6  -5   3    7.95    1.90
   6   5   3    9.44    2.67
   6  -5   3    9.33    2.82
   6   5   3    6.34    1.14
   6  -5   3    4.81    2.16
   6   5   3    8.91    2.57
   6   5   4    2.20    1.32
   6  -5   4    1.08    1.55
   6  -5   4    2.48    1.50
   6   5   4    3.34    2.00
   6  -5   4    2.36    1.75
   6  -5   4    5.07    1.97
   6   5   4    1.44    1.13
   6   5   4   -0.78    1.59
  -6  -5  -4    2.33    1.40
   6   5   5    4.99    1.96
   6  -5   5   11.13    2.70
   6   5   5   10.79    3.11
   6   5   5   12.37    3.41
   6  -5   5    9.19    2.84
   6  -5   5    6.14    2.31
   6   5   5    8.39    2.59
  -6  -5  -5    9.04    2.30
   6   5   6  259.80   15.09
   6   5   6  211.17   12.16
   6  -5   6  219.00   12.33
   6   5   6  265.19   15.21
   6  -5   6  228.87   13.39
   6   5   6  232.22   13.51
   6  -5   6  232.36   14.13
   6   5   6  235.88   14.12
  -6  -5  -6  242.41   11.51
   6   5   7   79.96    8.18
   6   5   7   76.99    8.56
   6  -5   7   71.98    7.97
   6   5   7   75.53    8.17
  -6  -5  -7   76.97    6.14
   6  -5   8    2.44    1.47
   6   5   8    1.76    1.38
   6   5   8   -1.07    1.37
   6  -5   9   13.56    3.49
   6   5   9   14.72    4.12
   6  -5  10   67.71    8.01
   6  -5  11    6.47    2.77
  -6   6  11    2.93    1.76
   6   6 -11    1.13    2.06
  -6  -6  10  105.18    8.63
  -6   6  10   99.88    8.24
   6   6 -10   92.66    9.72
   6  -6 -10  116.26   10.58
  -6   6  10  104.08    8.93
   6   6  -9    8.11    3.06
   6  -6  -9    4.53    2.73
  -6   6   9    7.94    2.70
  -6  -6   9    8.91    2.57
  -6   6   9   14.35    3.08
  -6   6   9   13.29    2.85
   6  -6  -9   13.98    2.85
   6   6  -8    0.77    1.41
  -6   6   8    1.57    1.23
   6  -6  -8    0.79    1.02
  -6  -6   8   -0.65    1.31
  -6   6   8    4.30    1.85
  -6   6   8    3.73    1.60
   6  -6  -8    2.72    1.51
  -6   6   7    3.09    1.72
   6   6  -7    2.83    1.44
   6  -6  -7    0.72    1.47
  -6  -6   7    2.43    1.46
  -6   6   7    1.72    1.38
  -6  -6   7    0.70    0.58
  -6   6   7    1.37    1.01
   6  -6  -7    0.76    1.39
  -6   6   6   41.28    5.46
  -6  -6   6   39.72    4.76
  -6   6   6   39.89    4.65
  -6   6   6   36.57    3.70
   6  -6  -6   34.55    5.20
  -6   6   5   22.16    4.00
  -6  -6   5   21.23    3.44
  -6   6   5   29.11    3.84
  -6  -6   4  143.97    8.80
  -6   6   4  162.23    9.12
   6   6  -4  145.65    6.88
  -6   6   4  161.13   10.71
  -6   6   3    2.36    1.43
  -6  -6   3    6.02    1.93
  -6   6   3    5.17    1.63
   6   6  -3    3.51    1.19
  -6  -6   2   63.90    5.73
  -6   6   2   59.69    5.45
   6  -6  -2   57.06    3.63
  -6   6   2   59.34    6.75
   6   6  -2   56.64    4.44
   6   6  -1    2.00    1.20
   6  -6  -1    2.13    1.60
   6   6  -1    3.75    1.54
   6  -6  -1    2.49    0.97
  -6   6   1    1.67    1.52
   6  -6   0  838.40   19.22
   6  -6   0  830.03   24.09
   6   6   0  835.73   24.21
   6   6   0  821.29   22.38
   6  -6   1    0.57    1.03
   6   6   1   -0.56    0.88
   6   6   2    6.99    1.64
   6  -6   2    9.87    1.89
   6  -6   2   13.48    1.99
   6  -6   2   12.58    2.78
   6   6   2    8.88    2.52
   6   6   2   11.94    2.68
   6   6   3   93.74    8.66
   6   6   3   83.90    5.83
   6  -6   3   78.55    5.47
   6  -6   3   83.79    5.30
   6  -6   3   82.39    6.95
   6   6   3   88.09    7.18
   6   6   3   68.98    4.00
  -6   6  -3   70.45    8.10
   6  -6   3   76.92    7.00
   6   6   3   75.22    6.83
   6  -6   4  145.89    7.45
   6   6   4  141.81    8.18
   6  -6   4  128.65    7.74
   6   6   4  138.53   10.84
   6  -6   4  138.76    9.41
   6   6   4  139.09    9.30
   6  -6   4  142.56    9.79
   6   6   4  120.12    9.00
  -6  -6  -4  137.01    9.15
   6   6   5  231.40   15.49
   6   6   5  235.55   11.54
   6  -6   5  223.00   11.12
   6   6   5  260.26   15.30
   6  -6   5  231.76   12.68
   6   6   5  230.27   12.51
  -6  -6  -5  230.60   11.93
   6  -6   5  246.33   13.41
   6   6   5  256.81   13.57
   6   6   6   27.19    5.43
   6  -6   6   28.22    4.82
   6   6   6   29.72    4.47
   6   6   6   30.30    5.44
   6   6   6   22.51    4.34
  -6  -6  -6   29.31    4.08
   6   6   6   24.09    4.19
   6   6   7    1.07    1.68
   6   6   7    2.13    1.93
   6   6   8   12.45    3.77
   6   6   8   12.34    3.95
  -6   7   8   -0.59    2.20
   6  -7  -8    0.75    1.68
   6   7  -7   17.50    3.41
  -6   7   7   11.46    3.40
  -6   7   7   12.96    2.90
   6  -7  -7   16.63    3.70
  -6   7   6  169.79    9.47
   6   7  -6  165.04    9.71
  -6   7   6  184.58   12.23
  -6   7   5   13.26    3.60
   6   7  -5   18.85    3.04
  -6   7   5   15.18    2.95
  -6  -7   4   66.55    5.83
  -6   7   4   68.76    5.71
  -6  -7   3   14.64    2.86
   6   7  -3   11.58    2.37
  -6   7   2   63.23    7.33
   6   7  -2   61.37    5.17
   6  -7  -1   40.58    5.32
   6   7  -1   37.85    4.21
  -6   7   1   51.51    6.74
   6   7   0    3.11    1.49
   6  -7   0    5.26    2.26
   6   7   1   -0.55    1.11
   6  -7   1   -0.50    1.11
   6  -7   1    0.78    1.42
   6   7   2  265.55   11.33
   6  -7   2  244.78   14.02
  -6   7  -2  236.67   15.40
   6  -7   2  266.63   11.78
   6   7   2  245.82   11.35
   6   7   3    8.18    1.81
   6  -7   3   17.31    3.93
   6  -7   3   12.61    2.69
  -6   7  -3    9.73    3.26
   6   7   3   11.57    2.47
   6   7   3   11.80    2.54
   6   7   4   40.90    6.98
   6   7   4   36.92    5.82
   6  -7   4   28.34    4.94
   6   7   4   29.71    4.16
   6   7   5    1.26    1.62
   6   7   5    2.06    2.29
   6  -7   5    0.97    1.76
   6   7   6   26.27    5.92
   6   7   6   35.61    6.06
   6  -7   6   33.64    5.80
   6   7   7   14.66    4.58
   6   7   8    2.38    2.16
   6  -8  -7    0.90    1.63
  -6   8   4   14.26    3.93
  -6   8   3   -1.04    1.64
  -6   8   2   -1.05    1.65
   6   8  -1    4.59    1.65
   6  -8   0  146.43   10.63
   6   8   0  140.48    9.12
   6   8   1    1.91    1.42
   6  -8   1    6.59    2.59
  -6   8  -1    3.40    2.06
   6   8   2   13.32    2.97
   6  -8   2   12.84    3.30
  -6   8  -2   17.42    4.60
   6  -8   3    0.90    1.64
  -6   8  -3    1.19    1.86
   6   8   4   35.68    7.00
   6   9   1   21.49    3.92
   6   9   2  125.65    9.57
  -7   0  13   13.95    4.09
  -7   0  12    1.07    1.68
   7   0 -11   53.77    7.68
  -7   0  10    0.19    0.62
  -7   0   9   74.49    3.54
  -7   0   8    0.15    0.33
  -7   0   8   -0.69    0.89
  -7   0   8    1.25    1.14
  -7   0   8    0.45    0.81
  -7   0   7    3.93    1.78
  -7   0   7    2.89    1.12
  -7   0   7    1.89    1.28
  -7   0   7    3.22    0.69
  -7   0   6   -0.62    0.98
  -7   0   6    0.38    0.61
  -7   0   6    0.12    0.30
  -7   0   6   -0.63    0.57
  -7   0   5   -0.60    0.77
  -7   0   5   -0.37    0.82
  -7   0   5    0.63    0.81
   7   0  -4   -0.58    1.04
  -7   0   4   -0.58    0.53
  -7   0   4   -0.35    0.64
  -7   0   4   -0.63    0.81
  -7   0   3  217.59   11.14
  -7   0   3  203.77    7.73
  -7   0   3  208.06    8.66
  -7   0   3  199.65   11.03
   7   0  -3  212.00   10.90
   7   0  -2    0.19    0.38
  -7   0   2   -0.61    0.96
  -7   0   2   -0.25    0.32
  -7   0   2    0.62    0.97
  -7   0   1  362.03   14.98
   7   0  -1  311.63   12.53
  -7   0   1  312.39   14.25
   7   0  -1  334.10   10.63
   7   0  -1  337.53   10.37
   7   0  -1  344.32   14.39
  -7   0   0   -0.28    0.36
   7   0   0    0.47    1.12
  -7   0   0   -0.69    0.88
   7   0   0   -0.32    0.58
   7   0   0   -0.33    0.43
   7   0   0   -0.58    0.53
   7   0   1 2218.37   48.28
   7   0   1 2132.00   42.83
  -7   0  -1 2156.59   52.21
  -7   0  -1 2157.96   44.10
   7   0   1 2135.48   45.15
   7   0   1 2133.08   45.58
   7   0   1 2175.35   49.32
   7   0   2   -1.15    1.27
   7   0   2    0.74    0.95
   7   0   2   -0.33    0.67
  -7   0  -2   -0.38    0.69
   7   0   2   -0.47    0.85
   7   0   2   -0.58    0.75
   7   0   3    8.25    2.24
   7   0   3   10.39    2.99
   7   0   3   10.42    2.47
   7   0   4    0.69    0.63
   7   0   4   -0.86    1.56
   7   0   4   -0.58    0.90
   7   0   5   42.30    5.55
   7   0   5   47.93    6.52
   7   0   5   40.90    4.67
   7   0   5   42.73    4.97
   7   0   6   -0.86    1.36
   7   0   6   -0.98    0.89
   7   0   6   -1.10    1.41
   7   0   6   -0.68    0.87
   7   0   6   -0.55    1.01
   7   0   7   34.01    4.91
   7   0   7   50.02    7.19
   7   0   7   40.15    4.53
   7   0   8   -0.51    0.80
   7   0   8   -0.87    1.37
   7   0   8   -1.22    1.57
   7   0   9   18.72    2.87
   7   0   9   23.11    4.55
  -7   0  -9   18.50    4.96
   7   0   9   21.68    5.56
   7   0  10   -1.06    1.66
  -7   0 -10    1.42    1.82
   7   0  10   -1.33    1.21
   7   0  11   78.91    9.20
  -7   0 -11   75.94   10.40
  -7   1  13    1.11    1.42
  -7   1  12   -1.02    1.61
  -7   1  11   16.62    2.35
   7   1 -11   15.99    4.41
   7  -1 -11   20.60    4.77
  -7   1  11   29.90    5.17
  -7   1  10   17.30    2.28
  -7   1  10   21.75    4.17
  -7   1   9  151.45   10.15
  -7   1   9  132.13    6.25
  -7  -1   9  143.39    9.47
  -7   1   8    8.51    1.52
  -7   1   8    6.04    1.94
  -7  -1   8    4.59    1.98
  -7   1   7   14.62    1.93
  -7  -1   7   11.88    2.88
  -7   1   7   11.89    2.45
  -7  -1   7   10.36    1.98
  -7  -1   7    9.08    2.44
  -7   1   6    5.61    1.24
   7  -1  -6    7.44    2.08
  -7  -1   6    7.51    2.13
  -7   1   6    8.24    2.00
  -7  -1   6    6.77    1.47
  -7  -1   6    6.42    2.10
  -7  -1   5  113.12    7.91
  -7   1   5   95.88    6.34
  -7  -1   5  100.39    5.41
  -7   1   5  103.60    5.28
  -7  -1   5   94.78    7.56
   7  -1  -5   97.45    7.23
  -7  -1   4   65.62    6.00
  -7  -1   4   80.64    4.58
  -7   1   4   73.45    5.40
  -7   1   4   73.41    4.50
  -7  -1   4   66.82    6.35
   7  -1  -4   69.40    6.24
  -7  -1   3  722.63   22.96
  -7   1   3  711.48   16.02
  -7   1   3  763.72   20.74
  -7   1   3  753.88   19.02
  -7  -1   3  718.84   23.31
   7  -1  -3  722.97   23.04
   7   1  -2   10.08    1.16
   7  -1  -2   13.28    1.83
  -7  -1   2   11.73    2.69
   7  -1  -1   36.41    3.85
  -7   1   1   36.07    1.97
   7   1  -1   40.32    4.65
  -7  -1   1   33.61    4.51
   7  -1  -1   42.28    3.74
   7   1  -1   37.12    2.62
   7   1  -1   36.32    2.79
   7  -1  -1   39.21    3.33
  -7  -1   1   38.56    4.69
   7  -1   0    1.09    0.73
   7   1   0    1.12    1.02
   7  -1   0    0.46    1.03
  -7  -1   0    2.78    1.67
   7  -1   0    1.21    0.89
   7   1   0    1.86    0.70
   7   1   0    1.88    0.90
   7  -1   0    3.15    1.51
   7   1   1   23.25    3.42
   7  -1   1   20.83    1.81
   7  -1   1   18.81    3.05
  -7  -1  -1   21.85    3.94
   7   1   1   20.32    2.39
   7   1   1   18.66    2.53
   7  -1   1   24.39    3.19
  -7  -1  -1   21.56    3.64
   7  -1   1   22.36    3.73
   7  -1   1   17.00    2.64
   7  -1   2    1.01    0.69
   7   1   2    0.55    0.70
   7  -1   2    0.57    0.89
   7  -1   2   -0.74    1.50
   7   1   2   -0.42    0.54
  -7  -1  -2   -0.60    0.77
   7  -1   2   -0.49    0.89
   7  -1   2    0.64    1.17
   7  -1   3 1476.98   40.59
   7  -1   3 1447.17   37.94
  -7  -1  -3 1524.93   36.28
   7   1   3 1445.52   34.99
   7  -1   3 1496.01   36.60
   7  -1   3 1454.15   38.01
   7   1   3 1450.75   36.01
   7   1   4   13.74    2.67
  -7  -1  -4    7.07    2.14
   7  -1   4    4.83    1.89
   7  -1   4   10.29    2.91
   7  -1   4   11.26    2.24
   7  -1   4    8.52    2.21
   7  -1   4   11.05    2.64
   7   1   5   10.33    2.35
   7  -1   5    6.00    1.79
  -7  -1  -5    5.13    2.02
   7  -1   5    7.00    2.45
   7  -1   5    3.68    2.21
   7  -1   5    6.67    2.19
   7  -1   5    8.43    2.28
   7   1   6    2.99    1.36
   7   1   6    0.77    0.52
   7  -1   6   -0.64    1.01
   7  -1   6    1.72    1.35
   7   1   6    2.28    1.69
   7  -1   6    0.98    1.78
   7  -1   6   -1.10    2.43
   7  -1   6    1.45    1.32
   7  -1   6    1.93    1.30
   7  -1   7  261.67   13.64
   7  -1   7  265.33   16.98
   7  -1   7  241.45   12.29
   7   1   7  247.38   11.04
   7   1   7  268.74   14.66
   7  -1   8    0.84    1.08
   7  -1   8    2.43    2.47
   7   1   8    2.76    1.87
   7  -1   8    0.61    1.10
   7  -1   9   24.30    4.58
  -7  -1  -9   23.80    5.51
   7  -1   9   26.65    5.88
   7   1   9   22.04    4.56
   7  -1   9   18.92    3.35
   7  -1  10   13.38    3.62
  -7  -1 -10   12.77    4.28
   7  -1  10   10.59    3.81
   7   1  10   11.98    3.70
   7  -1  11   42.50    6.78
  -7  -1 -11   50.07    8.41
   7   1  11   43.46    7.03
  -7   2  13   74.48    8.59
  -7   2  12    5.72    2.60
   7   2 -11   39.84    6.64
   7  -2 -11   42.34    6.91
  -7   2  11   30.75    3.64
  -7   2  11   33.74    5.36
  -7   2  10    3.30    1.50
  -7   2  10    1.56    1.58
  -7  -2   9  227.88   12.63
  -7   2   9  197.79   11.56
  -7   2   9  207.25    9.14
  -7  -2   9  203.71   11.81
  -7  -2   8  216.12   12.00
  -7   2   8  219.63   11.31
  -7   2   8  206.70    9.00
  -7   2   8  212.15   11.88
  -7  -2   8  197.31   11.53
   7  -2  -7    2.28    1.37
  -7   2   7    0.37    0.67
  -7   2   7    2.63    1.46
  -7  -2   7    0.67    0.86
  -7   2   7    0.50    0.64
  -7   2   7    2.20    1.41
  -7  -2   7   -0.67    1.05
  -7  -2   6  244.93   12.23
  -7   2   6  230.07   11.82
  -7   2   6  216.21    9.49
  -7   2   6  236.09   11.09
  -7  -2   6  222.58    8.09
  -7   2   6  226.63    9.34
  -7  -2   6  212.38   11.73
   7  -2  -6  221.98   11.41
  -7   2   5    7.61    1.73
  -7   2   5    6.75    1.46
  -7  -2   5    5.50    2.00
  -7   2   5    4.21    1.97
  -7   2   5    7.69    2.03
  -7  -2   5    5.51    1.15
  -7  -2   5    5.79    2.03
   7  -2  -5    5.59    1.87
  -7  -2   4   11.34    2.55
  -7   2   4   15.31    2.98
  -7  -2   4   11.17    2.20
  -7   2   4   12.89    1.53
  -7  -2   4   11.29    1.51
  -7   2   4   12.20    2.49
   7  -2  -4    9.59    2.54
  -7  -2   4   12.67    2.88
  -7   2   4   13.52    2.26
  -7  -2   3  259.62   12.45
  -7   2   3  247.22   12.15
  -7  -2   3  255.92   10.94
  -7   2   3  239.61   11.05
  -7   2   3  252.81   10.52
   7  -2  -3  243.16   12.53
  -7  -2   3  255.02   12.62
  -7  -2   2   79.92    6.74
  -7   2   2   78.22    6.63
  -7  -2   2   83.39    5.87
   7  -2  -2   76.38    5.55
  -7   2   2   86.71    5.99
   7   2  -2   75.05    2.90
   7  -2  -2   60.72    6.17
   7  -2  -2   89.06    5.18
  -7  -2   2   77.83    6.74
   7  -2  -1  304.55   11.96
   7   2  -1  304.18   12.03
  -7  -2   1  307.69   14.19
  -7   2   1  311.45   14.19
  -7  -2   1  295.71   11.94
   7  -2  -1  312.21   12.20
  -7   2   1  300.12   12.55
   7  -2  -1  319.73   11.22
   7   2   0  134.26    7.79
   7  -2   0  131.29    7.58
  -7  -2   0  119.11    8.87
  -7   2   0  128.91    9.12
   7  -2   0  119.13    7.43
   7   2   0  132.06    4.37
   7  -2   0  127.45    9.09
   7  -2   0  123.42    6.94
   7  -2   1 1597.47   41.86
   7   2   1 1656.79   42.50
   7   2   1 1682.33   38.07
   7   2   1 1664.94   38.90
   7  -2   1 1623.75   38.31
  -7  -2  -1 1524.33   42.17
  -7   2  -1 1602.98   42.64
   7   2   1 1617.39   32.57
   7  -2   1 1664.37   39.17
   7  -2   1 1712.37   38.01
   7  -2   1 1686.95   42.89
  -7  -2  -1 1615.71   40.28
  -7  -2  -1 1621.73   39.02
  -7  -2  -2   62.01    5.76
   7  -2   2   61.59    6.45
   7   2   2   64.10    6.62
   7   2   2   61.35    5.68
   7  -2   2   66.81    5.89
   7   2   2   62.37    5.42
   7  -2   2   74.20    5.88
   7  -2   2   71.56    6.94
  -7  -2  -2   60.52    5.86
   7  -2   3  148.41    7.00
   7  -2   3  150.51   10.49
   7   2   3  135.40   10.23
   7   2   3  169.27    9.96
   7  -2   3  158.74    9.73
  -7  -2  -3  143.55    9.18
   7   2   3  144.36    8.80
   7  -2   3  157.70    9.26
   7  -2   3  160.99   10.57
  -7  -2  -3  166.04    9.79
   7  -2   3  152.58    6.89
   7  -2   4    3.45    0.90
  -7  -2  -4    1.99    1.35
   7  -2   4    6.14    1.62
   7   2   4    6.87    2.16
   7  -2   4    4.10    1.76
   7  -2   4    4.28    1.90
   7   2   4    4.32    2.07
   7   2   4    4.37    1.79
  -7  -2  -4    3.58    1.53
   7  -2   4    8.13    2.51
   7  -2   4    4.43    1.90
   7  -2   5  246.42   11.44
   7   2   5  244.09   13.42
   7  -2   5  243.46   13.43
   7  -2   5  231.84   14.36
   7   2   5  261.98   15.25
  -7  -2  -5  243.28   13.17
   7  -2   5  262.29   13.33
   7  -2   5  240.19   13.21
   7   2   6   14.69    2.60
   7  -2   6   17.90    3.32
   7  -2   6   15.23    4.08
   7   2   6   14.20    3.97
  -7  -2  -6   21.99    4.22
   7  -2   6   15.04    3.42
   7   2   7   30.48    3.30
   7  -2   7   28.69    4.40
   7  -2   7   26.44    5.64
   7   2   7   36.82    6.46
   7  -2   7   33.28    4.77
   7  -2   8   -0.82    1.28
   7   2   8    2.41    1.89
   7  -2   8   -1.21    1.90
   7  -2   8    1.44    1.31
   7  -2   9  173.57   12.25
   7  -2   9  163.06   13.94
   7   2   9  189.78   14.91
   7  -2   9  179.01   10.90
   7   2   9  185.99   13.75
  -7   2 -10   -1.41    1.81
  -7  -2 -10   -1.41    2.57
   7  -2  10    1.01    1.83
   7   2  10   -1.16    1.49
   7  -2  10    1.31    1.68
   7   2  10   -1.32    2.07
   7  -2  10    0.65    1.19
   7  -2  11    1.10    1.73
   7   2  11    1.24    1.59
  -7   3  12   -0.90    1.16
  -7   3  11   88.66    8.26
   7   3 -11   83.54    9.64
  -7   3  11   77.77    6.26
  -7   3  10    6.64    2.02
   7   3 -10   12.60    3.57
   7  -3 -10    3.17    2.15
  -7   3  10    8.57    2.92
  -7  -3  10    8.75    2.70
  -7   3  10   13.94    3.13
  -7   3   9   63.80    6.56
  -7  -3   9   64.44    6.67
  -7   3   9   58.96    5.93
  -7   3   9   54.46    5.04
   7  -3  -9   53.47    5.19
   7  -3  -8    1.70    1.26
  -7   3   8    3.39    1.46
  -7   3   8    1.63    1.11
  -7   3   8    2.78    1.55
  -7  -3   8    0.71    1.45
  -7   3   7   57.92    4.91
  -7  -3   7   55.12    5.93
  -7   3   7   57.07    5.85
  -7   3   7   55.88    5.01
   7  -3  -7   50.66    5.39
  -7   3   6    0.95    0.86
  -7  -3   6   -0.65    1.31
  -7   3   6   -0.63    0.99
  -7  -3   6    0.40    0.44
  -7   3   6   -0.34    0.62
   7  -3  -6    0.65    1.02
  -7  -3   6   -0.68    1.24
  -7  -3   5  356.70   14.86
  -7   3   5  328.95   14.30
  -7   3   5  345.47   14.36
  -7   3   5  367.86   13.43
   7  -3  -5  343.41   15.18
  -7  -3   5  335.32   15.06
  -7  -3   4   52.36    5.24
  -7  -3   4   44.41    5.07
  -7   3   4   47.96    5.14
  -7   3   4   50.27    5.27
  -7   3   4   47.50    4.72
   7  -3  -4   43.79    5.35
  -7  -3   4   52.04    5.60
  -7  -3   3  503.55   18.62
  -7   3   3  483.55   18.18
  -7  -3   3  508.38   17.68
  -7   3   3  485.26   17.76
  -7   3   3  510.21   17.28
   7  -3  -3  521.33   20.14
  -7  -3   3  503.61   18.99
  -7  -3   2   72.17    6.51
  -7   3   2   63.88    6.10
  -7  -3   2   69.56    5.96
   7  -3  -2   88.05    6.36
  -7   3   2   69.90    5.94
   7  -3  -2   51.74    6.17
  -7  -3   2   60.59    6.07
   7  -3  -1  160.22    8.07
   7   3  -1  151.44    7.99
  -7  -3   1  133.86    9.17
  -7   3   1  143.40    9.37
  -7  -3   1  139.26    8.56
  -7   3   1  151.64    9.14
   7  -3  -1  152.17    7.96
   7  -3   0  190.62   10.53
   7   3   0  194.81    9.45
   7  -3   0  188.28    9.14
  -7  -3   0  202.99   11.73
  -7   3   0  183.12   11.06
   7  -3   0  216.24   10.73
  -7   3   0  188.74   10.62
   7  -3   0  197.82    9.44
   7  -3   0  185.40   11.65
  -7  -3   0  192.34   10.88
   7  -3   1    2.92    1.33
   7  -3   1    3.24    1.30
   7   3   1    0.97    1.08
   7  -3   1    1.42    0.86
   7   3   1    1.68    1.25
   7  -3   1    0.70    1.11
   7   3   1    4.33    1.73
   7   3   1    2.58    0.54
   7  -3   1    2.38    1.32
  -7  -3  -1    2.54    1.73
   7  -3   1    0.78    1.23
  -7  -3  -1    1.24    1.12
  -7  -3  -2   44.46    5.20
   7  -3   2   44.84    4.43
   7   3   2   48.96    5.05
   7  -3   2   53.96    5.15
   7   3   2   48.99    5.24
   7  -3   2   55.48    5.76
   7  -3   2   40.19    5.34
   7   3   2   37.28    5.14
   7  -3   2   57.21    5.38
  -7  -3  -2   47.20    5.37
   7  -3   2   49.26    2.56
   7  -3   3  919.07   23.42
  -7  -3  -3  909.41   28.30
   7  -3   3  910.37   21.46
   7   3   3  921.94   26.94
   7  -3   3  904.75   26.75
   7  -3   3  946.52   29.92
   7   3   3  941.94   30.11
   7   3   3  908.24   27.42
   7  -3   3  922.60   26.92
  -7  -3  -3  891.68   26.79
   7   3   4   -0.67    1.21
   7  -3   4   -0.67    1.05
  -7  -3  -4    1.50    1.36
   7  -3   4    0.39    0.61
   7   3   4   -0.70    0.90
   7  -3   4   -0.85    1.34
   7   3   4    0.86    0.78
  -7  -3  -4    1.82    1.45
  -7  -3  -5    2.41    1.46
   7   3   5    1.46    1.48
   7  -3   5    2.20    1.76
   7  -3   5    3.65    2.03
   7   3   5    2.75    1.86
   7   3   5    0.76    1.20
   7   3   5    1.01    1.59
   7  -3   5    2.96    1.42
  -7  -3  -5    0.60    0.95
   7   3   6   30.12    4.30
   7  -3   6   18.21    4.37
   7   3   6   30.16    5.71
   7   3   6   28.19    4.78
  -7  -3  -6   22.79    3.68
   7  -3   6   23.23    3.65
   7   3   7  345.11   14.54
   7  -3   7  363.58   15.97
   7  -3   7  363.39   19.78
   7   3   7  355.92   19.75
   7  -3   7  370.34   17.44
   7  -3   8    3.17    1.77
   7   3   8    7.24    1.99
   7  -3   8    5.91    3.22
   7   3   8    5.90    2.84
   7  -3   8    3.29    1.83
   7  -3   9    9.80    4.01
   7   3   9    9.83    4.02
   7  -3   9    8.14    2.67
   7  -3   9   12.44    3.33
   7  -3  10    0.98    1.78
   7  -3  10    6.31    2.37
   7  -3  11   62.00    7.95
   7   4 -11   53.14    7.51
   7  -4 -11   50.29    7.37
  -7   4  11   53.83    6.43
  -7  -4  11   60.29    6.90
  -7   4  11   49.67    5.54
  -7   4  11   56.97    6.58
  -7   4  10    0.61    1.10
   7   4 -10    1.04    1.88
   7  -4 -10   -1.04    2.32
  -7   4  10    2.33    1.73
  -7  -4  10   -0.80    1.92
  -7   4  10    0.69    1.25
  -7   4   9   97.98    8.50
  -7  -4   9  111.49    9.03
  -7   4   9  126.72    8.50
   7  -4  -9  100.39    7.37
  -7   4   9  115.65    8.25
  -7   4   8   29.95    4.15
  -7   4   8   47.98    5.72
  -7  -4   8   40.87    5.33
   7  -4  -8   43.65    5.13
  -7   4   8   48.36    4.79
  -7   4   7   16.18    3.02
  -7  -4   7   19.19    3.58
  -7   4   7   15.31    3.09
   7  -4  -7   13.37    2.98
  -7  -4   6   50.91    5.57
  -7   4   6   50.42    5.50
  -7   4   6   45.51    3.56
  -7   4   6   55.57    5.43
   7  -4  -6   56.55    6.20
  -7   4   5    9.91    2.49
  -7  -4   5   15.97    3.23
  -7   4   5   12.93    2.80
  -7   4   5   10.28    1.33
   7  -4  -5   12.87    3.15
   7  -4  -4   37.05    5.53
  -7  -4   4   32.08    4.51
  -7   4   4   29.78    4.18
  -7  -4   4   36.15    4.72
  -7   4   4   33.60    4.39
   7  -4  -4   37.38    5.24
   7  -4  -3  133.39   10.26
  -7  -4   3  144.43    9.24
  -7   4   3  135.11    8.90
  -7  -4   3  133.42    8.93
  -7   4   3  141.50    8.93
   7  -4  -3  139.51   10.19
  -7  -4   3  137.29    9.34
   7  -4  -2   25.47    4.49
  -7  -4   2   34.89    4.70
  -7   4   2   32.00    4.34
   7  -4  -2   23.37    3.55
  -7  -4   2   36.25    4.65
  -7   4   2   36.35    4.75
   7   4  -2   34.21    2.39
  -7  -4   2   39.61    5.02
   7  -4  -2   39.46    5.41
   7  -4  -1   24.54    4.28
   7  -4  -1   20.35    3.11
  -7  -4   1   14.51    3.15
  -7   4   1   19.56    3.53
   7  -4  -1   16.98    3.11
  -7  -4   1   20.01    3.62
  -7   4   1   19.28    3.55
  -7  -4   0    8.52    2.38
   7  -4   0    5.53    1.99
   7  -4   0    7.08    1.95
   7  -4   0    5.00    1.52
   7   4   0    8.73    2.06
  -7  -4   0    8.05    2.57
  -7   4   0    4.28    1.94
   7   4   0    3.50    1.56
   7  -4   0    9.36    2.47
  -7   4   0    8.67    2.54
   7  -4   1  349.45   14.94
   7   4   1  345.91   13.16
   7  -4   1  316.74   12.59
   7  -4   1  315.46   15.06
   7   4   1  351.67   15.81
   7  -4   1  333.18   15.01
  -7   4  -1  321.80   15.56
   7  -4   1  328.00   13.59
  -7  -4  -1  343.21   15.94
  -7  -4  -1  342.65   14.97
   7  -4   2  167.69    5.31
   7   4   2  175.10   10.61
   7   4   2  174.62    9.37
   7  -4   2  181.76    9.40
   7  -4   2  164.06   10.89
   7   4   2  168.18   10.95
   7  -4   2  178.64    5.06
   7  -4   2  195.79   11.47
   7  -4   2  198.43   10.45
  -7  -4  -2  172.94   10.44
  -7  -4  -2  162.61   10.88
  -7  -4  -3  328.93   16.08
   7   4   3  311.84   13.63
   7  -4   3  332.38   13.90
   7   4   3  351.13   15.98
   7  -4   3  318.92   15.86
   7   4   3  308.71   15.73
   7  -4   3  315.40   10.21
   7  -4   3  315.54   15.54
   7  -4   3  307.32   13.91
  -7  -4  -3  310.00   14.29
   7   4   4  136.92    9.01
   7  -4   4  106.11    8.09
   7  -4   4  115.18    9.64
   7   4   4  116.26    9.63
   7   4   4  141.80   10.11
   7  -4   4  129.29    7.08
  -7  -4  -4  117.10    8.30
   7   4   5  168.92   10.76
   7  -4   5  171.77   10.82
   7  -4   5  171.27   12.10
   7   4   5  187.11   12.49
   7   4   5  173.61   11.77
   7  -4   5  182.69    9.40
   7  -4   5  178.97   12.91
   7   4   5  182.99   12.98
  -7  -4  -5  170.48   10.11
   7   4   6    0.78    0.71
   7  -4   6    1.21    1.09
   7   4   6    0.90    1.41
   7  -4   6   -1.04    0.95
   7   4   6    1.05    0.95
  -7  -4  -6   -0.60    1.21
   7   4   7    2.24    1.52
   7  -4   7    0.70    0.90
   7   4   7    0.97    1.52
   7  -4   7   -1.09    1.40
   7   4   7   -1.09    1.71
  -7  -4  -7    1.11    1.24
   7   4   8    0.70    1.09
   7  -4   8    1.60    1.26
   7   4   8   -1.03    1.87
   7  -4   8   -1.14    1.03
   7   4   8    1.14    2.07
   7   4   9  329.64   18.59
   7  -4   9  288.81   15.88
   7  -4   9  292.33   18.30
   7   4   9  312.02   19.24
   7  -4  10    2.93    1.77
   7  -4  10    1.77    1.61
   7  -4  11    6.31    2.86
  -7   5  11    7.88    2.60
  -7   5  10   13.47    3.22
   7   5 -10   12.07    3.66
   7  -5 -10   16.30    4.24
  -7  -5  10   11.90    3.15
  -7   5  10   19.14    3.81
  -7   5   9   11.91    3.18
   7   5  -9   13.10    3.90
   7  -5  -9   11.36    3.33
  -7  -5   9   10.64    3.09
  -7   5   9    7.32    2.58
   7  -5  -9   14.90    2.92
  -7   5   8    7.60    2.51
  -7  -5   8    5.07    2.28
  -7   5   8   11.14    2.90
  -7   5   8    3.16    1.48
   7  -5  -8    7.41    2.45
  -7  -5   7   51.47    5.71
  -7   5   7   62.81    6.24
  -7   5   7   56.15    4.39
  -7   5   7   43.90    5.29
   7  -5  -7   57.74    6.27
  -7   5   6   -0.69    0.88
  -7  -5   6    1.34    1.48
  -7   5   6   -0.64    1.01
  -7   5   6    0.26    0.68
   7  -5  -6    0.80    1.45
  -7  -5   5  351.47   15.35
  -7   5   5  353.53   15.17
  -7   5   5  357.17   15.75
   7  -5  -5  331.58   16.72
  -7   5   4   34.10    4.81
  -7  -5   4   30.89    4.46
  -7   5   4   28.96    4.12
   7  -5  -4   34.49    5.28
  -7  -5   3   83.78    7.11
  -7   5   3   91.15    7.30
   7   5  -3   81.67    4.04
  -7   5   3  100.82    8.14
   7   5  -2   14.48    1.89
   7  -5  -2   18.69    3.96
  -7  -5   2   12.76    3.00
  -7   5   2   14.95    3.08
  -7   5   2   17.34    3.63
   7  -5  -1   40.90    5.67
  -7   5   1   45.36    5.34
  -7  -5   1   40.65    5.18
   7  -5  -1   43.77    5.22
   7   5  -1   48.72    3.72
  -7   5   1   42.86    5.63
   7  -5   0  141.47   10.23
   7  -5   0  119.96    8.67
   7   5   0  146.00    9.59
   7  -5   0  135.01    9.37
  -7   5   0  120.41    9.64
   7   5   1   30.91    3.59
   7  -5   1   32.04    3.54
   7  -5   1   42.04    5.41
   7  -5   1   22.25    4.02
   7   5   1   29.05    4.44
  -7   5  -1   34.33    5.42
  -7  -5  -2   31.80    4.55
   7   5   2   44.83    4.51
   7  -5   2   35.06    3.92
   7  -5   2   37.94    2.40
   7  -5   2   37.49    2.57
   7  -5   2   29.18    4.66
   7  -5   2   35.17    4.92
   7   5   2   37.83    5.12
  -7   5  -2   29.59    5.18
   7  -5   3  143.64    5.87
   7   5   3  130.49    9.96
   7   5   3  170.52    9.28
   7  -5   3  130.55    8.14
   7  -5   3  135.80    9.99
   7   5   3  141.00   10.28
   7  -5   3  143.10   10.48
   7   5   3  135.35    4.93
   7  -5   3  128.71    6.26
  -7  -5  -3  152.73    9.80
   7  -5   4   -0.41    0.83
   7  -5   4    0.90    1.15
   7   5   4   -0.60    1.21
   7  -5   4    0.58    1.06
   7   5   4   -0.87    1.12
   7  -5   4   -0.87    1.12
   7  -5   4    0.82    1.29
   7   5   4    0.82    1.29
   7   5   4    0.90    1.42
  -7  -5  -4   -0.65    1.19
   7   5   5   28.48    4.31
   7  -5   5   19.70    3.79
   7   5   5   26.45    4.84
   7  -5   5   28.34    5.02
   7   5   5   18.90    4.13
   7  -5   5   29.98    5.11
   7   5   5   28.26    4.87
  -7  -5  -5   23.59    3.77
   7  -5   5   25.90    3.54
   7   5   6   22.54    4.52
   7   5   6   11.64    3.30
   7  -5   6   12.13    2.76
   7  -5   6   15.83    3.92
   7   5   6   10.89    3.71
  -7  -5  -6   14.88    3.04
   7   5   7  121.53   10.32
   7   5   7  137.04   11.43
   7  -5   7  135.04    9.43
   7  -5   7  120.64   10.89
   7   5   7  127.88   11.24
  -7  -5  -7  124.70    8.52
   7   5   8   -0.86    1.11
   7  -5   8    0.80    1.45
   7   5   8   -1.09    1.71
   7  -5   8   -1.08    1.39
   7   5   8   -1.08    1.97
   7  -5   9   37.13    5.59
   7   6 -10    4.06    2.26
  -7   6  10   15.06    3.42
  -7  -6   9   93.32    8.37
  -7   6   9   99.03    8.48
   7   6  -9   82.70    8.57
   7  -6  -9   87.88    9.11
  -7   6   9  108.41    9.07
  -7   6   8   16.76    3.70
   7   6  -8   17.37    3.90
   7  -6  -8    7.57    2.86
  -7  -6   8   10.03    2.91
  -7   6   8   10.95    2.78
   7  -6  -8    7.41    2.43
  -7   6   7    7.18    2.40
  -7  -6   7    6.26    2.19
  -7   6   7    7.94    2.33
   7  -6  -7    4.91    2.10
  -7   6   6    7.20    2.52
  -7  -6   6    6.15    2.06
  -7   6   6    5.84    2.13
   7  -6  -6    8.88    3.02
  -7   6   5    2.43    1.64
  -7  -6   5    6.01    2.19
  -7   6   5    7.60    2.30
   7  -6  -5    3.65    2.19
  -7   6   4    3.30    1.84
  -7  -6   4    1.32    1.04
  -7   6   4   -0.62    1.13
  -7  -6   3  252.24   12.85
  -7   6   3  274.26   12.97
   7   6  -3  265.50    9.39
  -7   6   3  278.62   14.95
   7   6  -2   11.95    1.99
  -7  -6   2   13.47    3.06
  -7   6   2   15.28    3.23
  -7   6   2   14.73    3.69
   7   6  -1    4.14    1.33
   7  -6  -1    6.29    2.49
   7   6  -1    1.92    1.74
   7  -6  -1    7.19    2.35
  -7   6   1    9.93    2.96
   7  -6   0   21.19    3.81
   7   6   0   31.88    4.56
   7  -6   0   29.69    4.59
   7   6   0   28.94    3.41
  -7   6   0   29.89    5.18
   7  -6   1  111.95    8.46
   7   6   1  125.26    8.89
   7  -6   1  114.89    9.25
  -7   6  -1  120.95   10.43
   7   6   2    0.85    1.28
   7  -6   2   -1.59    1.61
   7  -6   2   -0.82    1.29
   7  -6   2   -0.70    1.68
   7   6   2   -2.10    2.91
   7   6   3  107.50    9.46
   7   6   3  113.83    7.22
   7  -6   3  109.29    6.93
   7  -6   3  102.62    8.48
   7   6   3  106.34    8.63
   7  -6   3  101.51    8.71
   7   6   3  109.07    9.09
   7   6   4   42.51    5.63
   7   6   4   29.93    3.98
   7   6   4   40.56    5.96
   7  -6   4   40.65    5.67
   7   6   4   37.18    5.39
   7   6   5   28.23    5.54
   7   6   5   33.69    5.64
   7  -6   5   24.29    4.69
   7   6   5   30.22    5.04
   7   6   5   40.19    5.52
   7   6   6   25.25    5.19
   7   6   6   17.73    4.25
   7  -6   6   21.71    4.36
   7   6   6   27.02    4.99
   7   6   7    6.44    2.76
   7   6   7    7.61    3.28
   7  -6   7    5.72    2.87
   7   6   8   83.93    9.07
   7  -7  -8    3.21    1.93
  -7   7   7  158.13    9.91
   7   7  -7  161.55   10.48
  -7   7   7  141.60   11.08
   7  -7  -7  141.47   11.20
  -7   7   6   11.01    3.63
   7   7  -6   15.83    3.26
  -7   7   6   12.42    2.99
   7  -7  -6   10.45    3.11
  -7   7   5  273.71   12.84
  -7   7   5  299.17   16.33
  -7   7   4   53.23    7.01
  -7   7   4   48.12    5.21
  -7   7   3   90.53    9.13
   7   7  -2    3.77    1.32
  -7   7   2    6.88    2.82
  -7   7   1   91.89    9.29
   7   7  -1   87.26    6.24
   7   7   0    1.49    1.01
  -7   7   0    4.19    2.69
   7   7   1   13.77    2.81
   7   7   2    1.93    1.84
   7   7   3   92.14    7.68
   7  -7   4   -0.96    1.50
   7   7   4    0.70    1.10
   7   7   5   19.20    4.94
   7   7   5   13.81    3.62
   7  -7   5   14.12    3.78
   7   7   5   20.72    3.87
   7   7   6    1.25    2.28
   7   7   7  148.90   13.25
   7  -8  -7    0.97    1.52
   7  -8  -6    4.08    2.27
   7  -8   0   16.09    3.85
   7   8   1  168.24   10.23
   7   8   2   -0.65    1.43
  -8   0  12   45.79    6.79
  -8   0  11   -0.89    1.41
  -8   0  10    1.70    1.72
  -8   0   9   -0.81    1.65
  -8   0   8  306.19   15.17
  -8   0   8  281.92   11.91
  -8   0   7    0.45    0.83
  -8   0   7   -0.71    1.12
  -8   0   6    4.29    1.84
  -8   0   6    6.01    1.65
  -8   0   6    4.28    2.15
  -8   0   5   -0.69    1.25
  -8   0   5    0.41    0.53
  -8   0   5   -0.71    1.12
  -8   0   4   81.17    7.29
  -8   0   4   84.88    5.67
  -8   0   4   85.76    7.53
   8   0  -4   84.87    7.21
   8   0  -3   -0.66    1.03
  -8   0   3    0.71    0.64
  -8   0   3    0.29    0.52
  -8   0   3   -0.71    0.90
  -8   0   2  449.92   18.44
   8   0  -2  433.68   11.74
  -8   0   2  475.05   18.70
   8   0  -1   -0.66    0.60
   8   0  -1   -0.29    0.63
   8   0  -1    0.50    1.02
  -8   0   1   -0.75    1.53
   8   0  -1   -0.31    0.49
  -8   0   1   -0.29    0.60
   8   0   0  208.10   10.36
  -8   0   0  198.18    8.19
  -8   0   0  180.52   11.78
   8   0   0  204.24    8.65
   8   0   0  200.70    8.62
   8   0   0  196.39   11.20
  -8   0  -1   -0.35    0.64
   8   0   1   -0.56    1.25
  -8   0  -1    0.87    1.11
   8   0   1    0.41    0.83
   8   0   1   -0.88    1.27
   8   0   1    0.66    0.85
   8   0   2  465.60   20.12
   8   0   2  479.50   18.06
   8   0   2  472.67   14.31
   8   0   2  485.15   16.68
   8   0   2  461.81   18.19
   8   0   3   -0.68    1.23
   8   0   3   -0.89    1.14
   8   0   3    0.42    0.85
   8   0   3   -0.57    1.04
   8   0   3   -0.66    0.84
   8   0   4  289.62   16.60
   8   0   4  332.66   15.68
   8   0   4  331.33   14.75
   8   0   5    0.64    0.82
   8   0   6  371.37   20.81
   8   0   6  395.85   16.97
   8   0   6  364.45   15.52
   8   0   7   -0.61    0.96
   8   0   7    1.27    1.63
   8   0   7   -0.79    1.25
   8   0   8   95.31   10.87
   8   0   8   93.23    7.16
   8   0   8  103.61    9.37
   8   0   9   -0.54    1.10
   8   0   9   -1.37    1.76
   8   0   9   -0.97    1.24
   8   0  10  217.67   17.25
   8   0  10  254.40   16.10
   8   0  11    1.13    1.78
  -8   1  13    1.06    1.66
  -8   1  12   37.35    5.88
  -8   1  11    2.70    1.82
  -8   1  11   -0.89    1.40
  -8  -1  11   -0.90    1.41
  -8   1  10   68.50    7.50
  -8  -1  10   63.84    7.18
  -8   1  10   71.87    7.42
  -8   1  10   45.16    3.42
  -8   1   9    7.07    1.37
  -8   1   9    4.88    2.22
  -8  -1   9    9.00    2.68
  -8   1   9    7.83    2.67
  -8  -1   9    8.53    2.04
  -8   1   8   10.47    2.57
  -8  -1   8   11.64    2.99
  -8  -1   8    9.93    2.20
  -8   1   8    8.69    1.56
  -8  -1   7    6.71    2.44
  -8   1   7    7.85    2.07
  -8  -1   7    6.95    1.65
  -8  -1   7    2.21    1.77
  -8   1   7    6.14    1.33
  -8  -1   6  492.72   19.19
  -8   1   6  468.72   16.39
  -8  -1   6  486.55   14.72
  -8   1   6  469.00   13.32
  -8  -1   6  483.93   19.48
   8  -1  -6  503.75   18.83
   8  -1  -5    5.96    2.00
  -8  -1   5    6.96    2.19
  -8  -1   5    4.39    1.27
  -8   1   5    3.42    1.33
  -8   1   5    4.73    1.26
  -8  -1   5    5.79    2.08
  -8   1   4  308.47    9.20
  -8  -1   4  327.30   11.91
  -8  -1   4  306.50   14.61
  -8   1   4  309.02   12.49
  -8  -1   4  320.76   15.22
   8  -1  -4  326.03   14.92
  -8  -1   3   32.17    4.58
  -8   1   3   35.92    2.40
  -8  -1   3   39.92    5.25
   8  -1  -3   29.40    4.38
  -8   1   2  255.99    6.96
  -8  -1   2  248.82   13.31
   8   1  -2  250.97    7.30
  -8  -1   2  266.24   13.62
   8  -1  -2  278.22    9.31
   8   1  -1   26.01    4.02
   8  -1  -1   19.76    2.56
   8  -1  -1   19.36    3.18
  -8  -1   1   24.28    4.20
  -8   1   1   23.05    1.62
   8  -1  -1   25.20    3.12
   8   1  -1   21.07    2.29
  -8  -1   1   21.25    3.87
   8  -1  -1   23.16    3.89
   8  -1   0   21.89    3.40
  -8  -1   0   41.55    5.57
   8  -1   0   40.40    4.07
   8   1   0   40.22    3.13
   8   1   0   35.76    3.39
   8  -1   0   35.31    3.68
   8   1   0   53.18    5.55
   8  -1   0   36.83    4.89
   8   1   1   10.14    2.52
   8  -1   1   15.59    2.87
  -8  -1  -1    9.58    2.86
   8   1   1   16.02    2.41
   8   1   1   12.98    2.05
   8  -1   1   15.73    2.72
   8   1   1    9.75    2.08
  -8  -1  -1   16.73    3.35
   8  -1   1   10.73    2.76
   8  -1   1   13.36    2.48
   8   1   2   15.07    3.14
   8  -1   2   19.65    2.21
   8  -1   2   19.72    3.42
   8  -1   2   17.41    3.70
   8   1   2   15.00    2.61
  -8  -1  -2   19.72    3.16
  -8  -1  -2   19.94    3.65
   8  -1   2   16.44    2.98
   8  -1   2   16.57    3.35
   8   1   3   17.33    3.19
  -8  -1  -3   19.65    3.32
   8  -1   3   22.27    3.74
   8  -1   3   16.78    3.86
   8   1   3   21.52    3.29
   8  -1   3   21.41    2.60
   8  -1   3   14.83    3.01
   8  -1   3   19.52    3.78
   8  -1   4  650.90   25.73
   8  -1   4  639.64   23.25
   8   1   4  654.05   21.26
  -8  -1  -4  684.67   22.39
   8  -1   4  644.79   22.31
   8  -1   4  658.06   23.27
   8   1   4  707.91   22.39
   8   1   5   -0.60    0.94
  -8  -1  -5   -0.67    1.05
   8  -1   5    1.11    0.87
   8  -1   5    0.71    1.12
   8  -1   5   -0.72    0.93
   8   1   6   37.87    3.20
   8  -1   6   45.40    7.30
   8  -1   6   44.08    5.40
   8  -1   6   37.86    4.82
   8   1   6   43.34    4.88
   8  -1   7   10.09    3.80
   8  -1   7   15.26    3.22
   8  -1   7   14.71    3.41
   8  -1   8  202.72   12.68
   8  -1   8  229.04   16.89
   8   1   8  222.13   14.13
   8  -1   8  234.95   12.33
   8  -1   9    5.57    2.23
   8   1   9    6.21    2.82
   8  -1   9    5.46    3.03
   8  -1   9    3.81    1.83
   8  -1  10   10.18    3.46
   8   1  10    4.47    2.69
   8  -1  10    4.22    3.61
   8  -1  11   -1.10    2.24
  -8   2  12    6.30    2.59
  -8   2  11   20.37    4.27
  -8   2  11   21.24    4.08
  -8   2  10   15.55    2.51
  -8   2  10   15.34    3.72
  -8  -2  10   22.44    4.30
  -8   2  10   16.76    3.57
  -8   2   9   11.97    2.17
  -8   2   9    8.98    2.48
  -8   2   9   12.97    3.38
  -8  -2   9    9.04    2.99
  -8  -2   9   11.02    2.18
  -8  -2   8  197.75   12.19
  -8   2   8  220.17   12.65
  -8   2   8  201.59   10.35
  -8  -2   8  182.26    8.31
  -8   2   8  187.30    8.57
  -8  -2   7  103.24    8.52
  -8   2   7  105.63    8.47
  -8   2   7   80.94    6.00
  -8  -2   7   89.59    5.34
  -8   2   7   90.09    5.82
   8  -2  -7  111.89    8.23
   8  -2  -6   14.93    3.21
  -8   2   6   16.05    2.32
  -8  -2   6   20.95    3.83
  -8   2   6   11.37    2.89
  -8   2   6   18.44    3.15
  -8  -2   6   13.67    2.03
  -8   2   6   13.64    2.37
  -8  -2   5  188.27    9.70
  -8  -2   5  155.27   10.22
  -8   2   5  168.62   10.52
  -8   2   5  164.97    6.50
  -8  -2   5  158.26    6.57
  -8   2   5  168.26    9.55
  -8   2   5  167.76    8.34
  -8  -2   5  189.07   11.40
   8  -2  -5  161.59   10.45
  -8   2   4   35.83    1.84
  -8  -2   4   37.99    4.29
  -8   2   4   36.58    1.71
  -8  -2   4   37.07    5.01
  -8   2   4   36.66    5.00
  -8   2   4   44.86    4.84
  -8   2   4   31.46    3.67
  -8  -2   4   52.67    6.03
   8  -2  -4   41.03    5.18
  -8  -2   3   42.89    5.70
  -8   2   3   48.76    5.77
  -8  -2   3   49.50    4.77
  -8   2   3   61.97    5.11
  -8  -2   3   51.45    5.97
   8  -2  -3   44.92    5.58
  -8  -2   2  308.02   14.94
  -8   2   2  291.87   14.54
  -8  -2   2  260.73   11.43
   8  -2  -2  305.17   12.11
  -8   2   2  261.70   11.65
   8   2  -2  251.91    6.79
  -8  -2   2  297.28   14.40
   8  -2  -2  306.64   10.64
   8  -2  -1   30.06    3.77
   8   2  -1   28.72    3.72
  -8  -2   1   40.73    5.34
  -8   2   1   28.19    4.51
   8  -2  -1   26.83    3.49
   8   2  -1   33.80    2.77
   8  -2  -1   30.73    3.40
   8   2   0   80.66    6.37
   8  -2   0   92.69    6.69
  -8  -2   0  100.70    8.68
  -8   2   0   95.70    8.48
   8  -2   0   90.62    6.67
   8   2   0   93.39    3.80
   8  -2   0  100.41    6.40
   8  -2   0  101.27    8.48
  -8  -2   0   82.87    7.49
  -8  -2   0   94.71    7.03
  -8  -2  -1  153.11    9.11
   8  -2   1  160.27   10.90
   8   2   1  138.78   10.25
   8   2   1  149.67    8.84
   8  -2   1  132.43    8.37
  -8  -2  -1  138.23   10.59
   8   2   1  148.82    5.97
   8  -2   1  163.78    9.38
   8  -2   1  149.74    8.37
   8  -2   1  147.10   10.43
  -8  -2  -1  147.79    9.98
  -8  -2  -2  208.83   11.14
   8  -2   2  221.44   13.23
   8   2   2  212.98   13.18
   8   2   2  240.16   11.91
   8  -2   2  221.32   11.57
   8   2   2  232.13   11.05
   8  -2   2  210.78    6.44
   8  -2   2  248.47   12.15
   8  -2   2  223.39   11.11
  -8  -2  -2  263.39   13.32
   8  -2   2  213.89   12.84
   8  -2   3   34.03    3.50
   8   2   3   36.13    4.49
   8   2   3   32.12    4.53
   8  -2   3   25.84    4.02
   8  -2   3   23.80    4.62
   8   2   3   28.64    4.90
  -8  -2  -3   25.30    3.94
  -8  -2  -3   34.16    4.89
   8  -2   3   31.62    5.02
   8  -2   3   31.49    4.36
   8  -2   4  222.65    8.08
   8   2   4  242.35   13.10
   8  -2   4  229.36   12.80
   8  -2   4  220.50   14.17
   8   2   4  218.52   14.07
   8   2   4  240.78   12.30
  -8  -2  -4  237.06   12.69
   8  -2   4  229.81   12.19
  -8  -2  -4  217.96   12.04
   8  -2   4  200.55   12.54
   8  -2   4  219.00    9.67
   8   2   5    7.86    2.43
   8  -2   5    8.15    2.77
   8  -2   5    6.96    1.87
  -8  -2  -5    9.14    2.77
   8  -2   6   93.28    7.23
   8   2   6   98.29    8.42
   8  -2   6  114.15   11.18
   8   2   6  112.63   11.05
   8  -2   6   88.16    8.28
   8   2   7   17.36    2.61
   8  -2   7   26.00    4.15
   8  -2   7   26.24    5.56
   8   2   7   12.54    3.96
   8  -2   7   19.13    3.98
   8  -2   8    4.82    2.19
   8  -2   8   -1.30    3.13
   8   2   8    6.52    3.35
   8  -2   8    3.89    2.00
   8  -2   9   16.16    3.74
   8  -2   9    8.08    3.67
   8   2   9   14.88    4.76
   8  -2   9   11.96    3.04
   8  -2  10  190.88   13.57
   8  -2  10  176.14   15.13
   8   2  10  199.20   16.06
   8  -2  11   -1.07    1.69
  -8   3  11   47.42    5.89
  -8   3  10   10.47    2.36
  -8   3  10   14.00    3.03
  -8   3  10    4.24    2.99
  -8  -3  10   10.39    3.60
   8  -3  -9    7.30    2.21
  -8   3   9    5.45    1.80
  -8   3   9    7.48    2.28
  -8  -3   9    4.13    2.25
  -8   3   9    3.23    2.08
   8  -3  -8    1.29    1.44
  -8   3   8    1.49    1.19
  -8   3   8    1.43    1.15
  -8  -3   8    1.59    1.76
  -8   3   8    0.78    1.22
  -8  -3   8    0.58    0.64
  -8   3   7    5.99    1.87
  -8  -3   7    3.80    1.95
  -8   3   7    7.43    2.43
  -8  -3   7    2.97    0.93
  -8   3   7    5.22    1.44
   8  -3  -7    7.57    2.42
  -8  -3   6  171.47   10.73
  -8   3   6  136.98    9.67
  -8  -3   6  141.49    5.49
  -8   3   6  153.87    8.63
   8  -3  -6  156.52   10.33
  -8   3   6  148.74    6.28
  -8  -3   5   23.14    3.95
  -8   3   5   19.86    3.71
  -8  -3   5   21.06    3.42
   8  -3  -5   28.64    4.70
  -8   3   5   27.36    3.65
  -8  -3   4   79.25    7.47
  -8   3   4   86.91    7.55
  -8  -3   4   83.71    6.75
  -8   3   4   77.26    6.84
  -8   3   4   70.94    6.01
   8  -3  -4   74.51    7.45
  -8  -3   3    1.48    1.50
  -8   3   3    2.18    1.32
  -8  -3   3   -0.58    1.28
  -8   3   3    0.58    1.17
   8  -3  -3    1.61    1.46
  -8  -3   3    0.73    0.94
  -8  -3   2  244.99   13.39
  -8   3   2  249.62   13.32
  -8  -3   2  247.88   11.87
   8  -3  -2  249.97   11.45
   8   3  -2  221.02    6.26
  -8   3   2  232.62   11.74
   8  -3  -2  246.34   13.91
  -8  -3   2  223.05   12.74
   8  -3  -1   16.89    2.75
  -8  -3   1   13.45    3.22
  -8   3   1   17.23    3.63
   8  -3  -1   17.19    3.03
  -8   3   1   17.23    3.24
   8  -3   0    1.44    0.97
   8  -3   0    2.61    1.33
   8   3   0    1.01    1.03
   8  -3   0    0.49    0.89
  -8  -3   0   -0.84    1.70
  -8   3   0    1.66    1.68
   8  -3   0    2.96    1.42
   8  -3   0    1.75    1.59
  -8  -3   0    1.42    1.29
   8  -3   1   -0.52    0.67
   8  -3   1    4.68    1.76
   8   3   1    1.61    1.09
   8  -3   1    3.15    1.43
   8  -3   1    1.59    1.44
   8   3   1    6.53    2.34
   8  -3   1    3.81    1.82
   8   3   1    3.00    0.55
  -8  -3  -1    2.66    1.60
   8  -3   1    2.63    1.59
  -8  -3  -1    4.94    2.03
   8  -3   2   -0.57    1.15
  -8  -3  -2   -0.70    0.63
   8  -3   2    0.52    0.94
   8   3   2    0.58    1.19
   8  -3   2   -0.57    0.90
   8   3   2    0.62    0.80
   8  -3   2   -0.69    1.08
   8  -3   2   -0.83    1.31
   8   3   2    2.56    1.90
   8  -3   2   -0.88    1.39
  -8  -3  -2    0.70    0.90
   8  -3   3    6.26    2.13
   8  -3   3    5.14    1.51
   8   3   3    2.60    1.45
   8  -3   3    3.22    1.55
  -8  -3  -3    6.68    2.34
   8  -3   3    5.19    2.13
   8   3   3    5.40    1.94
   8  -3   3    1.76    1.60
   8   3   3    6.29    2.31
   8  -3   3    3.57    1.99
  -8  -3  -3    4.20    2.01
   8  -3   4  375.39   12.62
   8   3   4  389.93   16.94
   8  -3   4  390.36   16.89
   8  -3   4  364.05   18.55
   8   3   4  389.84   19.32
  -8  -3  -4  372.13   17.44
   8   3   4  384.96   16.87
   8  -3   4  404.19   18.98
  -8  -3  -4  414.58   17.21
   8  -3   5    0.47    0.73
   8   3   5    4.71    2.14
   8  -3   5    1.81    1.65
  -8  -3  -5    0.68    1.23
   8  -3   6   90.61    7.02
   8   3   6   91.31    8.55
   8  -3   6   81.05    9.42
   8   3   6   97.25   10.49
   8  -3   6   90.00    8.67
   8   3   7    8.58    2.32
   8  -3   7    4.09    1.86
   8  -3   7    9.82    3.86
   8   3   7    8.65    3.37
   8   3   7    7.38    2.78
   8  -3   7    7.30    2.75
   8  -3   8  156.91   10.91
   8   3   8  161.98   12.28
   8  -3   8  205.42   15.68
   8   3   8  172.99   14.50
   8  -3   8  191.01   12.64
   8  -3   9   -0.88    1.59
   8  -3   9   -1.32    2.07
   8   3   9    2.64    2.40
   8  -3   9    0.87    1.36
   8  -3  10   31.90    5.43
  -8   4  10    7.25    2.20
   8   4 -10    6.48    2.78
   8  -4 -10    5.45    2.80
  -8  -4  10   13.92    3.62
  -8   4  10    8.46    2.88
  -8  -4   9   82.65    8.07
  -8   4   9   93.30    8.44
  -8   4   9   78.36    6.82
   8  -4  -9   77.73    6.85
  -8  -4   8  282.85   14.97
  -8   4   8  285.92   14.92
  -8   4   8  288.53   13.28
   8  -4  -8  296.58   14.30
  -8   4   7   30.37    4.22
  -8  -4   7   22.28    4.26
  -8   4   7   25.31    4.45
  -8  -4   7   20.03    1.69
   8  -4  -7   33.39    4.87
  -8   4   6    1.24    0.97
  -8   4   6    5.10    2.09
  -8   4   6    2.49    0.73
   8  -4  -6    3.15    1.89
  -8   4   5    5.72    2.00
  -8  -4   5    4.51    1.93
  -8   4   5    2.19    1.62
   8  -4  -5    2.48    1.50
  -8  -4   4   64.64    6.64
  -8   4   4   52.52    5.96
  -8   4   4   52.17    5.66
   8  -4  -4   53.44    6.52
  -8  -4   3   11.39    2.93
  -8   4   3    9.61    2.69
  -8  -4   3   12.14    3.00
   8  -4  -3   12.52    3.35
  -8   4   3   12.95    2.91
   8  -4  -2  399.49   18.47
  -8  -4   2  379.34   17.27
  -8   4   2  441.14   18.03
  -8  -4   2  423.96   17.15
   8  -4  -2  433.24   16.67
  -8   4   2  426.03   17.48
   8   4  -2  357.17    9.44
   8  -4  -2  458.68   20.19
   8  -4  -1   15.67    3.42
   8  -4  -1   23.96    3.40
  -8  -4   1   16.16    3.68
  -8   4   1   11.11    3.07
   8  -4  -1   20.63    3.56
  -8   4   1   19.34    3.83
   8  -4   0   22.55    3.92
   8  -4   0   21.35    3.30
   8  -4   0   21.69    3.18
   8   4   0   16.73    2.94
  -8  -4   0   13.57    3.37
   8  -4   0    9.20    2.80
   8   4   0   12.73    3.24
   8  -4   0   17.30    3.32
  -8   4   0   16.31    3.53
   8  -4   1    0.56    1.02
   8  -4   1   -0.66    1.04
   8   4   1    2.09    1.16
   8  -4   1   -0.50    0.91
   8  -4   1   -0.79    1.60
   8   4   1    0.82    1.28
   8  -4   1   -0.70    0.90
  -8  -4  -1   -0.77    0.99
   8  -4   1   -0.95    1.22
   8  -4   2  271.43   12.23
  -8  -4  -2  266.43   14.10
   8   4   2  282.79   13.65
   8   4   2  247.62   11.76
   8  -4   2  262.96   11.76
   8  -4   2  247.20   13.82
   8   4   2  253.88   14.28
   8  -4   2  253.38   13.38
  -8  -4  -2  277.29   13.66
   8   4   3    6.14    2.09
   8  -4   3    3.64    1.56
   8   4   3    5.30    2.06
   8  -4   3    5.65    2.20
   8  -4   3    6.15    2.39
   8   4   3    2.69    1.99
   8  -4   3    5.08    0.97
  -8  -4  -3    7.87    2.52
   8  -4   4   32.05    3.16
   8  -4   4   41.73    5.28
   8  -4   4   32.70    5.21
   8   4   4   36.49    5.34
  -8  -4  -4   30.37    4.57
   8  -4   5    1.79    1.15
   8   4   5    0.86    1.75
   8  -4   5   -1.09    0.99
   8   4   5    1.10    2.24
  -8  -4  -5    0.70    1.10
   8   4   6    9.55    2.80
   8   4   6   11.10    3.26
   8  -4   6   15.53    2.90
   8  -4   6   18.28    4.52
   8   4   6   14.98    4.19
  -8  -4  -6   10.18    2.83
   8   4   7    2.23    1.79
   8   4   7    7.86    2.96
   8  -4   7    1.31    1.19
   8  -4   7    5.95    2.64
   8   4   7    4.79    2.66
   8  -4   7    2.98    2.39
   8   4   8   -1.05    1.35
   8  -4   8    0.76    1.19
   8   4   8   -1.24    3.73
   8  -4   8    0.99    1.26
   8   4   9    5.59    2.69
   8  -4   9    6.34    3.45
   8   4   9    8.93    3.84
   8  -4   9    4.85    2.33
  -8   5  10   84.63    8.65
   8   5 -10   92.46    9.73
  -8   5  10   73.05    7.27
  -8   5   9    7.12    2.42
  -8  -5   9    5.80    2.26
  -8   5   9    3.20    1.92
   8  -5  -9    8.01    2.50
  -8   5   8   43.54    5.50
  -8  -5   8   40.77    5.70
  -8   5   8   42.47    5.64
   8  -5  -8   28.17    4.75
  -8   5   7    0.72    1.45
  -8  -5   7    0.78    1.23
  -8   5   7   -0.75    1.67
   8  -5  -7   -0.80    1.26
  -8  -5   6   66.67    7.07
  -8   5   6   59.78    6.55
  -8   5   6   57.68    6.40
   8  -5  -6   57.62    6.83
  -8   5   5    6.75    2.26
  -8  -5   5    3.08    1.71
  -8   5   5    4.43    1.89
   8  -5  -5    2.72    2.02
  -8  -5   4   66.57    6.92
  -8   5   4   70.08    6.91
  -8   5   4   74.60    7.29
   8  -5  -4   89.03    8.86
  -8  -5   3    3.06    1.96
  -8   5   3    2.94    1.76
   8  -5  -3    5.81    2.64
   8   5  -3    2.69    0.58
  -8   5   3    6.28    2.47
  -8  -5   2  201.08   12.21
  -8   5   2  197.51   11.94
  -8   5   2  207.70   12.60
   8   5  -2  166.14    6.37
   8  -5  -2  181.90   12.90
   8  -5  -1   22.57    4.40
  -8  -5   1   18.02    3.95
  -8   5   1   18.99    3.95
   8  -5  -1   18.68    3.68
   8   5  -1   23.25    2.54
  -8   5   1   23.77    4.51
   8  -5   0   25.87    4.50
   8  -5   0   29.45    4.58
   8   5   0   35.11    5.18
   8  -5   0   33.39    4.78
  -8   5   0   41.34    5.78
   8   5   1    7.38    2.05
   8  -5   1    8.41    1.99
   8  -5   1   10.97    2.93
   8   5   1   10.50    2.84
   8  -5   1    3.07    1.97
  -8   5  -1    1.83    1.86
   8   5   2    1.05    1.07
   8  -5   2    3.03    1.37
   8  -5   2    2.43    1.64
   8  -5   2    1.64    1.29
   8   5   2    1.68    1.32
   8   5   3    7.40    2.19
   8  -5   3    6.06    1.94
   8   5   3    7.65    2.67
   8  -5   3    9.51    2.83
   8  -5   3    5.18    2.48
   8   5   3    6.14    2.52
   8   5   4  450.26   19.83
   8  -5   4  404.66   19.34
   8   5   4  423.72   20.56
   8  -5   5    4.87    2.50
   8   5   5    4.73    2.10
   8  -5   5    4.20    2.34
   8   5   5    6.35    2.72
   8   5   6   17.16    3.98
   8   5   6   20.82    4.60
   8  -5   6   30.54    5.70
   8   5   6   26.35    5.38
   8   5   7   13.65    3.41
   8   5   7    5.24    2.52
   8  -5   7   10.16    3.55
   8   5   7   11.34    3.71
   8  -5   8  217.64   15.46
   8   5   8  201.10   14.94
   8  -5   9    1.06    1.93
  -8   6   9    9.83    3.07
   8   6  -9    7.51    2.95
  -8  -6   9    8.29    2.92
  -8   6   9   11.91    3.30
  -8  -6   8   93.03    8.73
  -8   6   8   99.79    8.79
   8   6  -8  100.91    9.34
  -8   6   8  100.37    8.87
   8  -6  -8  108.54    9.15
  -8   6   7    0.83    1.85
  -8  -6   7    1.60    2.05
  -8   6   7    1.52    1.69
   8  -6  -7    0.87    1.37
  -8   6   6   10.99    2.97
  -8  -6   6    7.79    2.65
  -8   6   6    7.45    2.44
   8  -6  -6    5.63    2.41
  -8   6   5    0.86    1.36
  -8  -6   5    0.77    0.99
  -8   6   5   -0.73    1.16
   8  -6  -5   -1.00    1.57
  -8  -6   4    0.76    1.19
  -8   6   4    2.17    1.47
   8  -6  -4    3.07    2.07
  -8   6   4    2.63    1.78
  -8  -6   3    4.64    1.98
  -8   6   3    2.95    1.89
   8  -6  -3    6.30    3.16
  -8   6   3    1.80    1.41
  -8  -6   2  103.18    8.72
  -8   6   2   96.06    8.21
  -8   6   2  105.43    9.58
   8   6  -1    9.46    1.86
   8  -6  -1    8.64    2.78
   8   6  -1    5.92    2.69
   8  -6  -1    9.13    2.68
  -8   6   1    8.63    3.02
   8  -6   0   52.94    6.19
   8   6   0   59.56    6.60
  -8   6   0   45.56    6.55
   8  -6   1    1.65    1.84
   8   6   1    0.77    2.22
  -8   6  -1    1.02    1.60
   8   6   2  188.12    9.55
   8   6   2  195.17   12.30
   8  -6   2  180.78   12.27
   8   6   3   21.37    3.50
   8   6   3   19.08    4.22
   8  -6   3   23.65    4.54
   8   6   3   24.98    4.42
   8   6   4   35.13    5.78
   8  -6   4   33.73    5.64
   8  -6   4   40.46    6.07
   8   6   4   46.26    6.44
   8   6   5   11.14    3.44
   8  -6   5    9.19    3.08
   8  -6   5   17.52    4.05
   8   6   5    9.76    3.20
   8   6   6   22.15    4.84
   8   6   6   27.78    5.42
   8  -6   6   28.20    5.43
   8   6   6   30.22    5.50
   8   6   7   24.63    5.07
   8  -6   7   27.02    5.27
   8   6   7   30.18    5.53
   8  -7  -7   14.08    3.62
  -8   7   6    0.97    1.24
   8  -7  -6   -1.02    1.60
  -8   7   5    0.98    1.25
  -8   7   5   -0.70    1.26
   8  -7  -5    1.06    2.73
  -8   7   4   -0.69    1.40
   8  -7  -4    1.10    1.73
  -8   7   4   -0.99    1.28
  -8   7   3   -1.02    1.60
  -8   7   2  100.69    9.95
  -8   7   1   42.88    6.78
   8  -7   0   -0.84    1.31
  -8   7   0   -1.10    1.73
   8   7   1    1.02    1.04
   8  -7   1   -0.87    1.76
  -8   7  -1    1.12    1.44
   8   7   2   14.64    3.43
   8   7   3    0.79    1.76
   8   7   4  136.40   10.29
   8   7   5   -1.30    2.04
   8   7   5   -0.85    1.33
   8   7   6   37.68    6.87
  -9   0  12   -1.00    1.29
  -9   0  10   -0.93    0.84
  -9   0   9   51.07    6.71
  -9   0   8   -0.86    1.57
  -9   0   8    0.52    1.15
  -9   0   7  353.71   17.03
  -9   0   7  355.53   13.77
  -9   0   6   -0.81    1.28
  -9   0   6    0.48    1.06
  -9   0   5    8.07    2.54
  -9   0   5    9.16    2.12
   9   0  -4   -0.74    1.35
  -9   0   4   -0.82    1.49
  -9   0   3  276.83   14.79
  -9   0   3  247.65    9.15
   9   0  -3  252.56   13.48
   9   0  -2    0.24    0.49
  -9   0   2   -0.85    1.89
  -9   0   1  302.81   10.57
   9   0  -1  309.97   13.51
  -9   0   1  285.66   15.60
   9   0  -1  304.04   10.87
   9   0  -1  302.59   10.34
   9   0  -1  317.71   15.32
   9   0   0   -0.74    0.95
   9   0   0    0.58    1.58
  -9   0   0   -0.94    2.41
   9   0   0   -0.39    0.86
  -9   0   0   -0.34    0.53
   9   0   0    0.39    0.71
   9   0   1   58.63    7.07
   9   0   1   74.23    6.56
  -9   0  -1   62.29    7.65
  -9   0  -1   64.27    4.78
   9   0   1   64.33    5.18
   9   0   1   79.13    5.90
   9   0   1   69.73    6.93
   9   0   2   -0.66    1.04
   9   0   2    0.35    0.64
   9   0   2   -0.50    0.90
   9   0   2   -0.92    1.67
   9   0   2   -0.54    0.70
   9   0   2    0.74    1.16
   9   0   3   17.35    2.70
   9   0   3   14.11    2.85
   9   0   3   19.12    3.73
   9   0   4    0.50    0.64
   9   0   4    0.68    1.06
   9   0   4   -0.73    0.94
   9   0   5   36.69    5.05
   9   0   6   -0.70    1.28
   9   0   7   21.72    3.76
   9   0   7   19.15    5.42
   9   0   8   -0.65    1.18
   9   0   8   -1.42    1.82
   9   0   9  109.77   12.41
   9   0   9   79.91    8.81
   9   0  10   -1.07    1.94
  -9   1  11   17.89    3.95
  -9  -1  10    0.93    1.89
  -9   1  10   -0.92    1.45
  -9   1  10    0.77    1.21
  -9  -1   9  151.54   11.30
  -9   1   9  160.38   11.71
  -9  -1   9  143.17    8.29
  -9   1   9  145.23    9.83
  -9  -1   8    0.87    1.36
  -9   1   8    0.86    1.35
  -9  -1   8    0.45    1.07
  -9   1   8    0.86    0.58
  -9   1   8    1.17    1.06
  -9  -1   7   16.66    3.71
  -9   1   7   16.41    3.09
  -9  -1   7   12.10    2.31
  -9   1   7   11.40    1.61
   9  -1  -6    3.69    1.77
  -9  -1   6    3.26    2.09
  -9  -1   6    3.97    1.35
  -9   1   6    7.19    2.01
  -9  -1   5  288.44   15.23
  -9  -1   5  294.54   11.71
  -9   1   5  300.01    9.49
  -9   1   5  288.32   12.60
   9  -1  -5  265.84   14.12
   9  -1  -4   10.57    2.91
  -9  -1   4    9.90    2.90
  -9  -1   4   10.22    2.09
  -9   1   4    6.74    1.16
  -9  -1   3   -0.83    1.07
  -9   1   3    0.49    0.44
  -9  -1   3    1.24    0.84
  -9  -1   3   -0.81    1.27
   9  -1  -3    0.77    0.98
   9   1  -2    2.45    0.68
   9  -1  -2    6.10    1.41
  -9  -1   2    1.71    1.55
  -9   1   2    2.77    0.63
  -9  -1   2    3.25    1.95
   9  -1  -1  412.14   15.65
  -9  -1   1  386.84   18.56
   9  -1  -1  412.18   14.12
   9   1  -1  393.83   11.86
   9  -1  -1  399.49   12.94
  -9  -1   1  442.95   18.89
   9  -1  -1  374.58   17.47
   9   1   0    2.90    1.61
   9  -1   0    1.26    1.37
   9  -1   0    0.57    1.04
  -9  -1   0    1.88    1.71
   9  -1   0    1.42    1.05
   9   1   0    3.12    1.09
   9   1   0    1.88    1.02
   9  -1   0    4.74    2.03
   9  -1   1   52.50    5.59
  -9  -1  -1   45.78    4.70
  -9  -1  -1   48.52    6.66
   9  -1   1   49.18    4.89
   9   1   1   50.70    4.03
   9  -1   1   39.75    5.73
   9   1   1   53.94    4.80
   9  -1   1   43.76    4.54
  -9  -1  -1   49.91    6.10
   9  -1   1   59.44    6.60
   9   1   1   50.79    5.83
   9   1   2    2.83    1.57
   9  -1   2    1.96    1.46
   9  -1   2    1.71    0.70
   9   1   2    1.36    1.01
   9   1   2    2.90    1.19
   9  -1   2    4.58    2.20
   9  -1   2    2.88    1.39
   9   1   2    2.66    1.28
  -9  -1  -2    2.13    1.28
   9  -1   2    1.67    1.34
   9  -1   2    4.77    2.17
   9   1   3   36.38    4.89
  -9  -1  -3   25.94    3.76
   9   1   3   15.36    2.81
   9  -1   3   18.30    2.48
   9  -1   3   20.14    3.59
   9  -1   3   31.11    4.87
   9   1   4    6.88    2.17
   9   1   4    8.70    2.24
  -9  -1  -4   12.15    2.73
   9  -1   4    7.17    1.80
   9  -1   4    9.69    2.67
   9  -1   4   10.34    2.80
   9  -1   5  164.49    5.42
   9   1   5  180.43   10.59
   9  -1   5  186.99   11.80
   9   1   5  202.73   11.40
   9   1   6   -0.66    0.84
   9   1   6    0.73    1.14
   9  -1   6   -0.78    1.22
   9  -1   7  149.80   13.96
   9  -1   7  154.12   10.58
   9  -1   7  164.24   10.76
   9  -1   8    5.81    2.26
   9  -1   8   11.30    3.85
   9  -1   8   10.97    2.82
   9  -1   9   90.39   11.16
   9  -1   9   81.03    7.36
   9  -1   9   82.50    8.56
   9  -1  10   14.01    3.86
  -9  -2  10    3.75    2.25
  -9   2  10    1.86    2.23
  -9   2  10    2.01    1.49
  -9  -2   9   -0.91    2.61
  -9   2   9    0.90    2.57
  -9   2   9    1.16    1.29
  -9   2   9    1.13    0.97
  -9  -2   8   30.50    5.14
  -9   2   8   33.50    5.25
  -9  -2   8   30.11    3.28
  -9   2   8   17.58    2.97
  -9   2   8   25.21    3.08
  -9  -2   7  212.91   12.99
  -9   2   7  227.61   13.47
  -9   2   7  218.94    9.48
  -9  -2   7  215.10    8.82
  -9   2   7  227.18    9.69
   9  -2  -7  206.24   12.15
   9  -2  -6    0.75    0.97
  -9  -2   6   -0.83    1.06
  -9   2   6    0.82    1.28
  -9  -2   6   -0.57    1.15
  -9  -2   6    0.30    0.68
  -9   2   6   -0.28    0.51
  -9   2   6   -0.42    0.77
  -9   2   5    2.15    0.61
  -9  -2   5    1.65    1.50
  -9   2   5    0.82    1.49
  -9  -2   5   -0.54    0.98
  -9   2   5    1.24    1.49
  -9   2   5    1.53    0.50
  -9   2   5    2.23    1.15
   9  -2  -5    0.78    1.00
  -9  -2   4   38.08    4.47
  -9  -2   4   37.59    5.41
  -9   2   4   46.21    6.03
  -9   2   4   43.36    4.42
   9  -2  -4   51.00    6.14
  -9  -2   3  131.14   10.21
  -9   2   3  139.69   10.43
  -9  -2   3  140.61    8.35
   9  -2  -3  154.65   10.79
  -9  -2   2   79.49    7.96
  -9   2   2   87.99    8.13
  -9  -2   2   68.21    5.71
   9   2  -2   60.45    2.74
   9  -2  -2   69.92    4.97
   9  -2  -1  238.84   11.55
   9   2  -1  262.10   12.16
  -9  -2   1  240.09   14.36
  -9   2   1  249.48   14.56
   9  -2  -1  248.82   11.41
   9   2  -1  249.68    8.57
   9  -2  -1  248.74   10.32
   9  -2   0    5.48    1.61
   9   2   0    0.57    1.27
   9  -2   0    3.94    1.70
  -9  -2   0    4.76    2.29
  -9   2   0   11.34    3.21
   9  -2   0    6.09    1.88
  -9  -2   0    6.32    1.95
   9   2   0    6.53    1.58
  -9  -2   0   11.18    3.16
   9  -2   0    5.15    2.20
  -9  -2  -1  109.14    7.92
   9  -2   1  101.29    9.24
   9   2   1  120.94   10.11
   9   2   1  112.36    8.16
   9  -2   1  101.71    7.65
   9  -2   1  115.67    7.99
   9   2   1  111.22    5.13
   9  -2   1  121.26    7.62
  -9  -2  -1  104.29    8.90
   9  -2   1  108.42    9.37
   9  -2   2    1.16    1.17
   9  -2   2    1.28    1.30
  -9  -2  -2    2.57    1.43
   9   2   2    2.20    1.50
   9   2   2    2.88    1.01
   9  -2   2    0.66    1.46
  -9  -2  -2    0.79    1.44
   9  -2   2    3.50    1.95
   9  -2   3  104.57    6.60
   9   2   3  104.43    7.75
  -9  -2  -3  111.34    8.40
   9  -2   3   99.96    4.85
   9  -2   3  119.30    8.82
   9  -2   3  103.91    7.96
  -9  -2  -3  105.23    8.80
   9  -2   3   84.58    8.34
   9  -2   4    1.86    0.89
  -9  -2  -4    1.47    1.34
   9   2   4    0.66    1.04
   9  -2   4    0.88    1.13
  -9  -2  -5   13.43    3.21
   9   2   5   18.15    3.62
   9  -2   5   13.20    3.40
   9   2   6    0.80    1.26
   9  -2   6   -1.28    1.17
   9   2   6   -1.30    1.67
   9  -2   6    0.59    0.75
   9  -2   6   -0.87    1.12
   9  -2   7   -1.35    2.73
   9   2   7   -1.36    3.90
   9   2   7    4.35    2.09
   9  -2   7    2.72    1.51
   9  -2   7    0.86    1.10
   9   2   8    4.21    3.12
   9  -2   8   10.09    2.91
   9  -2   8    9.97    2.83
   9  -2   9    0.87    1.12
   9  -2   9   -0.79    1.61
   9  -2  10   -0.96    1.23
  -9  -3   9  175.65   12.31
  -9   3   9  168.60   12.14
  -9   3   9  182.93    9.58
   9  -3  -8    0.73    0.93
  -9  -3   8   -0.88    1.59
  -9   3   8    0.86    1.10
  -9   3   8    0.38    0.60
  -9   3   8   -1.03    1.24
   9  -3  -7    2.30    1.70
  -9  -3   7    1.71    1.55
  -9   3   7    1.68    1.52
  -9  -3   7    1.65    0.83
  -9   3   7    3.75    1.09
  -9   3   7    3.16    1.51
  -9  -3   6    5.92    2.30
  -9   3   6    8.31    2.72
  -9   3   6    5.97    1.84
   9  -3  -6    2.40    1.92
  -9  -3   5  180.12   12.01
  -9   3   5  209.01   12.65
  -9  -3   5  192.67   10.93
  -9   3   5  187.90   10.20
   9  -3  -5  189.96   12.20
  -9  -3   4    0.85    2.18
  -9   3   4   -0.83    2.26
  -9  -3   4    0.62    0.97
  -9   3   4    1.18    1.07
   9  -3  -4    2.57    1.74
  -9  -3   3   11.18    3.03
  -9   3   3    7.62    2.55
  -9  -3   3   14.05    2.89
  -9   3   3   13.61    2.92
   9  -3  -3    8.82    2.89
  -9  -3   2    0.87    1.58
  -9   3   2    0.86    1.56
   9  -3  -2    1.72    1.28
  -9  -3   2   -0.61    1.11
  -9   3   2    3.25    1.77
   9  -3  -2   -0.90    1.16
   9   3  -2    0.47    0.33
  -9  -3   1  219.43   13.71
  -9   3   1  202.97   13.11
   9  -3  -1  205.73   10.84
   9   3  -1  195.66    7.49
   9  -3  -1  199.13    9.70
   9  -3   0   56.88    6.15
   9   3   0   59.08    5.71
   9  -3   0   50.92    5.22
  -9  -3   0   67.38    7.72
  -9   3   0   44.68    6.29
   9  -3   0   55.48    5.65
   9  -3   0   52.54    5.00
  -9  -3   0   57.32    6.01
   9  -3   0   46.08    6.39
   9  -3   1   26.29    3.69
   9  -3   1   33.35    4.45
   9  -3   1   30.12    4.10
   9  -3   1   21.96    4.25
   9   3   1   35.37    5.54
   9  -3   1   36.90    4.78
  -9  -3  -1   31.34    4.63
   9  -3   1   30.60    5.30
   9  -3   2   14.96    2.93
   9  -3   2   15.53    2.94
  -9  -3  -2    9.54    2.83
   9   3   2   16.88    3.29
   9   3   2   12.62    1.65
   9  -3   2   19.47    3.71
   9  -3   2   15.48    3.73
   9  -3   3    8.32    1.92
  -9  -3  -3    7.01    2.45
   9   3   3    5.52    1.98
   9  -3   3    4.67    2.12
   9  -3   3    4.78    0.79
   9  -3   3    7.82    2.81
   9   3   4    2.99    1.79
   9  -3   4    1.96    1.99
   9   3   5  239.66   13.70
   9  -3   5  245.90   10.44
   9   3   6   50.34    6.33
   9  -3   6   47.06    7.41
   9  -3   6   36.13    5.84
   9  -3   6   34.49    4.21
   9  -3   7   39.63    4.91
   9   3   7   43.84    6.20
   9  -3   7   52.90    7.99
   9   3   7   53.52    8.53
   9  -3   7   34.75    5.65
   9   3   8   24.11    4.75
   9  -3   8   17.74    4.81
   9   3   8   19.34    5.33
   9  -3   8   27.29    4.84
   9   3   9   62.15    7.97
   9  -3   9   59.78    7.19
   9  -4  -9    2.11    1.28
  -9   4   9    3.09    1.68
  -9  -4   9    2.74    1.85
  -9   4   9    0.89    2.28
   9  -4  -8   -0.76    1.38
  -9   4   8    0.63    1.14
  -9  -4   8   -0.89    2.27
  -9   4   8   -0.86    2.60
  -9  -4   7   33.14    5.42
  -9   4   7   40.83    6.03
  -9   4   7   53.26    5.70
   9  -4  -7   53.51    6.42
  -9  -4   6    0.87    1.77
  -9   4   6    2.54    1.72
   9  -4  -6    1.71    1.34
  -9   4   6    2.63    1.46
  -9  -4   5   63.19    7.17
  -9   4   5   79.12    7.88
  -9   4   5   69.11    6.59
   9  -4  -5   73.44    7.84
  -9  -4   4   -0.87    0.79
  -9   4   4    1.69    1.53
  -9   4   4    0.71    0.91
   9  -4  -4    0.93    1.19
  -9  -4   3   82.91    8.18
  -9   4   3   69.73    7.44
  -9   4   3   75.29    7.17
   9  -4  -3   81.66    8.46
   9   4  -2    0.97    0.43
  -9  -4   2    0.90    1.41
  -9   4   2    2.64    1.60
   9   4  -2    1.97    0.56
  -9   4   2    0.76    1.19
   9  -4  -2    1.98    1.56
   9  -4  -1    4.12    2.12
   9  -4  -1    8.35    2.17
  -9  -4   1    6.51    2.54
  -9   4   1   11.91    3.22
   9  -4  -1    8.58    2.40
  -9   4   1    7.12    2.49
   9  -4   0    6.12    2.69
   9  -4   0    6.79    2.17
   9  -4   0    5.11    2.57
   9   4   0    0.89    1.98
   9  -4   0    4.19    1.90
   9  -4   1  375.02   16.56
   9  -4   1  407.79   15.75
   9  -4   1  400.90   17.41
   9  -4   1  420.38   20.68
   9  -4   2   82.52    7.02
   9  -4   2   81.74    7.77
   9  -4   2   74.83    8.66
   9   4   3  150.17   10.43
   9  -4   3  130.80   10.20
   9  -4   3  132.76   11.52
   9   4   4   50.69    6.33
   9  -4   4   52.06    6.68
   9  -4   4   53.47    7.57
   9   4   5  102.63    9.29
   9  -4   5  106.08    9.71
   9   4   5   89.56   10.25
   9  -4   5   80.43    9.01
   9   4   6   -0.94    1.70
   9  -4   6    1.24    1.13
   9   4   6    1.26    1.62
   9  -4   6   -1.07    1.69
   9   4   7  119.10   10.62
   9  -4   7  125.96   12.50
   9   4   7  121.07   12.26
   9  -4   7  102.92   10.25
   9   4   8   -1.06    1.92
   9  -4   8    1.32    2.07
   9   4   8   -1.33    2.10
   9  -4   8   -1.06    1.66
   9  -4   9   29.54    5.49
  -9  -5   9   61.59    7.65
  -9   5   9   45.22    6.40
  -9   5   9   51.85    6.03
   9  -5  -9   54.15    6.22
  -9   5   8    0.74    1.35
  -9  -5   8   -0.90    2.16
  -9   5   8   -0.87    1.94
   9  -5  -8    0.81    1.63
  -9   5   7   16.66    3.51
  -9  -5   7    4.46    2.43
  -9   5   7    8.65    2.94
   9  -5  -7   10.41    3.43
  -9  -5   6    0.88    1.13
  -9   5   6   -0.85    1.55
   9  -5  -6   -0.92    1.18
  -9   5   6   -0.77    1.56
  -9  -5   5  110.45    9.74
  -9   5   5  145.31   10.58
  -9   5   5  122.92    9.66
   9  -5  -5  116.29   10.32
  -9  -5   4   10.49    3.08
  -9   5   4   13.51    3.52
   9  -5  -4   14.16    4.01
  -9   5   4   12.27    3.16
  -9  -5   3    4.40    2.26
  -9   5   3    5.16    2.07
   9  -5  -3    3.16    2.34
  -9   5   3    4.22    2.03
  -9  -5   2   -0.91    1.84
  -9   5   2    0.88    1.60
  -9   5   2    0.87    1.93
   9  -5  -2    1.08    0.98
  -9  -5   1  178.65   12.48
   9  -5  -1  177.66   11.12
  -9   5   1  164.15   11.74
   9  -5  -1  182.41   13.54
   9   5  -1  145.46    6.36
   9  -5   0   37.19    5.24
  -9   5   0   40.06    5.89
   9  -5   1   -0.81    1.27
   9  -5   1    3.38    2.50
   9  -5   2    2.54    1.72
   9  -5   2    4.56    2.74
   9  -5   3   33.98    5.36
   9  -5   3   43.81    6.81
   9   5   4    5.47    2.48
   9  -5   4    8.62    3.01
   9  -5   4    4.64    2.98
   9   5   5  201.56   13.66
   9  -5   5  207.92   14.20
   9  -5   5  194.35   14.50
   9   5   5  223.60   15.68
   9  -5   5  204.76   15.08
   9   5   6   35.69    5.71
   9  -5   6   42.67    6.81
   9   5   6   36.62    6.09
   9  -5   6   51.11    7.50
   9   5   6   36.16    6.51
   9  -5   6   40.64    6.70
   9  -5   7   51.28    7.81
   9   5   7   55.58    8.29
   9  -5   7   54.20    7.67
   9  -5   8   13.73    4.24
   9   5   8    6.31    3.44
  -9   6   8    2.57    2.05
  -9  -6   8    2.73    1.85
  -9   6   8    0.87    1.77
   9  -6  -8    3.41    1.89
  -9  -6   7   35.73    5.85
  -9   6   7   41.87    6.06
  -9   6   7   61.80    7.16
   9  -6  -7   70.45    7.89
  -9  -6   6    2.64    1.96
  -9   6   6    5.07    2.17
   9  -6  -6    0.99    1.56
  -9   6   6    2.65    1.79
  -9  -6   5   25.26    4.76
  -9   6   5   29.13    4.92
   9  -6  -5   22.06    4.69
  -9   6   5   31.54    5.19
  -9  -6   4    0.87    1.11
  -9   6   4    0.84    1.08
   9  -6  -4    3.31    2.24
  -9   6   4    0.93    1.20
  -9  -6   3   39.86    5.84
  -9   6   3   36.61    5.46
   9  -6  -3   53.24    7.45
  -9   6   3   53.61    6.94
  -9  -6   2    0.90    1.63
   9  -6  -2    1.15    1.81
  -9   6   2   -0.98    1.54
   9  -6  -1    4.79    2.40
  -9   6   1    6.05    2.75
   9  -6  -1    9.42    3.86
   9  -6   0    4.09    2.23
  -9   6   0   -1.04    1.33
   9  -6   1  198.46   12.70
   9  -6   2   18.02    4.02
   9  -6   3   45.36    6.41
   9  -6   4   46.73    6.63
   9  -6   4   54.27    7.39
   9   6   4   63.48    7.97
   9  -6   5  101.95   10.17
   9   6   5   67.17    8.45
   9   6   6   10.02    3.36
   9  -6   6   12.11    3.87
   9   6   6   13.35    4.04
   9   6   7   72.73    8.90
   9  -7  -5   73.35    8.78
   9  -7  -4   34.06    6.15
  -9   7   4   30.28    5.55
   9  -7  -3    9.65    3.79
  -9   7   3    3.21    2.38
   9  -7  -2   21.04    5.16
  -9   7   2   15.31    4.22
  -9   7   1   44.79    6.86
  -9   7   0    3.43    2.32
   9   7   2    4.44    2.42
   9   7   3    7.28    2.61
 -10   0   9   -0.98    1.26
 -10   0   8    3.82    2.45
 -10   0   7   -0.94    2.41
 -10   0   7    0.54    1.09
 -10   0   6  166.06   12.05
 -10   0   6  166.00    8.14
 -10   0   6  176.42    9.43
 -10   0   5    0.94    1.70
 -10   0   4    0.94    0.85
  10   0  -3   -0.82    1.05
 -10   0   3    0.95    1.50
 -10   0   2   47.67    3.83
  10   0  -2   49.54    3.51
  10   0  -1   -0.82    1.29
  10   0  -1    0.33    0.52
 -10   0   1   -2.04    2.27
 -10   0   1    0.33    0.88
  10   0  -1   -0.37    0.67
  10   0   0   30.30    4.79
 -10   0   0   30.42    3.19
 -10   0   0   23.49    5.06
  10   0   0   29.47    3.42
  10   0   0   33.43    3.59
  10   0   1   -0.82    0.74
  10   0   1    0.46    0.83
  10   0   1   -0.49    0.89
  10   0   2  486.14   16.85
  10   0   2  480.77   17.41
  10   0   2  454.37   19.67
  10   0   3   -0.81    1.04
  10   0   3   -0.42    0.66
  10   0   3    1.17    1.06
  10   0   3   -0.65    1.17
  10   0   4   18.49    3.73
  10   0   4   15.82    2.78
  10   0   5   -0.79    1.01
  10   0   5   -0.57    0.74
  10   0   6   69.64    6.64
  10   0   6   69.32    7.05
  10   0   7    0.75    1.36
  10   0   7    1.46    1.87
  10   0   8   92.18   11.77
  10   0   8  109.75    8.72
 -10  -1   9    3.93    2.19
 -10   1   9    8.78    2.94
 -10   1   9    6.30    2.14
 -10  -1   8  446.01   20.70
 -10   1   8  477.32   21.28
 -10   1   8  436.38   16.29
 -10  -1   7   -1.89    2.43
 -10   1   7   -0.94    2.09
 -10  -1   7    5.26    1.78
 -10   1   7    3.62    1.48
 -10  -1   7    3.14    1.29
  10  -1  -6    0.82    1.05
 -10  -1   6    0.94    1.48
 -10   1   6    0.93    1.47
 -10  -1   6    0.49    0.89
 -10   1   6    0.60    1.21
  10  -1  -5    6.63    2.49
 -10  -1   5    5.66    2.71
 -10  -1   5    5.58    1.74
 -10   1   5    5.56    1.19
 -10  -1   4   96.51    9.18
 -10  -1   4   95.75    6.40
  10  -1  -4   87.55    8.23
  10  -1  -3   25.32    4.42
 -10   1   3   22.02    1.48
 -10  -1   3   27.85    5.10
  10   1  -2    3.73    0.88
  10  -1  -2    7.12    1.56
 -10  -1   2    4.87    2.65
  10  -1  -1   24.26    2.97
 -10  -1   1   21.47    4.75
  10  -1  -1   26.64    3.38
  10   1  -1   23.66    2.58
 -10  -1   1   25.04    3.36
  10  -1  -1   18.93    4.00
 -10  -1   0   58.02    5.19
 -10  -1   0   61.01    7.84
  10  -1   0   65.39    5.51
  10   1   0   59.30    4.11
  10   1   0   65.68    4.94
  10  -1   0   56.95    4.93
  10  -1   0   58.04    6.88
  10  -1   1    2.05    1.40
  10   1   1    1.60    1.26
  10  -1   1    1.63    1.10
  10   1   1    1.08    0.98
 -10  -1  -1   -0.52    0.94
  10   1   1    0.96    0.87
  10  -1   1    0.87    1.12
 -10  -1  -2   70.13    6.20
  10   1   2   87.45    5.87
  10  -1   2   76.16    6.50
  10   1   2   73.58    6.19
  10  -1   2   75.37    6.42
  10  -1   2   74.30    7.71
  10   1   2   67.97    7.07
  10   1   3   13.26    3.09
 -10  -1  -3    6.71    2.15
  10   1   3    8.29    2.21
  10  -1   3    5.66    1.46
  10  -1   3    6.66    2.34
  10   1   3    5.71    2.16
  10  -1   3    7.18    2.65
  10  -1   3    6.10    2.38
  10   1   4  103.70    7.58
  10  -1   4  106.06    6.47
 -10  -1  -4  104.82    8.02
  10  -1   4  107.62    9.36
  10   1   4  107.59    8.78
  10   1   5   -0.75    1.19
  10   1   5    0.66    1.19
  10  -1   5    0.99    0.90
  10  -1   5   -0.86    1.35
  10   1   6  204.88   12.03
  10  -1   6  195.52   12.58
  10  -1   7    1.45    1.32
  10   1   7    0.81    1.03
  10  -1   7    2.47    1.49
  10   1   8   76.28    7.94
  10  -1   8   64.53    9.52
  10  -1   8   80.67    7.80
 -10  -2   9   28.71    5.26
 -10   2   9   29.38    5.21
 -10  -2   8   49.53    6.99
 -10   2   8   48.84    6.73
 -10  -2   7   85.07    8.69
 -10   2   7   71.61    7.99
 -10   2   7   73.47    4.67
 -10   2   7   79.60    5.52
  10  -2  -7   91.95    8.30
 -10   2   6  253.51    7.14
 -10  -2   6  270.14   15.70
 -10   2   6  262.52   15.23
 -10  -2   6  314.43   13.37
  10  -2  -6  315.74   15.69
 -10  -2   5   62.91    7.53
 -10   2   5   63.15    7.45
 -10  -2   5   74.76    6.37
  10  -2  -5   71.11    7.47
 -10  -2   4    4.77    2.29
 -10   2   4    3.78    2.43
 -10  -2   4    5.49    1.86
  10  -2  -4    7.86    2.75
 -10  -2   3   -0.97    1.52
 -10   2   3   -0.96    1.74
 -10  -2   3    0.54    0.99
  10  -2  -3    0.89    1.14
 -10  -2   2  130.74   10.80
 -10   2   2  121.92   10.42
  10  -2  -2  121.21    6.67
 -10  -2   1   91.99    9.39
 -10   2   1   83.00    8.93
  10  -2  -1  102.29    7.08
  10   2  -1   77.59    4.50
  10  -2  -1   83.51    5.87
 -10  -2   1   70.14    6.31
  10  -2   0    8.19    2.00
 -10  -2   0    4.33    2.95
 -10   2   0    2.15    2.39
  10  -2   0    8.74    2.24
  10   2   0    7.19    1.72
  10  -2   0    3.71    2.23
 -10  -2   0    5.40    1.96
 -10  -2  -1  136.37    9.07
  10  -2   1  146.15    9.40
  10   2   1  148.12    6.09
  10   2   1  146.47    8.19
  10  -2   1  136.21    8.44
  10  -2   1  169.43   12.09
 -10  -2  -2  404.96   16.89
  10   2   2  387.65   12.44
  10  -2   2  414.61   17.04
  10  -2   2  411.41   16.10
  10  -2   2  417.26   19.75
 -10  -2  -3   26.17    4.27
  10  -2   3   22.98    3.18
  10  -2   3   19.40    1.93
  10   2   3   26.32    3.87
  10  -2   3   22.98    4.05
  10  -2   3   21.87    4.41
  10  -2   4    4.00    1.92
  10   2   4    5.40    2.03
  10  -2   4    4.59    1.21
 -10  -2  -4    4.57    1.96
  10  -2   4    4.75    2.44
  10   2   5    6.61    2.41
  10  -2   5    6.20    1.64
  10   2   6  122.90    9.71
  10  -2   6  110.10    9.89
  10   2   7   11.32    3.26
  10  -2   7   10.09    3.70
  10   2   7    7.29    3.50
  10  -2   7    9.10    2.86
  10   2   8   54.78    6.98
  10  -2   8   48.88    8.34
  10  -2   8   64.45    7.45
  10   2   9    2.03    1.84
 -10  -3   8  288.01   16.53
 -10   3   8  257.31   15.81
 -10   3   8  282.65   12.37
  10  -3  -8  299.26   15.36
  10  -3  -7    5.85    2.40
 -10  -3   7    5.82    2.64
 -10   3   7    5.73    2.45
 -10   3   7    9.20    2.36
 -10  -3   6   58.23    7.38
 -10   3   6   51.46    6.82
 -10   3   6   54.81    5.46
  10  -3  -6   60.20    7.06
 -10  -3   5   10.63    3.28
 -10   3   5    9.48    3.11
 -10   3   5    7.08    2.01
  10  -3  -5   11.72    3.38
 -10  -3   4  267.56   15.76
 -10   3   4  305.67   16.56
 -10   3   4  287.13   13.31
  10  -3  -4  277.18   15.69
 -10  -3   3    7.83    3.08
 -10   3   3    4.81    2.47
 -10  -3   3    3.22    1.55
  10  -3  -3    3.80    1.93
 -10  -3   2   10.04    3.53
 -10   3   2    9.96    3.26
  10  -3  -2    6.83    2.66
 -10  -3   1   75.36    8.52
 -10   3   1   69.11    8.08
  10  -3  -1   73.11    6.49
  10  -3  -1   60.88    5.43
  10  -3   0  227.86   12.88
 -10  -3   0  198.08   14.22
 -10   3   0  219.58   14.77
  10  -3   0  236.42   12.28
  10   3   0  204.73    9.06
  10  -3   0  230.78   10.95
  10  -3   0  227.52   14.59
 -10  -3   0  233.25   12.59
 -10  -3  -1   22.02    4.08
  10  -3   1   28.26    4.43
  10  -3   1   30.79    4.69
  10  -3   1   25.59    5.11
  10  -3   2    1.78    1.08
  10  -3   2    6.00    2.15
  10   3   2    3.59    0.91
  10  -3   2    3.10    2.10
  10   3   3    3.55    1.58
  10   3   3    0.88    0.76
  10  -3   3    2.44    1.81
  10  -3   3    1.04    1.33
  10   3   4   65.22    6.85
  10  -3   4   53.81    6.80
  10  -3   4   52.17    7.09
  10   3   5   17.98    3.86
  10  -3   5    9.35    3.14
  10   3   6  146.84   11.05
  10  -3   6  170.50   14.67
  10   3   6  141.86   13.79
  10  -3   6  168.81   12.84
  10   3   7   19.77    4.28
  10  -3   7    8.47    4.06
  10   3   7   20.09    5.21
  10  -3   7   12.15    3.68
  10   3   8   95.18    9.52
  10  -3   8   78.88    8.57
  10  -3   9   23.62    4.79
  10  -4  -9   40.91    5.47
  10  -4  -8   15.72    3.69
 -10  -4   8   18.93    4.44
 -10   4   8   18.51    4.34
 -10   4   8   19.26    3.70
 -10  -4   7   11.90    3.72
 -10   4   7    8.71    2.92
 -10   4   7   10.70    2.72
  10  -4  -7    7.90    2.65
 -10  -4   6  203.42   13.81
 -10   4   6  238.28   14.63
 -10   4   6  248.85   12.87
  10  -4  -6  218.01   14.03
 -10  -4   5    1.96    2.18
 -10   4   5    1.91    1.94
 -10   4   5    4.28    1.83
  10  -4  -5    2.88    2.31
 -10  -4   4    0.98    1.78
 -10   4   4    5.75    2.61
 -10   4   4    2.96    1.90
  10  -4  -4    1.99    1.57
 -10  -4   3    3.94    2.19
 -10   4   3    3.88    2.33
 -10   4   3    1.53    1.39
  10  -4  -3    7.20    2.80
 -10  -4   2   73.69    8.46
 -10   4   2   76.18    8.39
  10  -4  -2   84.27    9.11
 -10  -4   1    1.06    2.54
 -10   4   1    1.04    2.31
  10  -4  -1    4.86    1.99
  10  -4   0   19.24    3.87
  10  -4   0   25.33    4.32
  10  -4   1   48.97    5.87
  10  -4   1   42.49    5.57
  10  -4   1   38.08    6.39
  10  -4   2   50.55    6.20
  10  -4   2   49.92    7.33
  10  -4   3   75.71    7.81
  10  -4   3   82.46    9.33
  10   4   4    2.53    1.88
  10  -4   4    4.67    2.25
  10  -4   4    4.60    2.56
  10   4   5   13.45    3.83
  10  -4   5   23.70    4.75
  10  -4   5   27.49    5.51
  10  -4   6   35.59    6.03
  10   4   6   32.42    5.36
  10  -4   6   41.37    7.18
  10   4   6   24.56    5.83
  10  -4   6   28.40    5.58
  10   4   7    6.03    2.58
  10  -4   7    4.11    3.05
  10   4   7    5.59    2.83
  10  -4   7    1.12    1.44
 -10   5   8   62.58    8.03
 -10   5   8   75.86    7.39
  10  -5  -8   76.85    8.05
 -10  -5   7    4.99    2.56
 -10   5   7    4.83    2.32
 -10   5   7   -0.78    1.42
  10  -5  -7    0.93    1.68
 -10  -5   6   31.59    5.63
 -10   5   6   29.70    5.66
 -10   5   6   38.00    5.47
  10  -5  -6   42.05    6.73
 -10  -5   5    3.94    2.53
 -10   5   5    3.82    2.29
 -10   5   5    5.82    2.39
  10  -5  -5    7.20    3.10
 -10  -5   4  173.11   12.68
 -10   5   4  187.03   12.98
 -10   5   4  175.37   11.92
  10  -5  -4  164.08   12.92
 -10  -5   3    2.02    2.24
 -10   5   3    3.92    2.18
 -10   5   3   -0.88    1.39
  10  -5  -3    1.11    1.42
 -10   5   2   -1.00    2.58
 -10   5   2    0.91    1.43
  10  -5  -2   -1.14    2.08
  10  -5  -1   72.78    7.55
  10  -5  -1   67.05    8.56
  10  -5   0  137.23   10.14
  10  -5   1   22.54    4.31
  10  -5   1   31.63    6.16
  10  -5   2   18.43    3.99
  10  -5   2   15.94    4.46
  10  -5   3    1.85    1.88
  10  -5   3    1.23    1.58
  10   5   4    2.80    2.08
  10  -5   4    0.98    1.26
  10  -5   4    2.48    2.25
  10   5   5   10.69    3.53
  10  -5   5    2.48    3.74
  10   5   5    3.82    2.83
  10  -5   5    6.18    2.97
  10  -5   6   38.34    6.99
  10   5   6   42.99    7.41
 -10   6   7   -4.76    3.86
 -10   6   7    6.25    2.69
 -10   6   6   67.60    7.70
 -10  -6   6   55.93    7.53
 -10   6   6   72.00    7.89
  10  -6  -6   62.53    7.87
 -10  -6   5    1.93    1.96
 -10   6   5    0.93    1.90
 -10   6   5    4.73    2.85
  10  -6  -5    1.10    1.73
 -10  -6   4    9.88    3.24
 -10   6   4   12.37    3.77
 -10   6   4   12.58    3.63
  10  -6  -4    8.05    3.14
 -10  -6   3    9.02    3.28
 -10   6   3   13.47    3.60
 -10   6   3    7.96    2.86
  10  -6  -3    7.17    3.07
 -10  -6   2  122.11   10.87
 -10   6   2  129.35   11.28
  10  -6  -2  151.40   13.18
  10  -6  -1   10.82    3.12
 -10   6   1    7.35    2.86
  10  -6  -1    8.82    3.43
  10  -6   0   33.11    5.14
  10  -6   1   10.60    3.21
  10  -6   4    1.14    2.53
  10   6   4    3.48    2.36
  10   6   5    3.56    2.15
  10   6   6    2.41    2.19
 -11   0   7    9.61    3.22
 -11   0   6   -4.26    2.55
 -11   0   5  208.16   14.40
 -11   0   4   -1.07    1.68
 -11   0   3   65.93    8.22
  11   0  -3   60.74    7.21
 -11   0   3   65.71    4.54
 -11   0   2   -0.31    0.68
 -11   0   2   -1.11    2.67
 -11   0   1  445.34   22.27
 -11   0   1  446.33   13.25
  11   0  -1  426.40   13.44
  11   0  -1  416.49   19.55
  11   0   0   -0.90    1.42
  11   0   0    0.42    0.86
 -11   0   0   -1.20    2.67
  11   0   0   -0.42    0.93
 -11   0   0   -0.34    0.88
  11   0   1    2.04    1.23
  11   0   1    3.58    2.15
  11   0   1    4.73    1.55
  11   0   2   -0.89    1.62
  11   0   2    0.53    0.68
  11   0   2    0.59    1.92
  11   0   3  204.13   11.00
  11   0   3  216.70   13.58
  11   0   4   -1.75    1.37
  11   0   4   -0.48    0.98
  11   0   4    0.67    1.22
  11   0   5   16.34    3.75
  11   0   5   14.99    2.95
  11   0   6    0.84    1.71
  11   0   6   -0.64    0.82
  11   0   7   69.31    7.56
  11   0   8   -0.78    1.73
 -11  -1   7  130.34   11.51
 -11   1   7  117.59   10.92
 -11   1   6    2.63    1.09
 -11   1   6    1.06    3.48
 -11  -1   5  276.99   16.69
 -11   1   5  268.70   16.42
 -11  -1   5  281.40   11.79
 -11   1   5  257.43    7.87
  11  -1  -5  302.66   16.17
  11  -1  -4    1.83    1.66
 -11  -1   4    3.23    2.39
 -11   1   4    3.20    2.17
 -11  -1   3  290.46   17.55
  11  -1  -3  385.65   18.40
 -11  -1   2   25.60    5.55
 -11  -1   2   24.00    3.33
  11  -1  -1   29.98    5.20
 -11  -1   1   27.85    3.63
 -11  -1   1   31.26    5.87
  11  -1  -1   29.52    3.81
  11  -1  -1   31.17    3.43
  11   1   0    5.98    1.70
  11  -1   0   10.05    2.20
 -11  -1   0    4.82    3.28
 -11  -1   0    8.57    2.24
  11  -1   0    7.69    2.03
  11   1   0    9.74    1.83
  11  -1   0   11.31    3.32
 -11  -1  -1  387.71   14.83
  11  -1   1  380.27   15.06
  11   1   1  364.51   12.48
  11   1   1  369.39   14.08
  11  -1   1  398.84   14.96
  11  -1   1  370.37   18.52
  11  -1   2    0.62    1.37
  11   1   2    1.72    1.23
 -11  -1  -2    1.15    0.90
  11   1   2    0.58    1.18
  11  -1   2    1.89    1.71
  11   1   3    1.56    1.15
  11   1   3    2.03    1.22
 -11  -1  -3    1.23    1.58
  11  -1   3   -0.94    1.21
  11   1   4    4.63    1.89
  11  -1   4    5.24    2.26
  11  -1   4    9.36    2.94
  11   1   5   42.62    5.12
  11  -1   5   34.22    5.67
  11   1   6   -0.72    1.13
  11  -1   6    0.91    1.16
  11  -1   7   30.82    5.14
  11   1   7   24.45    4.26
  11  -1   8    1.69    1.33
  11   1   8    0.87    1.57
  11  -2  -7   11.58    3.33
 -11   2   7   14.98    4.01
 -11  -2   6   68.04    8.28
 -11   2   6   58.57    7.70
  11  -2  -6   81.04    8.26
 -11  -2   5   91.28    9.59
 -11   2   5   85.02    9.30
 -11  -2   5   95.11    7.32
 -11  -2   4   69.35    8.44
 -11   2   4   79.35    8.91
 -11  -2   4   73.03    6.33
  11  -2  -4   90.20    8.92
 -11  -2   3   65.28    8.11
  11  -2  -3   64.68    7.69
 -11  -2   2    4.50    3.07
 -11   2   2    2.24    2.49
 -11  -2   2    4.30    2.01
 -11  -2   1  291.67   17.90
 -11   2   1  299.90   18.21
  11  -2  -1  302.96   13.24
  11  -2  -1  305.16   12.04
 -11  -2   1  291.19   13.45
 -11  -2   0   76.27    6.82
 -11  -2   0   45.95    7.19
 -11   2   0   52.68    7.83
  11  -2   0   64.07    6.04
  11  -2   0   61.85    5.44
  11  -2   0   68.22    8.06
 -11  -2  -1    3.95    1.98
  11  -2   1    5.20    2.04
  11   2   1    5.41    1.23
  11  -2   1    2.02    1.83
 -11  -2  -2   81.50    7.33
  11  -2   2   77.61    7.12
  11   2   2   73.15    4.85
  11  -2   2   65.98    8.02
 -11  -2  -3  125.48    9.47
  11   2   3  130.15    7.21
  11  -2   3  134.66    9.82
  11  -2   3  134.93   11.42
  11   2   4   15.43    3.23
  11  -2   4   14.83    3.59
  11  -2   4   13.14    3.68
  11  -2   5   10.66    3.13
  11   2   5   14.77    3.36
  11  -2   5   11.05    3.42
  11   2   6    2.39    1.77
  11  -2   6    5.93    2.54
  11   2   7   30.30    5.12
  11  -2   7   32.76    5.49
  11   2   8   23.23    4.64
  11  -2   8   23.24    4.64
  11  -3  -8    0.87    1.77
 -11  -3   7  110.50   10.62
 -11   3   7  105.42   10.45
  11  -3  -7  113.36    9.88
  11  -3  -6   13.19    3.63
 -11  -3   6    5.43    3.69
 -11   3   6    7.47    3.50
 -11  -3   5  100.04   10.14
 -11   3   5   87.62    9.39
  11  -3  -5   97.27    9.44
 -11  -3   4   26.21    5.26
 -11   3   4   27.90    5.35
  11  -3  -4   22.94    4.72
 -11  -3   3  105.71   10.49
 -11   3   3   96.63    9.87
  11  -3  -3  121.68   10.65
 -11  -3   2   42.22    6.90
 -11   3   2   32.55    6.15
  11  -3  -2   43.87    6.46
 -11  -3   1   23.58    5.47
 -11   3   1   24.40    5.29
  11  -3  -1   21.42    3.70
  11  -3   0    0.68    1.23
  11  -3   0    1.08    1.38
  11  -3   1  139.92    9.81
  11  -3   1  157.10   12.57
  11  -3   2   -0.77    1.40
  11  -3   2   -1.10    2.00
  11  -3   3   12.42    3.28
  11  -3   3   11.04    3.62
  11   3   4    1.53    1.55
  11  -3   4    0.90    1.15
  11  -3   4   -1.10    2.83
  11   3   5   27.00    4.66
  11  -3   5   27.60    5.06
  11  -3   5   36.13    6.22
  11  -3   6    2.03    1.84
  11   3   6   -0.88    1.60
  11  -3   6   -1.45    3.22
  11   3   6    1.49    1.91
  11  -3   6    2.16    1.96
  11   3   7    3.74    2.24
  11  -3   7    5.29    2.88
  11  -4  -8   33.77    5.38
  11  -4  -7   52.76    6.84
 -11   4   7   51.56    7.35
 -11  -4   6   41.63    6.55
 -11   4   6   26.73    5.35
 -11   4   6   45.98    5.55
  11  -4  -6   36.43    5.89
 -11  -4   5  172.02   13.39
 -11   4   5  156.33   12.62
 -11   4   5  170.17   11.04
  11  -4  -5  176.56   13.05
 -11  -4   4    4.37    2.43
 -11   4   4    1.07    1.68
  11  -4  -4    6.34    2.71
 -11  -4   3   49.35    7.17
 -11   4   3   53.99    7.40
  11  -4  -3   46.84    7.11
 -11  -4   2   -1.15    3.13
 -11   4   2    1.13    3.07
  11  -4  -2    1.12    1.44
 -11  -4   1  329.61   19.23
 -11   4   1  297.18   18.04
  11  -4  -1  301.38   14.99
  11  -4   0   16.51    3.61
  11  -4   1   -0.80    1.77
  11  -4   1    1.18    1.51
  11  -4   2    1.68    1.32
  11  -4   2   -1.19    1.52
  11  -4   3  193.26   12.89
  11  -4   3  178.12   14.08
  11  -4   4   -0.95    1.92
  11  -4   4    1.20    1.53
  11   4   5    4.50    2.31
  11   4   6   11.41    3.35
 -11  -5   6    1.10    2.23
 -11   5   6   -1.06    1.93
 -11   5   6   -1.64    1.97
 -11  -5   5   22.88    4.97
 -11   5   5   41.03    6.49
 -11   5   5   32.26    5.13
  11  -5  -5   25.95    5.99
 -11  -5   4    3.32    2.25
 -11   5   4    5.40    2.77
 -11   5   4    1.75    1.78
  11  -5  -4    7.89    3.24
 -11  -5   3  111.37   11.10
 -11   5   3  137.27   11.90
 -11   5   3  120.02   10.23
  11  -5  -3  136.46   12.25
 -11  -5   2   23.06    5.25
 -11   5   2   29.18    5.69
  11  -5  -2   37.16    6.54
  11  -5  -1    5.57    2.40
  11  -5  -1    2.45    2.22
  11  -5   0   -0.82    1.48
  11  -5   1  124.27    9.93
  11  -5   2    0.91    1.16
  11  -5   5   46.38    7.65
  11   5   5   49.23    8.18
 -11   6   5  200.77   14.27
 -11  -6   4    5.49    2.82
 -11   6   4    3.18    2.54
 -11   6   4    0.99    1.80
 -11  -6   3    1.11    3.03
 -11   6   3   -1.07    3.76
 -11   6   3    1.02    1.60
  11   6   4    7.54    3.43
 -12   0   6   55.68    8.10
 -12   0   5   -1.19    2.15
 -12   0   4  204.34   15.15
 -12   0   3   -2.41    3.62
 -12   0   2   96.39   10.72
  12   0  -1   -0.98    1.54
 -12   0   1   -1.29    4.06
 -12   0   0  406.74   22.67
  12   0   0  404.07   14.02
  12   0   0  406.12   19.93
  12   0   1   -0.98    1.53
  12   0   1   -0.47    0.86
  12   0   2   15.52    3.95
  12   0   2   18.73    3.16
  12   0   3   -0.96    1.23
  12   0   3   -0.60    1.09
  12   0   4  160.91   10.25
  12   0   4  146.84   11.67
  12   0   5   -0.93    1.69
  12   0   5    0.74    1.51
  12   0   6    0.91    1.16
  12   0   7   -0.88    1.59
 -12   1   6  177.49   14.32
 -12  -1   5   -1.19    2.17
 -12   1   5   -1.19    1.52
 -12  -1   4  114.94   11.42
 -12   1   4  133.21   12.09
  12  -1  -4  115.01   10.42
  12  -1  -3   -1.00    1.28
 -12  -1   3   -1.22    2.21
 -12   1   3   -1.21    2.90
 -12  -1   2   77.72    9.59
 -12   1   2   66.25    8.94
  12  -1  -1   -1.01    1.30
 -12  -1   1   -1.29    4.07
 -12   1   1   -2.58    4.23
  12  -1   0   39.53    6.20
 -12  -1   0   41.10    7.54
  12  -1   0   32.16    3.99
  12  -1   1    2.03    2.06
  12  -1   1    1.73    1.28
  12  -1   2  298.31   13.81
  12  -1   2  282.29   16.68
  12  -1   3   -1.01    1.59
  12  -1   3    2.06    1.77
  12  -1   4    6.00    2.73
  12  -1   4    5.33    2.19
  12  -1   5    1.97    1.79
  12  -1   5    4.12    2.24
  12  -1   6   52.10    6.95
  12  -1   7    0.93    2.07
  12  -2  -6    9.80    3.33
  12  -2  -5    3.00    2.03
 -12  -2   5    1.20    1.89
 -12   2   5    1.19    1.87
 -12   2   4  292.39   18.03
  12  -2  -4  295.21   16.84
  12  -2  -3   26.96    5.17
 -12  -2   3   22.10    5.24
 -12   2   3   17.07    4.84
 -12  -2   2   34.05    6.50
 -12   2   2   36.25    6.54
 -12  -2   1   20.81    5.42
 -12   2   1   15.49    4.70
  12  -2   0  292.20   13.53
  12  -2   0  280.80   16.99
  12  -2   1    3.97    1.90
  12  -2   1    8.64    3.25
  12  -2   2   12.11    3.04
  12  -2   2    7.57    3.11
  12  -2   3   11.52    3.12
  12  -2   3    9.71    3.67
  12  -2   4  148.62   10.80
  12  -2   4  136.25   11.77
  12   2   5   10.79    2.85
  12  -2   5   14.38    3.56
  12  -2   5   14.83    3.97
  12  -2   6    0.96    1.51
  12  -3  -6  264.82   16.06
  12  -3  -5   10.38    3.65
 -12  -3   5    6.02    2.90
 -12   3   5   11.84    3.72
 -12  -3   4   74.97    9.18
 -12   3   4   63.19    8.45
  12  -3  -4   61.64    7.91
 -12  -3   3   11.18    3.91
 -12   3   3   12.28    4.02
  12  -3  -3    6.53    2.80
 -12  -3   2   78.94    9.79
 -12   3   2  105.45   11.27
  12  -3  -2   98.84   10.15
 -12  -3   1    2.61    3.36
 -12   3   1    2.58    3.09
  12  -3   0    3.48    1.90
  12  -3   0    4.56    2.32
  12  -3   1    2.96    1.65
  12  -3   1    4.60    2.56
  12  -3   2  186.67   11.94
  12  -3   2  204.58   14.82
  12  -3   3   -0.84    1.87
  12  -3   3   -1.16    2.10
  12  -3   4    3.60    2.16
  12   3   5    3.25    1.81
  12   3   6   56.07    6.80
 -12   4   4   82.96    9.66
 -12  -4   4   71.24    9.08
 -12  -4   3   -2.49    3.58
 -12   4   3   -1.22    2.94
 -12  -4   2   20.46    5.32
 -12   4   2   15.06    4.57
  12  -4   0   81.57    7.74
  12  -4   1   14.52    3.67
  12  -4   2  115.19    9.78
 -12   5   3    1.22    1.91
 -12  -5   2   29.00    5.97
 -13   0   1    7.12    4.09
  13   0   0   -1.06    1.66
  13   0   1   39.82    6.34
  13   0   2   -1.04    1.33
 -13   1   2    6.93    4.71
 -13  -1   1   69.81   10.18
 -13   1   1   79.53   10.63
  13  -1  -1   83.32    9.15
  13  -1   0    3.24    2.19
  13  -1   0    3.77    1.69
  13  -1   1    6.88    2.21
  13  -1   2    0.63    1.15
  13  -1   3   65.05    6.61
  13  -1   4    4.48    2.14
  13  -1   5   83.57    8.17
  13  -2   0   79.94    6.96
  13  -2   1   81.60    7.28
  13  -2   2   40.31    5.55
  13  -2   3   50.08    6.15
  13  -2   4    5.79    2.71
  13  -3   0    3.55    1.83
  13  -3   1    7.45    2.44
  13  -3   2    4.78    2.29
   0   0   0    0.00    0.00



TITL CK-B079 in P2(1)/n
REM P2(1)/n (#14 in standard setting)
CELL 0.71073   9.905411   7.110659  10.251124  90.0000  92.9373  90.0000
ZERR    3.00   0.000345   0.000243   0.000422   0.0000   0.0032   0.0000
LATT  1
SYMM -x+1/2, y+1/2,-z+1/2
SFAC C H N O
UNIT 33.00 30.00 3.00 3.00
TREF
HKLF 4
END
_computing_structure_solution     'SHELXT 2018/2 (Sheldrick, 2018)'
_computing_structure_solution     'SHELXT 2018/2 (Sheldrick, 2018)'
;
_shelx_hkl_checksum              36138
_olex2_submission_special_instructions 'No special instructions were received'
_oxdiff_exptl_absorpt_empirical_details
;
Empirical correction (ABSPACK) includes:
- Absorption correction using spherical harmonics
- Frame scaling
;
_oxdiff_exptl_absorpt_empirical_full_max 1.294
_oxdiff_exptl_absorpt_empirical_full_min 0.682
loop_
_space_group_symop_operation_xyz
'x, y, z'
'-x+1/2, y+1/2, -z+1/2'
'-x, -y, -z'
'x-1/2, -y-1/2, z-1/2'
loop_
_atom_site_label
_atom_site_type_symbol
_atom_site_fract_x
_atom_site_fract_y
_atom_site_fract_z
_atom_site_U_iso_or_equiv
_atom_site_adp_type
_atom_site_occupancy
_atom_site_site_symmetry_order
_atom_site_calc_flag
_atom_site_refinement_flags_posn
_atom_site_refinement_flags_adp
_atom_site_refinement_flags_occupancy
_atom_site_disorder_assembly
_atom_site_disorder_group
S1 S 0.42202(3) 0.74970(4) 0.61449(3) 0.01992(10) Uani 1 1 d . . . . .
O1 O 0.13937(8) 0.31103(11) 0.46566(8) 0.01606(18) Uani 1 1 d . . . . .
N3 N 0.15853(10) 0.67529(13) 0.56484(9) 0.0149(2) Uani 1 1 d . . . . .
N2 N 0.22033(10) 0.76354(14) 0.77223(10) 0.0174(2) Uani 1 1 d . . . . .
N1 N 0.08350(11) 0.74786(15) 0.80334(11) 0.0195(2) Uani 1 1 d . . . . .
C1 C 0.25667(11) 0.72791(14) 0.65064(11) 0.0141(2) Uani 1 1 d . . . . .
C3 C 0.22077(12) 0.44101(15) 0.39864(12) 0.0172(2) Uani 1 1 d . . . . .
H3A H 0.212608 0.417165 0.305400 0.021 Uiso 1 1 calc R U . . .
H3B H 0.314914 0.426399 0.427725 0.021 Uiso 1 1 calc R U . . .
C2 C 0.17369(12) 0.63892(15) 0.42706(11) 0.0163(2) Uani 1 1 d . . . . .
H2B H 0.238238 0.727648 0.394395 0.020 Uiso 1 1 calc R U . . .
H2A H 0.087588 0.660509 0.380068 0.020 Uiso 1 1 calc R U . . .
C4 C 0.16867(13) 0.12108(16) 0.43123(13) 0.0234(3) Uani 1 1 d . . . . .
H4C H 0.137337 0.098345 0.342461 0.035 Uiso 1 1 calc R U . . .
H4A H 0.123852 0.036888 0.488081 0.035 Uiso 1 1 calc R U . . .
H4B H 0.264478 0.100458 0.440032 0.035 Uiso 1 1 calc R U . . .
H2 H 0.2781(17) 0.792(2) 0.8294(17) 0.027(4) Uiso 1 1 d . . . . .
H3 H 0.0803(16) 0.671(2) 0.5917(15) 0.024(4) Uiso 1 1 d . . . . .
H1A H 0.0758(16) 0.650(3) 0.8525(18) 0.035(5) Uiso 1 1 d . . . . .
H1B H 0.0609(15) 0.847(2) 0.8470(16) 0.026(4) Uiso 1 1 d . . . . .
loop_
_atom_site_aniso_label
_atom_site_aniso_U_11
_atom_site_aniso_U_22
_atom_site_aniso_U_33
_atom_site_aniso_U_23
_atom_site_aniso_U_13
_atom_site_aniso_U_12
S1 0.01408(16) 0.02321(17) 0.02273(18) -0.00247(11) 0.00330(11) -0.00126(10)
O1 0.0189(4) 0.0119(4) 0.0176(4) -0.0007(3) 0.0021(3) 0.0006(3)
N3 0.0143(5) 0.0161(4) 0.0144(5) -0.0021(3) 0.0020(3) -0.0001(4)
N2 0.0145(5) 0.0235(5) 0.0141(5) -0.0043(4) 0.0006(4) -0.0016(4)
N1 0.0180(5) 0.0247(6) 0.0162(5) -0.0027(4) 0.0045(4) 0.0002(4)
C1 0.0169(5) 0.0101(4) 0.0153(6) 0.0006(4) 0.0011(4) 0.0011(4)
C3 0.0204(5) 0.0164(5) 0.0152(6) -0.0015(4) 0.0057(4) -0.0009(4)
C2 0.0210(5) 0.0151(5) 0.0128(5) 0.0000(4) 0.0014(4) 0.0005(4)
C4 0.0272(6) 0.0137(5) 0.0290(7) -0.0026(5) -0.0023(5) 0.0027(5)
loop_
_atom_type_symbol
_atom_type_description
_atom_type_scat_dispersion_real
_atom_type_scat_dispersion_imag
_atom_type_scat_source
C C 0.0033 0.0016 'International Tables Vol C Tables 4.2.6.8 and 6.1.1.4'
H H 0.0000 0.0000 'International Tables Vol C Tables 4.2.6.8 and 6.1.1.4'
N N 0.0061 0.0033 'International Tables Vol C Tables 4.2.6.8 and 6.1.1.4'
O O 0.0106 0.0060 'International Tables Vol C Tables 4.2.6.8 and 6.1.1.4'
S S 0.1246 0.1234 'International Tables Vol C Tables 4.2.6.8 and 6.1.1.4'
loop_
_geom_angle_atom_site_label_1
_geom_angle_atom_site_label_2
_geom_angle_atom_site_label_3
_geom_angle
_geom_angle_site_symmetry_1
_geom_angle_site_symmetry_3
_geom_angle_publ_flag
C3 O1 C4 111.50(9) . . ?
C1 N3 C2 125.80(10) . . ?
C1 N3 H3 116.8(11) . . ?
C2 N3 H3 117.2(11) . . ?
N1 N2 H2 119.9(12) . . ?
C1 N2 N1 120.13(10) . . ?
C1 N2 H2 119.9(12) . . ?
N2 N1 H1A 108.0(11) . . ?
N2 N1 H1B 109.1(10) . . ?
H1A N1 H1B 108.6(17) . . ?
N3 C1 S1 124.01(9) . . ?
N3 C1 N2 116.51(10) . . ?
N2 C1 S1 119.48(9) . . ?
O1 C3 H3A 109.9 . . ?
O1 C3 H3B 109.9 . . ?
O1 C3 C2 108.79(9) . . ?
H3A C3 H3B 108.3 . . ?
C2 C3 H3A 109.9 . . ?
C2 C3 H3B 109.9 . . ?
N3 C2 C3 113.63(9) . . ?
N3 C2 H2B 108.8 . . ?
N3 C2 H2A 108.8 . . ?
C3 C2 H2B 108.8 . . ?
C3 C2 H2A 108.8 . . ?
H2B C2 H2A 107.7 . . ?
O1 C4 H4C 109.5 . . ?
O1 C4 H4A 109.5 . . ?
O1 C4 H4B 109.5 . . ?
H4C C4 H4A 109.5 . . ?
H4C C4 H4B 109.5 . . ?
H4A C4 H4B 109.5 . . ?
loop_
_geom_bond_atom_site_label_1
_geom_bond_atom_site_label_2
_geom_bond_distance
_geom_bond_site_symmetry_2
_geom_bond_publ_flag
S1 C1 1.7048(12) . ?
O1 C3 1.4259(13) . ?
O1 C4 1.4295(14) . ?
N3 C1 1.3308(15) . ?
N3 C2 1.4512(14) . ?
N3 H3 0.836(16) . ?
N2 N1 1.4126(14) . ?
N2 C1 1.3391(15) . ?
N2 H2 0.822(18) . ?
N1 H1A 0.865(18) . ?
N1 H1B 0.871(16) . ?
C3 H3A 0.9700 . ?
C3 H3B 0.9700 . ?
C3 C2 1.5154(15) . ?
C2 H2B 0.9700 . ?
C2 H2A 0.9700 . ?
C4 H4C 0.9600 . ?
C4 H4A 0.9600 . ?
C4 H4B 0.9600 . ?
loop_
_geom_torsion_atom_site_label_1
_geom_torsion_atom_site_label_2
_geom_torsion_atom_site_label_3
_geom_torsion_atom_site_label_4
_geom_torsion
_geom_torsion_site_symmetry_1
_geom_torsion_site_symmetry_2
_geom_torsion_site_symmetry_3
_geom_torsion_site_symmetry_4
_geom_torsion_publ_flag
O1 C3 C2 N3 48.75(13) . . . . ?
N1 N2 C1 S1 179.39(8) . . . . ?
N1 N2 C1 N3 -1.12(15) . . . . ?
C1 N3 C2 C3 84.77(13) . . . . ?
C2 N3 C1 S1 -3.77(16) . . . . ?
C2 N3 C1 N2 176.76(10) . . . . ?
C4 O1 C3 C2 173.48(9) . . . . ?
