#------------------------------------------------------------------------------
#$Date: 2022-06-09 02:00:02 +0300 (Thu, 09 Jun 2022) $
#$Revision: 275932 $
#$URL: file:///home/coder/svn-repositories/cod/cif/7/71/04/7710450.cif $
#------------------------------------------------------------------------------
#
# This file is available in the Crystallography Open Database (COD),
# http://www.crystallography.net/
#
# All data on this site have been placed in the public domain by the
# contributors.
#
data_7710450
loop_
_publ_author_name
'Riffel, Madeline N.'
'Siegel, Lukas'
'Oliver, Allen Grayson'
'Tsui, Emily Y.'
_publ_section_title
;
 Cluster Self-Assembly and Anion Binding by Metal Complexes of
 Non-Innocent Thiazolidinyl-Thiolate Ligands
;
_journal_name_full               'Dalton Transactions'
_journal_paper_doi               10.1039/D2DT01339H
_journal_year                    2022
_chemical_formula_moiety         'C13 H18 I N3 S2 Zn'
_chemical_formula_sum            'C13 H18 I N3 S2 Zn'
_chemical_formula_weight         472.69
_space_group_crystal_system      triclinic
_space_group_IT_number           2
_space_group_name_Hall           '-P 1'
_space_group_name_H-M_alt        'P -1'
_atom_sites_solution_hydrogens   mixed
_atom_sites_solution_primary     dual
_audit_creation_date             2022-04-12
_audit_creation_method
;
Olex2 1.3
(compiled 2020.11.12 svn.r5f609507 for OlexSys, GUI svn.r6408)
;
_audit_update_record
;
2022-04-20 deposited with the CCDC.	2022-06-08 downloaded from the CCDC.
;
_cell_angle_alpha                104.410(2)
_cell_angle_beta                 101.754(2)
_cell_angle_gamma                107.1140(10)
_cell_formula_units_Z            2
_cell_length_a                   7.4049(3)
_cell_length_b                   10.6270(4)
_cell_length_c                   12.0415(5)
_cell_measurement_reflns_used    9954
_cell_measurement_temperature    120.0
_cell_measurement_theta_max      28.288
_cell_measurement_theta_min      2.991
_cell_volume                     836.94(6)
_computing_cell_refinement       'SAINT V8.40B (?, 2016)'
_computing_data_reduction        'SAINT V8.40B (?, 2016)'
_computing_molecular_graphics    'Olex2 1.3 (Dolomanov et al., 2009)'
_computing_publication_material  'Olex2 1.3 (Dolomanov et al., 2009)'
_computing_structure_refinement  'SHELXL 2018/3 (Sheldrick, 2015)'
_computing_structure_solution    'SHELXT 2018/2 (Sheldrick, 2018)'
_diffrn_ambient_temperature      120.0
_diffrn_measured_fraction_theta_full 1.000
_diffrn_measured_fraction_theta_max 1.000
_diffrn_measurement_device_type  'Bruker APEX-II CCD'
_diffrn_measurement_method       '\f and \w scans'
_diffrn_radiation_type           MoK\a
_diffrn_radiation_wavelength     0.71073
_diffrn_reflns_av_R_equivalents  0.0282
_diffrn_reflns_av_unetI/netI     0.0231
_diffrn_reflns_Laue_measured_fraction_full 1.000
_diffrn_reflns_Laue_measured_fraction_max 1.000
_diffrn_reflns_limit_h_max       9
_diffrn_reflns_limit_h_min       -9
_diffrn_reflns_limit_k_max       13
_diffrn_reflns_limit_k_min       -14
_diffrn_reflns_limit_l_max       16
_diffrn_reflns_limit_l_min       -15
_diffrn_reflns_number            19564
_diffrn_reflns_point_group_measured_fraction_full 1.000
_diffrn_reflns_point_group_measured_fraction_max 1.000
_diffrn_reflns_theta_full        25.242
_diffrn_reflns_theta_max         28.289
_diffrn_reflns_theta_min         1.830
_diffrn_source_current           35.0
_diffrn_source_power             1.75
_diffrn_source_voltage           50.0
_diffrn_standards_number         0
_exptl_absorpt_coefficient_mu    3.554
_exptl_absorpt_correction_T_max  0.8420
_exptl_absorpt_correction_T_min  0.7037
_exptl_absorpt_correction_type   numerical
_exptl_absorpt_process_details
;
SADABS-2016/2 (Bruker,2016) was used for absorption correction.
wR2(int) was 0.0496 before and 0.0449 after correction.
The Ratio of minimum to maximum transmission is 0.8357.
The \l/2 correction factor is Not present.
;
_exptl_crystal_colour            yellow
_exptl_crystal_colour_primary    yellow
_exptl_crystal_density_diffrn    1.876
_exptl_crystal_description       block
_exptl_crystal_F_000             464
_exptl_crystal_recrystallization_method Layering
_exptl_crystal_size_max          0.162
_exptl_crystal_size_mid          0.137
_exptl_crystal_size_min          0.082
_refine_diff_density_max         0.555
_refine_diff_density_min         -0.608
_refine_diff_density_rms         0.080
_refine_ls_extinction_method     none
_refine_ls_goodness_of_fit_ref   1.050
_refine_ls_hydrogen_treatment    mixed
_refine_ls_matrix_type           full
_refine_ls_number_parameters     187
_refine_ls_number_reflns         4157
_refine_ls_number_restraints     0
_refine_ls_restrained_S_all      1.050
_refine_ls_R_factor_all          0.0259
_refine_ls_R_factor_gt           0.0208
_refine_ls_shift/su_max          0.001
_refine_ls_shift/su_mean         0.000
_refine_ls_structure_factor_coef Fsqd
_refine_ls_weighting_details
'w=1/[\s^2^(Fo^2^)+(0.0128P)^2^+0.7222P] where P=(Fo^2^+2Fc^2^)/3'
_refine_ls_weighting_scheme      calc
_refine_ls_wR_factor_gt          0.0399
_refine_ls_wR_factor_ref         0.0412
_reflns_Friedel_coverage         0.000
_reflns_number_gt                3733
_reflns_number_total             4157
_reflns_threshold_expression     'I > 2\s(I)'
_cod_data_source_file            d2dt01339h2.cif
_cod_data_source_block           et_zni
_cod_database_code               7710450
_shelx_shelxl_version_number     2018/3
_shelx_space_group_comment
;
The symmetry employed for this shelxl refinement is uniquely defined
by the following loop, which should always be used as a source of
symmetry information in preference to the above space-group names.
They are only intended as comments.
;
_shelx_estimated_absorpt_t_max   0.759
_shelx_estimated_absorpt_t_min   0.597
_olex2_refinement_description
;
1. Fixed Uiso
 At 1.2 times of:
  All C(H) groups, All C(H,H) groups
 At 1.5 times of:
  All C(H,H,H) groups
2.a Secondary CH2 refined with riding coordinates:
 C1(H1A,H1B), C2(H2A,H2B), C10(H10A,H10B), C11(H11A,H11B)
2.b Aromatic/amide H refined with riding coordinates:
 C5(H5), C6(H6), C7(H7)
2.c Idealised Me refined as rotating group:
 C12(H12A,H12B,H12C), C13(H13A,H13B,H13C)
;
_shelx_res_file
;
TITL et_zni_a.res in P-1
    et_zni.res
    created by SHELXL-2018/3 at 22:09:50 on 11-Apr-2022
REM Old TITL et_zni_a.res in P-1
REM SHELXT solution in P-1: R1 0.105, Rweak 0.009, Alpha 0.047
REM <I/s> 0.000 for 0 systematic absences, Orientation as input
REM Formula found by SHELXT: C13 I N3 S2 Zn
CELL 0.71073 7.4049 10.627 12.0415 104.41 101.754 107.114
ZERR 2 0.0003 0.0004 0.0005 0.002 0.002 0.001
LATT 1
SFAC C H I N S Zn
UNIT 26 36 2 6 4 2

L.S. 4 0 0
PLAN  7
SIZE 0.082 0.137 0.162
TEMP -153.15
CONF
list 4
MORE -1
BOND $H
fmap 2 53
ACTA
REM <olex2.extras>
REM <HklSrc "%./ET_ZnI.hkl">
REM </olex2.extras>

WGHT    0.012800    0.722200
FVAR       0.52565
I1    3    1.094740    0.726174    0.276810    11.00000    0.01171    0.02568 =
         0.01878   -0.00437    0.00518    0.00341
ZN1   6    0.786556    0.753868    0.341277    11.00000    0.01094    0.01045 =
         0.01245    0.00283    0.00310    0.00289
S1    5    0.798781    0.756847    0.535277    11.00000    0.01536    0.01213 =
         0.01405    0.00445    0.00471    0.00495
S2    5    0.563883    1.071297    0.209009    11.00000    0.04063    0.02129 =
         0.01834    0.01091    0.00759    0.01784
N1    4    0.610498    0.533699    0.300553    11.00000    0.01506    0.01079 =
         0.01603    0.00355    0.00580    0.00452
N2    4    0.550190    0.700619    0.187001    11.00000    0.01205    0.01290 =
         0.01107    0.00242    0.00391    0.00318
N3    4    0.778982    0.954907    0.326275    11.00000    0.01180    0.01133 =
         0.01169    0.00325    0.00333    0.00099
H3    2    0.890045    1.020992    0.355698    11.00000    0.01852
C1    1    0.830279    0.587680    0.501171    11.00000    0.01984    0.01429 =
         0.02259    0.00884    0.00357    0.00813
AFIX  23
H1A   2    0.957536    0.598689    0.483122    11.00000   -1.20000
H1B   2    0.836714    0.557696    0.572950    11.00000   -1.20000
AFIX   0
C2    1    0.661646    0.473832    0.394274    11.00000    0.02235    0.01173 =
         0.02247    0.00838    0.00590    0.00612
AFIX  23
H2A   2    0.704060    0.395699    0.362275    11.00000   -1.20000
H2B   2    0.544513    0.437205    0.420675    11.00000   -1.20000
AFIX   0
C3    1    0.451953    0.478013    0.213380    11.00000    0.01490    0.01055 =
         0.01704    0.00095    0.00724    0.00354
C4    1    0.422445    0.566697    0.137351    11.00000    0.01196    0.01377 =
         0.01312   -0.00036    0.00672    0.00382
C5    1    0.279292    0.523088    0.028430    11.00000    0.01351    0.01706 =
         0.01628   -0.00107    0.00510    0.00221
AFIX  43
H5    2    0.190201    0.428916   -0.006466    11.00000   -1.20000
AFIX   0
C6    1    0.268332    0.619986   -0.029093    11.00000    0.01966    0.02909 =
         0.01077    0.00203    0.00147    0.00889
AFIX  43
H6    2    0.173583    0.591474   -0.105429    11.00000   -1.20000
AFIX   0
C7    1    0.394822    0.757997    0.024243    11.00000    0.02340    0.02456 =
         0.01320    0.00752    0.00575    0.00891
AFIX  43
H7    2    0.385541    0.825594   -0.013256    11.00000   -1.20000
AFIX   0
C8    1    0.536556    0.795095    0.134802    11.00000    0.01630    0.01682 =
         0.01140    0.00438    0.00662    0.00564
C9    1    0.689770    0.942367    0.201524    11.00000    0.02106    0.01446 =
         0.01320    0.00648    0.00749    0.00548
C10   1    0.651353    0.991464    0.398518    11.00000    0.01599    0.01353 =
         0.01232    0.00371    0.00478    0.00502
AFIX  23
H10A  2    0.722076    1.020928    0.485210    11.00000   -1.20000
H10B  2    0.529309    0.909489    0.379260    11.00000   -1.20000
AFIX   0
C11   1    0.598983    1.109872    0.369106    11.00000    0.03460    0.02057 =
         0.01802    0.00795    0.01053    0.01603
AFIX  23
H11A  2    0.707475    1.200711    0.415068    11.00000   -1.20000
H11B  2    0.476209    1.112831    0.388337    11.00000   -1.20000
AFIX   0
C12   1    0.293964    0.337605    0.184215    11.00000    0.02140    0.01438 =
         0.02460    0.00304    0.00411   -0.00113
AFIX 137
H12A  2    0.300668    0.271566    0.113498    11.00000   -1.50000
H12B  2    0.163541    0.345857    0.167409    11.00000   -1.50000
H12C  2    0.314755    0.303918    0.252739    11.00000   -1.50000
AFIX   0
C13   1    0.847910    0.974209    0.137455    11.00000    0.02850    0.02038 =
         0.02123    0.00808    0.01338    0.00259
AFIX 137
H13A  2    0.785672    0.969894    0.055865    11.00000   -1.50000
H13B  2    0.912089    0.905335    0.133477    11.00000   -1.50000
H13C  2    0.947156    1.067772    0.182027    11.00000   -1.50000
AFIX   0
HKLF 4




REM  et_zni_a.res in P-1
REM wR2 = 0.0412, GooF = S = 1.050, Restrained GooF = 1.050 for all data
REM R1 = 0.0208 for 3733 Fo > 4sig(Fo) and 0.0259 for all 4157 data
REM 187 parameters refined using 0 restraints

END

WGHT      0.0128      0.7222

REM Highest difference peak  0.555,  deepest hole -0.608,  1-sigma level  0.080
Q1    1   1.0959  0.7867  0.2416  11.00000  0.05    0.56
Q2    1   0.4736  0.6381  0.1621  11.00000  0.05    0.45
Q3    1   0.6372  1.0546  0.3829  11.00000  0.05    0.41
Q4    1   0.4503  0.4866  0.1628  11.00000  0.05    0.38
Q5    1   0.2099  0.2924  0.1227  11.00000  0.05    0.37
Q6    1   0.3725  0.4134  0.2098  11.00000  0.05    0.37
Q7    1   0.6165  0.8653  0.1618  11.00000  0.05    0.36
;
_shelx_res_checksum              8929
_shelx_hkl_file
;
  -1   0   0    7.70    1.70
  -1   0   0    4.50    1.40
  -1   0   0    4.60    1.60
  -1   0   0    4.80    1.40
   1   0   0    4.20    1.70
   1   0   0    8.10    1.60
   1   0   0    5.50    1.60
   1   0   0    5.50    1.60
  -2   0   0  449.26   12.80
  -2   0   0  417.26   12.00
  -2   0   0  446.26   12.80
  -2   0   0  411.86   11.10
   2   0   0  431.36   12.10
   2   0   0  458.95   12.90
   2   0   0  413.46   12.40
   2   0   0  442.36   11.40
  -3   0   0 1158.78   27.10
  -3   0   0 1158.78   28.20
  -3   0   0 1182.28   28.20
  -3   0   0 1138.69   25.40
   3   0   0 1105.89   27.60
   3   0   0 1160.58   25.90
   3   0   0 1143.79   27.90
   3   0   0 1154.18   27.00
  -4   0   0  157.38    9.70
  -4   0   0  170.58   10.50
  -4   0   0  179.28   10.80
   4   0   0  164.98   10.50
   4   0   0  147.29    9.80
   4   0   0  158.08    9.50
  -5   0   0   12.10    5.10
  -5   0   0    9.00    4.90
  -5   0   0    5.50    4.10
   5   0   0    7.10    4.10
   5   0   0   11.50    4.50
   5   0   0   10.40    5.00
   5   0   0    7.70    4.70
  -6   0   0  814.02   30.10
  -6   0   0  843.32   24.70
  -6   0   0  817.62   29.60
   6   0   0  851.91   26.20
   6   0   0  874.71   30.30
   6   0   0  892.71   30.00
   6   0   0  849.12   28.10
  -7   0   0  411.96   22.70
  -7   0   0  402.66   17.40
  -7   0   0  429.06   24.30
   7   0   0  413.76   21.20
   7   0   0  403.16   25.80
  -8   0   0   92.09   15.30
  -8   0   0  127.89   19.00
  -8   0   0  101.79   11.60
   8   0   0  113.59   16.40
   8   0   0   96.09   13.30
  -9   0   0  355.96   29.60
  -9   0   0  371.66   20.30
   9  -1   0   68.39   12.90
   9  -1   0   82.99   17.40
  -9   1   0   77.79   15.50
  -9   1   0   78.99   12.00
   8  -1   0   -6.50    8.20
   8  -1   0    3.70    7.60
  -8   1   0    8.50    6.80
  -8   1   0    4.40    9.70
  -8   1   0   25.30   11.80
   7  -1   0  721.13   34.50
   7  -1   0  726.63   30.30
   7  -1   0  709.03   26.60
  -7   1   0  770.02   25.30
  -7   1   0  700.43   29.60
   6  -1   0 1047.20   33.40
   6  -1   0 1076.99   40.40
   6  -1   0 1047.00   30.80
   6  -1   0 1062.79   31.80
  -6   1   0 1067.59   29.50
  -6   1   0 1044.60   33.50
  -6   1   0 1022.40   33.60
   5  -1   0   99.09    8.80
   5  -1   0  100.29   10.10
   5  -1   0  122.69    9.60
   5  -1   0   96.39    9.30
  -5   1   0   94.69    9.10
  -5   1   0   92.19    9.60
  -5   1   0   97.89    8.00
   4  -1   0 2190.38   48.90
   4  -1   0 2184.38   47.40
   4  -1   0 2141.39   48.90
   4  -1   0 2187.28   46.90
  -4   1   0 2295.27   49.50
  -4   1   0 2134.29   46.30
  -4   1   0 2207.88   49.10
  -4   1   0 2228.48   47.80
   3  -1   0 5446.15  105.79
   3  -1   0 5604.94  104.19
   3  -1   0 5385.56  103.89
  -3   1   0 5449.75  102.29
  -3   1   0 5610.94  104.29
  -3   1   0 5542.95  104.09
  -3   1   0 5683.73  103.59
   2  -1   0  150.68    7.10
   2  -1   0  144.09    6.90
   2  -1   0  145.99    6.70
   2  -1   0  149.79    6.70
  -2   1   0  155.18    6.60
  -2   1   0  152.08    7.00
   1  -1   0  172.88    5.30
   1  -1   0  164.78    5.40
  -1   1   0  159.18    5.30
  -1   1   0  160.38    5.30
   0  -1   0   30.10    1.30
   0  -1   0   29.90    1.80
   0  -1   0   28.30    1.20
   0  -1   0   27.80    2.10
  -1  -1   0  545.75   12.50
  -1  -1   0  516.15   12.40
  -1  -1   0  529.15   10.90
  -1  -1   0  534.75   12.70
   1   1   0  540.55   10.90
   1   1   0  535.85   12.30
   1   1   0  516.65   12.20
   1   1   0  543.15   12.70
  -2  -1   0  265.27    7.60
  -2  -1   0  248.68    9.40
  -2  -1   0  268.27    9.50
  -2  -1   0  258.47    9.50
   2   1   0  263.17   10.90
   2   1   0  256.17    9.40
   2   1   0  272.87    9.60
   2   1   0  266.17    7.70
  -3  -1   0 3767.52   72.99
  -3  -1   0 3679.83   73.89
  -3  -1   0 3828.32   69.79
  -3  -1   0 3698.33   73.89
   3   1   0 3641.24   72.89
   3   1   0 3762.32   73.59
   3   1   0 3783.92   73.69
   3   1   0 3758.62   70.09
  -4  -1   0 2461.05   54.09
  -4  -1   0 2453.45   48.80
  -4  -1   0 2462.15   52.89
  -4  -1   0 2449.66   54.29
   4   1   0 2348.67   53.09
   4   1   0 2443.56   52.89
   4   1   0 2382.26   53.29
  -5  -1   0   26.00    6.60
  -5  -1   0   20.90    4.30
  -5  -1   0   18.50    6.10
  -5  -1   0   25.70    6.30
   5   1   0   29.50    6.30
   5   1   0   22.00    6.10
   5   1   0   27.80    5.40
   5   1   0   21.30    5.70
  -6  -1   0  482.45   23.50
  -6  -1   0  534.95   17.90
  -6  -1   0  518.55   23.50
   6   1   0  576.34   22.80
   6   1   0  530.35   19.00
   6   1   0  502.95   22.60
  -7  -1   0  722.73   22.80
  -7  -1   0  733.03   32.10
  -7  -1   0  759.42   31.30
   7   1   0  725.63   25.10
   7   1   0  689.03   28.10
   7   1   0  713.33   30.10
  -8  -1   0   16.60   10.30
  -8  -1   0   17.40    6.90
   8   1   0    8.30   12.00
   8   1   0   11.00    8.70
   9  -2   0  407.66   29.50
   9  -2   0  438.96   26.00
  -9   2   0  424.16   22.70
  -9   2   0  406.96   32.30
   8  -2   0   26.50    9.70
  -8   2   0   20.80    9.10
  -8   2   0   30.20    8.20
   7  -2   0  575.44   25.70
   7  -2   0  590.64   30.70
   7  -2   0  523.25   26.30
  -7   2   0  545.75   22.00
  -7   2   0  586.24   26.20
  -7   2   0  581.74   26.70
   6  -2   0  511.15   20.80
   6  -2   0  513.85   22.60
  -6   2   0  536.55   22.80
  -6   2   0  516.35   19.80
  -6   2   0  543.75   26.00
   5  -2   0   91.99    8.80
   5  -2   0   81.79    8.70
   5  -2   0   70.99    9.00
   5  -2   0   94.29    9.20
  -5   2   0   89.99   10.70
  -5   2   0   80.09    8.10
  -5   2   0   87.19    9.40
  -5   2   0  103.99    9.30
   4  -2   0  428.56   15.80
   4  -2   0  396.56   14.90
   4  -2   0  381.86   14.60
  -4   2   0  420.26   17.10
  -4   2   0  391.46   15.30
  -4   2   0  391.06   14.70
  -4   2   0  403.16   15.30
   3  -2   0  858.41   21.70
   3  -2   0  862.31   22.10
   3  -2   0  845.02   21.90
  -3   2   0  842.22   21.50
  -3   2   0  806.82   21.50
   2  -2   0  920.11   21.60
   2  -2   0  924.81   21.30
   2  -2   0  947.11   21.30
   2  -2   0  911.51   21.10
  -2   2   0  937.91   21.50
  -2   2   0  954.50   22.90
  -2   2   0  942.01   21.10
  -2   2   0  944.31   21.80
   1  -2   0 2648.24   47.50
   1  -2   0 2592.14   47.50
  -1   2   0 2607.94   47.30
  -1   2   0 2566.84   49.10
   0  -2   0 2456.55   44.00
   0  -2   0 2484.05   45.20
   0  -2   0 2413.26   43.90
   0   2   0 2405.16   45.20
   0   2   0 2521.65   43.30
   0   2   0 2474.25   43.30
   0   2   0 2479.65   46.40
  -1  -2   0 3832.42   72.09
  -1  -2   0 3844.72   70.79
  -1  -2   0 3853.51   69.09
  -1  -2   0 3840.92   70.79
   1   2   0 4011.10   72.39
  -2  -2   0  108.49    6.90
  -2  -2   0  111.99    4.60
  -2  -2   0  121.09    6.80
  -2  -2   0  117.79    6.70
   2   2   0  120.89    4.70
   2   2   0  114.19    6.50
   2   2   0  114.49    6.30
   2   2   0  118.49    7.20
  -3  -2   0 1126.69   27.50
  -3  -2   0 1068.59   27.40
  -3  -2   0 1128.49   27.80
  -3  -2   0 1033.60   22.60
   3   2   0 1073.49   23.20
   3   2   0 1034.90   26.70
   3   2   0 1016.80   27.20
   3   2   0 1111.39   27.20
  -4  -2   0   75.29    8.40
  -4  -2   0   47.70    6.70
  -4  -2   0   58.89    5.00
  -4  -2   0   92.39    8.70
   4   2   0   70.49    8.20
   4   2   0   67.19    7.90
   4   2   0   62.69    7.40
   4   2   0   77.59    5.70
  -5  -2   0   42.30    7.80
  -5  -2   0   66.19    9.60
   5   2   0   73.49    9.20
   5   2   0   48.80    7.70
  -6  -2   0  465.45   22.80
  -6  -2   0  471.25   17.10
  -6  -2   0  488.35   23.90
   6   2   0  508.15   17.60
   6   2   0  529.95   22.40
   6   2   0  484.55   22.40
  -7  -2   0 1110.99   40.40
  -7  -2   0  997.80   27.10
  -7  -2   0 1022.70   37.80
   7   2   0 1019.00   28.90
   7   2   0  973.50   35.00
   7   2   0 1015.60   37.40
  -8  -2   0   84.59   15.30
  -8  -2   0   89.09   10.70
   8   2   0  118.39   15.50
   9  -3   0   16.80    9.40
   9  -3   0   -8.70   11.30
  -9   3   0   15.70   12.10
   8  -3   0   18.60    9.10
   8  -3   0   14.80    8.10
  -8   3   0   10.80    9.70
   7  -3   0  681.63   28.70
   7  -3   0  614.74   29.90
  -7   3   0  619.84   27.40
  -7   3   0  601.54   26.50
  -7   3   0  649.04   24.50
   6  -3   0 1021.20   32.60
   6  -3   0 1049.79   32.60
   6  -3   0  997.30   30.80
   6  -3   0  990.40   31.10
  -6   3   0 1044.30   32.40
  -6   3   0  963.30   29.80
  -6   3   0 1027.90   36.30
   5  -3   0 1155.08   32.20
   5  -3   0 1160.98   32.30
   5  -3   0 1131.49   31.60
   5  -3   0 1103.99   30.80
  -5   3   0 1134.09   31.50
  -5   3   0 1151.38   31.90
  -5   3   0 1113.79   30.90
  -5   3   0 1133.79   31.90
   4  -3   0 2043.60   45.30
   4  -3   0 1976.30   44.70
   4  -3   0 2012.10   45.20
   4  -3   0 2030.70   45.40
  -4   3   0 2001.40   44.70
  -4   3   0 2000.90   45.00
  -4   3   0 1978.50   44.80
  -4   3   0 2021.50   45.10
   3  -3   0 1921.71   41.00
   3  -3   0 1887.31   40.70
   3  -3   0 1875.61   41.20
   3  -3   0 1839.02   40.20
  -3   3   0 1867.81   41.20
  -3   3   0 1905.21   40.20
  -3   3   0 1924.91   41.00
  -3   3   0 1930.51   40.40
   2  -3   0 1067.89   25.00
   2  -3   0 1063.39   23.60
  -2   3   0 1077.29   23.40
  -2   3   0 1123.69   23.60
   1  -3   0  119.89    6.40
   1  -3   0  119.19    4.50
   1  -3   0  113.39    4.40
   1  -3   0  119.59    6.30
  -1   3   0  116.99    4.10
  -1   3   0  117.99    4.00
  -1   3   0  118.99    6.20
   0  -3   0  509.05   10.90
   0  -3   0  478.85   10.70
   0  -3   0  502.75   13.60
   0  -3   0  484.25   12.20
   0   3   0  500.55   12.40
  -1  -3   0 1300.17   28.70
  -1  -3   0 1289.77   25.20
  -1  -3   0 1285.07   25.40
  -1  -3   0 1271.47   26.50
  -1  -3   0 1260.97   26.60
   1   3   0 1302.77   28.70
   1   3   0 1271.97   25.90
   1   3   0 1242.78   27.20
  -2  -3   0  907.21   23.20
  -2  -3   0  891.21   18.40
  -2  -3   0  901.41   22.10
   2   3   0  879.91   23.10
   2   3   0  856.51   18.30
   2   3   0  857.21   21.50
  -3  -3   0 1816.72   42.50
  -3  -3   0 1852.81   43.10
  -3  -3   0 1916.41   43.00
  -3  -3   0 1926.51   36.90
   3   3   0 1982.30   42.30
   3   3   0 1895.41   42.20
   3   3   0 1941.81   37.10
   3   3   0 1910.21   43.40
  -4  -3   0 2611.94   58.19
  -4  -3   0 2654.43   58.39
  -4  -3   0 2527.65   49.50
   4   3   0 2630.04   57.19
   4   3   0 2514.45   56.59
   4   3   0 2515.95   57.29
   4   3   0 2612.74   49.99
  -5  -3   0    8.60    3.30
  -5  -3   0   10.40    5.50
  -5  -3   0    3.60    5.90
   5   3   0    5.10    5.30
   5   3   0   13.20    5.90
   5   3   0    7.90    3.40
  -6  -3   0  179.18   16.90
  -6  -3   0  167.28    9.00
  -6  -3   0  186.88   15.70
   6   3   0  165.58   15.30
   6   3   0  143.99   14.50
  -7  -3   0  221.78   19.30
   7   3   0  249.58   19.00
   7   3   0  221.88   20.60
  -8  -3   0   14.30   10.60
   8   3   0   14.50   10.70
   9  -4   0  755.12   35.70
   9  -4   0  719.53   32.60
  -9   4   0  708.73   30.50
  -9   4   0  704.43   35.30
   8  -4   0   52.19   10.20
   8  -4   0   55.29   12.20
   8  -4   0   73.09   12.90
  -8   4   0   57.69   10.40
  -8   4   0   47.90   11.30
   7  -4   0  391.96   22.30
   7  -4   0  407.46   21.60
  -7   4   0  406.86   19.90
  -7   4   0  448.36   22.30
   6  -4   0  220.18   15.10
   6  -4   0  221.38   14.30
   6  -4   0  232.68   15.50
   6  -4   0  227.58   14.40
  -6   4   0  257.07   15.40
  -6   4   0  212.78   13.80
  -6   4   0  224.18   14.40
   5  -4   0   48.80    7.50
   5  -4   0   45.80    7.30
   5  -4   0   46.80    9.10
   5  -4   0   44.70    6.90
  -5   4   0   41.80    6.70
  -5   4   0   53.49    7.40
  -5   4   0   36.70    6.70
  -5   4   0   42.40    6.60
   4  -4   0   48.20    6.50
   4  -4   0   60.49    7.20
   4  -4   0   49.90    6.70
   4  -4   0   49.30    6.30
  -4   4   0   51.49    6.40
  -4   4   0   56.59    7.20
  -4   4   0   59.29    6.60
  -4   4   0   52.69    6.80
   3  -4   0 3429.46   69.19
   3  -4   0 3419.26   67.29
  -3   4   0 3500.25   71.09
  -3   4   0 3415.16   68.69
  -3   4   0 3320.17   66.49
  -3   4   0 3522.05   66.79
   2  -4   0 1695.73   35.10
   2  -4   0 1752.62   38.20
   2  -4   0 1734.53   35.20
   2  -4   0 1740.03   37.90
  -2   4   0 1763.92   34.60
  -2   4   0 1798.52   38.50
   1  -4   0  556.04   15.40
   1  -4   0  543.05   15.10
   1  -4   0  529.65   12.10
  -1   4   0  518.05   15.10
   0  -4   0 6485.15  116.09
   0  -4   0 6431.86  113.99
   0  -4   0 6408.46  113.89
   0  -4   0 6456.15  118.89
   0   4   0 6317.07  121.49
   0   4   0 6402.36  116.29
  -1  -4   0 1045.00   23.30
  -1  -4   0 1064.69   22.40
  -1  -4   0 1012.30   24.50
  -1  -4   0 1116.69   26.70
  -1  -4   0 1037.40   22.60
   1   4   0 1081.89   21.90
   1   4   0 1071.79   22.20
   1   4   0 1047.90   26.10
  -2  -4   0   22.50    3.00
  -2  -4   0   17.40    3.60
  -2  -4   0   21.80    2.90
  -2  -4   0   20.50    4.50
   2   4   0   18.50    3.70
   2   4   0   22.00    4.90
   2   4   0   15.20    4.40
  -3  -4   0   11.90    2.30
  -3  -4   0   14.20    4.10
  -3  -4   0   15.70    4.90
  -3  -4   0   12.40    2.40
  -3  -4   0   16.30    4.40
   3   4   0   10.80    4.00
   3   4   0   11.40    4.60
  -4  -4   0   41.80    3.70
  -4  -4   0   44.90    8.10
  -4  -4   0   46.70    7.50
  -4  -4   0   32.30    6.80
   4   4   0   35.30    6.90
  -5  -4   0    5.30    6.90
   5   4   0   17.00    3.40
   5   4   0   15.20    6.10
  -6  -4   0  240.48   18.20
  -6  -4   0  269.07   20.10
   6   4   0  283.17   18.40
  -7  -4   0  841.62   35.80
   7   4   0  876.01   34.90
   9  -5   0   17.40   11.40
   9  -5   0   22.90   10.50
  -9   5   0   23.20    9.70
  -9   5   0   23.60   13.10
   8  -5   0    8.00    8.30
   8  -5   0    2.70    7.00
   8  -5   0   -1.80    9.80
  -8   5   0    0.20    6.30
  -8   5   0   10.70    8.10
   7  -5   0  328.47   20.30
   7  -5   0  341.77   18.90
   7  -5   0  317.27   19.40
  -7   5   0  307.27   19.10
  -7   5   0  316.87   18.90
   6  -5   0 2837.62   66.59
   6  -5   0 2877.31   65.89
   6  -5   0 2966.50   66.89
  -6   5   0 2801.52   65.39
  -6   5   0 2916.91   66.59
   5  -5   0  400.96   17.40
   5  -5   0  416.06   17.50
   5  -5   0  420.76   17.60
  -5   5   0  444.96   18.60
  -5   5   0  436.96   17.30
  -5   5   0  413.96   17.10
  -5   5   0  438.66   18.40
   4  -5   0  437.06   15.90
   4  -5   0  434.66   16.60
   4  -5   0  402.76   15.40
  -4   5   0  403.26   15.00
  -4   5   0  410.76   16.80
  -4   5   0  430.36   16.60
  -4   5   0  431.36   15.30
   3  -5   0 3189.68   65.79
   3  -5   0 3117.09   62.49
   3  -5   0 3201.18   62.59
   3  -5   0 3163.28   65.29
  -3   5   0 3140.99   65.99
  -3   5   0 3161.88   61.59
   2  -5   0  478.75   16.10
   2  -5   0  498.95   13.30
   2  -5   0  516.25   16.50
   2  -5   0  451.55   18.30
  -2   5   0  499.45   12.30
  -2   5   0  497.45   12.10
   1  -5   0  251.87   10.40
   1  -5   0  267.67   11.30
   1  -5   0  259.87    7.60
  -1   5   0  243.78   10.60
   0  -5   0  636.14   16.70
   0  -5   0  624.94   18.90
   0  -5   0  648.74   14.80
   0   5   0  619.74   16.90
   0   5   0  602.54   18.90
  -1  -5   0  526.55   14.60
  -1  -5   0  549.65   14.70
  -1  -5   0  556.44   14.20
  -1  -5   0  559.24   14.90
  -1  -5   0  546.05   18.00
   1   5   0  509.85   17.50
   1   5   0  542.75   12.20
   1   5   0  527.25   12.50
  -2  -5   0  289.47   11.50
  -2  -5   0  267.17   13.60
  -2  -5   0  263.27   11.20
  -2  -5   0  283.57    8.50
  -2  -5   0  274.97    8.70
   2   5   0  254.67   12.90
  -3  -5   0 1664.93   42.00
  -3  -5   0 1649.83   39.60
  -3  -5   0 1614.64   39.50
  -3  -5   0 1612.64   31.50
  -3  -5   0 1667.23   31.60
   3   5   0 1603.24   41.20
  -4  -5   0 1722.13   44.30
  -4  -5   0 1815.82   44.80
   4   5   0 1643.64   44.50
  -5  -5   0  258.17   16.90
  -5  -5   0  273.67   17.90
   5   5   0  278.07   20.50
  -6  -5   0   65.29   11.50
  -6  -5   0   74.09   13.90
   6   5   0   84.79   13.10
  -7  -5   0  136.49   18.00
   7   5   0  161.08   18.50
   9  -6   0  659.63   31.70
   9  -6   0  731.23   34.80
  -9   6   0  733.93   32.70
  -9   6   0  734.03   35.50
   8  -6   0   68.69   14.20
   8  -6   0   62.49   11.10
   8  -6   0   66.89   12.60
  -8   6   0   53.19   11.10
  -8   6   0   79.79   13.00
   7  -6   0   60.19   10.00
   7  -6   0   50.99    8.90
   7  -6   0   63.39   12.00
  -7   6   0   51.09    9.90
  -7   6   0   61.49   11.20
   6  -6   0  332.17   17.70
   6  -6   0  336.27   17.90
   6  -6   0  345.17   17.60
  -6   6   0  333.77   18.30
  -6   6   0  343.97   17.60
   5  -6   0  248.58   13.50
   5  -6   0  238.28   13.20
   5  -6   0  229.78   13.90
  -5   6   0  231.58   12.60
  -5   6   0  237.58   18.50
  -5   6   0  233.68   14.50
  -5   6   0  241.18   13.00
   4  -6   0  308.47   13.20
   4  -6   0  314.47   13.20
   4  -6   0  304.57   14.70
  -4   6   0  283.37   14.80
  -4   6   0  312.67   12.50
   3  -6   0 1722.83   37.80
   3  -6   0 1704.23   41.10
   3  -6   0 1691.93   37.50
   3  -6   0 1740.63   41.70
   3  -6   0 1729.63   41.50
  -3   6   0 1784.52   36.30
  -3   6   0 1760.92   36.40
  -3   6   0 1749.22   42.00
   2  -6   0 1566.34   37.80
   2  -6   0 1606.74   32.90
   2  -6   0 1564.24   32.70
   2  -6   0 1605.14   37.70
   2  -6   0 1574.04   37.40
  -2   6   0 1604.84   29.60
  -2   6   0 1519.05   37.40
  -2   6   0 1574.14   29.90
   1  -6   0   39.90    6.20
   1  -6   0   29.90    3.40
   1  -6   0   28.30    3.40
   1  -6   0   34.30    5.10
  -1   6   0   22.50    4.60
  -1   6   0   26.50    4.90
   0  -6   0 2841.52   56.19
   0  -6   0 2726.73   54.29
   0  -6   0 2872.31   59.69
   0  -6   0 2767.72   52.89
   0   6   0 2751.42   59.79
   0   6   0 2690.93   58.79
  -1  -6   0 1505.75   33.00
  -1  -6   0 1595.24   38.60
  -1  -6   0 1551.14   33.40
  -1  -6   0 1534.35   32.60
  -1  -6   0 1468.95   32.90
   1   6   0 1508.05   37.90
  -2  -6   0  221.98    8.40
  -2  -6   0  217.78   10.60
  -2  -6   0  214.78   13.40
  -2  -6   0  219.88    8.00
  -2  -6   0  218.18   10.70
   2   6   0  227.08   13.10
   2   6   0  220.48    8.70
   2   6   0  236.78    9.10
  -3  -6   0  138.09   10.30
  -3  -6   0  116.59    9.90
   3   6   0  138.09   11.80
   3   6   0  136.19    9.30
  -4  -6   0   95.19   10.70
  -4  -6   0  125.49   11.70
   4   6   0  109.79   11.30
   4   6   0  103.39   12.20
  -5  -6   0   54.99   10.60
  -5  -6   0   72.59   10.80
   5   6   0   68.49   11.00
   5   6   0   71.39   11.50
  -6  -6   0  224.68   18.80
   6   6   0  191.88   19.10
   9  -7   0   25.50   11.90
   9  -7   0   62.09   16.50
  -9   7   0   38.80   14.50
  -9   7   0   42.60   12.30
   8  -7   0   96.89   13.70
   8  -7   0  121.79   16.20
   8  -7   0   87.49   12.80
  -8   7   0   93.09   13.90
  -8   7   0   98.49   13.70
   7  -7   0  548.45   25.10
   7  -7   0  492.15   23.90
   7  -7   0  474.55   23.40
  -7   7   0  548.25   25.60
  -7   7   0  490.85   25.60
   6  -7   0 1198.38   40.90
   6  -7   0 1209.98   35.50
   6  -7   0 1214.48   35.80
  -6   7   0 1118.09   41.40
  -6   7   0 1143.99   33.90
   5  -7   0  553.74   21.90
   5  -7   0  511.55   19.70
  -5   7   0  503.65   18.60
  -5   7   0  510.95   22.00
   4  -7   0    6.80    3.50
   4  -7   0    4.80    3.50
   4  -7   0    1.90    5.00
   4  -7   0   -2.50    3.60
  -4   7   0    2.70    3.20
  -4   7   0    1.30    4.80
   3  -7   0 1176.18   32.30
   3  -7   0 1162.18   32.00
   3  -7   0 1119.19   27.20
   3  -7   0 1121.49   27.30
   3  -7   0 1085.49   35.40
  -3   7   0 1161.68   32.40
  -3   7   0 1153.28   24.80
   2  -7   0   21.50    5.20
   2  -7   0   22.80    5.60
   2  -7   0   29.90    3.80
   2  -7   0   28.40    6.70
   2  -7   0   31.70    4.00
  -2   7   0   27.00    5.50
   1  -7   0  315.47   13.30
   1  -7   0  328.37   10.00
   1  -7   0  310.97   14.90
   1  -7   0  327.97    9.90
  -1   7   0  328.87   14.80
  -1   7   0  295.37   13.30
   0  -7   0   85.59    5.60
   0  -7   0   98.69   12.70
   0  -7   0   86.09    7.20
   0  -7   0   84.19    5.50
   0   7   0   75.39    8.50
  -1  -7   0  943.81   29.30
  -1  -7   0  986.80   23.90
  -1  -7   0  933.11   23.50
   1   7   0  952.60   28.90
  -2  -7   0  178.58   10.40
  -2  -7   0  200.98    8.20
  -2  -7   0  205.38    8.70
   2   7   0  175.48   12.80
  -3  -7   0  737.43   24.50
  -3  -7   0  825.42   25.60
   3   7   0  724.53   27.30
   3   7   0  776.72   21.10
  -4  -7   0 1115.79   34.50
  -4  -7   0 1090.99   33.90
   4   7   0 1057.89   35.80
  -5  -7   0  173.48   16.10
  -5  -7   0  205.38   17.90
   5   7   0  190.68   17.70
   9  -8   0  356.86   25.40
   9  -8   0  333.67   25.20
  -9   8   0  290.07   31.20
   8  -8   0  340.47   24.00
   8  -8   0  320.47   21.40
   8  -8   0  346.47   22.30
  -8   8   0  313.07   22.50
  -8   8   0  345.67   22.90
   7  -8   0   86.29   12.40
   7  -8   0   75.19   10.80
   7  -8   0   60.69   10.40
  -7   8   0   67.99   12.10
  -7   8   0   64.89   10.40
   6  -8   0   -1.20    5.90
   6  -8   0   -6.20    4.50
   6  -8   0    5.20    5.30
  -6   8   0   -3.30    5.40
  -6   8   0    5.70    6.10
   5  -8   0   11.10    5.50
   5  -8   0   12.00    5.10
   5  -8   0   13.70    5.20
  -5   8   0    4.50    5.60
   4  -8   0  105.19    8.40
   4  -8   0  106.59    8.50
   4  -8   0   95.19   10.50
  -4   8   0   97.69   11.00
  -4   8   0  107.69    7.50
   3  -8   0  775.22   21.10
   3  -8   0  772.92   26.00
   3  -8   0  796.52   26.60
   3  -8   0  746.43   20.80
  -3   8   0  796.02   26.30
   2  -8   0 2124.89   43.30
   2  -8   0 2120.99   51.39
   2  -8   0 2142.39   51.39
   2  -8   0 2139.69   43.10
   2  -8   0 2131.99   50.19
  -2   8   0 2118.09   50.19
   1  -8   0   49.00    8.00
   1  -8   0   54.59    7.30
   1  -8   0   55.69    4.70
   1  -8   0   46.20    5.20
  -1   8   0   63.49    8.30
  -1   8   0   49.70    7.80
   0  -8   0  537.75   18.10
   0  -8   0  554.74   19.10
   0  -8   0  540.25   15.50
   0  -8   0  579.14   15.60
   0   8   0  548.15   21.40
  -1  -8   0  695.93   27.50
  -1  -8   0  724.03   20.50
  -1  -8   0  751.02   21.40
  -1  -8   0  758.62   20.60
   1   8   0  701.73   25.60
  -2  -8   0    3.10    3.50
  -2  -8   0    3.80    3.20
  -2  -8   0    8.30    4.30
   2   8   0    2.00    5.20
  -3  -8   0   24.70    6.60
  -3  -8   0   28.50    6.80
   3   8   0   25.80    8.00
  -4  -8   0  111.29   14.10
  -4  -8   0   99.29   12.10
   4   8   0  104.39   13.60
  -5  -8   0  127.59   15.20
   5   8   0  144.89   17.80
   9  -9   0  187.78   24.80
   9  -9   0  165.88   19.60
  -9   9   0  208.78   22.20
   8  -9   0   64.79   12.70
   8  -9   0   44.50   11.10
  -8   9   0   84.79   15.00
  -8   9   0   49.90   13.90
   7  -9   0   26.90    8.00
   7  -9   0   49.00    9.80
   7  -9   0   40.10    9.70
  -7   9   0   47.80   11.40
   6  -9   0 1231.78   36.80
   6  -9   0 1262.37   39.80
   6  -9   0 1187.08   36.10
  -6   9   0 1193.18   34.10
  -6   9   0 1219.38   41.00
   5  -9   0  941.61   33.30
   5  -9   0 1009.60   30.00
   5  -9   0  987.10   29.70
  -5   9   0 1032.40   35.20
  -5   9   0 1061.19   27.40
   4  -9   0  193.78   14.80
   4  -9   0  192.78   11.30
   4  -9   0  175.08   10.60
  -4   9   0  219.18   15.30
  -4   9   0  212.58    8.50
   3  -9   0   94.89    8.50
   3  -9   0   89.29    7.10
   3  -9   0  107.29   11.70
  -3   9   0  123.59   11.80
   2  -9   0   87.79   10.80
   2  -9   0   71.99    9.60
   2  -9   0   71.49    5.90
   2  -9   0   80.19    6.40
  -2   9   0   86.89   10.10
   1  -9   0   14.30    5.60
   1  -9   0   10.50    3.20
   1  -9   0    6.10    3.10
  -1   9   0    8.30    5.10
   0  -9   0  242.08   10.10
   0  -9   0  221.18   12.40
   0  -9   0  230.78    9.80
   0  -9   0  236.48   13.10
   0   9   0  238.48   15.40
  -1  -9   0  871.81   23.80
  -1  -9   0  839.12   23.30
  -1  -9   0  852.71   23.70
  -1  -9   0  894.81   28.10
  -2  -9   0  145.49   10.70
  -2  -9   0  142.49    8.40
  -2  -9   0  118.59   10.20
  -2  -9   0  149.99    8.50
   2   9   0  133.59   13.80
  -3  -9   0  167.38   13.40
  -3  -9   0  184.48   13.50
   3   9   0  187.38   16.60
  -4  -9   0  601.14   26.90
  -4  -9   0  579.34   25.10
   4   9   0  542.15   28.40
   8 -10   0  100.79   14.20
   8 -10   0  112.69   18.10
  -8  10   0  133.19   18.70
   7 -10   0   40.60    9.20
   7 -10   0   43.40   10.10
   7 -10   0   58.39   12.00
  -7  10   0   37.40   10.80
  -7  10   0   36.50   11.50
   6 -10   0    3.90    6.40
   6 -10   0   -6.70    5.70
   6 -10   0    4.10    5.70
  -6  10   0    1.40    6.70
  -6  10   0   11.00    7.30
   5 -10   0  102.19   10.60
   5 -10   0  102.89   10.10
   5 -10   0   92.89   12.00
  -5  10   0   90.29    8.70
  -5  10   0   97.39   13.40
   4 -10   0    2.90    6.30
   4 -10   0   11.00    4.10
  -4  10   0    1.10    5.70
   3 -10   0  453.45   15.70
   3 -10   0  470.65   15.50
   3 -10   0  467.45   22.50
  -3  10   0  453.85   21.90
   2 -10   0 1416.06   31.50
   2 -10   0 1391.76   31.80
   2 -10   0 1445.76   42.30
  -2  10   0 1394.56   40.40
   1 -10   0  212.18    9.20
   1 -10   0  244.48   14.80
   1 -10   0  236.08    9.60
   0 -10   0  356.56   16.50
   0 -10   0  330.27   12.60
   0 -10   0  347.87   12.40
   0 -10   0  346.57   16.70
   0  10   0  368.06   20.20
  -1 -10   0  562.34   18.00
  -1 -10   0  552.44   19.40
  -1 -10   0  535.85   18.80
  -1 -10   0  532.95   18.20
   1  10   0  517.45   24.80
  -2 -10   0    1.00    4.10
  -2 -10   0    0.10    4.90
  -2 -10   0    3.60    4.30
  -2 -10   0    4.50    5.40
   2  10   0   -5.90    6.60
  -3 -10   0   -0.80    5.90
  -3 -10   0   11.70    7.40
   3  10   0  -10.90    7.80
   8 -11   0  130.49   17.20
   8 -11   0  143.99   18.70
  -8  11   0  118.09   17.10
   7 -11   0    3.10    8.10
   7 -11   0    4.50    8.70
   7 -11   0    6.30    6.90
  -7  11   0   -5.50    8.30
   6 -11   0  847.42   29.50
   6 -11   0  800.22   33.70
   6 -11   0  827.32   30.60
  -6  11   0  842.32   35.40
   5 -11   0  255.67   14.50
   5 -11   0  272.37   19.60
   5 -11   0  232.58   16.40
  -5  11   0  272.07   20.20
   4 -11   0  233.08   12.70
   4 -11   0  274.87   19.60
   4 -11   0  269.37   13.80
  -4  11   0  245.38   18.90
   3 -11   0  702.93   20.70
   3 -11   0  657.93   19.80
   3 -11   0  665.43   28.80
  -3  11   0  732.43   29.40
   2 -11   0    1.70    3.60
   2 -11   0   -5.40    6.30
   2 -11   0    0.80    3.10
  -2  11   0    5.50    6.30
   1 -11   0   61.79    9.80
   1 -11   0   54.69    5.90
   1 -11   0   68.29    6.30
   0 -11   0   78.29   10.40
   0 -11   0   48.20    9.10
   0 -11   0   66.19    6.90
   0 -11   0   56.09    6.40
   0  11   0   70.19   11.70
  -1 -11   0  440.26   18.00
  -1 -11   0  451.65   16.70
  -1 -11   0  420.76   16.70
   1  11   0  487.25   25.30
  -2 -11   0  407.36   18.00
  -2 -11   0  391.06   17.80
   2  11   0  325.27   23.40
   7 -12   0    5.70    7.50
   7 -12   0  -11.40    8.20
  -7  12   0   -5.60    9.70
   6 -12   0   -1.30    8.80
   6 -12   0   -5.80    8.30
   6 -12   0   -5.00    9.50
  -6  12   0    9.30    9.90
   5 -12   0  150.98   17.70
   5 -12   0  143.09   11.90
   5 -12   0  157.08   13.60
  -5  12   0  170.78   18.70
   4 -12   0   20.10    5.90
   4 -12   0   15.20    9.10
   4 -12   0   19.20    5.60
  -4  12   0   13.60    8.70
   3 -12   0  304.97   21.60
   3 -12   0  273.67   12.70
   3 -12   0  294.57   12.30
  -3  12   0  279.57   19.90
   2 -12   0  709.83   19.40
   2 -12   0  749.62   32.10
   2 -12   0  659.33   18.30
   1 -12   0   75.59    6.50
   1 -12   0   93.79   14.20
   1 -12   0   94.19   12.70
   1 -12   0   85.89    6.80
   0 -12   0   76.29    7.30
   0 -12   0   81.39   11.20
   0 -12   0   79.19    7.40
  -1 -12   0   88.69   10.00
  -1 -12   0   91.19    9.80
  -1 -12   0  104.39   12.30
   1  12   0   90.89   17.50
   6 -13   0  232.38   16.20
   6 -13   0  207.08   21.90
   6 -13   0  163.78   17.10
  -6  13   0  197.48   23.20
   5 -13   0  336.27   18.20
   5 -13   0  298.57   24.00
   5 -13   0  350.96   17.30
  -5  13   0  352.96   26.00
   4 -13   0   23.10    9.40
   4 -13   0   18.70    6.40
  -4  13   0   17.40   10.50
   3 -13   0    2.90    4.90
   3 -13   0    1.30    9.80
   3 -13   0    9.80    4.60
  -3  13   0   -4.70    8.10
   2 -13   0   37.30   13.00
   1 -13   0   12.50    9.50
   1 -13   0   -1.80   11.00
   0 -13   1  -14.20   13.20
   0 -13   1    9.30    8.80
   1 -13   1    2.70    8.20
   1 -13   1   -0.30    8.30
   2 -13   1  121.89   16.10
   2 -13   1  106.69   14.90
  -3  13  -1  458.05   26.50
   3 -13   1  505.05   28.00
  -4  13  -1    6.70    9.50
   4 -13   1    0.20    4.70
   4 -13   1    7.10    8.50
   4 -13   1    7.20    5.40
  -5  13  -1  155.18   20.20
   5 -13   1  106.59   12.70
   5 -13   1  108.29   11.10
   5 -13   1  103.39   16.70
  -6  13  -1  237.98   23.90
   6 -13   1  304.17   19.30
   6 -13   1  271.07   17.10
   6 -13   1  263.67   23.20
   1  12  -1  331.77   22.90
  -1 -12   1  344.47   18.40
  -1 -12   1  333.87   12.70
   0 -12   1  447.26   22.10
   1 -12   1    2.10    7.50
   1 -12   1   13.20    8.00
   2 -12   1  105.29   13.80
  -3  12  -1  105.49   14.50
   3 -12   1  103.59    8.20
   3 -12   1  113.49    7.60
   3 -12   1   92.69   13.90
  -4  12  -1   26.60    9.90
   4 -12   1   14.40    5.60
   4 -12   1   17.30    5.20
   4 -12   1   23.10    9.30
  -5  12  -1  119.29   16.60
   5 -12   1  127.09   11.10
   5 -12   1  105.69   15.50
   5 -12   1  133.59   12.40
  -6  12  -1  190.88   20.90
   6 -12   1  187.18   19.30
   6 -12   1  191.48   15.00
   6 -12   1  174.88   16.50
  -7  12  -1   44.10   13.50
   7 -12   1   17.30    8.40
   7 -12   1   28.50   10.60
   2  11  -1   15.90    8.90
  -2 -11   1   -7.30    5.10
  -2 -11   1   -5.30    7.00
  -2 -11   1    2.30    5.00
   1  11  -1   13.70    8.00
  -1 -11   1   16.90    4.60
  -1 -11   1   13.70    4.70
  -1 -11   1   11.60    6.40
   0 -11   1   16.70    7.20
   0 -11   1   15.50    7.70
   1 -11   1   52.69   10.00
   1 -11   1   40.00    8.80
  -2  11  -1  897.01   32.00
   2 -11   1  890.61   21.20
   2 -11   1  939.71   33.40
  -3  11  -1  263.77   18.60
   3 -11   1  265.67   18.60
   3 -11   1  271.97   11.50
   3 -11   1  294.57   11.40
  -4  11  -1  198.98   17.20
   4 -11   1  160.58   10.10
   4 -11   1  165.98   11.10
   4 -11   1  154.38   15.30
  -5  11  -1  152.68   16.80
   5 -11   1  157.78   16.00
   5 -11   1  161.98   11.90
   5 -11   1  163.78   19.60
  -6  11  -1  212.48   19.80
   6 -11   1  267.37   18.20
   6 -11   1  264.07   20.20
   6 -11   1  267.37   16.50
  -7  11  -1   23.10   11.00
   7 -11   1   -4.60    7.90
   7 -11   1    1.40    7.80
   7 -11   1   -0.10    6.40
  -8  11  -1   10.30   10.40
   8 -11   1    9.10    9.00
   8 -11   1   11.20   10.10
   3  10  -1  159.78   17.10
  -3 -10   1  180.48   14.00
  -3 -10   1  165.98   13.40
   2  10  -1    9.10    7.80
  -2 -10   1    9.80    5.20
  -2 -10   1    3.30    5.50
  -2 -10   1    5.70    4.80
   1  10  -1 1035.80   34.50
  -1 -10   1 1023.80   28.90
  -1 -10   1 1011.00   25.40
  -1 -10   1  957.90   24.60
  -1 -10   1 1065.49   30.30
   0  10  -1  331.07   21.30
   0 -10   1  324.17   16.20
   0 -10   1  320.47    9.90
   0 -10   1  304.77   10.20
   0 -10   1  299.17   16.40
   1 -10   1   89.99   11.40
   1 -10   1   86.99   11.50
  -2  10  -1  222.18   15.40
   2 -10   1  272.17    9.70
   2 -10   1  267.67    9.20
   2 -10   1  276.07   17.00
  -3  10  -1    7.50    6.00
   3 -10   1    2.40    3.70
   3 -10   1    0.50    3.50
  -4  10  -1   32.10    8.80
   4 -10   1   27.40    8.10
   4 -10   1   22.80    5.30
   4 -10   1   28.50    6.50
  -5  10  -1  127.19    9.10
   5 -10   1  128.49   11.10
   5 -10   1  117.39   10.30
   5 -10   1  114.59   13.50
  -6  10  -1  695.73   30.70
  -6  10  -1  676.93   23.50
   6 -10   1  651.43   28.80
   6 -10   1  678.23   25.60
   6 -10   1  643.94   25.70
  -7  10  -1  292.67   20.80
  -7  10  -1  324.57   22.70
   7 -10   1  332.27   20.10
   7 -10   1  347.67   22.50
   7 -10   1  310.57   20.30
  -8  10  -1  176.28   21.80
   8 -10   1  182.48   18.30
   8 -10   1  172.98   19.50
   4   9  -1  304.67   21.10
  -4  -9   1  326.97   19.70
   3   9  -1  299.87   19.00
  -3  -9   1  295.17   10.90
  -3  -9   1  270.07   15.30
  -3  -9   1  301.27   15.30
  -3  -9   1  298.97   11.20
   2   9  -1    3.50   10.50
  -2  -9   1   17.10    5.30
  -2  -9   1    5.70    4.20
  -2  -9   1    6.50    4.40
   1   9  -1   11.10    5.90
  -1  -9   1    1.70    3.20
  -1  -9   1    3.50    3.10
  -1  -9   1    1.80    4.60
  -1  -9   1    7.00    4.90
   0   9  -1  415.06   19.10
   0  -9   1  393.26   11.60
   0  -9   1  420.36   11.40
   0  -9   1  406.46   17.00
   0  -9   1  393.86   17.40
  -1   9  -1   47.60    7.80
   1  -9   1   53.79    9.20
   1  -9   1   48.30    4.20
  -2   9  -1 1066.09   32.50
   2  -9   1 1088.59   24.10
   2  -9   1 1088.19   32.20
   2  -9   1 1033.50   23.60
   2  -9   1 1105.59   33.10
  -3   9  -1 1398.86   40.00
   3  -9   1 1418.36   39.70
   3  -9   1 1401.56   35.20
   3  -9   1 1381.46   31.90
  -4   9  -1  345.67   19.00
  -4   9  -1  374.96   13.00
   4  -9   1  359.96   14.60
   4  -9   1  351.16   14.90
   4  -9   1  360.86   18.70
  -5   9  -1  449.95   16.60
  -5   9  -1  466.85   23.10
   5  -9   1  473.25   22.20
   5  -9   1  498.05   19.40
   5  -9   1  468.85   18.80
  -6   9  -1   49.10    9.00
  -6   9  -1   54.39   10.80
   6  -9   1   51.69    8.80
   6  -9   1   34.80    8.50
   6  -9   1   50.99   10.60
  -7   9  -1   -1.30    7.90
  -7   9  -1   17.20    8.70
   7  -9   1   23.10    8.80
   7  -9   1   30.30    8.60
   7  -9   1   13.30    7.80
  -8   9  -1   24.80   21.50
  -8   9  -1   34.70   10.80
   8  -9   1   44.60   11.30
   8  -9   1   44.40   11.50
  -9   9  -1   60.29   14.00
   9  -9   1   56.99   15.10
   5   8  -1   65.49   12.10
  -5  -8   1   54.09   10.70
   4   8  -1  206.48   16.80
  -4  -8   1  196.08   15.10
  -4  -8   1  228.48   14.90
   3   8  -1  676.33   26.80
  -3  -8   1  698.83   18.40
  -3  -8   1  657.23   17.90
  -3  -8   1  678.63   22.90
   2   8  -1   26.70    7.00
  -2  -8   1   37.20    5.90
  -2  -8   1   35.30    5.70
  -2  -8   1   33.90    5.50
  -2  -8   1   45.90    7.40
   1   8  -1  439.46   19.00
  -1  -8   1  464.45   16.30
  -1  -8   1  465.65   14.10
  -1  -8   1  469.15   13.90
  -1  -8   1  472.25   20.60
   0   8  -1 2119.59   49.90
   0  -8   1 2098.09   40.70
   0  -8   1 2093.39   50.39
   0  -8   1 2102.19   40.40
   0  -8   1 2057.29   46.90
   0  -8   1 2093.89   48.00
  -1   8  -1   41.70    6.90
   1  -8   1   38.40    6.60
   1  -8   1   46.30    7.40
   1  -8   1   32.90    3.20
   1  -8   1   36.30    3.50
  -2   8  -1   42.20    7.30
   2  -8   1   35.60    6.80
   2  -8   1   41.10    5.10
   2  -8   1   38.90    7.00
   2  -8   1   45.20    4.30
  -3   8  -1   43.60    8.30
   3  -8   1   50.49    8.40
   3  -8   1   35.80    4.90
   3  -8   1   31.50    5.60
   3  -8   1   33.90    7.10
   3  -8   1   23.80    5.90
  -4   8  -1   13.50    4.10
  -4   8  -1   15.50    6.10
   4  -8   1    5.80    3.70
   4  -8   1   12.10    4.40
   4  -8   1   10.80    4.90
  -5   8  -1   43.00    8.20
   5  -8   1   30.40    6.60
   5  -8   1   48.20    8.00
   5  -8   1   33.70    6.30
  -6   8  -1 1190.38   34.10
  -6   8  -1 1120.29   37.80
   6  -8   1 1144.49   34.90
   6  -8   1 1117.59   34.70
   6  -8   1 1145.69   36.80
  -7   8  -1  137.39   15.30
  -7   8  -1  122.89   14.60
   7  -8   1  149.99   15.30
   7  -8   1  137.89   15.00
   7  -8   1  107.19   13.30
  -8   8  -1   62.89   12.90
  -8   8  -1   44.60   11.10
   8  -8   1   59.49   11.00
   8  -8   1   59.39   11.70
   8  -8   1   57.79   14.10
  -9   8  -1  375.96   30.30
   9  -8   1  419.46   26.80
   9  -8   1  407.86   27.80
   6   7  -1  232.08   20.60
  -6  -7   1  274.47   20.10
   5   7  -1   33.20    9.60
   5   7  -1   17.60    9.80
  -5  -7   1   24.90    9.10
  -5  -7   1   24.50    7.80
   4   7  -1  399.26   23.00
  -4  -7   1  441.36   19.60
  -4  -7   1  429.56   19.70
   3   7  -1  402.06   18.60
  -3  -7   1  379.26   16.30
  -3  -7   1  372.66   16.00
  -3  -7   1  404.56   13.00
  -3  -7   1  405.16   12.70
   2   7  -1   -4.70    3.70
  -2  -7   1    3.70    3.40
  -2  -7   1    0.30    5.50
  -2  -7   1    1.20    3.20
  -2  -7   1    5.60    3.40
   1   7  -1  209.58   12.20
  -1  -7   1  240.18   10.60
  -1  -7   1  203.58   14.80
  -1  -7   1  217.08    8.90
  -1  -7   1  197.78    8.40
  -1  -7   1  228.98   10.90
   0   7  -1  193.28   11.30
   0  -7   1  197.68    6.70
   0  -7   1  198.58   10.20
   0  -7   1  192.78    7.40
   0  -7   1  193.88   10.70
   0  -7   1  200.58   12.00
  -1   7  -1  298.77   13.70
   1  -7   1  306.27   13.40
   1  -7   1  304.77   14.10
  -2   7  -1  363.26   15.60
   2  -7   1  352.06   15.30
   2  -7   1  368.46   15.60
   2  -7   1  354.26   10.60
   2  -7   1  346.77   15.10
  -3   7  -1 2663.03   60.09
  -3   7  -1 2669.53   53.09
  -3   7  -1 2737.53   51.19
   3  -7   1 2646.14   53.99
   3  -7   1 2579.94   59.09
   3  -7   1 2621.24   53.89
   3  -7   1 2812.02   64.19
  -4   7  -1  347.37   16.90
   4  -7   1  358.56   16.40
   4  -7   1  319.17   13.60
   4  -7   1  356.26   14.30
  -5   7  -1   24.10    5.70
  -5   7  -1   31.40    7.50
   5  -7   1   32.60    6.50
   5  -7   1   33.00    6.90
  -6   7  -1  158.08   12.90
  -6   7  -1  127.79   15.00
   6  -7   1  159.98   12.90
   6  -7   1  156.98   13.70
  -7   7  -1   18.40    9.70
  -7   7  -1   21.80    8.20
   7  -7   1   14.50    6.80
   7  -7   1    6.50    7.70
   7  -7   1   15.70    6.60
  -8   7  -1   27.90   10.40
  -8   7  -1   15.70    8.20
   8  -7   1   34.10   10.70
   8  -7   1   37.50   10.10
   8  -7   1    3.60   10.70
  -9   7  -1  387.66   37.30
  -9   7  -1  399.86   26.10
   9  -7   1  393.66   27.30
   9  -7   1  407.96   26.60
   6   6  -1   20.90    8.90
  -6  -6   1    7.90   10.40
  -6  -6   1   15.10    8.20
   5   6  -1    3.30    7.20
   5   6  -1    2.20    6.40
  -5  -6   1    0.80    5.60
  -5  -6   1    1.40    6.70
   4   6  -1  701.13   22.10
   4   6  -1  697.13   25.40
  -4  -6   1  672.43   16.90
  -4  -6   1  673.43   16.90
  -4  -6   1  677.53   24.00
  -4  -6   1  675.43   24.20
   3   6  -1 1455.55   38.10
   3   6  -1 1432.36   32.70
  -3  -6   1 1463.95   35.90
  -3  -6   1 1441.26   31.10
  -3  -6   1 1430.56   35.70
  -3  -6   1 1463.25   38.70
  -3  -6   1 1443.26   31.50
   2   6  -1  144.69    5.60
   2   6  -1  137.79    5.80
   2   6  -1  132.99    9.80
  -2  -6   1  126.19    7.80
  -2  -6   1  133.89    7.70
  -2  -6   1  132.39    7.90
  -2  -6   1  132.09    7.30
  -2  -6   1  116.39   10.00
   1   6  -1 1698.33   39.60
  -1  -6   1 1700.83   40.00
  -1  -6   1 1634.24   34.20
   0   6  -1 1651.33   38.80
   0  -6   1 1712.83   39.40
   0  -6   1 1733.33   37.80
   0  -6   1 1718.13   32.30
  -1   6  -1  145.79    9.10
   1  -6   1  162.18    9.20
   1  -6   1  165.58    9.50
   1  -6   1  149.99    5.00
   1  -6   1  143.89    4.90
  -2   6  -1  150.28    9.60
   2  -6   1  150.78    9.50
   2  -6   1  159.28    6.70
   2  -6   1  141.59    6.20
   2  -6   1  139.79    9.30
   2  -6   1  135.29    9.40
  -3   6  -1    2.40    3.40
  -3   6  -1    4.70    2.60
  -3   6  -1    2.70    2.50
   3  -6   1    7.80    4.20
   3  -6   1    8.10    3.00
   3  -6   1   12.10    4.50
   3  -6   1    3.30    2.80
  -4   6  -1  359.86   13.80
  -4   6  -1  380.16   16.80
   4  -6   1  370.46   16.10
   4  -6   1  359.26   14.50
   4  -6   1  372.36   14.60
  -5   6  -1  403.86   17.00
  -5   6  -1  397.06   18.30
  -5   6  -1  393.46   16.40
   5  -6   1  386.06   16.90
   5  -6   1  346.37   17.00
   5  -6   1  401.16   17.30
   5  -6   1  407.86   28.50
  -6   6  -1 1090.59   33.40
  -6   6  -1 1096.99   34.90
   6  -6   1 1181.88   35.40
   6  -6   1 1129.89   34.50
   6  -6   1 1119.69   34.50
  -7   6  -1  600.94   25.50
  -7   6  -1  567.64   25.10
   7  -6   1  551.34   25.00
   7  -6   1  618.34   36.80
   7  -6   1  534.35   24.90
  -8   6  -1    4.60    7.30
  -8   6  -1   16.70    9.40
   8  -6   1    8.60    7.90
   8  -6   1    4.80    7.50
   8  -6   1   -3.40    9.90
  -9   6  -1   61.49   15.60
  -9   6  -1   78.69   13.80
   9  -6   1   74.09   14.10
   7   5  -1  526.85   27.50
  -7  -5   1  509.65   42.80
   6   5  -1  709.73   29.00
  -6  -5   1  739.93   17.90
  -6  -5   1  733.03   30.70
  -6  -5   1  737.83   30.00
   5   5  -1   62.89    9.40
  -5  -5   1   40.50    5.30
  -5  -5   1   32.60    8.50
  -5  -5   1   33.40    7.50
   4   5  -1  806.82   26.60
  -4  -5   1  837.32   27.30
  -4  -5   1  800.72   26.20
  -4  -5   1  849.12   26.60
  -4  -5   1  832.22   20.10
   3   5  -1  132.89   12.10
   3   5  -1  153.28   10.50
  -3  -5   1  147.99    9.40
  -3  -5   1  149.49    9.50
  -3  -5   1  126.09    7.20
  -3  -5   1  150.38    7.20
  -3  -5   1  149.49   10.90
   2   5  -1   22.80    3.30
   2   5  -1   21.30    4.50
  -2  -5   1   13.70    3.20
  -2  -5   1   24.00    5.30
  -2  -5   1   16.90    3.70
  -2  -5   1   21.80    4.00
  -2  -5   1   19.90    3.80
  -1  -5   1  330.27    9.70
  -1  -5   1  329.77    9.70
  -1  -5   1  327.37   11.00
  -1  -5   1  332.47   13.00
  -1  -5   1  330.77   11.40
   0   5  -1 2495.15   51.89
   0  -5   1 2582.54   52.29
   0  -5   1 2545.55   51.19
  -1   5  -1 1503.15   34.20
   1  -5   1 1491.75   28.20
   1  -5   1 1515.75   33.90
   1  -5   1 1517.15   28.30
   1  -5   1 1492.55   33.90
   1  -5   1 1515.35   34.10
  -2   5  -1 3232.38   57.39
  -2   5  -1 2860.31   66.19
  -2   5  -1 3095.19   57.09
   2  -5   1 3165.98   63.49
   2  -5   1 3072.29   58.89
   2  -5   1 3128.19   66.39
   2  -5   1 3163.48   58.79
  -3   5  -1 1205.68   30.90
  -3   5  -1 1235.88   31.40
  -3   5  -1 1195.98   27.60
   3  -5   1 1240.88   30.80
   3  -5   1 1212.48   28.40
   3  -5   1 1189.48   28.40
  -4   5  -1 2045.80   44.40
  -4   5  -1 1950.50   44.40
  -4   5  -1 1988.60   47.00
   4  -5   1 1977.40   45.00
   4  -5   1 2023.70   47.10
   4  -5   1 2018.00   46.40
   4  -5   1 2004.20   45.20
  -5   5  -1    7.90    4.20
  -5   5  -1    2.60    4.10
  -5   5  -1    4.50    4.30
  -5   5  -1    4.90    4.80
   5  -5   1   15.50    6.00
   5  -5   1   13.80    4.60
   5  -5   1    9.10    4.70
   5  -5   1    5.60    4.50
  -6   5  -1   77.19   10.20
  -6   5  -1   90.09   11.00
   6  -5   1   88.89   10.90
   6  -5   1  112.19   11.20
   6  -5   1   85.49   11.60
  -7   5  -1   25.70    8.10
  -7   5  -1   27.60    8.50
   7  -5   1   26.40    9.30
   7  -5   1   33.50    8.20
   7  -5   1   25.30    8.30
  -8   5  -1   75.09   13.80
  -8   5  -1   67.19   11.10
   8  -5   1  101.09   16.10
   8  -5   1   90.09   14.10
   8  -5   1   72.59   11.60
  -9   5  -1  118.09   17.60
  -9   5  -1  105.19   14.30
   9  -5   1  140.19   18.00
   9  -5   1  121.99   17.90
   7   4  -1   88.49   13.00
   7   4  -1   52.99   15.90
  -7  -4   1   78.29   14.00
  -7  -4   1   86.59   10.20
   6   4  -1   69.19    8.60
   6   4  -1   64.79   10.70
  -6  -4   1   83.09   11.60
  -6  -4   1   71.39    7.40
  -6  -4   1   82.09   12.50
   5   4  -1  109.09   11.00
   5   4  -1  129.69   11.60
  -5  -4   1  112.79   12.30
  -5  -4   1  107.19   11.40
  -5  -4   1  126.99    8.00
   4   4  -1  698.03   22.00
   4   4  -1  684.33   22.90
  -4  -4   1  655.03   22.60
  -4  -4   1  691.93   26.30
  -4  -4   1  667.93   17.70
   3   4  -1 2305.77   50.59
   3   4  -1 2298.17   45.90
   3   4  -1 2386.96   49.00
  -3  -4   1 2325.17   50.09
  -3  -4   1 2281.97   46.00
  -3  -4   1 2299.67   49.90
  -3  -4   1 2322.07   50.59
   2   4  -1 1179.48   25.50
   2   4  -1 1200.48   28.50
  -2  -4   1 1139.69   26.70
  -2  -4   1 1196.58   25.80
  -2  -4   1 1158.18   26.80
  -2  -4   1 1130.79   28.40
   1   4  -1 3029.30   54.49
  -1  -4   1 3017.20   56.59
  -1  -4   1 3102.29   58.19
  -1  -4   1 3030.40   58.49
  -1  -4   1 3067.29   56.89
   0   4  -1 1698.13   36.00
   0   4  -1 1746.53   36.00
   0  -4   1 1752.32   35.80
   0  -4   1 1713.53   36.10
  -1   4  -1  588.64   16.30
   1  -4   1  562.84   12.20
   1  -4   1  601.14   16.10
   1  -4   1  574.94   15.90
   1  -4   1  563.54   12.20
   1  -4   1  600.04   16.40
  -2   4  -1  162.68    8.80
  -2   4  -1  174.28    8.50
  -2   4  -1  164.18    6.50
   2  -4   1  162.08    6.90
   2  -4   1  164.88    7.00
   2  -4   1  173.08    8.90
   2  -4   1  169.88    8.40
  -3   4  -1  856.61   21.70
  -3   4  -1  874.81   26.30
  -3   4  -1  821.62   21.40
   3  -4   1  859.31   22.10
  -4   4  -1  592.94   19.00
  -4   4  -1  591.84   19.80
  -4   4  -1  595.54   19.00
  -4   4  -1  595.94   19.80
   4  -4   1  564.64   19.00
   4  -4   1  607.84   20.00
   4  -4   1  602.54   19.70
   4  -4   1  598.94   19.50
  -5   4  -1   52.09    7.10
  -5   4  -1   72.39    9.00
  -5   4  -1   61.19    8.00
  -5   4  -1   64.09    8.00
   5  -4   1   70.89    8.40
   5  -4   1   66.79    8.80
   5  -4   1   65.09    8.60
   5  -4   1   44.70    7.10
  -6   4  -1  862.61   28.20
  -6   4  -1  859.81   29.60
  -6   4  -1  895.91   29.80
   6  -4   1  821.42   28.40
   6  -4   1  909.41   30.00
   6  -4   1  892.41   30.10
   6  -4   1  919.01   29.90
  -7   4  -1 1513.35   42.70
  -7   4  -1 1566.84   45.90
   7  -4   1 1515.85   45.80
   7  -4   1 1582.04   46.90
   7  -4   1 1547.95   44.30
  -8   4  -1  119.39   16.20
  -8   4  -1  122.79   13.70
   8  -4   1  117.69   14.60
   8  -4   1   99.79   16.20
   8  -4   1  146.19   17.20
  -9   4  -1   95.99   16.80
  -9   4  -1   97.69   13.70
   9  -4   1  140.69   17.60
   8   3  -1   24.80   10.30
  -8  -3   1   26.60   12.20
  -8  -3   1   16.90    6.90
   7   3  -1  731.73   23.70
   7   3  -1  690.33   30.70
   7   3  -1  695.03   28.60
  -7  -3   1  688.43   32.40
  -7  -3   1  677.23   30.60
  -7  -3   1  736.53   22.00
   6   3  -1 1271.97   38.80
   6   3  -1 1352.96   39.10
   6   3  -1 1341.97   33.10
  -6  -3   1 1375.76   38.80
  -6  -3   1 1395.56   42.70
  -6  -3   1 1354.96   41.70
   5   3  -1  109.49   10.40
   5   3  -1   89.69    7.80
   5   3  -1   89.09    9.90
  -5  -3   1   75.39    9.90
  -5  -3   1   88.19    7.10
  -5  -3   1   81.09    9.60
  -5  -3   1   85.19   10.40
   4   3  -1  302.87   13.90
   4   3  -1  327.07   14.20
   4   3  -1  318.67   14.20
  -4  -3   1  304.77   14.50
  -4  -3   1  313.27   14.40
  -4  -3   1  326.57   14.80
  -4  -3   1  309.87   11.20
   3   3  -1   42.70    5.50
   3   3  -1   63.79    6.40
   3   3  -1   47.90    4.70
   3   3  -1   53.29    5.90
  -3  -3   1   52.39    4.90
  -3  -3   1   49.60    6.40
  -3  -3   1   40.70    5.30
   2   3  -1  249.58    9.00
   2   3  -1  257.27    8.70
   2   3  -1  263.77   10.40
  -2  -3   1  271.47   12.00
  -2  -3   1  254.77   10.90
  -2  -3   1  250.17    9.40
  -2  -3   1  272.17    8.80
   1   3  -1  180.48    7.40
  -1  -3   1  185.78    6.20
  -1  -3   1  174.18    7.40
  -1  -3   1  170.28    6.90
  -1  -3   1  177.28    6.10
   0   3  -1 5043.90   93.19
   0   3  -1 5134.39   93.59
   0  -3   1 5170.28   93.49
   0  -3   1 5187.48   93.39
  -1   3  -1  823.92   16.10
  -1   3  -1  815.82   19.10
  -1   3  -1  831.02   19.70
  -1   3  -1  836.52   16.00
   1  -3   1  790.32   18.90
   1  -3   1  819.72   16.60
   1  -3   1  822.72   16.60
   1  -3   1  814.22   19.50
  -2   3  -1    5.60    2.30
  -2   3  -1    7.20    3.30
  -2   3  -1    3.10    2.40
   2  -3   1    4.30    2.40
   2  -3   1    3.70    2.80
  -3   3  -1 3188.48   66.09
  -3   3  -1 3321.07   65.99
  -3   3  -1 3402.66   65.49
  -3   3  -1 3349.86   65.39
   3  -3   1 3272.27   66.09
   3  -3   1 3371.76   66.19
   3  -3   1 3260.97   65.49
   3  -3   1 3312.67   65.59
  -4   3  -1 1718.93   40.00
  -4   3  -1 1756.62   40.70
  -4   3  -1 1721.33   40.70
  -4   3  -1 1831.22   41.10
   4  -3   1 1723.33   40.40
   4  -3   1 1724.13   40.30
   4  -3   1 1699.13   44.10
   4  -3   1 1776.82   41.10
  -5   3  -1  107.09    9.80
  -5   3  -1   92.59    9.50
  -5   3  -1   98.19    8.80
  -5   3  -1   88.49    9.30
   5  -3   1   62.29    8.30
   5  -3   1   82.59    8.90
   5  -3   1   73.29    8.40
   5  -3   1   76.39    9.20
  -6   3  -1   14.30    5.80
  -6   3  -1   16.90    5.60
   6  -3   1   22.00    6.60
   6  -3   1   31.50    6.60
   6  -3   1   12.10    7.00
   6  -3   1   16.20    6.00
  -7   3  -1    3.60    5.40
  -7   3  -1    8.90    7.30
   7  -3   1   -0.20    5.50
   7  -3   1   -9.50    9.80
   7  -3   1    0.30    6.20
  -8   3  -1    3.50    9.10
  -8   3  -1   11.00    7.70
   8  -3   1   -1.70    7.70
   8  -3   1   15.60    8.00
  -9   3  -1  303.27   27.30
  -9   3  -1  310.37   20.40
   9  -3   1  299.07   23.90
   9  -3   1  316.57   27.30
   8   2  -1   10.10   12.40
   8   2  -1    9.30    8.20
  -8  -2   1    1.80    6.00
  -8  -2   1   11.10   10.10
   7   2  -1  103.39   13.00
   7   2  -1   93.19   12.90
   7   2  -1  100.19   11.40
  -7  -2   1  108.19    9.80
  -7  -2   1   98.49   13.80
  -7  -2   1  105.69   15.30
   6   2  -1    3.40    5.40
   6   2  -1    7.00    5.40
   6   2  -1   -6.20    5.20
  -6  -2   1    2.10    4.10
  -6  -2   1   -1.50    5.20
  -6  -2   1    0.00    6.30
   5   2  -1  152.88   13.60
   5   2  -1  123.09    9.10
   5   2  -1  166.58   11.30
   5   2  -1  165.78   11.70
  -5  -2   1  149.39   11.80
  -5  -2   1  135.19    8.60
  -5  -2   1  138.89   11.80
  -5  -2   1  125.79   12.40
   4   2  -1 1332.27   33.80
   4   2  -1 1336.87   33.00
  -4  -2   1 1360.26   30.40
  -4  -2   1 1402.16   33.40
  -4  -2   1 1262.57   33.90
  -4  -2   1 1345.07   34.50
   3   2  -1 4691.43   86.59
   3   2  -1 4557.74   88.79
   3   2  -1 4528.95   88.69
   3   2  -1 4671.23   88.59
  -3  -2   1 4677.93   88.39
  -3  -2   1 4664.83   89.59
  -3  -2   1 4706.43   86.39
   2   2  -1  513.15   13.00
   2   2  -1  501.65   13.70
   2   2  -1  498.45   13.70
   2   2  -1  509.85   13.90
  -2  -2   1  499.85   12.90
  -2  -2   1  460.55   15.20
  -2  -2   1  515.15   13.90
   1   2  -1  130.19    4.80
   1   2  -1  130.99    5.50
   1   2  -1  133.29    5.50
  -1  -2   1  136.69    5.10
  -1  -2   1  127.39    5.50
  -1  -2   1  136.19    5.10
  -1  -2   1  128.29    5.50
   0   2  -1 1892.91   35.60
   0  -2   1 1879.11   36.30
   0  -2   1 1931.11   35.70
  -1   2  -1 3035.20   56.39
  -1   2  -1 3024.30   56.79
  -1   2  -1 3079.99   55.19
   1  -2   1 2991.70   55.19
   1  -2   1 3037.60   56.29
   1  -2   1 3016.90   55.19
  -2   2  -1  724.43   18.00
  -2   2  -1  716.73   17.80
  -2   2  -1  755.22   18.00
   2  -2   1  743.43   18.10
   2  -2   1  728.13   17.90
   2  -2   1  701.03   17.80
  -3   2  -1  428.86   14.30
  -3   2  -1  439.06   14.50
  -3   2  -1  422.46   15.20
  -3   2  -1  444.86   14.50
   3  -2   1  438.06   14.60
   3  -2   1  433.86   14.40
   3  -2   1  415.56   14.10
  -4   2  -1 1172.58   31.40
  -4   2  -1 1205.38   31.60
  -4   2  -1 1244.78   31.40
  -4   2  -1 1200.18   32.30
   4  -2   1 1249.68   32.10
   4  -2   1 1256.17   32.20
   4  -2   1 1287.87   31.40
   4  -2   1 1230.08   30.30
  -5   2  -1    8.70    4.50
  -5   2  -1   12.30    4.00
  -5   2  -1   15.50    5.40
  -5   2  -1    6.10    5.30
   5  -2   1    1.40    4.40
   5  -2   1    8.20    4.50
   5  -2   1    3.80    4.10
  -6   2  -1 1285.27   34.80
  -6   2  -1 1349.56   39.60
  -6   2  -1 1283.67   39.20
   6  -2   1 1326.27   39.20
   6  -2   1 1329.97   37.60
   6  -2   1 1326.27   36.00
   6  -2   1 1343.97   39.10
  -7   2  -1  763.62   31.50
  -7   2  -1  762.02   25.90
  -7   2  -1  769.22   30.70
   7  -2   1  756.72   30.50
   7  -2   1  800.32   29.50
   7  -2   1  790.42   31.90
   7  -2   1  745.43   27.80
  -8   2  -1  121.49   12.80
  -8   2  -1  141.29   18.00
   8  -2   1  135.09   17.80
   8  -2   1  124.89   15.50
  -9   2  -1   -0.10    7.60
  -9   2  -1    5.30   13.10
   9  -2   1   11.90   13.20
   8   1  -1   13.40   11.00
   8   1  -1    6.60   13.80
   8   1  -1    3.50    7.40
  -8  -1   1    4.20    8.80
  -8  -1   1    1.10    6.10
   7   1  -1  572.84   26.20
  -7  -1   1  550.14   20.50
  -7  -1   1  559.14   26.40
  -7  -1   1  581.04   28.40
   6   1  -1 2719.13   59.89
   6   1  -1 2707.33   64.29
   6   1  -1 2657.53   61.89
  -6  -1   1 2738.93   58.59
  -6  -1   1 2812.22   65.59
   5   1  -1  129.29    9.60
   5   1  -1  116.39   10.30
   5   1  -1  124.59    9.90
   5   1  -1  135.19   12.70
  -5  -1   1  151.48   11.60
  -5  -1   1  146.79   10.90
  -5  -1   1  141.09   11.50
  -5  -1   1  143.69    8.90
   4   1  -1   97.79    8.00
   4   1  -1   73.49    8.10
   4   1  -1   84.19    8.40
   4   1  -1   90.19    7.90
  -4  -1   1   85.59    7.50
  -4  -1   1   94.09    8.20
  -4  -1   1   76.49    7.70
  -4  -1   1   82.09    7.40
   3   1  -1  200.88   10.50
   3   1  -1  235.78   10.20
   3   1  -1  243.68   10.40
   3   1  -1  247.18    9.30
  -3  -1   1  236.88    9.20
  -3  -1   1  230.78   10.40
  -3  -1   1  223.38   10.90
  -3  -1   1  243.18   10.50
   2   1  -1  104.09    6.80
   2   1  -1  103.19    5.60
   2   1  -1  105.39    6.10
   2   1  -1  109.19    5.70
  -2  -1   1  117.09    5.70
  -2  -1   1  120.69    6.40
  -2  -1   1  101.29    6.00
  -2  -1   1  108.69    5.70
   1   1  -1 1105.99   22.20
   1   1  -1 1115.49   21.40
   1   1  -1 1154.28   22.10
   1   1  -1 1092.49   21.90
  -1  -1   1 1115.59   21.30
  -1  -1   1 1125.29   22.30
  -1  -1   1 1070.69   22.10
  -1  -1   1 1083.29   22.00
   0   1  -1 6037.20  105.49
   0   1  -1 6130.99  105.59
   0  -1   1 5969.50  105.59
   0  -1   1 5939.21  105.59
   0  -1   1 6168.98  105.59
  -1   1  -1 1495.55   28.80
  -1   1  -1 1459.95   28.90
  -1   1  -1 1546.85   29.30
   1  -1   1 1468.65   29.00
   1  -1   1 1488.25   28.80
   1  -1   1 1485.85   29.00
   1  -1   1 1457.65   28.90
  -2   1  -1   28.70    3.80
  -2   1  -1   16.70    3.00
  -2   1  -1   20.60    3.80
  -2   1  -1   22.70    3.60
   2  -1   1   19.60    3.50
   2  -1   1   18.30    3.60
   2  -1   1   21.40    3.30
   2  -1   1   15.40    2.80
  -3   1  -1 2924.61   59.19
  -3   1  -1 2972.60   58.59
  -3   1  -1 2836.02   56.29
   3  -1   1 2894.81   56.69
   3  -1   1 2864.61   58.99
   3  -1   1 2833.52   57.99
   3  -1   1 2958.10   59.09
  -4   1  -1  525.15   19.20
  -4   1  -1  540.25   18.20
  -4   1  -1  511.35   18.80
  -4   1  -1  510.55   15.90
   4  -1   1  554.44   19.00
   4  -1   1  541.95   16.70
   4  -1   1  516.65   17.90
   4  -1   1  552.54   19.10
  -5   1  -1  523.25   20.90
  -5   1  -1  506.35   20.70
  -5   1  -1  496.35   19.60
  -5   1  -1  507.25   19.70
   5  -1   1  496.95   19.30
   5  -1   1  520.75   17.80
   5  -1   1  507.95   20.60
  -6   1  -1   21.70    8.10
  -6   1  -1   12.00    6.30
  -6   1  -1   26.20    5.70
   6  -1   1   20.00    6.30
   6  -1   1   16.60    6.00
   6  -1   1   14.90    7.10
   6  -1   1    6.50    5.60
  -7   1  -1  316.87   20.60
  -7   1  -1  330.57   23.80
  -7   1  -1  338.87   16.10
   7  -1   1  337.57   19.40
   7  -1   1  295.47   17.90
   7  -1   1  364.46   32.50
  -8   1  -1    2.80    6.30
  -8   1  -1   -2.10    8.90
   8  -1   1   -4.80    8.40
   8  -1   1    2.10    7.30
  -9   1  -1  261.07   26.50
  -9   1  -1  198.18   16.40
   9  -1   1  247.78   28.70
   9  -1   1  205.78   21.30
   9   0  -1  443.66   25.90
  -9   0   1  349.57   27.40
   8   0  -1   18.90    8.20
   8   0  -1   28.40   11.00
  -8   0   1   25.40    7.30
  -8   0   1   20.70   16.20
  -8   0   1   44.70   14.00
   7   0  -1    4.00    5.80
   7   0  -1   -1.90    7.00
  -7   0   1   10.40    8.30
  -7   0   1   -0.80    4.50
  -7   0   1    8.10    7.20
   6   0  -1  567.74   23.30
   6   0  -1  579.04   21.20
   6   0  -1  570.44   23.60
   6   0  -1  514.45   20.80
  -6   0   1  555.24   19.80
  -6   0   1  538.05   21.50
  -6   0   1  548.85   23.20
  -6   0   1  564.24   23.90
   5   0  -1  324.67   15.90
   5   0  -1  303.17   14.10
   5   0  -1  302.07   15.10
   5   0  -1  326.97   14.30
  -5   0   1  336.27   14.60
  -5   0   1  332.67   16.00
  -5   0   1  312.77   15.50
  -5   0   1  339.07   13.60
   4   0  -1 2178.78   46.80
   4   0  -1 2195.88   48.70
   4   0  -1 2145.99   48.40
   4   0  -1 2173.18   47.10
  -4   0   1 2219.98   47.00
  -4   0   1 2222.78   49.10
  -4   0   1 2206.98   46.40
  -4   0   1 2188.08   49.00
   3   0  -1 3087.49   62.09
   3   0  -1 3056.09   62.09
   3   0  -1 3068.09   60.49
  -3   0   1 3155.78   62.49
  -3   0   1 3158.68   60.79
  -3   0   1 3155.78   62.49
  -3   0   1 3217.38   60.79
   2   0  -1 5358.66  100.99
   2   0  -1 5576.34   99.69
   2   0  -1 5658.73  100.79
   2   0  -1 5641.74  101.19
  -2   0   1 5344.57  100.99
  -2   0   1 5620.74  101.29
  -2   0   1 5457.95  100.39
  -2   0   1 5621.84   99.69
   1   0  -1 2261.57   41.40
   1   0  -1 2234.68   39.90
   1   0  -1 2166.08   41.10
  -1   0   1 2221.98   41.20
  -1   0   1 2223.08   41.30
  -1   0   1 2182.08   41.10
  -1   0   1 2200.48   39.90
   0   0  -1  720.53   14.70
   0   0  -1  718.33   14.60
   0   0  -1  755.62   14.20
   0   0   1  732.93   14.10
  -1   0  -1   57.89    2.80
  -1   0  -1   49.90    4.00
   1   0   1   46.80    4.00
   1   0   1   49.10    4.00
   1   0   1   49.60    2.70
   1   0   1   51.49    3.90
  -2   0  -1  639.74   14.30
  -2   0  -1  656.93   16.80
  -2   0  -1  637.94   17.00
   2   0   1  612.84   16.80
   2   0   1  624.64   16.70
   2   0   1  628.74   14.40
   2   0   1  656.93   17.20
  -3   0  -1  577.74   14.80
  -3   0  -1  594.44   18.20
  -3   0  -1  599.74   17.80
  -3   0  -1  569.34   18.00
   3   0   1  581.94   17.90
   3   0   1  563.14   19.60
   3   0   1  587.24   15.20
  -4   0  -1 1874.81   39.40
  -4   0  -1 1910.91   43.80
  -4   0  -1 1929.31   44.90
   4   0   1 1893.11   44.60
   4   0   1 1873.61   44.20
   4   0   1 1856.81   43.40
  -5   0  -1   95.09    7.40
  -5   0  -1  107.29   10.60
  -5   0  -1  105.59   10.80
  -5   0  -1   97.39   10.60
   5   0   1   85.79    8.00
   5   0   1   99.99    9.90
   5   0   1  103.49   11.10
   5   0   1  101.59   10.30
  -6   0  -1  334.17   14.20
  -6   0  -1  326.07   18.70
  -6   0  -1  337.27   19.60
   6   0   1  342.57   15.30
   6   0   1  370.66   19.50
   6   0   1  362.56   18.40
  -7   0  -1 1375.26   36.20
  -7   0  -1 1447.56   45.70
  -7   0  -1 1467.85   47.00
   7   0   1 1475.85   43.50
   7   0   1 1430.16   38.30
   7   0   1 1443.16   45.00
  -8   0  -1  119.29   11.80
  -8   0  -1  114.69   16.40
   8   0   1  168.58   17.60
   9  -1  -1  631.94   30.10
   9  -1  -1  647.44   35.30
  -9   1   1  673.53   34.70
  -9   1   1  589.24   26.40
   8  -1  -1   20.90   10.30
   8  -1  -1   13.90    8.00
  -8   1   1   31.10    8.10
  -8   1   1   17.60   10.70
  -8   1   1   16.30    9.70
   7  -1  -1  791.72   28.60
   7  -1  -1  803.02   28.40
  -7   1   1  739.53   30.70
  -7   1   1  794.12   26.70
  -7   1   1  821.32   31.00
   6  -1  -1 1150.18   35.10
   6  -1  -1 1165.48   33.30
   6  -1  -1 1131.19   32.90
   6  -1  -1 1198.38   35.40
  -6   1   1 1153.88   35.40
  -6   1   1 1215.58   36.30
  -6   1   1 1198.98   33.70
  -6   1   1 1143.49   32.10
   5  -1  -1  870.61   25.70
   5  -1  -1  850.81   24.90
   5  -1  -1  851.01   26.50
   5  -1  -1  845.72   26.80
  -5   1   1  857.11   27.30
  -5   1   1  858.11   24.80
  -5   1   1  893.21   25.40
   4  -1  -1   71.79    7.30
   4  -1  -1   63.29    6.90
   4  -1  -1   55.69    7.00
  -4   1   1   80.49    6.90
  -4   1   1   68.39    7.20
  -4   1   1   70.89    6.70
  -4   1   1   67.69    7.20
   3  -1  -1  399.66   13.70
   3  -1  -1  413.86   12.70
  -3   1   1  401.16   12.60
  -3   1   1  387.76   13.00
   2  -1  -1   51.99    4.40
   2  -1  -1   50.49    4.70
   2  -1  -1   44.70    4.90
  -2   1   1   52.69    4.50
  -2   1   1   56.69    5.00
   1  -1  -1   54.19    3.60
   1  -1  -1   52.69    3.30
   1  -1  -1   48.60    3.50
  -1   1   1   48.10    3.50
  -1   1   1   47.00    3.90
   0  -1  -1 4458.05   80.49
   0  -1  -1 4502.95   79.19
   0  -1  -1 4545.25   80.59
   0   1   1 4423.56   80.39
   0   1   1 4522.55   80.49
   0   1   1 4435.26   80.79
   0   1   1 4620.24   79.29
  -1  -1  -1 9798.62  174.78
  -1  -1  -1 9927.91  175.18
  -1  -1  -1 9769.42  174.68
   1   1   1 9777.02  174.68
   1   1   1 9999.00  175.18
  -2  -1  -1  279.97   10.50
  -2  -1  -1  265.77    6.80
  -2  -1  -1  280.87   10.40
   2   1   1  256.07   10.10
   2   1   1  252.07   10.00
   2   1   1  278.67    7.10
  -3  -1  -1 1305.57   26.80
  -3  -1  -1 1337.47   32.30
  -3  -1  -1 1345.47   32.10
  -3  -1  -1 1363.26   32.50
   3   1   1 1271.27   31.70
   3   1   1 1310.67   27.20
   3   1   1 1310.77   31.80
  -4  -1  -1 1935.31   45.90
  -4  -1  -1 1978.80   46.10
  -4  -1  -1 1847.42   38.70
  -4  -1  -1 1908.31   45.00
   4   1   1 1892.71   45.10
   4   1   1 1938.71   45.40
   4   1   1 1954.20   39.70
   4   1   1 1902.21   44.80
  -5  -1  -1   49.80    8.30
  -5  -1  -1   36.80    7.10
  -5  -1  -1   39.30    7.40
   5   1   1   32.90    7.10
   5   1   1   44.50    8.00
   5   1   1   36.40    7.30
  -6  -1  -1   93.69   12.40
  -6  -1  -1  126.99   14.40
   6   1   1   85.99   11.00
   6   1   1   92.09   11.70
   6   1   1   99.29    9.40
  -7  -1  -1  301.47   24.60
  -7  -1  -1  274.37   13.40
  -7  -1  -1  313.17   23.50
   7   1   1  232.88   19.90
   7   1   1  275.17   15.50
   7   1   1  318.77   19.80
  -8  -1  -1   51.99   12.90
  -8  -1  -1   41.30    7.70
   8   1   1   54.69   15.20
   8   1   1   52.19   12.10
   9  -2  -1  250.07   20.80
   9  -2  -1  238.58   24.20
  -9   2   1  253.47   18.70
  -9   2   1  224.78   23.30
   8  -2  -1   79.89   12.50
   8  -2  -1   80.39   12.20
  -8   2   1   98.09   12.30
  -8   2   1   87.89   13.90
   7  -2  -1  104.69   13.50
   7  -2  -1  133.29   13.70
   7  -2  -1  119.39   12.40
  -7   2   1  130.09   13.80
  -7   2   1  125.59   11.80
  -7   2   1  142.69   20.90
   6  -2  -1  597.84   22.90
   6  -2  -1  570.44   26.30
   6  -2  -1  620.34   24.20
   6  -2  -1  559.74   21.20
  -6   2   1  592.34   22.20
  -6   2   1  578.54   21.50
  -6   2   1  604.24   23.80
   5  -2  -1  297.67   14.60
   5  -2  -1  293.97   14.80
   5  -2  -1  298.07   14.40
   5  -2  -1  284.57   13.40
  -5   2   1  339.77   14.60
  -5   2   1  295.77   14.70
  -5   2   1  277.37   14.50
  -5   2   1  296.07   13.80
   4  -2  -1  263.17   14.10
   4  -2  -1  272.37   12.40
   4  -2  -1  242.58   12.70
   4  -2  -1  275.97   12.50
  -4   2   1  241.28   11.70
  -4   2   1  259.17   12.20
  -4   2   1  285.37   11.90
   3  -2  -1 4930.91   92.29
   3  -2  -1 4924.41   92.09
   3  -2  -1 4701.33   92.79
  -3   2   1 4873.11   91.99
  -3   2   1 4861.81   92.29
  -3   2   1 4856.31   91.89
   2  -2  -1 5560.44  101.29
   2  -2  -1 5447.66  101.19
   2  -2  -1 5629.54  101.39
  -2   2   1 5575.44  101.39
  -2   2   1 5599.64  101.19
  -2   2   1 5451.45  102.19
  -2   2   1 5554.34  101.29
   1  -2  -1   42.60    3.60
   1  -2  -1   50.89    4.40
   1  -2  -1   56.19    4.50
  -1   2   1   41.40    4.20
  -1   2   1   40.50    4.00
  -1   2   1   45.00    3.50
  -1   2   1   40.90    3.40
   0  -2  -1   74.19    4.20
   0  -2  -1   73.19    3.50
   0  -2  -1   65.69    4.30
   0   2   1   66.09    5.00
   0   2   1   68.49    4.00
   0   2   1   67.99    3.50
  -1  -2  -1 1749.03   36.70
  -1  -2  -1 1708.03   35.40
   1   2   1 1752.72   36.70
   1   2   1 1774.82   35.20
   1   2   1 1777.42   35.30
  -2  -2  -1  233.68    9.90
  -2  -2  -1  227.78   10.40
  -2  -2  -1  236.58    9.90
   2   2   1  237.78   10.50
   2   2   1  230.08    9.70
   2   2   1  235.18    9.80
  -3  -2  -1  963.10   26.90
  -3  -2  -1 1041.70   27.20
  -3  -2  -1  999.80   27.00
  -3  -2  -1 1004.70   20.10
   3   2   1 1015.20   20.40
   3   2   1  969.70   29.10
   3   2   1  997.90   26.40
   3   2   1 1033.60   27.20
  -4  -2  -1 2607.54   58.79
  -4  -2  -1 2390.46   64.79
  -4  -2  -1 2552.34   58.69
  -4  -2  -1 2597.04   49.50
   4   2   1 2689.13   50.09
   4   2   1 2659.23   58.39
   4   2   1 2731.73   58.79
   4   2   1 2651.53   58.49
  -5  -2  -1   32.60    4.20
  -5  -2  -1   34.40    7.30
  -5  -2  -1   28.70    7.00
   5   2   1   24.90    4.20
   5   2   1   17.50    6.50
   5   2   1   28.50    7.00
  -6  -2  -1   63.89   10.20
  -6  -2  -1   74.79    6.70
  -6  -2  -1   86.69   12.60
   6   2   1   68.09   10.90
   6   2   1   71.59   10.80
  -7  -2  -1  574.24   20.30
  -7  -2  -1  543.75   27.90
  -7  -2  -1  536.35   30.80
   7   2   1  541.85   19.40
   7   2   1  548.65   28.10
   7   2   1  572.04   26.90
  -8  -2  -1  227.08   22.80
   8   2   1  242.68   21.80
   9  -3  -1  877.11   39.20
   9  -3  -1  895.01   35.60
  -9   3   1  926.41   40.50
  -9   3   1  900.41   34.00
   8  -3  -1  116.19   13.90
   8  -3  -1  104.29   14.30
  -8   3   1  105.79   12.80
  -8   3   1  103.49   14.20
   7  -3  -1  115.39   13.00
   7  -3  -1  150.48   20.30
   7  -3  -1  125.09   12.40
  -7   3   1  116.29   14.60
  -7   3   1  119.79   15.60
  -7   3   1  133.79   12.40
   6  -3  -1 2500.55   58.59
   6  -3  -1 2485.45   59.09
   6  -3  -1 2510.35   59.29
   6  -3  -1 2495.05   57.09
  -6   3   1 2399.96   57.09
  -6   3   1 2423.86   56.99
  -6   3   1 2462.25   58.79
   5  -3  -1  183.48   12.40
   5  -3  -1  179.68   11.80
   5  -3  -1  204.28   12.60
   5  -3  -1  196.28   11.30
  -5   3   1  214.38   12.00
  -5   3   1  193.58   11.70
  -5   3   1  208.38   12.30
  -5   3   1  173.28   11.60
   4  -3  -1  198.18   10.60
   4  -3  -1  193.38   10.10
   4  -3  -1  192.18   11.00
   4  -3  -1  184.78   10.40
  -4   3   1  188.48   10.40
  -4   3   1  191.68   10.70
  -4   3   1  194.18   10.20
  -4   3   1  178.18   10.10
   3  -3  -1  314.57   11.60
   3  -3  -1  283.97   11.20
   3  -3  -1  288.97   11.40
  -3   3   1  303.97   11.60
  -3   3   1  315.07   11.40
  -3   3   1  292.17   12.10
  -3   3   1  305.97   11.30
   2  -3  -1    5.30    2.60
   2  -3  -1    8.80    3.00
   2  -3  -1    8.90    2.60
   2  -3  -1    3.90    2.90
  -2   3   1    1.80    2.70
  -2   3   1    3.10    2.40
  -2   3   1    6.40    2.70
   1  -3  -1    0.50    2.10
   1  -3  -1    2.90    2.00
   1  -3  -1   -1.90    1.70
  -1   3   1    1.00    1.70
  -1   3   1    2.80    2.30
  -1   3   1    1.70    2.40
   0  -3  -1 4203.18   76.49
   0  -3  -1 4184.58   77.39
   0  -3  -1 4266.27   79.99
   0  -3  -1 4347.77   77.49
   0   3   1 4203.08   76.59
   0   3   1 4198.48   76.69
   0   3   1 4193.98   79.89
  -1  -3  -1 1913.81   40.80
  -1  -3  -1 1883.21   34.50
  -1  -3  -1 1844.52   38.60
  -1  -3  -1 1943.21   34.70
  -1  -3  -1 1923.21   39.00
   1   3   1 1890.51   38.20
   1   3   1 1876.91   40.70
  -2  -3  -1  866.71   22.60
  -2  -3  -1  860.21   22.70
  -2  -3  -1  849.91   23.60
   2   3   1  848.62   21.70
   2   3   1  829.12   23.60
   2   3   1  841.62   21.80
  -3  -3  -1  565.64   19.10
  -3  -3  -1  594.64   20.20
  -3  -3  -1  562.44   19.10
   3   3   1  557.74   18.50
   3   3   1  564.64   19.70
  -4  -3  -1   97.29    9.90
  -4  -3  -1  114.29   10.20
  -4  -3  -1  116.49   11.60
   4   3   1  113.39   10.50
  -5  -3  -1  284.67   17.50
  -5  -3  -1  311.47   17.70
   5   3   1  307.07   16.80
   5   3   1  286.17   16.80
  -6  -3  -1   86.59   13.30
  -6  -3  -1   84.19   12.40
   6   3   1   83.89   11.70
  -7  -3  -1  351.46   23.80
   7   3   1  358.26   23.10
   9  -4  -1  262.77   24.20
   9  -4  -1  239.48   20.50
  -9   4   1  249.78   24.90
  -9   4   1  263.37   20.10
   8  -4  -1   -2.10    9.70
   8  -4  -1    8.50    7.10
   8  -4  -1    8.60    7.20
  -8   4   1   10.60    8.50
  -8   4   1    4.90    6.60
   7  -4  -1  189.38   14.30
   7  -4  -1  193.88   16.90
   7  -4  -1  186.08   15.30
  -7   4   1  194.18   14.70
  -7   4   1  147.69   14.30
   6  -4  -1  678.83   24.10
   6  -4  -1  657.73   25.40
   6  -4  -1  734.93   25.80
  -6   4   1  677.33   24.70
  -6   4   1  661.73   24.70
  -6   4   1  682.43   25.20
   5  -4  -1  908.31   27.70
   5  -4  -1  904.91   27.50
   5  -4  -1  910.01   27.00
   5  -4  -1 1031.40   40.70
  -5   4   1  942.71   27.60
  -5   4   1  902.41   27.20
  -5   4   1  869.21   27.60
   4  -4  -1  104.49    8.00
   4  -4  -1   86.69    7.70
   4  -4  -1   83.29    7.60
   4  -4  -1  100.79    8.50
  -4   4   1   80.19    8.20
  -4   4   1   89.29    8.00
  -4   4   1   93.19    7.80
  -4   4   1   91.19    7.50
   3  -4  -1 2748.32   57.99
   3  -4  -1 2769.42   59.19
   3  -4  -1 2782.02   59.79
   3  -4  -1 2759.32   55.99
  -3   4   1 2751.52   55.59
  -3   4   1 2832.12   55.79
  -3   4   1 2824.92   57.49
   2  -4  -1 2594.24   52.59
   2  -4  -1 2546.65   52.39
   2  -4  -1 2525.45   50.09
   2  -4  -1 2554.34   50.09
  -2   4   1 2546.55   49.30
  -2   4   1 2596.34   52.69
   1  -4  -1  589.34   16.90
   1  -4  -1  552.04   14.20
   1  -4  -1  578.14   14.10
   1  -4  -1  567.04   15.50
  -1   4   1  571.24   13.50
  -1   4   1  574.04   15.70
  -1   4   1  584.44   13.10
  -1   4   1  535.05   16.50
   0  -4  -1  139.09    8.50
   0  -4  -1  133.99    6.40
   0  -4  -1  139.89    6.10
   0  -4  -1  139.59    6.50
   0   4   1  154.18    5.60
   0   4   1  142.89    5.60
   0   4   1  152.48    6.50
   0   4   1  145.89    8.50
  -1  -4  -1   93.19    4.10
  -1  -4  -1   94.59    6.20
  -1  -4  -1   94.59    4.40
  -1  -4  -1   94.69    6.20
  -1  -4  -1  101.49    8.00
   1   4   1   92.69    8.80
   1   4   1  101.29    5.90
   1   4   1   89.79    5.40
  -2  -4  -1   29.30    4.70
  -2  -4  -1   28.20    4.80
  -2  -4  -1   20.30    5.20
   2   4   1   26.90    4.60
   2   4   1   31.80    5.50
  -3  -4  -1  974.10   29.10
  -3  -4  -1  981.90   27.70
  -3  -4  -1  944.81   27.40
   3   4   1  953.00   28.80
   3   4   1 1011.20   27.10
  -4  -4  -1 1184.98   34.80
  -4  -4  -1 1201.28   35.10
   4   4   1 1287.77   34.40
   4   4   1 1230.18   35.90
  -5  -4  -1  539.15   24.20
  -5  -4  -1  572.54   24.20
   5   4   1  529.85   27.50
   5   4   1  554.44   23.20
  -6  -4  -1  138.99   18.70
  -6  -4  -1  120.39   14.80
   6   4   1  126.39   17.10
   6   4   1  138.39   15.40
  -7  -4  -1  305.27   23.50
   7   4   1  335.57   23.60
   9  -5  -1  566.24   28.40
   9  -5  -1  530.75   30.00
  -9   5   1  558.74   28.20
  -9   5   1  553.14   32.20
   8  -5  -1  523.25   28.50
   8  -5  -1  584.54   27.90
   8  -5  -1  587.04   26.20
  -8   5   1  546.65   26.10
  -8   5   1  588.04   27.70
   7  -5  -1  115.89   14.60
   7  -5  -1  130.99   13.80
  -7   5   1  126.89   13.90
   6  -5  -1 1134.29   34.00
   6  -5  -1 1132.09   34.60
   6  -5  -1 1139.29   34.50
  -6   5   1 1198.58   34.60
  -6   5   1 1157.78   35.40
   5  -5  -1  374.56   16.30
   5  -5  -1  349.77   16.00
   5  -5  -1  323.47   15.40
  -5   5   1  338.57   15.30
  -5   5   1  318.77   15.80
  -5   5   1  331.57   15.10
  -5   5   1  338.27   16.50
   4  -5  -1   75.79    8.00
   4  -5  -1   85.49    7.50
   4  -5  -1  106.89    8.10
  -4   5   1   91.59    7.60
  -4   5   1   76.49    8.50
  -4   5   1   87.59    7.70
  -4   5   1   92.09    8.60
   3  -5  -1   22.30    4.70
   3  -5  -1   26.00    4.30
   3  -5  -1   22.70    5.00
   3  -5  -1   17.80    6.60
   3  -5  -1   28.30    4.60
  -3   5   1   29.00    4.40
  -3   5   1   27.60    5.40
  -3   5   1   30.00    4.10
   2  -5  -1 1975.90   39.90
   2  -5  -1 1944.01   42.70
   2  -5  -1 1971.70   39.90
   2  -5  -1 1938.41   43.50
  -2   5   1 1934.21   38.90
  -2   5   1 1917.11   38.30
   1  -5  -1   86.79    5.30
   1  -5  -1   84.99    5.50
   1  -5  -1  100.69    7.70
  -1   5   1   96.99    7.60
  -1   5   1   86.49    4.20
   0  -5  -1 2151.08   47.60
   0  -5  -1 2141.19   43.30
   0  -5  -1 2146.79   43.40
   0  -5  -1 2142.29   43.10
   0   5   1 2102.79   47.30
   0   5   1 2183.88   43.60
   0   5   1 2228.68   40.60
  -1  -5  -1 3299.77   62.29
  -1  -5  -1 3318.77   65.49
  -1  -5  -1 3420.96   65.99
  -1  -5  -1 3337.97   61.89
  -1  -5  -1 3306.67   69.59
   1   5   1 3337.17   69.39
   1   5   1 3370.26   63.09
  -2  -5  -1  345.17   13.80
  -2  -5  -1  347.27   13.70
   2   5   1  357.86   15.90
  -3  -5  -1   85.09   16.20
  -3  -5  -1   73.49    8.50
  -3  -5  -1   82.99    8.80
   3   5   1   61.79    8.10
   3   5   1   74.59    9.80
  -4  -5  -1  140.79   12.80
  -4  -5  -1  146.29   12.90
   4   5   1  144.29   12.90
   4   5   1  143.09   12.20
  -5  -5  -1   27.40    8.70
  -5  -5  -1   17.30    7.30
   5   5   1   21.20    8.40
   5   5   1    5.80    7.00
  -6  -5  -1   86.59   12.40
   9  -6  -1   20.40   10.30
   9  -6  -1   29.60   11.40
  -9   6   1   11.50   12.60
  -9   6   1   23.10    9.70
   8  -6  -1   25.90    9.10
   8  -6  -1   18.20    8.80
   8  -6  -1   11.40    9.60
  -8   6   1   10.40    8.50
  -8   6   1   16.00    8.50
   7  -6  -1   64.29   10.60
   7  -6  -1   57.99   10.20
   7  -6  -1   67.79   10.60
  -7   6   1   78.79   11.90
  -7   6   1   57.09    9.60
   6  -6  -1  794.42   27.90
   6  -6  -1  851.11   28.50
   6  -6  -1  859.51   28.60
  -6   6   1  830.42   29.90
  -6   6   1  728.63   28.30
   5  -6  -1 1361.26   37.60
   5  -6  -1 1392.66   36.80
   5  -6  -1 1469.85   37.50
  -5   6   1 1403.66   36.00
  -5   6   1 1345.57   41.60
  -5   6   1 1450.95   39.60
  -5   6   1 1389.66   36.30
   4  -6  -1   13.60    3.90
   4  -6  -1   26.90    5.90
   4  -6  -1   11.10    4.70
   4  -6  -1   20.10    5.10
  -4   6   1   10.60    5.10
  -4   6   1   13.10    4.20
   3  -6  -1 2000.40   46.20
   3  -6  -1 1973.30   46.00
   3  -6  -1 1970.50   42.50
   3  -6  -1 1944.21   42.30
  -3   6   1 1950.10   41.10
  -3   6   1 1944.51   46.00
  -3   6   1 1993.40   40.80
   2  -6  -1 2934.91   57.49
   2  -6  -1 2918.81   57.39
   2  -6  -1 2944.41   61.29
   2  -6  -1 3004.40   62.59
   2  -6  -1 2984.80   62.79
  -2   6   1 2874.91   55.29
  -2   6   1 2861.31   61.29
   1  -6  -1    9.30    2.90
   1  -6  -1    3.50    3.40
   1  -6  -1   10.90    2.90
   1  -6  -1    8.90    3.40
  -1   6   1   16.20    4.40
  -1   6   1    7.70    3.20
   0  -6  -1    0.70    2.50
   0  -6  -1    1.00    4.10
   0  -6  -1    0.50    2.40
   0  -6  -1    3.30    2.60
   0   6   1    1.70    3.30
   0   6   1    1.10    2.80
  -1  -6  -1   16.10    5.30
  -1  -6  -1    4.10    3.30
  -1  -6  -1   11.50    3.50
  -1  -6  -1   10.40    2.70
  -1  -6  -1   11.20    3.00
   1   6   1    6.60    4.10
   1   6   1    7.10    2.60
   1   6   1    9.20    2.90
  -2  -6  -1  141.89    9.60
  -2  -6  -1  140.89   12.70
  -2  -6  -1  135.69    9.30
   2   6   1  148.29   11.90
   2   6   1  145.19    8.60
  -3  -6  -1  123.89   10.70
   3   6   1  139.49   10.60
   3   6   1  178.98   13.60
  -4  -6  -1 1280.77   37.90
  -4  -6  -1 1299.37   38.60
   4   6   1 1317.77   35.90
   4   6   1 1295.47   40.00
  -5  -6  -1  244.28   19.00
  -5  -6  -1  185.38   16.40
   5   6   1  213.08   19.40
   5   6   1  205.08   17.80
  -6  -6  -1   56.49   12.10
   6   6   1   91.19   14.50
   9  -7  -1  703.93   34.10
   9  -7  -1  730.03   33.10
  -9   7   1  732.23   36.10
  -9   7   1  763.72   34.60
   8  -7  -1  416.56   24.10
   8  -7  -1  433.86   23.50
   8  -7  -1  428.86   26.40
  -8   7   1  407.26   24.30
  -8   7   1  445.96   25.30
   7  -7  -1   29.30    8.00
   7  -7  -1   31.10    8.60
   7  -7  -1   34.80    8.90
  -7   7   1   33.20    9.30
  -7   7   1   27.90    7.70
   6  -7  -1  255.07   15.70
   6  -7  -1  265.17   16.20
   6  -7  -1  286.17   17.20
  -6   7   1  252.87   15.40
   5  -7  -1  654.33   24.50
   5  -7  -1  668.23   23.00
  -5   7   1  676.43   22.00
  -5   7   1  685.23   25.70
   4  -7  -1   17.20    5.60
   4  -7  -1   27.40    5.00
   4  -7  -1   19.60    5.00
   4  -7  -1   24.30    6.30
  -4   7   1   33.30    5.30
   3  -7  -1  416.56   20.40
   3  -7  -1  410.96   14.50
   3  -7  -1  402.26   14.30
   3  -7  -1  415.86   17.80
  -3   7   1  420.76   17.70
  -3   7   1  406.86   12.40
  -3   7   1  427.36   13.10
   2  -7  -1  681.33   18.50
   2  -7  -1  684.83   18.60
   2  -7  -1  700.73   22.10
   2  -7  -1  732.73   23.80
  -2   7   1  686.63   22.30
   1  -7  -1  384.16   12.50
   1  -7  -1  396.56   14.80
   1  -7  -1  378.96   17.00
  -1   7   1  381.96   16.60
  -1   7   1  388.96   15.20
   0  -7  -1  632.64   18.00
   0  -7  -1  620.84   23.00
   0  -7  -1  636.34   18.00
   0  -7  -1  615.14   18.10
   0   7   1  630.64   22.50
   0   7   1  619.44   18.70
  -1  -7  -1 2034.80   45.10
  -1  -7  -1 2089.99   41.80
  -1  -7  -1 2072.59   42.50
  -1  -7  -1 2083.39   48.70
   1   7   1 1967.90   49.99
  -2  -7  -1  352.26   15.50
  -2  -7  -1  368.76   18.30
   2   7   1  352.86   12.10
   2   7   1  392.16   18.90
  -3  -7  -1   16.00    5.80
  -3  -7  -1   27.60    6.90
   3   7   1   20.10    7.50
   3   7   1   14.90    5.70
  -4  -7  -1   47.00    9.40
  -4  -7  -1   38.10    8.30
   4   7   1   41.00   10.20
   4   7   1   34.30   11.30
  -5  -7  -1   24.20    9.20
   5   7   1   19.50   10.10
   9  -8  -1   11.60    9.90
   9  -8  -1   -0.70    9.90
  -9   8   1   27.00   11.90
   8  -8  -1    8.80    8.10
   8  -8  -1   -3.00    7.60
   8  -8  -1    4.10    9.90
  -8   8   1    0.70    7.30
  -8   8   1    3.40    9.60
   7  -8  -1    6.50    6.20
   7  -8  -1    3.40    6.50
   7  -8  -1   14.00    7.10
  -7   8   1    0.20    6.30
  -7   8   1    1.00    6.80
   6  -8  -1 1099.49   33.90
   6  -8  -1 1084.39   33.80
   6  -8  -1 1026.40   34.90
  -6   8   1 1086.09   36.90
  -6   8   1 1088.39   32.30
   5  -8  -1  587.54   21.80
   5  -8  -1  626.74   22.50
   5  -8  -1  646.94   25.00
  -5   8   1  613.14   25.50
   4  -8  -1  152.38   10.20
   4  -8  -1  160.08   13.00
   4  -8  -1  154.08   10.10
  -4   8   1  164.08   13.00
  -4   8   1  154.28    8.80
   3  -8  -1  791.02   22.00
   3  -8  -1  781.42   26.40
   3  -8  -1  783.32   27.00
   3  -8  -1  795.12   22.10
  -3   8   1  785.72   17.70
  -3   8   1  778.12   26.50
  -3   8   1  786.52   18.20
   2  -8  -1  509.35   16.00
   2  -8  -1  520.25   15.80
   2  -8  -1  528.45   19.80
  -2   8   1  536.15   20.10
   1  -8  -1  184.38    8.90
   1  -8  -1  187.58   12.20
   1  -8  -1  186.78   11.00
  -1   8   1  174.28   12.70
  -1   8   1  152.08   10.70
   0  -8  -1   70.99    6.90
   0  -8  -1   74.29    7.60
   0   8   1   90.49   10.60
  -1  -8  -1  130.19   10.10
  -1  -8  -1  122.29   10.60
  -1  -8  -1  139.49    8.40
   1   8   1  106.39   11.70
  -2  -8  -1   98.99    9.70
  -2  -8  -1  111.29   10.10
   2   8   1   86.09   11.50
  -3  -8  -1  139.39   12.90
  -3  -8  -1  147.79   12.40
   3   8   1  149.99   15.20
  -4  -8  -1  340.77   19.70
  -4  -8  -1  331.07   21.90
   4   8   1  335.67   22.40
   9  -9  -1  281.97   23.00
   9  -9  -1  323.07   28.40
  -9   9   1  292.47   25.20
   8  -9  -1  587.64   28.50
   8  -9  -1  532.15   28.00
  -8   9   1  541.65   29.60
  -8   9   1  543.15   32.40
   7  -9  -1   49.40   10.30
   7  -9  -1   45.90    9.60
   7  -9  -1   43.10    9.60
  -7   9   1   41.50   11.50
   6  -9  -1  421.26   22.10
   6  -9  -1  412.06   19.90
   6  -9  -1  375.06   19.90
  -6   9   1  413.46   18.80
  -6   9   1  415.56   23.30
   5  -9  -1    1.30    4.30
   5  -9  -1    0.40    4.80
   5  -9  -1    3.70    5.70
  -5   9   1   -0.60    4.70
  -5   9   1   11.00    6.70
   4  -9  -1   51.49    7.20
  -4   9   1   62.89    6.10
  -4   9   1   56.09    9.90
   3  -9  -1  185.48   10.50
   3  -9  -1  188.38   10.20
   3  -9  -1  184.78   14.30
  -3   9   1  205.48   14.10
   2  -9  -1  786.82   26.40
   2  -9  -1  806.82   28.90
   2  -9  -1  793.22   24.10
   2  -9  -1  768.62   21.30
  -2   9   1  831.02   27.10
   1  -9  -1  149.69    8.60
   1  -9  -1  169.08   11.80
   1  -9  -1  156.68    9.40
  -1   9   1  146.39   11.30
  -1   9   1  139.19   13.00
   0  -9  -1  201.68   12.10
   0  -9  -1  205.78   11.60
   0  -9  -1  197.08   10.60
   0  -9  -1  196.58   10.60
   0   9   1  188.88   16.90
  -1  -9  -1  708.03   22.60
  -1  -9  -1  724.23   22.60
  -1  -9  -1  721.23   20.70
  -1  -9  -1  726.13   19.90
   1   9   1  742.23   28.90
  -2  -9  -1  258.87   14.70
  -2  -9  -1  261.87   14.60
   2   9   1  248.48   18.40
  -3  -9  -1   -1.50    5.80
  -3  -9  -1    0.60    6.70
   3   9   1    5.80    8.50
  -4  -9  -1    2.40    7.40
   4   9   1    1.20    9.60
   8 -10  -1   47.80   11.40
   8 -10  -1   30.80   13.00
  -8  10   1   46.00   12.40
   7 -10  -1   14.20    8.60
   7 -10  -1    0.90    7.60
   7 -10  -1    7.20    7.20
  -7  10   1   -6.40    7.60
  -7  10   1    0.40   10.00
   6 -10  -1  226.18   15.40
   6 -10  -1  197.68   15.30
   6 -10  -1  171.58   16.50
  -6  10   1  172.18   13.50
  -6  10   1  211.18   18.50
   5 -10  -1 1170.98   38.90
   5 -10  -1 1064.19   32.40
   5 -10  -1 1133.69   33.40
  -5  10   1 1162.78   39.40
  -5  10   1 1150.98   28.00
   4 -10  -1  291.97   14.10
   4 -10  -1  327.57   19.90
   4 -10  -1  317.77   15.30
  -4  10   1  285.87   18.70
   3 -10  -1  643.14   20.30
   3 -10  -1  590.94   19.40
   3 -10  -1  643.24   27.00
  -3  10   1  616.64   25.40
   2 -10  -1  172.08   15.50
   2 -10  -1  173.98    9.60
   2 -10  -1  184.18   10.30
  -2  10   1  186.08   14.30
   1 -10  -1  105.89    8.60
   1 -10  -1  107.59    8.00
   1 -10  -1  137.89   11.90
  -1  10   1  110.79   11.30
  -1  10   1  103.29   12.70
   0 -10  -1    1.90    4.00
   0 -10  -1    1.60    5.50
   0 -10  -1    3.00    5.20
   0 -10  -1    5.10    4.10
   0  10   1    2.40    6.20
  -1 -10  -1  272.77   14.10
  -1 -10  -1  249.88   12.10
  -1 -10  -1  251.57   13.60
  -1 -10  -1  248.48   12.10
   1  10   1  258.97   19.00
  -2 -10  -1   91.19   11.70
  -2 -10  -1  114.29   11.70
   2  10   1  102.09   14.60
  -3 -10  -1   13.30    8.60
  -3 -10  -1    0.80    6.20
   3  10   1    5.60    8.60
   8 -11  -1  526.85   27.80
   8 -11  -1  549.45   31.10
  -8  11   1  562.74   32.50
   7 -11  -1    8.80    9.50
   7 -11  -1    7.60    8.50
   7 -11  -1    7.70    7.50
  -7  11   1    0.30    8.90
   6 -11  -1   32.20    9.80
   6 -11  -1   46.30    9.10
   6 -11  -1   33.90    9.20
  -6  11   1   27.80   10.50
   5 -11  -1   36.20    9.60
   5 -11  -1   48.60    7.90
  -5  11   1   50.49   11.20
   4 -11  -1   37.50    6.80
   4 -11  -1   47.30   10.60
   4 -11  -1   32.10    6.60
  -4  11   1   34.70    9.50
   3 -11  -1   28.00    6.00
   3 -11  -1   40.80   10.10
   3 -11  -1   31.20    5.80
  -3  11   1   24.50    8.50
   2 -11  -1  612.54   19.90
   2 -11  -1  652.43   19.50
   2 -11  -1  654.13   29.00
  -2  11   1  640.54   26.10
   1 -11  -1  312.77   13.00
   0 -11  -1    3.00    6.30
   0 -11  -1   -3.70    7.00
   0 -11  -1    2.40    4.70
   0 -11  -1   11.50    4.90
   0  11   1   -5.90    7.10
  -1 -11  -1  383.86   17.20
  -1 -11  -1  410.16   17.60
  -1 -11  -1  401.36   17.50
   1  11   1  395.76   24.30
  -2 -11  -1  157.58   14.50
  -2 -11  -1  172.48   13.60
   2  11   1  152.88   23.50
   7 -12  -1    8.90    8.50
   7 -12  -1   16.60   11.00
  -7  12   1   24.70   10.70
   6 -12  -1  186.68   23.90
   6 -12  -1  240.08   19.30
  -6  12   1  261.77   22.60
   5 -12  -1  409.06   19.00
   5 -12  -1  406.16   25.40
   5 -12  -1  398.36   19.70
  -5  12   1  389.36   25.40
   4 -12  -1  269.67   21.80
   4 -12  -1  260.17   13.90
   4 -12  -1  253.97   15.00
  -4  12   1  277.67   21.30
   3 -12  -1   13.90    9.60
   3 -12  -1   15.00    5.00
   3 -12  -1   13.80    5.80
  -3  12   1   16.30    8.80
   2 -12  -1  272.27   12.40
   2 -12  -1  320.27   22.80
   2 -12  -1  284.07   13.40
  -2  12   1  276.67   23.00
   1 -12  -1    9.80    5.90
   1 -12  -1   25.80    5.50
   1 -12  -1   14.70    8.30
   0 -12  -1   17.60    7.90
   0 -12  -1   27.30    8.20
   0  12   1   28.40   12.10
   5 -13  -1    6.80    6.30
   5 -13  -1    1.50    7.30
   5 -13  -1   12.10    9.20
  -5  13   1    5.20   10.80
   4 -13  -1   37.40   12.20
   4 -13  -1   39.20    7.10
   4 -13  -1   28.20    7.90
  -4  13   1   40.70   12.30
   3 -13  -1   69.29    9.10
   3 -13  -1   92.99   11.30
   3 -13  -1   95.09   15.90
  -3  13   1   84.29   14.70
   2 -13  -1  168.28   20.50
   2 -13  -1  148.59    9.90
   3 -14   2   22.60   11.90
   3 -14   2   -1.60    9.80
   4 -14   2   25.10    5.70
   4 -14   2   14.20    5.00
   4 -14   2    9.40   10.20
   0 -13   2  187.08   17.90
   0 -13   2  175.58   19.00
   1 -13   2    1.80    8.40
   1 -13   2   36.00   10.40
   2 -13   2  110.19   15.20
   2 -13   2  113.99   15.10
   3 -13   2  114.29   15.60
  -4  13  -2   11.90   10.50
   4 -13   2   25.80    6.10
   4 -13   2   21.10    9.70
   4 -13   2   14.10    5.00
  -5  13  -2   40.40   12.70
   5 -13   2   37.60   16.10
   5 -13   2   27.70    9.10
   5 -13   2   21.90    7.50
  -6  13  -2   27.20   12.80
   6 -13   2   14.90    8.10
   6 -13   2   15.60    9.80
   6 -13   2   26.50    7.80
   2  12  -2   24.50   10.30
  -2 -12   2    4.80    5.30
  -2 -12   2   13.10    5.10
  -2 -12   2   -3.50    8.00
  -1 -12   2   46.50    9.80
   0 -12   2   22.00    8.60
   0 -12   2    5.20    7.50
   1 -12   2   36.20   12.60
   1 -12   2   38.10    9.20
   2 -12   2   17.10    8.50
  -3  12  -2  262.17   19.60
   3 -12   2  244.88   18.80
   3 -12   2  273.27   10.70
   3 -12   2  247.48    9.90
  -4  12  -2   41.90   10.40
   4 -12   2   43.10    6.20
   4 -12   2   57.49   11.40
   4 -12   2   49.90    7.00
  -5  12  -2  138.79   17.80
   5 -12   2  130.19   11.20
   5 -12   2  133.89   16.30
   5 -12   2  146.69   12.40
  -6  12  -2   -1.20    8.70
   6 -12   2   21.20   10.80
   6 -12   2   16.90    8.70
   6 -12   2   25.60    7.50
  -7  12  -2  209.28   22.70
   7 -12   2  248.28   18.40
   7 -12   2  257.27   22.70
   3  11  -2  149.79   17.70
  -3 -11   2  107.19   11.80
  -3 -11   2  112.89   11.60
   2  11  -2   56.49   11.10
  -2 -11   2   75.89    8.20
  -2 -11   2   82.29    8.60
  -2 -11   2   94.49   11.00
   1  11  -2   99.09   12.70
  -1 -11   2  104.79    8.10
  -1 -11   2  100.19   13.50
  -1 -11   2   94.29   11.90
   0 -11   2  690.63   26.70
   1 -11   2   77.79   11.10
   1 -11   2   62.59    9.80
   2 -11   2  127.09   13.60
  -3  11  -2   67.19   11.10
   3 -11   2   74.49    6.70
   3 -11   2   72.89   11.20
   3 -11   2   73.59    6.30
  -4  11  -2  233.58   18.40
   4 -11   2  208.58   16.40
   4 -11   2  223.08   11.60
   4 -11   2  200.58   11.70
  -5  11  -2   -0.80    7.10
   5 -11   2   -3.00    6.10
   5 -11   2    1.30    4.60
   5 -11   2   11.30    9.00
  -6  11  -2  241.48   21.00
   6 -11   2  232.78   16.30
   6 -11   2  239.18   19.90
   6 -11   2  247.28   16.10
  -7  11  -2    0.50    9.90
   7 -11   2    5.70    8.20
   7 -11   2   -3.30    6.10
   7 -11   2   -0.40    8.10
  -8  11  -2   28.10   12.70
   8 -11   2   17.60   11.30
   8 -11   2   27.10   10.30
   4  10  -2  388.66   24.10
  -4 -10   2  394.86   19.80
  -4 -10   2  381.96   20.80
   3  10  -2  568.94   26.30
  -3 -10   2  595.64   21.60
  -3 -10   2  603.84   21.50
   2  10  -2    3.00    6.30
  -2 -10   2    6.20    6.50
  -2 -10   2   18.70    4.80
  -2 -10   2   11.20    4.60
  -2 -10   2    7.10    6.00
   1  10  -2    7.60    6.80
  -1 -10   2    6.30    5.90
  -1 -10   2    7.70    3.30
  -1 -10   2   12.70    3.40
  -1 -10   2   24.60    7.90
   0 -10   2    7.90    6.50
   0 -10   2   22.10    6.60
   1 -10   2   19.00    6.50
   1 -10   2   21.80    6.70
  -2  10  -2  478.25   21.90
   2 -10   2  491.25   12.50
   2 -10   2  450.45   12.00
   2 -10   2  474.45   21.40
  -3  10  -2  459.85   22.40
   3 -10   2  492.35   22.10
   3 -10   2  488.55   15.20
  -4  10  -2   97.59   12.80
   4 -10   2   96.59    8.20
   4 -10   2   96.59    9.00
   4 -10   2   81.09   10.80
  -5  10  -2    0.50    4.80
  -5  10  -2    0.80    6.10
   5 -10   2   -8.80    5.70
   5 -10   2    4.90    4.50
   5 -10   2    4.30    5.30
  -6  10  -2  409.36   23.80
  -6  10  -2  398.36   18.50
   6 -10   2  389.86   19.90
   6 -10   2  424.86   23.00
   6 -10   2  405.36   19.70
  -7  10  -2   41.40   11.80
  -7  10  -2   54.29   12.30
   7 -10   2   55.49   11.00
   7 -10   2   40.40   11.30
   7 -10   2   40.30   10.50
   8 -10   2   60.59   12.70
   8 -10   2   58.59   13.30
   5   9  -2   -4.80    9.60
  -5  -9   2   -3.30    6.70
   4   9  -2   23.30    8.90
  -4  -9   2   36.90    6.30
  -4  -9   2   33.90    7.40
  -4  -9   2   31.30    8.30
   3   9  -2   33.10    8.10
  -3  -9   2   25.80    6.30
  -3  -9   2   30.40    6.50
  -3  -9   2   30.50    6.60
   2   9  -2   24.90    7.40
  -2  -9   2   31.40    6.50
  -2  -9   2   23.10    5.90
  -2  -9   2   32.40    5.30
  -2  -9   2   31.90    5.60
   1   9  -2  622.64   23.40
  -1  -9   2  614.34   22.10
  -1  -9   2  619.34   16.10
  -1  -9   2  637.84   21.50
  -1  -9   2  599.64   15.80
   0  -9   2 1254.67   38.40
   0  -9   2 1242.18   34.80
   1  -9   2   12.50    5.70
   1  -9   2   11.60    8.80
   1  -9   2   12.00    4.90
  -2   9  -2  116.79   11.40
   2  -9   2  131.29   11.40
   2  -9   2  119.69    5.80
   2  -9   2  124.89    5.90
   2  -9   2  137.29   12.60
  -3   9  -2  510.05   21.90
   3  -9   2  477.45   16.00
   3  -9   2  500.45   15.20
   3  -9   2  474.45   20.60
  -4   9  -2    3.60    3.30
  -4   9  -2   -3.70    4.70
   4  -9   2    9.10    5.90
   4  -9   2    4.40    4.20
   4  -9   2   -1.40    3.30
  -5   9  -2  152.28   10.70
  -5   9  -2  157.28   14.50
   5  -9   2  135.09   13.20
   5  -9   2  137.69   11.00
   5  -9   2  145.19   11.70
  -6   9  -2  286.37   19.60
  -6   9  -2  262.47   15.90
   6  -9   2  262.47   16.30
   6  -9   2  293.37   19.00
   6  -9   2  265.17   16.90
  -7   9  -2  140.69   16.40
   7  -9   2  113.59   14.00
   7  -9   2  137.29   15.80
   7  -9   2  152.08   16.70
  -8   9  -2   37.60   12.00
   8  -9   2   20.00   10.10
   8  -9   2    7.60    9.50
   5   8  -2   14.20    8.20
  -5  -8   2    9.20    9.30
  -5  -8   2   23.10    9.50
   4   8  -2  359.46   20.90
  -4  -8   2  364.66   17.90
  -4  -8   2  342.17   18.20
  -4  -8   2  372.46   15.20
  -4  -8   2  376.56   13.70
   3   8  -2  323.57   17.10
  -3  -8   2  311.37   13.30
  -3  -8   2  310.07   14.40
  -3  -8   2  285.87   17.40
   2   8  -2  291.67   15.50
  -2  -8   2  283.37   16.70
  -2  -8   2  298.07   12.40
  -2  -8   2  294.47   11.90
  -2  -8   2  302.97   13.50
  -2  -8   2  304.87   13.80
   1   8  -2   74.89    8.90
  -1  -8   2   79.29    9.40
  -1  -8   2   85.49    8.40
  -1  -8   2   63.29    5.00
  -1  -8   2   75.29    5.10
  -1  -8   2   81.69    8.60
   0   8  -2   61.09    7.90
   0  -8   2   78.89   11.40
   0  -8   2   66.89    8.30
   0  -8   2   71.99    8.20
  -1   8  -2   72.29    9.10
   1  -8   2   76.89    8.80
   1  -8   2   51.09    7.30
  -2   8  -2  508.35   20.40
   2  -8   2  513.05   19.90
   2  -8   2  538.55   20.70
   2  -8   2  517.85   13.40
   2  -8   2  522.45   13.80
   2  -8   2  546.35   20.30
  -3   8  -2  878.71   28.90
   3  -8   2  866.71   22.40
   3  -8   2  903.31   29.00
   3  -8   2  910.61   28.10
   3  -8   2  923.31   26.40
   3  -8   2  861.61   27.90
  -4   8  -2  740.43   27.00
  -4   8  -2  722.43   19.90
   4  -8   2  750.32   22.30
   4  -8   2  782.12   22.80
   4  -8   2  694.43   25.20
  -5   8  -2   24.40    6.80
   5  -8   2   36.40    7.10
   5  -8   2   23.40    6.80
   5  -8   2   21.90    5.70
  -6   8  -2  172.58   15.40
  -6   8  -2  193.18   14.30
   6  -8   2  212.88   16.20
   6  -8   2  219.08   15.60
   6  -8   2  183.28   14.10
  -7   8  -2  193.48   17.00
  -7   8  -2  193.88   17.20
   7  -8   2  209.18   16.70
   7  -8   2  186.58   17.30
   7  -8   2  255.67   18.10
  -8   8  -2   57.89   12.60
  -8   8  -2   26.50   12.60
   8  -8   2   35.70   10.70
   8  -8   2   56.39   12.80
  -9   8  -2   73.79   15.50
   9  -8   2   54.69   14.00
   9  -8   2   39.80   13.20
   6   7  -2   51.39   11.60
   5   7  -2  157.48   14.80
   5   7  -2  139.59   14.40
  -5  -7   2  165.68   15.20
  -5  -7   2  139.99    9.40
  -5  -7   2  143.59   13.70
  -5  -7   2  148.99   13.60
   4   7  -2   52.89    8.50
   4   7  -2   55.39    8.90
  -4  -7   2   52.59    7.00
  -4  -7   2   47.00    7.80
  -4  -7   2   51.09    8.50
  -4  -7   2   62.39    7.20
   3   7  -2  393.36   17.70
  -3  -7   2  423.36   15.20
  -3  -7   2  387.66   18.70
  -3  -7   2  423.16   14.80
   2   7  -2    5.00    4.10
  -2  -7   2    7.20    3.20
  -2  -7   2    7.60    5.20
  -2  -7   2    9.00    3.90
  -2  -7   2    2.80    3.00
   1   7  -2  497.55   17.70
  -1  -7   2  473.75   16.30
  -1  -7   2  450.35   17.70
  -1  -7   2  464.85   12.50
  -1  -7   2  490.05   13.20
   0   7  -2  915.21   25.60
   0  -7   2  963.50   26.50
   0  -7   2  949.21   25.80
   0  -7   2  871.41   25.70
  -1   7  -2 1620.54   39.70
   1  -7   2 1663.53   39.70
   1  -7   2 1651.23   39.10
   1  -7   2 1638.14   39.10
  -2   7  -2  123.89    9.90
   2  -7   2  119.59    9.90
   2  -7   2  136.69    9.60
   2  -7   2  123.89    9.50
   2  -7   2  116.09    6.80
   2  -7   2  122.99    5.80
  -3   7  -2    7.70    2.70
  -3   7  -2   -0.90    3.80
   3  -7   2   11.10    4.80
   3  -7   2    5.40    2.90
   3  -7   2    3.80    3.90
  -4   7  -2   47.30    7.90
  -4   7  -2   64.99    8.80
  -4   7  -2   65.99    6.90
   4  -7   2   64.99    7.10
   4  -7   2   53.49    6.90
   4  -7   2   71.69    8.70
  -5   7  -2  258.57   13.60
  -5   7  -2  276.27   16.10
   5  -7   2  260.77   14.10
   5  -7   2  272.47   15.60
   5  -7   2  273.47   14.60
  -6   7  -2  553.14   22.50
   6  -7   2  477.35   21.60
   6  -7   2  536.35   23.30
   6  -7   2  521.95   22.50
  -7   7  -2  231.78   27.20
  -7   7  -2  290.17   19.10
   7  -7   2  233.38   17.80
   7  -7   2  255.47   18.10
   7  -7   2  291.47   20.40
  -8   7  -2    1.00    8.90
  -8   7  -2    4.30    7.50
   8  -7   2   13.30    8.50
   8  -7   2    6.80    7.50
   8  -7   2  -18.80   10.50
  -9   7  -2   66.89   13.50
   9  -7   2   70.79   14.30
   9  -7   2   86.29   15.70
   6   6  -2  582.44   26.10
   6   6  -2  603.44   33.50
  -6  -6   2  597.64   27.00
  -6  -6   2  563.54   27.80
   5   6  -2   84.39   11.00
   5   6  -2   74.49    9.90
  -5  -6   2   68.89    7.70
  -5  -6   2   62.19    9.60
  -5  -6   2   45.00    9.40
  -5  -6   2   60.89    7.30
   4   6  -2  779.42   22.90
   4   6  -2  792.12   26.20
  -4  -6   2  735.93   26.20
  -4  -6   2  818.32   26.00
  -4  -6   2  789.72   25.40
  -4  -6   2  772.82   21.50
  -4  -6   2  769.12   21.20
   3   6  -2  665.13   22.10
   3   6  -2  657.73   17.70
  -3  -6   2  664.53   20.50
  -3  -6   2  647.04   18.80
  -3  -6   2  661.33   19.30
  -3  -6   2  670.73   22.50
  -3  -6   2  658.93   20.60
   2   6  -2  392.16   15.30
  -2  -6   2  416.16   13.10
  -2  -6   2  379.96   14.10
  -2  -6   2  385.66   13.80
  -2  -6   2  398.66   15.80
  -2  -6   2  394.06   13.00
   1   6  -2   39.30    5.70
  -1  -6   2   28.70    5.30
  -1  -6   2   29.80    3.40
  -1  -6   2   40.30    5.20
  -1  -6   2   38.50    5.50
  -1  -6   2   31.10    3.40
   0   6  -2  381.86   13.80
   0  -6   2  349.87   15.70
   0  -6   2  379.16   13.80
   0  -6   2  354.76   13.60
  -1   6  -2   44.20    6.00
   1  -6   2   51.09    6.10
   1  -6   2   47.50    6.40
   1  -6   2   35.00    5.60
  -2   6  -2  391.56   15.50
   2  -6   2  334.07   14.50
   2  -6   2  355.56   10.70
   2  -6   2  385.66   14.50
   2  -6   2  364.06   14.30
  -3   6  -2  646.24   21.80
  -3   6  -2  642.54   17.50
  -3   6  -2  653.83   17.20
  -3   6  -2  663.53   21.30
   3  -6   2  676.93   22.00
   3  -6   2  682.73   21.40
   3  -6   2  657.43   18.60
   3  -6   2  685.83   18.80
  -4   6  -2 1475.45   34.40
  -4   6  -2 1374.76   37.30
   4  -6   2 1369.96   36.50
   4  -6   2 1479.65   35.30
   4  -6   2 1360.26   34.50
  -5   6  -2    3.90    4.30
  -5   6  -2   -2.60    4.30
   5  -6   2    1.40    4.00
   5  -6   2    2.50    4.50
   5  -6   2   -0.50    4.60
  -6   6  -2   11.00    5.60
  -6   6  -2   19.60    6.20
   6  -6   2    4.70    5.30
   6  -6   2   13.00    5.60
   6  -6   2   12.80    6.50
  -7   6  -2  114.79   14.10
  -7   6  -2  110.29   13.00
   7  -6   2  113.09   14.20
   7  -6   2  106.09   13.50
   7  -6   2  119.49   13.90
  -8   6  -2   94.29   15.10
  -8   6  -2   68.09   11.90
   8  -6   2   76.09   14.80
   8  -6   2   82.89   13.00
   8  -6   2   70.59   12.50
  -9   6  -2  347.47   23.20
   9  -6   2  346.67   26.10
   9  -6   2  299.57   24.00
   7   5  -2  128.19   16.40
  -7  -5   2  144.59   17.50
   6   5  -2  144.69   11.90
  -6  -5   2  170.88   16.70
  -6  -5   2  161.48   15.40
   5   5  -2   28.70    7.00
   5   5  -2   19.10    5.40
  -5  -5   2   16.60    4.70
  -5  -5   2   17.50    6.30
  -5  -5   2   14.00    6.50
   4   5  -2  207.58   10.50
   4   5  -2  208.78   12.60
  -4  -5   2  215.48   12.50
  -4  -5   2  211.58   10.30
  -4  -5   2  226.38   13.00
   3   5  -2 1135.69   29.40
   3   5  -2 1135.89   29.70
   3   5  -2 1120.89   26.60
  -3  -5   2 1093.49   28.40
  -3  -5   2 1109.09   29.30
  -3  -5   2 1129.29   28.80
  -3  -5   2 1099.99   29.80
   2   5  -2  184.48    6.70
   2   5  -2  173.88    6.50
  -2  -5   2  171.58   10.30
  -2  -5   2  189.08    8.30
  -2  -5   2  166.18    9.40
  -2  -5   2  190.58    8.30
   1   5  -2  112.69    7.10
  -1  -5   2  118.69    5.10
  -1  -5   2  109.49    7.30
  -1  -5   2  118.69    5.10
   0   5  -2 4088.79   80.59
   0  -5   2 4054.29   78.99
   0  -5   2 4112.59   78.19
   0  -5   2 4016.00   78.49
  -1   5  -2  569.84   17.70
   1  -5   2  607.84   18.00
   1  -5   2  593.24   16.90
   1  -5   2  566.94   12.40
   1  -5   2  575.44   16.80
   1  -5   2  586.24   12.50
  -2   5  -2  640.54   15.00
  -2   5  -2  638.04   18.90
  -2   5  -2  676.13   15.50
   2  -5   2  667.23   16.40
   2  -5   2  645.24   19.80
  -3   5  -2   30.20    4.10
  -3   5  -2   32.00    5.30
  -3   5  -2   47.20    6.60
  -3   5  -2   33.40    4.80
   3  -5   2   22.40    6.70
   3  -5   2   33.70    4.60
   3  -5   2   26.00    4.30
   3  -5   2   35.90    5.70
  -4   5  -2    6.40    3.40
  -4   5  -2   10.90    4.00
  -4   5  -2    3.50    3.80
   4  -5   2    8.80    3.50
   4  -5   2    9.80    4.20
   4  -5   2    4.20    4.10
   4  -5   2   13.20    4.40
  -5   5  -2    5.90    4.20
  -5   5  -2   16.70    5.40
  -5   5  -2    9.60    5.50
   5  -5   2   13.10    5.90
   5  -5   2    9.70    4.80
   5  -5   2   13.20    4.80
   5  -5   2    9.40    5.30
  -6   5  -2 1237.78   36.80
  -6   5  -2 1219.18   36.30
   6  -5   2 1218.68   37.20
   6  -5   2 1213.58   36.70
   6  -5   2 1296.27   38.10
  -7   5  -2  429.56   22.50
  -7   5  -2  396.96   20.60
   7  -5   2  445.86   22.90
   7  -5   2  420.76   21.80
   7  -5   2  438.56   24.00
  -8   5  -2   52.69   12.90
  -8   5  -2   48.50    9.80
   8  -5   2   52.19   11.60
   8  -5   2   68.99   17.70
   8  -5   2   52.19   12.70
  -9   5  -2   88.59   13.80
  -9   5  -2   58.79   15.10
   9  -5   2  116.59   17.00
   9  -5   2   92.39   16.70
   7   4  -2  388.96   21.70
   7   4  -2  435.46   25.20
   7   4  -2  398.06   19.80
  -7  -4   2  388.16   16.30
  -7  -4   2  396.16   23.90
  -7  -4   2  412.06   31.30
   6   4  -2  838.52   25.50
   6   4  -2  901.31   30.40
   6   4  -2  860.31   29.40
  -6  -4   2  872.51   32.20
  -6  -4   2  855.91   31.30
  -6  -4   2  892.31   24.70
   5   4  -2  123.99   11.00
   5   4  -2  147.29   10.00
   5   4  -2  134.09   11.10
  -5  -4   2  127.99   11.80
  -5  -4   2  111.79   11.70
  -5  -4   2  119.89   11.50
   4   4  -2   77.59    7.20
   4   4  -2   64.69    7.70
   4   4  -2   67.99    8.00
  -4  -4   2   59.29    7.70
  -4  -4   2   60.69    7.60
  -4  -4   2   76.59    8.30
  -4  -4   2   70.99    6.80
   3   4  -2 1383.16   32.80
   3   4  -2 1371.06   31.40
  -3  -4   2 1379.86   32.80
  -3  -4   2 1398.36   32.90
  -3  -4   2 1334.27   31.40
  -3  -4   2 1357.76   32.50
   2   4  -2  477.35   12.60
   2   4  -2  470.45   12.50
  -2  -4   2  446.86   14.20
  -2  -4   2  477.55   13.80
  -2  -4   2  460.75   13.60
   1   4  -2  372.86   11.50
  -1  -4   2  369.06    9.60
  -1  -4   2  387.86   11.80
  -1  -4   2  358.56   12.10
  -1  -4   2  357.36    9.60
   0  -4   2  221.18    8.50
   0  -4   2  261.97    9.90
   0  -4   2  222.58    9.50
   1  -4   2 1491.15   28.30
   1  -4   2 1427.16   31.20
   1  -4   2 1456.05   29.10
  -2   4  -2   63.49    4.80
  -2   4  -2   69.39    6.20
  -2   4  -2   57.19    6.10
   2  -4   2   64.09    5.90
   2  -4   2   60.09    4.70
   2  -4   2   67.19    5.00
  -3   4  -2 3885.61   75.89
  -3   4  -2 3863.11   74.09
  -3   4  -2 3750.72   74.09
   3  -4   2 3816.82   75.69
   3  -4   2 3809.42   74.69
   3  -4   2 3899.51   76.39
   3  -4   2 3613.24   77.09
  -4   4  -2  981.50   27.70
  -4   4  -2  959.20   27.00
  -4   4  -2 1041.30   27.60
   4  -4   2 1037.80   28.00
   4  -4   2  960.30   27.20
   4  -4   2  978.20   27.60
   4  -4   2 1014.90   28.00
  -5   4  -2  398.06   17.40
  -5   4  -2  361.46   16.40
  -5   4  -2  375.76   17.40
   5  -4   2  390.46   17.10
   5  -4   2  397.06   17.70
   5  -4   2  379.76   17.70
   5  -4   2  385.96   19.80
  -6   4  -2   81.09    9.90
  -6   4  -2   76.19   10.40
  -6   4  -2   69.09    9.10
   6  -4   2  108.69   13.10
   6  -4   2   88.39   11.30
   6  -4   2   89.69   11.20
   6  -4   2   85.09   10.50
  -7   4  -2   36.20    8.00
  -7   4  -2   34.10    8.80
   7  -4   2   55.59   10.30
   7  -4   2   35.20    9.30
   7  -4   2   24.80   10.00
  -8   4  -2   72.39   13.70
  -8   4  -2   93.89   12.60
   8  -4   2   60.49   13.00
   8  -4   2   51.29   10.70
  -9   4  -2  154.98   20.90
  -9   4  -2  175.28   17.10
   9  -4   2  177.38   20.40
   9  -4   2  165.08   20.70
   8   3  -2  129.39   15.60
  -8  -3   2  120.49   15.70
  -8  -3   2  104.89   12.20
   7   3  -2   15.50    8.50
   7   3  -2    9.00    8.20
   7   3  -2   17.30    7.20
  -7  -3   2   12.20    5.60
  -7  -3   2   10.40    9.60
  -7  -3   2    5.10    7.80
   6   3  -2   88.79   10.80
   6   3  -2   86.29   11.50
   6   3  -2   94.29   10.60
  -6  -3   2  109.29    9.40
  -6  -3   2   87.69   11.80
   5   3  -2  117.39    9.30
   5   3  -2  105.79   10.10
   5   3  -2  105.79    9.90
  -5  -3   2   89.99    9.40
  -5  -3   2  114.09   11.00
  -5  -3   2   93.59   10.40
  -5  -3   2  108.89   11.20
   4   3  -2 1282.27   31.80
   4   3  -2 1279.47   32.40
   4   3  -2 1282.77   32.60
   4   3  -2 1295.07   30.90
  -4  -3   2 1279.37   31.60
  -4  -3   2 1270.47   30.50
  -4  -3   2 1274.07   33.30
  -4  -3   2 1300.57   33.60
   3   3  -2  281.77   11.00
   3   3  -2  263.27   10.80
   3   3  -2  285.97   11.20
  -3  -3   2  283.07   10.90
  -3  -3   2  264.67   10.80
  -3  -3   2  265.57   11.40
  -3  -3   2  273.37   11.50
   2   3  -2 2256.07   45.20
   2   3  -2 2277.37   44.80
   2   3  -2 2305.27   46.00
  -2  -3   2 2255.77   45.90
  -2  -3   2 2326.17   45.80
  -2  -3   2 2297.17   45.20
   1   3  -2  487.85   10.90
   1   3  -2  490.05   12.30
   1   3  -2  512.35   13.90
  -1  -3   2  489.35   13.90
  -1  -3   2  505.65   11.80
  -1  -3   2  489.45   11.70
  -1  -3   2  481.05   12.50
   0  -3   2 2883.61   51.49
   0  -3   2 2844.42   53.49
   0  -3   2 2841.82   55.69
   0  -3   2 2854.91   53.49
   0  -3   2 2945.71   55.59
   0  -3   2 2885.61   51.39
  -1   3  -2 2245.98   44.90
  -1   3  -2 2245.28   41.80
  -1   3  -2 2240.88   43.50
   1  -3   2 2143.39   41.70
   1  -3   2 2191.68   43.30
   1  -3   2 2246.68   42.00
  -2   3  -2  388.36   13.20
  -2   3  -2  416.66   12.20
   2  -3   2  407.46   13.00
   2  -3   2  395.56   12.20
   2  -3   2  362.56   11.90
  -3   3  -2   22.60    4.60
  -3   3  -2   18.90    4.20
  -3   3  -2   17.40    4.00
   3  -3   2   14.20    3.90
   3  -3   2   15.80    4.00
   3  -3   2   12.30    3.30
   3  -3   2   19.00    4.30
  -4   3  -2  559.44   19.00
  -4   3  -2  539.65   18.70
  -4   3  -2  523.95   17.80
  -4   3  -2  516.75   18.50
   4  -3   2  522.25   18.50
   4  -3   2  543.25   19.10
   4  -3   2  556.34   19.40
   4  -3   2  555.94   18.40
  -5   3  -2  223.48   13.60
  -5   3  -2  214.58   13.40
  -5   3  -2  209.08   13.40
  -5   3  -2  226.38   12.30
   5  -3   2  217.38   13.90
   5  -3   2  228.78   13.00
   5  -3   2  207.68   12.70
   5  -3   2  209.98   13.20
  -6   3  -2  471.65   21.90
  -6   3  -2  510.65   19.90
  -6   3  -2  492.85   22.60
   6  -3   2  486.75   20.60
   6  -3   2  484.75   21.90
   6  -3   2  507.65   23.10
   6  -3   2  477.45   21.20
  -7   3  -2  643.74   24.70
  -7   3  -2  666.63   28.80
   7  -3   2  725.03   29.70
   7  -3   2  709.03   30.60
   7  -3   2  705.23   28.30
  -8   3  -2  298.77   22.80
  -8   3  -2  267.17   17.20
   8  -3   2  219.58   21.10
   8  -3   2  267.87   20.30
  -9   3  -2   -1.00   12.50
  -9   3  -2   19.30    8.70
   9  -3   2   26.10   14.90
   9  -3   2   10.80   10.20
   8   2  -2   45.80   10.20
   8   2  -2   39.50   13.50
  -8  -2   2   41.50    8.50
  -8  -2   2   35.10   11.80
   7   2  -2  343.77   18.80
   7   2  -2  367.46   21.30
   7   2  -2  318.67   18.80
  -7  -2   2  327.57   20.70
  -7  -2   2  330.77   22.70
  -7  -2   2  318.97   15.70
   6   2  -2  874.21   28.00
   6   2  -2  838.72   29.20
   6   2  -2  858.71   26.90
  -6  -2   2  868.41   25.70
  -6  -2   2  889.51   30.80
  -6  -2   2  844.82   27.80
  -6  -2   2  906.21   31.50
   5   2  -2 1036.40   30.50
   5   2  -2 1015.20   28.70
   5   2  -2 1004.80   28.00
   5   2  -2 1045.40   30.50
  -5  -2   2 1051.99   28.80
  -5  -2   2 1028.10   31.20
  -5  -2   2 1085.99   31.60
  -5  -2   2 1087.59   28.20
   4   2  -2  164.78    9.40
   4   2  -2  173.88    9.50
   4   2  -2  143.39   10.30
   4   2  -2  175.38   10.40
  -4  -2   2  162.28    9.00
  -4  -2   2  176.48    9.60
  -4  -2   2  197.58   11.00
  -4  -2   2  179.58   10.60
   3   2  -2  684.03   19.10
   3   2  -2  642.34   18.60
   3   2  -2  674.13   17.90
  -3  -2   2  684.03   19.40
  -3  -2   2  683.73   18.50
  -3  -2   2  733.63   18.10
  -3  -2   2  666.83   19.60
   2   2  -2  465.85   13.30
   2   2  -2  456.05   12.90
   2   2  -2  428.06   12.40
   2   2  -2  449.36   11.70
  -2  -2   2  447.96   11.70
  -2  -2   2  436.46   13.10
   1   2  -2 1395.66   26.70
   1   2  -2 1417.06   29.40
   1   2  -2 1384.56   27.40
  -1  -2   2 1390.76   27.70
  -1  -2   2 1456.95   27.90
  -1  -2   2 1427.56   29.50
  -1  -2   2 1403.86   26.70
   0   2  -2  582.14   12.20
   0   2  -2  583.54   12.50
   0  -2   2  583.64   12.50
   0  -2   2  586.04   12.70
   0  -2   2  592.34   12.60
  -1   2  -2 1777.02   35.00
  -1   2  -2 1753.72   34.60
  -1   2  -2 1775.72   34.90
  -1   2  -2 1768.92   35.80
   1  -2   2 1747.53   35.70
   1  -2   2 1765.02   34.90
   1  -2   2 1779.92   34.70
   1  -2   2 1830.22   35.00
  -2   2  -2   74.19    5.90
  -2   2  -2   65.29    5.50
  -2   2  -2   72.19    5.60
   2  -2   2   81.19    6.10
   2  -2   2   68.59    5.70
   2  -2   2   82.69    6.00
   2  -2   2   79.69    5.70
  -3   2  -2 1870.31   40.90
   3  -2   2 1779.22   40.40
   3  -2   2 1878.71   41.10
   3  -2   2 1796.62   40.60
  -4   2  -2 1337.37   33.60
  -4   2  -2 1307.67   34.10
  -4   2  -2 1318.87   34.00
  -4   2  -2 1360.86   34.20
   4  -2   2 1262.97   33.80
   4  -2   2 1266.87   32.90
   4  -2   2 1300.17   33.80
   4  -2   2 1302.47   31.50
  -5   2  -2  294.37   15.90
  -5   2  -2  304.97   13.60
  -5   2  -2  322.17   16.40
  -5   2  -2  320.77   16.10
   5  -2   2  311.97   14.10
   5  -2   2  327.37   15.80
   5  -2   2  340.87   16.90
   5  -2   2  290.27   18.00
  -6   2  -2   72.59    8.70
  -6   2  -2   73.29   10.40
  -6   2  -2   64.19   10.90
   6  -2   2   66.09    9.20
   6  -2   2   91.09   11.80
   6  -2   2   70.69    9.30
   6  -2   2   52.39    9.50
  -7   2  -2    3.20    7.90
  -7   2  -2   15.30    8.00
  -7   2  -2    2.80    4.90
   7  -2   2   -3.50    6.10
   7  -2   2   10.10    7.20
   7  -2   2   14.80    8.30
  -8   2  -2   77.59   10.40
  -8   2  -2   80.59   15.60
   8  -2   2   83.39   14.80
   8  -2   2   82.59   13.00
  -9   2  -2  212.78   25.60
  -9   2  -2  210.38   17.40
   9  -2   2  209.88   27.30
   9  -2   2  236.58   22.60
   9   1  -2  550.04   29.00
  -9  -1   2  536.35   32.50
  -9  -1   2  561.34   37.40
   8   1  -2  184.28   16.80
   8   1  -2  214.38   21.70
  -8  -1   2  222.18   15.20
  -8  -1   2  209.98   19.60
  -8  -1   2  259.77   23.80
   7   1  -2   40.10   10.00
   7   1  -2   39.00    9.30
   7   1  -2   62.99    9.70
  -7  -1   2   70.59   13.10
  -7  -1   2   65.39   11.80
  -7  -1   2   61.59    8.80
   6   1  -2    2.00    4.50
   6   1  -2    3.00    5.00
   6   1  -2   -5.90    5.40
  -6  -1   2   -2.90    6.00
  -6  -1   2   12.60    5.20
  -6  -1   2   12.20    5.70
  -6  -1   2    2.90    5.90
   5   1  -2   24.50    5.80
   5   1  -2   14.90    5.20
   5   1  -2   16.40    4.90
  -5  -1   2   19.80    6.00
  -5  -1   2   10.90    4.10
  -5  -1   2    9.10    4.30
  -5  -1   2   15.50    4.80
   4   1  -2  421.06   15.80
   4   1  -2  412.86   15.90
   4   1  -2  426.16   15.10
   4   1  -2  437.26   14.50
  -4  -1   2  438.46   14.40
  -4  -1   2  426.06   16.20
  -4  -1   2  407.76   14.60
  -4  -1   2  415.46   16.00
   3   1  -2 3126.69   60.89
   3   1  -2 3026.70   58.39
   3   1  -2 2948.30   60.49
  -3  -1   2 3037.10   59.99
  -3  -1   2 2961.50   60.89
  -3  -1   2 3056.89   58.39
  -3  -1   2 3111.89   61.29
   2   1  -2 2554.34   49.70
   2   1  -2 2480.15   49.30
   2   1  -2 2565.24   47.10
  -2  -1   2 2474.45   49.40
  -2  -1   2 2585.34   49.60
  -2  -1   2 2544.55   47.00
  -2  -1   2 2500.45   49.60
   1   1  -2   57.59    1.90
   1   1  -2   57.29    4.70
   1   1  -2   47.70    3.90
   1   1  -2   53.59    3.80
  -1  -1   2   56.99    1.90
  -1  -1   2   44.80    4.40
  -1  -1   2   60.79    4.00
  -1  -1   2   45.90    3.80
   0   1  -2  213.98    6.70
   0   1  -2  208.28    5.50
   0   1  -2  204.98    6.70
   0  -1   2  207.88    6.80
   0  -1   2  222.98    6.80
   0  -1   2  229.48    7.20
   0  -1   2  219.08    5.50
  -1   1  -2 3035.60   56.39
  -1   1  -2 2961.90   55.39
  -1   1  -2 3035.90   55.89
  -1   1  -2 2857.61   56.29
   1  -1   2 2958.10   55.69
   1  -1   2 3014.50   55.49
   1  -1   2 3031.60   56.59
   1  -1   2 2968.70   56.39
  -2   1  -2  725.63   19.50
  -2   1  -2  769.02   17.80
  -2   1  -2  765.22   19.80
   2  -1   2  755.82   19.70
   2  -1   2  753.82   19.30
   2  -1   2  770.22   19.80
   2  -1   2  775.12   17.90
  -3   1  -2 1455.15   31.20
  -3   1  -2 1477.85   33.90
  -3   1  -2 1452.95   34.40
  -3   1  -2 1471.65   34.40
   3  -1   2 1423.16   31.20
   3  -1   2 1437.86   34.40
   3  -1   2 1387.06   33.90
   3  -1   2 1436.96   36.80
  -4   1  -2  108.39    7.20
  -4   1  -2  143.29   13.00
  -4   1  -2  110.39    9.50
  -4   1  -2  102.89    9.10
   4  -1   2  109.19    7.50
   4  -1   2  113.39    9.80
   4  -1   2  100.69    8.80
   4  -1   2  133.39    9.90
  -5   1  -2    2.10    4.90
  -5   1  -2   -1.70    3.30
  -5   1  -2   -1.60    4.60
  -5   1  -2    5.70    5.10
   5  -1   2   -2.40    4.00
   5  -1   2    6.50    5.10
   5  -1   2    0.70    4.60
  -6   1  -2  679.03   27.30
  -6   1  -2  675.03   21.70
  -6   1  -2  679.63   27.70
   6  -1   2  631.84   27.10
   6  -1   2  718.83   26.50
   6  -1   2  708.53   23.10
   6  -1   2  644.64   30.30
  -7   1  -2  697.03   30.90
  -7   1  -2  714.73   32.60
  -7   1  -2  733.43   24.20
   7  -1   2  718.03   30.60
   7  -1   2  788.42   30.20
  -8   1  -2  105.39   11.70
  -8   1  -2   95.59   18.40
   8  -1   2  122.59   23.40
   8  -1   2   89.89   14.70
   8  -1   2  142.09   17.10
   9   0  -2  275.47   35.90
   9   0  -2  239.48   20.60
  -9   0   2  215.68   23.40
  -9   0   2  232.08   17.70
   8   0  -2    8.60    7.00
   8   0  -2   -9.70    8.40
  -8   0   2   18.00   11.30
  -8   0   2    4.30    6.30
  -8   0   2   11.40   12.80
   7   0  -2  134.09   14.50
   7   0  -2  156.98   15.40
  -7   0   2  135.29   11.60
  -7   0   2  156.38   16.20
  -7   0   2  144.29   14.50
   6   0  -2 2561.44   61.99
   6   0  -2 2657.83   62.69
   6   0  -2 2633.64   60.19
   6   0  -2 2667.33   59.29
  -6   0   2 2677.93   59.29
  -6   0   2 2655.23   59.09
  -6   0   2 2669.23   63.29
  -6   0   2 2627.54   62.79
   5   0  -2  813.42   24.60
   5   0  -2  833.92   25.80
   5   0  -2  780.02   23.00
   5   0  -2  808.22   25.70
  -5   0   2  786.82   23.10
  -5   0   2  774.02   25.50
  -5   0   2  763.12   23.40
   4   0  -2   66.19    6.10
   4   0  -2   68.29    7.40
   4   0  -2   65.19    7.20
  -4   0   2   71.09    7.40
  -4   0   2   65.79    6.20
  -4   0   2   71.69    8.10
  -4   0   2   64.49    7.20
   3   0  -2  347.37   12.60
   3   0  -2  358.76   12.80
   3   0  -2  364.96   11.10
  -3   0   2  347.37   12.60
  -3   0   2  352.96   11.00
  -3   0   2  353.56   12.80
   2   0  -2 3592.04   67.89
   2   0  -2 3626.34   67.69
   2   0  -2 3575.04   65.09
  -2   0   2 3531.25   67.79
  -2   0   2 3554.14   67.59
  -2   0   2 3575.24   65.09
   1   0  -2  128.59    3.90
   1   0  -2  129.39    5.60
   1   0  -2  119.59    3.90
  -1   0   2  117.99    5.50
   0   0  -2 3915.21   69.49
   0   0  -2 3807.32   70.59
   0   0  -2 3843.62   69.19
   0   0  -2 3803.62   70.39
   0   0   2 3889.41   69.29
   0   0   2 3791.72   69.39
   0   0   2 3914.81   70.49
   0   0   2 3796.42   70.69
  -1   0  -2 1629.04   33.60
   1   0   2 1612.64   33.10
   1   0   2 1623.94   30.80
   1   0   2 1627.94   33.60
   1   0   2 1644.04   33.60
   1   0   2 1609.54   30.70
  -2   0  -2   99.09    4.70
  -2   0  -2   94.99    6.80
   2   0   2   96.89    6.70
   2   0   2   93.29    4.70
   2   0   2  116.79    7.30
   2   0   2  101.69    6.90
  -3   0  -2 1398.56   29.10
  -3   0  -2 1424.96   33.80
   3   0   2 1386.86   34.00
   3   0   2 1417.16   29.40
   3   0   2 1412.06   33.80
   3   0   2 1361.06   33.30
  -4   0  -2 1009.20   24.20
  -4   0  -2 1065.09   30.30
  -4   0  -2 1042.70   29.50
   4   0   2 1081.99   30.20
   4   0   2 1006.30   28.90
   4   0   2 1086.89   30.00
  -5   0  -2  574.04   22.70
  -5   0  -2  542.25   22.70
  -5   0  -2  570.64   17.00
   5   0   2  555.74   21.70
   5   0   2  551.84   17.60
   5   0   2  552.44   22.10
  -6   0  -2   44.20   10.10
  -6   0  -2   51.09    9.80
   6   0   2   63.29    8.00
   6   0   2   47.40   10.60
  -7   0  -2   67.79    8.80
  -7   0  -2   34.40   10.10
  -7   0  -2   49.90   13.40
   7   0   2   60.59    9.40
   7   0   2   60.59   11.10
   7   0   2   48.30   11.50
  -8   0  -2   19.30   10.60
   8   0   2   17.50    9.70
   9  -1  -2  472.45   30.10
   9  -1  -2  467.65   25.60
  -9   1   2  475.45   29.50
  -9   1   2  466.45   23.70
   8  -1  -2  395.86   21.10
   8  -1  -2  394.66   24.30
  -8   1   2  368.56   25.20
  -8   1   2  370.56   19.70
  -8   1   2  402.56   23.70
   7  -1  -2  104.89   11.50
  -7   1   2   96.69   12.50
  -7   1   2  102.49   11.10
  -7   1   2  146.69   19.00
   6  -1  -2   32.20    8.00
   6  -1  -2   25.50    7.40
   6  -1  -2   29.10    6.20
   6  -1  -2   19.40    6.20
  -6   1   2   22.80    6.00
  -6   1   2   34.70    6.50
  -6   1   2   20.70    6.00
  -6   1   2   28.40    7.90
   5  -1  -2   38.30    7.20
   5  -1  -2   46.40    9.40
   5  -1  -2   31.50    5.40
   5  -1  -2   28.80    6.30
  -5   1   2   39.60    7.20
  -5   1   2   38.90    6.40
  -5   1   2   23.00    5.60
  -5   1   2   24.20    5.50
   4  -1  -2  138.19    9.40
   4  -1  -2  123.89    9.00
   4  -1  -2  131.39    7.90
  -4   1   2  130.09    7.90
  -4   1   2  118.59    8.80
  -4   1   2  104.79    8.30
  -4   1   2  123.69    8.90
   3  -1  -2 2120.79   45.40
   3  -1  -2 2181.28   44.70
   3  -1  -2 2070.89   44.30
   3  -1  -2 2127.99   42.40
  -3   1   2 2065.39   44.30
  -3   1   2 2112.19   42.40
  -3   1   2 2074.19   44.70
  -3   1   2 2050.89   44.30
   2  -1  -2 9608.84  169.58
   2  -1  -2 9540.35  171.28
   2  -1  -2 9765.82  171.48
  -2   1   2 9470.95  171.58
  -2   1   2 9673.43  171.38
  -2   1   2 9270.47  171.08
  -2   1   2 9649.23  169.48
   1  -1  -2  297.27    9.30
   1  -1  -2  273.07    9.00
   1  -1  -2  299.87    9.20
   1  -1  -2  306.77    8.40
  -1   1   2  295.77    9.10
  -1   1   2  294.67    9.20
  -1   1   2  297.07    8.40
  -1   1   2  297.87    9.20
   0  -1  -2 1583.64   31.10
   0  -1  -2 1464.95   31.10
   0  -1  -2 1540.75   29.20
   0  -1  -2 1510.75   31.20
   0   1   2 1534.75   30.90
   0   1   2 1554.14   31.40
   0   1   2 1521.25   32.90
   0   1   2 1544.25   29.20
  -1  -1  -2  893.41   21.60
  -1  -1  -2  938.31   22.00
   1   1   2  929.11   21.90
   1   1   2  938.61   17.30
   1   1   2  938.91   17.30
   1   1   2  920.91   21.70
   1   1   2  885.11   21.60
  -2  -1  -2  669.03   18.80
   2   1   2  632.24   12.90
   2   1   2  613.34   18.00
   2   1   2  600.44   18.10
  -3  -1  -2  393.26   15.20
  -3  -1  -2  376.56   15.10
  -3  -1  -2  355.46    9.60
  -3  -1  -2  358.06   15.00
   3   1   2  364.36   14.80
   3   1   2  407.96   15.30
   3   1   2  376.06    9.90
   3   1   2  393.56   15.00
  -4  -1  -2  892.01   27.00
  -4  -1  -2  898.51   27.70
  -4  -1  -2  825.92   19.60
  -4  -1  -2  888.21   27.40
   4   1   2  881.31   20.40
   4   1   2  868.51   27.00
   4   1   2  859.11   26.80
   4   1   2  849.81   26.40
  -5  -1  -2    5.20    5.40
  -5  -1  -2   10.60    3.30
  -5  -1  -2    9.40    6.10
   5   1   2    7.40    6.60
   5   1   2    2.70    5.10
   5   1   2    7.60    4.80
  -6  -1  -2  135.79    8.50
  -6  -1  -2  129.89   15.90
  -6  -1  -2  130.59   14.40
   6   1   2  136.39   14.80
   6   1   2  147.39   11.40
   6   1   2  114.89   13.20
  -7  -1  -2  493.05   26.50
  -7  -1  -2  471.35   21.50
  -7  -1  -2  501.95   29.10
   7   1   2  455.15   24.50
   7   1   2  518.05   27.20
   7   1   2  492.35   18.10
  -8  -1  -2  414.86   28.50
   8   1   2  393.36   38.90
   9  -2  -2  153.38   20.70
   9  -2  -2  132.49   16.80
  -9   2   2  144.69   19.30
  -9   2   2  116.89   15.40
   8  -2  -2   86.39   11.60
   8  -2  -2   93.19   13.00
  -8   2   2   63.99   10.10
  -8   2   2  122.79   15.50
   7  -2  -2  152.68   13.00
   7  -2  -2  189.38   15.10
   7  -2  -2  163.28   16.00
  -7   2   2  165.68   13.40
  -7   2   2  177.28   15.10
   6  -2  -2 1404.16   39.20
   6  -2  -2 1284.67   42.60
   6  -2  -2 1362.56   38.60
   6  -2  -2 1350.16   36.10
  -6   2   2 1401.56   37.60
  -6   2   2 1362.76   43.00
  -6   2   2 1441.46   36.90
  -6   2   2 1332.47   38.40
   5  -2  -2 1442.96   38.20
   5  -2  -2 1534.75   36.30
   5  -2  -2 1431.56   37.90
   5  -2  -2 1491.25   38.40
  -5   2   2 1472.25   36.10
  -5   2   2 1525.05   38.00
  -5   2   2 1476.65   38.30
  -5   2   2 1480.55   38.20
   4  -2  -2  195.58   11.10
   4  -2  -2  204.88   10.90
   4  -2  -2  182.38   11.90
  -4   2   2  202.88   10.90
  -4   2   2  213.98   11.00
  -4   2   2  192.48   10.70
  -4   2   2  208.28   10.00
   3  -2  -2  644.34   18.40
   3  -2  -2  650.73   18.50
   3  -2  -2  651.63   17.50
  -3   2   2  638.34   18.80
  -3   2   2  645.24   19.50
  -3   2   2  650.43   18.40
  -3   2   2  644.14   18.40
   2  -2  -2 1162.88   26.30
   2  -2  -2 1155.58   26.20
   2  -2  -2 1200.68   27.00
   2  -2  -2 1178.08   25.60
   2  -2  -2 1156.88   25.70
  -2   2   2 1154.78   26.80
  -2   2   2 1219.28   26.30
  -2   2   2 1157.68   26.20
   1  -2  -2 2539.05   48.70
   1  -2  -2 2580.04   48.80
   1  -2  -2 2487.55   48.90
   1  -2  -2 2538.75   49.00
  -1   2   2 2549.44   48.50
  -1   2   2 2536.85   48.90
  -1   2   2 2484.35   48.60
  -1   2   2 2505.95   48.90
   0  -2  -2 1307.57   25.40
   0  -2  -2 1301.07   27.80
   0  -2  -2 1280.77   27.80
   0   2   2 1243.68   27.40
   0   2   2 1311.07   25.30
   0   2   2 1288.47   27.40
   0   2   2 1287.67   28.30
  -1  -2  -2 2877.31   55.09
  -1  -2  -2 2826.32   55.79
   1   2   2 2724.43   54.29
   1   2   2 2733.93   55.59
   1   2   2 2651.14   54.19
  -2  -2  -2  865.21   23.40
  -2  -2  -2  861.41   28.40
  -2  -2  -2  800.12   22.30
   2   2   2  804.52   22.00
   2   2   2  835.92   22.20
   2   2   2  782.02   24.30
  -3  -2  -2  556.84   19.30
  -3  -2  -2  526.45   18.90
  -3  -2  -2  518.15   19.20
   3   2   2  554.24   19.30
   3   2   2  599.64   19.50
  -4  -2  -2  555.94   21.20
  -4  -2  -2  545.25   21.50
  -4  -2  -2  564.24   21.50
   4   2   2  547.95   21.00
   4   2   2  541.25   20.90
  -5  -2  -2 1248.58   37.80
  -5  -2  -2 1170.98   24.40
  -5  -2  -2 1168.78   36.70
   5   2   2 1200.68   36.10
   5   2   2 1215.18   36.50
   5   2   2 1203.38   24.80
  -6  -2  -2   27.00   10.40
   6   2   2   22.80    8.20
  -7  -2  -2   87.89   14.00
   7   2   2   96.09   13.60
   9  -3  -2  334.47   22.20
   9  -3  -2  387.46   26.70
  -9   3   2  340.57   25.80
  -9   3   2  345.37   22.00
   8  -3  -2  328.07   21.70
   8  -3  -2  395.26   20.90
  -8   3   2  316.57   21.40
  -8   3   2  353.26   20.40
   7  -3  -2  119.49   13.00
   7  -3  -2  126.99   12.20
   7  -3  -2  112.59   14.10
  -7   3   2  124.19   12.30
  -7   3   2  134.59   15.50
   6  -3  -2  188.38   14.40
   6  -3  -2  188.78   12.20
   6  -3  -2  177.58   13.70
   6  -3  -2  182.78   13.40
  -6   3   2  179.88   13.70
  -6   3   2  174.98   12.70
  -6   3   2  169.78   12.60
   5  -3  -2  245.08   12.40
   5  -3  -2  251.97   13.70
   5  -3  -2  238.98   13.80
   5  -3  -2  247.68   13.50
  -5   3   2  252.57   13.30
  -5   3   2  212.68   13.00
  -5   3   2  251.27   12.70
  -5   3   2  258.87   13.60
   4  -3  -2  727.23   22.30
   4  -3  -2  775.92   21.70
   4  -3  -2  725.93   22.60
  -4   3   2  719.43   21.00
  -4   3   2  728.93   21.90
  -4   3   2  745.83   22.70
  -4   3   2  727.43   21.80
   3  -3  -2 1158.48   27.90
   3  -3  -2 1121.99   29.00
   3  -3  -2 1111.39   27.50
   3  -3  -2 1147.79   27.70
  -3   3   2 1138.79   27.50
  -3   3   2 1176.88   27.70
  -3   3   2 1199.38   27.90
   2  -3  -2 3062.29   60.59
  -2   3   2 3120.19   60.89
  -2   3   2 3148.08   60.29
  -2   3   2 3207.88   65.19
   1  -3  -2  554.54   15.10
   1  -3  -2  533.45   14.50
   1  -3  -2  561.44   14.80
  -1   3   2  545.65   17.40
  -1   3   2  537.25   14.60
  -1   3   2  539.35   14.10
   0  -3  -2    4.90    2.60
   0  -3  -2    7.30    2.10
   0   3   2    4.70    2.90
   0   3   2    2.90    3.60
   0   3   2   12.00    3.00
   0   3   2   10.10    2.30
  -1  -3  -2  889.11   23.80
  -1  -3  -2  874.61   22.40
   1   3   2  883.91   21.90
   1   3   2  852.81   21.50
   1   3   2  867.21   23.90
  -2  -3  -2  279.47   13.20
  -2  -3  -2  291.47   12.40
  -2  -3  -2  296.57   12.50
   2   3   2  283.67   11.90
   2   3   2  284.77   12.00
  -3  -3  -2  544.75   19.40
  -3  -3  -2  475.75   18.40
  -3  -3  -2  493.95   19.80
   3   3   2  504.85   18.20
   3   3   2  501.05   18.20
   3   3   2  496.85   19.10
  -4  -3  -2  751.12   25.80
  -4  -3  -2  719.03   25.70
   4   3   2  725.53   24.90
   4   3   2  732.43   25.80
  -5  -3  -2  149.59   15.00
  -5  -3  -2  188.08   14.60
   5   3   2  168.98   16.40
   5   3   2  144.19   13.60
  -6  -3  -2   63.29   12.90
  -6  -3  -2   62.79   11.50
   6   3   2   82.79   12.20
  -7  -3  -2  466.35   27.70
   7   3   2  388.26   25.40
   9  -4  -2  343.07   25.70
   9  -4  -2  372.16   23.30
  -9   4   2  343.57   22.40
  -9   4   2  347.47   25.60
   8  -4  -2  272.57   22.30
   8  -4  -2  262.87   19.90
   8  -4  -2  296.77   18.90
  -8   4   2  294.07   20.70
  -8   4   2  289.87   19.10
   7  -4  -2    3.50    5.60
   7  -4  -2   23.90    8.10
   7  -4  -2    5.30    5.90
  -7   4   2    8.10    5.90
  -7   4   2    8.50    6.70
   6  -4  -2 1309.87   36.90
   6  -4  -2 1406.76   39.40
   6  -4  -2 1410.76   39.90
  -6   4   2 1395.46   37.70
  -6   4   2 1379.46   38.70
  -6   4   2 1373.36   38.70
  -6   4   2 1366.66   38.90
   5  -4  -2 1566.54   39.40
   5  -4  -2 1531.95   40.40
   5  -4  -2 1617.74   41.70
   5  -4  -2 1620.14   40.80
  -5   4   2 1604.04   41.50
  -5   4   2 1684.53   40.80
  -5   4   2 1652.53   40.10
  -5   4   2 1625.84   40.50
   4  -4  -2  103.19    8.30
   4  -4  -2  115.89    8.60
   4  -4  -2   91.99    8.00
  -4   4   2  104.19    8.20
  -4   4   2   84.19    8.60
  -4   4   2   93.29    7.70
  -4   4   2  106.29    8.40
   3  -4  -2  359.46   13.20
   3  -4  -2  389.16   14.10
   3  -4  -2  414.86   17.30
   3  -4  -2  357.26   14.50
  -3   4   2  363.86   13.10
  -3   4   2  382.86   13.30
  -3   4   2  377.36   14.80
   2  -4  -2  291.27   10.60
   2  -4  -2  280.87   11.60
   2  -4  -2  297.67   11.80
  -2   4   2  281.77   11.70
  -2   4   2  288.77   10.10
  -2   4   2  304.37   10.60
   1  -4  -2   -1.40    2.20
   1  -4  -2    0.10    2.30
  -1   4   2    4.30    2.30
  -1   4   2    1.90    2.70
   0  -4  -2 2155.28   44.40
   0  -4  -2 2108.09   46.80
   0  -4  -2 2152.08   41.90
   0  -4  -2 2173.68   47.20
   0   4   2 2126.99   50.39
   0   4   2 2134.59   42.00
   0   4   2 2224.98   43.40
  -1  -4  -2 1977.40   42.80
  -1  -4  -2 2019.80   43.10
  -1  -4  -2 1970.70   45.20
   1   4   2 2006.80   41.80
   1   4   2 1938.51   45.00
  -2  -4  -2  199.28   12.20
  -2  -4  -2  166.98   10.00
  -2  -4  -2  189.28   10.50
   2   4   2  188.78   10.10
   2   4   2  191.78   11.70
  -3  -4  -2   23.00    5.70
  -3  -4  -2   35.20    6.80
  -3  -4  -2   26.90    7.00
   3   4   2   26.20    6.80
   3   4   2   34.00    6.50
  -4  -4  -2  292.97   16.90
  -4  -4  -2  270.07   16.10
   4   4   2  269.87   16.80
   4   4   2  277.47   15.70
  -5  -4  -2  162.18   16.20
  -5  -4  -2  162.88   14.90
   5   4   2  145.39   14.70
   5   4   2  181.18   15.90
  -6  -4  -2  152.78   17.10
  -6  -4  -2  163.08   20.40
   6   4   2  156.38   17.00
   6   4   2  151.68   19.00
   7   4   2  194.88   20.90
   9  -5  -2  302.57   22.00
   9  -5  -2  369.46   25.40
  -9   5   2  339.77   23.00
  -9   5   2  328.67   25.80
   8  -5  -2  465.35   26.90
   8  -5  -2  452.25   23.30
   8  -5  -2  480.05   25.30
  -8   5   2  489.65   24.80
  -8   5   2  426.26   24.30
   7  -5  -2   -0.70    4.80
   7  -5  -2    3.10    6.70
   7  -5  -2    5.40    6.40
  -7   5   2   -0.80    5.60
  -7   5   2    3.10    6.10
   6  -5  -2  283.27   15.70
   6  -5  -2  293.17   16.70
   6  -5  -2  331.37   17.70
  -6   5   2  307.77   16.70
  -6   5   2  328.67   17.70
   5  -5  -2  255.17   13.70
   5  -5  -2  257.27   13.80
   5  -5  -2  229.48   13.20
  -5   5   2  229.18   13.10
  -5   5   2  264.47   13.50
  -5   5   2  256.07   14.10
  -5   5   2  263.97   14.90
   4  -5  -2   51.49    6.80
   4  -5  -2   51.89    7.10
   4  -5  -2   51.39    6.70
   4  -5  -2   40.90    6.20
  -4   5   2   58.59    7.70
  -4   5   2   53.09    6.50
  -4   5   2   45.80    6.40
   3  -5  -2 1558.14   35.30
   3  -5  -2 1502.35   37.10
   3  -5  -2 1501.65   35.10
   3  -5  -2 1501.35   37.00
   3  -5  -2 1534.35   36.80
  -3   5   2 1568.94   34.70
  -3   5   2 1510.45   34.10
  -3   5   2 1562.84   37.70
   2  -5  -2 2609.44   52.39
   2  -5  -2 2615.14   54.29
   2  -5  -2 2559.34   52.39
  -2   5   2 2614.64   50.99
  -2   5   2 2564.34   58.49
   1  -5  -2  230.48   11.30
   1  -5  -2  232.38    9.70
   1  -5  -2  244.68    9.70
   1  -5  -2  255.77   11.40
  -1   5   2  201.58   11.10
  -1   5   2  235.68    8.80
  -1   5   2  218.58    8.20
   0  -5  -2  268.67   12.90
   0  -5  -2  232.98    8.80
   0  -5  -2  231.08   10.20
   0  -5  -2  237.58   10.20
   0   5   2  268.77    9.30
   0   5   2  246.98    9.10
   0   5   2  243.08   12.40
   0   5   2  256.07    9.20
  -1  -5  -2  136.69   10.60
  -1  -5  -2  136.99    5.00
  -1  -5  -2  129.59    8.50
  -1  -5  -2  136.09    5.20
  -1  -5  -2  123.39    8.30
   1   5   2  133.99    7.70
   1   5   2  122.99   10.00
  -2  -5  -2   81.89    8.20
  -2  -5  -2   98.29    8.60
  -2  -5  -2  103.29   10.80
   2   5   2   97.09    9.80
   2   5   2   96.29    8.10
  -3  -5  -2  439.56   18.80
  -3  -5  -2  446.86   19.10
   3   5   2  490.95   18.50
   3   5   2  482.25   21.10
  -4  -5  -2  628.04   25.20
  -4  -5  -2  656.13   25.20
   4   5   2  594.94   25.50
   4   5   2  615.64   23.70
  -5  -5  -2  332.17   20.00
  -5  -5  -2  355.46   22.00
   5   5   2  333.47   21.20
   5   5   2  262.87   19.50
  -6  -5  -2   21.00    9.50
   6   5   2   32.50   10.90
   9  -6  -2  390.86   24.20
   9  -6  -2  406.26   26.20
  -9   6   2  401.96   25.20
  -9   6   2  363.76   27.70
   8  -6  -2  324.27   20.40
   8  -6  -2  297.47   22.60
   8  -6  -2  304.77   20.90
  -8   6   2  357.76   22.10
  -8   6   2  312.87   21.70
   7  -6  -2   69.59   11.10
   7  -6  -2   55.69   10.50
   7  -6  -2   66.69   10.30
  -7   6   2   54.49    9.70
  -7   6   2   64.19   11.00
   6  -6  -2  770.02   27.80
   6  -6  -2  852.11   28.70
   6  -6  -2  812.12   28.30
  -6   6   2  795.92   29.40
  -6   6   2  863.11   28.40
   5  -6  -2 1136.19   32.30
   5  -6  -2 1132.09   33.10
   5  -6  -2 1138.39   32.40
  -5   6   2 1097.09   31.00
  -5   6   2 1154.18   34.60
   4  -6  -2  400.66   17.00
   4  -6  -2  378.16   17.70
   4  -6  -2  368.76   15.10
   4  -6  -2  368.36   17.20
   4  -6  -2  367.96   16.50
  -4   6   2  331.67   16.40
  -4   6   2  369.76   14.40
   3  -6  -2    3.20    3.80
   3  -6  -2    1.70    3.00
   3  -6  -2   -3.50    3.50
   3  -6  -2   -1.30    2.70
  -3   6   2    1.70    2.70
  -3   6   2    5.50    4.20
   2  -6  -2  271.07   11.10
   2  -6  -2  247.58   12.10
   2  -6  -2  283.77   11.20
  -2   6   2  259.07   13.10
  -2   6   2  303.17   13.00
  -2   6   2  259.27   10.10
   1  -6  -2    8.80    3.50
   1  -6  -2    7.50    4.50
   1  -6  -2    6.70    3.20
   1  -6  -2    1.30    2.60
  -1   6   2    8.70    2.80
  -1   6   2   10.40    4.30
  -1   6   2    4.90    2.50
  -1   6   2    5.00    3.40
   0  -6  -2  415.26   17.80
   0  -6  -2  390.86   12.50
   0  -6  -2  388.36   14.20
   0  -6  -2  362.06   13.80
   0   6   2  387.96   13.00
   0   6   2  402.46   17.00
   0   6   2  406.26   11.70
   0   6   2  418.36   13.20
  -1  -6  -2 1198.98   33.90
  -1  -6  -2 1140.29   24.00
  -1  -6  -2 1131.69   29.50
  -1  -6  -2 1113.29   29.60
  -1  -6  -2 1128.29   23.50
   1   6   2 1139.49   26.60
   1   6   2 1144.59   26.70
   1   6   2 1105.29   32.60
  -2  -6  -2 1141.99   31.70
  -2  -6  -2 1176.38   32.10
   2   6   2 1179.98   35.10
   2   6   2 1166.58   29.40
  -3  -6  -2   14.70    5.50
  -3  -6  -2   21.10    6.60
   3   6   2   19.30    6.50
  -4  -6  -2  105.59   12.40
  -4  -6  -2   93.79   11.90
   4   6   2  114.49   13.80
   4   6   2  118.69   14.40
  -5  -6  -2  168.78   16.20
   5   6   2  159.78   17.90
   9  -7  -2  197.18   20.90
   9  -7  -2  197.38   20.00
  -9   7   2  217.78   21.10
  -9   7   2  165.48   20.40
   8  -7  -2   39.90   11.10
   8  -7  -2   43.20   10.00
   8  -7  -2   36.40   10.50
  -8   7   2   28.10   10.20
  -8   7   2   33.70   10.50
   7  -7  -2  158.68   15.60
   7  -7  -2  123.59   13.90
   7  -7  -2  132.39   13.70
  -7   7   2  132.39   14.90
  -7   7   2  137.99   14.90
   6  -7  -2  397.56   19.40
   6  -7  -2  354.46   19.60
   6  -7  -2  347.37   18.40
  -6   7   2  362.46   21.80
  -6   7   2  357.76   18.00
   5  -7  -2  455.85   19.10
   5  -7  -2  460.05   19.00
   5  -7  -2  457.85   20.30
  -5   7   2  473.25   18.20
  -5   7   2  471.45   21.40
   4  -7  -2   51.89    8.30
   4  -7  -2   58.09    8.90
   4  -7  -2   58.99    7.30
   4  -7  -2   49.99    6.90
  -4   7   2   73.49    7.30
  -4   7   2   46.60    8.30
   3  -7  -2  482.35   16.60
   3  -7  -2  476.05   16.40
   3  -7  -2  459.95   19.20
  -3   7   2  435.66   18.40
  -3   7   2  486.95   15.40
   2  -7  -2 1463.35   33.80
   2  -7  -2 1447.46   36.20
   2  -7  -2 1417.56   33.70
  -2   7   2 1462.25   36.70
  -2   7   2 1462.35   30.70
  -2   7   2 1463.45   30.00
   1  -7  -2 1020.00   30.70
   1  -7  -2  986.10   26.10
   1  -7  -2 1037.70   26.00
   1  -7  -2  954.50   25.60
  -1   7   2 1007.60   21.00
  -1   7   2  980.10   29.90
   0  -7  -2    5.80    3.60
   0  -7  -2   -2.70    2.90
   0  -7  -2    1.20    3.10
   0   7   2    2.90    2.30
   0   7   2    2.30    2.40
   0   7   2    2.90    3.20
   0   7   2    3.00    4.40
  -1  -7  -2   10.30    2.80
  -1  -7  -2   11.20    2.90
  -1  -7  -2   12.30    4.90
   1   7   2    6.90    3.50
   1   7   2   12.00    5.70
  -2  -7  -2   32.10    7.00
  -2  -7  -2   51.79    7.70
   2   7   2   44.50    6.30
  -3  -7  -2   34.80    7.70
  -3  -7  -2   59.49    9.40
   3   7   2   60.79    8.60
   3   7   2   44.50   10.10
  -4  -7  -2  463.45   23.90
  -4  -7  -2  423.56   22.10
   4   7   2  422.46   21.60
   4   7   2  443.36   24.50
  -5  -7  -2  214.18   19.00
   5   7   2  176.58   19.60
   9  -8  -2  219.78   22.10
  -9   8   2  175.78   20.60
   8  -8  -2  637.94   29.70
   8  -8  -2  650.13   31.30
   8  -8  -2  652.03   29.90
  -8   8   2  629.04   29.60
  -8   8   2  616.74   30.70
   7  -8  -2   12.80    7.10
   7  -8  -2   14.00    7.90
   7  -8  -2    9.70    6.70
  -7   8   2   17.10    7.40
  -7   8   2   22.20    8.40
   6  -8  -2   53.69    9.20
   6  -8  -2   71.99    9.70
   6  -8  -2   58.39    9.70
  -6   8   2   63.69   11.50
  -6   8   2   57.39    9.20
   5  -8  -2  495.95   20.20
   5  -8  -2  503.75   24.10
   5  -8  -2  486.75   20.20
  -5   8   2  549.05   23.90
   4  -8  -2  249.68   13.00
   4  -8  -2  225.18   15.40
   4  -8  -2  272.17   13.50
  -4   8   2  260.37   16.00
  -4   8   2  263.57   11.80
   3  -8  -2  204.78   10.90
   3  -8  -2  195.28   11.20
   3  -8  -2  202.08   13.90
   3  -8  -2  228.58   14.30
  -3   8   2  216.78    8.90
  -3   8   2  228.48   14.00
   2  -8  -2  104.89    8.10
   2  -8  -2  126.59   10.30
   2  -8  -2  110.49   10.20
  -2   8   2  105.29    9.90
   1  -8  -2   38.10    5.80
   1  -8  -2   40.30    6.00
   1  -8  -2   29.10    5.80
  -1   8   2   29.90    6.00
  -1   8   2   24.80    7.20
   0  -8  -2    7.20    4.20
   0  -8  -2    7.40    4.10
   0  -8  -2    8.80    4.40
   0   8   2   16.40    6.10
  -1  -8  -2 1358.66   36.20
  -1  -8  -2 1425.36   30.10
  -1  -8  -2 1452.35   30.60
  -1  -8  -2 1443.46   36.70
   1   8   2 1430.26   42.00
  -2  -8  -2  233.48   14.40
  -2  -8  -2  214.98   16.50
   2   8   2  254.57   17.50
  -3  -8  -2   74.69   10.70
  -3  -8  -2   75.29   11.30
   3   8   2   47.30   10.20
  -4  -8  -2    3.30    8.00
  -4  -8  -2   18.10    9.60
   4   8   2   12.90    9.20
   9  -9  -2    5.90   10.10
   9  -9  -2   31.40   16.40
  -9   9   2   20.40   11.80
   8  -9  -2  142.59   17.70
   8  -9  -2   88.59   14.10
  -8   9   2   95.29   14.70
  -8   9   2  103.39   24.50
   7  -9  -2   19.10    7.80
   7  -9  -2   19.20    8.20
   7  -9  -2   21.00    9.00
  -7   9   2   22.00   10.10
   6  -9  -2  134.39   14.70
   6  -9  -2  178.88   14.00
   6  -9  -2  141.39   13.50
  -6   9   2  149.39   15.80
  -6   9   2  146.49   13.50
   5  -9  -2  516.75   24.30
   5  -9  -2  553.04   21.70
   5  -9  -2  540.45   21.70
  -5   9   2  555.94   25.50
  -5   9   2  561.54   19.70
   4  -9  -2  112.09    9.50
   4  -9  -2   98.49   12.60
   4  -9  -2  116.79   10.50
  -4   9   2  116.59    8.30
  -4   9   2  115.59   12.60
   3  -9  -2  129.89    9.80
   3  -9  -2  124.79   14.10
   3  -9  -2  160.08   22.50
  -3   9   2  112.39   11.90
   2  -9  -2  634.34   23.10
  -2   9   2  626.34   23.20
   1  -9  -2  243.78   13.50
   1  -9  -2  228.68   17.50
   1  -9  -2  218.08   11.50
  -1   9   2  180.58   14.80
  -1   9   2  245.38   13.80
   0  -9  -2   90.39    9.20
   0  -9  -2   83.89    8.90
   0  -9  -2   98.59    9.00
   0   9   2   87.59   11.50
  -1  -9  -2   50.89    8.10
  -1  -9  -2   47.20    5.30
  -1  -9  -2   46.70    5.80
  -1  -9  -2   52.49    7.90
   1   9   2   35.70    8.80
  -2  -9  -2   30.30   13.70
  -2  -9  -2   17.20    6.30
   2   9   2    7.40    7.50
  -3  -9  -2   42.20   16.20
  -3  -9  -2   54.99   15.30
   3   9   2   29.40   10.50
   8 -10  -2  411.46   27.90
   8 -10  -2  408.66   25.00
  -8  10   2  372.26   26.50
   7 -10  -2  195.48   17.00
   7 -10  -2  229.88   18.70
   7 -10  -2  170.48   18.10
  -7  10   2  183.68   19.00
  -7  10   2  200.38   19.80
   6 -10  -2   81.09   11.60
   6 -10  -2   99.39   11.90
   6 -10  -2   69.29   12.40
  -6  10   2   76.99   12.40
  -6  10   2   86.29   10.90
   5 -10  -2  296.37   19.90
   5 -10  -2  322.27   17.40
   5 -10  -2  303.77   16.50
  -5  10   2  288.97   13.80
  -5  10   2  258.47   19.10
   4 -10  -2   29.30    8.40
   4 -10  -2   28.00    6.50
   4 -10  -2   30.30    6.40
  -4  10   2   27.80    8.20
   3 -10  -2  264.87   18.50
   3 -10  -2  260.97   16.00
   3 -10  -2  240.48   12.80
  -3  10   2  260.27   17.10
   2 -10  -2  147.09    9.90
   2 -10  -2  126.99   10.20
  -2  10   2  112.29   12.40
   1 -10  -2  154.18   14.30
   1 -10  -2  158.78   11.30
   1 -10  -2  158.68   10.50
  -1  10   2  158.38   15.80
  -1  10   2  170.18   13.10
   0 -10  -2  127.99   10.90
   0 -10  -2  123.39   11.00
   0 -10  -2  136.49   10.90
   0 -10  -2  135.39   11.10
   0  10   2  119.69   14.50
  -1 -10  -2  234.08   14.70
  -1 -10  -2  246.28    9.60
  -1 -10  -2  239.48   14.70
   1  10   2  218.78   19.10
  -2 -10  -2  259.27   19.10
  -2 -10  -2  301.87   18.20
   2  10   2  310.77   22.90
   8 -11  -2    5.50    9.50
   8 -11  -2   26.30   11.40
  -8  11   2    0.70   11.00
   7 -11  -2    1.70   12.00
   6 -11  -2  174.48   18.10
   6 -11  -2  174.58   16.90
   6 -11  -2  194.68   15.60
  -6  11   2  192.58   19.40
   5 -11  -2   39.70   10.90
   5 -11  -2   54.99    9.60
   5 -11  -2   56.29    8.90
  -5  11   2   37.00   10.50
   4 -11  -2  649.34   23.40
   4 -11  -2  555.24   21.40
   4 -11  -2  635.94   29.70
  -4  11   2  592.74   27.60
   3 -11  -2   58.09   11.80
   3 -11  -2   36.40    6.50
   3 -11  -2   46.30    8.00
  -3  11   2   40.40   10.10
   2 -11  -2  224.08   13.40
   2 -11  -2  239.28   19.70
   2 -11  -2  227.08   12.60
  -2  11   2  225.48   17.30
   1 -11  -2  311.17   18.20
   1 -11  -2  321.37   14.80
  -1  11   2  317.07   21.20
   0 -11  -2   13.50    6.20
   0 -11  -2   12.30    6.30
   0 -11  -2   24.40    6.60
   0  11   2   10.70    8.40
  -1 -11  -2   29.90    7.70
  -1 -11  -2   42.60    9.00
   7 -12  -2   58.79   13.50
   7 -12  -2   67.99   12.50
  -7  12   2   81.79   16.70
   6 -12  -2   -1.20    6.70
   6 -12  -2    9.70   11.00
   6 -12  -2    6.10    9.20
  -6  12   2   36.10   12.40
   5 -12  -2  187.18   15.30
   5 -12  -2  134.39   20.80
   5 -12  -2  174.88   16.50
  -5  12   2  169.88   19.70
   4 -12  -2   44.40   11.70
   4 -12  -2   81.09   10.60
   4 -12  -2   58.19    8.70
  -4  12   2   64.29   12.90
   3 -12  -2    9.20    9.20
   3 -12  -2    2.60    5.10
   3 -12  -2   12.30    6.40
  -3  12   2    4.20    8.40
   2 -12  -2  136.99   17.90
   2 -12  -2  150.18   11.10
   2 -12  -2  145.69   12.30
   1 -12  -2  168.38   12.90
   1 -12  -2  162.68   15.50
   0 -12  -2   15.80    6.50
   0 -12  -2    4.50    9.40
   0 -12  -2    2.60    7.60
   0  12   2   11.90   10.30
   5 -13  -2  506.25   30.90
   5 -13  -2  461.75   21.60
   5 -13  -2  491.25   23.80
  -5  13   2  474.75   31.70
   4 -13  -2   73.39   15.70
   4 -13  -2   56.49    9.20
   4 -13  -2   69.49   10.20
  -4  13   2   40.20   13.20
   3 -13  -2   -0.40    5.50
   3 -13  -2    1.10   10.80
  -3  13   2   -0.40   10.10
   2 -14   3   91.79   16.30
   2 -14   3  103.19   15.60
   3 -14   3   14.40   10.50
   4 -14   3   97.19   15.20
   4 -14   3   95.19    8.60
   0 -13   3   34.20   10.40
   0 -13   3   35.00   10.60
   1 -13   3   73.29   13.20
   1 -13   3   66.09   12.20
   2 -13   3   54.59   10.90
   2 -13   3   73.09   13.40
   3 -13   3  165.08   17.60
  -4  13  -3   11.50    9.60
   4 -13   3   31.80    6.00
   4 -13   3   40.90   11.90
  -5  13  -3   47.20   16.20
   5 -13   3   62.69    9.40
   5 -13   3   46.20    9.70
   5 -13   3   31.00   11.60
  -6  13  -3  233.98   23.70
   6 -13   3  210.68   15.80
   6 -13   3  244.98   17.90
   6 -13   3  257.47   22.60
  -2 -12   3  137.29   14.60
  -1 -12   3  108.49   13.50
  -1 -12   3  116.39   14.60
   0 -12   3   73.99   11.50
   1 -12   3    1.20    6.60
   1 -12   3   -3.90    5.90
   2 -12   3   25.00    8.30
   2 -12   3   21.40    8.30
   3 -12   3  313.77   11.00
   3 -12   3  345.67   20.80
   3 -12   3  319.67   11.30
  -4  12  -3   -3.40    7.50
   4 -12   3    7.50    5.10
   4 -12   3    0.70    7.00
   4 -12   3    7.70    4.60
  -5  12  -3   98.89   15.20
   5 -12   3   93.09   10.10
   5 -12   3   98.09   11.10
   5 -12   3  116.59   15.30
  -6  12  -3  120.89   18.30
   6 -12   3   90.09   14.60
   6 -12   3   66.99   12.50
   6 -12   3   85.69   13.60
  -7  12  -3   11.50   10.90
   7 -12   3    7.80    8.20
   7 -12   3   10.70    9.80
   3  11  -3   46.20   11.20
  -3 -11   3   51.89    7.80
  -3 -11   3   42.70   10.10
  -3 -11   3   41.40    8.90
   2  11  -3   13.60    8.30
  -2 -11   3   13.40    7.50
  -2 -11   3   19.70    4.80
  -1 -11   3    2.60    6.70
   0 -11   3  105.49   13.50
   0 -11   3  119.29   13.10
   1 -11   3   10.40    6.50
   2 -11   3  364.36   19.60
  -3  11  -3  142.69   15.10
   3 -11   3  138.79    8.00
   3 -11   3  145.49   13.80
   3 -11   3  119.39    7.40
  -4  11  -3  116.19   14.70
   4 -11   3  136.89   14.20
   4 -11   3  104.69    9.00
   4 -11   3  104.29    8.80
  -5  11  -3  272.77   20.60
   5 -11   3  324.67   20.20
   5 -11   3  281.97   16.60
   5 -11   3  287.57   15.30
  -6  11  -3  112.69   16.50
   6 -11   3  104.79   12.40
   6 -11   3  111.49   14.90
   7 -11   3   19.50    9.00
   7 -11   3   16.00   11.20
   7 -11   3   32.40   14.40
   4  10  -3    4.40    8.80
  -4 -10   3    1.20    5.90
  -4 -10   3    3.00    6.30
  -4 -10   3   -2.00    7.40
   3  10  -3   15.90    8.00
  -3 -10   3    3.50    5.50
  -3 -10   3    6.40    5.30
  -3 -10   3    0.70    6.00
   2  10  -3    3.70    6.10
  -2 -10   3   -0.20    3.80
  -2 -10   3    0.70    3.50
  -2 -10   3   -4.00    5.70
  -2 -10   3    5.90    6.90
  -1 -10   3  453.45   20.50
  -1 -10   3  487.05   20.80
   0 -10   3  555.94   22.30
   0 -10   3  504.45   22.20
   1 -10   3   62.99    9.60
   1 -10   3   60.99    9.40
   2 -10   3   97.19    5.10
   2 -10   3   95.49   10.90
  -3  10  -3   86.19   12.50
   3 -10   3   63.39    9.60
   3 -10   3   53.29    6.10
  -4  10  -3  196.08   16.40
   4 -10   3  200.98   15.00
   4 -10   3  187.78   10.90
  -5  10  -3   63.89    7.30
  -5  10  -3   72.89   12.30
   5 -10   3   53.19    9.80
   5 -10   3   72.49    9.20
   5 -10   3   63.39    8.60
  -6  10  -3  113.59   13.30
  -6  10  -3   82.39   12.30
   6 -10   3  110.49   14.80
   6 -10   3  104.89   13.40
   6 -10   3  101.39   12.20
  -7  10  -3  129.39   17.30
  -7  10  -3  169.68   19.90
   7 -10   3  167.58   16.20
   7 -10   3  154.88   17.70
   7 -10   3  155.58   17.30
  -8  10  -3  126.99   17.70
   8 -10   3   95.99   24.10
   8 -10   3  125.99   17.30
   5   9  -3   55.89   11.50
  -5  -9   3   30.10    8.70
  -5  -9   3   32.90   10.90
   4   9  -3  187.48   15.70
  -4  -9   3  173.08   14.10
  -4  -9   3  159.38   13.00
  -4  -9   3  176.98   11.90
   3   9  -3  407.66   19.70
  -3  -9   3  426.46   16.60
  -3  -9   3  417.16   16.70
  -3  -9   3  368.16   16.90
  -3  -9   3  401.36   17.50
   2   9  -3  198.38   13.60
  -2  -9   3  202.58   13.40
  -2  -9   3  222.68   10.20
  -2  -9   3  203.58    9.80
  -2  -9   3  201.38   13.30
   1   9  -3   88.39   10.00
  -1  -9   3   84.59    5.00
  -1  -9   3   88.29   10.10
  -1  -9   3   69.49    9.60
  -1  -9   3   82.69    5.10
   0  -9   3    7.90    5.80
   0  -9   3    5.20    5.50
   0  -9   3   -4.70    3.90
   0  -9   3    2.00    4.50
   1  -9   3  135.09   11.90
   1  -9   3  125.59   12.00
   1  -9   3  118.09   11.20
  -2   9  -3  156.88   12.60
   2  -9   3  130.89   11.10
   2  -9   3  124.89   11.80
   2  -9   3  137.69    6.10
   2  -9   3  131.89    6.20
  -3   9  -3  649.34   25.30
   3  -9   3  612.24   23.20
   3  -9   3  592.44   17.60
  -4   9  -3  344.07   11.50
  -4   9  -3  353.16   19.20
   4  -9   3  330.17   14.30
   4  -9   3  281.27   16.80
   4  -9   3  311.27   14.00
  -5   9  -3  147.69   10.90
  -5   9  -3  136.59   14.40
   5  -9   3  125.09   12.80
   5  -9   3  142.19   11.40
   5  -9   3  136.79   11.60
  -6   9  -3  271.87   19.30
  -6   9  -3  237.18   16.00
   6  -9   3  233.28   17.60
   6  -9   3  253.37   16.90
   6  -9   3  273.87   16.80
  -7   9  -3  196.58   18.30
   7  -9   3  188.88   19.20
   7  -9   3  183.28   17.40
   7  -9   3  200.88   16.90
  -8   9  -3    6.00    9.50
   8  -9   3   14.80    9.30
   5   8  -3  180.18   16.10
  -5  -8   3  203.98   17.20
  -5  -8   3  169.38   15.00
  -5  -8   3  200.68   18.50
   4   8  -3   22.60    7.80
  -4  -8   3   23.00    5.90
  -4  -8   3   24.30    6.50
  -4  -8   3   32.40    6.90
   3   8  -3   70.89    9.10
  -3  -8   3   73.29    9.10
  -3  -8   3   63.69    7.80
  -3  -8   3   57.99   11.60
  -3  -8   3   64.29    8.00
  -3  -8   3   67.99   11.80
   2   8  -3  210.48   12.80
  -2  -8   3  252.27   10.40
  -2  -8   3  241.18   13.20
  -2  -8   3  263.87   15.00
  -2  -8   3  232.38   10.10
  -2  -8   3  244.48   13.10
   1   8  -3   33.20    6.20
  -1  -8   3   46.20    7.20
  -1  -8   3   43.40    3.90
  -1  -8   3   47.30    7.20
  -1  -8   3   37.00    3.80
  -1  -8   3   46.80    7.20
   0  -8   3 2156.28   49.30
   0  -8   3 2037.90   47.90
   0  -8   3 2095.49   48.40
   0  -8   3 2075.49   49.60
   1  -8   3  100.39    8.90
   1  -8   3  102.39    9.50
  -2   8  -3   54.89    8.40
   2  -8   3   66.39    9.30
   2  -8   3   50.29    7.80
   2  -8   3   55.99    7.50
   2  -8   3   53.89    4.50
   2  -8   3   58.49    5.70
  -3   8  -3  129.59   12.00
   3  -8   3  144.79   11.80
   3  -8   3  159.68    8.70
   3  -8   3  169.78   11.60
   3  -8   3  156.68    8.50
  -4   8  -3   13.50    5.90
  -4   8  -3   13.40    4.30
   4  -8   3    3.30    5.00
   4  -8   3    8.80    4.30
   4  -8   3    9.50    4.20
  -5   8  -3   69.39   10.60
   5  -8   3   66.59    8.50
   5  -8   3   72.39    9.20
   5  -8   3   61.49    8.90
  -6   8  -3  821.52   31.50
  -6   8  -3  870.01   29.20
   6  -8   3  859.91   30.00
   6  -8   3  795.62   30.40
   6  -8   3  796.52   29.10
  -7   8  -3    7.80    7.40
  -7   8  -3   19.50    9.50
   7  -8   3   21.20    7.40
   7  -8   3   14.60    8.90
   7  -8   3   26.80    9.00
  -8   8  -3   19.70    9.80
  -8   8  -3    8.20   11.80
   8  -8   3   24.10    9.80
   8  -8   3   11.70    9.30
   6   7  -3   27.90    9.80
  -6  -7   3   27.70   13.10
   5   7  -3   -8.50    7.20
   5   7  -3   -1.70    5.90
  -5  -7   3   -0.60    6.80
  -5  -7   3    1.00    4.90
  -5  -7   3   -1.50    5.30
  -5  -7   3   -2.60    5.70
   4   7  -3  289.77   15.50
   4   7  -3  270.77   11.90
  -4  -7   3  259.07   13.30
  -4  -7   3  268.97   13.40
  -4  -7   3  280.37   14.70
  -4  -7   3  258.77   16.50
  -4  -7   3  283.47   15.30
   3   7  -3  612.34   21.40
  -3  -7   3  611.24   19.90
  -3  -7   3  608.74   20.30
  -3  -7   3  587.34   19.80
  -3  -7   3  610.44   19.80
   2   7  -3   83.39    8.10
  -2  -7   3   74.29    8.10
  -2  -7   3   79.19    8.40
  -2  -7   3   88.79    9.10
  -2  -7   3   85.29    6.50
  -2  -7   3   88.09    6.40
   1   7  -3  183.18   10.20
  -1  -7   3  195.28   11.40
  -1  -7   3  190.98    6.90
  -1  -7   3  204.68   11.30
  -1  -7   3  185.08   10.80
   0  -7   3    4.60    4.00
   0  -7   3   11.90    4.00
   0  -7   3   14.80    4.60
   0  -7   3    8.90    4.20
   1  -7   3   -0.10    3.50
   1  -7   3    7.30    2.00
   1  -7   3    3.10    3.90
   1  -7   3   16.90    4.40
  -2   7  -3  480.85   18.90
   2  -7   3  515.95   14.50
   2  -7   3  525.95   18.30
   2  -7   3  495.65   19.30
   2  -7   3  468.95   17.50
   2  -7   3  528.25   13.90
  -3   7  -3 1994.90   39.90
  -3   7  -3 1974.20   39.10
  -3   7  -3 1881.51   47.20
   3  -7   3 1916.81   41.80
   3  -7   3 1870.81   41.60
   3  -7   3 1936.01   45.80
  -4   7  -3  219.98   11.00
  -4   7  -3  222.98   13.90
  -4   7  -3  204.98   13.70
   4  -7   3  214.68   11.70
   4  -7   3  220.58   11.80
   4  -7   3  214.78   13.20
  -5   7  -3   33.00    7.20
  -5   7  -3   43.50    7.30
   5  -7   3   29.40    6.70
   5  -7   3   51.99    7.90
   5  -7   3   53.59    8.80
  -6   7  -3   68.59    9.90
  -6   7  -3   59.49   12.10
   6  -7   3   58.09   10.30
   6  -7   3   95.69   11.50
   6  -7   3   68.29   11.00
  -7   7  -3  247.88   18.40
  -7   7  -3  286.77   19.50
   7  -7   3  246.38   18.80
   7  -7   3  269.67   19.00
   7  -7   3  277.67   20.70
  -8   7  -3   24.10    9.40
  -8   7  -3   31.60   11.80
   8  -7   3   40.10   10.40
   8  -7   3   48.40   11.70
  -9   7  -3   87.79   15.10
   9  -7   3   74.29   15.10
   9  -7   3   76.89   15.50
   7   6  -3   96.49   14.10
  -7  -6   3   76.89   13.50
  -6  -6   3  235.48   12.80
  -6  -6   3  227.08   18.90
  -6  -6   3  210.08   17.30
   5   6  -3   64.89    9.70
  -5  -6   3   87.29   11.20
  -5  -6   3   76.39   10.10
  -5  -6   3   75.99    8.80
   4   6  -3  402.36   17.00
  -4  -6   3  392.26   19.60
  -4  -6   3  403.06   17.30
  -4  -6   3  413.56   16.00
   3   6  -3  139.99    7.50
   3   6  -3  127.19    9.30
  -3  -6   3  141.19    9.00
  -3  -6   3  131.49   10.20
  -3  -6   3  147.49    9.40
  -2  -6   3   63.49    8.30
  -2  -6   3   62.39    5.50
  -2  -6   3   58.69    5.50
  -2  -6   3   60.69    7.20
  -2  -6   3   75.59    7.40
   1   6  -3  863.41   22.60
  -1  -6   3  867.81   24.00
  -1  -6   3  883.71   23.10
  -1  -6   3  815.32   26.80
  -1  -6   3  852.11   18.80
  -1  -6   3  900.41   19.00
   0  -6   3 1863.91   42.20
   0  -6   3 1823.62   42.80
   0  -6   3 1851.31   40.30
   0  -6   3 1892.01   40.60
   1  -6   3  202.88    6.60
   1  -6   3  227.38    7.60
   1  -6   3  226.18   11.60
   1  -6   3  211.18   10.20
  -2   6  -3  238.58   12.50
  -2   6  -3  226.28    8.10
  -2   6  -3  231.48   11.40
  -2   6  -3  246.28    7.20
   2  -6   3  244.08    8.90
   2  -6   3  230.98   12.30
   2  -6   3  237.88    8.80
   2  -6   3  232.68   11.30
  -3   6  -3  174.38    8.60
  -3   6  -3  153.58   10.80
  -3   6  -3  156.38   10.30
   3  -6   3  166.78    8.90
   3  -6   3  146.89    8.50
   3  -6   3  183.08   10.80
  -4   6  -3    4.30    4.20
  -4   6  -3   -0.90    3.30
  -4   6  -3    7.00    4.60
   4  -6   3    5.40    4.60
   4  -6   3   -0.80    3.50
   4  -6   3    0.30    3.40
   4  -6   3    6.20    4.20
  -5   6  -3  339.47   16.00
  -5   6  -3  337.27   17.10
   5  -6   3  315.67   16.30
   5  -6   3  345.47   16.80
   5  -6   3  294.87   16.20
  -6   6  -3  497.85   22.00
  -6   6  -3  469.25   21.80
   6  -6   3  554.44   23.90
   6  -6   3  499.25   22.80
   6  -6   3  471.45   21.80
  -7   6  -3  724.83   28.60
  -7   6  -3  703.53   29.20
   7  -6   3  698.93   33.30
   7  -6   3  673.03   28.70
   7  -6   3  690.93   30.70
  -8   6  -3   36.10    9.70
  -8   6  -3   34.20   11.70
   8  -6   3   42.20   11.00
   8  -6   3   38.10   11.00
  -9   6  -3  211.08   20.20
   9  -6   3  190.38   21.40
   9  -6   3  225.78   24.20
   7   5  -3  257.07   18.80
  -7  -5   3  275.67   14.90
  -7  -5   3  224.38   19.80
   6   5  -3  315.17   17.50
   6   5  -3  339.47   16.70
  -6  -5   3  305.77   19.00
  -6  -5   3  309.37   19.70
  -6  -5   3  302.47   14.60
   5   5  -3  240.38   13.90
   5   5  -3  239.98   13.20
  -5  -5   3  224.88   14.40
  -5  -5   3  227.48   12.40
  -5  -5   3  258.07   15.40
  -5  -5   3  245.18   15.10
   4   5  -3  653.03   20.90
   4   5  -3  642.34   20.40
  -4  -5   3  640.44   22.70
  -4  -5   3  654.63   22.00
  -4  -5   3  633.84   21.70
  -4  -5   3  598.24   20.60
   3   5  -3 1073.09   25.40
   3   5  -3 1104.59   28.00
   3   5  -3 1030.00   29.60
  -3  -5   3 1078.39   27.40
  -3  -5   3 1113.89   27.80
  -3  -5   3 1086.89   27.80
   2   5  -3  690.93   15.90
   2   5  -3  692.43   20.30
   2   5  -3  708.93   19.10
   2   5  -3  696.33   15.80
  -2  -5   3  737.93   19.50
  -2  -5   3  672.03   20.40
  -2  -5   3  753.82   18.60
  -2  -5   3  674.83   18.00
   1   5  -3   27.10    3.70
  -1  -5   3   25.80    4.60
  -1  -5   3   23.80    3.00
  -1  -5   3   30.90    5.00
  -1  -5   3   26.00    3.20
  -1  -5   3   37.90    4.90
   0  -5   3   85.99    5.70
   0  -5   3   85.49    7.20
   0  -5   3   80.19    7.00
   0  -5   3   93.09    6.20
   0  -5   3   80.69    3.80
   0  -5   3   85.09    6.00
  -1   5  -3  329.07   13.50
   1  -5   3  316.27   10.20
   1  -5   3  326.17   13.10
   1  -5   3  323.57    9.20
   1  -5   3  319.47   11.60
  -2   5  -3 1355.66   27.90
  -2   5  -3 1292.57   28.40
  -2   5  -3 1317.37   32.90
  -2   5  -3 1304.67   31.30
   2  -5   3 1317.57   29.00
   2  -5   3 1356.06   29.30
  -3   5  -3 1049.00   29.20
  -3   5  -3 1124.79   29.00
  -3   5  -3 1067.59   26.60
  -3   5  -3 1112.09   26.40
   3  -5   3 1059.29   27.10
   3  -5   3 1063.89   29.30
   3  -5   3 1072.09   28.40
   3  -5   3 1063.09   27.00
  -4   5  -3 1284.77   33.40
  -4   5  -3 1383.16   37.40
  -4   5  -3 1349.16   35.30
   4  -5   3 1295.27   34.00
   4  -5   3 1259.87   33.60
   4  -5   3 1382.46   35.80
   4  -5   3 1278.77   34.30
  -5   5  -3    4.20    4.70
  -5   5  -3    2.00    4.50
  -5   5  -3    6.80    5.10
   5  -5   3   12.40    5.80
   5  -5   3    1.20    4.10
   5  -5   3    5.30    4.60
   5  -5   3    9.00    4.90
  -6   5  -3  105.69   11.30
  -6   5  -3  119.29   12.50
   6  -5   3  114.99   12.60
   6  -5   3   83.29   15.20
  -7   5  -3   21.30    8.10
  -7   5  -3   21.00    8.90
   7  -5   3   28.40   11.00
   7  -5   3    5.10    6.80
   7  -5   3   22.50    8.70
  -8   5  -3   33.30    9.20
  -8   5  -3   50.99   14.70
   8  -5   3   36.90   11.00
   8  -5   3   39.90   15.00
  -9   5  -3  215.48   19.80
  -9   5  -3  233.48   27.80
   9  -5   3  244.88   25.30
   9  -5   3  200.28   21.50
   8   4  -3  156.18   18.40
  -8  -4   3  157.08   24.70
  -8  -4   3  143.49   13.90
   7   4  -3  152.58   18.40
   7   4  -3  156.68   16.80
   7   4  -3  137.69   16.50
  -7  -4   3  142.79   18.80
  -7  -4   3  165.28   17.10
  -7  -4   3  161.68   12.60
   6   4  -3  219.58   14.40
   6   4  -3  215.98   14.30
   6   4  -3  191.58   15.30
  -6  -4   3  220.38   12.90
  -6  -4   3  250.17   16.80
  -6  -4   3  228.98   16.80
   5   4  -3  286.37   14.80
   5   4  -3  277.17   13.90
   5   4  -3  264.87   13.90
  -5  -4   3  278.37   14.10
  -5  -4   3  282.97   13.40
  -5  -4   3  248.48   14.90
  -5  -4   3  279.87   15.70
   4   4  -3  229.88   11.90
   4   4  -3  240.18   11.80
   4   4  -3  213.98   11.00
  -4  -4   3  228.88   12.30
  -4  -4   3  207.68   11.80
  -4  -4   3  205.18   11.00
   3   4  -3  601.14   18.70
   3   4  -3  610.64   17.50
   3   4  -3  649.04   17.80
  -3  -4   3  612.14   17.40
  -3  -4   3  631.34   18.70
  -3  -4   3  589.24   18.70
  -3  -4   3  612.34   18.60
   2   4  -3  408.46   12.20
   2   4  -3  419.06   11.80
   2   4  -3  425.16   11.60
   2   4  -3  410.36   14.20
  -2  -4   3  419.26   12.40
  -2  -4   3  398.06   12.50
  -2  -4   3  426.36   12.80
  -2  -4   3  419.16   14.50
   1   4  -3  590.04   12.40
   1   4  -3  597.84   14.60
  -1  -4   3  589.64   14.20
  -1  -4   3  595.74   14.90
  -1  -4   3  591.54   14.00
   0  -4   3 2264.17   50.59
   0  -4   3 2285.37   44.30
   0  -4   3 2208.08   47.20
   0  -4   3 2310.97   44.30
   0  -4   3 2238.68   42.50
   0  -4   3 2340.27   42.60
  -1   4  -3 1661.63   32.00
  -1   4  -3 1655.93   32.60
  -1   4  -3 1659.53   37.10
   1  -4   3 1688.83   33.30
   1  -4   3 1686.33   33.40
   1  -4   3 1632.94   36.90
   1  -4   3 1660.23   34.80
  -2   4  -3   73.89    5.30
  -2   4  -3   78.39    5.80
  -2   4  -3   76.99    6.60
  -2   4  -3   68.59    7.90
   2  -4   3   69.69    6.80
   2  -4   3   87.89    6.60
   2  -4   3   65.29    6.30
   2  -4   3   71.29    5.70
  -3   4  -3   76.29    7.50
  -3   4  -3   79.39    6.80
  -3   4  -3   81.19    7.00
  -3   4  -3   85.29    7.60
   3  -4   3   87.99    7.60
   3  -4   3   70.49    6.80
   3  -4   3   71.39    6.90
   3  -4   3   90.19    8.00
  -4   4  -3   20.70    5.30
  -4   4  -3   16.20    4.80
  -4   4  -3   21.40    4.80
   4  -4   3   17.70    4.80
   4  -4   3   27.20    5.70
   4  -4   3   19.80    4.90
   4  -4   3   26.70    5.60
  -5   4  -3   59.19    8.30
  -5   4  -3   88.49    9.90
  -5   4  -3   87.39    9.00
   5  -4   3   76.49    9.60
   5  -4   3   74.69    9.60
   5  -4   3   92.09   10.70
  -6   4  -3  814.62   27.30
  -6   4  -3  859.21   30.40
   6  -4   3  875.01   30.40
   6  -4   3  838.62   29.00
   6  -4   3  823.12   30.00
   6  -4   3  782.72   30.30
  -7   4  -3  464.75   21.30
   7  -4   3  468.55   24.60
   7  -4   3  489.55   24.00
  -8   4  -3  116.59   13.70
  -8   4  -3  143.19   18.90
   8  -4   3  129.69   16.30
   8  -4   3  113.69   16.10
  -9   4  -3  114.09   14.90
  -9   4  -3  109.89   19.10
   9  -4   3  132.39   20.40
   9  -4   3  140.29   18.70
   8   3  -3  114.19   14.50
  -8  -3   3  114.89   13.00
  -8  -3   3  135.29   17.60
   7   3  -3  291.67   20.20
   7   3  -3  277.37   18.70
   7   3  -3  287.87   17.50
  -7  -3   3  293.27   22.00
  -7  -3   3  259.47   15.20
  -7  -3   3  285.97   19.60
   6   3  -3  637.04   24.70
   6   3  -3  600.94   22.80
   6   3  -3  657.63   23.30
  -6  -3   3  610.74   25.90
  -6  -3   3  706.33   27.20
  -6  -3   3  597.04   22.90
  -6  -3   3  658.53   22.10
   5   3  -3  136.89   10.10
   5   3  -3  157.08   11.10
   5   3  -3  157.28   11.40
  -5  -3   3  130.89   10.00
  -5  -3   3  120.89   11.00
  -5  -3   3  147.89   10.30
  -5  -3   3  158.08   12.00
   4   3  -3    6.40    4.20
   4   3  -3   13.60    4.20
   4   3  -3   16.40    4.70
   4   3  -3   11.70    4.40
  -4  -3   3   10.90    4.40
  -4  -3   3   16.80    4.20
  -4  -3   3   14.00    4.40
  -4  -3   3    8.20    3.70
   3   3  -3 1393.46   32.90
   3   3  -3 1418.36   30.60
   3   3  -3 1383.86   32.00
   3   3  -3 1406.46   32.20
  -3  -3   3 1442.96   33.20
  -3  -3   3 1379.36   32.80
  -3  -3   3 1421.46   33.10
  -3  -3   3 1456.55   30.70
   2   3  -3  603.14   15.70
   2   3  -3  624.64   14.70
  -2  -3   3  606.54   16.30
  -2  -3   3  645.84   14.80
  -2  -3   3  622.24   18.20
   1   3  -3  425.66   10.20
   1   3  -3  434.96   10.70
  -1  -3   3  443.96   11.50
  -1  -3   3  430.96   10.40
  -1  -3   3  433.06   13.80
   0   3  -3 1911.01   36.90
   0   3  -3 1955.50   36.40
   0  -3   3 1920.91   37.30
   0  -3   3 1960.20   40.60
   0  -3   3 1935.91   37.40
   0  -3   3 1925.11   36.90
  -1   3  -3   18.50    3.30
  -1   3  -3   23.80    3.60
   1  -3   3   19.20    3.20
   1  -3   3   20.20    3.40
   1  -3   3   16.10    2.90
  -2   3  -3   10.60    3.10
  -2   3  -3    9.70    3.10
  -2   3  -3   14.70    3.20
  -2   3  -3    7.10    3.20
   2  -3   3    6.80    2.90
   2  -3   3    6.00    3.20
   2  -3   3    4.50    2.80
   2  -3   3    7.30    3.10
  -3   3  -3 3149.39   62.89
  -3   3  -3 2968.50   64.99
  -3   3  -3 3064.99   62.69
  -3   3  -3 3129.99   62.99
   3  -3   3 2971.90   62.59
   3  -3   3 3076.09   62.29
   3  -3   3 3087.79   62.69
   3  -3   3 2981.70   62.69
  -4   3  -3 1090.79   28.60
  -4   3  -3 1096.99   30.40
  -4   3  -3 1125.09   30.60
   4  -3   3 1063.79   30.30
   4  -3   3 1094.49   29.00
   4  -3   3 1065.69   29.70
  -5   3  -3  172.78   13.00
  -5   3  -3  180.28   11.20
  -5   3  -3  188.28   13.40
   5  -3   3  186.18   12.90
   5  -3   3  201.58   12.30
   5  -3   3  182.98   13.00
   5  -3   3  194.08   13.70
  -6   3  -3    2.70    5.90
  -6   3  -3    6.50    4.60
  -6   3  -3   -3.70    6.20
   6  -3   3    5.50    7.10
   6  -3   3    2.00    6.00
   6  -3   3    0.90    5.40
   6  -3   3   -5.20    5.20
  -7   3  -3  238.98   14.90
  -7   3  -3  223.78   18.90
   7  -3   3  268.87   19.80
   7  -3   3  201.58   20.40
   7  -3   3  218.18   17.60
  -8   3  -3   13.60    7.10
  -8   3  -3    9.70   10.20
   8  -3   3    6.90   10.30
   8  -3   3   -6.40    7.70
   8   2  -3   57.79   10.70
   8   2  -3   79.49   15.10
  -8  -2   3   61.69   13.20
  -8  -2   3   91.79   12.10
   7   2  -3   27.70    9.60
   7   2  -3   38.30    8.00
   7   2  -3   23.90    8.10
  -7  -2   3   47.50   10.60
  -7  -2   3   49.50    8.40
   6   2  -3  172.78   13.40
   6   2  -3  170.08   13.40
   6   2  -3  196.98   12.50
  -6  -2   3  190.08   12.10
  -6  -2   3  175.88   14.60
  -6  -2   3  169.88   13.90
  -6  -2   3  166.28   12.40
   5   2  -3  139.29   10.70
   5   2  -3  146.69    9.70
   5   2  -3  147.59   10.90
   5   2  -3  140.59   11.40
  -5  -2   3  142.39    9.70
  -5  -2   3  128.59   11.00
  -5  -2   3  143.59   10.10
  -5  -2   3  132.89   11.00
   4   2  -3  964.30   26.50
   4   2  -3  929.51   27.00
   4   2  -3  959.80   26.20
   4   2  -3  933.41   23.70
  -4  -2   3  975.00   26.40
  -4  -2   3  995.20   27.20
  -4  -2   3  936.31   26.70
  -4  -2   3  970.10   23.80
   3   2  -3 2682.53   54.59
   3   2  -3 2660.13   54.49
   3   2  -3 2634.14   51.39
   3   2  -3 2646.84   54.99
  -3  -2   3 2697.03   51.39
  -3  -2   3 2585.44   57.99
  -3  -2   3 2745.83   55.09
  -3  -2   3 2694.33   55.19
   2   2  -3  166.68    7.40
   2   2  -3  168.78    5.50
   2   2  -3  173.68    7.60
  -2  -2   3  171.58    5.40
  -2  -2   3  169.28    8.60
  -2  -2   3  149.69    7.60
  -2  -2   3  167.68    7.80
   1   2  -3  678.73   15.80
   1   2  -3  720.83   18.10
  -1  -2   3  661.03   16.10
  -1  -2   3  675.93   17.80
  -1  -2   3  674.43   16.10
   0   2  -3 2931.41   55.19
   0   2  -3 2946.11   55.49
   0   2  -3 2950.80   53.69
   0  -2   3 2991.80   55.69
   0  -2   3 2911.21   57.79
   0  -2   3 2954.30   53.69
   0  -2   3 3005.80   57.29
  -1   2  -3  679.33   17.80
  -1   2  -3  680.43   16.70
  -1   2  -3  666.23   16.90
   1  -2   3  672.33   16.60
   1  -2   3  728.03   18.00
   1  -2   3  686.93   17.40
   1  -2   3  693.43   17.70
   1  -2   3  732.83   17.80
  -2   2  -3  794.82   19.90
  -2   2  -3  787.02   20.70
  -2   2  -3  798.82   20.70
  -2   2  -3  774.92   20.70
   2  -2   3  772.42   20.20
   2  -2   3  781.22   20.90
  -3   2  -3  117.09    8.30
  -3   2  -3  100.49    8.10
  -3   2  -3  112.29    8.30
  -3   2  -3  104.99    7.20
   3  -2   3  114.79    9.80
   3  -2   3  116.09    8.30
   3  -2   3  111.29    7.60
   3  -2   3  103.19    8.20
  -4   2  -3   42.60    6.80
  -4   2  -3   31.60    6.20
   4  -2   3   51.29    8.70
   4  -2   3   32.60    5.60
   4  -2   3   28.40    5.90
   4  -2   3   38.20    5.70
  -5   2  -3   10.20    5.30
  -5   2  -3   10.60    4.30
  -5   2  -3   19.20    6.40
   5  -2   3    8.80    5.40
   5  -2   3   17.20    6.20
   5  -2   3   21.10    5.30
  -6   2  -3  784.12   45.80
  -6   2  -3  731.43   29.00
  -6   2  -3  756.72   24.00
   6  -2   3  722.53   24.80
   6  -2   3  752.42   28.90
  -7   2  -3  739.23   25.30
  -7   2  -3  731.13   31.80
   7  -2   3  756.52   27.80
   7  -2   3  794.32   32.70
   7  -2   3  784.92   30.80
  -8   2  -3  100.19   16.00
  -8   2  -3  115.29   12.70
   8  -2   3   80.39   14.10
   8  -2   3   73.39   14.40
   9   1  -3    6.90    9.50
  -9  -1   3   11.90    8.60
   8   1  -3   28.60   12.00
   8   1  -3   48.80    9.80
  -8  -1   3   38.10    9.70
  -8  -1   3   39.20    8.60
  -8  -1   3   32.10   12.00
   7   1  -3  394.56   21.50
   7   1  -3  357.46   17.90
  -7  -1   3  363.86   20.90
  -7  -1   3  383.36   18.40
  -7  -1   3  382.96   22.40
   6   1  -3 1560.04   39.40
   6   1  -3 1614.04   43.40
  -6  -1   3 1576.54   44.00
  -6  -1   3 1588.14   43.80
  -6  -1   3 1604.64   44.00
  -6  -1   3 1576.54   40.60
   5   1  -3  212.68   12.80
   5   1  -3  225.28   11.10
   5   1  -3  239.38   16.30
   5   1  -3  215.78   12.90
  -5  -1   3  227.48   11.30
  -5  -1   3  212.18   13.10
  -5  -1   3  239.48   13.80
  -5  -1   3  220.18   12.20
   4   1  -3   23.10    4.70
   4   1  -3   30.20    5.50
   4   1  -3   22.90    4.70
   4   1  -3   12.50    4.50
  -4  -1   3   29.20    4.20
  -4  -1   3   18.60    4.20
  -4  -1   3   23.50    5.20
  -4  -1   3   21.30    5.30
   3   1  -3  523.45   13.70
   3   1  -3  558.14   16.80
   3   1  -3  557.64   17.10
   3   1  -3  566.44   16.90
  -3  -1   3  527.45   16.80
  -3  -1   3  543.15   16.90
  -3  -1   3  542.35   13.80
  -3  -1   3  558.14   17.00
   2   1  -3  196.68    5.60
   2   1  -3  205.58    8.40
   2   1  -3  183.38    8.10
  -2  -1   3  207.28    8.70
  -2  -1   3  202.38    5.60
  -2  -1   3  197.28    9.00
  -2  -1   3  183.88    8.30
   1   1  -3 3065.09   56.99
  -1  -1   3 3000.20   57.89
  -1  -1   3 2975.50   56.89
  -1  -1   3 2947.80   56.89
   0   1  -3 1221.98   25.90
   0   1  -3 1164.98   26.00
   0   1  -3 1213.28   25.90
   0   1  -3 1191.78   23.70
   0  -1   3 1177.88   26.10
   0  -1   3 1216.38   26.00
   0  -1   3 1216.18   25.80
   0  -1   3 1192.98   23.70
  -1   1  -3  710.73   18.10
  -1   1  -3  699.13   17.10
  -1   1  -3  689.93   18.20
   1  -1   3  682.13   17.10
   1  -1   3  755.22   18.70
   1  -1   3  663.23   16.60
   1  -1   3  683.23   16.70
  -2   1  -3    1.20    2.90
  -2   1  -3    1.80    2.30
  -2   1  -3    2.10    2.90
  -2   1  -3   -2.40    2.10
   2  -1   3   -1.90    2.80
   2  -1   3    1.20    2.10
   2  -1   3    3.50    3.30
   2  -1   3    2.80    3.20
  -3   1  -3 2183.58   45.30
  -3   1  -3 2221.48   49.70
  -3   1  -3 2176.68   49.50
   3  -1   3 2237.28   49.10
   3  -1   3 2362.96   50.29
   3  -1   3 2324.27   50.29
  -4   1  -3 1341.87   36.20
  -4   1  -3 1362.96   36.40
  -4   1  -3 1355.06   31.10
   4  -1   3 1328.57   35.20
   4  -1   3 1378.96   31.70
   4  -1   3 1342.17   36.20
  -5   1  -3  325.07   13.30
  -5   1  -3  308.87   17.40
  -5   1  -3  298.87   17.10
   5  -1   3  302.77   16.90
   5  -1   3  325.27   13.90
   5  -1   3  334.17   16.80
   5  -1   3  351.36   18.40
  -6   1  -3   53.59    7.30
  -6   1  -3   35.10    8.60
  -6   1  -3   34.10    9.40
   6  -1   3   37.90    8.30
   6  -1   3   65.69   12.70
   6  -1   3   42.90    7.40
   6  -1   3   50.79   11.90
  -7   1  -3   60.09   13.80
  -7   1  -3   74.29    9.20
  -7   1  -3   92.19   13.80
   7  -1   3   79.29   12.70
   7  -1   3  100.29   13.50
   7  -1   3   62.99   12.00
  -8   1  -3   17.70   10.80
  -8   1  -3   15.30    7.30
   8  -1   3   24.00   12.40
   8  -1   3    9.90    9.20
   9   0  -3  230.88   28.70
   9   0  -3  197.38   18.20
  -9   0   3  204.88   17.80
  -9   0   3  217.88   23.00
   8   0  -3  877.21   30.60
   8   0  -3  802.52   34.10
  -8   0   3  824.12   29.90
  -8   0   3  834.92   36.30
  -8   0   3  816.92   34.90
   7   0  -3   33.50    7.40
   7   0  -3   34.30    9.30
  -7   0   3   24.40    8.20
  -7   0   3   30.80    9.00
  -7   0   3   34.90    7.80
   6   0  -3   65.29    9.40
   6   0  -3   79.19    8.80
   6   0  -3   87.19   11.30
   6   0  -3   80.29   10.20
  -6   0   3   82.29   10.60
  -6   0   3   67.19    9.00
  -6   0   3   80.69    9.10
   5   0  -3   -0.90    4.10
   5   0  -3    4.10    3.60
   5   0  -3   -0.20    4.20
   5   0  -3    4.80    3.30
  -5   0   3    5.40    4.70
  -5   0   3    4.00    3.50
  -5   0   3   -0.60    3.10
  -5   0   3    3.60    3.90
   4   0  -3 1244.68   31.70
   4   0  -3 1221.08   31.50
   4   0  -3 1255.97   30.80
   4   0  -3 1242.18   31.70
  -4   0   3 1252.57   31.90
  -4   0   3 1249.28   31.80
  -4   0   3 1207.98   34.30
  -4   0   3 1252.27   28.60
   3   0  -3  775.82   21.30
   3   0  -3  730.53   20.70
   3   0  -3  766.32   17.90
   3   0  -3  739.43   20.80
  -3   0   3  781.72   18.00
  -3   0   3  786.52   21.30
  -3   0   3  763.92   20.90
  -3   0   3  763.12   21.00
   2   0  -3 4102.89   73.69
   2   0  -3 3951.00   77.09
   2   0  -3 4033.70   77.19
  -2   0   3 4204.78   77.69
  -2   0   3 4172.58   73.69
  -2   0   3 4052.69   77.49
   1   0  -3   39.60    3.10
   1   0  -3   42.60    5.10
   1   0  -3   37.70    4.60
  -1   0   3   37.60    4.40
  -1   0   3   34.00    3.00
   0   0  -3  747.23   17.00
   0   0  -3  749.33   16.80
   0   0  -3  708.33   18.10
   0   0   3  722.03   16.90
   0   0   3  732.03   18.50
   0   0   3  728.13   16.70
   0   0   3  726.93   18.10
  -1   0  -3 2388.56   48.90
  -1   0  -3 2337.97   48.50
   1   0   3 2396.46   48.60
   1   0   3 2371.86   47.70
   1   0   3 2498.65   49.10
   1   0   3 2406.86   45.40
  -2   0  -3  133.19    8.40
  -2   0  -3  127.59    8.30
   2   0   3  128.39    8.30
   2   0   3  118.39    8.00
   2   0   3  108.59    8.10
   2   0   3  130.99    5.70
  -3   0  -3  731.93   22.40
  -3   0  -3  709.33   21.50
  -3   0  -3  681.43   16.70
  -3   0  -3  688.93   21.80
   3   0   3  659.73   21.50
   3   0   3  681.83   21.70
   3   0   3  673.33   21.30
   3   0   3  709.93   17.00
  -4   0  -3  536.05   15.30
  -4   0  -3  586.34   21.30
  -4   0  -3  544.45   20.80
   4   0   3  573.74   21.40
   4   0   3  572.94   21.60
   4   0   3  536.35   20.40
  -5   0  -3    4.50    5.60
  -5   0  -3    2.60    5.00
  -5   0  -3    9.60    3.70
   5   0   3    1.20    4.50
   5   0   3    1.00    3.80
   5   0   3    3.20    5.40
   5   0   3    4.50    6.50
  -6   0  -3  643.14   28.30
  -6   0  -3  610.24   26.80
   6   0   3  619.24   20.00
   6   0   3  584.64   26.50
   6   0   3  623.54   26.20
  -7   0  -3  971.70   41.50
  -7   0  -3  974.70   38.40
  -7   0  -3 1067.29   27.50
   7   0   3 1006.90   37.00
   7   0   3  994.50   29.00
  -8   0  -3   75.39   14.80
   8   0   3   90.19   16.20
   9  -1  -3   20.50   12.90
   9  -1  -3   38.90   10.10
  -9   1   3   38.50   10.40
  -9   1   3   27.60   12.20
   8  -1  -3   10.70    8.80
   8  -1  -3    8.90    7.40
  -8   1   3   30.60   11.90
  -8   1   3   21.50    8.70
  -8   1   3   34.50   10.30
   7  -1  -3  303.07   16.50
   7  -1  -3  318.37   22.30
  -7   1   3  298.57   19.80
  -7   1   3  282.57   16.60
  -7   1   3  298.87   18.80
   6  -1  -3 1252.97   36.80
   6  -1  -3 1282.77   33.40
   6  -1  -3 1225.68   36.50
  -6   1   3 1231.78   35.30
  -6   1   3 1266.77   37.30
  -6   1   3 1303.17   37.40
  -6   1   3 1232.18   33.50
   5  -1  -3 1835.92   45.40
   5  -1  -3 1848.32   41.90
   5  -1  -3 1873.91   45.60
   5  -1  -3 1850.91   45.30
  -5   1   3 1853.71   45.60
  -5   1   3 1885.41   42.10
  -5   1   3 1923.31   45.00
  -5   1   3 1869.41   45.70
   4  -1  -3   24.30    4.70
   4  -1  -3   32.60    5.40
   4  -1  -3   39.70    5.10
   4  -1  -3   42.30    6.30
  -4   1   3   32.80    5.80
  -4   1   3   34.80    5.30
  -4   1   3   35.30    6.10
  -4   1   3   34.50    4.60
   3  -1  -3  835.02   19.50
   3  -1  -3  789.22   21.70
   3  -1  -3  809.72   22.30
   3  -1  -3  837.82   22.10
  -3   1   3  837.12   19.60
  -3   1   3  804.82   21.90
  -3   1   3  782.52   21.70
  -3   1   3  782.52   22.00
   2  -1  -3  124.39    8.70
   2  -1  -3  127.09    5.90
   2  -1  -3  122.69    5.80
   2  -1  -3  122.29    7.20
  -2   1   3  124.99    7.50
  -2   1   3  125.29    7.30
   1  -1  -3 1925.21   38.70
   1  -1  -3 1926.61   39.30
   1  -1  -3 1901.31   39.40
   1  -1  -3 1928.71   37.70
  -1   1   3 1878.31   39.40
  -1   1   3 1936.51   38.90
  -1   1   3 1899.11   39.20
  -1   1   3 1963.70   37.80
   0  -1  -3 2395.56   48.70
   0  -1  -3 2457.25   45.90
   0  -1  -3 2410.36   48.30
   0  -1  -3 2410.06   47.50
   0   1   3 2430.06   47.60
   0   1   3 2361.06   48.10
   0   1   3 2412.86   45.70
  -1  -1  -3  897.51   23.60
  -1  -1  -3  958.80   23.80
   1   1   3  943.31   23.50
   1   1   3  909.81   18.80
   1   1   3  934.41   23.40
  -2  -1  -3   14.90    4.10
  -2  -1  -3    7.10    3.40
   2   1   3    9.60    1.70
   2   1   3    1.40    2.70
   2   1   3    1.80    3.40
   2   1   3    7.60    1.70
   2   1   3    3.90    3.60
  -3  -1  -3  644.14   21.60
  -3  -1  -3  639.74   21.60
  -3  -1  -3  625.84   21.60
   3   1   3  690.83   22.00
   3   1   3  657.13   14.50
   3   1   3  633.94   14.50
   3   1   3  634.04   21.40
   3   1   3  686.83   22.00
  -4  -1  -3 1473.85   39.30
  -4  -1  -3 1365.56   38.00
  -4  -1  -3 1387.86   38.50
   4   1   3 1431.56   38.30
   4   1   3 1411.36   29.20
  -5  -1  -3  328.47   18.60
  -5  -1  -3  323.47   19.20
   5   1   3  341.57   11.20
   5   1   3  305.27   17.70
  -6  -1  -3   35.00   10.40
  -6  -1  -3   50.39   10.10
   6   1   3   50.09    9.30
  -7  -1  -3    9.20    8.60
  -7  -1  -3   29.60   20.80
   7   1   3   10.00    8.40
   9  -2  -3  497.85   29.90
   9  -2  -3  484.45   25.20
  -9   2   3  472.25   29.00
  -9   2   3  487.95   25.70
   8  -2  -3  264.37   17.60
   8  -2  -3  247.88   19.40
  -8   2   3  297.87   18.80
  -8   2   3  245.18   19.30
   7  -2  -3  179.98   13.00
   7  -2  -3  168.08   16.30
   7  -2  -3  183.18   14.90
  -7   2   3  147.69   14.40
  -7   2   3  108.49   19.90
  -7   2   3  122.19   12.30
   6  -2  -3  133.49   10.30
   6  -2  -3  102.69   12.10
   6  -2  -3  118.39   12.30
   6  -2  -3  130.89   13.80
  -6   2   3  102.09   12.90
  -6   2   3   96.09   10.40
  -6   2   3  109.59   11.90
   5  -2  -3  161.28    9.80
   5  -2  -3  171.28   11.50
   5  -2  -3  175.38   11.70
   5  -2  -3  139.09   11.50
  -5   2   3  184.58   11.80
  -5   2   3  149.09   11.10
  -5   2   3  127.49   10.80
  -5   2   3  165.58   10.00
   4  -2  -3  562.84   17.20
   4  -2  -3  558.64   21.70
   4  -2  -3  593.24   19.90
   4  -2  -3  559.64   18.90
  -4   2   3  558.64   19.10
  -4   2   3  551.24   16.90
  -4   2   3  547.35   18.70
  -4   2   3  546.05   18.70
   3  -2  -3 1774.82   38.50
   3  -2  -3 1669.33   38.10
   3  -2  -3 1746.03   36.90
  -3   2   3 1676.83   42.10
  -3   2   3 1688.83   38.10
   2  -2  -3 2096.99   43.50
   2  -2  -3 2114.59   43.60
   2  -2  -3 1976.80   41.80
   2  -2  -3 2070.89   46.90
  -2   2   3 2120.59   43.50
  -2   2   3 2106.09   44.40
  -2   2   3 2159.18   43.70
   1  -2  -3  179.18    8.70
   1  -2  -3  196.48    8.20
   1  -2  -3  200.38    8.70
  -1   2   3  189.98    8.30
  -1   2   3  219.58    8.50
  -1   2   3  192.58   10.00
  -1   2   3  190.98    8.70
   0  -2  -3  236.08    9.90
   0  -2  -3  225.08    9.90
   0  -2  -3  253.97    7.80
   0   2   3  244.48   10.00
   0   2   3  236.88    7.70
   0   2   3  211.48   12.30
  -1  -2  -3 1794.52   40.00
  -1  -2  -3 1839.62   40.30
   1   2   3 1779.92   33.00
   1   2   3 1821.12   39.70
  -2  -2  -3  506.35   17.40
  -2  -2  -3  499.65   17.40
  -2  -2  -3  503.05   17.80
   2   2   3  537.65   17.60
   2   2   3  483.15   17.00
   2   2   3  473.45   17.30
  -3  -2  -3  300.77   14.80
  -3  -2  -3  343.77   16.00
  -3  -2  -3  350.76   15.50
   3   2   3  361.16   15.90
   3   2   3  315.87   15.00
   3   2   3  321.47   14.80
  -4  -2  -3  313.27   16.80
  -4  -2  -3  294.07   16.30
   4   2   3  257.07   15.40
   4   2   3  294.57   15.90
   4   2   3  297.67   21.60
  -5  -2  -3  260.87   18.40
  -5  -2  -3  252.17   17.10
   5   2   3  246.78   16.90
   5   2   3  261.57   16.90
  -6  -2  -3  410.76   23.50
  -6  -2  -3  345.27   24.50
   6   2   3  326.97   21.60
   6   2   3  392.36   22.20
  -7  -2  -3  444.46   27.30
   7   2   3  460.65   29.30
   7   2   3  479.65   26.80
   9  -3  -3  279.87   23.80
   9  -3  -3  259.57   19.70
  -9   3   3  199.88   18.70
  -9   3   3  263.57   23.00
   8  -3  -3   -0.90    6.20
   8  -3  -3   10.80    7.50
  -8   3   3    0.50    6.60
  -8   3   3    6.50    7.40
   7  -3  -3  106.29   11.40
   7  -3  -3  110.69   13.10
   7  -3  -3  139.49   14.60
  -7   3   3  111.19   12.30
  -7   3   3  100.79   12.60
   6  -3  -3 1601.04   40.80
   6  -3  -3 1570.74   43.50
   6  -3  -3 1693.13   44.40
  -6   3   3 1615.74   43.30
  -6   3   3 1658.73   41.40
  -6   3   3 1630.24   43.70
   5  -3  -3  433.16   17.80
   5  -3  -3  398.76   17.60
   5  -3  -3  398.96   15.90
   5  -3  -3  442.36   20.20
  -5   3   3  416.76   17.80
  -5   3   3  434.56   17.90
  -5   3   3  462.15   16.80
  -5   3   3  397.66   17.30
   4  -3  -3  655.83   21.20
   4  -3  -3  680.83   20.40
  -4   3   3  690.43   22.20
  -4   3   3  665.73   21.10
  -4   3   3  674.03   20.00
  -4   3   3  688.93   21.30
   3  -3  -3  120.69    8.10
   3  -3  -3  141.79    8.30
   3  -3  -3  146.29    8.20
   3  -3  -3  123.99    8.20
   3  -3  -3  135.49    9.30
  -3   3   3  115.39    7.90
  -3   3   3  131.39    8.30
   2  -3  -3   19.40    4.00
   2  -3  -3   24.70    4.20
   2  -3  -3   31.50    4.50
   2  -3  -3   29.40    4.30
  -2   3   3   25.60    4.70
  -2   3   3   29.60    4.40
  -2   3   3   24.50    4.10
  -2   3   3   22.40    4.20
   1  -3  -3  357.36   12.70
   1  -3  -3  370.76   11.80
   1  -3  -3  376.06   13.00
   1  -3  -3  360.26   12.40
  -1   3   3  342.57   12.70
  -1   3   3  357.56   11.70
  -1   3   3  375.96   12.70
  -1   3   3  348.97   12.00
   0  -3  -3 1086.89   27.50
   0  -3  -3 1061.29   26.40
   0  -3  -3 1123.59   23.30
   0   3   3 1093.29   26.00
   0   3   3 1073.49   23.10
   0   3   3 1086.29   26.20
   0   3   3 1090.79   30.20
  -1  -3  -3 2176.48   47.30
  -1  -3  -3 2199.68   48.30
   1   3   3 2165.78   48.20
   1   3   3 2173.78   46.50
   1   3   3 2180.48   46.70
  -2  -3  -3  901.71   26.10
  -2  -3  -3  959.20   26.60
  -2  -3  -3  952.80   27.60
   2   3   3  913.31   27.10
   2   3   3  913.71   25.60
   2   3   3  879.81   25.40
  -3  -3  -3 1358.96   36.90
  -3  -3  -3 1364.36   36.70
  -3  -3  -3 1390.76   37.90
   3   3   3 1396.96   37.50
   3   3   3 1348.86   36.10
   3   3   3 1354.06   36.00
  -4  -3  -3  153.68   13.00
  -4  -3  -3  186.38   14.20
   4   3   3  162.88   13.10
   4   3   3  169.48   13.60
  -5  -3  -3  467.65   23.50
  -5  -3  -3  491.75   24.80
   5   3   3  472.55   23.40
  -6  -3  -3   79.49   12.70
  -6  -3  -3  120.29   17.60
   6   3   3   95.59   15.20
   6   3   3   80.59   12.90
  -7  -3  -3  101.29   16.40
   7   3   3   76.99   14.90
   9  -4  -3  304.77   20.90
   9  -4  -3  309.67   24.20
  -9   4   3  327.57   22.40
  -9   4   3  277.07   23.70
   8  -4  -3  461.65   22.70
   8  -4  -3  460.25   26.60
   8  -4  -3  433.76   24.60
  -8   4   3  465.15   24.00
  -8   4   3  512.35   25.90
   7  -4  -3  131.29   13.60
   7  -4  -3  107.19   14.30
   7  -4  -3  104.99   11.50
  -7   4   3   82.09   18.60
  -7   4   3  123.39   13.50
   6  -4  -3  122.69   10.90
   6  -4  -3  145.59   12.90
   6  -4  -3  152.38   12.70
  -6   4   3  135.69   12.30
  -6   4   3  148.89   12.60
  -6   4   3  149.59   12.10
  -6   4   3  121.59   12.80
   5  -4  -3  381.46   16.80
   5  -4  -3  357.46   15.50
   5  -4  -3  337.37   16.00
  -5   4   3  343.77   15.90
  -5   4   3  340.07   15.40
  -5   4   3  355.36   16.30
  -5   4   3  366.16   17.10
   4  -4  -3  648.04   20.90
   4  -4  -3  641.14   20.80
   4  -4  -3  622.34   21.60
   4  -4  -3  651.53   20.40
   4  -4  -3  651.93   20.60
  -4   4   3  649.24   20.80
  -4   4   3  627.64   21.80
  -4   4   3  662.33   20.80
   3  -4  -3 1652.83   38.70
   3  -4  -3 1764.22   39.10
   3  -4  -3 1657.93   39.00
   3  -4  -3 1742.73   40.10
   3  -4  -3 1674.53   38.60
  -3   4   3 1731.73   38.70
  -3   4   3 1688.73   40.20
  -3   4   3 1709.33   38.30
   2  -4  -3 2457.35   52.59
   2  -4  -3 2316.87   49.20
   2  -4  -3 2326.97   49.60
   2  -4  -3 2329.17   51.69
  -2   4   3 2355.66   48.70
  -2   4   3 2325.27   49.40
  -2   4   3 2260.87   47.80
  -2   4   3 2269.37   53.39
   1  -4  -3  307.47   12.00
   1  -4  -3  322.97   12.30
   1  -4  -3  322.17   11.50
   1  -4  -3  323.37   13.20
  -1   4   3  335.17   11.60
  -1   4   3  329.87   12.10
  -1   4   3  325.27   11.50
   0  -4  -3  386.96   14.00
   0  -4  -3  389.06   14.10
   0  -4  -3  385.86   11.20
   0   4   3  385.16   13.10
   0   4   3  364.56   11.00
   0   4   3  389.96   13.20
   0   4   3  367.46   14.80
  -1  -4  -3  203.18   10.80
  -1  -4  -3  201.98   11.90
   1   4   3  204.88   10.20
   1   4   3  202.38   10.30
   1   4   3  205.88   11.70
  -2  -4  -3   86.09   10.00
  -2  -4  -3   90.49    8.60
  -2  -4  -3   96.19    8.80
   2   4   3   90.89    8.70
   2   4   3   97.49    8.80
   2   4   3   84.29    9.30
  -3  -4  -3  664.43   24.30
  -3  -4  -3  707.23   25.00
   3   4   3  749.82   24.50
   3   4   3  711.03   25.90
  -4  -4  -3  633.44   29.60
  -4  -4  -3  597.84   25.10
   4   4   3  626.04   26.00
   4   4   3  604.44   24.30
  -5  -4  -3  140.59   17.40
  -5  -4  -3  124.29   14.50
   5   4   3  126.59   15.00
   5   4   3  118.39   15.60
  -6  -4  -3   88.59   13.30
   6   4   3  103.79   14.50
   9  -5  -3  133.59   16.40
   9  -5  -3  145.49   17.50
  -9   5   3  142.69   17.80
  -9   5   3  124.69   17.90
   8  -5  -3  246.18   21.50
   8  -5  -3  205.28   16.40
   8  -5  -3  216.38   18.90
  -8   5   3  242.48   18.70
  -8   5   3  201.88   17.50
   7  -5  -3   48.00    9.10
   7  -5  -3   62.29    9.70
   7  -5  -3   62.69   11.50
  -7   5   3   38.00    9.00
  -7   5   3   46.50    9.00
   6  -5  -3  597.54   24.00
   6  -5  -3  640.44   23.40
   6  -5  -3  632.04   24.70
  -6   5   3  589.34   23.40
  -6   5   3  615.14   25.00
   5  -5  -3 1501.05   39.10
   5  -5  -3 1459.65   38.40
   5  -5  -3 1435.06   38.70
  -5   5   3 1458.45   40.40
  -5   5   3 1473.75   38.20
  -5   5   3 1514.95   38.60
   4  -5  -3  360.66   15.40
   4  -5  -3  372.36   15.90
   4  -5  -3  384.46   16.20
   4  -5  -3  378.36   15.60
  -4   5   3  382.76   16.90
  -4   5   3  380.96   15.10
  -4   5   3  377.36   16.40
   3  -5  -3    6.70    3.50
   3  -5  -3    3.90    3.60
   3  -5  -3    2.30    2.90
   3  -5  -3    8.30    4.20
   3  -5  -3    1.70    3.50
  -3   5   3    6.00    3.70
  -3   5   3    4.90    3.10
  -3   5   3    7.40    3.90
   2  -5  -3   58.29    7.10
   2  -5  -3   60.29    6.40
   2  -5  -3   60.19    6.10
   2  -5  -3   64.79    7.10
  -2   5   3   65.69    7.20
  -2   5   3   67.69    8.20
  -2   5   3   60.09    5.70
   1  -5  -3  388.06   14.10
   1  -5  -3  380.76   13.90
   1  -5  -3  380.76   13.10
  -1   5   3  388.56   12.80
  -1   5   3  357.16   13.10
   0  -5  -3  691.03   17.00
   0  -5  -3  663.93   20.20
   0  -5  -3  663.13   20.30
   0   5   3  672.03   17.00
   0   5   3  636.74   21.90
   0   5   3  658.93   18.70
  -1  -5  -3 2198.78   52.59
  -1  -5  -3 2131.99   49.60
  -1  -5  -3 2318.37   50.39
   1   5   3 2241.18   48.10
   1   5   3 2205.78   52.29
  -2  -5  -3  147.99   11.10
  -2  -5  -3  139.89   10.90
   2   5   3  147.59   12.30
   2   5   3  129.49   10.10
  -3  -5  -3   33.40    7.30
   3   5   3   39.70    7.60
   3   5   3   24.20    7.50
  -4  -5  -3  517.05   24.30
  -4  -5  -3  547.75   24.10
   4   5   3  512.35   23.00
   4   5   3  509.05   24.40
  -5  -5  -3   88.59   14.30
  -5  -5  -3   98.69   13.70
   5   5   3  107.19   14.60
   5   5   3  104.39   14.00
  -6  -5  -3  -11.50   14.40
   6   5   3   12.60   10.60
   9  -6  -3  114.59   16.20
   9  -6  -3  104.19   14.80
  -9   6   3  134.69   20.20
  -9   6   3  137.89   18.20
   8  -6  -3  484.45   25.70
   8  -6  -3  464.15   27.00
   8  -6  -3  460.75   23.80
  -8   6   3  511.45   26.30
  -8   6   3  505.65   26.00
   7  -6  -3  267.37   18.00
   7  -6  -3  225.78   15.90
  -7   6   3  184.68   16.50
  -7   6   3  228.58   17.00
   6  -6  -3  175.28   13.70
   6  -6  -3  143.49   12.50
   6  -6  -3  143.99   13.30
  -6   6   3  148.69   13.70
  -6   6   3  142.59   12.60
   5  -6  -3   32.40    6.80
   5  -6  -3   34.70    6.60
   5  -6  -3   23.40    6.20
  -5   6   3   35.20    6.80
  -5   6   3   19.50    6.60
   4  -6  -3    5.70    4.40
   4  -6  -3   13.60    5.40
   4  -6  -3   11.20    4.50
   4  -6  -3    9.20    4.40
   4  -6  -3    8.20    5.20
  -4   6   3    7.50    4.00
  -4   6   3    4.60    4.30
  -4   6   3   13.10    5.50
   3  -6  -3  563.74   20.80
   3  -6  -3  581.84   20.70
   3  -6  -3  568.64   18.80
   3  -6  -3  553.44   20.40
   3  -6  -3  544.65   18.60
  -3   6   3  559.54   17.50
  -3   6   3  571.54   20.70
   2  -6  -3 2686.33   57.49
   2  -6  -3 2724.03   57.39
   2  -6  -3 2734.13   58.59
  -2   6   3 2823.82   55.59
  -2   6   3 2790.52   59.19
   1  -6  -3   84.89    7.40
   1  -6  -3   76.49    6.90
   1  -6  -3   94.59    7.70
  -1   6   3   75.89    8.60
  -1   6   3   80.09    6.90
  -1   6   3   72.19    7.10
   0  -6  -3   37.90    7.20
   0  -6  -3   49.70    6.60
   0  -6  -3   55.89    7.10
   0  -6  -3   50.89    5.30
   0   6   3   54.09    6.30
   0   6   3   64.89    5.70
   0   6   3   54.19    7.70
  -1  -6  -3   65.29    8.00
  -1  -6  -3   60.99    8.00
   1   6   3   77.19    9.80
   1   6   3   81.79   11.70
  -2  -6  -3   56.39    8.60
  -2  -6  -3   45.60    7.50
   2   6   3   44.00    7.80
   2   6   3   32.60    7.80
  -3  -6  -3  173.38   13.70
  -3  -6  -3  143.09   13.70
   3   6   3  163.48   15.10
   3   6   3  179.78   13.60
  -4  -6  -3  697.43   28.70
  -4  -6  -3  734.23   30.50
   4   6   3  725.93   30.70
   4   6   3  676.13   27.60
  -5  -6  -3  230.18   19.40
   5   6   3  232.88   21.20
   9  -7  -3  294.67   24.40
   9  -7  -3  298.57   22.30
  -9   7   3  343.77   32.20
  -9   7   3  295.27   26.70
   8  -7  -3  176.28   17.80
   8  -7  -3  176.48   16.90
   8  -7  -3  192.88   21.00
  -8   7   3  210.08   19.50
  -8   7   3  237.08   20.00
   7  -7  -3    3.40    6.00
   7  -7  -3   11.20    7.60
   7  -7  -3    5.60    6.30
  -7   7   3   -0.70   11.70
  -7   7   3    3.90    7.00
   6  -7  -3  154.18   13.20
   6  -7  -3  149.09   13.40
   6  -7  -3  185.48   21.20
  -6   7   3  151.88   13.10
  -6   7   3  161.48   14.80
   5  -7  -3  893.31   30.20
   5  -7  -3  922.31   29.20
   5  -7  -3  934.01   29.20
  -5   7   3  938.11   31.90
  -5   7   3  912.01   27.80
   4  -7  -3  269.67   13.90
   4  -7  -3  291.07   14.10
   4  -7  -3  278.77   15.60
  -4   7   3  254.07   15.50
  -4   7   3  269.97   12.70
   3  -7  -3  182.58   12.80
   3  -7  -3  155.08   10.20
   3  -7  -3  146.69    9.90
   3  -7  -3  172.68   12.40
  -3   7   3  167.48   12.00
   2  -7  -3    7.90    3.80
   2  -7  -3   11.40    3.90
   2  -7  -3   10.80    5.10
  -2   7   3    8.90    3.70
  -2   7   3   17.50    6.00
  -2   7   3   19.50    5.30
   1  -7  -3   18.00    5.00
   1  -7  -3   22.90    5.00
   1  -7  -3   25.10    5.50
  -1   7   3   13.60    5.90
  -1   7   3   20.00    4.20
   0  -7  -3  534.65   19.40
   0  -7  -3  573.44   20.10
   0   7   3  582.04   16.50
   0   7   3  590.34   23.20
  -1  -7  -3  952.70   28.90
   1   7   3  949.31   24.70
   1   7   3  907.61   33.40
  -2  -7  -3  408.06   19.10
  -2  -7  -3  419.66   19.30
   2   7   3  400.66   16.50
   2   7   3  426.06   21.70
  -3  -7  -3   15.60    7.20
  -3  -7  -3    8.20    6.40
   3   7   3   13.80    7.80
   3   7   3   -0.80    7.20
  -4  -7  -3   18.70    8.20
  -4  -7  -3   34.40   10.30
   4   7   3   26.70   10.60
   9  -8  -3   53.29   12.80
  -9   8   3   50.99   12.50
   8  -8  -3  106.39   17.10
   8  -8  -3   92.09   13.80
   8  -8  -3   91.89   13.60
  -8   8   3   98.79   15.20
  -8   8   3  100.09   15.90
   7  -8  -3  155.88   15.30
   7  -8  -3  165.78   16.10
   7  -8  -3  160.28   15.40
  -7   8   3  172.38   17.20
  -7   8   3  193.58   16.80
   6  -8  -3  271.97   17.20
   6  -8  -3  295.67   18.40
   6  -8  -3  256.17   16.40
  -6   8   3  254.77   16.50
  -6   8   3  268.07   18.80
   5  -8  -3  403.16   23.80
   5  -8  -3  367.96   17.90
  -5   8   3  425.36   25.00
   4  -8  -3   19.80    6.30
   4  -8  -3   24.30    5.90
   4  -8  -3   36.30    6.80
  -4   8   3   46.70    9.00
  -4   8   3   39.10    6.30
   3  -8  -3  628.64   21.00
   3  -8  -3  577.44   24.10
   3  -8  -3  607.34   23.10
   3  -8  -3  619.34   21.00
  -3   8   3  615.34   23.40
  -3   8   3  602.34   17.70
   2  -8  -3  652.13   21.40
   2  -8  -3  641.44   22.50
   2  -8  -3  651.73   21.20
  -2   8   3  654.33   22.80
  -2   8   3  625.74   24.90
  -2   8   3  653.93   17.00
   1  -8  -3  838.12   25.40
   1  -8  -3  847.02   24.60
   1  -8  -3  856.61   25.50
  -1   8   3  847.72   25.00
  -1   8   3  820.52   29.30
  -1   8   3  836.42   19.70
   0  -8  -3   20.70    6.80
   0  -8  -3   20.80    4.70
   0  -8  -3   20.60    5.80
   0   8   3   14.70    4.60
   0   8   3   13.70    4.10
   0   8   3    9.10    6.20
  -1  -8  -3    9.50    5.60
  -1  -8  -3    9.60    5.90
   1   8   3   13.40    4.80
   1   8   3    6.30    6.70
  -2  -8  -3   -7.50    4.80
  -2  -8  -3   -4.00    5.80
   2   8   3   14.40    7.20
   2   8   3    0.70    6.70
  -3  -8  -3  319.87   19.70
  -3  -8  -3  355.36   21.40
   3   8   3  333.87   22.50
  -4  -8  -3  144.79   16.60
   4   8   3  125.49   16.70
   9  -9  -3  182.88   20.80
  -9   9   3  130.09   18.10
   8  -9  -3  353.56   23.60
   8  -9  -3  326.97   22.90
  -8   9   3  313.37   24.70
   7  -9  -3   41.00    9.80
   7  -9  -3   38.30   10.50
   7  -9  -3   41.30   10.10
  -7   9   3   28.30    9.50
   6  -9  -3  297.17   17.90
   6  -9  -3  291.47   18.20
   6  -9  -3  337.57   20.70
  -6   9   3  312.97   21.00
  -6   9   3  315.17   17.80
   5  -9  -3  237.28   14.90
   5  -9  -3  263.37   16.10
   5  -9  -3  258.27   18.00
  -5   9   3  284.77   19.00
  -5   9   3  271.67   14.60
   4  -9  -3  151.08   11.90
   4  -9  -3  131.09   11.00
   4  -9  -3  169.88   14.80
  -4   9   3  141.99    9.80
  -4   9   3  134.89   13.70
   3  -9  -3   54.19    7.90
   3  -9  -3   54.49   10.10
   3  -9  -3   56.99    7.60
  -3   9   3   52.69    9.00
   2  -9  -3  435.86   17.30
   2  -9  -3  420.96   17.70
   2  -9  -3  434.16   19.40
  -2   9   3  416.96   18.80
  -2   9   3  458.55   22.30
   1  -9  -3    6.20    4.60
   1  -9  -3    5.50    5.30
   1  -9  -3    4.90    5.20
  -1   9   3   10.40    5.50
  -1   9   3    9.70    6.70
   0  -9  -3  187.68   10.60
   0  -9  -3  150.28   12.00
   0   9   3  176.48   16.10
  -1  -9  -3  463.55   20.30
   1   9   3  471.55   24.70
  -2  -9  -3  338.67   30.50
  -2  -9  -3  365.66   19.30
   2   9   3  336.37   22.60
  -3  -9  -3   -1.80    7.30
   3   9   3    8.90    9.30
   8 -10  -3   21.70    9.90
  -8  10   3   52.39   14.20
   7 -10  -3  104.19   14.60
   7 -10  -3   85.79   13.60
   7 -10  -3   86.49   12.70
  -7  10   3  100.89   15.30
   6 -10  -3  114.99   13.10
   6 -10  -3   82.19   12.60
   6 -10  -3  125.19   15.00
  -6  10   3  108.89   14.30
  -6  10   3  121.29   16.10
   5 -10  -3  396.76   20.10
   5 -10  -3  402.86   23.50
   5 -10  -3  397.86   19.10
  -5  10   3  385.66   18.90
  -5  10   3  406.96   23.40
   4 -10  -3   37.20    7.40
   4 -10  -3   28.70    7.60
   4 -10  -3   38.60    9.30
  -4  10   3   41.50    9.20
   3 -10  -3  117.49   10.40
   3 -10  -3   92.99   12.70
  -3  10   3  114.89   13.00
   2 -10  -3  394.96   17.10
   2 -10  -3  416.96   18.00
  -2  10   3  372.86   19.20
   1 -10  -3  180.38   12.30
   1 -10  -3  155.48   12.70
  -1  10   3  183.38   16.70
  -1  10   3  159.98   12.90
   0 -10  -3   21.60    7.10
   0 -10  -3   31.30    6.70
   0 -10  -3   21.90    6.90
   0  10   3    7.70    8.00
  -1 -10  -3   78.29   10.90
  -1 -10  -3   78.49   10.60
   1  10   3   63.19   12.40
  -2 -10  -3   12.00    8.50
  -2 -10  -3   14.80    7.50
   2  10   3   -5.10    9.30
   7 -11  -3   20.20    8.80
   7 -11  -3   35.80   12.20
  -7  11   3   23.60   12.50
   6 -11  -3   55.99   12.00
   6 -11  -3   43.90    9.00
   6 -11  -3   50.69   11.40
  -6  11   3   40.70   11.20
   5 -11  -3  386.56   25.00
   5 -11  -3  383.26   20.70
   5 -11  -3  445.76   20.70
  -5  11   3  427.16   25.10
   4 -11  -3   16.20    6.50
   4 -11  -3   21.40    9.00
   4 -11  -3    9.60    7.20
  -4  11   3   14.40    8.10
   3 -11  -3  168.88   17.70
   3 -11  -3  199.88   13.70
   3 -11  -3  177.18   12.90
  -3  11   3  154.48   15.60
   2 -11  -3  116.09   10.90
   2 -11  -3  126.09   12.60
  -2  11   3  123.69   14.20
   1 -11  -3  105.19   11.00
  -1  11   3   70.89   13.10
   0 -11  -3   18.40    8.20
   0 -11  -3   23.50    8.30
   0  11   3   23.80   15.20
  -1 -11  -3  478.95   23.30
  -1 -11  -3  452.65   22.10
   1  11   3  454.65   28.70
   6 -12  -3  152.88   15.40
   6 -12  -3  120.79   16.80
   5 -12  -3  178.58   20.70
   5 -12  -3  212.08   17.70
   5 -12  -3  176.68   15.10
  -5  12   3  177.78   19.60
   4 -12  -3   82.49   11.40
   4 -12  -3   88.79   20.50
  -4  12   3   86.89   14.40
   3 -12  -3   -0.30    6.80
  -3  12   3   17.30    9.20
   2 -12  -3  186.18   14.90
   2 -12  -3  206.88   21.50
   2 -12  -3  170.88   13.30
  -2  12   3  233.28   20.50
   1 -12  -3   78.59   11.30
   1 -12  -3   79.49   11.70
   1 -12  -3   56.19    8.90
  -1  12   3   49.10   13.20
   2 -14   4   50.59   11.60
   2 -14   4   25.00   11.60
   3 -14   4   12.90    9.40
   3 -14   4   11.50   10.60
   4 -14   4   83.29   15.20
   4 -14   4   74.69    8.50
   0 -13   4  174.68   17.40
   0 -13   4  159.38   18.10
   1 -13   4   29.30   10.70
   1 -13   4   24.50    9.10
   2 -13   4  432.56   25.70
   2 -13   4  417.66   23.70
   3 -13   4   98.59   14.50
   3 -13   4  121.39   15.60
   4 -13   4    4.00    8.40
   4 -13   4   10.20    5.50
   4 -13   4    7.50    5.00
  -5  13  -4    2.90    9.90
   5 -13   4   -2.70    6.20
   5 -13   4    3.60    5.90
   5 -13   4   13.00    9.60
  -6  13  -4   11.40   11.10
   6 -13   4    5.70    7.20
   6 -13   4    6.40    8.10
   6 -13   4   -1.10    9.20
  -2 -12   4    6.10    9.00
  -1 -12   4  255.27   18.30
  -1 -12   4  245.68   21.40
   0 -12   4    5.80    7.70
   0 -12   4    1.80    6.40
   1 -12   4   54.39   10.10
   1 -12   4   60.39   11.20
   2 -12   4    9.00    6.30
   2 -12   4    0.60    6.70
   3 -12   4  340.77   20.30
   3 -12   4  331.37   11.80
  -4  12  -4  132.09   16.60
   4 -12   4  102.99   13.70
   4 -12   4   91.59    9.00
   4 -12   4  106.79    9.30
  -5  12  -4  374.26   24.50
   5 -12   4  357.06   17.90
   5 -12   4  389.16   23.60
   5 -12   4  377.16   17.70
   6 -12   4  211.78   19.80
  -7  12  -4  109.59   17.10
   7 -12   4  109.99   16.80
   7 -12   4  135.39   16.20
   3  11  -4   36.30   10.20
  -3 -11   4   32.00    8.10
  -3 -11   4   43.70    9.60
  -2 -11   4   52.79    6.30
  -2 -11   4   73.69   11.40
  -1 -11   4  174.48   14.60
  -1 -11   4  186.98   15.50
   0 -11   4  597.24   23.90
   0 -11   4  523.95   24.50
   1 -11   4    4.00    5.50
   2 -11   4  334.77   20.50
   2 -11   4  365.16   24.30
   3 -11   4  313.07   18.40
   3 -11   4  315.27   11.80
   3 -11   4  294.67   11.80
  -4  11  -4    6.60    7.40
   4 -11   4    7.60    4.60
   4 -11   4   10.10    5.00
   4 -11   4   21.10    7.90
  -5  11  -4   22.10    8.90
   5 -11   4   12.10    8.10
   5 -11   4   16.90    6.00
  -6  11  -4  110.69   16.20
   6 -11   4  112.59   14.30
   6 -11   4  101.79   12.70
   6 -11   4   83.49   12.90
  -7  11  -4   57.69   14.30
   7 -11   4   52.79   14.60
   7 -11   4   43.70   13.50
   4  10  -4  346.77   20.80
  -4 -10   4  385.16   19.10
  -4 -10   4  333.07   18.10
  -4 -10   4  343.77   17.80
   3  10  -4  506.65   22.70
  -3 -10   4  513.85   18.40
  -3 -10   4  510.05   18.60
  -3 -10   4  486.35   22.30
  -3 -10   4  490.65   21.60
   2  10  -4    3.90    5.30
  -2 -10   4   -2.50    5.60
  -2 -10   4    2.20    3.40
  -2 -10   4   -0.40    3.60
  -1 -10   4  110.49   11.30
   0 -10   4  183.78   13.10
   0 -10   4  190.58   14.60
   1 -10   4   19.40    7.40
   1 -10   4   15.30    5.90
   2 -10   4  101.69   10.80
   2 -10   4  108.59    5.80
  -3  10  -4  375.56   20.80
   3 -10   4  389.86   19.20
   3 -10   4  385.96   13.60
   3 -10   4  392.96   13.70
  -4  10  -4  135.59   14.30
   4 -10   4  120.09   11.30
   4 -10   4  121.89   12.70
   4 -10   4  112.39    9.40
  -5  10  -4    1.10    5.80
  -5  10  -4   10.60    7.50
   5 -10   4   10.80    5.70
   5 -10   4   17.70    6.50
   5 -10   4   22.20    7.70
  -6  10  -4  806.52   28.10
  -6  10  -4  844.92   34.70
   6 -10   4  808.12   29.40
   6 -10   4  769.62   29.40
   6 -10   4  811.62   32.40
  -7  10  -4  132.89   17.90
   7 -10   4   88.29   13.70
   7 -10   4  123.59   15.00
  -8  10  -4   25.10   11.10
   8 -10   4   15.60    9.20
   8 -10   4   24.00   11.70
   5   9  -4   11.40    8.20
  -5  -9   4    6.90    7.10
  -5  -9   4   -1.60    6.50
  -5  -9   4    6.20    9.00
   4   9  -4    0.80    6.60
  -4  -9   4   -0.80    8.90
  -4  -9   4   10.30    6.70
  -4  -9   4    8.20    5.80
  -4  -9   4    7.70    6.60
   3   9  -4   14.40    6.20
  -3  -9   4    6.50    7.30
  -3  -9   4   11.80    4.80
  -3  -9   4   10.50    5.30
   2   9  -4   40.40    7.40
  -2  -9   4   53.79    8.80
  -2  -9   4   49.30    5.70
  -2  -9   4   41.30    8.60
  -2  -9   4   46.00    5.40
  -2  -9   4   61.39    9.20
  -1  -9   4  136.59   12.00
  -1  -9   4  152.88   12.60
  -1  -9   4  132.29   12.10
   0  -9   4 1900.31   48.10
   0  -9   4 1838.42   45.30
   0  -9   4 1827.22   46.90
   0  -9   4 1824.32   44.60
   1  -9   4   77.79   10.60
   1  -9   4   68.89    8.70
   1  -9   4   73.89    8.70
   2  -9   4   46.80    4.80
   2  -9   4   37.50    7.00
   2  -9   4   51.19    8.00
   2  -9   4   41.80    4.70
  -3   9  -4  893.31   30.90
   3  -9   4  908.11   24.00
   3  -9   4  888.21   28.80
   3  -9   4  881.01   23.50
  -4   9  -4   39.90    5.50
   4  -9   4   43.50    7.00
   4  -9   4   31.10    7.10
  -5   9  -4   36.30    9.30
  -5   9  -4   25.20    6.70
   5  -9   4   26.60    8.10
   5  -9   4   26.60    6.70
   5  -9   4   25.20    6.60
  -6   9  -4   19.40    9.20
  -6   9  -4   24.90    8.80
   6  -9   4   12.90    7.70
   6  -9   4   37.10    8.50
   6  -9   4   27.30    7.60
  -7   9  -4  202.88   19.30
  -7   9  -4  190.78   19.50
   7  -9   4  234.48   20.80
   7  -9   4  285.77   20.50
   7  -9   4  229.78   18.60
  -8   9  -4   -4.00    9.70
   8  -9   4   -8.00    8.80
   8  -9   4   11.30    9.70
   6   8  -4   40.60   11.10
  -6  -8   4   38.70   11.80
  -6  -8   4   44.30   10.20
   5   8  -4    8.50    7.50
  -5  -8   4   11.60    7.90
  -5  -8   4   22.00    7.10
  -5  -8   4   27.40    7.90
   4   8  -4  684.93   24.70
  -4  -8   4  738.63   34.20
  -4  -8   4  716.13   24.50
  -4  -8   4  732.13   24.60
   3   8  -4  680.03   22.60
  -3  -8   4  658.43   21.20
  -3  -8   4  675.13   26.30
  -3  -8   4  658.53   23.40
  -3  -8   4  631.44   23.10
  -3  -8   4  650.03   20.60
   2   8  -4  175.78   11.00
  -2  -8   4  185.18   12.60
  -2  -8   4  169.88   12.20
  -2  -8   4  176.38    8.90
  -2  -8   4  175.28    8.60
  -2  -8   4  170.78   12.00
  -1  -8   4  329.57   18.40
  -1  -8   4  316.17   15.90
  -1  -8   4  288.67    9.20
  -1  -8   4  288.97    9.00
  -1  -8   4  306.97   14.40
   0  -8   4   -0.30    4.50
   0  -8   4   -0.50    4.10
   0  -8   4    2.70    3.50
   0  -8   4    4.70    4.10
   1  -8   4   28.70    7.10
   1  -8   4   33.40    3.40
   1  -8   4   25.50    6.50
   1  -8   4   33.30    6.20
   1  -8   4   35.90    6.00
   1  -8   4   28.80    3.20
  -2   8  -4  152.08   11.80
   2  -8   4  131.49   11.70
   2  -8   4  127.09    6.90
   2  -8   4  137.19   10.20
   2  -8   4  133.09    7.00
  -3   8  -4  516.35   13.60
  -3   8  -4  531.85   21.90
  -3   8  -4  533.75   20.90
  -3   8  -4  522.05   13.10
   3  -8   4  492.65   16.60
   3  -8   4  553.34   20.60
   3  -8   4  519.15   16.80
  -4   8  -4  943.71   31.60
  -4   8  -4  933.71   25.30
   4  -8   4  952.90   29.90
   4  -8   4  908.01   26.80
   4  -8   4  871.91   26.40
  -5   8  -4  221.18   22.30
   5  -8   4  215.68   14.30
  -6   8  -4  173.98   15.00
  -6   8  -4  174.68   15.60
   6  -8   4  177.48   15.50
   6  -8   4  141.99   14.90
   6  -8   4  168.98   14.20
  -7   8  -4  654.43   29.20
  -7   8  -4  621.24   28.90
   7  -8   4  654.23   29.00
   7  -8   4  637.54   30.30
   7  -8   4  657.63   29.60
  -8   8  -4   -0.70    8.70
   8  -8   4    2.70    8.30
  -6  -7   4  140.19   18.00
  -6  -7   4  146.89   12.70
  -6  -7   4  178.28   18.40
   5   7  -4   94.69   12.20
   5   7  -4  116.79   11.80
  -5  -7   4  106.59   13.30
  -5  -7   4  103.39   10.90
  -5  -7   4   98.09   11.50
   4   7  -4    8.00    5.30
   4   7  -4   13.30    4.70
  -4  -7   4   20.20    6.00
  -4  -7   4   20.70    6.10
  -4  -7   4   22.70    5.90
  -4  -7   4   13.80    7.20
   3   7  -4  273.17   13.00
  -3  -7   4  275.27   12.60
  -3  -7   4  293.47   12.90
  -3  -7   4  282.47   13.80
  -3  -7   4  290.87   14.80
  -3  -7   4  293.47   14.90
   2   7  -4   30.90    5.30
  -2  -7   4   26.00    4.20
  -2  -7   4   26.50    6.10
  -2  -7   4   26.70    5.40
  -2  -7   4   21.80    4.00
  -2  -7   4   40.10    6.90
  -1  -7   4  946.71   20.60
  -1  -7   4  894.41   21.70
  -1  -7   4  903.31   27.60
  -1  -7   4  962.20   25.30
  -1  -7   4  960.30   27.50
   0  -7   4  962.20   28.70
   0  -7   4  991.10   25.90
   0  -7   4  976.80   20.00
   0  -7   4  987.20   28.40
   1  -7   4 1046.60   30.30
   1  -7   4 1111.99   23.10
   1  -7   4 1026.30   30.60
   1  -7   4 1095.59   23.10
   1  -7   4 1112.59   28.30
   1  -7   4 1063.19   27.90
  -2   7  -4  284.67   14.90
   2  -7   4  323.37   11.10
   2  -7   4  318.37   15.90
   2  -7   4  308.67   10.90
   2  -7   4  300.77   13.50
  -3   7  -4  429.16   18.60
  -3   7  -4  450.45   20.40
  -3   7  -4  403.06   13.00
   3  -7   4  447.16   15.30
   3  -7   4  418.76   15.10
   3  -7   4  427.96   17.40
  -4   7  -4  107.79    9.00
  -4   7  -4   90.69   10.60
   4  -7   4  113.79   10.60
   4  -7   4   88.69    9.00
   4  -7   4  120.29    9.50
  -5   7  -4    7.50    5.90
  -5   7  -4   -0.60    4.60
   5  -7   4   10.40    6.10
   5  -7   4    7.90    4.80
   5  -7   4    0.60    4.70
  -6   7  -4   92.49   12.60
  -6   7  -4   96.49   12.30
   6  -7   4   78.39   11.00
   6  -7   4  114.49   13.40
  -7   7  -4  509.15   25.50
  -7   7  -4  514.55   25.30
   7  -7   4  495.25   25.60
   7  -7   4  509.25   25.70
   7  -7   4  525.85   29.50
  -8   7  -4    7.50    8.60
  -8   7  -4   -3.30   10.60
   8  -7   4    7.10    8.60
   8  -7   4   15.00    9.40
   7   6  -4  153.98   16.90
  -7  -6   4  137.99   17.50
  -7  -6   4  135.99   13.60
   6   6  -4  267.97   18.30
   6   6  -4  261.57   16.60
   6   6  -4  314.77   19.80
  -6  -6   4  284.97   15.70
  -6  -6   4  263.77   18.30
  -6  -6   4  269.77   19.50
   5   6  -4   10.60    6.30
   5   6  -4   11.50    5.50
   5   6  -4    2.80    6.70
  -5  -6   4   21.60    6.40
  -5  -6   4   15.40    5.90
  -5  -6   4   10.80    6.10
  -5  -6   4   -3.30    5.90
   4   6  -4  637.04   20.90
   4   6  -4  693.23   23.00
   4   6  -4  682.23   20.20
  -4  -6   4  638.94   21.30
  -4  -6   4  689.93   22.80
  -4  -6   4  645.74   22.40
   3   6  -4  892.31   26.60
   3   6  -4  923.31   21.50
  -3  -6   4  876.21   24.30
  -3  -6   4  938.01   27.20
  -3  -6   4  882.61   24.70
  -3  -6   4  953.20   25.10
   2   6  -4  401.16   13.70
  -2  -6   4  425.06   14.50
  -2  -6   4  435.56   13.60
  -2  -6   4  444.26   17.10
  -2  -6   4  437.96   13.60
  -1  -6   4  106.19    8.70
  -1  -6   4  116.49    7.40
  -1  -6   4  118.59    9.20
  -1  -6   4  110.59    5.60
  -1  -6   4  106.49    6.40
   0  -6   4   10.40    2.80
   0  -6   4    4.70    3.80
   0  -6   4    6.90    3.00
   0  -6   4   14.40    4.70
   0  -6   4    8.20    3.20
   0  -6   4   12.20    2.40
   1  -6   4   60.69    6.20
   1  -6   4   60.59    6.30
   1  -6   4   62.59    4.50
   1  -6   4   59.09    7.70
   1  -6   4   60.29    7.60
   1  -6   4   65.99    4.80
  -2   6  -4   98.19    5.30
  -2   6  -4   94.79    8.90
  -2   6  -4   94.29    7.90
   2  -6   4   91.39    6.40
   2  -6   4   93.89    7.70
   2  -6   4   89.49    8.40
   2  -6   4   91.99    6.30
  -3   6  -4 2110.19   45.10
  -3   6  -4 2068.99   49.40
  -3   6  -4 2038.70   47.70
   3  -6   4 2097.39   45.80
   3  -6   4 2062.69   47.50
   3  -6   4 2061.29   45.60
  -4   6  -4 1399.76   37.70
  -4   6  -4 1431.36   38.30
  -4   6  -4 1411.26   35.60
  -4   6  -4 1379.16   34.90
   4  -6   4 1380.26   35.90
   4  -6   4 1401.66   37.10
   4  -6   4 1379.26   36.10
   4  -6   4 1392.46   38.60
  -5   6  -4    8.40    4.90
  -5   6  -4    6.60    5.10
   5  -6   4   21.20    6.60
   5  -6   4   10.10    5.80
   5  -6   4   16.00    5.60
  -6   6  -4  699.93   27.10
  -6   6  -4  689.13   27.00
   6  -6   4  723.43   27.90
   6  -6   4  745.63   29.20
   6  -6   4  656.23   27.00
  -7   6  -4  337.77   20.00
  -7   6  -4  328.37   21.20
   7  -6   4  290.47   20.00
   7  -6   4  325.17   21.10
   7  -6   4  298.37   22.80
  -8   6  -4   14.50   11.50
  -8   6  -4    2.10    7.60
   8  -6   4   14.60    9.30
   8  -6   4  -11.80    8.10
   7   5  -4  156.18   17.40
  -7  -5   4  152.88   13.80
  -7  -5   4  133.19   16.40
   6   5  -4  664.23   24.00
   6   5  -4  613.44   24.70
  -6  -5   4  684.13   27.40
  -6  -5   4  685.13   28.60
  -6  -5   4  646.54   27.10
  -6  -5   4  647.64   23.30
   5   5  -4    2.50    6.00
   5   5  -4    2.60    4.60
  -5  -5   4   13.90    5.90
  -5  -5   4   10.70    5.40
  -5  -5   4    9.60    5.40
  -5  -5   4    9.30    5.40
   4   5  -4   67.99    9.00
   4   5  -4   66.09    7.20
  -4  -5   4   66.29    8.60
  -4  -5   4   71.19    7.80
  -4  -5   4   70.59    8.10
  -4  -5   4   65.79    8.30
   3   5  -4  565.14   16.30
   3   5  -4  554.64   16.10
   3   5  -4  546.15   19.10
  -3  -5   4  530.05   17.60
  -3  -5   4  560.54   19.40
  -3  -5   4  568.24   16.60
  -3  -5   4  548.05   17.60
   2   5  -4   68.59    5.20
   2   5  -4   53.69    7.20
   2   5  -4   51.49    4.30
   2   5  -4   60.39    4.30
  -2  -5   4   61.79    5.40
  -2  -5   4   56.79    5.50
  -2  -5   4   51.59    5.10
  -2  -5   4   56.89    7.10
  -1  -5   4  142.39    6.50
  -1  -5   4  149.59    7.10
  -1  -5   4  151.08    6.60
  -1  -5   4  167.68    7.10
   0  -5   4 5484.65   98.89
   0  -5   4 5438.26  104.79
   0  -5   4 5464.75  100.29
   0  -5   4 5331.47   98.69
   0  -5   4 5498.75  100.29
  -1   5  -4  449.16   11.50
  -1   5  -4  452.35   15.00
  -1   5  -4  449.76   11.10
   1  -5   4  476.45   14.30
   1  -5   4  460.35   16.70
   1  -5   4  452.65   16.50
   1  -5   4  454.85   13.00
   1  -5   4  441.16   12.80
  -2   5  -4   51.19    6.50
  -2   5  -4   69.59    6.10
  -2   5  -4   77.09    7.70
   2  -5   4   73.09    6.10
   2  -5   4   61.89    5.80
   2  -5   4   58.49    7.90
   2  -5   4   53.99    6.10
  -3   5  -4  628.04   19.70
  -3   5  -4  660.63   19.50
  -3   5  -4  619.14   21.40
  -3   5  -4  664.73   21.10
   3  -5   4  644.74   21.80
   3  -5   4  665.83   20.30
   3  -5   4  669.43   20.90
   3  -5   4  693.43   20.50
  -4   5  -4   50.79    6.90
  -4   5  -4   55.29    7.50
  -4   5  -4   41.40    7.10
  -4   5  -4   42.40    7.50
   4  -5   4   41.00    6.90
   4  -5   4   28.90    5.90
   4  -5   4   38.40    6.90
  -5   5  -4   -3.50    4.50
  -5   5  -4   -0.40    4.40
   5  -5   4    5.00    5.30
   5  -5   4    6.20    4.90
   5  -5   4   -0.50    5.10
   5  -5   4    1.60    5.50
  -6   5  -4  384.16   20.70
  -6   5  -4  418.16   19.90
   6  -5   4  398.66   21.80
   6  -5   4  398.86   20.30
   6  -5   4  388.96   20.70
  -7   5  -4  652.73   31.90
   7  -5   4  640.64   30.80
   7  -5   4  622.24   28.80
   7  -5   4  650.33   28.50
  -8   5  -4  117.89   14.70
  -8   5  -4   89.29   19.00
   8  -5   4  113.99   17.00
   8  -5   4   98.49   15.30
   8   4  -4   26.90   10.20
  -8  -4   4   23.10    8.30
  -8  -4   4    9.70   12.40
   7   4  -4  203.98   15.40
   7   4  -4  209.08   19.00
  -7  -4   4  216.58   20.40
  -7  -4   4  224.98   15.30
  -7  -4   4  160.78   16.70
   6   4  -4  717.83   26.10
   6   4  -4  742.73   26.80
   6   4  -4  687.73   24.10
  -6  -4   4  706.03   24.70
  -6  -4   4  742.63   28.30
  -6  -4   4  725.23   24.50
  -6  -4   4  734.83   28.30
   5   4  -4  179.38   10.90
   5   4  -4  196.58   12.60
   5   4  -4  203.78   13.20
  -5  -4   4  178.18   11.10
  -5  -4   4  173.18   13.00
  -5  -4   4  170.78   11.90
  -5  -4   4  180.18   13.10
   4   4  -4  348.67   15.50
   4   4  -4  369.56   13.30
   4   4  -4  360.96   14.50
  -4  -4   4  385.76   15.90
  -4  -4   4  384.36   15.80
  -4  -4   4  345.77   15.40
  -4  -4   4  357.66   13.10
   3   4  -4 2362.56   52.89
   3   4  -4 2477.55   50.19
   3   4  -4 2466.55   48.40
  -3  -4   4 2405.96   53.49
  -3  -4   4 2439.86   51.69
  -3  -4   4 2442.86   51.69
  -3  -4   4 2484.65   48.30
   2   4  -4  746.63   18.60
   2   4  -4  799.42   18.50
   2   4  -4  745.23   17.20
   2   4  -4  785.22   22.30
  -2  -4   4  766.52   19.70
  -2  -4   4  770.12   19.70
  -2  -4   4  752.82   17.30
   1   4  -4  106.09    5.20
   1   4  -4  113.19    8.30
   1   4  -4  112.09    4.90
  -1  -4   4  105.69    5.00
  -1  -4   4  106.29    5.80
  -1  -4   4  110.49    4.90
  -1  -4   4  110.09    5.90
  -1  -4   4  110.59    8.10
   0   4  -4   -1.40    1.70
   0   4  -4    0.70    1.70
   0  -4   4    2.80    3.50
   0  -4   4    3.90    2.00
   0  -4   4   -1.20    2.00
   0  -4   4   -0.60    3.40
   0  -4   4    2.90    2.20
  -1   4  -4   53.79    5.00
   1  -4   4   49.40    5.50
   1  -4   4   59.79    5.10
   1  -4   4   46.80    5.00
  -2   4  -4    3.50    3.00
  -2   4  -4    5.20    3.00
  -2   4  -4    2.70    2.50
   2  -4   4    1.30    3.10
   2  -4   4   -3.50    2.40
   2  -4   4    2.40    2.70
  -3   4  -4 1552.64   36.90
  -3   4  -4 1564.74   37.60
  -3   4  -4 1606.04   38.10
   3  -4   4 1601.04   37.90
   3  -4   4 1512.75   37.20
   3  -4   4 1610.84   37.60
   3  -4   4 1583.74   38.20
  -4   4  -4 2068.99   48.50
  -4   4  -4 2079.89   49.70
  -4   4  -4 2143.29   49.60
  -4   4  -4 2150.18   49.70
   4  -4   4 2139.29   49.80
   4  -4   4 2193.58   50.59
   4  -4   4 2009.20   48.90
   4  -4   4 2138.99   49.30
  -5   4  -4   59.89    8.70
  -5   4  -4   67.59    8.80
  -5   4  -4   83.89   10.70
   5  -4   4   69.19    9.00
   5  -4   4   64.79    9.30
   5  -4   4   62.69    9.90
   5  -4   4   78.89   10.00
  -6   4  -4  400.96   18.70
  -6   4  -4  401.06   21.60
   6  -4   4  414.96   20.90
   6  -4   4  436.86   22.70
   6  -4   4  424.76   21.80
  -7   4  -4  254.77   16.70
   7  -4   4  271.47   19.20
   7  -4   4  239.48   23.80
   7  -4   4  257.87   19.90
  -8   4  -4   29.10    9.00
  -8   4  -4   24.50   12.20
   8  -4   4   23.10   12.20
   8  -4   4   27.50   10.70
   8   3  -4   43.50   10.00
  -8  -3   4   39.70    9.50
  -8  -3   4   55.89   13.80
   7   3  -4  130.19   12.60
   7   3  -4  140.99   16.00
  -7  -3   4  137.59   16.50
  -7  -3   4  125.89   14.60
  -7  -3   4  133.89   12.90
   6   3  -4  350.36   16.20
   6   3  -4  353.26   18.40
   6   3  -4  339.77   18.50
  -6  -3   4  398.96   18.00
  -6  -3   4  381.06   16.80
  -6  -3   4  371.36   19.60
  -6  -3   4  411.76   20.60
   5   3  -4  208.78   10.80
   5   3  -4  191.48   12.30
   5   3  -4  194.58   12.80
  -5  -3   4  221.68   13.70
  -5  -3   4  177.58   10.30
  -5  -3   4  192.28   12.30
  -5  -3   4  197.88   13.20
   4   3  -4  279.97   13.80
   4   3  -4  304.07   13.30
   4   3  -4  313.47   13.70
  -4  -3   4  308.57   14.10
  -4  -3   4  325.57   14.50
  -4  -3   4  290.87   13.60
   3   3  -4  247.48   10.70
   3   3  -4  227.68    8.10
   3   3  -4  249.58   11.80
   3   3  -4  237.28   10.40
  -3  -3   4  230.98   10.70
  -3  -3   4  252.47   14.00
  -3  -3   4  239.18    8.10
   2   3  -4 1064.79   23.80
   2   3  -4  907.11   25.80
   2   3  -4 1070.79   26.70
   2   3  -4 1036.40   20.10
  -2  -3   4 1032.80   24.40
  -2  -3   4  984.40   26.40
  -2  -3   4 1014.40   26.40
  -2  -3   4 1037.90   20.10
   1   3  -4  324.77    9.70
   1   3  -4  284.17   11.90
  -1  -3   4  301.87   10.30
  -1  -3   4  325.27    7.30
  -1  -3   4  312.87    7.30
  -1  -3   4  319.67   12.40
  -1  -3   4  298.37   10.20
   0   3  -4 2276.77   44.60
   0   3  -4 2343.67   43.20
   0  -3   4 2281.87   42.90
   0  -3   4 2348.67   45.60
   0  -3   4 2117.99   46.60
   0  -3   4 2278.17   47.90
  -1   3  -4 4217.18   78.09
  -1   3  -4 4110.09   78.29
  -1   3  -4 4088.89   79.19
   1  -3   4 4235.08   79.19
   1  -3   4 4103.49   79.29
   1  -3   4 4167.78   77.89
   1  -3   4 4229.58   80.69
   1  -3   4 4154.38   80.69
  -2   3  -4   15.00    4.10
  -2   3  -4   20.20    4.30
  -2   3  -4   13.70    3.80
   2  -3   4   10.60    3.40
   2  -3   4   23.10    4.10
   2  -3   4   22.70    4.30
   2  -3   4   22.40    4.30
  -3   3  -4  144.09    9.70
  -3   3  -4  174.88   10.20
  -3   3  -4  166.78   10.10
  -3   3  -4  146.89   10.40
   3  -3   4  158.18   10.20
   3  -3   4  172.08   10.50
   3  -3   4  166.58    9.80
   3  -3   4  166.28    9.90
  -4   3  -4   -1.40    3.80
  -4   3  -4    0.00    3.50
  -4   3  -4   12.70    4.80
   4  -3   4   -5.80    3.50
   4  -3   4   10.00    4.50
   4  -3   4    0.20    4.10
   4  -3   4    4.30    4.20
  -5   3  -4   83.19   10.70
  -5   3  -4   94.39    9.00
   5  -3   4   88.29   11.40
   5  -3   4   68.39    9.30
   5  -3   4   68.79    9.60
   5  -3   4   73.79    9.00
  -6   3  -4  194.38   13.00
  -6   3  -4  182.18   20.60
  -6   3  -4  200.38   16.30
   6  -3   4  201.18   14.70
   6  -3   4  180.88   14.90
   6  -3   4  188.48   17.20
   6  -3   4  198.18   16.00
  -7   3  -4  899.81   36.40
  -7   3  -4  930.51   30.20
   7  -3   4  937.61   36.40
   7  -3   4  964.30   35.40
  -8   3  -4  137.09   14.80
  -8   3  -4  113.49   16.80
   8  -3   4  144.69   19.40
   8  -3   4  100.79   14.40
   8   2  -4   44.50   12.60
  -8  -2   4   24.30    9.30
  -8  -2   4   27.30    9.60
   7   2  -4  742.73   29.00
   7   2  -4  691.03   24.90
  -7  -2   4  621.54   28.10
  -7  -2   4  691.53   25.90
   6   2  -4  961.00   27.50
   6   2  -4  916.91   30.60
   6   2  -4  957.90   31.00
  -6  -2   4  963.70   32.50
  -6  -2   4  967.70   32.10
  -6  -2   4  931.81   27.10
  -6  -2   4  961.60   29.80
   5   2  -4  165.98    9.70
   5   2  -4  169.18   12.40
   5   2  -4  155.78   12.00
   5   2  -4  179.48   11.80
  -5  -2   4  164.78   11.40
  -5  -2   4  168.18   12.30
  -5  -2   4  172.38    9.50
  -5  -2   4  155.38   11.60
   4   2  -4  144.09   10.30
   4   2  -4  142.29    7.30
   4   2  -4  142.09    9.50
  -4  -2   4  127.39    9.40
  -4  -2   4  141.99    9.80
  -4  -2   4  128.59    9.80
  -4  -2   4  126.89    6.90
   3   2  -4 1473.55   34.70
   3   2  -4 1532.15   34.90
   3   2  -4 1550.74   30.40
   3   2  -4 1573.94   36.50
  -3  -2   4 1511.45   39.50
  -3  -2   4 1483.35   38.30
  -3  -2   4 1543.65   30.20
  -3  -2   4 1558.04   35.60
   2   2  -4 1344.67   29.90
   2   2  -4 1335.47   31.60
   2   2  -4 1348.07   29.70
  -2  -2   4 1308.37   31.50
  -2  -2   4 1328.47   30.10
  -2  -2   4 1345.27   30.20
   1   2  -4    2.60    2.50
   1   2  -4    7.30    2.90
  -1  -2   4    1.90    2.60
  -1  -2   4    0.00    2.70
   0   2  -4  559.94   13.20
   0   2  -4  554.94   15.60
   0   2  -4  569.74   15.50
   0   2  -4  577.54   16.50
   0  -2   4  589.14   16.20
   0  -2   4  576.54   13.30
   0  -2   4  564.94   15.80
  -1   2  -4  946.51   23.10
  -1   2  -4  897.81   21.70
  -1   2  -4  923.41   23.50
   1  -2   4  965.80   23.20
   1  -2   4  947.41   23.60
   1  -2   4  930.71   23.20
   1  -2   4  941.81   21.90
  -2   2  -4   -1.50    2.30
  -2   2  -4   -2.50    2.80
  -2   2  -4    3.50    2.80
   2  -2   4    5.70    3.60
   2  -2   4    4.80    3.10
  -3   2  -4 1711.23   40.80
  -3   2  -4 1692.83   37.70
  -3   2  -4 1681.53   40.70
  -3   2  -4 1728.23   40.30
   3  -2   4 1661.03   37.80
   3  -2   4 1706.53   41.00
   3  -2   4 1759.72   40.20
  -4   2  -4 2954.00   64.69
  -4   2  -4 2830.82   61.49
  -4   2  -4 2832.52   64.29
   4  -2   4 2976.60   65.39
   4  -2   4 2896.51   60.09
   4  -2   4 2819.02   63.29
  -5   2  -4  150.18   10.30
  -5   2  -4  147.39   13.40
   5  -2   4  158.28   12.70
   5  -2   4  135.79   13.80
   5  -2   4  160.08   13.40
   5  -2   4  147.99   10.80
  -6   2  -4   42.90    7.40
  -6   2  -4   60.49   11.10
  -6   2  -4   31.20    8.60
   6  -2   4   49.90   10.30
   6  -2   4   32.80    7.90
   6  -2   4   35.80    9.80
   6  -2   4   43.90    9.20
  -7   2  -4  336.47   23.10
  -7   2  -4  258.47   15.20
   7  -2   4  294.67   19.10
   7  -2   4  316.37   20.80
   7  -2   4  262.77   21.30
  -8   2  -4   16.50    7.70
  -8   2  -4   23.80   12.00
   8  -2   4   40.30   18.50
   8  -2   4   47.40   13.80
   9   1  -4  333.57   21.90
  -9  -1   4  374.06   27.30
  -9  -1   4  346.27   21.80
   8   1  -4  258.27   21.20
   8   1  -4  232.78   16.60
  -8  -1   4  253.97   23.90
  -8  -1   4  239.68   19.60
  -8  -1   4  259.47   24.20
   7   1  -4   70.19   11.60
   7   1  -4   91.89   10.60
  -7  -1   4   79.29   10.80
  -7  -1   4   76.19   10.00
  -7  -1   4   55.69    9.50
   6   1  -4   82.19   10.80
   6   1  -4   72.29    8.20
   6   1  -4   68.89    9.60
  -6  -1   4   71.89    9.70
  -6  -1   4   73.59    8.70
  -6  -1   4   63.59    9.00
  -6  -1   4   65.59    9.80
   5   1  -4  246.78   14.20
   5   1  -4  215.78   12.90
  -5  -1   4  220.68   10.50
  -5  -1   4  229.88   13.20
  -5  -1   4  245.88   14.20
  -5  -1   4  251.97   13.90
   4   1  -4  188.38    8.10
   4   1  -4  174.98   11.30
   4   1  -4  193.98   11.00
   4   1  -4  194.08   10.80
  -4  -1   4  190.78    8.10
  -4  -1   4  204.28   11.20
  -4  -1   4  189.78   11.20
  -4  -1   4  185.28   10.90
   3   1  -4 3300.47   66.09
   3   1  -4 3232.28   60.49
   3   1  -4 3322.77   67.09
   3   1  -4 3356.16   66.19
  -3  -1   4 3287.27   66.39
  -3  -1   4 3289.07   60.59
  -3  -1   4 3237.58   66.29
   2   1  -4 1038.10   26.40
   2   1  -4 1023.30   19.70
   2   1  -4 1052.89   19.80
   2   1  -4 1088.99   25.50
   2   1  -4 1051.79   25.10
  -2  -1   4 1060.69   25.50
  -2  -1   4 1048.10   26.30
  -2  -1   4 1045.20   25.30
   1   1  -4   -1.00    2.40
   1   1  -4    2.40    2.50
   1   1  -4    5.80    3.10
   1   1  -4    4.40    1.50
  -1  -1   4    1.40    2.60
  -1  -1   4    2.50    1.40
  -1  -1   4    4.30    2.90
  -1  -1   4    7.20    3.30
   0   1  -4 6095.19  109.59
   0   1  -4 5834.82  112.69
   0   1  -4 6131.29  112.09
   0   1  -4 6237.08  112.69
   0  -1   4 6133.59  112.99
   0  -1   4 6169.58  112.69
   0  -1   4 6042.00  111.89
   0  -1   4 6108.19  109.59
  -1   1  -4 4858.21   93.99
   1  -1   4 5014.90   94.79
   1  -1   4 4916.81   94.19
   1  -1   4 4961.00   92.09
   1  -1   4 5074.59   92.59
  -2   1  -4  114.09    8.20
  -2   1  -4  100.09    7.90
  -2   1  -4   96.99    7.60
   2  -1   4   98.79    7.50
   2  -1   4  108.09    6.50
   2  -1   4   97.99    8.20
   2  -1   4   90.99    7.70
   2  -1   4   98.79    6.10
  -3   1  -4   41.10    6.20
  -3   1  -4   50.29    6.90
  -3   1  -4   29.30    5.00
   3  -1   4   44.10    7.20
  -4   1  -4    6.30    3.30
  -4   1  -4    1.20    4.10
   4  -1   4   12.00    5.00
   4  -1   4   13.60    3.80
   4  -1   4   11.50    6.10
   4  -1   4    1.40    4.70
  -5   1  -4   98.79   11.90
  -5   1  -4  103.79   12.90
  -5   1  -4  116.29    8.60
   5  -1   4  104.09    8.80
   5  -1   4  104.99   14.20
   5  -1   4   81.99   10.70
   5  -1   4  115.79   14.70
  -6   1  -4  457.85   16.80
  -6   1  -4  453.55   23.80
   6  -1   4  436.26   17.80
   6  -1   4  442.06   22.40
   6  -1   4  448.96   23.80
  -7   1  -4  793.32   25.00
  -7   1  -4  851.81   35.80
   7  -1   4  818.52   27.80
   7  -1   4  830.92   35.10
   7  -1   4  819.92   33.50
  -8   1  -4  202.48   23.50
   8  -1   4  163.78   20.30
   9   0  -4   -8.80    7.60
   9   0  -4  -11.40   12.90
  -9   0   4    3.50    9.50
  -9   0   4  -11.30    7.00
   8   0  -4    8.80    6.80
   8   0  -4    8.50    8.80
  -8   0   4   20.50    7.90
  -8   0   4   17.60   11.20
  -8   0   4    0.80    7.70
   7   0  -4  117.79   14.50
   7   0  -4  124.29   11.30
  -7   0   4  139.49   13.20
  -7   0   4  112.59   13.50
  -7   0   4  125.69   12.30
  -7   0   4   95.69   12.50
   6   0  -4 2409.36   52.79
   6   0  -4 2386.06   58.09
   6   0  -4 2395.76   57.79
   6   0  -4 2404.56   57.79
  -6   0   4 2378.16   58.29
  -6   0   4 2381.86   56.39
  -6   0   4 2352.36   52.39
  -6   0   4 2334.37   58.09
   5   0  -4  907.41   27.80
   5   0  -4  923.91   26.30
   5   0  -4  898.21   27.90
   5   0  -4  889.41   27.90
  -5   0   4  915.51   28.00
  -5   0   4  887.51   27.90
  -5   0   4  874.21   27.20
  -5   0   4  911.61   23.80
   4   0  -4  130.49    9.80
   4   0  -4  113.59    8.80
   4   0  -4  116.39    6.70
   4   0  -4  111.69    8.90
  -4   0   4  123.19    9.30
  -4   0   4  123.99    9.40
  -4   0   4  107.79    9.00
  -4   0   4  110.89    6.70
   3   0  -4 2682.63   55.59
   3   0  -4 2675.73   50.99
   3   0  -4 2709.33   56.69
  -3   0   4 2672.93   55.99
  -3   0   4 2696.13   56.09
  -3   0   4 2688.73   50.99
   2   0  -4  316.57   11.90
   2   0  -4  304.77    8.50
   2   0  -4  321.47    8.60
   2   0  -4  314.67   11.90
  -2   0   4  321.97   12.00
  -2   0   4  327.17   12.00
   1   0  -4  267.97   10.60
   1   0  -4  242.18    7.80
   1   0  -4  245.38   10.30
  -1   0   4  265.97   10.60
  -1   0   4  247.38   10.40
  -1   0   4  254.27    7.90
  -1   0   4  272.47   10.30
   0   0  -4  559.34   16.20
   0   0  -4  523.25   14.40
   0   0  -4  530.15   16.20
   0   0  -4  526.65   14.20
   0   0   4  541.85   14.60
   0   0   4  511.85   15.80
   0   0   4  502.35   16.10
   0   0   4  520.15   14.20
  -1   0  -4 1356.36   30.90
  -1   0  -4 1368.46   32.40
  -1   0  -4 1369.96   28.60
   1   0   4 1339.47   30.80
   1   0   4 1308.67   28.30
   1   0   4 1373.36   32.30
  -2   0  -4  221.08   11.50
  -2   0  -4  218.18   11.30
  -2   0  -4  242.18   11.50
   2   0   4  218.68    8.10
   2   0   4  226.18    8.20
   2   0   4  225.38   11.00
   2   0   4  220.28   11.40
   2   0   4  219.78   11.70
  -3   0  -4 1958.00   51.59
  -3   0  -4 2050.89   47.80
   3   0   4 1978.50   40.30
   3   0   4 1963.40   46.40
   3   0   4 2072.09   47.80
   3   0   4 1978.00   47.30
   3   0   4 2010.70   40.40
  -4   0  -4 1923.01   48.30
  -4   0  -4 1863.41   47.70
   4   0   4 1912.81   48.10
   4   0   4 1800.52   46.30
  -5   0  -4  533.85   24.60
  -5   0  -4  528.15   23.70
   5   0   4  527.45   23.20
   5   0   4  514.25   24.50
  -6   0  -4   54.19   10.80
  -6   0  -4   34.10   11.30
   6   0   4   52.49    7.40
   6   0   4   51.99   10.30
  -7   0  -4   55.49   16.20
  -7   0  -4   50.79   12.00
   7   0   4   69.29   12.40
   7   0   4   82.29    9.90
   9  -1  -4  585.24   27.10
   9  -1  -4  595.44   32.80
  -9   1   4  650.13   33.40
  -9   1   4  656.83   29.30
   8  -1  -4  367.56   23.40
   8  -1  -4  380.36   19.50
  -8   1   4  336.57   22.40
  -8   1   4  369.66   20.70
  -8   1   4  342.87   25.00
   7  -1  -4   15.60    5.80
  -7   1   4    7.50    7.90
  -7   1   4   16.70    6.60
  -7   1   4    3.70    5.90
  -7   1   4   12.20    7.20
   6  -1  -4  230.18   12.40
   6  -1  -4  210.48   15.30
   6  -1  -4  241.78   16.00
   6  -1  -4  237.38   15.20
  -6   1   4  238.98   15.20
  -6   1   4  220.98   14.40
  -6   1   4  248.58   15.80
  -6   1   4  231.58   12.70
   5  -1  -4   63.39   10.20
   5  -1  -4   48.70    7.40
   5  -1  -4   37.10    6.60
  -5   1   4   49.40    6.00
  -5   1   4   36.50    7.90
  -5   1   4   48.80    7.60
  -5   1   4   48.70    7.90
   4  -1  -4  449.36   16.90
   4  -1  -4  450.25   17.50
   4  -1  -4  437.06   14.00
  -4   1   4  432.86   13.80
  -4   1   4  457.25   17.00
  -4   1   4  415.76   16.60
  -4   1   4  461.15   17.60
   3  -1  -4  737.63   21.30
   3  -1  -4  751.12   18.40
   3  -1  -4  773.22   18.20
  -3   1   4  765.72   22.20
  -3   1   4  720.93   21.20
  -3   1   4  724.33   21.30
   2  -1  -4 3489.75   70.99
   2  -1  -4 3679.73   71.29
   2  -1  -4 3659.13   71.29
   2  -1  -4 3652.53   67.79
  -2   1   4 3633.74   71.19
  -2   1   4 3652.23   71.49
   1  -1  -4   34.20    5.10
   1  -1  -4   34.50    5.00
   1  -1  -4   36.10    4.70
   1  -1  -4   31.30    3.80
  -1   1   4   31.10    3.80
  -1   1   4   27.90    4.50
  -1   1   4   28.00    4.20
  -1   1   4   30.90    4.70
   0  -1  -4 1676.03   38.10
   0  -1  -4 1695.53   35.00
   0  -1  -4 1767.82   38.20
   0   1   4 1695.63   35.00
   0   1   4 1740.83   37.20
   0   1   4 1730.53   38.00
  -1  -1  -4 1563.44   35.80
  -1  -1  -4 1565.24   36.70
  -1  -1  -4 1571.64   31.30
   1   1   4 1554.14   36.20
   1   1   4 1513.45   36.20
   1   1   4 1590.94   31.20
  -2  -1  -4  909.21   25.80
   2   1   4  871.51   18.80
   2   1   4  867.51   25.20
   2   1   4  900.51   18.90
   2   1   4  910.51   25.80
   2   1   4  894.51   25.80
  -3  -1  -4    2.50    4.20
  -3  -1  -4    7.20    4.20
   3   1   4   -0.40    4.10
   3   1   4    3.00    1.80
   3   1   4   -0.70    1.80
   3   1   4    3.10    4.30
   3   1   4   -0.10    4.30
  -4  -1  -4  115.29   14.40
  -4  -1  -4  115.49   11.40
   4   1   4  126.99    5.80
   4   1   4  104.19   11.00
   4   1   4  117.39   12.20
   4   1   4  110.29   11.20
   4   1   4  116.49    5.40
  -5  -1  -4  139.59   15.30
  -5  -1  -4  114.49   13.10
   5   1   4  114.79   13.00
   5   1   4  134.39    6.20
   5   1   4  125.39   13.70
   5   1   4  145.99    6.80
  -6  -1  -4  145.39   19.10
  -6  -1  -4  178.68   17.30
   6   1   4  170.28   17.30
   6   1   4  180.28   16.40
  -7  -1  -4  806.62   36.80
   7   1   4  839.32   35.60
   9  -2  -4   30.40   11.80
   9  -2  -4   26.90    9.80
  -9   2   4   15.30   10.90
  -9   2   4   17.20    9.40
   8  -2  -4   22.50    9.20
   8  -2  -4   13.00    6.70
  -8   2   4   19.30    8.30
  -8   2   4   10.00    7.20
   7  -2  -4  376.36   21.90
   7  -2  -4  352.06   17.40
   7  -2  -4  375.16   20.50
  -7   2   4  375.86   19.80
  -7   2   4  381.66   20.90
   6  -2  -4 1012.70   28.30
  -6   2   4  961.90   31.20
  -6   2   4 1039.30   32.60
  -6   2   4  928.91   27.80
   5  -2  -4 1330.67   36.90
   5  -2  -4 1339.97   36.00
   5  -2  -4 1312.47   32.40
  -5   2   4 1274.27   35.40
  -5   2   4 1305.47   35.70
  -5   2   4 1298.27   32.20
   4  -2  -4 1256.47   32.50
   4  -2  -4 1216.88   29.30
   4  -2  -4 1273.17   35.30
  -4   2   4 1240.08   32.40
  -4   2   4 1240.78   32.30
  -4   2   4 1181.68   32.60
   3  -2  -4 3025.20   60.49
   3  -2  -4 2897.51   60.79
  -3   2   4 2837.42   59.89
  -3   2   4 2813.32   64.29
   2  -2  -4  271.37   11.40
   2  -2  -4  267.97   11.50
   2  -2  -4  264.67   11.40
  -2   2   4  260.77   12.90
  -2   2   4  249.78   11.10
  -2   2   4  258.17   11.20
  -2   2   4  250.57    9.90
   1  -2  -4  579.24   17.40
   1  -2  -4  568.04   19.90
   1  -2  -4  595.54   16.10
  -1   2   4  545.85   18.40
  -1   2   4  554.84   17.60
  -1   2   4  569.64   16.20
  -1   2   4  557.44   17.00
   0  -2  -4  513.65   13.70
   0  -2  -4  542.35   17.00
   0  -2  -4  515.95   17.00
   0  -2  -4  499.75   16.20
   0   2   4  514.95   16.50
   0   2   4  520.95   17.00
   0   2   4  507.15   13.70
   0   2   4  516.75   16.60
  -1  -2  -4 1956.50   37.40
  -1  -2  -4 2003.70   44.50
  -1  -2  -4 1973.90   45.10
  -1  -2  -4 1952.90   44.80
   1   2   4 2005.50   44.70
   1   2   4 2034.90   44.50
   1   2   4 1933.71   37.30
   1   2   4 1943.81   44.30
  -2  -2  -4  132.29    9.80
  -2  -2  -4  120.99    9.60
   2   2   4  123.19    9.60
   2   2   4  110.59    9.50
  -3  -2  -4  650.13   23.40
  -3  -2  -4  648.04   23.40
   3   2   4  656.13   23.20
   3   2   4  611.04   22.60
   3   2   4  629.74   22.90
  -4  -2  -4 1430.76   40.90
  -4  -2  -4 1481.65   41.80
   4   2   4 1420.76   40.60
   4   2   4 1382.06   40.30
  -5  -2  -4  615.54   28.30
  -5  -2  -4  683.83   28.10
   5   2   4  679.73   27.70
   5   2   4  634.34   27.30
  -6  -2  -4   11.70   10.60
  -6  -2  -4    4.10    7.20
   6   2   4   -7.50    8.40
   6   2   4    3.50    7.00
  -7  -2  -4   -1.00   10.70
   7   2   4    2.90    8.90
   9  -3  -4  475.05   24.40
   9  -3  -4  453.85   28.50
  -9   3   4  448.36   28.10
  -9   3   4  436.26   25.60
   8  -3  -4  639.54   29.40
  -8   3   4  606.24   28.80
  -8   3   4  628.84   27.70
   7  -3  -4   -3.10    5.80
   7  -3  -4    4.20    6.90
   7  -3  -4   18.00    6.10
  -7   3   4   16.00    8.40
  -7   3   4   -1.10    6.10
  -7   3   4   10.50    6.70
   6  -3  -4    5.40    4.40
   6  -3  -4    5.80    5.90
   6  -3  -4    0.20    4.80
  -6   3   4   -5.00    5.50
  -6   3   4    5.00    4.90
  -6   3   4   -3.60    4.70
  -6   3   4   -2.10    4.50
   5  -3  -4    0.80    3.30
   5  -3  -4    1.40    5.10
   5  -3  -4    0.90    4.00
  -5   3   4    8.40    5.20
  -5   3   4    3.90    4.20
  -5   3   4    4.60    4.80
  -5   3   4    6.00    4.10
   4  -3  -4   26.70    4.80
   4  -3  -4   26.30    5.50
   4  -3  -4   31.00    5.90
   4  -3  -4   28.20    4.90
  -4   3   4   32.20    6.10
   3  -3  -4 3360.16   66.19
   3  -3  -4 3303.97   68.69
   3  -3  -4 3298.27   67.79
  -3   3   4 3219.38   68.19
  -3   3   4 3271.87   67.49
  -3   3   4 3416.46   68.09
   2  -3  -4 3238.28   64.79
   2  -3  -4 3123.29   64.99
   2  -3  -4 3292.97   64.59
   2  -3  -4 3279.57   63.79
  -2   3   4 3109.69   64.39
  -2   3   4 3079.99   63.79
  -2   3   4 3108.29   64.19
  -2   3   4 3169.48   64.09
   1  -3  -4   46.60    5.50
   1  -3  -4   49.60    6.20
   1  -3  -4   49.50    6.10
  -1   3   4   52.19    6.10
  -1   3   4   43.30    5.40
  -1   3   4   51.99    6.20
  -1   3   4   48.00    6.10
   0  -3  -4  434.26   16.00
   0  -3  -4  480.45   12.90
   0  -3  -4  473.85   16.30
   0  -3  -4  451.65   16.40
   0   3   4  436.76   16.00
   0   3   4  433.56   15.50
   0   3   4  471.95   16.10
   0   3   4  448.36   12.50
  -1  -3  -4 2623.84   46.90
  -1  -3  -4 2577.54   56.49
  -1  -3  -4 2500.25   55.79
   1   3   4 2584.84   56.59
   1   3   4 2619.24   55.59
   1   3   4 2536.55   46.80
   1   3   4 2531.05   54.99
  -2  -3  -4   16.80    5.10
  -2  -3  -4    3.50    4.00
   2   3   4   16.10    5.10
   2   3   4    6.90    4.30
   2   3   4    8.60    4.80
  -3  -3  -4  530.25   21.70
  -3  -3  -4  506.15   21.20
   3   3   4  535.35   26.40
   3   3   4  536.55   22.00
  -4  -3  -4   48.50    8.70
  -4  -3  -4   50.69    9.90
   4   3   4   56.19    9.20
   4   3   4   58.19   10.00
  -5  -3  -4   80.19   11.70
  -5  -3  -4   71.89   12.50
   5   3   4   89.19   13.10
   5   3   4   79.99   11.50
  -6  -3  -4    9.80    8.40
   6   3   4    8.90   11.50
   6   3   4   17.60    8.20
   9  -4  -4  139.59   16.50
   9  -4  -4  185.68   21.40
  -9   4   4  178.48   18.50
  -9   4   4  161.88   20.40
   8  -4  -4   97.89   15.30
   8  -4  -4   84.49   11.70
   8  -4  -4   87.79   13.50
  -8   4   4   94.09   13.10
  -8   4   4   70.69   11.30
   7  -4  -4   73.49   10.00
   7  -4  -4   61.59   10.10
  -7   4   4   62.29   10.90
  -7   4   4   71.69   11.20
   6  -4  -4 2416.96   58.39
   6  -4  -4 2355.26   57.89
   6  -4  -4 2296.97   54.59
  -6   4   4 2403.96   57.79
  -6   4   4 2386.86   58.59
  -6   4   4 2286.17   57.29
  -6   4   4 2380.66   55.09
   5  -4  -4 1465.95   37.70
   5  -4  -4 1464.55   39.50
   5  -4  -4 1523.65   37.70
   5  -4  -4 1506.05   39.70
  -5   4   4 1476.75   40.50
  -5   4   4 1598.24   45.60
  -5   4   4 1455.85   38.90
   4  -4  -4   27.20    5.20
   4  -4  -4   42.00    6.90
   4  -4  -4   27.20    5.50
   4  -4  -4   32.60    5.40
   4  -4  -4   37.00    5.50
  -4   4   4   31.90    5.80
  -4   4   4   34.00    6.60
  -4   4   4   34.40    6.10
   3  -4  -4   18.50    4.90
   3  -4  -4   25.40    5.10
   3  -4  -4   14.60    4.20
   3  -4  -4   12.70    4.10
   3  -4  -4   12.30    4.30
  -3   4   4   18.20    4.80
  -3   4   4   27.20    5.80
  -3   4   4   12.80    4.30
   2  -4  -4  327.27   13.50
   2  -4  -4  365.16   14.20
   2  -4  -4  355.66   13.80
   2  -4  -4  327.27   13.70
  -2   4   4  324.67   12.80
  -2   4   4  346.07   13.70
  -2   4   4  308.87   13.40
  -2   4   4  317.37   15.20
   1  -4  -4    1.70    3.50
   1  -4  -4    6.40    3.80
   1  -4  -4    7.10    3.30
  -1   4   4    3.70    3.60
  -1   4   4   -0.30    2.90
  -1   4   4    8.70    3.40
   0  -4  -4  481.25   13.40
   0  -4  -4  480.05   18.10
   0  -4  -4  485.45   17.30
   0  -4  -4  485.75   17.40
   0   4   4  459.15   16.30
   0   4   4  484.05   18.10
   0   4   4  478.65   13.40
   0   4   4  483.65   16.70
  -1  -4  -4 1480.45   37.80
   1   4   4 1463.85   36.60
   1   4   4 1462.35   38.70
   1   4   4 1580.64   37.10
  -2  -4  -4  830.32   26.60
  -2  -4  -4  776.62   26.10
   2   4   4  809.82   27.30
   2   4   4  803.02   25.50
  -3  -4  -4  100.99   11.60
  -3  -4  -4   87.89   10.50
   3   4   4   86.39   10.90
   3   4   4   78.49   10.30
  -4  -4  -4 1496.25   44.60
  -4  -4  -4 1473.25   44.00
   4   4   4 1475.45   42.60
   4   4   4 1444.26   44.30
  -5  -4  -4  312.77   23.80
  -5  -4  -4  276.27   19.90
   5   4   4  333.17   23.00
   5   4   4  296.37   21.10
  -6  -4  -4   28.20   12.30
   6   4   4   30.10   12.20
   9  -5  -4  369.56   23.10
   9  -5  -4  403.16   26.80
  -9   5   4  412.56   27.30
  -9   5   4  418.06   25.70
   8  -5  -4  528.65   24.10
   8  -5  -4  463.85   27.30
   8  -5  -4  508.35   26.90
  -8   5   4  464.95   25.60
  -8   5   4  502.75   26.20
   7  -5  -4   35.60    8.40
   7  -5  -4   43.90    8.60
   7  -5  -4   54.29    9.40
  -7   5   4   43.90   10.10
  -7   5   4   54.59    9.90
   6  -5  -4   14.50    6.00
   6  -5  -4   17.30    6.90
   6  -5  -4   13.80    5.80
  -6   5   4   11.70    5.90
  -6   5   4   14.20    6.40
   5  -5  -4   95.39   10.00
   5  -5  -4   95.99    9.60
   5  -5  -4  108.39   10.40
   5  -5  -4   94.89   10.30
  -5   5   4  111.79   10.90
  -5   5   4   95.29   10.60
  -5   5   4  109.49   10.20
   4  -5  -4   11.00    5.60
   4  -5  -4    2.90    4.40
   4  -5  -4    6.60    4.30
   4  -5  -4    7.70    4.30
  -4   5   4   14.20    5.30
  -4   5   4    0.60    3.80
  -4   5   4    5.80    4.00
   3  -5  -4 1540.85   37.40
   3  -5  -4 1484.25   37.70
   3  -5  -4 1559.44   38.40
   3  -5  -4 1492.35   37.20
   3  -5  -4 1520.25   38.20
  -3   5   4 1479.65   38.00
  -3   5   4 1542.95   41.20
  -3   5   4 1490.55   36.20
   2  -5  -4 2392.86   54.09
   2  -5  -4 2553.74   55.59
   2  -5  -4 2555.34   54.09
   2  -5  -4 2522.85   54.59
  -2   5   4 2519.05   52.99
  -2   5   4 2493.65   53.99
  -2   5   4 2494.45   53.69
  -2   5   4 2497.65   55.69
   1  -5  -4  912.81   23.50
   1  -5  -4  872.11   25.40
   1  -5  -4  888.81   25.40
  -1   5   4  868.71   23.70
  -1   5   4  889.81   26.80
  -1   5   4  893.31   23.40
   0  -5  -4  484.05   17.90
   0  -5  -4  464.15   17.70
   0  -5  -4  475.75   13.70
   0   5   4  461.35   13.50
   0   5   4  463.65   16.70
   0   5   4  492.85   19.40
  -1  -5  -4  806.52   25.70
   1   5   4  789.62   24.20
   1   5   4  842.72   27.70
  -2  -5  -4  132.69   11.50
  -2  -5  -4  111.39   12.20
   2   5   4  126.99   11.10
   2   5   4  110.69   12.00
  -3  -5  -4   49.00    9.30
  -3  -5  -4   50.09    8.60
   3   5   4   32.10    8.40
   3   5   4   35.60    8.10
  -4  -5  -4  161.48   17.00
  -4  -5  -4  123.79   13.90
   4   5   4  148.69   16.20
   4   5   4  158.28   16.70
  -5  -5  -4  602.44   29.30
   5   5   4  613.84   30.40
   9  -6  -4  107.09   14.60
   9  -6  -4  102.49   15.70
  -9   6   4   85.79   17.30
  -9   6   4   87.69   14.60
   8  -6  -4  319.87   20.10
   8  -6  -4  288.17   20.60
   8  -6  -4  248.38   22.20
  -8   6   4  283.47   21.80
  -8   6   4  273.47   20.70
   7  -6  -4   11.00    6.10
   7  -6  -4    7.10    8.30
   7  -6  -4   -1.10    6.00
  -7   6   4    0.60    7.00
  -7   6   4    6.80    7.10
   6  -6  -4  773.62   28.90
   6  -6  -4  789.32   27.90
   6  -6  -4  768.32   28.60
  -6   6   4  809.42   28.30
  -6   6   4  892.21   44.70
   5  -6  -4 1052.19   32.60
   5  -6  -4 1103.59   32.70
   5  -6  -4 1109.89   32.80
  -5   6   4 1067.79   34.40
  -5   6   4 1096.29   31.70
   4  -6  -4  981.80   30.20
   4  -6  -4  988.30   30.70
   4  -6  -4  997.40   29.70
   4  -6  -4 1084.39   30.40
   4  -6  -4 1037.20   31.60
  -4   6   4  963.20   31.00
  -4   6   4 1078.99   29.20
   3  -6  -4  506.25   20.10
   3  -6  -4  527.85   20.10
   3  -6  -4  560.94   19.70
   3  -6  -4  534.95   19.40
  -3   6   4  510.15   19.90
  -3   6   4  563.04   18.30
   2  -6  -4  110.29    9.10
   2  -6  -4  112.39    9.30
   2  -6  -4  105.19    8.90
   2  -6  -4  111.39   10.70
  -2   6   4  125.09    9.60
  -2   6   4  117.39   10.20
  -2   6   4  106.09    8.20
   1  -6  -4   70.69    7.30
   1  -6  -4   64.79    8.10
   1  -6  -4   67.89    7.90
  -1   6   4   82.49    9.60
  -1   6   4   64.89    7.90
  -1   6   4   73.79    7.10
   0  -6  -4  468.45   18.70
   0  -6  -4  480.45   14.40
   0  -6  -4  454.25   18.20
   0   6   4  473.05   14.30
   0   6   4  494.85   20.80
  -1  -6  -4  879.01   28.00
  -1  -6  -4  836.92   27.20
   1   6   4  842.92   29.60
  -2  -6  -4  936.81   31.10
  -2  -6  -4  977.50   31.10
   2   6   4  887.81   32.30
  -3  -6  -4   73.99   11.30
  -3  -6  -4   55.39    9.80
   3   6   4   56.79   10.80
   3   6   4   85.39   14.30
  -4  -6  -4  433.06   24.00
  -4  -6  -4  455.15   25.80
   4   6   4  454.25   25.70
   4   6   4  445.56   25.10
  -5  -6  -4  396.76   25.70
   5   6   4  463.35   28.30
   9  -7  -4  236.98   20.50
   9  -7  -4  281.07   24.60
  -9   7   4  260.97   24.70
  -9   7   4  246.58   27.40
   8  -7  -4  286.27   23.40
   8  -7  -4  308.17   21.90
   8  -7  -4  351.96   21.70
  -8   7   4  302.47   22.20
  -8   7   4  314.07   22.80
   7  -7  -4  210.38   16.60
   7  -7  -4  208.68   16.70
   7  -7  -4  194.98   18.00
  -7   7   4  209.88   26.60
  -7   7   4  197.18   17.60
   6  -7  -4   22.30    7.70
   6  -7  -4    8.80    7.00
   6  -7  -4   21.30    8.50
  -6   7   4    2.80    6.10
  -6   7   4    4.20    6.70
   5  -7  -4  278.27   16.70
   5  -7  -4  245.18   15.00
   5  -7  -4  266.77   15.80
  -5   7   4  275.77   17.40
  -5   7   4  276.37   15.10
   4  -7  -4   13.40    5.30
   4  -7  -4   12.70    5.80
   4  -7  -4    6.50    5.00
  -4   7   4    7.70    5.80
  -4   7   4    8.90    4.80
   3  -7  -4  439.16   17.90
   3  -7  -4  435.36   19.00
   3  -7  -4  427.56   17.70
  -3   7   4  449.36   19.20
   2  -7  -4 1363.06   35.80
   2  -7  -4 1407.36   36.00
   2  -7  -4 1398.76   36.20
  -2   7   4 1405.76   41.40
  -2   7   4 1352.56   35.90
  -2   7   4 1410.96   39.30
   1  -7  -4  743.83   21.80
   1  -7  -4  721.13   23.80
   1  -7  -4  720.73   23.90
  -1   7   4  716.73   20.70
  -1   7   4  693.33   26.10
  -1   7   4  732.63   24.50
   0  -7  -4   49.40    6.20
   0  -7  -4   55.69    8.00
   0  -7  -4   47.70    7.50
   0   7   4   48.10    6.30
   0   7   4   43.50    8.10
   0   7   4   57.99    6.90
  -1  -7  -4  131.89   11.70
  -1  -7  -4  141.79   12.30
   1   7   4  140.49   14.00
   1   7   4  170.08   11.90
  -2  -7  -4   98.39   11.80
  -2  -7  -4   74.09   10.80
   2   7   4   74.39   11.00
   2   7   4   85.29   10.40
  -3  -7  -4    7.00    8.20
  -3  -7  -4   11.60    6.70
   3   7   4   18.10    9.40
   3   7   4    0.10    9.20
  -4  -7  -4  171.18   21.00
   9  -8  -4  175.78   20.70
  -9   8   4  169.18   21.40
   8  -8  -4  459.55   25.50
   8  -8  -4  430.36   25.60
  -8   8   4  565.74   29.70
  -8   8   4  493.15   28.20
   7  -8  -4    3.90    8.40
   7  -8  -4    9.10    7.20
   7  -8  -4   14.50    7.80
  -7   8   4    5.90    7.90
  -7   8   4    5.40    8.10
   6  -8  -4  336.37   19.20
   6  -8  -4  313.27   19.00
   6  -8  -4  332.27   19.80
  -6   8   4  344.87   21.30
  -6   8   4  309.87   18.20
   5  -8  -4 1102.59   34.00
   5  -8  -4 1094.69   36.40
   5  -8  -4 1151.88   34.80
  -5   8   4 1110.99   37.60
   4  -8  -4   83.49   17.40
   4  -8  -4   44.60    8.30
   4  -8  -4   59.49   11.40
  -4   8   4   68.39    9.20
  -4   8   4   60.29   10.20
   3  -8  -4   46.90    8.90
   3  -8  -4   49.40    7.80
  -3   8   4   51.69    6.80
  -3   8   4   66.29    9.60
   2  -8  -4    7.60    5.00
   2  -8  -4    4.10    5.90
  -2   8   4    6.00    5.30
  -2   8   4    5.10    4.00
  -2   8   4    4.00    6.20
   1  -8  -4    3.70    4.30
   1  -8  -4   -6.10    4.60
   1  -8  -4    5.70    4.70
  -1   8   4   -7.10    5.10
  -1   8   4    1.90    4.30
  -1   8   4    6.40    4.50
   0  -8  -4   -1.50    4.50
   0  -8  -4    1.20    4.80
   0  -8  -4    1.60    5.00
   0   8   4   -6.60    5.50
   0   8   4    8.00    4.90
  -1  -8  -4 1203.78   36.90
  -1  -8  -4 1217.08   36.10
   1   8   4 1149.98   39.40
   1   8   4 1195.08   35.10
  -2  -8  -4  437.26   21.70
  -2  -8  -4  448.86   23.20
   2   8   4  473.65   20.90
   2   8   4  503.55   26.20
  -3  -8  -4   -0.90   10.00
   3   8   4   13.30   10.20
   8  -9  -4   91.99   14.70
   8  -9  -4   99.09   14.50
  -8   9   4   99.29   23.10
   7  -9  -4    0.70    7.10
   7  -9  -4    7.00    7.80
   7  -9  -4   10.30    8.80
  -7   9   4   12.20   10.20
  -7   9   4    2.90    8.20
   6  -9  -4  154.18   14.80
   6  -9  -4  169.18   16.10
  -6   9   4  146.99   16.60
  -6   9   4  149.88   17.20
   5  -9  -4  329.67   17.80
   5  -9  -4  328.57   18.60
   5  -9  -4  261.57   19.10
  -5   9   4  296.47   16.50
  -5   9   4  353.56   20.90
   4  -9  -4  149.39   12.70
   4  -9  -4  138.99   14.50
   4  -9  -4  107.29   11.10
  -4   9   4  144.49   11.00
  -4   9   4  138.39   14.30
   3  -9  -4  152.08   15.10
   3  -9  -4  195.38   12.90
   3  -9  -4  189.08   13.50
  -3   9   4  165.78   14.00
  -3   9   4  176.98   10.50
   2  -9  -4 1228.18   34.50
   2  -9  -4 1200.68   38.80
   2  -9  -4 1194.08   34.70
  -2   9   4 1209.28   35.00
  -2   9   4 1222.78   27.90
  -2   9   4 1260.77   40.10
   1  -9  -4  540.55   22.30
   1  -9  -4  566.44   20.60
   1  -9  -4  552.84   21.80
  -1   9   4  569.54   26.00
  -1   9   4  548.85   20.60
   0  -9  -4   -3.00    4.50
   0  -9  -4    3.10    5.60
   0   9   4    6.30    7.60
  -1  -9  -4  162.98   14.80
  -1  -9  -4  170.08   15.60
   1   9   4  213.08   18.40
  -2  -9  -4    6.30    7.50
  -2  -9  -4   17.40    9.60
   2   9   4    5.50   11.20
   8 -10  -4  206.58   21.40
   8 -10  -4  232.28   21.10
  -8  10   4  188.78   22.50
   7 -10  -4  140.19   16.20
   7 -10  -4  142.19   18.50
  -7  10   4  123.89   17.10
   6 -10  -4  239.38   18.50
   6 -10  -4  237.48   17.70
   6 -10  -4  217.18   19.40
  -6  10   4  251.77   20.80
  -6  10   4  235.98   18.20
   5 -10  -4  585.74   24.60
   5 -10  -4  611.44   29.10
   5 -10  -4  561.74   25.10
  -5  10   4  634.94   28.90
   4 -10  -4  164.28   14.10
   4 -10  -4  145.79   12.60
   4 -10  -4  107.19   14.10
  -4  10   4  105.69   14.20
   3 -10  -4   15.20    7.00
   3 -10  -4   -7.20    6.50
   3 -10  -4    7.50    5.70
  -3  10   4    2.90    6.30
   2 -10  -4   -2.50    6.30
   2 -10  -4   14.50    5.80
  -2  10   4   10.10    7.00
  -2  10   4    7.60    7.20
   1 -10  -4  370.06   18.20
   1 -10  -4  398.76   19.00
   1 -10  -4  425.06   20.20
  -1  10   4  392.16   18.10
  -1  10   4  389.86   23.60
   0 -10  -4   96.79   11.90
   0 -10  -4   93.99   12.80
   0  10   4   90.09   14.50
  -1 -10  -4  247.88   17.60
  -1 -10  -4  296.17   20.00
   1  10   4  230.58   21.40
   7 -11  -4   22.40    9.30
   7 -11  -4   30.40   11.90
  -7  11   4   49.40   13.30
   6 -11  -4   31.10   10.60
  -6  11   4   10.10   10.00
   5 -11  -4  315.37   23.20
   5 -11  -4  214.28   20.80
   5 -11  -4  264.87   17.20
  -5  11   4  235.68   20.40
   4 -11  -4  174.28   18.90
   4 -11  -4  206.48   19.70
   4 -11  -4  191.78   14.80
  -4  11   4  170.18   17.40
   3 -11  -4  116.69   12.20
   3 -11  -4  103.49   13.40
   3 -11  -4  139.69   17.50
  -3  11   4  110.29   14.90
   2 -11  -4  376.96   19.90
   2 -11  -4  369.66   18.60
  -2  11   4  362.86   20.40
   1 -11  -4  350.66   23.40
  -1  11   4  375.96   39.30
   0 -11  -4    3.90    6.80
   0 -11  -4   12.00    8.60
   0  11   4   -1.70    8.80
   5 -12  -4  164.68   19.70
   5 -12  -4  129.99   18.70
   5 -12  -4  118.09   13.60
  -5  12   4   89.09   15.00
   4 -12  -4  148.99   18.70
   4 -12  -4  159.98   14.60
   4 -12  -4  163.08   16.70
  -4  12   4  167.18   19.40
   3 -12  -4   13.20    8.70
   3 -12  -4   12.10   10.20
   3 -12  -4    6.40    6.70
  -3  12   4   -5.20    8.60
   2 -12  -4   94.59   12.20
   2 -12  -4   91.59   12.60
  -2  12   4  111.49   15.10
   2 -14   5   82.29   13.80
   2 -14   5   74.09   15.30
   3 -14   5  230.48   20.40
   3 -14   5  240.88   29.40
  -1 -13   5  249.28   20.50
  -1 -13   5  190.68   17.70
   0 -13   5  402.76   22.80
   0 -13   5  449.16   26.10
   1 -13   5   11.50    9.50
   1 -13   5   -1.50    7.30
   2 -13   5   35.20   11.50
   2 -13   5   35.40    9.90
   3 -13   5    2.80    7.20
   3 -13   5    3.30    8.20
   4 -13   5   18.80    9.80
   4 -13   5   28.90    6.40
   5 -13   5   22.30    8.10
   5 -13   5   12.10    9.60
   5 -13   5   31.80    7.90
  -2 -12   5   42.00   11.00
  -2 -12   5   27.00    9.40
  -1 -12   5   55.79   11.30
  -1 -12   5   58.39   10.50
   0 -12   5  110.29   14.30
   0 -12   5  107.09   13.40
   1 -12   5   83.79   13.00
   1 -12   5  106.19   12.90
   2 -12   5   29.60    8.30
   2 -12   5   27.00    9.40
   3 -12   5  908.41   32.90
   3 -12   5  890.21   36.20
   3 -12   5  895.11   23.10
   3 -12   5  900.41   22.80
   4 -12   5   67.39   11.30
   4 -12   5   73.99    9.20
   4 -12   5   69.79    9.00
  -5  12  -5   18.30    8.80
   5 -12   5   14.10    7.10
   5 -12   5   19.30    8.40
   5 -12   5    3.80    5.60
  -6  12  -5  156.58   20.00
   6 -12   5  160.68   24.20
   6 -12   5  114.49   17.10
   6 -12   5  112.29   13.80
  -3 -11   5  152.58   16.10
  -2 -11   5   62.39   10.00
  -2 -11   5   53.39   11.00
  -1 -11   5  195.88   18.80
  -1 -11   5  190.88   14.50
   0 -11   5  396.36   25.40
   0 -11   5  397.46   19.40
   1 -11   5   22.70    7.10
   1 -11   5   11.20    6.90
   2 -11   5    3.30    5.20
   2 -11   5   13.40    7.80
   3 -11   5    1.20    5.60
   3 -11   5    0.70    3.80
  -4  11  -5  425.56   24.20
   4 -11   5  427.46   17.50
   4 -11   5  416.36   17.10
   4 -11   5  437.86   22.40
  -5  11  -5   30.90    9.80
   5 -11   5   29.00    8.60
   5 -11   5   33.50    8.20
   5 -11   5   19.40    6.70
  -6  11  -5  356.86   24.50
   6 -11   5  444.76   24.90
   6 -11   5  396.86   22.10
   6 -11   5  363.96   20.50
  -7  11  -5  358.66   26.30
   7 -11   5  343.57   24.70
   7 -11   5  328.07   21.90
   4  10  -5  103.19   12.50
  -4 -10   5   95.39   11.00
  -4 -10   5   91.69   12.30
  -4 -10   5   97.99   12.50
   3  10  -5   94.19   11.80
  -3 -10   5   74.29   11.30
  -3 -10   5   66.09    8.30
  -3 -10   5   74.39    8.40
  -2 -10   5   -0.80    3.20
  -2 -10   5   -3.90    3.50
  -2 -10   5   -1.50    6.20
  -1 -10   5    7.30    5.30
  -1 -10   5    0.00    5.80
  -1 -10   5   -4.90    6.60
   0 -10   5  469.55   19.30
   0 -10   5  439.26   21.60
   0 -10   5  422.56   19.90
   1 -10   5  627.44   23.00
   1 -10   5  627.74   26.30
   2 -10   5  224.28   14.30
   2 -10   5  230.18    9.20
   2 -10   5  235.08   11.00
   3 -10   5  863.31   23.60
   3 -10   5  865.51   29.30
   3 -10   5  856.81   23.70
  -4  10  -5  377.16   21.70
   4 -10   5  355.46   19.60
   4 -10   5  401.26   17.00
   4 -10   5  380.86   16.50
  -5  10  -5   28.80   12.10
  -5  10  -5   14.00    7.60
   5 -10   5   38.00    9.20
   5 -10   5   27.10    7.80
   5 -10   5   34.50    7.50
  -6  10  -5   64.89   11.50
  -6  10  -5   67.59   13.40
   6 -10   5   74.19   11.40
   6 -10   5   56.69   10.50
   6 -10   5   68.99   11.00
  -7  10  -5   64.19   14.20
   7 -10   5   55.69   12.70
   7 -10   5   64.69   11.90
   5   9  -5   20.20    8.50
  -5  -9   5   26.20    8.40
  -5  -9   5   -1.30    8.50
  -5  -9   5   10.60    7.40
   4   9  -5  131.39   12.80
  -4  -9   5  150.88   13.70
  -4  -9   5  133.69   12.70
  -4  -9   5  135.59   11.90
   3   9  -5  836.72   26.30
  -3  -9   5  795.12   24.10
  -3  -9   5  859.01   24.40
  -3  -9   5  821.82   27.20
  -3  -9   5  855.61   29.30
  -2  -9   5  588.24   23.90
  -2  -9   5  604.84   17.10
  -2  -9   5  561.94   17.00
  -1  -9   5  638.24   25.00
  -1  -9   5  619.24   15.40
  -1  -9   5  633.04   21.40
  -1  -9   5  677.13   22.80
  -1  -9   5  640.54   16.10
   0  -9   5  420.66   17.10
   0  -9   5  440.96   18.00
   0  -9   5  432.96   20.30
   1  -9   5  309.97    9.80
   1  -9   5  321.07   17.80
   1  -9   5  317.87   17.60
   1  -9   5  334.47    9.60
   1  -9   5  295.87   14.60
   2  -9   5   81.89    9.20
   2  -9   5   76.99    9.80
   2  -9   5   81.19   10.90
   2  -9   5   83.29    6.60
   2  -9   5   72.89    6.20
   3  -9   5   94.69    8.10
   3  -9   5   81.69   10.00
   3  -9   5   94.59    8.20
  -4   9  -5  236.28   16.50
  -4   9  -5  204.28   11.40
   4  -9   5  213.78   14.70
   4  -9   5  187.58   12.40
   4  -9   5  195.28   12.20
  -5   9  -5   71.79   12.00
  -5   9  -5   71.59    9.60
   5  -9   5   51.69    8.30
   5  -9   5   63.49    9.40
   5  -9   5   61.99    9.80
  -6   9  -5  399.46   23.30
   6  -9   5  406.26   21.00
   6  -9   5  380.96   22.00
   6  -9   5  358.56   23.10
  -7   9  -5  634.84   31.00
  -7   9  -5  605.14   30.40
   7  -9   5  678.03   36.00
   7  -9   5  730.03   31.80
   7  -9   5  608.14   29.00
  -8   9  -5   24.40   14.00
   8  -9   5   14.20   11.50
   8  -9   5   34.60   12.20
   6   8  -5  447.96   28.90
  -6  -8   5  451.95   21.20
  -6  -8   5  460.85   24.10
   5   8  -5   74.89    9.80
  -5  -8   5   71.09   10.70
  -5  -8   5   84.59   11.30
  -5  -8   5   85.99   11.90
   4   8  -5  203.88   12.80
  -4  -8   5  210.08   14.30
  -4  -8   5  195.88   14.10
  -4  -8   5  164.98   12.10
  -4  -8   5  201.38   17.10
  -4  -8   5  200.78   15.40
   3   8  -5   62.39    8.00
  -3  -8   5   64.99    8.00
  -3  -8   5   59.49    7.20
  -3  -8   5   48.20    8.80
  -3  -8   5   66.19    8.40
  -3  -8   5   69.59   10.00
  -2  -8   5    2.60    4.80
  -2  -8   5    7.30    3.40
  -2  -8   5    1.40    2.80
  -2  -8   5    4.30    4.40
  -2  -8   5   -3.30    5.30
  -1  -8   5    5.50    4.30
  -1  -8   5    5.50    5.60
  -1  -8   5    1.60    4.90
  -1  -8   5    1.80    3.30
  -1  -8   5    2.70    2.80
  -1  -8   5   -1.50    2.30
   0  -8   5  759.52   17.60
   0  -8   5  752.82   22.50
   0  -8   5  748.83   26.60
   0  -8   5  825.72   18.30
   0  -8   5  805.12   26.80
   0  -8   5  785.52   23.20
   1  -8   5  694.23   17.70
   1  -8   5  724.23   25.80
   1  -8   5  713.53   25.40
   1  -8   5  712.33   21.90
   1  -8   5  710.93   22.30
   2  -8   5  131.19   10.00
   2  -8   5  125.19    7.70
   2  -8   5  148.39    8.10
   2  -8   5  105.19   12.00
  -3   8  -5 1555.84   42.70
  -3   8  -5 1484.45   39.90
  -3   8  -5 1490.15   33.10
   3  -8   5 1470.75   39.30
   3  -8   5 1544.25   36.50
   3  -8   5 1541.65   36.60
  -4   8  -5  629.64   25.30
  -4   8  -5  614.94   20.80
   4  -8   5  660.43   22.10
   4  -8   5  607.84   21.80
   4  -8   5  619.94   23.80
  -5   8  -5   41.40    9.10
  -5   8  -5   21.80    6.70
   5  -8   5   24.40    7.20
   5  -8   5   21.80    7.00
   5  -8   5   15.90    5.90
  -6   8  -5    8.60    7.70
  -6   8  -5    9.70    7.70
   6  -8   5    6.70    7.20
   6  -8   5    0.30    7.10
   6  -8   5    7.00    6.60
  -7   8  -5    4.60    8.10
  -7   8  -5   -4.70    9.40
   7  -8   5    1.20    7.40
   7  -8   5    3.90   10.00
   7  -8   5    4.50    7.50
  -8   8  -5   67.19   13.50
   8  -8   5   99.09   16.50
   8  -8   5   84.29   15.10
   6   7  -5   24.20    8.00
  -6  -7   5    4.30    7.00
  -6  -7   5   23.00   10.40
   5   7  -5   50.59    7.90
   5   7  -5   57.39   10.90
   5   7  -5   49.40    8.30
  -5  -7   5   46.30    9.50
  -5  -7   5   36.90    7.90
  -5  -7   5   48.70    9.00
  -5  -7   5   33.80    8.20
   4   7  -5  217.48   11.90
  -4  -7   5  222.88   12.90
  -4  -7   5  216.78   12.80
  -4  -7   5  213.98   13.90
  -4  -7   5  203.78   13.30
   3   7  -5 1179.98   29.30
  -3  -7   5 1170.18   29.60
  -3  -7   5 1198.78   34.20
  -3  -7   5 1158.18   30.20
  -3  -7   5 1152.98   30.10
  -2  -7   5 1006.70   25.90
  -2  -7   5 1028.70   25.10
  -2  -7   5 1010.70   24.80
  -2  -7   5 1001.30   30.40
  -1  -7   5   85.09    9.50
  -1  -7   5   87.19    5.60
  -1  -7   5   95.59    7.50
  -1  -7   5   88.39    6.60
  -1  -7   5   83.99    6.80
  -1  -7   5   79.59   10.70
   0  -7   5 1192.38   28.70
   0  -7   5 1148.39   30.80
   0  -7   5 1163.88   33.30
   0  -7   5 1169.38   25.70
   0  -7   5 1148.59   25.30
   1  -7   5   72.19    5.60
   1  -7   5   74.09    6.80
   1  -7   5   78.09    7.60
   1  -7   5   48.90    7.20
   1  -7   5   61.19    8.00
   1  -7   5   68.99    6.90
  -2   7  -5   12.30    3.10
  -2   7  -5    5.80    4.20
  -2   7  -5    9.20    2.50
   2  -7   5    0.60    3.30
   2  -7   5    5.30    3.40
  -3   7  -5  203.38   12.70
  -3   7  -5  199.88   13.40
   3  -7   5  208.18   12.20
   3  -7   5  197.48   11.00
   3  -7   5  190.38   10.70
  -4   7  -5  990.50   28.30
  -4   7  -5  923.21   31.00
   4  -7   5 1009.00   29.50
   4  -7   5  973.10   28.90
   4  -7   5  962.40   30.00
  -5   7  -5   16.00    6.30
  -5   7  -5   33.80    7.90
   5  -7   5   13.00    5.90
   5  -7   5   16.40    6.80
   5  -7   5   11.60    6.10
  -6   7  -5  408.76   21.80
  -6   7  -5  376.26   20.80
   6  -7   5  404.26   21.80
   6  -7   5  377.06   21.90
   6  -7   5  390.96   21.10
  -7   7  -5  515.75   26.00
  -7   7  -5  508.25   26.80
   7  -7   5  473.15   25.50
   7  -7   5  497.55   26.10
   7  -7   5  492.75   28.60
  -8   7  -5  216.88   20.20
  -8   7  -5  179.08   24.60
   8  -7   5  242.98   22.30
   8  -7   5  219.58   21.40
   7   6  -5  250.97   17.70
  -7  -6   5  233.78   19.70
  -7  -6   5  224.08   16.80
   6   6  -5  865.61   30.00
   6   6  -5  855.11   27.40
  -6  -6   5  886.21   29.50
  -6  -6   5  837.62   31.70
  -6  -6   5  859.61   32.70
  -6  -6   5  863.81   28.40
   5   6  -5   69.39    9.10
   5   6  -5   88.39    9.20
   5   6  -5   70.49   10.90
  -5  -6   5   60.59    8.20
  -5  -6   5   77.39   10.20
  -5  -6   5   71.59   10.20
  -5  -6   5   71.59   10.00
   4   6  -5    6.40    5.00
   4   6  -5   -3.40    5.60
   4   6  -5    7.60    4.30
  -4  -6   5   -4.00    4.30
  -4  -6   5    8.50    8.30
  -4  -6   5   -0.50    4.10
  -4  -6   5    0.90    4.80
   3   6  -5  116.09   10.90
   3   6  -5  105.19    7.20
   3   6  -5  114.49    6.80
  -3  -6   5  104.59    7.40
  -3  -6   5   96.79   10.20
  -3  -6   5  106.79    8.60
  -3  -6   5  113.29    8.30
   2   6  -5  245.68   13.60
  -2  -6   5  252.97   10.50
  -2  -6   5  228.88    9.90
  -2  -6   5  243.08   13.50
  -2  -6   5  244.28    9.80
  -1  -6   5   95.89    9.20
  -1  -6   5  110.29    6.40
  -1  -6   5   93.99    6.10
  -1  -6   5   95.09    9.30
  -1  -6   5   97.39    6.00
  -1  -6   5  106.89    6.70
   0  -6   5 2042.20   42.50
   0  -6   5 2297.57   49.00
   0  -6   5 2124.29   42.80
   0  -6   5 2065.19   48.80
   0  -6   5 2042.00   49.00
  -1   6  -5 2566.44   52.49
  -1   6  -5 2496.15   47.40
  -1   6  -5 2518.85   47.10
   1  -6   5 2549.34   56.79
   1  -6   5 2407.66   56.49
   1  -6   5 2635.64   51.09
   1  -6   5 2428.56   50.39
   1  -6   5 2561.04   52.19
  -2   6  -5   74.29    6.30
  -2   6  -5   77.79    7.70
  -2   6  -5   63.79    6.10
   2  -6   5   78.99    7.00
   2  -6   5   79.49    7.40
  -3   6  -5 1384.56   37.70
  -3   6  -5 1442.86   36.70
  -3   6  -5 1401.46   34.50
   3  -6   5 1383.86   35.00
   3  -6   5 1437.56   38.30
   3  -6   5 1409.06   35.30
   3  -6   5 1406.66   35.90
  -4   6  -5  201.28   16.40
  -4   6  -5  203.68   12.60
  -4   6  -5  217.08   13.70
   4  -6   5  191.78   16.20
   4  -6   5  204.58   13.10
   4  -6   5  217.18   13.40
   4  -6   5  195.78   12.60
  -5   6  -5  390.06   19.20
  -5   6  -5  339.37   18.20
   5  -6   5  367.36   18.70
   5  -6   5  343.17   18.20
   5  -6   5  395.46   19.80
  -6   6  -5  131.89   14.50
  -6   6  -5  128.79   14.30
   6  -6   5  170.08   14.90
   6  -6   5  161.38   16.30
   6  -6   5  131.69   14.10
  -7   6  -5  248.08   20.40
  -7   6  -5  271.47   18.80
   7  -6   5  281.87   20.40
   7  -6   5  256.57   23.70
   7  -6   5  296.67   21.10
  -8   6  -5   37.10   10.60
  -8   6  -5   39.80   15.30
   8  -6   5   36.60   12.00
   8  -6   5   38.20   12.90
   7   5  -5   -5.90    6.50
  -7  -5   5    3.70    7.30
  -7  -5   5    1.80    7.20
   6   5  -5  217.48   13.20
  -6  -5   5  220.18   15.10
  -6  -5   5  206.08   16.30
  -6  -5   5  190.48   16.70
   5   5  -5  249.18   12.30
   5   5  -5  249.48   16.00
  -5  -5   5  245.68   12.30
  -5  -5   5  239.48   15.00
  -5  -5   5  239.78   15.20
  -5  -5   5  249.48   14.90
   4   5  -5  504.35   15.60
   4   5  -5  495.55   20.20
  -4  -5   5  500.15   19.00
  -4  -5   5  505.15   18.90
  -4  -5   5  499.25   15.50
  -4  -5   5  509.35   20.10
   3   5  -5 1711.83   34.70
   3   5  -5 1751.32   41.90
   3   5  -5 1564.04   39.20
  -3  -5   5 1676.33   38.80
  -3  -5   5 1691.93   34.70
  -3  -5   5 1593.24   38.40
  -3  -5   5 1689.73   41.70
   2   5  -5 2031.40   47.50
   2   5  -5 2057.39   41.40
  -2  -5   5 2115.69   40.50
  -2  -5   5 2067.49   43.50
  -2  -5   5 2042.90   43.60
  -2  -5   5 2051.79   47.90
   1   5  -5  245.88   12.60
   1   5  -5  232.08    7.60
  -1  -5   5  237.88    9.20
  -1  -5   5  213.68    9.10
  -1  -5   5  240.98    8.10
  -1  -5   5  228.48    7.90
  -1  -5   5  246.08   12.50
   0   5  -5  317.17    9.20
   0  -5   5  337.67   11.40
   0  -5   5  341.07   14.60
   0  -5   5  309.37   10.30
   0  -5   5  335.27   11.30
   0  -5   5  311.87   14.20
   0  -5   5  324.57   10.60
  -1   5  -5  117.99    6.30
  -1   5  -5  122.59    7.50
  -1   5  -5  122.69    7.00
   1  -5   5  119.09    7.40
   1  -5   5  135.19    7.50
   1  -5   5  135.19    7.40
  -2   5  -5   23.40    4.00
  -2   5  -5   22.60    4.50
  -2   5  -5   26.00    4.90
   2  -5   5   22.50    4.70
   2  -5   5   23.20    4.60
   2  -5   5   27.70    6.20
  -3   5  -5  233.28   12.60
  -3   5  -5  212.08   11.80
  -3   5  -5  227.58   12.70
   3  -5   5  209.98   12.70
   3  -5   5  224.68   12.00
   3  -5   5  224.38   12.00
   3  -5   5  237.48   12.30
  -4   5  -5 1675.83   43.10
  -4   5  -5 1719.13   42.90
  -4   5  -5 1714.33   43.80
  -4   5  -5 1676.33   43.50
   4  -5   5 1766.02   43.70
   4  -5   5 1726.93   43.80
   4  -5   5 1758.02   44.00
   4  -5   5 1755.82   44.20
  -5   5  -5  335.97   17.70
  -5   5  -5  358.36   17.60
   5  -5   5  345.27   17.80
   5  -5   5  308.37   17.70
   5  -5   5  326.27   18.50
  -6   5  -5  271.07   16.80
  -6   5  -5  277.57   18.50
   6  -5   5  302.67   19.40
   6  -5   5  312.07   18.80
   6  -5   5  270.97   19.60
  -7   5  -5 1061.99   39.10
  -7   5  -5 1073.29   35.40
   7  -5   5 1075.19   38.10
   7  -5   5 1037.80   41.20
   7  -5   5  962.50   42.10
  -8   5  -5   85.99   12.90
  -8   5  -5  103.79   17.80
   8  -5   5  109.39   17.20
   8  -5   5   96.99   16.90
  -8  -4   5  111.99   14.00
  -8  -4   5  100.69   16.50
   7   4  -5  135.29   13.20
   7   4  -5  142.39   17.60
  -7  -4   5  159.48   18.30
  -7  -4   5  152.78   18.30
  -7  -4   5  149.49   15.90
  -7  -4   5  164.48   15.00
   6   4  -5 1145.29   30.90
   6   4  -5 1096.29   34.40
  -6  -4   5 1111.79   34.10
  -6  -4   5 1192.38   37.30
  -6  -4   5 1136.09   36.50
  -6  -4   5 1120.69   30.70
   5   4  -5  724.43   21.00
   5   4  -5  696.13   25.20
   5   4  -5  656.13   23.10
  -5  -4   5  716.23   25.40
  -5  -4   5  674.53   24.70
  -5  -4   5  687.63   24.70
  -5  -4   5  696.43   20.10
   4   4  -5  137.69    7.30
   4   4  -5  129.99   11.20
   4   4  -5  135.39    9.50
  -4  -4   5  137.59   10.30
  -4  -4   5  137.99    7.20
  -4  -4   5  128.79   10.80
  -4  -4   5  148.19   10.50
   3   4  -5   22.90    3.00
   3   4  -5   20.40    4.20
   3   4  -5   31.90    6.40
  -3  -4   5   27.50    4.90
  -3  -4   5   22.20    5.40
  -3  -4   5   27.10    5.10
  -3  -4   5   29.50    3.30
   2   4  -5  244.78   12.50
   2   4  -5  215.68    8.90
  -2  -4   5  224.68   12.00
  -2  -4   5  225.98    6.20
  -2  -4   5  218.98    9.80
  -2  -4   5  192.08    9.30
  -2  -4   5  226.38    6.20
   1   4  -5   29.90    5.60
   1   4  -5   25.80    3.70
   1   4  -5   22.10    3.40
  -1  -4   5   23.70    2.80
  -1  -4   5   20.30    3.70
  -1  -4   5   27.80    5.40
  -1  -4   5   26.50    2.70
  -1  -4   5   24.00    3.90
   0   4  -5 1972.70   39.20
   0   4  -5 1911.21   37.90
   0  -4   5 1892.61   37.70
   0  -4   5 1889.61   40.50
  -1   4  -5 3730.23   71.29
  -1   4  -5 3590.94   72.09
   1  -4   5 3670.23   71.19
   1  -4   5 3650.63   74.89
   1  -4   5 3676.33   72.69
   1  -4   5 3846.52   73.09
   1  -4   5 3762.62   75.19
  -2   4  -5  480.85   16.10
  -2   4  -5  490.75   16.10
  -2   4  -5  487.75   16.70
   2  -4   5  512.35   16.90
   2  -4   5  464.15   17.30
   2  -4   5  496.55   16.80
   2  -4   5  461.75   17.20
  -3   4  -5  601.24   20.00
  -3   4  -5  591.94   20.20
  -3   4  -5  600.54   20.30
  -3   4  -5  605.04   20.40
   3  -4   5  583.54   20.30
   3  -4   5  605.34   20.00
   3  -4   5  622.04   20.70
   3  -4   5  617.44   20.80
  -4   4  -5 1293.97   36.20
  -4   4  -5 1268.77   34.70
  -4   4  -5 1425.26   37.50
  -4   4  -5 1318.37   36.40
   4  -4   5 1380.96   36.40
   4  -4   5 1311.37   36.80
   4  -4   5 1312.17   36.80
   4  -4   5 1349.36   35.70
  -5   4  -5    8.60    4.90
  -5   4  -5   10.20    7.80
  -5   4  -5   -1.50    5.00
   5  -4   5   -1.40    5.50
   5  -4   5    4.50    5.70
   5  -4   5    0.90    4.90
   5  -4   5   -4.20    4.80
  -6   4  -5   94.59   13.50
  -6   4  -5   94.19   11.20
   6  -4   5   82.69   12.50
   6  -4   5   75.29   11.30
   6  -4   5   86.79   12.50
  -7   4  -5  214.78   15.70
  -7   4  -5  196.48   19.50
   7  -4   5  236.68   20.50
   7  -4   5  207.58   18.10
   7  -4   5  162.78   20.30
  -8   4  -5  170.38   16.60
  -8   4  -5  184.58   23.10
   8  -4   5  183.68   22.30
   8  -4   5  168.78   19.20
   8   3  -5   61.99   10.70
  -8  -3   5   57.29   13.10
  -8  -3   5   51.59   10.70
   7   3  -5   31.80    6.90
   7   3  -5   25.70    8.90
  -7  -3   5   24.70    8.40
  -7  -3   5    6.20    9.50
  -7  -3   5   11.60    8.20
   6   3  -5  493.75   17.80
   6   3  -5  460.95   21.10
  -6  -3   5  462.55   22.10
  -6  -3   5  490.85   21.00
  -6  -3   5  453.95   22.10
  -6  -3   5  464.05   17.40
   5   3  -5  371.26   17.20
   5   3  -5  424.56   14.30
   5   3  -5  431.16   19.20
  -5  -3   5  443.86   19.30
  -5  -3   5  397.96   18.30
  -5  -3   5  412.86   18.40
  -5  -3   5  421.46   14.30
   4   3  -5   11.70    4.40
   4   3  -5   16.40    3.10
   4   3  -5   17.90    5.00
   4   3  -5    6.20    4.80
  -4  -3   5   12.90    2.90
  -4  -3   5   13.90    4.90
  -4  -3   5   12.20    4.50
  -4  -3   5   21.80    5.80
   3   3  -5 3684.53   73.59
   3   3  -5 3738.83   76.59
   3   3  -5 3683.63   67.09
   3   3  -5 3763.52   73.99
  -3  -3   5 3699.13   76.59
  -3  -3   5 3778.52   74.99
  -3  -3   5 3736.13   74.69
  -3  -3   5 3695.43   66.99
   2   3  -5 3353.86   68.49
   2   3  -5 3324.87   64.69
   2   3  -5 3324.87   65.19
  -2  -3   5 3196.08   65.59
  -2  -3   5 3329.87   66.09
  -2  -3   5 3357.76   72.59
   1   3  -5   21.80    4.00
   1   3  -5   12.70    4.20
   1   3  -5   19.30    3.50
  -1  -3   5   18.60    3.90
  -1  -3   5   14.70    1.80
  -1  -3   5   20.70    5.10
  -1  -3   5   19.00    1.80
   0   3  -5   61.89    5.80
   0   3  -5   58.39    5.60
   0   3  -5   70.79    4.50
   0   3  -5   67.89    6.90
   0  -3   5   71.39    6.40
   0  -3   5   56.09    6.60
   0  -3   5   70.39    6.10
   0  -3   5   73.29    4.40
  -1   3  -5  393.76   14.30
  -1   3  -5  422.46   14.10
   1  -3   5  426.06   14.90
   1  -3   5  392.96   14.00
   1  -3   5  413.46   15.10
   1  -3   5  418.66   12.90
   1  -3   5  412.46   14.60
  -2   3  -5   14.90    3.80
  -2   3  -5   19.40    4.30
  -2   3  -5   19.50    4.60
   2  -3   5   23.40    4.90
   2  -3   5   30.40    5.80
   2  -3   5   17.50    6.80
   2  -3   5   23.20    4.80
   2  -3   5   16.50    4.20
  -3   3  -5  722.43   22.60
  -3   3  -5  680.93   22.50
   3  -3   5  734.53   23.40
   3  -3   5  667.13   21.10
   3  -3   5  667.93   21.70
  -4   3  -5 1166.08   33.60
  -4   3  -5 1141.19   30.80
  -4   3  -5 1131.19   33.70
  -4   3  -5 1161.48   33.80
   4  -3   5 1138.69   32.80
   4  -3   5 1189.18   34.20
   4  -3   5 1176.68   31.50
  -5   3  -5  623.44   21.60
  -5   3  -5  630.04   25.30
  -5   3  -5  672.53   26.50
   5  -3   5  640.94   26.30
   5  -3   5  600.34   24.30
   5  -3   5  624.64   25.60
   5  -3   5  606.74   22.20
  -6   3  -5   40.40    9.40
  -6   3  -5   54.79    8.30
   6  -3   5   29.80   12.40
   6  -3   5   33.80    8.90
   6  -3   5   34.60    8.90
   6  -3   5   43.10   10.40
  -7   3  -5  755.12   27.10
  -7   3  -5  811.32   34.90
   7  -3   5  753.72   32.20
   7  -3   5  770.92   34.00
  -8   3  -5  202.68   24.50
   8  -3   5  193.58   21.10
   8  -3   5  211.18   24.50
   8   2  -5  191.98   15.30
   8   2  -5  198.28   20.90
  -8  -2   5  184.38   16.80
  -8  -2   5  179.78   18.50
   7   2  -5  127.79   11.30
   7   2  -5  115.59   14.40
  -7  -2   5  131.89   12.40
  -7  -2   5  128.19   13.60
  -7  -2   5  123.89   14.50
   6   2  -5 1020.10   32.40
   6   2  -5 1005.10   27.20
  -6  -2   5  990.90   33.20
  -6  -2   5  985.00   32.80
  -6  -2   5  989.70   26.90
  -6  -2   5 1009.30   31.80
   5   2  -5  831.42   26.20
   5   2  -5  785.02   25.90
   5   2  -5  756.42   26.90
   5   2  -5  779.22   20.80
  -5  -2   5  770.92   20.50
  -5  -2   5  764.12   25.90
  -5  -2   5  803.22   26.60
  -5  -2   5  787.02   26.20
   4   2  -5   26.90    5.30
   4   2  -5   26.50    6.30
   4   2  -5   30.50    3.60
   4   2  -5   25.30    4.70
  -4  -2   5   35.40    6.50
  -4  -2   5   29.50    5.60
  -4  -2   5   27.60    3.50
  -4  -2   5   33.80    5.90
   3   2  -5   17.40    4.30
   3   2  -5    9.10    4.70
   3   2  -5   20.20    2.30
   3   2  -5   18.00    4.10
  -3  -2   5   21.20    4.80
  -3  -2   5   18.80    4.50
  -3  -2   5   16.10    4.10
  -3  -2   5   19.10    2.30
   2   2  -5  594.14   17.70
   2   2  -5  567.34   18.70
   2   2  -5  595.44   17.40
  -2  -2   5  637.54   18.30
  -2  -2   5  655.53   18.40
  -2  -2   5  571.84   19.30
   1   2  -5   27.00    2.20
   1   2  -5   26.50    5.50
   1   2  -5   27.60    4.10
   1   2  -5   26.80    4.20
  -1  -2   5   32.00    2.30
  -1  -2   5   37.50    4.90
  -1  -2   5   32.30    5.10
   0   2  -5 2987.50   59.09
   0   2  -5 2890.41   59.09
   0   2  -5 2921.91   54.89
   0   2  -5 2911.01   58.39
   0  -2   5 2883.31   58.89
   0  -2   5 2901.81   58.99
   0  -2   5 2846.02   54.69
  -1   2  -5 3404.36   66.99
  -1   2  -5 3346.27   67.49
   1  -2   5 3380.06   67.89
   1  -2   5 3286.77   66.09
   1  -2   5 3183.68   67.19
   1  -2   5 3369.26   66.39
  -2   2  -5  815.02   22.60
  -2   2  -5  755.42   23.50
  -2   2  -5  828.02   23.70
   2  -2   5  803.62   21.70
   2  -2   5  795.12   22.50
   2  -2   5  793.02   23.40
   2  -2   5  786.12   21.70
   2  -2   5  808.32   23.90
  -3   2  -5  346.67   15.10
  -3   2  -5  352.16   15.80
  -3   2  -5  317.17   15.20
   3  -2   5  346.97   15.00
   3  -2   5  335.57   15.20
   3  -2   5  327.37   13.30
   3  -2   5  305.47   17.30
   3  -2   5  368.86   16.40
  -4   2  -5  252.67   15.10
  -4   2  -5  256.07   21.00
  -4   2  -5  289.77   16.00
   4  -2   5  272.87   13.00
   4  -2   5  304.47   16.70
   4  -2   5  282.67   15.20
  -5   2  -5  275.17   24.90
  -5   2  -5  273.57   17.40
   5  -2   5  260.97   17.80
   5  -2   5  251.47   13.60
   5  -2   5  261.27   16.20
   5  -2   5  247.28   16.60
  -6   2  -5   -9.50   11.20
  -6   2  -5    7.30    7.20
   6  -2   5    0.20   11.00
   6  -2   5    2.50    6.80
   6  -2   5    4.40    6.30
   6  -2   5    4.20    6.90
  -7   2  -5  261.87   22.50
   7  -2   5  316.57   21.90
   7  -2   5  275.67   19.60
  -8   2  -5  406.06   43.10
   8  -2   5  366.16   20.40
   8  -2   5  391.96   26.40
   9   1  -5  147.19   16.20
  -9  -1   5  177.18   18.00
  -9  -1   5  104.59   17.60
   8   1  -5   24.20   11.10
   8   1  -5   34.90    8.80
  -8  -1   5   25.40   12.40
  -8  -1   5   37.70   10.00
  -8  -1   5   29.70   10.00
   7   1  -5   48.20    7.70
   7   1  -5   30.30    8.50
  -7  -1   5   54.79   10.90
  -7  -1   5   48.80    8.10
  -7  -1   5   46.10   10.00
  -7  -1   5   51.69    9.50
   6   1  -5  946.21   30.80
   6   1  -5  926.81   25.60
  -6  -1   5  898.21   30.10
  -6  -1   5  940.81   36.60
  -6  -1   5  918.21   31.20
  -6  -1   5  922.41   25.50
   5   1  -5 1562.64   41.70
   5   1  -5 1564.74   41.10
   5   1  -5 1581.44   40.60
   5   1  -5 1532.55   34.40
  -5  -1   5 1563.34   34.40
  -5  -1   5 1535.45   40.60
  -5  -1   5 1566.74   41.10
  -5  -1   5 1498.35   40.60
   4   1  -5  160.78   11.40
   4   1  -5  165.98   10.40
   4   1  -5  182.08   10.90
   4   1  -5  159.68    7.00
  -4  -1   5  148.19   10.80
  -4  -1   5  146.09   10.30
  -4  -1   5  142.79   10.40
  -4  -1   5  169.98    7.10
   3   1  -5 2446.86   52.89
   3   1  -5 2491.95   46.00
   3   1  -5 2562.84   53.29
   3   1  -5 2474.35   45.90
   3   1  -5 2455.75   54.19
  -3  -1   5 2494.85   54.49
  -3  -1   5 2504.55   53.49
  -3  -1   5 2462.95   53.39
   2   1  -5 2084.39   38.00
   2   1  -5 2105.29   44.90
   2   1  -5 1994.10   44.30
   2   1  -5 2099.99   38.00
  -2  -1   5 2108.59   45.10
  -2  -1   5 2101.89   49.60
   1   1  -5  377.76   13.40
   1   1  -5  375.66   13.40
   1   1  -5  373.66   13.50
   1   1  -5  364.96    9.50
  -1  -1   5  372.46   13.50
  -1  -1   5  344.27   13.20
  -1  -1   5  350.66   13.10
  -1  -1   5  371.16    9.60
   0   1  -5  650.13   16.40
   0   1  -5  621.34   19.10
   0  -1   5  663.83   19.60
   0  -1   5  631.74   18.90
   0  -1   5  640.04   16.30
   0  -1   5  638.84   18.40
  -1   1  -5  623.64   19.90
  -1   1  -5  652.73   18.30
   1  -1   5  655.63   20.20
   1  -1   5  618.94   17.50
   1  -1   5  649.24   18.10
   1  -1   5  616.54   19.50
  -2   1  -5   -2.00    3.40
  -2   1  -5   -3.00    3.20
  -2   1  -5   -2.10    3.40
   2  -1   5    3.10    3.40
   2  -1   5   -1.60    3.60
   2  -1   5   -7.20    2.90
   2  -1   5    0.20    2.50
  -3   1  -5  134.09   10.80
  -3   1  -5  123.09   10.60
   3  -1   5  125.89   10.50
   3  -1   5  130.09    9.10
   3  -1   5  126.39   10.10
   3  -1   5  164.88   11.90
   3  -1   5  135.19    7.90
  -4   1  -5 2058.29   51.79
   4  -1   5 2063.69   51.89
   4  -1   5 2042.20   44.20
   4  -1   5 2093.39   52.19
   4  -1   5 1971.00   49.90
   4  -1   5 2058.19   44.60
  -5   1  -5 1267.77   39.60
  -5   1  -5 1164.48   38.00
   5  -1   5 1142.09   30.50
   5  -1   5 1247.88   35.80
   5  -1   5 1208.08   39.10
   5  -1   5 1248.98   41.80
  -6   1  -5   70.19   14.20
  -6   1  -5   70.29   12.20
   6  -1   5   73.49    9.20
   6  -1   5   80.89   12.60
   6  -1   5   66.29   10.70
   6  -1   5   59.09    7.60
  -7   1  -5  259.47   22.90
   7  -1   5  281.67   26.60
   7  -1   5  282.47   24.60
   7  -1   5  230.88   13.80
   7  -1   5  267.77   21.10
   9   0  -5  424.16   34.80
   9   0  -5  464.65   23.60
  -9   0   5  419.96   24.90
  -9   0   5  424.36   27.80
   8   0  -5  896.11   30.10
   8   0  -5  908.71   36.20
  -8   0   5  961.00   38.50
  -8   0   5  969.90   37.70
  -8   0   5  888.81   33.60
   7   0  -5  133.79   16.80
   7   0  -5  107.59   10.50
  -7   0   5  100.09   13.50
  -7   0   5  146.59   16.20
  -7   0   5  118.79   13.00
  -7   0   5  119.99   11.60
   6   0  -5  808.62   28.40
   6   0  -5  777.42   28.20
   6   0  -5  779.42   23.20
  -6   0   5  814.92   28.10
  -6   0   5  772.02   28.50
  -6   0   5  832.82   23.70
  -6   0   5  799.62   28.50
   5   0  -5  346.27   16.80
   5   0  -5  314.77   15.80
   5   0  -5  345.37   12.60
   5   0  -5  336.07   17.10
  -5   0   5  332.77   16.40
  -5   0   5  333.27   12.50
  -5   0   5  338.27   16.30
  -5   0   5  342.37   22.20
   4   0  -5   41.00    6.60
   4   0  -5   25.70    3.60
   4   0  -5   21.60    5.50
   4   0  -5   17.10    4.30
  -4   0   5   24.80    5.60
  -4   0   5   24.20    3.60
   3   0  -5  810.42   17.80
   3   0  -5  781.62   17.90
   3   0  -5  743.13   26.00
   3   0  -5  773.82   22.70
   3   0  -5  750.82   22.40
  -3   0   5  823.82   23.80
  -3   0   5  801.52   23.00
   2   0  -5 2069.99   40.00
   2   0  -5 2084.69   45.30
   2   0  -5 2069.09   45.50
   2   0  -5 2100.19   45.30
  -2   0   5 2087.09   45.30
  -2   0   5 2070.29   45.60
   1   0  -5    6.10    3.40
   1   0  -5   -0.50    2.10
   1   0  -5    5.30    5.60
   1   0  -5    2.10    3.20
  -1   0   5   12.60    4.00
  -1   0   5   -0.40    2.10
  -1   0   5   10.00    5.70
  -1   0   5    3.20    2.90
   0   0  -5  207.18    9.40
   0   0  -5  223.88   11.00
   0   0  -5  223.78   11.00
   0   0   5  248.68    9.90
   0   0   5  216.58    9.20
  -1   0  -5 8946.30  163.98
  -1   0  -5 9075.39  161.38
  -1   0  -5 8816.52  166.18
  -1   0  -5 9014.60  166.38
   1   0   5 9041.40  166.48
   1   0   5 8894.51  167.48
   1   0   5 8808.02  165.68
   1   0   5 8920.91  161.18
  -2   0  -5 1099.99   29.90
  -2   0  -5  992.70   28.00
  -2   0  -5 1046.30   29.30
   2   0   5 1025.80   23.80
   2   0   5 1010.90   28.90
   2   0   5 1012.30   28.00
   2   0   5  996.60   29.10
   2   0   5 1030.50   23.80
  -3   0  -5  161.48   12.10
  -3   0  -5  181.98   14.20
   3   0   5  170.88    7.90
   3   0   5  175.08   12.70
   3   0   5  171.48   11.70
   3   0   5  178.38    8.10
   3   0   5  184.48   12.80
  -4   0  -5  371.26   19.50
  -4   0  -5  384.76   19.10
   4   0   5  370.26   22.20
   4   0   5  363.46   18.00
   4   0   5  366.06   12.40
   4   0   5  379.16   19.80
  -5   0  -5    9.80    7.40
  -5   0  -5   -2.50    7.40
   5   0   5    1.20    5.70
   5   0   5   -2.60    3.70
   5   0   5   -7.90    6.00
  -6   0  -5    4.50    7.80
   6   0   5   -1.10   12.30
   6   0   5    9.90    7.40
  -7   0  -5  418.86   27.80
   7   0   5  413.96   20.40
   7   0   5  457.65   31.40
   7   0   5  447.26   29.80
   9  -1  -5  135.99   15.80
   9  -1  -5  115.09   18.10
  -9   1   5  124.89   16.70
  -9   1   5   98.09   14.10
   8  -1  -5   19.70    7.20
   8  -1  -5    8.00    8.40
  -8   1   5    8.90    8.40
  -8   1   5    9.80   11.20
  -8   1   5    1.70    6.70
   7  -1  -5   27.80   12.80
   7  -1  -5   36.20    7.00
  -7   1   5   55.69   10.00
  -7   1   5   39.50    9.70
  -7   1   5   27.50    8.90
  -7   1   5   41.30    8.10
   6  -1  -5 1099.19   36.50
   6  -1  -5 1078.49   29.00
   6  -1  -5 1087.49   34.20
  -6   1   5 1053.49   28.70
  -6   1   5 1158.98   35.20
  -6   1   5  997.00   33.00
  -6   1   5 1098.89   34.30
   5  -1  -5 1407.76   35.80
   5  -1  -5 1399.86   38.00
   5  -1  -5 1381.96   38.60
  -5   1   5 1450.25   38.50
  -5   1   5 1422.06   38.40
  -5   1   5 1373.16   38.30
  -5   1   5 1394.86   32.80
   4  -1  -5  590.64   20.20
   4  -1  -5  577.94   20.70
   4  -1  -5  522.15   19.30
  -4   1   5  549.35   22.70
  -4   1   5  563.64   20.10
  -4   1   5  600.44   20.80
   3  -1  -5 2472.15   52.79
   3  -1  -5 2433.86   53.29
   3  -1  -5 2387.76   47.90
   3  -1  -5 2496.35   52.79
  -3   1   5 2348.36   52.89
  -3   1   5 2384.36   52.59
  -3   1   5 2390.36   52.69
   2  -1  -5 4824.42   87.39
   2  -1  -5 4768.32   91.69
   2  -1  -5 4684.73   91.29
   2  -1  -5 4510.95   91.19
  -2   1   5 4652.23   91.59
  -2   1   5 4701.03   91.49
  -2   1   5 4740.83   91.99
  -2   1   5 4718.13   87.39
   1  -1  -5  226.38   11.50
   1  -1  -5  258.37   12.20
   1  -1  -5  254.17   11.70
  -1   1   5  243.78   11.60
  -1   1   5  265.77   10.10
  -1   1   5  263.97   12.00
   0  -1  -5    6.80    2.80
   0  -1  -5    4.30    2.90
   0  -1  -5    2.70    3.00
   0  -1  -5    9.10    3.60
   0   1   5   -0.60    3.40
   0   1   5    3.70    2.90
   0   1   5    5.60    3.00
   0   1   5    7.40    3.90
  -1  -1  -5   36.90    6.40
  -1  -1  -5   30.40    5.20
  -1  -1  -5   51.09    7.40
  -1  -1  -5   38.30    4.40
   1   1   5   38.00    5.40
   1   1   5   36.80    6.10
   1   1   5   34.50    5.60
   1   1   5   35.00    4.20
  -2  -1  -5  328.67   15.40
  -2  -1  -5  319.27   15.50
  -2  -1  -5  300.07   14.50
   2   1   5  286.37   14.40
   2   1   5  300.77   15.10
   2   1   5  299.57    9.30
   2   1   5  310.77    9.50
  -3  -1  -5   23.50    5.90
   3   1   5   30.10    3.30
   3   1   5   25.40    3.10
   3   1   5   19.50    6.00
   3   1   5   22.30    5.70
   3   1   5   22.40    7.10
  -4  -1  -5 2548.34   62.79
  -4  -1  -5 2552.24   63.29
   4   1   5 2613.74   62.19
   4   1   5 2523.85   48.00
   4   1   5 2620.24   62.79
  -5  -1  -5  803.12   31.70
  -5  -1  -5  789.42   32.40
   5   1   5  748.03   30.70
   5   1   5  800.32   30.80
  -6  -1  -5    2.20    8.10
  -6  -1  -5    9.90   12.10
   6   1   5   -6.20   13.70
   6   1   5    3.30    8.20
  -7  -1  -5  184.18   22.70
   7   1   5  202.78   20.90
   7   1   5  206.28   24.20
   9  -2  -5 1080.29   36.20
   9  -2  -5 1028.80   42.40
  -9   2   5  950.60   40.90
  -9   2   5 1108.49   39.80
   8  -2  -5  841.02   29.10
   8  -2  -5  853.51   34.80
  -8   2   5  822.72   34.30
  -8   2   5  844.82   33.10
   7  -2  -5   12.40    5.90
   7  -2  -5   33.70    8.40
   7  -2  -5    9.00    7.70
  -7   2   5   23.50    8.50
  -7   2   5   28.60    7.30
  -7   2   5   30.20    9.80
   6  -2  -5  355.96   15.60
   6  -2  -5  420.96   20.10
   6  -2  -5  392.86   19.50
  -6   2   5  380.86   19.30
  -6   2   5  406.06   20.10
  -6   2   5  359.76   15.80
   5  -2  -5 1347.57   32.60
   5  -2  -5 1323.57   36.70
   5  -2  -5 1361.16   38.50
  -5   2   5 1302.17   36.80
  -5   2   5 1286.77   36.40
  -5   2   5 1325.27   37.20
   4  -2  -5   62.09    6.30
   4  -2  -5   62.89    6.30
   4  -2  -5   61.39    8.10
   4  -2  -5   73.89    8.20
  -4   2   5   79.49    8.70
  -4   2   5   67.89    8.80
  -4   2   5   70.79    8.20
   3  -2  -5  907.41   23.10
   3  -2  -5  903.41   25.90
   3  -2  -5  891.21   26.10
   3  -2  -5  959.60   23.10
  -3   2   5  925.01   26.10
  -3   2   5  867.81   25.50
  -3   2   5  917.31   26.10
   2  -2  -5  757.62   22.40
   2  -2  -5  750.82   22.10
   2  -2  -5  721.33   21.30
   2  -2  -5  767.62   20.10
  -2   2   5  759.42   22.50
  -2   2   5  783.22   20.40
  -2   2   5  712.43   21.70
   1  -2  -5 1299.37   32.30
   1  -2  -5 1322.87   30.70
   1  -2  -5 1325.57   30.90
   1  -2  -5 1299.27   32.80
  -1   2   5 1319.27   32.30
  -1   2   5 1277.67   32.90
  -1   2   5 1253.77   30.50
  -1   2   5 1252.47   32.30
   0  -2  -5 1011.50   23.60
   0  -2  -5 1044.10   27.00
   0  -2  -5  991.80   27.60
   0   2   5  995.00   23.60
   0   2   5  964.00   26.30
   0   2   5 1043.40   28.10
   0   2   5  986.10   27.10
  -1  -2  -5 2484.15   46.90
  -1  -2  -5 2410.46   54.79
  -1  -2  -5 2470.35   54.09
  -1  -2  -5 2431.46   54.79
   1   2   5 2454.55   54.19
   1   2   5 2367.46   53.79
   1   2   5 2364.66   54.29
   1   2   5 2442.16   46.80
  -2  -2  -5  857.91   27.90
  -2  -2  -5  864.61   27.80
   2   2   5  885.41   27.40
   2   2   5  891.21   27.40
   2   2   5  930.91   28.20
  -3  -2  -5  205.98   14.70
  -3  -2  -5  227.58   14.60
   3   2   5  220.28   15.40
   3   2   5  238.78   14.70
   3   2   5  246.68   15.10
  -4  -2  -5  274.17   21.80
  -4  -2  -5  261.67   17.30
   4   2   5  265.17   17.20
   4   2   5  248.48   16.80
  -5  -2  -5   32.20   10.70
  -5  -2  -5   40.10   13.40
   5   2   5   36.20   10.00
   5   2   5   39.60   10.00
  -6  -2  -5   14.90    9.10
   6   2   5   20.50   12.00
   6   2   5    2.90    8.10
   9  -3  -5   -9.90    9.40
   9  -3  -5    6.60    8.10
  -9   3   5    7.90    9.60
  -9   3   5    4.60   10.40
   8  -3  -5   12.50    8.70
   8  -3  -5   16.80    6.90
  -8   3   5   26.00    8.90
  -8   3   5   20.70    9.10
   7  -3  -5   -4.00    6.90
   7  -3  -5   21.10    8.00
   7  -3  -5    3.40    5.10
  -7   3   5   -1.20    6.10
  -7   3   5    5.90    9.20
  -7   3   5    6.80    6.20
   6  -3  -5 1358.46   40.00
   6  -3  -5 1356.66   39.60
   6  -3  -5 1377.26   35.90
  -6   3   5 1357.06   39.50
  -6   3   5 1321.07   43.80
  -6   3   5 1431.26   40.80
   5  -3  -5 1330.27   37.20
   5  -3  -5 1371.46   37.70
   5  -3  -5 1314.77   33.80
   5  -3  -5 1401.06   34.20
  -5   3   5 1371.86   37.70
  -5   3   5 1288.37   37.50
   4  -3  -5  724.03   23.70
   4  -3  -5  723.03   21.60
   4  -3  -5  740.93   27.20
   4  -3  -5  727.23   23.80
   4  -3  -5  729.93   21.20
  -4   3   5  721.93   24.20
  -4   3   5  714.13   23.70
  -4   3   5  735.43   23.60
   3  -3  -5  914.31   24.20
   3  -3  -5  959.20   29.80
   3  -3  -5  836.02   25.50
   3  -3  -5  915.91   27.40
   3  -3  -5  907.51   26.40
  -3   3   5  838.32   25.90
  -3   3   5  953.10   26.70
  -3   3   5  886.61   25.80
   2  -3  -5 1228.68   35.70
   2  -3  -5 1168.28   30.70
   2  -3  -5 1231.28   29.80
   2  -3  -5 1155.88   29.80
  -2   3   5 1145.19   32.90
  -2   3   5 1162.68   30.70
  -2   3   5 1162.68   29.70
  -2   3   5 1191.68   30.30
   1  -3  -5 1183.68   31.00
   1  -3  -5 1191.08   30.40
   1  -3  -5 1127.49   30.80
   1  -3  -5 1173.48   28.40
  -1   3   5 1202.98   28.60
  -1   3   5 1192.38   31.20
  -1   3   5 1203.08   30.40
  -1   3   5 1196.58   30.50
   0  -3  -5   28.70    4.20
   0  -3  -5   21.30    4.80
   0  -3  -5   18.20    5.20
   0   3   5   24.60    5.40
   0   3   5   23.80    3.90
   0   3   5   21.70    5.20
  -1  -3  -5  164.28   11.60
  -1  -3  -5  185.88   11.90
  -1  -3  -5  167.38    6.10
   1   3   5  187.68   13.20
   1   3   5  128.69   14.90
   1   3   5  178.18   11.50
   1   3   5  159.98    6.10
  -2  -3  -5  707.43   24.90
  -2  -3  -5  700.33   25.30
   2   3   5  655.83   24.30
   2   3   5  660.63   24.20
   2   3   5  735.93   25.00
  -3  -3  -5  103.59   11.80
  -3  -3  -5  102.09   12.20
   3   3   5  106.09   11.80
   3   3   5  132.39   12.40
  -4  -3  -5  878.31   35.40
  -4  -3  -5  841.92   33.00
   4   3   5  874.21   31.70
   4   3   5  904.21   32.80
  -5  -3  -5 1056.79   41.10
  -5  -3  -5 1105.49   39.60
   5   3   5 1062.29   38.60
   5   3   5 1055.49   38.90
  -6  -3  -5   55.59   14.30
   6   3   5   80.39   15.50
   9  -4  -5  540.85   31.50
   9  -4  -5  544.55   26.40
  -9   4   5  558.94   29.50
  -9   4   5  565.94   31.50
   8  -4  -5 1096.59   40.00
   8  -4  -5 1017.90   38.60
   8  -4  -5 1058.09   34.40
  -8   4   5 1050.59   38.70
  -8   4   5 1033.40   38.10
   7  -4  -5   77.29   11.60
   7  -4  -5   68.99    9.90
   7  -4  -5   78.69   11.70
  -7   4   5   60.19   10.50
  -7   4   5   55.39    9.70
   6  -4  -5  248.58   14.70
   6  -4  -5  216.38   13.50
   6  -4  -5  281.87   17.40
   6  -4  -5  205.98   15.00
  -6   4   5  226.38   15.60
  -6   4   5  224.18   15.50
  -6   4   5  244.78   16.60
   5  -4  -5   78.99   10.10
   5  -4  -5   83.89   10.60
   5  -4  -5   58.19    8.30
   5  -4  -5   72.39    8.60
  -5   4   5   47.40    8.00
  -5   4   5   72.49    9.60
  -5   4   5   53.69    8.70
   4  -4  -5   62.79    8.20
   4  -4  -5   53.19    7.70
   4  -4  -5   56.39    7.00
   4  -4  -5   58.09    8.00
   4  -4  -5   48.40    7.00
  -4   4   5   71.49    9.10
  -4   4   5   74.09    8.40
  -4   4   5   67.89    8.80
   3  -4  -5  209.98   12.10
   3  -4  -5  193.68   11.50
   3  -4  -5  204.38   12.20
   3  -4  -5  210.28   11.20
  -3   4   5  184.88   11.50
  -3   4   5  211.28   11.70
  -3   4   5  181.08   11.30
   2  -4  -5 2082.39   46.90
   2  -4  -5 2095.99   46.20
   2  -4  -5 2063.39   47.60
   2  -4  -5 2034.60   47.10
  -2   4   5 2023.80   45.90
  -2   4   5 2029.50   46.80
  -2   4   5 2026.80   47.10
  -2   4   5 2036.60   46.30
   1  -4  -5 1806.52   43.40
   1  -4  -5 1803.32   39.90
   1  -4  -5 1766.42   43.30
   1  -4  -5 1911.41   44.10
  -1   4   5 1873.81   43.90
  -1   4   5 1765.12   42.00
  -1   4   5 1826.02   40.20
  -1   4   5 1824.82   43.30
   0  -4  -5  143.39   10.70
   0  -4  -5  183.38   11.40
   0  -4  -5  165.98   11.80
   0  -4  -5  168.58    8.00
   0   4   5  167.68    7.80
   0   4   5  159.18   11.10
   0   4   5  148.09   10.90
   0   4   5  141.79   10.10
  -1  -4  -5 3131.69   68.69
   1   4   5 3049.69   66.79
   1   4   5 3107.79   67.59
   1   4   5 3091.99   69.09
  -2  -4  -5  757.62   27.00
  -2  -4  -5  769.92   26.90
   2   4   5  683.53   26.40
   2   4   5  721.73   25.20
  -3  -4  -5    3.60    5.20
  -3  -4  -5   13.50    6.50
   3   4   5    1.20    6.30
   3   4   5    9.00    6.60
  -4  -4  -5   30.70    8.90
  -4  -4  -5   17.40    9.60
   4   4   5   38.10   10.50
   4   4   5   11.50    7.60
  -5  -4  -5   32.10    9.60
   5   4   5   33.10   10.70
   5   4   5   21.10   12.20
   9  -5  -5    0.40    8.90
   9  -5  -5   -9.10    7.80
  -9   5   5   -3.50    9.20
  -9   5   5    3.60   11.50
   8  -5  -5  157.48   15.30
   8  -5  -5  161.28   17.50
   8  -5  -5  187.88   20.70
  -8   5   5  178.38   18.90
  -8   5   5  195.18   18.20
   7  -5  -5    8.00    6.70
   7  -5  -5   -2.90    5.40
   7  -5  -5  -18.00    7.20
  -7   5   5    5.40    6.60
  -7   5   5   -3.00    5.50
   6  -5  -5  667.63   27.10
   6  -5  -5  611.14   25.30
   6  -5  -5  598.64   23.40
  -6   5   5  628.84   30.90
  -6   5   5  637.94   25.10
   5  -5  -5 3051.59   66.99
   5  -5  -5 2996.10   65.99
   5  -5  -5 2966.70   68.09
   5  -5  -5 2949.60   68.09
  -5   5   5 3019.90   69.89
  -5   5   5 2997.50   67.29
   4  -5  -5  620.64   22.30
   4  -5  -5  612.74   22.70
   4  -5  -5  677.03   24.50
   4  -5  -5  645.74   23.00
   4  -5  -5  634.84   22.20
  -4   5   5  635.24   23.70
  -4   5   5  693.43   23.60
  -4   5   5  655.63   30.20
   3  -5  -5  555.14   20.50
   3  -5  -5  558.24   20.50
   3  -5  -5  576.04   21.10
   3  -5  -5  594.84   21.00
  -3   5   5  596.84   21.10
  -3   5   5  555.14   20.40
  -3   5   5  551.14   19.60
   2  -5  -5 1098.29   31.50
   2  -5  -5 1138.69   30.00
   2  -5  -5 1106.39   31.20
   2  -5  -5 1061.19   30.50
  -2   5   5 1111.29   31.50
  -2   5   5 1095.09   29.80
  -2   5   5 1136.59   30.80
  -2   5   5 1166.68   30.20
   1  -5  -5  233.88   13.30
   1  -5  -5  283.97   14.20
   1  -5  -5  275.47   12.00
   1  -5  -5  281.07   15.00
  -1   5   5  259.17   13.60
  -1   5   5  261.17   12.90
  -1   5   5  279.27   11.90
  -1   5   5  263.87   14.30
   0  -5  -5  103.29    6.70
   0  -5  -5   85.69    9.50
   0  -5  -5   81.49    9.30
   0   5   5   84.59    6.30
   0   5   5   93.29   10.20
   0   5   5   83.69    9.10
  -1  -5  -5  973.40   30.70
   1   5   5  989.20   29.50
   1   5   5 1018.80   32.40
  -2  -5  -5  225.68   15.70
  -2  -5  -5  225.48   15.70
   2   5   5  240.38   15.10
   2   5   5  237.58   16.40
  -3  -5  -5  147.99   15.70
  -3  -5  -5  131.29   13.60
   3   5   5  123.09   14.30
   3   5   5  132.19   14.60
  -4  -5  -5  826.32   34.40
  -4  -5  -5  751.62   32.00
   4   5   5  798.22   33.40
   4   5   5  717.73   31.50
  -5  -5  -5  807.92   35.80
   5   5   5  748.33   35.40
   9  -6  -5  458.35   28.50
   9  -6  -5  468.45   25.80
  -9   6   5  460.95   30.30
   8  -6  -5 1025.50   35.80
   8  -6  -5 1001.90   39.90
   8  -6  -5 1007.00   38.60
  -8   6   5  995.10   38.30
  -8   6   5 1005.50   39.00
   7  -6  -5   95.79   13.20
   7  -6  -5   65.89   11.90
   7  -6  -5   75.39   11.20
  -7   6   5   86.89   13.10
   6  -6  -5    3.20    5.80
   6  -6  -5   -2.00    6.00
   6  -6  -5    5.20    5.50
  -6   6   5    6.10    5.70
  -6   6   5    2.50    5.90
   5  -6  -5  220.18   15.10
   5  -6  -5  226.18   14.80
   5  -6  -5  224.68   14.70
  -5   6   5  233.98   15.80
  -5   6   5  199.78   13.70
   4  -6  -5   70.69    9.50
   4  -6  -5   81.89    9.80
   4  -6  -5   80.69   10.10
  -4   6   5   76.99    9.90
  -4   6   5   91.09    9.70
   3  -6  -5  101.49    9.90
   3  -6  -5  111.59   11.00
   3  -6  -5  101.99    9.70
  -3   6   5   85.59    9.90
  -3   6   5  118.09    9.50
   2  -6  -5 1981.00   45.60
   2  -6  -5 1867.11   46.70
   2  -6  -5 1894.81   46.80
  -2   6   5 1876.71   48.10
  -2   6   5 2038.50   46.10
  -2   6   5 1965.80   45.00
   1  -6  -5  996.30   26.40
   1  -6  -5  948.01   29.40
   1  -6  -5  981.10   29.70
  -1   6   5  993.20   31.30
  -1   6   5  994.60   27.70
  -1   6   5  996.20   27.10
   0  -6  -5   12.50    3.80
   0  -6  -5    5.90    5.10
   0  -6  -5   11.30    5.30
   0   6   5   12.90    5.40
   0   6   5   13.40    3.90
   0   6   5   14.20    6.00
  -1  -6  -5 1118.59   35.00
  -1  -6  -5 1129.49   39.30
   1   6   5 1167.78   36.90
  -2  -6  -5  725.93   27.80
  -2  -6  -5  717.63   32.60
   2   6   5  680.43   28.90
  -3  -6  -5   59.89   10.80
  -3  -6  -5   66.19   11.80
   3   6   5   86.09   13.40
  -4  -6  -5   16.30    8.90
   4   6   5   13.60    9.70
   9  -7  -5   23.60   12.00
   9  -7  -5   17.10   10.10
  -9   7   5   25.40   11.70
   8  -7  -5   27.60   14.40
   8  -7  -5   22.70    9.00
   8  -7  -5   42.70   11.60
  -8   7   5   16.40   10.80
  -8   7   5   10.80    9.40
   7  -7  -5  149.49   14.70
   7  -7  -5  159.78   16.00
   7  -7  -5  124.49   16.50
  -7   7   5  129.59   16.00
  -7   7   5  131.09   16.30
   6  -7  -5  325.87   19.00
   6  -7  -5  339.57   20.20
   6  -7  -5  338.37   19.20
  -6   7   5  322.37   18.60
  -6   7   5  309.47   20.30
   5  -7  -5 1392.86   39.90
   5  -7  -5 1374.96   39.70
   5  -7  -5 1377.06   40.60
  -5   7   5 1351.76   44.00
  -5   7   5 1294.17   37.30
   4  -7  -5  978.50   30.60
   4  -7  -5  938.61   31.60
   4  -7  -5  965.50   30.60
  -4   7   5  921.21   28.40
  -4   7   5  960.60   31.80
   3  -7  -5    0.30    4.60
   3  -7  -5    0.30    4.10
   3  -7  -5    7.30    6.00
  -3   7   5    4.00    4.60
  -3   7   5    5.40    5.10
   2  -7  -5  633.94   23.10
   2  -7  -5  632.44   23.00
   2  -7  -5  611.24   21.90
  -2   7   5  636.54   24.90
  -2   7   5  608.24   21.90
   1  -7  -5    9.90    4.70
   1  -7  -5    2.50    5.10
   1  -7  -5   15.20    6.10
  -1   7   5   15.60    5.60
  -1   7   5    7.20    4.40
   0  -7  -5  158.28   13.00
   0  -7  -5  157.58    8.80
   0  -7  -5  158.08   12.80
   0   7   5  177.28    8.90
   0   7   5  184.98   14.80
   0   7   5  151.08   11.90
  -1  -7  -5  151.78   14.00
  -1  -7  -5  152.88   13.20
   1   7   5  160.78   13.40
   1   7   5  154.78   15.30
  -2  -7  -5  652.23   28.40
  -2  -7  -5  688.53   27.90
   2   7   5  676.23   29.90
   2   7   5  711.03   26.90
  -3  -7  -5   29.50    9.60
  -3  -7  -5   35.60   11.90
   3   7   5   52.19   12.20
  -4  -7  -5  274.97   22.00
   4   7   5  292.47   24.80
   9  -8  -5  341.97   26.20
  -9   8   5  348.77   26.90
   8  -8  -5  369.86   24.90
   8  -8  -5  379.66   24.10
  -8   8   5  387.96   26.50
  -8   8   5  383.76   26.10
   7  -8  -5  471.95   24.80
   7  -8  -5  409.26   23.30
   7  -8  -5  469.85   26.40
  -7   8   5  469.15   25.40
  -7   8   5  439.66   25.60
   6  -8  -5   29.10    9.00
   6  -8  -5   33.00    9.30
   6  -8  -5   13.80    6.80
  -6   8   5   36.50    9.10
  -6   8   5   16.20    9.20
   5  -8  -5    5.00    6.80
   5  -8  -5    0.90    5.30
   5  -8  -5    0.60    5.90
  -5   8   5    2.30    5.70
  -5   8   5    0.30    6.30
   4  -8  -5  119.29   12.20
   4  -8  -5  100.89   12.70
   4  -8  -5   99.79   10.90
  -4   8   5  132.59   13.20
   3  -8  -5  274.77   16.20
   3  -8  -5  279.57   15.70
  -3   8   5  270.67   14.30
  -3   8   5  259.97   15.90
   2  -8  -5  472.15   20.60
   2  -8  -5  465.55   19.90
   2  -8  -5  447.46   19.90
  -2   8   5  473.25   22.80
  -2   8   5  453.85   19.30
  -2   8   5  463.85   17.80
   1  -8  -5 1440.86   39.80
   1  -8  -5 1435.96   39.90
   1  -8  -5 1393.26   35.30
  -1   8   5 1350.66   34.40
  -1   8   5 1418.86   35.50
  -1   8   5 1352.56   42.50
   0  -8  -5   -3.00    5.20
   0  -8  -5    1.30    4.10
   0  -8  -5    5.70    6.70
   0   8   5    1.40    4.00
   0   8   5   -2.10    5.80
   0   8   5   -6.40    5.80
  -1  -8  -5  413.76   22.20
  -1  -8  -5  448.16   22.10
   1   8   5  432.36   31.10
   1   8   5  471.75   24.80
  -2  -8  -5  103.79   14.00
  -2  -8  -5   88.39   12.50
   2   8   5  112.59   14.90
  -3  -8  -5  102.19   13.90
   3   8   5  112.89   16.60
   8  -9  -5  269.57   22.30
   8  -9  -5  214.78   21.10
  -8   9   5  214.48   22.70
   7  -9  -5  181.58   18.60
   7  -9  -5  163.28   19.80
   7  -9  -5  147.99   16.70
  -7   9   5  171.28   19.10
   6  -9  -5  164.68   16.70
   6  -9  -5  211.38   16.60
   6  -9  -5  205.18   17.40
  -6   9   5  229.88   29.00
  -6   9   5  158.98   17.30
   5  -9  -5  869.71   31.60
   5  -9  -5  930.51   34.90
   5  -9  -5  797.42   30.20
  -5   9   5  859.01   28.90
  -5   9   5  897.81   34.00
   4  -9  -5 1032.90   36.50
   4  -9  -5  996.40   32.90
   4  -9  -5  962.20   32.20
  -4   9   5 1031.70   40.00
  -4   9   5  959.50   28.90
   3  -9  -5   53.19    8.60
   3  -9  -5   44.30    9.00
  -3   9   5   35.90    7.20
  -3   9   5   58.59    9.90
   2  -9  -5  111.09   12.50
   2  -9  -5   97.49   11.30
   2  -9  -5   99.39   13.10
  -2   9   5  119.59   14.40
  -2   9   5  102.09   11.50
  -2   9   5  114.19   10.60
   1  -9  -5   18.50    7.50
   1  -9  -5    6.90    6.40
   1  -9  -5   -2.80    5.30
  -1   9   5    5.70   10.60
  -1   9   5    3.70    5.60
  -1   9   5    7.70    7.70
   0  -9  -5   -2.10    6.10
   0  -9  -5    0.00    4.00
   0  -9  -5    0.20    4.30
   0   9   5    6.70    8.10
  -1  -9  -5  155.68   15.60
  -1  -9  -5  197.98   23.20
   1   9   5  205.18   19.40
  -2  -9  -5  425.56   24.20
   2   9   5  408.36   26.90
   7 -10  -5   88.39   15.10
   7 -10  -5  111.99   20.80
  -7  10   5  146.29   29.90
   6 -10  -5   50.79   11.80
   6 -10  -5   31.80    8.90
   6 -10  -5   63.59   13.30
  -6  10   5   45.10   12.20
   5 -10  -5   79.79   11.40
   5 -10  -5  120.59   14.80
   5 -10  -5  104.99   15.40
  -5  10   5  115.19   15.80
   4 -10  -5   79.79   12.20
   4 -10  -5   97.39   12.30
   4 -10  -5   80.09   13.10
  -4  10   5   95.79   12.90
  -4  10   5   81.49   12.60
   3 -10  -5   46.80    8.80
  -3  10   5   51.09   10.30
   2 -10  -5  832.62   30.60
   2 -10  -5  814.72   29.40
  -2  10   5  853.81   34.80
  -2  10   5  865.41   29.60
   1 -10  -5  692.23   27.40
  -1  10   5  738.83   33.50
  -1  10   5  772.32   25.20
   0 -10  -5   71.69   11.40
   0  10   5   62.09   13.60
  -1 -10  -5   56.49   11.20
   1  10   5   36.40   12.20
   6 -11  -5   -2.80    7.00
   6 -11  -5    8.60   10.40
  -6  11   5    4.90   10.40
   5 -11  -5  784.52   35.90
   5 -11  -5  874.11   53.19
   5 -11  -5  899.01   34.50
  -5  11   5  845.82   35.80
   4 -11  -5  204.68   18.50
   4 -11  -5  230.68   27.90
  -4  11   5  219.68   19.70
   3 -11  -5   83.79   14.80
  -3  11   5   60.39   11.70
   2 -11  -5   59.09   11.80
   2 -11  -5   51.79    9.60
  -2  11   5   64.59   11.30
   1 -11  -5    3.50    7.10
  -1  11   5  -13.70    8.30
   2 -14   6   -5.70    8.40
   3 -14   6  241.88   23.80
   3 -14   6  275.67   21.50
  -1 -13   6   61.89   11.50
  -1 -13   6   40.90   12.20
   0 -13   6   29.00   10.90
   0 -13   6   17.60    8.70
   1 -13   6  121.29   14.80
   1 -13   6  113.89   16.90
   2 -13   6    5.70    7.30
   2 -13   6    7.80    9.30
   3 -13   6  140.39    8.30
   3 -13   6  118.79    8.60
   3 -13   6  135.19   15.80
   3 -13   6  119.09   16.40
   4 -13   6  365.76   16.40
   4 -13   6  401.26   23.90
   5 -13   6    1.70    9.60
   5 -13   6    8.50    7.70
  -2 -12   6  201.68   19.80
  -1 -12   6  105.29   13.30
  -1 -12   6   81.09   13.10
   0 -12   6  383.86   21.00
   0 -12   6  380.16   23.60
   1 -12   6  387.56   23.20
   1 -12   6  338.87   22.50
   2 -12   6   47.00    8.90
   2 -12   6   62.29   12.00
   3 -12   6   46.70    6.40
   3 -12   6   35.70   10.50
   3 -12   6   50.19   10.20
   3 -12   6   38.40    6.00
   4 -12   6   42.90    7.40
   4 -12   6   28.30    9.70
   4 -12   6   36.00    9.10
   4 -12   6   47.30    8.00
   5 -12   6   22.30    7.30
   5 -12   6   15.10    8.70
   5 -12   6   25.90    8.00
   6 -12   6   17.80    7.80
  -3 -11   6  440.46   21.00
  -3 -11   6  497.75   24.90
  -3 -11   6  459.65   24.50
  -2 -11   6   32.50   10.20
  -2 -11   6   43.80    8.40
  -2 -11   6   44.90    5.10
  -1 -11   6   35.90    9.50
  -1 -11   6   43.90    8.10
   0 -11   6   24.90    6.80
   0 -11   6   32.80    9.60
   1 -11   6   62.79    9.20
   1 -11   6   90.49   12.90
   2 -11   6   23.10    7.20
   2 -11   6   37.40    5.20
   2 -11   6   22.90    4.30
   2 -11   6   37.20   10.30
   3 -11   6  631.14   19.60
   3 -11   6  587.24   28.10
   3 -11   6  608.74   19.70
   3 -11   6  575.54   24.90
   4 -11   6  307.67   15.90
   4 -11   6  350.86   20.10
   5 -11   6    8.80    6.90
   5 -11   6   23.20    8.50
   5 -11   6   23.30    9.20
  -6  11  -6   63.39   12.60
   6 -11   6   70.99   13.10
   6 -11   6   45.70   10.10
   6 -11   6   71.69   11.80
  -7  11  -6  126.99   19.10
   7 -11   6  142.99   17.60
   7 -11   6  121.89   17.00
  -4 -10   6    1.80    5.80
  -4 -10   6    3.10    7.10
  -3 -10   6  203.28   13.70
  -3 -10   6  196.98   11.70
  -3 -10   6  196.38   12.20
  -3 -10   6  162.58   16.00
  -3 -10   6  209.38   16.20
  -2 -10   6  199.38   10.20
  -2 -10   6  203.28   13.00
  -2 -10   6  187.88   14.90
  -2 -10   6  219.88   10.00
  -2 -10   6  209.08   16.90
  -1 -10   6   10.40    6.60
  -1 -10   6    9.70    6.50
  -1 -10   6    1.70    5.10
   0 -10   6 1122.89   32.60
   0 -10   6 1158.08   31.90
   0 -10   6 1069.09   37.30
   1 -10   6  172.68    7.60
   1 -10   6  174.38   12.40
   1 -10   6  190.78   14.20
   1 -10   6  229.08   26.30
   2 -10   6   -0.50    3.40
   2 -10   6    4.40    7.10
   2 -10   6   -2.30    4.30
   2 -10   6   -4.30    3.10
   3 -10   6   14.10    7.40
   3 -10   6   15.60    6.30
   3 -10   6   15.90    5.10
   3 -10   6   16.30    4.80
   4 -10   6    5.50    4.60
   4 -10   6    8.00    6.50
   4 -10   6    6.30    5.10
   5 -10   6  100.09   12.30
   5 -10   6   88.89   11.50
   5 -10   6   93.89   12.80
  -6  10  -6  141.29   18.80
  -6  10  -6  175.48   18.50
   6 -10   6  142.69   16.80
   6 -10   6  162.88   15.40
   6 -10   6  163.08   17.00
   7 -10   6  249.08   24.80
   7 -10   6  316.37   28.00
   5   9  -6  138.49   13.80
  -5  -9   6  187.68   16.60
  -5  -9   6  154.58   16.40
  -5  -9   6  153.08   14.40
  -4  -9   6   25.90    8.70
  -4  -9   6   26.20    8.70
  -4  -9   6   23.70    7.40
  -3  -9   6  574.24   25.00
  -3  -9   6  590.14   19.40
  -3  -9   6  553.04   19.70
  -3  -9   6  526.05   20.20
  -2  -9   6   60.99    7.10
  -2  -9   6   63.59    6.40
  -2  -9   6   52.79    9.70
  -2  -9   6   86.09    9.80
  -2  -9   6   75.29    8.50
  -1  -9   6   11.80    4.80
  -1  -9   6    4.20    5.20
  -1  -9   6    7.40    6.10
  -1  -9   6   14.40    3.90
  -1  -9   6    8.90    3.10
   0  -9   6    5.80    3.10
   0  -9   6    3.70    5.60
   0  -9   6    2.10    3.90
   0  -9   6    5.70    2.90
   0  -9   6    4.50    5.10
   1  -9   6  331.87   18.70
   1  -9   6  301.97   10.90
   1  -9   6  297.17   14.40
   1  -9   6  297.37   18.00
   1  -9   6  292.27   11.10
   2  -9   6   87.09    9.50
   2  -9   6   70.09    7.00
   2  -9   6   65.69   10.20
   2  -9   6   87.89   10.50
   2  -9   6   70.99    8.10
   3  -9   6  503.25   20.60
   3  -9   6  491.55   20.70
   3  -9   6  467.25   26.50
  -4   9  -6  828.32   24.30
   4  -9   6  786.02   28.60
   4  -9   6  853.21   27.10
   4  -9   6  795.32   26.40
  -5   9  -6  298.37   17.60
  -5   9  -6  267.67   19.00
   5  -9   6  292.07   18.40
   5  -9   6  259.27   16.90
   5  -9   6  314.67   17.60
  -6   9  -6  231.88   19.40
   6  -9   6  279.67   20.10
   6  -9   6  286.97   20.20
   6  -9   6  259.67   18.50
  -7   9  -6   16.60   10.10
   7  -9   6   11.90    9.20
   7  -9   6    0.90    8.60
   6   8  -6  122.19   14.90
  -6  -8   6  135.59   16.60
  -6  -8   6   98.49   13.20
   5   8  -6   -0.60    5.60
  -5  -8   6   15.10    6.90
  -5  -8   6   24.60    8.40
  -5  -8   6   12.90    7.90
   4   8  -6    5.40    4.50
  -4  -8   6    5.10    5.00
  -4  -8   6    0.40    6.30
  -4  -8   6    0.20    5.60
  -3  -8   6  237.88   16.10
  -3  -8   6  238.28   12.10
  -3  -8   6  239.08   12.20
  -2  -8   6 1656.93   37.10
  -2  -8   6 1585.74   44.20
  -2  -8   6 1611.04   38.90
  -2  -8   6 1659.93   37.20
  -2  -8   6 1640.84   37.50
  -1  -8   6  114.49    7.50
  -1  -8   6  122.19    8.30
  -1  -8   6  112.29    8.90
  -1  -8   6   98.09    6.70
  -1  -8   6  115.09   11.70
   0  -8   6  355.66   11.80
   0  -8   6  348.47   12.20
   0  -8   6  346.57   14.30
   0  -8   6  353.96   18.10
   0  -8   6  364.36   14.00
   1  -8   6 1535.45   37.20
   1  -8   6 1493.65   42.10
   1  -8   6 1528.05   34.10
   1  -8   6 1535.25   36.70
   1  -8   6 1480.35   33.70
   2  -8   6  104.39    8.00
   2  -8   6   93.29    8.00
   2  -8   6   76.79   10.40
   2  -8   6   98.49    9.10
  -3   8  -6  171.58   10.00
  -3   8  -6  146.29   12.80
   3  -8   6  182.28   11.20
   3  -8   6  180.18   12.30
   4  -8   6   91.99   11.30
   4  -8   6   68.49    9.40
  -5   8  -6    1.40    6.30
  -5   8  -6    6.70    6.30
   5  -8   6   16.30    6.90
   5  -8   6    8.60    5.60
   5  -8   6    6.00    6.60
  -6   8  -6   17.00    8.20
  -6   8  -6   22.10    8.80
   6  -8   6   25.40    8.40
   6  -8   6    9.00    7.80
   6  -8   6   24.40    9.20
  -7   8  -6  476.55   26.50
  -7   8  -6  516.75   28.70
   7  -8   6  527.95   27.40
   7  -8   6  511.75   27.60
  -8   8  -6  144.19   18.50
   8  -8   6  136.39   17.90
   8  -8   6   98.79   15.90
   6   7  -6  661.43   23.40
  -6  -7   6  663.53   29.40
  -6  -7   6  670.23   27.20
  -6  -7   6  685.43   28.90
   5   7  -6  580.34   19.30
   5   7  -6  581.94   20.50
  -5  -7   6  558.74   23.00
  -5  -7   6  575.44   24.30
  -5  -7   6  538.95   23.70
  -5  -7   6  534.55   19.50
   4   7  -6   58.09    7.60
   4   7  -6   81.69    9.70
  -4  -7   6   60.79    8.60
  -4  -7   6   54.19    9.50
  -4  -7   6   67.79    8.80
  -4  -7   6   61.49    7.10
   3   7  -6  742.83   26.90
  -3  -7   6  771.92   27.20
  -3  -7   6  748.83   20.10
  -2  -7   6   37.20    5.30
  -2  -7   6   35.10    5.50
  -2  -7   6   39.10    5.70
  -2  -7   6   41.50    7.90
  -1  -7   6   20.40    4.00
  -1  -7   6   20.50    4.40
  -1  -7   6   21.20    5.90
  -1  -7   6   18.00    6.20
  -1  -7   6   23.50    4.50
   0  -7   6   76.99    9.40
   0  -7   6   73.69    6.10
   0  -7   6   76.19   10.30
   0  -7   6   68.69    6.40
   0  -7   6   73.69    7.00
   0  -7   6   69.59    6.20
   1  -7   6  699.83   25.00
   1  -7   6  692.53   19.60
   1  -7   6  703.83   20.50
   1  -7   6  685.83   19.60
   1  -7   6  706.63   25.10
  -2   7  -6  118.39    7.00
  -2   7  -6  112.09    7.60
  -2   7  -6  106.59    9.50
   2  -7   6  107.29    8.90
   2  -7   6  123.59   11.10
   2  -7   6  120.19    8.80
   2  -7   6  110.19    8.30
  -3   7  -6  192.98   13.20
   3  -7   6  207.58   12.00
   3  -7   6  184.58   12.00
  -4   7  -6  974.00   29.70
  -4   7  -6  940.11   31.80
   4  -7   6  990.80   30.90
   4  -7   6  957.80   30.60
   4  -7   6  992.40   30.40
  -5   7  -6  405.36   20.50
   5  -7   6  447.96   21.40
   5  -7   6  432.66   21.10
  -6   7  -6   -1.70    6.00
  -6   7  -6    1.30    7.10
   6  -7   6    2.70    7.60
   6  -7   6   -2.40    6.30
   6  -7   6    0.30    6.50
  -7   7  -6   36.50   11.80
  -7   7  -6   24.30    9.30
   7  -7   6   47.00   12.20
   7  -7   6   29.50   11.00
  -8   7  -6   14.00    9.90
   8  -7   6   -2.10   10.20
   8  -7   6   15.70   11.60
   7   6  -6   73.69   10.90
  -7  -6   6   78.59   12.20
  -7  -6   6   66.99   12.60
   6   6  -6    2.80    5.40
   6   6  -6    1.40    8.70
  -6  -6   6   19.60    7.90
  -6  -6   6    8.70    6.70
  -6  -6   6    9.80    7.50
  -6  -6   6    4.20    8.10
   5   6  -6   11.60    7.40
   5   6  -6   18.10    6.70
  -5  -6   6   21.80    7.50
  -5  -6   6   26.10    7.90
  -5  -6   6   16.00    6.50
  -5  -6   6    5.20    4.90
   4   6  -6   38.40    5.80
   4   6  -6   34.90    6.10
   4   6  -6   35.90    8.70
  -4  -6   6   42.80    7.40
  -4  -6   6   43.30    7.50
  -4  -6   6   37.10    5.80
  -4  -6   6   42.10    8.40
   3   6  -6  826.42   27.60
   3   6  -6  816.12   20.70
  -3  -6   6  811.92   23.80
  -3  -6   6  804.42   24.10
  -3  -6   6  820.22   27.50
  -3  -6   6  853.91   19.80
   2   6  -6 1050.39   32.10
   2   6  -6 1032.10   22.80
   2   6  -6 1013.90   22.40
  -2  -6   6 1041.30   22.80
  -2  -6   6 1035.80   26.20
  -2  -6   6 1020.40   26.40
  -2  -6   6 1009.90   31.00
  -2  -6   6 1021.30   22.50
   1   6  -6  272.17    8.00
   1   6  -6  279.17    7.90
  -1  -6   6  261.87   11.00
  -1  -6   6  261.77   10.60
  -1  -6   6  251.47   14.20
  -1  -6   6  243.18    9.00
  -1  -6   6  257.97    9.30
   0   6  -6  993.10   21.30
   0   6  -6 1033.60   21.40
   0  -6   6 1002.60   25.10
   0  -6   6 1001.90   23.70
   0  -6   6  980.30   29.90
   0  -6   6 1033.30   34.10
   0  -6   6  979.70   26.50
   0  -6   6  982.90   25.20
  -1   6  -6 1413.56   32.00
  -1   6  -6 1317.77   31.80
   1  -6   6 1357.16   32.30
   1  -6   6 1349.36   34.30
   1  -6   6 1348.27   32.10
   1  -6   6 1372.36   37.00
  -2   6  -6    5.60    3.60
  -2   6  -6   13.80    4.60
   2  -6   6    7.20    3.70
   2  -6   6    2.20    3.10
   2  -6   6   -1.00    3.20
   2  -6   6    1.50    3.80
  -3   6  -6  237.98   13.80
  -3   6  -6  225.38   12.70
  -3   6  -6  239.88   14.30
   3  -6   6  235.98   13.00
   3  -6   6  250.57   15.50
   3  -6   6  256.17   15.40
  -4   6  -6   25.90    6.80
   4  -6   6    9.30    5.40
   4  -6   6   12.20    6.00
   4  -6   6   12.80    5.30
  -5   6  -6  555.14   23.80
  -5   6  -6  601.04   24.20
   5  -6   6  539.85   23.70
   5  -6   6  505.25   24.00
  -6   6  -6  108.59   14.30
  -6   6  -6  108.59   13.20
   6  -6   6   94.99   13.00
   6  -6   6  112.99   14.60
   6  -6   6  101.59   15.10
  -7   6  -6  658.43   31.90
  -7   6  -6  626.94   28.00
   7  -6   6  675.43   35.50
   7  -6   6  645.34   31.20
   7  -6   6  661.63   30.70
  -8   6  -6  246.58   20.60
  -8   6  -6  334.57   42.10
   8  -6   6  212.28   23.40
   8  -6   6  225.68   22.30
   7   5  -6    6.70    6.70
  -7  -5   6   10.90    8.40
  -7  -5   6   16.90    8.20
   6   5  -6 1233.38   31.30
  -6  -5   6 1243.18   39.30
  -6  -5   6 1229.98   31.20
  -6  -5   6 1185.18   37.30
  -6  -5   6 1179.98   38.30
   5   5  -6  527.55   16.60
  -5  -5   6  550.04   22.70
  -5  -5   6  563.54   22.50
  -5  -5   6  548.75   22.90
  -5  -5   6  550.84   16.80
   4   5  -6   95.09    5.90
   4   5  -6  100.79   11.50
  -4  -5   6   77.29    9.10
  -4  -5   6   82.49    5.90
  -4  -5   6   90.39    9.20
  -4  -5   6  101.89   10.80
  -3  -5   6  426.26   10.60
  -3  -5   6  438.26   16.30
  -3  -5   6  414.26   15.70
  -3  -5   6  381.56   18.00
   2   5  -6  255.77   14.00
   2   5  -6  248.88   11.70
  -2  -5   6  255.87    6.90
  -2  -5   6  255.17    7.00
  -2  -5   6  243.88   11.20
  -2  -5   6  247.98   13.80
  -2  -5   6  257.87   11.20
   1   5  -6   39.50    6.90
   1   5  -6   41.70    4.60
  -1  -5   6   24.40    3.00
  -1  -5   6   35.90    5.20
  -1  -5   6   30.30    3.50
  -1  -5   6   40.90    5.20
  -1  -5   6   29.00    5.60
   0   5  -6  584.74   15.90
   0   5  -6  577.14   16.00
   0   5  -6  581.44   15.50
   0  -5   6  603.34   15.40
   0  -5   6  583.24   17.70
   0  -5   6  598.94   18.10
   0  -5   6  574.44   20.60
  -1   5  -6 1337.67   31.70
  -1   5  -6 1353.96   31.30
   1  -5   6 1348.27   32.90
   1  -5   6 1386.56   35.80
   1  -5   6 1383.36   31.00
   1  -5   6 1307.37   32.30
   1  -5   6 1372.26   35.90
  -2   5  -6 1401.66   34.70
  -2   5  -6 1378.96   35.90
  -2   5  -6 1454.25   34.50
   2  -5   6 1355.96   33.50
   2  -5   6 1374.66   36.80
   2  -5   6 1388.16   34.70
   2  -5   6 1417.96   37.10
   2  -5   6 1393.16   35.40
  -3   5  -6 1292.47   35.00
  -3   5  -6 1333.87   34.30
   3  -5   6 1302.47   35.90
   3  -5   6 1345.87   34.50
   3  -5   6 1377.46   36.80
   3  -5   6 1259.07   34.90
   3  -5   6 1293.87   35.30
  -4   5  -6 1181.98   34.50
   4  -5   6 1106.59   34.20
   4  -5   6 1166.18   34.30
   4  -5   6 1184.08   33.80
   4  -5   6 1140.89   34.10
  -5   5  -6  319.97   17.30
  -5   5  -6  329.87   18.70
   5  -5   6  309.97   18.30
   5  -5   6  350.96   20.00
  -6   5  -6    5.20    7.60
  -6   5  -6    3.80    5.80
   6  -5   6    2.30    5.90
   6  -5   6   -0.80    6.70
   6  -5   6    0.80    9.10
  -7   5  -6    6.20    9.80
  -7   5  -6   -4.30    6.60
   7  -5   6   27.90   13.90
   7  -5   6    8.60    8.70
   7  -5   6    1.60    8.40
  -8   5  -6   28.00   16.20
   8  -5   6    8.90   11.60
   8  -5   6   22.80   11.50
   8   4  -6  345.57   20.30
  -8  -4   6  392.46   22.50
  -8  -4   6  354.46   25.20
   7   4  -6    5.60    5.90
   7   4  -6   -0.80    8.60
  -7  -4   6   -0.70    6.60
  -7  -4   6   11.60    9.90
   6   4  -6   35.90    8.30
   6   4  -6   29.20    5.90
  -6  -4   6   34.50    8.70
  -6  -4   6   27.70    8.00
  -6  -4   6   16.70    7.80
  -6  -4   6   32.50    6.20
   5   4  -6  141.29   11.70
   5   4  -6  128.49   16.00
  -5  -4   6  173.48   13.60
  -5  -4   6  147.89   12.40
  -5  -4   6  146.19   12.20
   4   4  -6   10.60    5.90
   4   4  -6    7.80    2.30
   4   4  -6    6.90    4.10
  -4  -4   6    0.80    4.30
  -4  -4   6   10.60    2.60
  -4  -4   6    7.70    4.60
   3   4  -6 1082.59   27.70
   3   4  -6 1117.09   31.80
  -3  -4   6 1080.19   29.00
  -3  -4   6 1050.29   28.90
  -3  -4   6 1142.59   32.00
   2   4  -6 2958.90   58.89
   2   4  -6 2967.60   64.19
  -2  -4   6 2877.31   60.59
  -2  -4   6 2930.91   60.59
  -2  -4   6 2993.40   64.59
   1   4  -6  233.78   12.50
   1   4  -6  223.08    9.50
  -1  -4   6  232.78   10.60
  -1  -4   6  235.08    6.40
  -1  -4   6  225.28    6.20
  -1  -4   6  248.38   10.90
  -1  -4   6  218.78   12.30
   0   4  -6  532.25   16.10
   0   4  -6  539.55   16.40
   0   4  -6  544.65   19.00
   0   4  -6  544.85   14.20
   0  -4   6  526.75   13.80
   0  -4   6  502.75   18.60
   0  -4   6  564.54   17.70
   0  -4   6  521.85   16.90
  -1   4  -6 1159.58   29.50
  -1   4  -6 1151.98   28.40
  -1   4  -6 1143.79   27.30
   1  -4   6 1203.98   31.40
   1  -4   6 1161.88   27.20
   1  -4   6 1137.19   29.40
   1  -4   6 1207.98   30.30
   1  -4   6 1147.29   31.00
  -2   4  -6  362.36   14.30
  -2   4  -6  349.37   14.30
  -2   4  -6  350.76   15.10
   2  -4   6  360.26   15.40
   2  -4   6  359.96   15.70
   2  -4   6  381.76   15.70
   2  -4   6  350.06   14.90
   2  -4   6  356.86   14.00
  -3   4  -6   49.00    7.30
  -3   4  -6   53.79   10.10
   3  -4   6   57.19    7.70
   3  -4   6   60.79    7.70
   3  -4   6   57.59    7.80
   3  -4   6   41.90    6.70
   3  -4   6   70.59    9.20
  -4   4  -6  484.15   21.00
  -4   4  -6  520.25   21.70
   4  -4   6  547.05   22.60
   4  -4   6  533.25   21.00
   4  -4   6  519.15   23.30
  -5   4  -6  446.56   22.00
   5  -4   6  450.15   21.80
   5  -4   6  418.66   19.80
   5  -4   6  412.56   22.30
   6  -4   6   46.80    9.60
   6  -4   6   39.00    9.50
   6  -4   6   37.40   11.90
  -7   4  -6  318.17   23.90
   7  -4   6  303.37   21.70
  -8   4  -6  505.25   34.50
   8  -4   6  512.35   29.90
   8   3  -6  302.47   18.20
  -8  -3   6  257.67   22.40
  -8  -3   6  318.27   20.60
   7   3  -6   23.20    9.30
  -7  -3   6   32.20    9.60
  -7  -3   6   32.70    7.80
   6   3  -6  721.33   26.80
  -6  -3   6  724.33   20.90
  -6  -3   6  694.93   28.00
  -6  -3   6  758.42   27.90
  -6  -3   6  701.33   31.90
   5   3  -6 1911.91   39.10
   5   3  -6 1877.71   46.50
   5   3  -6 1857.21   48.50
  -5  -3   6 1917.71   38.90
  -5  -3   6 1881.31   47.90
  -5  -3   6 1892.61   48.40
  -5  -3   6 1787.72   47.20
   4   3  -6  181.18   14.60
   4   3  -6  176.38    6.10
   4   3  -6  168.48   10.60
   4   3  -6  157.18   11.00
  -4  -3   6  181.58   11.60
  -4  -3   6  198.38   12.10
  -4  -3   6  176.98    6.10
  -4  -3   6  170.08   12.40
   3   3  -6  504.55   17.10
   3   3  -6  492.65   17.40
   3   3  -6  518.85   19.50
  -3  -3   6  460.05   18.80
  -3  -3   6  498.25   17.80
  -3  -3   6  541.55   18.30
   2   3  -6    9.80    4.50
   2   3  -6    7.50    3.20
   2   3  -6    5.30    3.50
  -2  -3   6    4.20    3.10
  -2  -3   6    0.30    2.90
  -2  -3   6    6.90    4.10
   1   3  -6  404.16   14.30
   1   3  -6  451.65   15.00
   1   3  -6  434.16    9.70
  -1  -3   6  436.66   15.40
  -1  -3   6  431.46   15.30
  -1  -3   6  435.36    9.70
  -1  -3   6  430.16   16.40
   0   3  -6   71.59    4.80
   0   3  -6   61.79    6.60
   0   3  -6   64.89    7.50
   0  -3   6   67.09    7.30
   0  -3   6   51.69    6.60
   0  -3   6   73.39    5.00
  -1   3  -6 2620.74   53.09
  -1   3  -6 2605.94   56.09
  -1   3  -6 2555.94   55.19
   1  -3   6 2693.93   56.49
   1  -3   6 2571.74   52.69
   1  -3   6 2616.24   56.09
   1  -3   6 2610.24   56.39
  -2   3  -6 1166.48   29.60
  -2   3  -6 1127.49   30.40
  -2   3  -6 1098.09   30.90
   2  -3   6 1151.38   30.20
   2  -3   6 1198.18   29.50
   2  -3   6 1098.49   30.60
   2  -3   6 1108.89   29.80
   2  -3   6 1168.58   31.60
  -3   3  -6   57.49    8.70
  -3   3  -6   83.79   12.30
  -3   3  -6   65.29    8.30
   3  -3   6   64.19    7.60
   3  -3   6   53.99    7.40
   3  -3   6   43.50    7.00
   3  -3   6   47.70    7.30
   3  -3   6   51.59    7.40
  -4   3  -6  824.02   28.50
  -4   3  -6  843.92   29.10
   4  -3   6  846.32   25.60
   4  -3   6  833.92   29.20
   4  -3   6  833.22   29.10
   4  -3   6  800.32   27.30
   4  -3   6  838.82   25.90
  -5   3  -6  829.12   31.20
   5  -3   6  865.61   32.60
   5  -3   6  905.01   31.30
  -6   3  -6   -3.60    7.10
   6  -3   6   10.20   11.20
   6  -3   6    2.20    7.00
   6  -3   6   -3.50    7.60
  -7   3  -6   87.69   16.20
   7  -3   6   59.29   12.80
   7  -3   6   66.59   14.70
   7  -3   6   61.39   10.10
   8   2  -6  256.37   22.70
   8   2  -6  241.88   15.70
  -8  -2   6  274.47   19.60
  -8  -2   6  236.28   20.50
   7   2  -6   10.20    5.20
   7   2  -6    6.70    7.50
  -7  -2   6   18.90    9.20
  -7  -2   6   16.60    7.90
  -7  -2   6   13.30    6.00
   6   2  -6   72.49    7.90
   6   2  -6   50.09    8.40
  -6  -2   6   57.39    6.80
  -6  -2   6   40.60    8.60
  -6  -2   6   61.69   10.50
  -6  -2   6   50.39    9.50
   5   2  -6  203.58    8.70
   5   2  -6  187.78   12.80
   5   2  -6  191.28   14.40
  -5  -2   6  199.18    8.60
  -5  -2   6  210.68   14.00
  -5  -2   6  203.08   13.60
  -5  -2   6  189.88   13.50
   4   2  -6   52.09    3.80
   4   2  -6   78.89   13.00
   4   2  -6   57.29    7.70
  -4  -2   6   57.39    3.80
  -4  -2   6   47.30    6.90
  -4  -2   6   53.69    7.40
  -4  -2   6   49.10    7.80
   3   2  -6  468.45   18.00
   3   2  -6  426.46   15.80
   3   2  -6  434.36   16.40
  -3  -2   6  442.26   17.50
  -3  -2   6  411.56   16.10
  -3  -2   6  430.16   16.50
   2   2  -6 5543.65  106.59
   2   2  -6 5620.54  106.59
  -2  -2   6 5600.94  107.19
  -2  -2   6 5666.23  111.29
  -2  -2   6 5467.75  108.59
   1   2  -6 1300.77   32.40
   1   2  -6 1274.77   25.30
   1   2  -6 1310.27   31.40
   1   2  -6 1262.47   31.10
  -1  -2   6 1283.67   25.40
  -1  -2   6 1300.47   31.80
  -1  -2   6 1217.38   31.30
   0   2  -6  111.19    8.40
   0   2  -6  118.39    6.40
   0   2  -6  117.59    8.70
   0   2  -6  108.39    8.40
   0  -2   6  117.29    8.50
   0  -2   6  111.69    6.30
   0  -2   6  112.89    8.70
   0  -2   6  119.59    9.90
  -1   2  -6  664.73   21.10
  -1   2  -6  730.33   19.80
  -1   2  -6  689.93   22.10
   1  -2   6  688.03   22.20
   1  -2   6  695.03   19.50
   1  -2   6  667.63   21.50
  -2   2  -6  290.97   13.10
  -2   2  -6  274.17   13.60
  -2   2  -6  263.27   13.60
   2  -2   6  289.37   14.30
   2  -2   6  272.97   14.20
   2  -2   6  268.07   12.60
   2  -2   6  260.27   12.00
  -3   2  -6  203.18   13.20
  -3   2  -6  215.28   13.80
  -3   2  -6  219.28   13.30
   3  -2   6  203.88   12.70
   3  -2   6  207.48   12.60
   3  -2   6  211.08   13.90
   3  -2   6  210.48   11.30
   3  -2   6  219.98   14.10
  -4   2  -6  429.16   20.70
  -4   2  -6  449.56   20.60
   4  -2   6  402.16   18.80
   4  -2   6  401.56   16.60
   4  -2   6  396.36   19.90
   4  -2   6  426.86   16.40
   4  -2   6  439.76   21.10
  -5   2  -6  282.17   18.70
  -5   2  -6  278.57   19.40
   5  -2   6  275.57   18.60
   5  -2   6  255.67   31.40
   5  -2   6  314.37   18.30
   5  -2   6  264.07   13.70
   5  -2   6  289.07   15.10
  -6   2  -6   37.10   10.70
   6  -2   6   36.20    9.30
   6  -2   6   39.90    7.50
   6  -2   6   26.50    8.20
   6  -2   6   25.60    8.60
  -7   2  -6  399.66   27.10
   7  -2   6  386.96   24.70
   7  -2   6  424.96   28.40
   7  -2   6  368.76   18.40
   9   1  -6  366.96   21.30
  -9  -1   6  335.07   23.70
  -9  -1   6  352.16   26.80
   8   1  -6  509.55   27.90
   8   1  -6  482.05   21.30
  -8  -1   6  590.04   27.20
  -8  -1   6  532.15   28.30
  -8  -1   6  545.15   31.00
   7   1  -6    3.10    4.80
   7   1  -6    0.70    7.10
  -7  -1   6    8.10    8.70
  -7  -1   6    3.00    5.40
  -7  -1   6    0.00    5.60
   6   1  -6  834.72   29.50
  -6  -1   6  829.02   23.10
  -6  -1   6  814.92   33.90
  -6  -1   6  838.42   29.80
  -6  -1   6  916.31   30.70
   5   1  -6 2343.87   57.49
   5   1  -6 2411.36   48.30
   5   1  -6 2422.66   56.39
   5   1  -6 2430.26   56.59
  -5  -1   6 2322.87   56.59
  -5  -1   6 2428.26   48.30
  -5  -1   6 2456.15   57.59
  -5  -1   6 2369.86   56.99
   4   1  -6  119.79    9.50
   4   1  -6  122.49   10.30
   4   1  -6  119.69   11.20
   4   1  -6  119.49    5.50
   4   1  -6  102.99    5.40
  -4  -1   6  114.19    9.80
  -4  -1   6  140.69   11.00
  -4  -1   6  135.09   10.60
   3   1  -6   29.90    2.80
   3   1  -6   23.60    4.80
   3   1  -6   22.90    5.10
   3   1  -6   26.90    2.70
   3   1  -6   22.00    5.00
  -3  -1   6   23.80    5.40
  -3  -1   6   21.40    4.40
  -3  -1   6   23.50    5.00
   2   1  -6  271.67   12.20
   2   1  -6  254.37    7.20
   2   1  -6  265.57   12.60
   2   1  -6  232.08   11.80
  -2  -1   6  258.17   12.80
  -2  -1   6  263.67   12.40
  -2  -1   6  274.07   12.50
   1   1  -6  459.55   16.30
   1   1  -6  448.86   16.30
   1   1  -6  444.36   16.20
   1   1  -6  468.25   12.40
  -1  -1   6  440.66   12.20
  -1  -1   6  473.95   18.60
  -1  -1   6  439.36   18.70
  -1  -1   6  499.55   17.10
   0   1  -6  619.14   20.10
   0   1  -6  608.24   18.70
   0  -1   6  617.54   20.40
   0  -1   6  622.54   18.70
   0  -1   6  589.84   16.70
  -1   1  -6 3263.57   70.29
  -1   1  -6 3387.46   67.09
  -1   1  -6 3365.36   67.29
   1  -1   6 3316.17   70.49
   1  -1   6 3383.86   69.09
   1  -1   6 3318.07   66.59
  -2   1  -6 1099.39   29.80
  -2   1  -6 1098.09   31.40
  -2   1  -6 1105.29   31.80
   2  -1   6 1120.59   31.50
   2  -1   6 1120.89   27.50
   2  -1   6 1094.59   29.60
   2  -1   6 1129.79   27.60
   2  -1   6 1081.99   31.60
  -3   1  -6   20.20    5.40
  -3   1  -6   17.00    5.20
  -3   1  -6   30.20    6.70
   3  -1   6   28.80    7.40
   3  -1   6   15.70    4.40
   3  -1   6   18.00    6.30
   3  -1   6   24.70    4.60
   3  -1   6   17.80    5.50
  -4   1  -6  811.02   29.80
  -4   1  -6  806.82   29.30
   4  -1   6  838.22   28.50
   4  -1   6  786.82   32.40
   4  -1   6  815.62   23.10
   4  -1   6  840.72   30.50
  -5   1  -6  343.47   35.00
  -5   1  -6  271.17   19.00
   5  -1   6  290.07   19.10
   5  -1   6  287.57   14.00
   5  -1   6  294.87   18.30
  -6   1  -6  170.28   18.40
   6  -1   6  175.58   18.40
   6  -1   6  160.78   13.40
   6  -1   6  164.28   16.90
   6  -1   6  178.58   11.50
  -7   1  -6   21.30   10.60
   7  -1   6   30.00   12.10
   7  -1   6   25.70   12.00
   7  -1   6   22.80    7.40
   9   0  -6  372.76   32.90
   9   0  -6  373.06   21.20
  -9   0   6  365.96   27.10
  -9   0   6  340.17   23.90
   8   0  -6  325.47   17.80
   8   0  -6  356.46   24.00
  -8   0   6  377.06   31.60
  -8   0   6  343.77   21.60
  -8   0   6  366.16   43.10
   7   0  -6   72.09    9.00
  -7   0   6   63.39   10.00
  -7   0   6   79.39    9.90
  -7   0   6   70.49   11.60
  -7   0   6   83.59   13.70
   6   0  -6   58.99    9.40
   6   0  -6   67.79    7.50
   6   0  -6   41.20    8.60
  -6   0   6   61.19    7.60
  -6   0   6   48.60    8.90
  -6   0   6   70.59   11.30
  -6   0   6   57.49    9.80
   5   0  -6  567.24   22.20
   5   0  -6  582.74   22.70
   5   0  -6  626.64   17.40
   5   0  -6  595.44   23.90
  -5   0   6  601.64   23.10
  -5   0   6  612.74   23.00
  -5   0   6  607.34   23.20
   4   0  -6  486.95   18.90
   4   0  -6  506.35   13.50
   4   0  -6  467.55   18.40
   4   0  -6  483.55   21.20
   4   0  -6  481.55   13.60
  -4   0   6  477.65   21.50
  -4   0   6  479.55   19.50
  -4   0   6  507.55   19.30
   3   0  -6 1619.74   33.50
   3   0  -6 1655.63   33.40
   3   0  -6 1668.93   40.00
   3   0  -6 1724.33   40.50
  -3   0   6 1617.24   40.60
  -3   0   6 1678.53   40.30
  -3   0   6 1657.73   40.40
   2   0  -6 3097.99   65.89
   2   0  -6 3221.98   60.19
   2   0  -6 3238.08   66.69
   2   0  -6 3122.99   66.59
  -2   0   6 3274.37   66.79
  -2   0   6 3179.68   66.29
  -2   0   6 3212.08   60.19
  -2   0   6 3086.69   65.99
   1   0  -6 2435.96   53.89
   1   0  -6 2502.15   52.59
   1   0  -6 2534.15   53.89
  -1   0   6 2503.55   54.19
  -1   0   6 2411.46   49.10
  -1   0   6 2428.96   53.59
  -1   0   6 2464.05   52.99
   0   0  -6  440.96   15.00
   0   0  -6  415.96   16.80
   0   0  -6  444.86   16.80
   0   0  -6  443.16   14.70
   0   0   6  452.85   16.90
   0   0   6  450.45   17.50
   0   0   6  445.16   14.70
   0   0   6  464.65   15.20
  -1   0  -6  505.15   17.40
  -1   0  -6  488.65   19.00
   1   0   6  495.05   17.00
   1   0   6  488.95   18.60
   1   0   6  455.75   16.90
   1   0   6  484.55   19.00
  -2   0  -6   27.30    6.40
  -2   0  -6   32.10    8.10
  -2   0  -6   16.60    5.50
   2   0   6   39.20    9.20
   2   0   6   37.00    7.50
   2   0   6   17.80    5.30
   2   0   6   18.80    4.00
  -3   0  -6   51.19    7.80
  -3   0  -6   62.59    9.60
   3   0   6   57.89    8.40
   3   0   6   68.49   11.10
   3   0   6   57.59    5.80
   3   0   6   85.29   10.80
  -4   0  -6  525.25   23.90
  -4   0  -6  525.75   24.50
   4   0   6  549.25   24.20
   4   0   6  571.74   25.30
   4   0   6  512.15   23.10
   4   0   6  531.95   15.90
  -5   0  -6  966.60   36.10
  -5   0  -6  993.20   37.10
   5   0   6 1033.70   46.90
   5   0   6  989.50   24.30
   5   0   6  984.30   34.80
  -6   0  -6    1.00   12.60
  -6   0  -6    6.80    7.90
   6   0   6    1.60    8.00
   6   0   6   16.80    9.70
   6   0   6   14.80    4.70
   6   0   6    4.10   10.60
  -7   0  -6  118.79   19.60
   7   0   6   78.89   18.50
   7   0   6   85.19   15.80
   9  -1  -6  221.28   23.90
   9  -1  -6  222.38   17.40
  -9   1   6  179.38   21.40
  -9   1   6  193.98   19.50
   8  -1  -6  933.21   36.20
   8  -1  -6  866.81   29.10
  -8   1   6  855.61   35.80
  -8   1   6  915.61   37.60
  -8   1   6  855.31   34.30
   7  -1  -6  155.88   11.60
   7  -1  -6  172.98   18.50
  -7   1   6  171.38   14.20
  -7   1   6  147.19   14.60
  -7   1   6  218.28   16.90
  -7   1   6  185.88   17.80
   6  -1  -6  867.01   24.20
   6  -1  -6  797.62   28.80
   6  -1  -6  807.52   31.00
  -6   1   6  812.92   29.90
  -6   1   6  863.31   30.10
  -6   1   6  793.92   23.60
  -6   1   6  799.82   29.30
   5  -1  -6 1632.24   42.60
   5  -1  -6 1580.44   43.30
   5  -1  -6 1569.14   35.60
   5  -1  -6 1571.64   42.10
  -5   1   6 1607.54   42.70
  -5   1   6 1596.04   42.90
   4  -1  -6  599.24   21.40
   4  -1  -6  563.84   18.50
   4  -1  -6  590.04   24.30
  -4   1   6  586.24   21.20
  -4   1   6  553.84   21.20
   3  -1  -6   86.99    8.70
   3  -1  -6   84.49    8.90
   3  -1  -6   90.79    8.70
   3  -1  -6   95.39    6.30
  -3   1   6   76.99    8.40
  -3   1   6  102.49    8.90
  -3   1   6   90.29    8.60
   2  -1  -6  450.65   16.90
   2  -1  -6  495.85   17.10
   2  -1  -6  436.06   16.90
  -2   1   6  423.46   16.40
  -2   1   6  451.05   14.00
  -2   1   6  419.46   16.60
  -2   1   6  468.65   17.50
   1  -1  -6  421.26   16.60
   1  -1  -6  425.36   14.20
   1  -1  -6  428.26   15.20
  -1   1   6  419.56   17.00
  -1   1   6  427.66   15.40
  -1   1   6  432.96   14.30
  -1   1   6  400.46   16.10
   0  -1  -6  417.06   15.10
   0  -1  -6  422.36   14.40
   0  -1  -6  427.56   17.20
   0   1   6  439.06   17.00
   0   1   6  413.26   17.30
   0   1   6  427.46   15.40
   0   1   6  421.66   17.40
  -1  -1  -6 1478.85   32.50
  -1  -1  -6 1546.15   39.10
  -1  -1  -6 1483.45   36.80
  -1  -1  -6 1464.35   38.90
   1   1   6 1433.66   37.80
   1   1   6 1454.45   32.30
   1   1   6 1442.26   38.40
   1   1   6 1473.05   36.60
  -2  -1  -6 3375.46   74.39
  -2  -1  -6 3320.07   74.09
  -2  -1  -6 3435.56   73.09
   2   1   6 3372.66   64.19
   2   1   6 3293.57   71.99
   2   1   6 3327.87   73.39
   2   1   6 3378.46   64.09
   2   1   6 3377.46   74.39
  -3  -1  -6    6.90    5.50
  -3  -1  -6   14.40    7.00
   3   1   6   11.90    6.40
   3   1   6   14.20    6.20
   3   1   6   15.90    6.40
   3   1   6   13.40    2.90
   3   1   6   11.80    3.10
  -4  -1  -6  333.67   20.30
  -4  -1  -6  282.27   18.40
   4   1   6  302.17   18.90
   4   1   6  261.17   17.30
  -5  -1  -6  344.47   23.80
   5   1   6  373.36   21.80
   5   1   6  390.96   25.50
  -6  -1  -6   65.99   13.30
   6   1   6   82.39   13.70
   6   1   6   71.79   15.20
   9  -2  -6  217.18   17.90
   9  -2  -6  235.98   24.40
  -9   2   6  221.98   22.70
  -9   2   6  230.98   20.60
   8  -2  -6  154.68   18.20
   8  -2  -6  172.28   14.00
  -8   2   6  176.58   18.60
  -8   2   6  146.09   16.40
   7  -2  -6  104.29   10.70
   7  -2  -6  138.19   15.90
   7  -2  -6  143.69   15.10
  -7   2   6  127.59   14.20
  -7   2   6  133.09   14.10
  -7   2   6  109.19   11.60
  -7   2   6  108.09   14.20
   6  -2  -6  126.89    9.90
   6  -2  -6  118.19   13.20
   6  -2  -6  144.09   13.50
  -6   2   6  105.29   12.30
  -6   2   6  123.09   12.80
   5  -2  -6 1021.80   26.60
   5  -2  -6 1034.50   26.90
   5  -2  -6  984.10   31.30
  -5   2   6  985.00   31.80
  -5   2   6  990.20   31.30
  -5   2   6 1001.20   31.60
   4  -2  -6  513.75   16.30
   4  -2  -6  509.85   20.00
   4  -2  -6  526.55   19.00
  -4   2   6  515.55   20.00
  -4   2   6  495.95   20.00
  -4   2   6  521.95   20.50
   3  -2  -6  234.88   10.70
   3  -2  -6  217.78   12.70
   3  -2  -6  238.38   13.00
   3  -2  -6  252.17   13.40
   3  -2  -6  230.98   10.30
  -3   2   6  238.58   12.80
  -3   2   6  241.48   12.80
  -3   2   6  251.67   13.50
   2  -2  -6 2787.12   59.69
   2  -2  -6 2710.93   57.09
   2  -2  -6 2636.24   57.99
   2  -2  -6 2609.34   54.49
  -2   2   6 2596.34   56.69
  -2   2   6 2559.84   57.49
  -2   2   6 2624.44   58.29
   1  -2  -6 2692.83   59.89
   1  -2  -6 2809.12   57.09
   1  -2  -6 2783.72   61.09
   1  -2  -6 2691.73   57.19
  -1   2   6 2771.92   60.39
  -1   2   6 2772.52   57.09
  -1   2   6 2708.53   59.59
  -1   2   6 2685.13   57.29
   0  -2  -6    6.20    4.60
   0  -2  -6    4.70    3.80
   0  -2  -6    2.20    3.40
   0  -2  -6    1.30    3.40
   0   2   6    6.50    3.20
   0   2   6    0.50    3.10
   0   2   6    1.40    3.60
   0   2   6    4.60    4.50
  -1  -2  -6    4.30    5.00
  -1  -2  -6    6.70    5.10
  -1  -2  -6    8.20    4.80
  -1  -2  -6    9.80    3.00
   1   2   6    8.00    3.00
   1   2   6    4.90    4.40
   1   2   6    8.80    5.20
  -2  -2  -6  303.17   16.80
  -2  -2  -6  268.27   15.70
   2   2   6  287.97   15.80
   2   2   6  324.07   16.80
   2   2   6  294.67    8.70
   2   2   6  308.67   17.30
   2   2   6  319.17    9.00
  -3  -2  -6   23.50    7.20
  -3  -2  -6   29.70    8.20
   3   2   6   19.70    7.10
   3   2   6   11.30    6.70
  -4  -2  -6  315.67   20.20
  -4  -2  -6  312.97   21.30
   4   2   6  342.97   20.60
   4   2   6  335.27   20.10
  -5  -2  -6  931.81   38.90
  -5  -2  -6  923.81   36.60
   5   2   6  954.40   37.40
   5   2   6  925.61   36.10
  -6  -2  -6  153.18   20.10
   6   2   6  172.28   19.20
   6   2   6  197.98   26.70
   9  -3  -6  268.87   19.10
   9  -3  -6  246.38   23.50
  -9   3   6  270.87   22.50
  -9   3   6  298.07   25.30
   8  -3  -6 1143.29   35.90
   8  -3  -6 1238.98   42.90
  -8   3   6 1171.08   41.50
  -8   3   6 1217.88   42.90
   7  -3  -6  168.38   12.80
   7  -3  -6  164.88   16.00
  -7   3   6  203.48   16.90
  -7   3   6  191.18   16.50
   6  -3  -6    2.50    5.80
   6  -3  -6    4.70    5.10
   6  -3  -6    1.10    4.20
   6  -3  -6    3.10    6.20
  -6   3   6    4.70    5.80
  -6   3   6   -2.10    5.70
  -6   3   6    8.10    6.20
   5  -3  -6 3260.77   68.99
   5  -3  -6 3290.57   68.49
   5  -3  -6 3291.37   73.89
   5  -3  -6 3352.06   74.09
  -5   3   6 3408.46   74.39
  -5   3   6 3201.18   73.89
  -5   3   6 3332.57   73.79
   4  -3  -6  172.38   10.10
   4  -3  -6  202.18   13.60
   4  -3  -6  174.48   12.20
   4  -3  -6  165.88   11.90
   4  -3  -6  162.88   10.20
  -4   3   6  164.68   11.70
  -4   3   6  166.98   12.30
  -4   3   6  186.88   12.90
   3  -3  -6  152.58   10.90
   3  -3  -6  126.29   10.40
   3  -3  -6  149.49   11.00
   3  -3  -6  134.39    9.10
  -3   3   6  130.99   10.40
  -3   3   6  131.79   10.50
  -3   3   6  139.99   10.30
   2  -3  -6  215.28   11.90
   2  -3  -6  235.48   11.80
   2  -3  -6  246.58   13.30
   2  -3  -6  205.38   12.30
  -2   3   6  241.08   12.70
  -2   3   6  221.68   11.50
  -2   3   6  216.98   12.80
  -2   3   6  231.08   12.00
   1  -3  -6   96.79    7.90
   1  -3  -6  109.69    9.80
   1  -3  -6  105.49    9.70
   1  -3  -6  102.49    9.10
  -1   3   6  114.69   10.40
  -1   3   6   88.39    7.70
  -1   3   6  123.69    9.80
  -1   3   6  129.39    9.50
   0  -3  -6   70.49    8.80
   0  -3  -6   67.69    8.60
   0  -3  -6   81.09    6.50
   0   3   6   78.19    8.80
   0   3   6   73.79    9.00
   0   3   6   81.49    8.90
   0   3   6   78.69    6.40
  -1  -3  -6 2421.06   46.70
  -1  -3  -6 2430.66   57.69
  -1  -3  -6 2427.06   57.29
  -1  -3  -6 2348.27   56.59
   1   3   6 2267.37   55.79
   1   3   6 2373.46   56.39
   1   3   6 2445.56   46.60
   1   3   6 2485.15   56.49
  -2  -3  -6  774.32   28.60
  -2  -3  -6  757.72   27.80
   2   3   6  767.02   27.80
   2   3   6  825.42   28.00
  -3  -3  -6  345.87   20.20
  -3  -3  -6  280.57   18.10
   3   3   6  292.07   18.20
   3   3   6  310.27   18.60
  -4  -3  -6   42.90   10.50
   4   3   6   51.29   10.90
   4   3   6   35.50    9.20
  -5  -3  -6  131.19   17.30
   5   3   6  116.19   16.20
   5   3   6  113.09   16.40
  -6  -3  -6   31.80   13.10
   6   3   6   17.50   11.40
   9  -4  -6   65.69   14.30
   9  -4  -6   67.59   12.00
  -9   4   6   62.89   14.90
  -9   4   6   48.20   12.90
   8  -4  -6  261.37   19.70
   8  -4  -6  235.28   20.50
   8  -4  -6  255.17   23.40
  -8   4   6  274.17   21.70
  -8   4   6  232.58   19.40
   7  -4  -6   10.70    5.80
   7  -4  -6   -4.20    7.70
   7  -4  -6   -0.20    6.10
  -7   4   6    4.10    6.70
  -7   4   6   10.50    7.20
   6  -4  -6   84.69   10.50
   6  -4  -6   67.79   11.20
   6  -4  -6   52.79    8.20
   6  -4  -6   70.59   10.10
  -6   4   6   66.59   10.20
  -6   4   6   66.49   15.20
   5  -4  -6 1852.11   44.80
   5  -4  -6 1856.51   48.40
   5  -4  -6 1843.72   44.80
   5  -4  -6 1857.51   48.00
  -5   4   6 1794.42   47.10
  -5   4   6 1721.43   47.70
  -5   4   6 1869.31   48.10
   4  -4  -6  616.44   23.80
   4  -4  -6  618.64   23.20
   4  -4  -6  628.14   21.40
   4  -4  -6  665.43   22.00
   4  -4  -6  692.33   24.20
  -4   4   6  638.24   23.00
  -4   4   6  659.43   24.00
  -4   4   6  617.24   23.50
   3  -4  -6   12.50    5.20
   3  -4  -6   20.20    5.80
   3  -4  -6   12.70    4.80
   3  -4  -6   16.50    4.80
  -3   4   6   14.50    4.90
  -3   4   6   23.10    5.60
  -3   4   6   12.10    4.80
  -3   4   6   40.70   11.70
   2  -4  -6 2320.67   52.89
   2  -4  -6 2319.17   53.79
   2  -4  -6 2221.78   53.69
   2  -4  -6 2330.17   51.79
  -2   4   6 2258.17   52.39
  -2   4   6 2471.25   56.69
  -2   4   6 2354.06   58.09
  -2   4   6 2290.37   51.59
   1  -4  -6 1119.79   32.20
   1  -4  -6 1182.48   33.50
   1  -4  -6 1191.38   33.40
   1  -4  -6 1179.08   29.50
  -1   4   6 1192.08   32.40
  -1   4   6 1178.28   33.20
  -1   4   6 1125.39   32.50
   0  -4  -6  140.89    8.10
   0  -4  -6  150.68   12.20
   0  -4  -6  156.28   11.80
   0  -4  -6  119.79   12.00
   0   4   6  131.09   11.80
   0   4   6  132.89   11.30
   0   4   6  121.99    7.50
   0   4   6  138.19   10.70
  -1  -4  -6   53.59    4.00
  -1  -4  -6   49.00    7.70
   1   4   6   62.49    9.40
   1   4   6   48.20    8.10
  -2  -4  -6   10.40    6.20
  -2  -4  -6    8.60    6.40
   2   4   6    2.10    6.20
   2   4   6    2.60    5.20
  -3  -4  -6   17.70    7.40
  -3  -4  -6   10.00    8.30
   3   4   6    1.10    6.30
   3   4   6   13.50    7.70
  -4  -4  -6  454.75   25.40
  -4  -4  -6  435.06   27.00
   4   4   6  436.06   25.10
   4   4   6  428.46   25.10
  -5  -4  -6  420.56   27.40
   5   4   6  459.15   28.00
   9  -5  -6  394.76   23.00
   9  -5  -6  338.27   26.20
  -9   5   6  392.56   39.30
  -9   5   6  353.86   27.70
   8  -5  -6 1172.98   37.70
   8  -5  -6 1059.59   48.10
  -8   5   6 1130.89   41.60
  -8   5   6 1184.28   42.60
   7  -5  -6  467.95   24.30
   7  -5  -6  417.66   20.80
   7  -5  -6  450.25   24.70
  -7   5   6  469.95   24.40
  -7   5   6  477.15   24.30
   6  -5  -6  166.68   15.30
   6  -5  -6  180.78   13.60
   6  -5  -6  168.38   14.30
  -6   5   6  157.48   14.80
  -6   5   6  137.89   13.70
   5  -5  -6  665.23   27.20
   5  -5  -6  599.74   23.00
   5  -5  -6  579.54   24.10
   5  -5  -6  597.94   24.50
  -5   5   6  655.13   24.50
  -5   5   6  639.84   25.60
   4  -5  -6  156.28   11.90
   4  -5  -6  160.78   12.80
   4  -5  -6  164.08   12.50
   4  -5  -6  157.38   12.40
  -4   5   6  149.59   12.10
  -4   5   6  178.18   13.30
   3  -5  -6  231.98   14.00
   3  -5  -6  228.98   14.10
   3  -5  -6  223.18   13.90
   3  -5  -6  236.18   14.10
  -3   5   6  222.48   13.60
  -3   5   6  240.38   13.50
  -3   5   6  220.88   13.30
  -3   5   6  239.48   17.20
   2  -5  -6   70.29    9.30
   2  -5  -6   71.49    9.40
   2  -5  -6   66.69    8.40
   2  -5  -6   76.99    9.20
  -2   5   6   77.39    9.50
  -2   5   6   67.69    8.50
  -2   5   6   75.89    8.50
   1  -5  -6 1330.87   37.30
   1  -5  -6 1328.57   37.10
   1  -5  -6 1349.47   32.70
  -1   5   6 1316.77   37.30
  -1   5   6 1360.06   35.80
  -1   5   6 1299.17   35.60
   0  -5  -6    8.90    3.80
   0  -5  -6    1.00    4.70
   0  -5  -6    2.80    4.90
   0   5   6    5.50    5.00
   0   5   6    2.40    4.90
   0   5   6    0.10    3.10
  -1  -5  -6  512.75   22.80
   1   5   6  532.25   21.70
   1   5   6  515.85   26.20
  -2  -5  -6 1726.83   50.29
  -2  -5  -6 1975.50   52.49
   2   5   6 1795.42   51.59
   2   5   6 1964.00   50.19
  -3  -5  -6  304.37   20.10
  -3  -5  -6  336.17   22.10
   3   5   6  314.97   21.50
   3   5   6  312.87   20.50
  -4  -5  -6   90.29   14.40
   4   5   6   79.99   13.70
   9  -6  -6   66.19   12.40
   9  -6  -6   70.39   15.60
  -9   6   6  104.09   17.20
  -9   6   6   46.20   15.60
   8  -6  -6   16.40   11.80
   8  -6  -6   11.40    7.50
   8  -6  -6   -5.30    8.00
  -8   6   6    7.70    9.30
  -8   6   6    4.70    9.70
   7  -6  -6    4.00    8.60
   7  -6  -6   -4.40    6.20
   7  -6  -6   -8.00    6.20
  -7   6   6    6.20    8.00
  -7   6   6    3.90    6.80
   6  -6  -6  192.48   16.90
   6  -6  -6  243.78   16.10
   6  -6  -6  226.88   16.70
  -6   6   6  219.28   16.20
  -6   6   6  215.48   17.00
   5  -6  -6  533.05   22.80
   5  -6  -6  601.24   24.30
   5  -6  -6  513.05   23.50
  -5   6   6  548.65   24.90
  -5   6   6  554.34   24.40
   4  -6  -6 2085.39   52.99
   4  -6  -6 2174.48   53.79
   4  -6  -6 2139.99   53.29
  -4   6   6 2101.39   51.49
  -4   6   6 2173.58   53.99
   3  -6  -6   25.80    6.80
   3  -6  -6   26.50    7.30
   3  -6  -6   22.30    6.10
  -3   6   6   25.90    6.50
  -3   6   6   21.50    6.10
  -3   6   6   27.40    6.90
   2  -6  -6  808.52   25.50
   2  -6  -6  827.82   27.70
   2  -6  -6  846.92   27.80
  -2   6   6  799.22   25.70
  -2   6   6  795.42   25.50
  -2   6   6  790.82   28.00
   1  -6  -6 1310.07   39.20
   1  -6  -6 1489.05   40.30
   1  -6  -6 1414.76   34.40
  -1   6   6 1420.06   37.20
  -1   6   6 1388.86   34.40
  -1   6   6 1331.57   39.70
   0  -6  -6   56.89    6.70
   0  -6  -6   41.90    9.40
   0   6   6   48.10    8.90
   0   6   6   47.80    5.60
   0   6   6   63.89    8.90
  -1  -6  -6    8.50    6.60
  -1  -6  -6    6.30    5.40
   1   6   6    3.10    6.20
   1   6   6    5.30    6.80
  -2  -6  -6   82.59   11.30
  -2  -6  -6  121.59   15.00
   2   6   6  108.69   14.00
  -3  -6  -6   85.79   13.30
  -3  -6  -6   94.99   14.70
   3   6   6   69.59   13.00
  -4  -6  -6   76.09   14.10
   4   6   6   83.89   15.30
   9  -7  -6   44.30   12.00
   9  -7  -6   54.69   14.50
  -9   7   6   73.39   14.80
   8  -7  -6  808.12   35.40
   8  -7  -6  831.72   33.00
  -8   7   6  807.22   36.00
  -8   7   6  776.82   35.70
   7  -7  -6  730.63   31.60
   7  -7  -6  708.03   47.80
   7  -7  -6  744.93   30.20
  -7   7   6  774.62   33.20
  -7   7   6  768.12   31.50
   6  -7  -6   16.40    8.80
   6  -7  -6    2.40    6.60
   6  -7  -6   12.40    6.90
  -6   7   6   23.20    8.50
  -6   7   6    4.20    6.90
   5  -7  -6  276.97   17.50
   5  -7  -6  273.57   17.80
   5  -7  -6  290.27   18.20
  -5   7   6  307.37   19.00
  -5   7   6  284.37   17.50
   4  -7  -6  138.49   13.00
  -4   7   6  146.59   13.40
  -4   7   6  119.59   12.10
   3  -7  -6   32.00    9.30
  -3   7   6   27.70    7.10
  -3   7   6   20.30    6.40
   2  -7  -6  329.37   19.60
   2  -7  -6  330.97   17.80
   2  -7  -6  374.76   18.90
  -2   7   6  360.56   19.40
  -2   7   6  345.87   16.40
   1  -7  -6  505.65   22.30
   1  -7  -6  478.25   17.80
   1  -7  -6  470.55   21.40
  -1   7   6  464.15   17.50
  -1   7   6  458.25   22.80
   0  -7  -6  216.98   16.30
   0  -7  -6  219.58   10.00
   0  -7  -6  207.18   15.70
   0   7   6  221.88   17.20
   0   7   6  202.18    9.80
   0   7   6  183.68   14.20
  -1  -7  -6  221.58   17.60
  -1  -7  -6  280.17   18.30
   1   7   6  260.07   19.20
   1   7   6  241.48   17.50
  -2  -7  -6  809.52   32.70
  -2  -7  -6  777.82   33.50
   2   7   6  832.52   32.10
   2   7   6  826.22   34.40
  -3  -7  -6  205.48   20.00
   3   7   6  209.28   21.30
   8  -8  -6   -3.90    8.40
   8  -8  -6    1.30    9.60
  -8   8   6    6.90   10.50
   7  -8  -6   -2.10    7.00
   7  -8  -6    4.20   10.40
   7  -8  -6    7.60    7.80
  -7   8   6    5.10   10.60
  -7   8   6   11.80    9.70
   6  -8  -6    7.50    6.70
   6  -8  -6   19.80    9.50
   6  -8  -6    9.50    7.20
  -6   8   6   16.90    8.80
  -6   8   6   13.00    8.60
   5  -8  -6 1098.69   36.10
   5  -8  -6 1098.29   36.80
   5  -8  -6 1018.30   36.40
  -5   8   6 1099.29   34.30
  -5   8   6 1041.30   37.10
   4  -8  -6  428.26   22.90
   4  -8  -6  476.95   22.60
   4  -8  -6  462.35   21.70
  -4   8   6  471.95   23.20
   3  -8  -6  245.08   16.00
   3  -8  -6  244.68   16.50
  -3   8   6  251.77   15.30
  -3   8   6  251.97   16.40
   2  -8  -6  246.58   15.90
   2  -8  -6  215.38   15.20
   2  -8  -6  222.28   16.20
  -2   8   6  218.98   14.70
  -2   8   6  231.18   17.20
  -2   8   6  248.88   14.80
   1  -8  -6  592.84   20.70
   1  -8  -6  610.34   25.80
   1  -8  -6  580.64   24.70
  -1   8   6  650.93   28.40
  -1   8   6  566.64   21.80
  -1   8   6  604.74   20.80
   0  -8  -6   29.80    8.40
   0  -8  -6   37.60    5.50
   0  -8  -6   38.70    9.60
   0   8   6   59.79   10.10
   0   8   6   40.60    5.50
   0   8   6   46.10   10.40
  -1  -8  -6  106.29   14.40
  -1  -8  -6  134.89   16.60
   1   8   6  141.69   16.60
   1   8   6  167.58   20.30
  -2  -8  -6   29.60    9.60
   2   8   6   60.59   14.10
   8  -9  -6  863.81   54.29
  -8   9   6  768.22   37.80
   7  -9  -6  331.77   23.40
   7  -9  -6  369.66   24.00
  -7   9   6  324.17   24.50
   6  -9  -6   89.19   13.90
   6  -9  -6  126.99   15.10
   6  -9  -6  136.59   16.50
  -6   9   6   82.69   14.60
   5  -9  -6  143.79   15.90
   5  -9  -6  175.38   15.80
   5  -9  -6  172.68   17.10
  -5   9   6  169.88   17.20
  -5   9   6  147.99   16.70
   4  -9  -6   73.89   11.60
   4  -9  -6   58.39   11.20
   4  -9  -6   53.39   10.60
  -4   9   6   45.10    9.50
  -4   9   6   46.40   10.40
   3  -9  -6   -1.30    5.40
   3  -9  -6    1.90    7.10
  -3   9   6    9.00    6.70
   2  -9  -6  221.28   16.30
   2  -9  -6  221.18   17.20
   2  -9  -6  237.68   16.80
  -2   9   6  205.08   14.90
  -2   9   6  213.38   18.20
  -2   9   6  248.48   24.80
   1  -9  -6  493.25   25.00
   1  -9  -6  491.75   19.70
   1  -9  -6  492.35   23.60
  -1   9   6  511.25   27.40
  -1   9   6  517.35   19.70
  -1   9   6  500.65   21.60
   0  -9  -6  192.48   18.70
   0  -9  -6  156.48   16.00
   0   9   6  211.88   20.20
  -1  -9  -6  169.78   17.70
   1   9   6  177.78   19.80
   7 -10  -6  171.58   20.00
   7 -10  -6  197.18   20.10
  -7  10   6  185.28   21.60
   6 -10  -6   34.90   11.30
  -6  10   6   29.90   11.10
   5 -10  -6  215.08   19.10
   5 -10  -6  224.38   20.30
   5 -10  -6  212.48   17.70
  -5  10   6  196.08   18.70
   4 -10  -6  824.32   35.30
   4 -10  -6  780.42   31.90
   4 -10  -6  826.42   31.20
  -4  10   6  809.62   29.40
  -4  10   6  813.72   32.70
   3 -10  -6  281.57   18.20
   3 -10  -6  266.07   20.10
   2 -10  -6  370.06   20.40
  -2  10   6  295.17   23.00
  -2  10   6  353.76   19.30
   1 -10  -6  111.99   13.90
   1 -10  -6  116.59   15.60
  -1  10   6   91.69   15.00
  -1  10   6   93.39   12.40
   0 -10  -6   49.60   11.70
   0  10   6   62.69   14.60
   6 -11  -6   19.90   11.70
   6 -11  -6   -0.40    8.50
   5 -11  -6   22.50    9.10
   5 -11  -6   33.80   11.40
  -5  11   6   24.20   10.80
   4 -11  -6    0.10    7.20
   4 -11  -6    7.40    9.80
  -4  11   6   -6.00    8.60
   3 -11  -6   17.80    8.40
   3 -11  -6   19.80   11.30
  -3  11   6   12.60    9.50
   2 -11  -6   23.40    8.20
  -2  11   6   18.20   10.30
  -2  11   6   42.70   11.10
   0 -13   7  165.78   15.70
   0 -13   7  156.38   19.40
   1 -13   7   64.79   13.40
   1 -13   7   69.59   11.10
   2 -13   7   67.09   11.40
   2 -13   7   65.69   14.50
   3 -13   7   96.09   18.50
   3 -13   7   99.79    9.00
   3 -13   7  102.99   13.80
   3 -13   7   98.69    9.20
   4 -13   7   81.49   13.20
   4 -13   7   79.89   10.30
   4 -13   7   69.79    9.50
   4 -13   7   56.99   13.40
   5 -13   7    4.90   10.50
   5 -13   7    9.50    8.40
   5 -13   7    0.50    6.70
  -2 -12   7   46.40   13.10
  -2 -12   7   40.60    9.00
  -1 -12   7    1.70    6.60
  -1 -12   7    7.00    8.90
   0 -12   7   38.50   11.20
   0 -12   7   34.60    8.50
   1 -12   7   28.50    7.70
   1 -12   7   14.10    8.40
   2 -12   7    2.50    3.60
   2 -12   7    4.20    6.10
   2 -12   7    0.90    7.70
   2 -12   7    2.90    4.00
   3 -12   7   13.40    5.50
   3 -12   7   18.70    8.80
   3 -12   7   13.90    5.50
   3 -12   7   25.00    8.40
   4 -12   7  119.09   16.60
   4 -12   7  101.49   11.70
   4 -12   7  122.89   11.60
   4 -12   7  107.99   14.20
   5 -12   7  113.89   15.20
   5 -12   7  124.29   15.30
   5 -12   7  137.89   14.00
   5 -12   7  146.19   19.50
   6 -12   7   37.80   12.40
  -3 -11   7   17.90   10.00
  -3 -11   7    3.20    6.50
  -3 -11   7    0.80    8.70
  -2 -11   7  101.39   14.60
  -2 -11   7   83.29    7.30
  -2 -11   7   84.19    9.90
  -2 -11   7   97.19   11.20
  -1 -11   7    0.90    8.10
  -1 -11   7    4.70    7.40
  -1 -11   7   -0.10    5.60
   0 -11   7  185.88   17.60
   0 -11   7  176.28   13.10
   1 -11   7  542.15   21.40
   1 -11   7  490.85   26.00
   1 -11   7  491.35   14.70
   1 -11   7  515.55   14.60
   2 -11   7   34.60   10.40
   2 -11   7   29.00    5.60
   2 -11   7   24.00    7.30
   2 -11   7   34.10    5.70
   3 -11   7   87.49   11.10
   3 -11   7   76.89    8.90
   3 -11   7   62.39   11.80
   3 -11   7   73.79    8.60
   4 -11   7   27.20    9.20
   4 -11   7   19.00    6.40
   4 -11   7   18.70    7.10
   4 -11   7   27.80    8.90
   5 -11   7   82.49   13.10
   5 -11   7   85.79   17.50
   6 -11   7   -9.60    8.70
  -4 -10   7   17.20    6.60
  -4 -10   7   -2.70    8.50
  -4 -10   7   13.90    6.90
  -4 -10   7    4.90    7.40
  -3 -10   7  118.89   11.20
  -3 -10   7  130.39   17.20
  -3 -10   7  115.69   11.00
  -3 -10   7  146.89   10.60
  -3 -10   7  153.48   16.90
  -2 -10   7  586.04   17.70
  -2 -10   7  551.14   26.60
  -2 -10   7  534.05   19.40
  -2 -10   7  585.04   21.00
  -1 -10   7    7.00    5.00
  -1 -10   7   10.70    6.30
  -1 -10   7    8.10    4.20
  -1 -10   7   13.40    7.70
  -1 -10   7    2.70    3.30
   0 -10   7   40.30    5.10
   0 -10   7   51.39   10.70
   0 -10   7   35.30    6.80
   0 -10   7   44.60    5.20
   1 -10   7   28.90    5.00
   1 -10   7   17.20    7.00
   1 -10   7   17.20    8.00
   1 -10   7   27.80    6.40
   1 -10   7   27.80    5.00
   2 -10   7   -1.40    3.90
   2 -10   7    4.30    5.50
   2 -10   7    9.90    4.30
   2 -10   7    3.50    6.80
   3 -10   7   69.49   10.50
   3 -10   7  104.09   11.70
   3 -10   7  115.39   14.70
   3 -10   7   79.89    9.00
  -4  10  -7  556.54   20.30
   4 -10   7  620.54   25.60
   4 -10   7  587.54   24.20
   4 -10   7  619.04   23.20
   4 -10   7  597.24   28.50
  -5  10  -7   12.60    9.70
   5 -10   7   17.90    7.50
   5 -10   7   10.80    7.90
   6 -10   7    2.60    7.50
   6 -10   7   14.60    9.30
   6 -10   7   -4.30    8.60
   7 -10   7  116.49   16.70
   7 -10   7   85.59   15.10
  -5  -9   7  219.48   18.40
  -5  -9   7  214.78   18.80
  -5  -9   7  204.18   15.70
  -4  -9   7   14.00    8.10
  -4  -9   7   -6.60    5.90
  -4  -9   7   -2.00    5.20
  -4  -9   7    2.10    5.10
  -3  -9   7    7.80    5.60
  -3  -9   7    7.20    5.40
  -3  -9   7    6.70    5.00
  -3  -9   7   10.70    5.00
  -2  -9   7   83.39    8.70
  -2  -9   7   73.29    8.80
  -2  -9   7   74.49    7.50
  -2  -9   7   92.49   12.50
  -1  -9   7   29.50    5.40
  -1  -9   7   32.40    5.60
  -1  -9   7   35.60    5.00
  -1  -9   7   33.10    8.80
   0  -9   7  170.98   10.10
   0  -9   7  182.88   10.80
   0  -9   7  203.38   12.10
   0  -9   7  192.28    9.80
   0  -9   7  166.38   14.70
   1  -9   7 1259.57   39.70
   1  -9   7 1245.08   33.20
   1  -9   7 1208.48   29.70
   1  -9   7 1198.08   30.50
   1  -9   7 1209.78   32.30
   2  -9   7   -0.10    4.20
   2  -9   7    4.00    5.80
   2  -9   7   -6.80    5.30
   2  -9   7   -1.60    3.80
   2  -9   7    2.70    4.00
  -3   9  -7    9.70    4.60
   3  -9   7   13.10    6.10
   3  -9   7   12.90    5.10
   3  -9   7   13.80    7.00
   3  -9   7    9.90    5.20
  -4   9  -7  131.89   12.10
   4  -9   7  132.99   12.50
   4  -9   7  143.69   17.60
   4  -9   7  138.39   14.70
   4  -9   7  111.79   11.60
  -5   9  -7   26.60    9.70
   5  -9   7   52.69   10.50
   5  -9   7   39.40    9.20
   6  -9   7   89.89   13.80
   6  -9   7   93.79   14.50
   6  -9   7   96.89   12.90
   7  -9   7  167.58   18.70
   7  -9   7  145.99   18.50
   6   8  -7   84.09    9.90
  -6  -8   7   74.29   13.10
  -6  -8   7   95.59   13.00
   5   8  -7  271.77   13.10
  -5  -8   7  270.27   19.20
  -5  -8   7  256.87   18.30
  -5  -8   7  262.47   16.80
  -4  -8   7   96.89   10.30
  -4  -8   7  137.19   14.60
  -4  -8   7  116.49   14.20
  -4  -8   7  102.89    9.00
  -3  -8   7  829.52   25.30
  -3  -8   7  853.31   23.70
  -3  -8   7  908.61   32.10
  -3  -8   7  877.71   22.30
  -3  -8   7  835.12   29.40
  -2  -8   7  200.48   15.60
  -2  -8   7  207.08   10.90
  -2  -8   7  195.48   11.00
  -2  -8   7  247.38   10.60
  -1  -8   7  157.18   14.50
  -1  -8   7  147.89   13.20
  -1  -8   7  155.68    9.00
  -1  -8   7  162.98    8.80
  -1  -8   7  160.88    9.40
   0  -8   7   56.69    7.40
   0  -8   7   48.50    8.60
   0  -8   7   56.69    7.70
   0  -8   7   54.89    6.40
   1  -8   7   51.69    6.60
   1  -8   7   34.10    6.10
   1  -8   7   33.70    7.50
   1  -8   7   46.20    6.10
   1  -8   7   41.50    6.30
  -2   8  -7  160.18    8.40
  -2   8  -7  165.18   14.00
   2  -8   7  137.89   13.10
   2  -8   7  155.18   11.00
   2  -8   7  134.89    9.90
   2  -8   7  158.78   10.70
  -3   8  -7  243.18   13.00
   3  -8   7  254.37   14.60
   3  -8   7  256.47   17.00
   3  -8   7  229.28   13.70
   3  -8   7  254.97   13.90
   4  -8   7  360.16   18.40
   4  -8   7  376.26   19.00
   4  -8   7  355.96   18.10
   4  -8   7  388.96   21.00
  -5   8  -7  275.87   18.50
   5  -8   7  289.77   18.80
   5  -8   7  297.17   18.90
  -6   8  -7    6.70    9.80
   6  -8   7    5.50    7.20
   6  -8   7   26.30   10.50
   7  -8   7   57.29   13.40
   7  -8   7   80.29   18.20
   6   7  -7  190.58   12.30
  -6  -7   7  183.18   18.40
  -6  -7   7  151.38   16.60
  -6  -7   7  192.48   18.00
   5   7  -7   63.69    9.20
   5   7  -7   70.19    7.50
  -5  -7   7   61.89   12.00
  -5  -7   7   84.69   11.90
  -5  -7   7   76.19    8.40
  -5  -7   7   81.29   10.60
  -4  -7   7   49.70    8.60
  -4  -7   7   41.60    9.30
  -4  -7   7   46.00    7.60
  -4  -7   7   46.80    5.30
  -3  -7   7  129.39    9.80
  -3  -7   7  123.59   13.00
  -3  -7   7  133.79    6.70
  -3  -7   7  136.09    7.00
  -3  -7   7  135.19   10.60
  -2  -7   7  253.97    8.90
  -2  -7   7  232.18   15.70
  -2  -7   7  257.57    9.20
  -2  -7   7  233.98   11.50
  -2  -7   7  241.38   17.90
  -1  -7   7  260.27   11.50
  -1  -7   7  266.37   15.80
  -1  -7   7  256.17    9.60
  -1  -7   7  245.48    9.80
  -1  -7   7  235.48   13.60
   0   7  -7  465.15   11.40
   0   7  -7  487.45   11.60
   0  -7   7  453.85   15.00
   0  -7   7  480.95   21.00
   0  -7   7  477.45   14.80
   0  -7   7  451.65   16.20
   0  -7   7  441.96   15.90
  -1   7  -7  632.34   19.80
  -1   7  -7  629.44   16.60
  -1   7  -7  619.34   16.70
   1  -7   7  600.04   23.90
   1  -7   7  617.94   20.00
   1  -7   7  641.34   19.30
   1  -7   7  628.54   19.90
  -2   7  -7  836.92   25.50
   2  -7   7  804.92   24.70
   2  -7   7  858.11   25.40
   2  -7   7  880.61   29.50
   2  -7   7  815.32   24.60
  -3   7  -7    6.60    5.00
  -3   7  -7   11.50    5.90
   3  -7   7    7.40    4.80
   3  -7   7    8.50    5.00
   3  -7   7   10.60    4.70
   3  -7   7   11.50    6.30
  -4   7  -7   59.39    9.40
   4  -7   7   61.79    9.40
   4  -7   7   55.69    9.20
   4  -7   7   67.99    9.80
   4  -7   7   66.89    9.70
  -5   7  -7   10.40    7.70
   5  -7   7    1.10    5.60
   5  -7   7   -0.40    6.60
   6  -7   7   86.39   13.10
   6  -7   7   93.89   15.00
  -7   7  -7   90.19   16.50
   7  -7   7  113.59   16.10
   7   6  -7   35.10    8.20
  -7  -6   7   21.50    9.70
  -7  -6   7   11.20    9.00
   6   6  -7  389.66   21.60
  -6  -6   7  437.96   22.80
  -6  -6   7  415.46   22.90
  -6  -6   7  415.06   22.70
  -6  -6   7  418.36   15.70
   5   6  -7  386.36   17.70
   5   6  -7  406.66   12.70
  -5  -6   7  408.66   12.90
  -5  -6   7  368.56   19.60
  -5  -6   7  393.66   21.20
  -5  -6   7  367.56   18.80
   4   6  -7  243.88   12.50
  -4  -6   7  225.28   13.90
  -4  -6   7  230.38   13.70
  -4  -6   7  239.38   16.20
  -4  -6   7  218.88    7.80
   3   6  -7  641.84   18.50
  -3  -6   7  621.14   24.60
  -3  -6   7  636.04   21.40
  -3  -6   7  637.94   21.20
   2   6  -7  668.73   25.40
   2   6  -7  708.43   18.30
  -2  -6   7  674.73   20.90
  -2  -6   7  704.53   14.90
  -2  -6   7  705.93   21.50
  -2  -6   7  699.03   25.50
   1   6  -7  338.17   11.00
  -1  -6   7  341.67   13.90
  -1  -6   7  327.27   10.00
  -1  -6   7  307.67   13.00
  -1  -6   7  336.47   16.80
  -1  -6   7  304.47    9.50
   0   6  -7   96.49    6.60
   0  -6   7  108.09    6.50
   0  -6   7   89.69    9.90
   0  -6   7   90.29    7.70
   0  -6   7   94.89    8.20
  -1   6  -7  739.53   21.40
  -1   6  -7  782.32   21.90
   1  -6   7  769.72   21.60
   1  -6   7  780.92   23.40
   1  -6   7  801.82   26.70
   1  -6   7  781.72   23.20
  -2   6  -7   25.30    5.80
  -2   6  -7   23.80    5.50
   2  -6   7   33.50    6.30
   2  -6   7   28.60    7.10
   2  -6   7   26.60    5.80
   2  -6   7   32.30    5.70
   2  -6   7   43.20    7.80
  -3   6  -7  312.87   15.60
  -3   6  -7  296.17   16.00
   3  -6   7  296.37   15.20
   3  -6   7  259.57   14.20
   3  -6   7  283.87   16.30
   3  -6   7  297.37   15.60
  -4   6  -7  254.97   15.80
   4  -6   7  252.07   15.50
   4  -6   7  220.58   15.20
   4  -6   7  271.57   16.60
   4  -6   7  263.87   16.30
  -5   6  -7  668.33   27.40
   5  -6   7  646.64   26.50
   5  -6   7  634.14   28.10
  -6   6  -7    0.00    8.60
   6  -6   7    3.50    7.40
   6  -6   7    9.30   10.00
  -7   6  -7   10.40   11.90
   7  -6   7    6.30    8.70
   7   5  -7    6.20    6.00
  -7  -5   7    3.00    7.80
  -7  -5   7    1.70    7.80
   6   5  -7   72.69    7.70
  -6  -5   7  112.39    8.60
  -6  -5   7   86.69   12.00
  -6  -5   7   90.19   12.60
   5   5  -7   96.29    6.00
  -5  -5   7  108.89   11.50
  -5  -5   7  127.09   12.80
  -5  -5   7  126.09    6.50
  -5  -5   7  101.39   12.60
  -4  -5   7   10.80    6.00
  -4  -5   7   11.80    5.40
  -4  -5   7   18.00    6.00
   3   5  -7  112.89   11.80
  -3  -5   7  100.09    9.30
  -3  -5   7  107.49   11.50
  -3  -5   7  113.59    9.30
   2   5  -7 1857.21   46.90
   2   5  -7 1899.11   40.40
  -2  -5   7 1819.72   46.60
  -2  -5   7 1865.51   42.90
  -2  -5   7 1833.42   42.50
   1   5  -7   61.99    6.10
   1   5  -7   75.59   10.60
  -1  -5   7   57.19    6.80
  -1  -5   7   71.59    8.80
  -1  -5   7   64.19    3.70
  -1  -5   7   66.79    4.00
  -1  -5   7   76.59    7.40
   0   5  -7  163.98    9.10
   0  -5   7  162.88   10.10
   0  -5   7  165.28    9.90
   0  -5   7  158.88    7.40
   0  -5   7  180.08   12.00
  -1   5  -7 1774.92   39.60
  -1   5  -7 1776.12   41.70
   1  -5   7 1713.83   44.40
   1  -5   7 1819.02   42.50
   1  -5   7 2042.70   53.79
   1  -5   7 1733.13   41.40
   1  -5   7 1771.02   42.60
  -2   5  -7   73.69    8.50
  -2   5  -7   72.99    7.90
  -2   5  -7   84.69    8.60
   2  -5   7   58.29    8.00
   2  -5   7   79.89    9.00
   2  -5   7   65.09    8.00
   2  -5   7   87.79    7.90
   2  -5   7   67.79    9.00
  -3   5  -7  221.98   13.90
  -3   5  -7  216.28   13.50
   3  -5   7  225.28   13.80
   3  -5   7  240.68   14.40
   3  -5   7  222.08   13.10
   3  -5   7  235.08   14.80
   3  -5   7  240.18   14.40
  -4   5  -7   14.80    6.60
   4  -5   7    6.50    5.00
   4  -5   7    9.20    5.50
   4  -5   7   23.80    7.60
   4  -5   7   14.70    6.10
  -5   5  -7   -7.00    6.10
   5  -5   7    5.10    5.20
   5  -5   7    0.00    5.70
   5  -5   7    9.90    8.00
   5  -5   7   11.40    6.90
  -6   5  -7    5.80    8.10
   6  -5   7    6.40   10.20
   6  -5   7    5.00    7.00
   6  -5   7   12.90    7.90
   6  -5   7    9.60   11.20
  -7   5  -7  327.47   29.10
   7  -5   7  307.07   20.40
   7  -5   7  298.67   24.00
   7  -5   7  292.77   22.50
   8   4  -7   15.20    8.20
  -8  -4   7    2.40   13.40
  -8  -4   7   14.50    9.60
   7   4  -7    6.00    9.60
   7   4  -7   -1.70    5.10
  -7  -4   7   14.80    6.40
  -7  -4   7    3.80    7.90
  -7  -4   7   -7.60   10.10
  -7  -4   7    5.30    7.60
   6   4  -7  310.67   18.40
   6   4  -7  329.37   15.70
  -6  -4   7  329.27   19.90
  -6  -4   7  282.77   18.10
  -6  -4   7  290.67   18.70
  -6  -4   7  309.87   14.50
   5   4  -7 1285.87   35.70
   5   4  -7 1294.17   26.30
  -5  -4   7 1318.17   38.10
  -5  -4   7 1303.17   37.50
  -5  -4   7 1214.98   38.00
  -5  -4   7 1289.67   26.30
   4   4  -7  183.68   11.80
   4   4  -7  196.58   14.70
  -4  -4   7  233.28   15.00
  -4  -4   7  204.98   13.20
  -4  -4   7  202.28   12.80
   3   4  -7   97.59    8.20
   3   4  -7  117.89   11.20
  -3  -4   7  113.69    9.40
  -3  -4   7  105.69   10.80
   2   4  -7  555.84   24.30
   2   4  -7  526.85   17.40
  -2  -4   7  577.54   21.50
  -2  -4   7  549.74   18.90
  -2  -4   7  572.04   19.00
   1   4  -7  207.18   10.40
   1   4  -7  233.18   11.00
  -1  -4   7  218.58   11.40
  -1  -4   7  197.88   12.40
  -1  -4   7  231.98    6.40
  -1  -4   7  229.98   11.80
   0   4  -7  450.65   15.80
   0   4  -7  412.96   15.50
   0   4  -7  401.96   12.40
   0   4  -7  452.55   18.20
   0  -4   7  434.76   16.70
   0  -4   7  438.56   16.50
   0  -4   7  396.86   17.10
   0  -4   7  437.06   12.60
  -1   4  -7  294.97   13.90
  -1   4  -7  302.57   13.40
  -1   4  -7  325.77   12.50
   1  -4   7  311.57   15.00
   1  -4   7  312.77   12.30
   1  -4   7  326.27   14.50
   1  -4   7  308.57   14.90
   1  -4   7  314.67   14.60
  -2   4  -7  337.27   14.70
  -2   4  -7  369.56   16.70
   2  -4   7  347.87   15.80
   2  -4   7  326.47   15.60
   2  -4   7  343.47   16.40
   2  -4   7  363.16   16.60
   2  -4   7  331.77   14.20
  -3   4  -7   40.70    7.80
  -3   4  -7   42.10    7.90
   3  -4   7   38.60    6.80
   3  -4   7   47.90    8.00
   3  -4   7   33.30    6.50
   3  -4   7   37.50    8.00
  -4   4  -7 1948.91   50.89
   4  -4   7 1974.70   54.29
   4  -4   7 1886.21   50.19
   4  -4   7 1875.71   47.40
   4  -4   7 1847.72   47.70
   4  -4   7 1860.31   48.50
  -5   4  -7  319.57   20.50
   5  -4   7  305.57   19.90
   5  -4   7  369.16   20.20
   5  -4   7  334.97   22.00
   5  -4   7  340.67   17.50
  -6   4  -7   80.29   13.10
   6  -4   7   92.39   13.50
   6  -4   7   94.69   13.50
   6  -4   7   81.09   16.20
   6  -4   7  100.29   12.30
  -7   4  -7    2.70   11.20
   7  -4   7   10.60   12.70
   7  -4   7   -0.90   11.10
   8   3  -7  608.04   22.20
  -8  -3   7  576.24   30.80
  -8  -3   7  637.64   29.60
   7   3  -7  215.88   19.00
   7   3  -7  220.08   12.00
  -7  -3   7  207.68   12.60
  -7  -3   7  210.18   17.70
  -7  -3   7  235.18   20.50
  -7  -3   7  220.08   17.80
   6   3  -7   14.50    7.30
  -6  -3   7   14.50    7.80
  -6  -3   7   15.30    7.20
  -6  -3   7   15.50    8.30
   5   3  -7  164.88   12.60
   5   3  -7  174.68    6.60
  -5  -3   7  185.18   13.60
  -5  -3   7  161.18   13.60
  -5  -3   7  166.98    6.60
  -5  -3   7  182.88   14.40
   4   3  -7    2.40    5.80
   4   3  -7   -3.40    5.20
   4   3  -7    3.10    3.90
  -4  -3   7    3.30    4.00
  -4  -3   7    3.50    4.70
  -4  -3   7    1.90    5.10
   3   3  -7  784.02   24.10
   3   3  -7  774.62   23.00
   3   3  -7  750.02   26.00
  -3  -3   7  737.73   25.60
  -3  -3   7  741.73   24.00
  -3  -3   7  797.02   24.40
   2   3  -7  773.52   22.90
   2   3  -7  818.42   26.10
   2   3  -7  826.32   23.70
  -2  -3   7  795.92   25.60
  -2  -3   7  815.82   24.30
  -2  -3   7  790.42   23.90
   1   3  -7 1137.99   31.30
   1   3  -7 1084.99   28.80
   1   3  -7 1114.19   29.00
   1   3  -7 1087.29   22.40
  -1  -3   7 1106.39   22.50
  -1  -3   7 1104.19   29.70
  -1  -3   7 1123.99   31.00
  -1  -3   7 1134.19   30.10
   0   3  -7    4.90    4.00
   0   3  -7    1.40    2.60
   0   3  -7    9.90    4.20
   0   3  -7    2.40    4.50
   0  -3   7    8.00    2.90
   0  -3   7    3.70    3.60
   0  -3   7    4.00    3.90
   0  -3   7    5.10    4.10
  -1   3  -7 1617.94   36.20
  -1   3  -7 1556.44   38.70
  -1   3  -7 1548.95   39.40
   1  -3   7 1561.84   38.90
   1  -3   7 1582.94   39.20
   1  -3   7 1570.24   39.40
   1  -3   7 1617.74   44.30
   1  -3   7 1577.54   39.90
  -2   3  -7  566.24   19.40
  -2   3  -7  578.64   21.40
  -2   3  -7  572.24   20.70
   2  -3   7  531.65   19.30
   2  -3   7  542.15   19.70
   2  -3   7  540.45   21.40
   2  -3   7  531.05   20.70
   2  -3   7  537.85   18.70
  -3   3  -7  244.98   15.20
  -3   3  -7  252.77   14.80
   3  -3   7  265.07   14.20
   3  -3   7  276.77   15.70
   3  -3   7  268.17   14.30
   3  -3   7  248.08   13.30
  -4   3  -7   -1.00    6.40
  -4   3  -7    0.10    6.00
   4  -3   7   -1.00    4.60
   4  -3   7    0.60    5.10
   4  -3   7    8.30    4.80
   4  -3   7    5.10    5.50
   4  -3   7   16.90    7.40
  -5   3  -7  213.98   17.80
   5  -3   7  233.28   20.00
   5  -3   7  197.78   13.30
   5  -3   7  212.88   16.30
   5  -3   7  210.38   15.40
   5  -3   7  201.68   16.90
  -6   3  -7   31.40   11.40
   6  -3   7   24.80    7.60
   6  -3   7   24.20   10.50
   6  -3   7   17.20    8.70
   6  -3   7    6.20   11.40
  -7   3  -7  210.58   23.20
   7  -3   7  207.28   20.80
   7  -3   7  187.98   23.10
   7  -3   7  209.38   16.50
   8   2  -7   95.49   11.60
   8   2  -7   83.29   15.30
  -8  -2   7   69.59   14.30
  -8  -2   7   83.89   13.50
   7   2  -7    9.70    4.60
   7   2  -7    5.10    7.60
  -7  -2   7   -1.60    9.40
  -7  -2   7   10.00    7.30
  -7  -2   7    0.90    7.50
  -7  -2   7    7.90    5.50
   6   2  -7  570.94   17.80
   6   2  -7  541.95   23.70
  -6  -2   7  562.94   24.80
  -6  -2   7  551.84   24.50
  -6  -2   7  572.74   25.40
  -6  -2   7  590.14   17.10
   5   2  -7 1072.09   23.10
   5   2  -7 1083.39   32.30
  -5  -2   7 1047.50   33.90
  -5  -2   7 1064.19   33.00
  -5  -2   7 1084.89   33.50
   4   2  -7 1226.68   35.60
   4   2  -7 1162.68   33.20
   4   2  -7 1210.98   33.20
  -4  -2   7 1213.78   35.40
  -4  -2   7 1227.78   34.20
  -4  -2   7 1181.48   33.80
   3   2  -7  235.18   12.40
   3   2  -7  213.08   11.70
   3   2  -7  185.18   15.30
  -3  -2   7  208.78   12.20
  -3  -2   7  184.68   11.60
  -3  -2   7  228.98   13.30
   2   2  -7  219.38   12.00
   2   2  -7  223.68   11.70
   2   2  -7  220.68   12.30
  -2  -2   7  248.88   12.60
  -2  -2   7  234.08   12.90
  -2  -2   7  200.58   11.80
   1   2  -7  306.07   13.90
   1   2  -7  343.47   15.00
   1   2  -7  303.27   14.00
   1   2  -7  322.17    9.60
  -1  -2   7  305.37   14.20
  -1  -2   7  310.97   14.40
  -1  -2   7  320.07    9.60
   0   2  -7  562.84   19.90
   0   2  -7  570.14   19.50
   0   2  -7  556.34   19.20
   0  -2   7  505.05   19.40
   0  -2   7  572.54   19.30
   0  -2   7  561.64   20.20
  -1   2  -7  262.77   14.10
  -1   2  -7  285.77   12.40
   1  -2   7  317.37   15.50
   1  -2   7  278.67   12.90
   1  -2   7  285.67   12.20
  -2   2  -7  828.82   26.20
  -2   2  -7  751.42   24.00
  -2   2  -7  755.52   26.00
   2  -2   7  774.62   23.30
   2  -2   7  734.63   22.80
   2  -2   7  768.42   23.70
  -3   2  -7   82.79   14.80
  -3   2  -7   60.59   10.00
  -3   2  -7   60.79    9.00
   3  -2   7   45.00    7.80
   3  -2   7   73.39    9.40
   3  -2   7   73.29   10.70
   3  -2   7   60.59    7.80
   3  -2   7   60.39    7.60
  -4   2  -7   69.99   10.10
  -4   2  -7   52.49   11.30
   4  -2   7   63.89   10.00
   4  -2   7   78.69    9.40
   4  -2   7   56.89   10.00
   4  -2   7   59.79   11.60
   4  -2   7   71.69    8.50
  -5   2  -7  891.51   34.60
   5  -2   7  935.21   28.50
   5  -2   7  928.21   36.60
   5  -2   7  928.81   33.40
   5  -2   7  975.10   35.80
   5  -2   7  912.81   27.50
  -6   2  -7  140.29   18.90
   6  -2   7  177.78   17.80
   6  -2   7  162.98   20.10
   6  -2   7  166.28   13.00
  -7   2  -7  -11.80   10.80
   7  -2   7   -1.10    8.90
   7  -2   7   -4.30   12.70
   7  -2   7   18.30    7.90
   9   1  -7  311.87   19.40
  -9  -1   7  291.87   23.40
  -9  -1   7  323.27   26.40
   8   1  -7  524.55   20.60
   8   1  -7  511.45   28.80
  -8  -1   7  465.35   25.60
  -8  -1   7  513.75   22.00
  -8  -1   7  619.24   41.10
  -8  -1   7  502.55   28.00
   7   1  -7  415.76   16.10
   7   1  -7  399.36   22.80
  -7  -1   7  397.96   22.80
  -7  -1   7  398.76   16.30
  -7  -1   7  395.16   24.50
  -7  -1   7  403.26   22.40
   6   1  -7   76.39    7.10
   6   1  -7   75.49   10.70
  -6  -1   7   70.59   11.30
  -6  -1   7   95.49   12.30
  -6  -1   7   69.79    9.80
  -6  -1   7   88.99    7.60
   5   1  -7  117.69    6.50
   5   1  -7  128.59    6.80
   5   1  -7  107.39   11.00
   5   1  -7  112.49   12.30
  -5  -1   7  152.08   12.60
  -5  -1   7  113.49   11.90
  -5  -1   7  117.69   12.40
   4   1  -7   10.00    4.70
   4   1  -7   13.10    2.50
   4   1  -7   20.20    5.80
   4   1  -7   17.80    2.60
   4   1  -7   10.00    5.60
  -4  -1   7    9.80    5.00
  -4  -1   7   14.70    5.20
  -4  -1   7   17.50    5.60
   3   1  -7  278.77    7.70
   3   1  -7  274.17   14.10
   3   1  -7  279.07    7.80
   3   1  -7  292.37   14.00
  -3  -1   7  304.67   14.70
  -3  -1   7  252.27   14.10
  -3  -1   7  287.57   14.40
   2   1  -7 1479.25   37.10
   2   1  -7 1432.46   36.30
   2   1  -7 1412.56   28.80
   2   1  -7 1450.05   36.30
  -2  -1   7 1422.66   36.80
  -2  -1   7 1369.96   36.20
  -2  -1   7 1457.15   29.00
   1   1  -7 2617.34   57.19
   1   1  -7 2559.54   57.79
   1   1  -7 2681.33   57.89
  -1  -1   7 2687.83   51.99
  -1  -1   7 2644.04   58.29
  -1  -1   7 2587.34   57.09
  -1  -1   7 2672.43   58.29
   0   1  -7  121.29    9.00
   0   1  -7  122.59    7.90
   0   1  -7  108.89    9.70
   0   1  -7   98.09    9.30
   0  -1   7  100.69    8.80
   0  -1   7  122.99    7.70
   0  -1   7  121.89    9.90
   0  -1   7  113.29   10.30
  -1   1  -7   91.19    9.70
  -1   1  -7   92.39    9.70
  -1   1  -7   74.69    7.70
  -1   1  -7   95.29    8.40
   1  -1   7   87.29    9.70
   1  -1   7   80.29    7.60
   1  -1   7   87.69    7.90
   1  -1   7  102.39    9.90
  -2   1  -7  888.91   29.00
  -2   1  -7  836.62   29.50
   2  -1   7  911.11   29.50
   2  -1   7  854.31   24.20
   2  -1   7  872.71   26.70
   2  -1   7  888.61   29.10
   2  -1   7  891.01   26.70
  -3   1  -7  343.47   18.40
   3  -1   7  339.27   17.20
   3  -1   7  385.86   22.00
   3  -1   7  370.86   19.60
   3  -1   7  330.27   14.00
   3  -1   7  346.17   14.40
  -4   1  -7  170.08   16.10
  -4   1  -7  163.98   15.20
   4  -1   7  161.48   11.00
   4  -1   7  168.08   15.20
   4  -1   7  178.48   16.40
   4  -1   7  145.59   16.40
  -5   1  -7  226.98   19.20
   5  -1   7  216.58   12.00
   5  -1   7  232.38   19.40
   5  -1   7  215.98   13.20
   5  -1   7  198.78   16.70
  -6   1  -7   -6.40    8.40
   6  -1   7   11.30    6.10
   6  -1   7   16.90   10.80
   6  -1   7   19.80    9.10
   6  -1   7    0.70    8.30
  -7   1  -7  137.49   19.40
   7  -1   7  191.98   24.10
   7  -1   7  127.69   17.10
   9   0  -7   33.50    9.80
  -9   0   7   40.10   11.70
  -9   0   7   28.80   12.30
   8   0  -7  374.56   24.60
   8   0  -7  404.96   18.50
  -8   0   7  422.66   29.10
  -8   0   7  403.66   23.90
  -8   0   7  365.06   30.90
  -8   0   7  411.86   19.50
   7   0  -7   48.40    9.80
   7   0  -7   54.39    7.20
  -7   0   7   49.10    7.20
  -7   0   7   47.80   10.50
  -7   0   7   34.60   10.80
  -7   0   7   27.10    8.60
   6   0  -7  287.17   12.30
   6   0  -7  257.47   16.70
  -6   0   7  234.48   17.60
  -6   0   7  256.17   16.90
  -6   0   7  252.47   17.20
   5   0  -7 2579.34   58.69
  -5   0   7 2333.47   58.49
  -5   0   7 2366.96   58.09
  -5   0   7 2343.87   57.89
   4   0  -7  955.40   21.80
   4   0  -7  931.41   29.00
   4   0  -7  946.41   22.00
   4   0  -7  962.60   29.30
  -4   0   7  947.41   30.60
  -4   0   7  926.91   29.80
  -4   0   7  936.11   29.50
   3   0  -7    0.60    2.30
   3   0  -7    2.40    4.10
   3   0  -7    8.30    4.80
   3   0  -7    2.60    2.20
  -3   0   7    5.00    4.00
  -3   0   7   -5.20    5.50
  -3   0   7    2.50    3.80
   2   0  -7   51.29    7.70
   2   0  -7   30.40    5.90
   2   0  -7   39.40    6.50
  -2   0   7   36.60    6.00
  -2   0   7   50.09    7.50
  -2   0   7   33.70    4.20
  -2   0   7   47.30    7.70
   1   0  -7  277.87   13.00
   1   0  -7  266.37   14.00
   1   0  -7  289.17   14.30
   1   0  -7  287.67   11.00
  -1   0   7  245.98   15.30
  -1   0   7  293.27   13.30
  -1   0   7  261.17   10.70
   0   0  -7   86.39    8.70
   0   0  -7   75.09    7.60
   0   0  -7   96.89   14.50
   0   0  -7   74.69    7.20
   0   0   7   67.59    7.00
   0   0   7   68.19    7.40
   0   0   7   80.29    9.30
   0   0   7   70.19    8.50
  -1   0  -7 1260.57   35.50
  -1   0  -7 1248.48   30.40
  -1   0  -7 1220.28   35.10
  -1   0  -7 1294.77   33.00
   1   0   7 1177.28   31.90
   1   0   7 1258.37   35.60
   1   0   7 1199.98   35.10
   1   0   7 1213.08   30.00
  -2   0  -7  960.60   29.80
  -2   0  -7  988.70   31.60
  -2   0  -7 1010.10   31.80
   2   0   7  947.21   31.40
   2   0   7  960.10   25.00
   2   0   7  959.90   35.70
   2   0   7  995.30   25.20
   2   0   7  991.90   29.50
  -3   0  -7  115.49   12.70
  -3   0  -7  112.99   12.50
   3   0   7  105.89   11.50
   3   0   7  105.29   13.60
   3   0   7   98.99   12.20
   3   0   7  103.39    7.80
   3   0   7  107.49    8.10
  -4   0  -7  467.55   25.00
  -4   0  -7  472.05   24.40
   4   0   7  498.65   23.20
   4   0   7  506.45   28.10
  -5   0  -7  254.47   20.70
  -5   0  -7  316.67   24.10
   5   0   7  270.87   11.20
   5   0   7  266.57   19.60
   5   0   7  317.07   26.00
  -6   0  -7  195.28   22.00
   6   0   7  138.09   18.10
   6   0   7  167.88   20.70
   9  -1  -7  251.77   26.00
   9  -1  -7  213.68   19.70
  -9   1   7  268.47   25.20
  -9   1   7  237.68   21.90
   8  -1  -7  752.62   33.30
   8  -1  -7  742.33   26.10
  -8   1   7  837.12   35.00
  -8   1   7  699.93   39.80
  -8   1   7  747.93   32.40
   7  -1  -7  186.58   12.30
   7  -1  -7  181.88   18.20
  -7   1   7  190.68   16.50
  -7   1   7  186.68   22.20
  -7   1   7  185.68   16.70
   6  -1  -7  218.88   11.40
   6  -1  -7  194.28   16.70
   6  -1  -7  239.18   11.80
  -6   1   7  222.28   16.30
  -6   1   7  174.58   16.00
  -6   1   7  191.48   15.70
   5  -1  -7   57.69    6.50
   5  -1  -7   61.29    7.40
   5  -1  -7   51.39    9.20
   5  -1  -7   34.50    6.40
  -5   1   7   48.30    8.60
  -5   1   7   47.60    8.90
  -5   1   7   50.49    9.00
   4  -1  -7    5.20    3.10
   4  -1  -7    4.30    4.60
   4  -1  -7    5.20    3.00
   4  -1  -7    0.00    4.80
  -4   1   7    2.70    4.80
  -4   1   7   10.80    5.10
  -4   1   7    5.10    5.00
   3  -1  -7   68.59    8.80
   3  -1  -7   68.59    6.60
   3  -1  -7   68.09    6.00
   3  -1  -7   69.49    9.20
   3  -1  -7   64.99    8.50
  -3   1   7   75.09    8.80
  -3   1   7   64.09    8.50
   2  -1  -7 2169.38   45.70
   2  -1  -7 2121.29   49.60
   2  -1  -7 2180.28   51.39
   2  -1  -7 2127.09   50.99
  -2   1   7 2213.28   51.49
  -2   1   7 2103.69   50.39
  -2   1   7 2240.88   46.10
  -2   1   7 2217.08   50.09
   1  -1  -7 1673.53   43.00
   1  -1  -7 1650.13   42.50
   1  -1  -7 1717.73   40.40
   1  -1  -7 1695.83   38.90
  -1   1   7 1748.43   40.70
  -1   1   7 1781.62   43.60
  -1   1   7 1746.83   42.90
   0  -1  -7  330.77   14.40
   0  -1  -7  399.46   20.50
   0  -1  -7  343.57   13.80
   0  -1  -7  360.26   16.80
   0   1   7  358.76   17.20
   0   1   7  344.87   14.60
   0   1   7  362.26   16.60
   0   1   7  336.07   13.70
  -1  -1  -7  679.53   19.40
  -1  -1  -7  672.03   24.70
  -1  -1  -7  666.63   23.20
   1   1   7  655.73   19.00
   1   1   7  685.73   25.30
   1   1   7  660.63   24.10
   1   1   7  683.13   22.90
  -2  -1  -7  426.16   20.30
  -2  -1  -7  416.46   20.30
   2   1   7  410.56   13.50
   2   1   7  457.15   22.20
   2   1   7  381.66   18.30
   2   1   7  417.26   19.90
  -3  -1  -7   21.00    8.40
  -3  -1  -7   17.50    7.30
   3   1   7   12.90    6.70
   3   1   7   16.40    3.80
   3   1   7   24.40    4.00
   3   1   7    6.90    5.00
  -4  -1  -7  330.67   22.20
  -4  -1  -7  293.37   20.30
   4   1   7  302.97   19.30
   4   1   7  314.17   30.70
  -5  -1  -7  276.37   22.70
  -5  -1  -7  320.47   28.10
   5   1   7  256.57   19.70
   5   1   7  306.07   23.50
  -6  -1  -7  103.19   16.90
   6   1   7   64.09   13.00
   6   1   7   63.69   28.60
   9  -2  -7  194.68   23.40
   9  -2  -7  172.48   16.30
  -9   2   7  133.49   18.00
  -9   2   7  158.38   21.50
   8  -2  -7  222.58   15.40
   8  -2  -7  198.98   19.90
  -8   2   7  218.48   19.50
  -8   2   7  226.78   20.70
   7  -2  -7  119.59   12.00
   7  -2  -7  111.99   10.60
   7  -2  -7  114.09   14.40
  -7   2   7  136.09   14.60
  -7   2   7  133.19   15.60
  -7   2   7   95.19   13.30
   6  -2  -7   10.40    4.60
   6  -2  -7   16.30    7.30
   6  -2  -7   13.60    7.80
   6  -2  -7   30.00    5.90
  -6   2   7   14.20    7.90
  -6   2   7   32.00   12.00
  -6   2   7   13.40    7.20
   5  -2  -7 1685.23   40.00
   5  -2  -7 1702.83   46.30
   5  -2  -7 1733.23   39.70
  -5   2   7 1731.23   46.40
  -5   2   7 1765.22   47.10
  -5   2   7 1836.62   47.80
   4  -2  -7  892.81   28.80
   4  -2  -7  851.01   28.90
   4  -2  -7  884.91   23.60
   4  -2  -7  861.41   26.60
   4  -2  -7  913.31   32.50
  -4   2   7  844.82   28.20
  -4   2   7  856.71   32.20
  -4   2   7  864.81   28.60
   3  -2  -7  719.73   24.50
   3  -2  -7  664.73   20.10
  -3   2   7  724.43   24.30
  -3   2   7  655.43   23.40
  -3   2   7  711.03   24.50
   2  -2  -7  334.47   19.30
   2  -2  -7  390.76   16.10
   2  -2  -7  384.66   14.70
   2  -2  -7  382.16   17.00
  -2   2   7  372.36   15.90
  -2   2   7  373.36   14.50
  -2   2   7  368.06   17.30
  -2   2   7  383.46   16.80
   1  -2  -7   96.59   10.00
   1  -2  -7   98.69    8.70
   1  -2  -7  118.09   10.60
   1  -2  -7  120.39    9.10
  -1   2   7  108.49   10.20
  -1   2   7  104.99    8.60
  -1   2   7  113.89   11.10
  -1   2   7   98.79    8.70
   0  -2  -7  191.18   13.20
   0  -2  -7  188.48   10.00
   0  -2  -7  172.58   12.60
   0  -2  -7  190.18   13.90
   0   2   7  190.88   11.80
   0   2   7  219.08   13.90
   0   2   7  199.58   10.30
   0   2   7  164.68   12.00
  -1  -2  -7  676.73   18.60
  -1  -2  -7  660.43   24.20
  -1  -2  -7  664.93   25.60
  -1  -2  -7  659.43   25.20
   1   2   7  691.43   18.70
   1   2   7  631.74   23.40
   1   2   7  680.53   24.90
   1   2   7  692.03   26.00
  -2  -2  -7 1340.07   45.90
  -2  -2  -7 1289.27   39.70
   2   2   7 1317.47   38.80
   2   2   7 1342.97   28.30
   2   2   7 1354.16   28.50
   2   2   7 1399.16   40.00
  -3  -2  -7  273.97   18.30
  -3  -2  -7  272.87   19.10
   3   2   7  249.38   17.10
   3   2   7  250.07   17.90
  -4  -2  -7  104.59   13.40
   4   2   7  140.09   16.90
   4   2   7  125.19   14.70
  -5  -2  -7  192.98   20.10
   5   2   7  190.18   18.10
   5   2   7  195.38   22.90
   9  -3  -7   65.09   15.10
   9  -3  -7   61.59   11.60
  -9   3   7   35.10   12.10
  -9   3   7   48.70   14.30
   8  -3  -7  359.76   19.20
   8  -3  -7  338.87   23.70
  -8   3   7  379.66   24.00
  -8   3   7  385.86   24.90
   7  -3  -7  691.43   28.50
   7  -3  -7  690.83   30.70
   7  -3  -7  679.43   24.70
  -7   3   7  747.83   30.70
  -7   3   7  682.73   29.80
   6  -3  -7    8.60    4.90
   6  -3  -7    8.20    5.80
   6  -3  -7   20.70    6.40
   6  -3  -7    9.90    7.60
  -6   3   7   15.20    7.50
  -6   3   7   25.00    8.50
  -6   3   7   10.50    7.20
   5  -3  -7  306.37   14.40
   5  -3  -7  332.57   18.30
   5  -3  -7  316.07   14.60
   5  -3  -7  314.47   17.70
  -5   3   7  301.27   18.20
  -5   3   7  313.47   17.90
  -5   3   7  315.47   18.20
   4  -3  -7  354.16   17.60
   4  -3  -7  331.07   19.10
   4  -3  -7  373.76   15.20
   4  -3  -7  385.56   18.50
   4  -3  -7  375.26   15.30
  -4   3   7  358.66   17.80
  -4   3   7  316.27   17.00
  -4   3   7  318.27   17.40
   3  -3  -7  214.78   19.90
   3  -3  -7  233.38   14.30
   3  -3  -7  229.78   14.00
   3  -3  -7  213.48   12.10
  -3   3   7  258.67   14.20
  -3   3   7  184.58   13.20
  -3   3   7  197.58   11.40
  -3   3   7  237.48   13.90
   2  -3  -7  741.03   25.60
   2  -3  -7  745.03   25.80
   2  -3  -7  774.72   23.80
   2  -3  -7  793.32   24.40
  -2   3   7  718.43   24.90
  -2   3   7  727.03   23.70
  -2   3   7  794.72   26.50
  -2   3   7  733.23   23.40
   1  -3  -7 2101.39   47.10
   1  -3  -7 2074.99   51.49
   1  -3  -7 2077.99   51.19
  -1   3   7 2137.69   50.89
  -1   3   7 2084.19   49.10
  -1   3   7 2075.19   46.70
   0  -3  -7  191.38   13.70
   0  -3  -7  186.98   13.80
   0  -3  -7  195.48   13.70
   0  -3  -7  226.08   10.60
   0   3   7  200.98   14.40
   0   3   7  212.98   13.60
   0   3   7  223.58   10.50
   0   3   7  217.18   13.40
  -1  -3  -7   16.30    6.60
  -1  -3  -7    5.00    5.60
  -1  -3  -7   10.90    3.30
   1   3   7    7.00    3.30
   1   3   7    5.60    5.50
   1   3   7    2.20    5.40
  -2  -3  -7   90.99   12.00
  -2  -3  -7   94.19   12.50
   2   3   7  129.19   12.70
   2   3   7  103.39   12.50
  -3  -3  -7  286.07   31.60
   3   3   7  262.87   18.50
   3   3   7  282.77   19.10
  -4  -3  -7  170.68   18.10
  -4  -3  -7  215.28   23.00
   4   3   7  215.78   20.70
   4   3   7  232.28   19.60
  -5  -3  -7  229.18   22.60
   5   3   7  262.37   22.70
   9  -4  -7  105.19   13.80
   9  -4  -7   88.89   23.80
  -9   4   7  124.29   19.80
   8  -4  -7  600.24   30.20
   8  -4  -7  586.04   28.60
  -8   4   7  542.95   29.40
  -8   4   7  553.84   29.40
   7  -4  -7  436.16   25.60
   7  -4  -7  463.55   20.70
   7  -4  -7  444.96   24.60
  -7   4   7  451.05   24.50
  -7   4   7  450.85   28.60
   6  -4  -7   51.89    8.70
   6  -4  -7   40.40    8.50
   6  -4  -7   38.20    7.90
   6  -4  -7   52.89   10.90
  -6   4   7   26.80    8.00
  -6   4   7   60.09   11.00
   5  -4  -7  595.34   21.90
   5  -4  -7  612.94   24.90
   5  -4  -7  575.94   21.60
   5  -4  -7  603.24   25.00
  -5   4   7  578.84   24.60
  -5   4   7  577.54   24.20
   4  -4  -7 1620.74   44.00
   4  -4  -7 1647.54   41.10
   4  -4  -7 1650.13   44.40
   4  -4  -7 1550.24   40.20
  -4   4   7 1614.44   43.60
  -4   4   7 1632.04   43.50
  -4   4   7 1629.64   44.00
   3  -4  -7  168.78   12.60
   3  -4  -7  196.98   13.60
   3  -4  -7  177.98   12.00
   3  -4  -7  181.68   13.10
  -3   4   7  185.18   12.60
  -3   4   7  180.38   13.60
  -3   4   7  156.48   11.40
  -3   4   7  198.08   13.10
   2  -4  -7  106.09   10.70
   2  -4  -7  102.89   10.70
   2  -4  -7   85.99    9.40
   2  -4  -7  105.69   10.40
  -2   4   7   93.49   11.40
  -2   4   7   97.59   10.10
  -2   4   7   87.99    9.30
   1  -4  -7    0.50    4.30
   1  -4  -7   -6.10    5.70
   1  -4  -7    1.70    4.80
   1  -4  -7    8.40    5.20
  -1   4   7    0.90    3.60
  -1   4   7    7.90    5.00
  -1   4   7   10.00    5.30
   0  -4  -7   67.89   10.00
   0  -4  -7   76.89   10.10
   0  -4  -7   56.79    6.70
   0   4   7   63.39    6.60
   0   4   7   88.19   10.80
  -1  -4  -7  254.57   16.70
   1   4   7  256.87   23.90
   1   4   7  235.78   17.30
   1   4   7  256.87    8.70
  -2  -4  -7 1169.08   39.70
   2   4   7 1135.19   37.50
   2   4   7 1181.18   38.40
  -3  -4  -7  116.99   16.50
  -3  -4  -7  113.59   15.10
   3   4   7  111.09   14.30
   3   4   7   74.39   11.70
  -4  -4  -7    6.00    8.20
   4   4   7   -0.20    9.00
   4   4   7    8.10   12.00
   9  -5  -7   27.30   10.50
   9  -5  -7   35.60   13.30
  -9   5   7   47.00   13.70
  -9   5   7   53.49   14.80
   8  -5  -7  125.89   16.50
   8  -5  -7  129.79   14.90
   8  -5  -7  138.89   18.80
  -8   5   7  153.98   17.90
   7  -5  -7  467.65   25.10
   7  -5  -7  441.06   22.90
   7  -5  -7  451.55   26.10
  -7   5   7  486.85   25.40
  -7   5   7  446.26   25.10
   6  -5  -7   51.49   10.30
   6  -5  -7   47.10    8.60
   6  -5  -7   43.60   10.50
  -6   5   7   37.00    9.00
  -6   5   7   44.60    9.50
   5  -5  -7  353.46   19.10
   5  -5  -7  311.17   18.90
   5  -5  -7  308.07   16.80
  -5   5   7  325.77   18.40
  -5   5   7  302.47   18.30
   4  -5  -7  222.88   14.20
   4  -5  -7  238.88   15.60
   4  -5  -7  251.67   16.20
  -4   5   7  254.47   15.30
  -4   5   7  230.98   15.50
   3  -5  -7  178.08   13.40
   3  -5  -7  161.58   13.50
   3  -5  -7  164.58   13.10
  -3   5   7  144.69   12.10
  -3   5   7  165.08   12.70
   2  -5  -7  777.92   25.20
   2  -5  -7  783.02   27.80
   2  -5  -7  746.83   27.20
  -2   5   7  791.92   27.00
  -2   5   7  759.12   24.90
  -2   5   7  769.82   26.20
   1  -5  -7 2140.49   54.69
   1  -5  -7 2087.49   48.30
   1  -5  -7 2222.48   54.99
  -1   5   7 2216.08   53.09
  -1   5   7 2191.78   54.39
  -1   5   7 2173.58   48.70
   0  -5  -7   40.60    8.00
   0  -5  -7   50.29    6.80
   0  -5  -7   40.70    9.10
   0   5   7   45.60    6.00
   0   5   7   42.60    8.90
  -1  -5  -7  102.99   12.50
   1   5   7   97.89   12.90
   1   5   7  100.39   12.70
  -2  -5  -7   26.70    9.30
  -2  -5  -7   14.90    8.40
   2   5   7   34.60    9.80
   2   5   7   27.70    9.60
  -3  -5  -7    6.00   11.00
  -3  -5  -7   10.50    8.20
   3   5   7    1.10    9.90
   3   5   7   11.90    9.30
  -4  -5  -7  282.37   23.40
   4   5   7  270.77   23.70
   9  -6  -7   17.60   10.60
   9  -6  -7   19.40   12.00
  -9   6   7   32.20   12.60
   8  -6  -7  674.03   28.70
   8  -6  -7  629.84   31.90
  -8   6   7  654.43   32.20
  -8   6   7  599.24   32.40
   7  -6  -7  318.07   23.70
   7  -6  -7  377.46   23.00
   7  -6  -7  320.37   19.60
  -7   6   7  342.57   22.40
  -7   6   7  333.97   22.60
   6  -6  -7  156.58   23.20
  -6   6   7  144.99   14.80
  -6   6   7  146.79   15.60
   5  -6  -7  745.63   29.70
   5  -6  -7  815.62   30.90
   5  -6  -7  854.51   29.80
  -5   6   7  826.52   31.20
  -5   6   7  851.91   30.70
   4  -6  -7  573.24   24.40
   4  -6  -7  556.24   24.30
   4  -6  -7  588.34   24.10
  -4   6   7  596.04   24.70
  -4   6   7  589.54   23.80
   3  -6  -7  250.97   15.90
   3  -6  -7  188.18   14.70
   3  -6  -7  231.18   15.80
  -3   6   7  195.88   14.60
  -3   6   7  236.78   14.90
  -3   6   7  194.28   14.70
   2  -6  -7   38.20    8.60
   2  -6  -7   27.90    7.10
  -2   6   7   36.70    8.40
  -2   6   7   41.60    8.00
  -2   6   7   38.80    7.30
   1  -6  -7  265.87   13.50
   1  -6  -7  324.67   23.80
   1  -6  -7  259.37   17.20
  -1   6   7  285.37   17.50
  -1   6   7  262.77   13.40
  -1   6   7  304.07   17.20
   0  -6  -7    7.50    6.90
   0  -6  -7   12.80    6.80
   0   6   7   16.20    7.80
   0   6   7    5.60    7.40
  -1  -6  -7  255.87   19.30
  -1  -6  -7  241.68   18.00
   1   6   7  227.08   18.10
   1   6   7  246.18   18.30
  -2  -6  -7  524.95   26.90
  -2  -6  -7  548.25   28.50
   2   6   7  572.04   28.70
  -3  -6  -7  399.16   25.30
   3   6   7  380.36   25.70
   8  -7  -7  193.48   20.70
   8  -7  -7  165.88   18.20
  -8   7   7  134.29   17.80
   7  -7  -7   97.29   14.00
   7  -7  -7   82.39   14.30
   7  -7  -7   56.59   11.00
  -7   7   7   75.89   14.20
  -7   7   7   83.49   13.70
   6  -7  -7   93.29   13.60
   6  -7  -7   79.49   11.70
   6  -7  -7   94.09   13.40
  -6   7   7  114.89   16.00
  -6   7   7   83.59   12.20
   5  -7  -7  421.36   22.40
   5  -7  -7  397.76   21.30
   5  -7  -7  346.97   20.50
  -5   7   7  355.56   20.50
  -5   7   7  391.66   22.00
   4  -7  -7  430.16   21.90
   4  -7  -7  383.86   20.80
   4  -7  -7  441.36   22.20
  -4   7   7  439.26   21.90
  -4   7   7  450.05   21.10
   3  -7  -7  103.99   12.10
   3  -7  -7  106.59   12.90
  -3   7   7  104.09   13.10
  -3   7   7  101.09   12.60
  -3   7   7   88.29   11.40
   2  -7  -7  352.86   19.40
   2  -7  -7  328.87   19.30
   2  -7  -7  312.77   17.10
  -2   7   7  314.37   16.40
  -2   7   7  298.97   16.90
  -2   7   7  370.16   20.60
   1  -7  -7  507.55   23.90
   1  -7  -7  533.65   19.30
  -1   7   7  549.65   25.90
  -1   7   7  518.25   19.10
   0  -7  -7  688.83   28.70
   0  -7  -7  690.63   18.40
   0   7   7  699.83   18.60
   0   7   7  675.53   33.60
   0   7   7  637.04   29.00
  -1  -7  -7  -18.30    7.90
  -1  -7  -7    2.00    7.10
   1   7   7    0.40    6.50
   1   7   7    1.50   10.20
  -2  -7  -7    4.80    8.20
   2   7   7   -4.80    8.00
   8  -8  -7  167.18   20.60
   8  -8  -7  153.48   18.70
  -8   8   7  157.18   20.50
   7  -8  -7  681.23   30.90
   7  -8  -7  715.63   32.70
  -7   8   7  674.13   33.20
  -7   8   7  712.73   33.50
   6  -8  -7   69.19   13.00
   6  -8  -7   86.99   12.40
   6  -8  -7  105.69   13.90
  -6   8   7   73.19   13.20
  -6   8   7   54.79   12.00
   5  -8  -7  200.38   16.90
   5  -8  -7  191.38   17.10
   5  -8  -7  198.18   17.70
  -5   8   7  219.48   18.10
  -5   8   7  162.08   17.60
   4  -8  -7  215.68   17.30
   4  -8  -7  211.28   17.70
   4  -8  -7  208.78   16.50
  -4   8   7  223.98   17.10
   3  -8  -7  255.27   18.50
   3  -8  -7  255.67   17.60
  -3   8   7  275.47   17.60
  -3   8   7  290.47   19.50
  -3   8   7  264.97   18.80
   2  -8  -7  130.99   13.90
   2  -8  -7  105.59   12.90
   2  -8  -7  133.89   15.10
  -2   8   7  131.69   12.50
  -2   8   7  115.69   14.60
  -2   8   7  129.39   15.10
   1  -8  -7  143.09   12.10
   1  -8  -7  157.68   15.50
   1  -8  -7  135.09   15.90
  -1   8   7  164.68   17.10
  -1   8   7  148.19   11.80
  -1   8   7  127.89   15.60
   0  -8  -7   25.70    9.20
   0   8   7   34.20    9.80
   0   8   7   41.60   12.30
   1   8   7   26.50   10.70
   7  -9  -7   43.10   11.60
   7  -9  -7   34.40   12.10
   6  -9  -7   47.70   11.00
  -6   9   7   47.40   12.60
   5  -9  -7  116.79   15.20
   5  -9  -7  151.88   17.70
   5  -9  -7  148.89   16.20
  -5   9   7  138.39   16.90
  -5   9   7  141.79   19.00
   4  -9  -7  472.45   25.60
   4  -9  -7  441.26   23.70
   4  -9  -7  478.35   26.70
  -4   9   7  485.75   24.80
  -4   9   7  461.35   24.20
   3  -9  -7  139.19   14.80
   3  -9  -7  106.49   14.00
  -3   9   7  123.69   14.30
  -3   9   7  103.89   13.70
   2  -9  -7   25.20    8.40
   2  -9  -7   31.40   10.30
  -2   9   7   16.70    7.50
  -2   9   7   11.30    8.20
   1  -9  -7  395.96   23.70
   1  -9  -7  373.16   21.80
  -1   9   7  338.97   16.90
  -1   9   7  381.36   27.40
   0  -9  -7   63.59   12.00
   0   9   7   63.49   13.70
   6 -10  -7  110.49   16.30
   6 -10  -7  114.99   15.70
  -6  10   7  111.79   16.80
   5 -10  -7    5.90    9.00
  -5  10   7   14.40    9.70
  -4  10   7  351.26   22.90
   3 -10  -7    8.30    8.20
  -3  10   7    4.30    8.40
   2 -10  -7  112.29   14.50
  -2  10   7  152.38   16.30
  -2  10   7  156.38   19.70
   1 -10  -7  166.28   17.50
  -1  10   7  168.18   20.60
   0 -13   8   -8.30    9.70
   0 -13   8   -5.30    8.20
   1 -13   8   79.79   12.10
   1 -13   8   54.19   14.10
   2 -13   8   23.70    5.00
   2 -13   8   19.40    8.70
   3 -13   8   -4.10    9.20
   3 -13   8   19.30    6.40
   3 -13   8    4.20    8.00
   4 -13   8  142.19   13.40
   4 -13   8  159.98   14.40
   4 -13   8  194.98   19.40
   4 -13   8  123.69   17.70
  -2 -12   8    5.70   10.80
  -2 -12   8   -3.70    6.70
  -1 -12   8    1.40    9.40
  -1 -12   8   28.20    7.40
   0 -12   8   78.39   10.40
   0 -12   8   68.89   13.20
   1 -12   8  211.08   20.00
   1 -12   8  177.78    9.10
   1 -12   8  181.68   13.60
   1 -12   8  182.48   14.60
   2 -12   8   21.50    7.40
   2 -12   8   20.90    5.50
   2 -12   8   19.50    5.70
   2 -12   8   18.00    9.60
   3 -12   8    6.60    5.80
   3 -12   8    4.20    9.00
   3 -12   8    1.00    5.40
   3 -12   8    4.50    7.50
   4 -12   8  118.19   13.20
   4 -12   8  169.18   16.90
   5 -12   8    6.50    9.20
   5 -12   8    4.30    8.70
   5 -12   8    5.80    6.90
   5 -12   8   -3.70    9.20
  -3 -11   8  278.57   14.10
  -3 -11   8  272.57   14.50
  -3 -11   8  275.17   22.40
  -3 -11   8  275.67   16.10
  -2 -11   8  152.68   11.20
  -2 -11   8  140.89   11.40
  -2 -11   8  152.18   18.40
  -2 -11   8  139.19    9.30
  -1 -11   8   -5.10    8.10
  -1 -11   8    5.80    3.60
  -1 -11   8    1.70    4.10
  -1 -11   8   15.50   12.80
  -1 -11   8    1.90    5.60
   0 -11   8    1.80    3.20
   0 -11   8    1.30    7.50
   0 -11   8   -0.70    5.10
   0 -11   8    4.10    4.10
   0 -11   8    2.40    7.50
   1 -11   8   14.20    4.80
   1 -11   8   19.10    8.40
   1 -11   8   24.40    5.10
   1 -11   8    9.20    5.50
   2 -11   8   -0.70    4.50
   2 -11   8    6.80    4.70
   2 -11   8    3.00    5.60
   2 -11   8    2.00    7.80
   3 -11   8  165.88   13.00
   3 -11   8  195.88   13.20
   3 -11   8  160.18   14.80
   3 -11   8  206.68   19.40
   4 -11   8   33.20    8.00
   4 -11   8   31.30   10.70
   4 -11   8   30.20    8.80
   5 -11   8   38.10    9.00
   5 -11   8   31.80   10.90
   5 -11   8   47.60   11.20
   5 -11   8   48.10   13.90
   6 -11   8   -5.20   16.50
   6 -11   8   32.30   12.30
   6 -11   8   31.10   10.30
  -4 -10   8   11.80    9.90
  -4 -10   8    4.10    7.90
  -4 -10   8    6.30    6.30
  -3 -10   8    3.40    9.00
  -3 -10   8   20.60    6.10
  -3 -10   8    6.30    6.30
  -2 -10   8    4.50    7.50
  -2 -10   8   -2.30    5.50
  -2 -10   8    4.10    4.40
  -2 -10   8    2.70    5.10
  -2 -10   8    7.70    5.10
  -1 -10   8   17.90    8.40
  -1 -10   8   33.70    6.00
  -1 -10   8   34.40    6.20
  -1 -10   8   25.70    5.30
  -1 -10   8   47.30    7.40
   0 -10   8  492.65   25.40
   0 -10   8  483.85   16.30
   0 -10   8  464.55   18.00
   0 -10   8  527.35   19.90
   0 -10   8  490.35   16.80
   1 -10   8  260.07   12.80
   1 -10   8  239.88   15.60
   1 -10   8  251.37   12.50
   1 -10   8  280.27   19.30
   1 -10   8  255.77   14.00
   2 -10   8   79.59    8.90
   2 -10   8   64.29   11.20
   2 -10   8   71.69    9.60
   2 -10   8   64.89    8.80
   3 -10   8   99.59   10.40
   3 -10   8  103.49   11.10
   3 -10   8   94.69   11.40
   3 -10   8   91.69   14.20
  -4  10  -8   20.40    7.90
   4 -10   8   13.30    6.50
   4 -10   8   10.40    7.20
   4 -10   8   18.80    8.50
   4 -10   8   10.10    7.40
  -5  10  -8   20.30   11.50
   5 -10   8   24.70    8.40
   5 -10   8   18.30    7.50
   5 -10   8   21.40    9.70
   5 -10   8   13.10    8.90
   6 -10   8   65.09   13.40
   6 -10   8   81.59   16.00
   6 -10   8   53.69   13.50
  -5  -9   8   85.29   11.40
  -5  -9   8  101.79   13.70
  -5  -9   8   69.19   13.50
  -4  -9   8    4.60    5.50
  -4  -9   8   15.80    9.20
  -4  -9   8    6.00    5.10
  -3  -9   8  292.47   20.50
  -3  -9   8  281.57   13.00
  -3  -9   8  286.37   14.60
  -3  -9   8  306.97   15.90
  -2  -9   8  219.48   17.80
  -2  -9   8  187.88   10.00
  -2  -9   8  217.78   12.70
  -2  -9   8  214.68   11.40
  -2  -9   8  203.08   10.10
  -1  -9   8  155.18   15.10
  -1  -9   8  179.78   10.70
  -1  -9   8  168.38   10.80
  -1  -9   8  166.08   10.00
   0  -9   8   79.79   11.90
   0  -9   8   61.79    7.70
   0  -9   8   53.99    6.70
   0  -9   8   54.99    6.90
   0  -9   8   60.79    8.00
   1  -9   8   67.69    8.00
   1  -9   8   53.09    7.40
   1  -9   8   79.09   10.30
   1  -9   8   74.49    8.90
   1  -9   8   47.30    9.60
  -2   9  -8   44.40    5.40
   2  -9   8   36.40    8.80
   2  -9   8   48.10    7.40
   2  -9   8   50.49    7.90
   2  -9   8   46.70    7.90
  -3   9  -8   94.39   10.00
   3  -9   8  104.19   10.60
   3  -9   8  106.39   11.40
   3  -9   8  103.99   11.40
   3  -9   8  131.89   14.80
  -4   9  -8  371.56   19.00
   4  -9   8  385.36   22.80
   4  -9   8  369.66   19.20
   4  -9   8  372.76   19.70
   4  -9   8  364.76   19.80
  -5   9  -8  140.99   16.00
   5  -9   8  151.68   16.90
   5  -9   8  158.38   15.90
   5  -9   8  155.98   15.00
   6  -9   8   98.29   14.10
   6  -9   8  107.09   14.90
   6  -9   8   85.39   14.60
   7  -9   8   34.70   13.40
   7  -9   8   15.10   10.80
   7  -9   8   39.40   12.40
  -6  -8   8   58.89   12.60
  -6  -8   8   65.49   11.60
  -5  -8   8  227.08   16.50
  -5  -8   8  301.87   20.00
  -5  -8   8  260.27   20.10
  -4  -8   8  100.19   13.50
  -4  -8   8   83.49   11.10
  -4  -8   8  105.79   10.90
  -3  -8   8   20.20   10.50
  -3  -8   8   27.70    7.40
  -3  -8   8   26.00    3.60
  -3  -8   8   30.40    6.50
  -3  -8   8   27.40    3.50
  -2  -8   8  192.58    8.20
  -2  -8   8  190.58   11.20
  -2  -8   8  191.48   15.90
  -2  -8   8  179.48   14.40
  -2  -8   8  173.38    7.70
  -1  -8   8  271.77   13.30
  -1  -8   8  245.68   12.30
  -1  -8   8  231.98   16.50
   0  -8   8   30.50    6.70
   0  -8   8   33.00    6.40
   0  -8   8   22.90    6.90
   0  -8   8   29.70    5.60
   0  -8   8   17.30    4.90
  -1   8  -8  594.04   15.70
   1  -8   8  587.54   19.30
   1  -8   8  611.14   20.80
   1  -8   8  577.24   20.20
  -2   8  -8  169.18   12.90
  -2   8  -8  195.48   11.00
   2  -8   8  174.78   12.00
   2  -8   8  174.78   11.60
  -3   8  -8   14.00    6.50
   3  -8   8   20.70    6.50
   3  -8   8   17.90    7.10
   3  -8   8   19.40    6.10
   3  -8   8   16.90    6.40
   4  -8   8   30.60    7.60
   4  -8   8   27.50    8.60
  -5   8  -8   15.40   10.00
   5  -8   8   11.40    7.30
   5  -8   8   23.50    9.60
   5  -8   8   23.90    8.00
   5  -8   8   -2.70    6.90
  -6   8  -8   -4.20   11.00
   6  -8   8    8.90    9.10
   6  -8   8    3.80    8.30
   6  -8   8  -13.40    7.60
   7  -8   8  251.77   22.50
   7  -8   8  260.17   23.10
   7  -8   8  255.37   23.60
  -6  -7   8   89.29   13.80
   5   7  -8   87.79   10.60
  -5  -7   8   64.59   12.10
  -5  -7   8   68.99   11.30
  -5  -7   8   97.29   11.80
  -4  -7   8   21.40    7.20
  -4  -7   8   11.60    5.80
   3   7  -8  187.68    9.50
  -3  -7   8  209.68   13.20
  -3  -7   8  187.78   15.60
  -3  -7   8  173.88   11.80
   2   7  -8  406.56   12.70
  -2  -7   8  434.36   17.60
  -2  -7   8  448.36   16.90
  -2  -7   8  414.06   21.00
   1   7  -8  171.98    7.70
  -1  -7   8  151.18    7.00
  -1  -7   8  151.68   10.10
  -1  -7   8  155.98   10.80
  -1  -7   8  162.58   13.60
  -1  -7   8  165.98    7.60
   0   7  -8  100.89    7.00
   0  -7   8  106.19    7.00
   0  -7   8   84.29    8.60
   0  -7   8  111.19   11.80
   0  -7   8  105.59    7.70
   0  -7   8  116.79    9.90
  -1   7  -8   18.50    4.90
  -1   7  -8   16.70    5.20
   1  -7   8   26.00    5.00
   1  -7   8   19.00    5.90
   1  -7   8   18.00    7.10
   1  -7   8   17.90    5.10
  -2   7  -8   35.50    8.00
   2  -7   8   25.30    6.00
   2  -7   8   32.60    6.70
   2  -7   8   38.60    8.40
   2  -7   8   40.90    6.40
  -3   7  -8   62.19    9.10
   3  -7   8   35.80    7.20
   3  -7   8   56.79    8.30
   3  -7   8   44.20    9.50
  -4   7  -8  816.72   29.10
   4  -7   8  762.62   28.20
   4  -7   8  819.12   31.00
   4  -7   8  844.42   29.80
   4  -7   8  802.02   30.20
  -5   7  -8   93.39   13.30
   5  -7   8  125.59   14.20
   5  -7   8   88.79   13.00
   5  -7   8   60.09   11.20
   5  -7   8   93.69   12.90
  -6   7  -8  -15.80    8.90
   6  -7   8   -4.00    7.70
   6  -7   8    6.70    7.90
   6  -7   8   -1.70    7.00
   6  -7   8   -8.40    9.70
   7  -7   8   49.40   12.20
   7  -7   8   56.79   14.40
   7  -7   8   48.60   13.90
  -7  -6   8   14.20   10.00
  -7  -6   8    5.70    8.90
   6   6  -8   74.59   12.90
  -6  -6   8   66.39   11.90
  -6  -6   8   70.69   12.40
  -6  -6   8   41.40    9.60
   5   6  -8  308.47   16.70
  -5  -6   8  320.47   18.00
  -5  -6   8  306.07   18.90
  -5  -6   8  265.27   19.10
   4   6  -8    6.00    5.20
  -4  -6   8    7.90    5.70
  -4  -6   8    9.70    6.90
  -4  -6   8    0.90    4.60
   3   6  -8  758.52   21.70
  -3  -6   8  745.03   28.20
  -3  -6   8  714.63   23.90
  -3  -6   8  740.83   24.70
   2   6  -8   37.60    5.40
  -2  -6   8   36.30    6.20
  -2  -6   8   45.60    9.20
  -1  -6   8  171.08   13.30
  -1  -6   8  174.98   10.80
  -1  -6   8  174.08    6.80
  -1  -6   8  176.58    6.50
  -1  -6   8  170.68   11.30
   0  -6   8  316.27   12.50
   0  -6   8  291.47   14.00
   0  -6   8  304.77   16.70
   0  -6   8  278.57   14.20
  -1   6  -8 1374.46   33.20
  -1   6  -8 1395.66   34.70
   1  -6   8 1362.36   39.20
   1  -6   8 1334.07   35.70
   1  -6   8 1316.97   32.50
   1  -6   8 1389.16   36.40
  -2   6  -8    7.30    5.10
  -2   6  -8   12.50    5.10
   2  -6   8    6.00    4.50
   2  -6   8    2.30    4.60
   2  -6   8    2.20    5.20
   2  -6   8    0.40    4.30
  -3   6  -8  519.55   25.30
  -3   6  -8  482.95   21.20
   3  -6   8  463.95   19.70
   3  -6   8  527.25   22.70
   3  -6   8  503.05   21.30
   3  -6   8  494.25   21.80
  -4   6  -8   92.49   12.50
   4  -6   8   56.69    9.70
   4  -6   8   75.89   10.70
   4  -6   8   52.19    9.20
   4  -6   8   88.59   12.50
  -5   6  -8   -4.20    6.70
   5  -6   8    3.50    6.10
   5  -6   8   -2.20    6.60
   5  -6   8   -4.00    9.60
   5  -6   8    5.60    6.70
  -6   6  -8  147.99   18.80
   6  -6   8  173.08   17.80
   6  -6   8   93.19   13.30
   6  -6   8  155.38   16.00
   6  -6   8  109.99   15.80
  -7   6  -8  123.29   21.80
   7  -6   8  157.28   18.10
   7  -6   8  183.48   20.90
   7  -6   8  176.78   21.60
   7   5  -8   30.90    7.40
  -7  -5   8   17.30    8.80
  -7  -5   8   26.80   10.40
  -6  -5   8  673.13   29.10
  -6  -5   8  575.84   27.00
  -6  -5   8  565.24   25.90
  -5  -5   8  311.77   23.00
  -5  -5   8  271.47   20.20
  -5  -5   8  260.77   16.80
   4   5  -8  122.09   10.50
  -4  -5   8  128.69   13.50
  -4  -5   8  136.89   12.20
  -4  -5   8  142.19   11.60
   3   5  -8  294.87   13.30
  -3  -5   8  298.17   17.40
  -3  -5   8  279.77   14.50
  -3  -5   8  259.97   14.40
   2   5  -8  669.93   20.40
   2   5  -8  695.93   29.40
  -2  -5   8  676.13   25.50
  -2  -5   8  670.13   22.70
  -2  -5   8  664.43   22.10
   1   5  -8  298.87   13.00
  -1  -5   8  300.97    8.30
  -1  -5   8  300.97   16.20
  -1  -5   8  277.37   14.10
  -1  -5   8  308.57   14.40
  -1  -5   8  311.27    8.40
   0   5  -8  148.89   10.00
   0  -5   8  137.69   10.60
   0  -5   8  135.39   11.40
   0  -5   8  124.29    7.10
   0  -5   8  135.09   10.10
  -1   5  -8   36.90    7.00
  -1   5  -8   50.79    7.10
  -1   5  -8   44.60    6.00
   1  -5   8   33.00    6.70
   1  -5   8   44.70    7.30
   1  -5   8   51.99    8.70
   1  -5   8   41.10    7.80
  -2   5  -8   95.29   10.30
  -2   5  -8  100.99    9.40
   2  -5   8   75.69    9.90
   2  -5   8   99.69    9.00
   2  -5   8   94.39   11.50
   2  -5   8   84.09    9.70
   2  -5   8   95.89   10.70
  -3   5  -8  130.79   14.40
  -3   5  -8  141.09   12.60
   3  -5   8  154.98   12.60
   3  -5   8  123.29   13.00
   3  -5   8  114.49   10.90
   3  -5   8  139.99   12.50
  -4   5  -8  600.84   25.80
   4  -5   8  545.35   23.30
   4  -5   8  601.24   24.20
   4  -5   8  624.84   27.00
   4  -5   8  549.95   24.90
  -5   5  -8  349.37   21.90
   5  -5   8  361.36   23.60
   5  -5   8  375.06   21.80
   5  -5   8  357.26   20.50
   5  -5   8  396.66   20.40
  -6   5  -8   -5.30   15.70
   6  -5   8    6.00    8.20
   6  -5   8   -4.20   11.30
   6  -5   8    4.60    8.20
   6  -5   8   -0.80    7.10
  -7   5  -8   21.80   14.50
   7  -5   8    7.90   10.60
   7  -5   8   34.50   10.80
   7  -5   8   15.20   10.20
   8   4  -8  339.27   23.70
  -8  -4   8  312.37   31.00
  -8  -4   8  280.57   22.70
   7   4  -8  113.99   16.00
   7   4  -8   85.39   10.90
  -7  -4   8   74.79   11.90
  -7  -4   8  103.19   21.30
  -7  -4   8   82.39   13.50
   6   4  -8   45.40    9.60
  -6  -4   8   46.30    9.30
  -6  -4   8   42.30   10.40
  -6  -4   8   49.20   10.90
   5   4  -8  172.18   13.60
  -5  -4   8  170.88   15.00
  -5  -4   8  149.59   14.10
   4   4  -8  335.07   16.00
  -4  -4   8  363.56   17.40
  -4  -4   8  329.67   18.30
  -4  -4   8  302.67   16.70
   3   4  -8  100.99    9.00
  -3  -4   8   82.69    9.10
  -3  -4   8  117.69   10.40
  -3  -4   8   79.09   10.80
   2   4  -8  608.04   20.20
   2   4  -8  596.64   20.50
  -2  -4   8  621.44   21.50
  -2  -4   8  631.64   21.80
  -2  -4   8  642.34   23.80
   1   4  -8  357.26   15.10
   1   4  -8  361.06    9.50
   1   4  -8  343.67   14.70
  -1  -4   8  364.26    9.50
  -1  -4   8  378.76   16.30
  -1  -4   8  367.16   17.30
  -1  -4   8  326.87   15.30
   0   4  -8  262.77   14.00
   0   4  -8  258.07   14.80
   0   4  -8  274.67   13.60
   0  -4   8  280.17   14.80
   0  -4   8  255.07   10.00
   0  -4   8  247.68   13.40
   0  -4   8  269.57   14.40
  -1   4  -8  783.12   29.10
  -1   4  -8  803.72   22.90
  -1   4  -8  823.92   25.60
   1  -4   8  804.92   26.10
   1  -4   8  836.42   26.80
   1  -4   8  841.82   23.10
   1  -4   8  820.72   27.30
   1  -4   8  812.12   26.70
  -2   4  -8 1085.29   32.10
  -2   4  -8 1070.89   30.30
  -2   4  -8 1103.59   32.90
   2  -4   8 1103.79   32.50
   2  -4   8 1138.99   33.90
   2  -4   8 1031.80   31.60
   2  -4   8 1081.29   32.70
   2  -4   8 1084.99   29.80
  -3   4  -8   24.80    7.20
   3  -4   8   42.70    8.20
   3  -4   8   18.30    6.10
   3  -4   8   23.70    7.50
   3  -4   8   23.40    6.40
   3  -4   8   22.00    6.40
  -4   4  -8   27.40    7.60
   4  -4   8   25.10    7.90
   4  -4   8   43.90    8.10
   4  -4   8   28.60    9.70
   4  -4   8   42.10    8.50
  -5   4  -8   72.49   12.40
   5  -4   8   57.09   12.40
   5  -4   8   75.69   10.50
   5  -4   8   93.49   12.70
  -6   4  -8   84.49   15.10
   6  -4   8   57.99   13.10
   6  -4   8   83.09   12.00
   6  -4   8   94.79   14.80
   6  -4   8   94.29   16.70
  -7   4  -8  245.28   27.70
   7  -4   8  256.17   22.60
   7  -4   8  230.58   18.70
   7  -4   8  279.07   25.90
   8   3  -8    0.30    6.40
  -8  -3   8    2.40    9.40
  -8  -3   8  -12.40    8.20
   7   3  -8  101.79   14.10
  -7  -3   8  127.99   15.60
  -7  -3   8  115.19   15.40
  -7  -3   8  121.99   16.20
   6   3  -8  185.28   15.40
  -6  -3   8  154.58   14.90
  -6  -3   8  148.89   15.20
  -6  -3   8  167.18   16.40
   5   3  -8  672.13   24.90
  -5  -3   8  669.23   26.30
  -5  -3   8  692.83   26.20
  -5  -3   8  645.74   26.80
   4   3  -8  366.96   17.00
  -4  -3   8  413.36   18.70
  -4  -3   8  344.27   18.80
  -4  -3   8  415.16   18.90
   3   3  -8  153.58   11.60
   3   3  -8  150.38   12.90
   3   3  -8  169.18   11.00
  -3  -3   8  171.08   11.80
  -3  -3   8  168.68   12.90
  -3  -3   8  156.08   11.50
   2   3  -8   65.19    8.00
  -2  -3   8   67.89    8.20
  -2  -3   8   82.39    9.00
  -2  -3   8   55.49    7.80
   1   3  -8 1083.79   23.30
   1   3  -8 1139.49   39.90
   1   3  -8 1086.49   30.10
   1   3  -8 1042.20   31.40
  -1  -3   8 1105.59   31.20
  -1  -3   8 1078.09   23.30
  -1  -3   8 1102.69   31.30
  -1  -3   8 1085.69   31.70
   0   3  -8   37.80    7.30
   0   3  -8   31.10    4.60
   0   3  -8   36.30    6.20
   0   3  -8   40.80    7.10
   0  -3   8   29.80    5.80
   0  -3   8   43.90    7.10
   0  -3   8   33.90    6.60
   0  -3   8   32.30    4.60
  -1   3  -8  769.52   23.00
  -1   3  -8  835.02   26.40
  -1   3  -8  808.42   26.70
   1  -3   8  837.72   25.90
   1  -3   8  802.12   27.00
   1  -3   8  786.52   26.30
   1  -3   8  821.32   23.10
  -2   3  -8  135.19   12.10
  -2   3  -8  141.99   12.60
   2  -3   8  151.38   13.40
   2  -3   8  150.48   12.40
   2  -3   8  152.28   11.70
   2  -3   8  146.49   10.80
   2  -3   8  136.79   10.80
  -3   3  -8   29.30    7.40
  -3   3  -8   19.00    7.10
   3  -3   8   32.10    6.80
   3  -3   8   28.80    7.00
   3  -3   8   40.90    9.30
   3  -3   8   26.90    7.80
  -4   3  -8  703.03   29.30
   4  -3   8  681.43   29.70
   4  -3   8  734.93   29.40
   4  -3   8  690.23   24.30
   4  -3   8  720.23   25.70
   4  -3   8  713.63   31.90
  -5   3  -8  517.95   27.10
   5  -3   8  511.15   23.20
   5  -3   8  522.35   29.10
   5  -3   8  559.24   27.90
   5  -3   8  573.54   22.40
   5  -3   8  574.84   26.00
  -6   3  -8   30.90   12.80
   6  -3   8   40.70    9.10
   6  -3   8   24.80   12.30
   6  -3   8   26.70    9.70
  -7   3  -8    2.20   14.90
   7  -3   8   17.70   15.10
   7  -3   8   12.00    9.60
   7  -3   8   -1.10   10.10
   8   2  -8  518.15   30.10
   8   2  -8  452.95   18.30
  -8  -2   8  513.05   27.60
  -8  -2   8  478.55   27.70
   7   2  -8  215.58   18.90
   7   2  -8  210.18   10.60
  -7  -2   8  220.18   18.60
  -7  -2   8  207.78   20.10
  -7  -2   8  222.98   18.30
   6   2  -8   33.40    4.10
   6   2  -8   27.60    8.50
   6   2  -8   41.90    4.50
  -6  -2   8   27.60    9.20
  -6  -2   8   38.00    9.50
  -6  -2   8   28.60    8.90
   5   2  -8   66.49    9.40
  -5  -2   8   74.29   11.40
  -5  -2   8   45.50    8.90
  -5  -2   8   72.89    9.70
   4   2  -8  183.48   13.20
   4   2  -8  179.18   12.30
  -4  -2   8  168.98   13.80
  -4  -2   8  174.28   13.00
  -4  -2   8  162.38   13.10
   3   2  -8  792.32   25.80
  -3  -2   8  845.12   27.80
  -3  -2   8  856.41   27.30
  -3  -2   8  824.12   26.80
   2   2  -8  955.50   35.20
   2   2  -8  977.50   28.10
   2   2  -8  902.91   27.70
   2   2  -8  925.21   19.10
  -2  -2   8  894.91   27.90
  -2  -2   8  907.61   28.60
  -2  -2   8  924.41   28.50
  -2  -2   8  944.21   19.10
   1   2  -8  281.57   14.40
   1   2  -8  299.07   15.00
   1   2  -8  280.77   14.30
   1   2  -8  284.27    9.80
  -1  -2   8  274.07    9.80
  -1  -2   8  294.17   14.80
  -1  -2   8  279.77   14.50
  -1  -2   8  281.27   15.00
   0   2  -8    0.00    3.10
   0   2  -8   -1.50    4.20
   0   2  -8   -5.10    3.40
   0   2  -8    3.50    4.50
   0  -2   8    3.50    3.20
   0  -2   8    0.90    4.80
   0  -2   8   -3.00    3.60
   0  -2   8    3.50    3.80
  -1   2  -8 1218.18   31.30
  -1   2  -8 1218.28   35.10
   1  -2   8 1129.09   34.70
   1  -2   8 1193.08   30.90
   1  -2   8 1192.28   34.60
   1  -2   8 1233.88   32.60
  -2   2  -8  215.68   14.80
  -2   2  -8  189.28   13.00
  -2   2  -8  196.28   14.30
   2  -2   8  164.78   14.50
   2  -2   8  195.58   12.20
   2  -2   8  190.58   12.30
   2  -2   8  191.68   11.80
   2  -2   8  212.98   14.40
  -3   2  -8  363.56   19.60
  -3   2  -8  336.67   19.20
   3  -2   8  358.46   16.30
   3  -2   8  334.17   17.40
   3  -2   8  344.17   15.50
   3  -2   8  331.97   19.10
   3  -2   8  346.57   20.20
  -4   2  -8   68.19   11.50
  -4   2  -8   72.59   12.30
   4  -2   8   80.89   11.70
   4  -2   8   79.29   11.30
   4  -2   8   69.99    9.10
   4  -2   8   64.79    9.20
  -5   2  -8   26.30    9.40
   5  -2   8   32.50    8.70
   5  -2   8   26.70    7.20
   5  -2   8   14.80   10.10
   5  -2   8   40.50   10.00
  -6   2  -8    1.70   10.20
   6  -2   8   12.30    9.30
   6  -2   8   -9.50    9.70
   6  -2   8    0.20    6.70
   8   1  -8    5.70   10.70
   8   1  -8    3.80    6.10
  -8  -1   8    3.00    9.50
  -8  -1   8   -3.90    9.10
   7   1  -8    7.20    8.10
   7   1  -8    6.10    5.00
  -7  -1   8    3.30    9.50
  -7  -1   8    5.80    7.40
   6   1  -8  396.06   20.70
   6   1  -8  376.76   13.20
  -6  -1   8  387.26   21.50
  -6  -1   8  383.16   22.20
  -6  -1   8  376.46   20.70
   5   1  -8 1213.88   25.30
   5   1  -8 1191.08   25.00
   5   1  -8 1223.88   36.20
  -5  -1   8 1177.88   36.40
  -5  -1   8 1182.58   37.30
  -5  -1   8 1107.69   38.20
   4   1  -8  405.86   10.20
   4   1  -8  390.56   10.10
   4   1  -8  406.86   18.30
   4   1  -8  420.56   19.70
  -4  -1   8  373.86   18.50
  -4  -1   8  386.56   18.60
  -4  -1   8  381.06   19.00
   3   1  -8   78.69    8.90
   3   1  -8   84.39    4.60
   3   1  -8   80.99    4.50
   3   1  -8   67.79    8.70
  -3  -1   8   76.49    9.00
  -3  -1   8   70.79    9.60
  -3  -1   8   78.19    9.60
   2   1  -8  893.31   28.50
   2   1  -8  961.50   29.60
   2   1  -8 1007.40   22.30
   2   1  -8 1014.40   29.70
  -2  -1   8  996.40   29.70
  -2  -1   8  952.60   29.40
  -2  -1   8 1026.70   30.30
  -2  -1   8  996.60   22.40
   1   1  -8   19.30    6.00
   1   1  -8   26.90    6.20
   1   1  -8   23.00    5.80
   1   1  -8   24.20    6.30
  -1  -1   8   21.10    5.30
  -1  -1   8   30.60    7.00
  -1  -1   8   27.10    4.30
  -1  -1   8   22.50    7.10
   0   1  -8  677.93   20.30
   0   1  -8  665.63   23.70
   0   1  -8  660.63   22.00
   0   1  -8  671.53   24.20
   0  -1   8  666.83   24.70
   0  -1   8  668.83   20.30
   0  -1   8  715.63   24.80
   0  -1   8  658.63   21.80
  -1   1  -8  773.22   24.20
   1  -1   8  768.42   23.80
   1  -1   8  782.22   23.60
   1  -1   8  761.92   27.20
  -2   1  -8  241.68   18.60
  -2   1  -8  266.77   16.60
  -2   1  -8  226.18   14.40
   2  -1   8  196.28   15.40
   2  -1   8  227.18   12.00
   2  -1   8  225.78   12.50
   2  -1   8  220.48   15.40
   2  -1   8  234.68   13.90
  -3   1  -8    4.60    6.70
  -3   1  -8   -0.90    5.10
   3  -1   8   -3.60    5.80
   3  -1   8   -1.50    3.90
   3  -1   8    2.20    4.70
   3  -1   8    2.60    5.40
   3  -1   8    6.70    6.60
  -4   1  -8  591.94   27.90
  -4   1  -8  601.34   29.00
   4  -1   8  622.44   26.10
   4  -1   8  547.45   27.10
   4  -1   8  623.14   21.00
   4  -1   8  601.14   20.00
  -5   1  -8  173.88   18.90
   5  -1   8  189.98   13.80
   5  -1   8  168.18   16.70
   5  -1   8  184.28   11.70
   5  -1   8  180.88   19.90
  -6   1  -8  131.39   19.40
   6  -1   8   80.79   16.40
   6  -1   8  132.29   18.80
   9   0  -8  326.97   19.90
   9   0  -8  362.16   30.20
  -9   0   8  357.56   28.00
  -9   0   8  329.27   27.40
   8   0  -8  313.97   16.30
  -8   0   8  339.27   23.20
  -8   0   8  354.16   24.30
  -8   0   8  340.57   28.30
   7   0  -8  479.55   17.50
   7   0  -8  490.45   17.50
   7   0  -8  460.45   25.00
  -7   0   8  495.35   27.60
  -7   0   8  496.15   25.60
  -7   0   8  486.85   25.40
   6   0  -8   37.10    5.50
   6   0  -8   25.90    5.00
   6   0  -8   29.20    8.60
  -6   0   8   31.00    8.50
  -6   0   8   25.70    7.80
  -6   0   8   22.50    8.60
   5   0  -8   79.49   11.30
   5   0  -8   63.29    6.00
   5   0  -8   72.19   10.30
  -5   0   8   55.79    9.40
  -5   0   8   47.60    9.00
  -5   0   8   67.89   10.00
   4   0  -8    5.20    2.90
   4   0  -8   11.60    6.40
   4   0  -8   10.40    3.20
   4   0  -8    9.80    5.10
  -4   0   8    5.40    8.30
  -4   0   8   16.00    6.10
  -4   0   8   11.50    6.40
   3   0  -8  444.16   19.60
   3   0  -8  478.15   19.90
   3   0  -8  475.45   19.70
   3   0  -8  462.55   13.70
  -3   0   8  464.75   19.70
  -3   0   8  442.26   19.50
   2   0  -8 1080.99   31.90
   2   0  -8 1066.59   31.20
   2   0  -8 1109.29   32.30
   2   0  -8 1096.99   27.90
  -2   0   8 1103.89   31.60
  -2   0   8 1089.79   26.20
  -2   0   8 1074.19   31.90
  -2   0   8 1063.79   32.20
   1   0  -8 1353.36   32.40
   1   0  -8 1348.86   37.30
   1   0  -8 1385.26   35.80
  -1   0   8 1343.67   32.70
  -1   0   8 1380.46   35.70
  -1   0   8 1345.27   37.80
  -1   0   8 1403.46   37.80
   0   0  -8    9.10    4.70
   0   0  -8    4.40    4.70
   0   0  -8   12.20    5.90
   0   0  -8    1.90    3.90
   0   0   8    8.40    5.80
   0   0   8    5.80    4.80
   0   0   8    1.60    3.80
   0   0   8    1.10    3.40
  -1   0  -8  361.46   16.80
  -1   0  -8  354.06   14.80
  -1   0  -8  327.07   18.00
   1   0   8  348.77   17.80
   1   0   8  368.26   19.00
   1   0   8  332.57   15.70
   1   0   8  348.47   14.60
  -2   0  -8  317.67   18.40
  -2   0  -8  328.47   19.00
   2   0   8  355.96   19.20
   2   0   8  318.67   13.80
   2   0   8  350.16   19.80
   2   0   8  361.56   14.60
   2   0   8  355.76   17.30
  -3   0  -8  301.47   19.90
  -3   0  -8  274.17   18.70
   3   0   8  268.47   12.50
   3   0   8  268.57   12.40
   3   0   8  294.27   20.60
  -4   0  -8  164.68   17.40
  -4   0  -8  190.08   22.20
   4   0   8  183.08   16.00
   4   0   8  183.78   18.00
   4   0   8  179.88   10.10
   4   0   8  173.28   10.80
  -5   0  -8  235.78   21.80
   5   0   8  255.77   19.80
   5   0   8  249.97   23.00
   5   0   8  224.38   10.20
  -6   0  -8    1.20   10.70
   6   0   8   35.70   15.80
   6   0   8   -5.10    8.60
   9  -1  -8   57.89   17.20
   9  -1  -8   80.39   12.00
  -9   1   8   57.89   17.80
  -9   1   8   49.60   14.30
   8  -1  -8   98.49   11.70
   8  -1  -8   69.59   11.30
   8  -1  -8   98.39   15.40
  -8   1   8   90.89   14.50
  -8   1   8   66.89   13.70
   7  -1  -8   48.40    7.50
   7  -1  -8   44.20    7.50
   7  -1  -8   48.30   10.70
  -7   1   8   53.49   11.70
  -7   1   8   53.09   11.00
  -7   1   8   39.90   11.20
   6  -1  -8  326.97   20.60
   6  -1  -8  358.86   14.30
   6  -1  -8  338.07   13.90
  -6   1   8  366.66   20.60
  -6   1   8  274.87   18.90
  -6   1   8  334.87   20.50
   5  -1  -8  642.84   18.80
   5  -1  -8  717.53   27.10
  -5   1   8  631.14   25.80
  -5   1   8  641.74   26.30
  -5   1   8  614.94   25.50
   4  -1  -8 1886.71   48.20
   4  -1  -8 1879.31   40.50
   4  -1  -8 1808.02   47.70
   4  -1  -8 1873.41   40.10
  -4   1   8 1876.31   48.60
  -4   1   8 1793.42   48.00
  -4   1   8 1840.92   53.29
   3  -1  -8   22.50    6.20
   3  -1  -8   38.00    5.30
   3  -1  -8   37.30   10.20
   3  -1  -8   33.10    7.50
  -3   1   8   41.20    8.00
  -3   1   8   33.90    6.60
  -3   1   8   36.40    7.10
   2  -1  -8  204.28   15.70
   2  -1  -8  220.38   10.90
   2  -1  -8  217.58   13.30
   2  -1  -8  231.08   14.20
  -2   1   8  197.28   14.00
  -2   1   8  216.08   13.20
   1  -1  -8   49.20    8.00
   1  -1  -8   32.70    5.90
   1  -1  -8   43.30    8.70
   1  -1  -8   50.19    7.20
  -1   1   8   41.40    7.10
  -1   1   8   43.00    6.80
  -1   1   8   40.00    7.50
  -1   1   8   40.60    6.10
   0  -1  -8  342.67   14.80
   0  -1  -8  344.47   17.80
   0  -1  -8  363.26   18.30
   0  -1  -8  367.06   16.40
   0   1   8  379.66   18.20
   0   1   8  386.06   19.10
   0   1   8  365.36   15.90
   0   1   8  364.26   15.00
  -1  -1  -8  470.05   22.00
  -1  -1  -8  459.55   21.30
  -1  -1  -8  458.55   19.90
  -1  -1  -8  465.95   16.40
   1   1   8  436.46   27.90
   1   1   8  433.16   19.00
   1   1   8  432.36   20.60
  -2  -1  -8 1100.29   36.30
  -2  -1  -8 1060.49   36.40
   2   1   8 1123.09   34.50
   2   1   8 1070.19   36.60
   2   1   8 1114.39   36.70
   2   1   8 1094.79   27.40
   2   1   8 1124.19   27.10
  -3  -1  -8    6.40    7.20
  -3  -1  -8    2.80    8.40
   3   1   8   -2.80    4.20
   3   1   8    5.40    6.60
   3   1   8    4.80    3.50
   3   1   8    7.00    9.40
  -4  -1  -8  205.68   21.00
  -4  -1  -8  212.98   19.10
   4   1   8  170.68   16.50
   4   1   8  224.88   20.30
  -5  -1  -8  359.26   26.10
   5   1   8  404.46   24.90
   9  -2  -8   39.30   15.10
  -9   2   8   19.20   14.50
   8  -2  -8  451.95   20.40
   8  -2  -8  460.35   27.80
  -8   2   8  477.35   27.00
  -8   2   8  504.85   28.60
   7  -2  -8  756.72   31.60
   7  -2  -8  742.93   24.50
   7  -2  -8  730.13   24.20
  -7   2   8  694.83   30.90
  -7   2   8  765.82   31.80
   6  -2  -8   15.90    8.60
   6  -2  -8   13.70    5.00
   6  -2  -8   23.00    6.70
  -6   2   8   13.50    8.20
  -6   2   8   22.50    8.00
   5  -2  -8  281.17   12.90
   5  -2  -8  251.57   16.70
   5  -2  -8  282.47   18.00
   5  -2  -8  254.67   12.30
  -5   2   8  268.77   17.60
  -5   2   8  263.27   17.80
  -5   2   8  240.48   16.80
   4  -2  -8   12.00    4.50
   4  -2  -8   27.10    7.60
   4  -2  -8   24.30    5.20
   4  -2  -8   24.60    7.10
  -4   2   8   41.30    8.50
  -4   2   8   24.70    6.30
  -4   2   8   14.90    6.20
   3  -2  -8  211.28   14.40
   3  -2  -8  226.08   14.40
   3  -2  -8  221.68   11.50
   3  -2  -8  219.38   14.50
  -3   2   8  223.88   14.30
  -3   2   8  254.87   15.90
  -3   2   8  241.38   11.90
  -3   2   8  226.58   14.10
   2  -2  -8 1351.96   39.20
   2  -2  -8 1382.56   39.10
   2  -2  -8 1427.56   37.70
   2  -2  -8 1436.96   35.30
  -2   2   8 1395.06   39.80
  -2   2   8 1430.16   37.50
  -2   2   8 1382.16   38.80
  -2   2   8 1430.56   35.30
   1  -2  -8 1191.48   32.00
   1  -2  -8 1118.89   34.70
   1  -2  -8 1130.89   31.10
  -1   2   8 1203.08   35.10
  -1   2   8 1135.09   31.60
  -1   2   8 1136.69   31.20
  -1   2   8 1166.18   35.50
   0  -2  -8   53.39    7.10
   0  -2  -8   63.59    9.90
   0  -2  -8   53.69    8.30
   0   2   8   65.19   11.40
   0   2   8   46.90    7.70
   0   2   8   62.99    9.50
  -1  -2  -8   86.49   11.30
  -1  -2  -8   80.09   11.10
  -1  -2  -8   76.69    7.40
   1   2   8   73.49    9.70
   1   2   8   82.59    7.40
   1   2   8   67.69   13.20
   1   2   8   52.89    8.50
  -2  -2  -8  303.57   19.30
  -2  -2  -8  345.37   21.10
   2   2   8  295.67   11.10
   2   2   8  338.97   18.90
   2   2   8  330.97   11.30
   2   2   8  283.27   18.80
  -3  -2  -8  113.29   14.50
  -3  -2  -8  125.99   16.10
   3   2   8  102.69   13.70
   3   2   8   87.49   12.60
  -4  -2  -8  248.68   23.80
  -4  -2  -8  255.87   21.00
   4   2   8  270.17   22.70
   4   2   8  278.47   20.60
  -5  -2  -8   41.20   11.60
   5   2   8   60.59   17.40
   5   2   8   54.99   12.20
   9  -3  -8  165.38   17.00
   9  -3  -8  135.89   19.30
  -9   3   8  150.78   20.90
  -9   3   8  154.98   20.80
   8  -3  -8  257.67   17.10
   8  -3  -8  264.27   22.50
  -8   3   8  275.57   22.60
  -8   3   8  266.47   22.00
   7  -3  -8    6.90    8.80
   7  -3  -8    1.70    5.60
   7  -3  -8    4.90    7.20
   7  -3  -8  -18.10    9.70
  -7   3   8    2.70    7.40
  -7   3   8    4.10    8.20
   6  -3  -8   31.60    8.10
   6  -3  -8   28.00    6.40
   6  -3  -8   33.20   10.00
   6  -3  -8   31.90    6.90
  -6   3   8   29.30   10.20
  -6   3   8   28.10    8.90
   5  -3  -8 1354.06   41.00
   5  -3  -8 1285.27   34.80
   5  -3  -8 1323.27   40.40
   5  -3  -8 1342.17   34.60
  -5   3   8 1306.57   40.40
  -5   3   8 1334.87   41.00
  -5   3   8 1350.16   40.60
   4  -3  -8  345.47   15.60
   4  -3  -8  359.16   19.00
   4  -3  -8  364.56   19.10
   4  -3  -8  351.76   15.50
  -4   3   8  345.87   19.00
  -4   3   8  344.47   18.60
  -4   3   8  356.46   18.70
   3  -3  -8  320.77   24.50
   3  -3  -8  286.37   16.50
   3  -3  -8  327.07   15.20
   3  -3  -8  305.07   17.00
  -3   3   8  306.97   16.40
  -3   3   8  318.07   17.20
  -3   3   8  310.97   18.00
  -3   3   8  310.47   14.70
   2  -3  -8   94.19   10.10
   2  -3  -8   63.09    8.70
   2  -3  -8   90.69   10.90
   2  -3  -8   76.59    9.80
  -2   3   8   76.69    9.40
  -2   3   8   64.59    8.90
  -2   3   8   76.99   10.80
  -2   3   8   63.79    8.30
   1  -3  -8   48.00    7.80
   1  -3  -8   42.10    7.90
   1  -3  -8   56.59    9.00
   1  -3  -8   48.90    7.10
  -1   3   8   53.09    9.10
  -1   3   8   45.00    8.10
  -1   3   8   40.50    6.70
  -1   3   8   63.99    8.80
   0  -3  -8  161.68   10.30
   0  -3  -8  172.08   14.40
   0  -3  -8  156.88   13.80
   0   3   8  153.18   12.40
   0   3   8  152.28   10.00
   0   3   8  140.89   12.80
  -1  -3  -8  519.35   24.30
   1   3   8  572.34   24.60
   1   3   8  561.84   24.10
   1   3   8  556.74   16.80
  -2  -3  -8  587.14   28.20
  -2  -3  -8  517.35   25.50
   2   3   8  500.35   24.30
   2   3   8  540.95   25.50
  -3  -3  -8  276.57   22.80
  -3  -3  -8  277.67   20.70
   3   3   8  246.38   19.20
   3   3   8  271.97   20.80
  -4  -3  -8   81.99   13.60
   4   3   8   75.89   13.60
   4   3   8   83.29   16.40
   9  -4  -8   -8.60    8.30
   9  -4  -8   -5.90   10.80
  -9   4   8    4.00   10.70
  -9   4   8    2.40   12.30
   8  -4  -8  189.38   18.40
   8  -4  -8  154.78   19.30
  -8   4   8  203.08   21.10
  -8   4   8  157.38   18.80
   7  -4  -8  610.04   29.60
   7  -4  -8  635.74   25.10
   7  -4  -8  703.73   39.90
  -7   4   8  621.14   29.90
  -7   4   8  730.13   37.70
   6  -4  -8  135.69   12.40
   6  -4  -8  158.68   16.60
   6  -4  -8  127.79   14.50
  -6   4   8  181.38   18.10
  -6   4   8  127.19   15.10
   5  -4  -8  186.88   15.60
   5  -4  -8  162.08   15.60
   5  -4  -8  185.08   13.50
   5  -4  -8  180.38   12.90
  -5   4   8  173.18   15.50
   4  -4  -8   88.09   11.50
   4  -4  -8   84.59   10.10
   4  -4  -8   93.09   18.60
   4  -4  -8   90.79   10.10
  -4   4   8   93.59   11.90
  -4   4   8   74.89   10.80
   3  -4  -8   64.99    8.90
   3  -4  -8   56.39    9.20
   3  -4  -8   40.70    8.20
   3  -4  -8   52.09    8.70
  -3   4   8   46.10    8.70
  -3   4   8   58.49    9.10
  -3   4   8   60.29    8.40
   2  -4  -8 1021.50   33.40
   2  -4  -8  998.90   33.20
  -2   4   8  926.71   30.20
  -2   4   8  984.70   31.90
  -2   4   8 1059.89   30.60
   1  -4  -8  908.81   27.10
   1  -4  -8  976.20   32.70
   1  -4  -8  937.61   32.30
  -1   4   8  966.90   31.50
  -1   4   8  918.61   27.00
  -1   4   8  931.31   30.70
   0  -4  -8  230.28   11.70
   0  -4  -8  219.68   16.90
   0  -4  -8  218.68   16.20
   0   4   8  207.98   15.50
   0   4   8  219.68   15.50
  -1  -4  -8    7.70    7.40
   1   4   8   -6.80    5.40
   1   4   8   14.70    7.60
   1   4   8    6.60    3.50
  -2  -4  -8   21.70    8.70
  -2  -4  -8   45.10   10.90
   2   4   8   65.49   11.70
   2   4   8   40.70    9.40
  -3  -4  -8   69.99   16.70
  -3  -4  -8   34.30   10.20
   3   4   8   45.00   14.10
   3   4   8   69.09   13.20
  -4  -4  -8  258.57   23.50
   4   4   8  223.58   22.00
   9  -5  -8  131.29   18.90
   9  -5  -8  118.19   15.10
  -9   5   8  178.68   23.50
   8  -5  -8  157.98   16.10
   8  -5  -8  145.99   19.40
  -8   5   8  120.89   16.60
   7  -5  -8  445.86   38.00
   7  -5  -8  561.54   28.00
   7  -5  -8  582.74   30.30
  -7   5   8  624.34   29.40
   6  -5  -8   61.59   12.30
   6  -5  -8   58.49    9.10
   6  -5  -8   70.29   11.40
  -6   5   8   32.20    9.80
  -6   5   8   35.60    9.20
   5  -5  -8  471.45   24.10
   5  -5  -8  443.66   20.60
   5  -5  -8  443.66   22.80
  -5   5   8  469.85   23.20
  -5   5   8  452.05   23.10
   4  -5  -8  850.91   30.90
   4  -5  -8  804.52   28.30
   4  -5  -8  783.12   30.50
  -4   5   8  825.32   29.90
  -4   5   8  883.31   30.60
   3  -5  -8  482.75   23.00
   3  -5  -8  452.85   22.00
  -3   5   8  459.35   20.50
  -3   5   8  440.86   20.40
  -3   5   8  471.55   21.40
   2  -5  -8   19.20    6.80
   2  -5  -8    9.00    5.90
   2  -5  -8    7.40    6.60
  -2   5   8    8.00    6.10
  -2   5   8   16.90    6.00
  -2   5   8    7.10    6.80
   1  -5  -8  361.46   19.80
   1  -5  -8  315.07   15.10
   1  -5  -8  309.47   19.40
  -1   5   8  322.27   18.40
  -1   5   8  296.47   22.90
  -1   5   8  323.87   14.90
   0  -5  -8  386.66   14.60
   0  -5  -8  390.06   21.50
   0  -5  -8  361.06   21.50
   0   5   8  372.76   20.70
   0   5   8  356.46   20.20
   0   5   8  358.06   14.00
  -1  -5  -8  223.08   19.40
  -1  -5  -8  250.97   18.80
   1   5   8  227.38   18.40
   1   5   8  255.67   18.50
  -2  -5  -8  717.33   33.40
  -2  -5  -8  708.63   31.60
   2   5   8  704.23   31.60
   2   5   8  734.63   32.10
  -3  -5  -8   89.69   15.60
   3   5   8   74.39   15.20
   8  -6  -8  167.08   17.20
   8  -6  -8  128.99   17.40
  -8   6   8  191.18   23.00
   7  -6  -8  194.08   21.90
   7  -6  -8  188.68   16.90
   7  -6  -8  180.08   18.30
  -7   6   8  207.58   20.30
  -7   6   8  194.68   18.90
   6  -6  -8  297.87   22.40
   6  -6  -8  289.17   18.60
   6  -6  -8  316.57   21.00
  -6   6   8  292.87   20.90
  -6   6   8  307.17   21.40
   5  -6  -8  175.08   17.60
   5  -6  -8  190.08   16.40
   5  -6  -8  208.58   17.00
  -5   6   8  193.08   16.60
  -5   6   8  181.78   16.50
   4  -6  -8  106.19   14.90
   4  -6  -8  143.59   15.70
   4  -6  -8  120.39   20.30
  -4   6   8  118.09   13.10
  -4   6   8  114.99   13.30
   3  -6  -8    3.40    6.80
   3  -6  -8   -0.80    5.90
  -3   6   8   -0.60    5.50
  -3   6   8   -3.90    6.10
  -3   6   8    6.60    7.00
   2  -6  -8  194.88   16.50
   2  -6  -8  228.08   16.80
   2  -6  -8  199.38   14.70
  -2   6   8  207.78   13.60
  -2   6   8  184.48   15.40
  -2   6   8  215.48   15.90
   1  -6  -8  846.52   26.00
   1  -6  -8  873.21   32.70
   1  -6  -8  868.01   32.60
  -1   6   8  873.31   26.10
  -1   6   8  856.71   31.10
  -1   6   8  861.01   32.20
   0  -6  -8  348.77   22.00
   0  -6  -8  361.16   21.60
   0  -6  -8  353.06   15.50
   0   6   8  349.67   15.80
   0   6   8  364.56   21.60
   0   6   8  358.16   21.50
  -1  -6  -8   -3.90    8.50
  -1  -6  -8   -2.90    7.00
   1   6   8    9.70   10.20
   1   6   8   13.80    7.70
   2   6   8   36.90   20.10
   8  -7  -8  285.37   24.90
   8  -7  -8  275.07   21.40
  -8   7   8  351.96   26.30
   7  -7  -8  176.38   17.50
   7  -7  -8  197.98   19.40
  -7   7   8  185.58   21.40
  -7   7   8  136.09   18.40
   6  -7  -8    5.60   10.10
   6  -7  -8   13.70    8.00
   6  -7  -8   16.70    8.40
  -6   7   8   25.00    9.90
  -6   7   8   18.80   10.70
   5  -7  -8  179.48   18.50
   5  -7  -8  165.68   16.40
   5  -7  -8  167.98   16.10
  -5   7   8  153.38   17.00
  -5   7   8  143.69   15.90
   4  -7  -8  449.36   23.70
   4  -7  -8  521.75   25.20
   4  -7  -8  511.15   24.90
  -4   7   8  462.85   23.80
  -4   7   8  483.45   23.50
   3  -7  -8  200.18   16.60
   3  -7  -8  223.78   18.00
  -3   7   8  201.08   15.40
  -3   7   8  190.88   16.40
  -3   7   8  214.38   17.10
   2  -7  -8  198.48   15.30
   2  -7  -8  164.08   16.70
   2  -7  -8  148.59   15.00
  -2   7   8  197.28   17.10
  -2   7   8  194.98   16.50
  -2   7   8  169.68   13.30
   1  -7  -8    7.00    7.40
   1  -7  -8   -8.00    6.20
   1  -7  -8    5.00    8.00
  -1   7   8    1.60    5.50
  -1   7   8    6.50    9.00
  -1   7   8   -2.10    6.80
   0  -7  -8   40.60   11.10
   0  -7  -8   33.00    9.80
   0  -7  -8   46.20    5.70
   0   7   8   18.40    8.40
   0   7   8   39.10    5.70
  -1  -7  -8  109.29   15.70
  -2  -7  -8  621.04   31.80
   2   7   8  579.54   31.80
   7  -8  -8  252.37   21.80
   7  -8  -8  239.28   21.00
  -7   8   8  239.18   29.00
   6  -8  -8   26.80   10.10
   6  -8  -8   16.40    9.10
  -6   8   8   31.40   10.60
  -6   8   8   11.00   11.50
   5  -8  -8  484.65   27.40
   5  -8  -8  554.44   27.20
   5  -8  -8  505.45   26.30
  -5   8   8  514.65   27.00
  -5   8   8  515.55   26.70
   4  -8  -8  161.88   17.20
   4  -8  -8  189.18   17.20
   4  -8  -8  202.18   19.20
  -4   8   8  221.18   17.70
   3  -8  -8   24.10    8.90
   3  -8  -8   19.90    9.60
  -3   8   8   27.50    8.50
  -3   8   8   24.40    8.80
   2  -8  -8  154.18   20.80
   2  -8  -8  154.18   16.10
  -2   8   8  177.18   17.70
  -2   8   8  164.88   19.10
  -2   8   8  150.18   14.30
   1  -8  -8  392.36   23.50
   1  -8  -8  406.26   26.20
  -1   8   8  411.96   18.00
  -1   8   8  392.16   24.80
   0  -8  -8  260.97   33.20
   0   8   8  190.48   19.70
   7  -9  -8  189.98   22.30
   7  -9  -8  236.18   22.20
  -7   9   8  217.28   22.90
   6  -9  -8   45.60   11.70
   6  -9  -8   49.40   12.50
  -6   9   8   46.10   12.70
   5  -9  -8   37.50   11.40
   5  -9  -8   37.70   10.80
  -5   9   8   24.60   10.40
   4  -9  -8  178.08   17.90
   4  -9  -8  171.28   19.30
  -4   9   8  201.58   18.70
   3  -9  -8  141.89   17.00
  -3   9   8  196.38   19.80
  -3   9   8  186.08   16.60
  -2   9   8   38.80   16.80
  -2   9   8   36.50    9.90
   1  -9  -8  269.37   21.00
  -1   9   8  228.18   22.90
  -1   9   8  272.47   15.80
   5 -10  -8   56.09   12.30
   5 -10  -8   49.99   13.90
  -5  10   8   46.40   13.40
   4 -10  -8  300.67   24.70
   4 -10  -8  238.78   20.60
  -4  10   8  252.67   21.70
   3 -10  -8   59.89   12.50
   0 -13   9   80.89   17.10
   0 -13   9   71.89   10.60
   1 -13   9   22.70    8.90
   1 -13   9   37.60   13.30
   2 -13   9   79.39   12.30
   2 -13   9   76.19    8.50
   2 -13   9   88.39    9.70
   2 -13   9   80.49   15.90
   3 -13   9  288.07   16.20
   3 -13   9  308.97   20.90
   3 -13   9  310.47   16.30
   3 -13   9  287.67   24.90
  -2 -12   9   66.29    8.40
  -2 -12   9   82.69   15.80
  -2 -12   9   68.69    7.60
  -1 -12   9    2.50    6.20
  -1 -12   9    2.20    4.10
  -1 -12   9    2.00    4.80
  -1 -12   9    1.00    9.70
   0 -12   9  102.59    8.40
   0 -12   9  105.39    8.50
   0 -12   9  108.39   12.10
   0 -12   9   91.19   15.20
   1 -12   9    6.70    4.90
   1 -12   9   -9.90    7.90
   1 -12   9    7.40    5.10
   1 -12   9    4.00    6.20
   2 -12   9   21.90   10.30
   2 -12   9   12.90    7.90
   2 -12   9   26.40    6.90
   2 -12   9   26.00    6.90
   3 -12   9   21.00    7.70
   3 -12   9    9.60    8.00
   3 -12   9    0.30   13.60
   3 -12   9   31.50   12.30
   4 -12   9   59.29   13.80
   4 -12   9   51.49   11.30
   4 -12   9   72.29   11.30
  -3 -11   9   19.20    6.80
  -3 -11   9   36.50    8.60
  -3 -11   9   20.60   11.50
  -2 -11   9   71.29   14.10
  -2 -11   9   88.49    9.80
  -2 -11   9   67.99    8.90
  -1 -11   9   60.79    7.90
  -1 -11   9   44.70   12.40
  -1 -11   9   64.29    7.80
  -1 -11   9   78.89    8.00
   0 -11   9   66.69    8.00
   0 -11   9   53.69    9.50
   0 -11   9   68.79    9.00
   0 -11   9   85.19   14.00
   0 -11   9   62.39    8.40
   1 -11   9  354.36   15.60
   1 -11   9  391.96   18.00
   1 -11   9  368.76   24.10
   1 -11   9  344.67   15.80
   2 -11   9   11.00    8.80
   2 -11   9    8.80    5.70
   2 -11   9   19.70    6.30
   2 -11   9    4.90    5.60
   3 -11   9  162.68   14.00
   3 -11   9  136.59   17.60
   3 -11   9  152.98   14.40
   3 -11   9  132.69   12.90
   4 -11   9   43.00   10.30
   4 -11   9   57.19   11.30
   4 -11   9   49.30    9.90
   4 -11   9   43.70   12.50
   5 -11   9   76.59   13.30
   5 -11   9  123.59   15.10
   5 -11   9   92.79   16.00
  -4 -10   9   71.19   11.50
  -4 -10   9   96.19   16.00
  -4 -10   9   85.79   11.00
  -3 -10   9  168.18   14.20
  -3 -10   9  173.18   19.40
  -3 -10   9  166.18   12.50
  -2 -10   9  536.55   20.50
  -2 -10   9  507.15   19.80
  -2 -10   9  486.55   18.40
  -2 -10   9  515.65   27.50
  -1 -10   9   -3.40    5.60
  -1 -10   9   10.20    8.40
  -1 -10   9    1.30    4.10
  -1 -10   9   -2.20    4.90
   0 -10   9  173.78   17.50
   0 -10   9  181.98   11.40
   0 -10   9  157.28   10.70
   0 -10   9  202.68   12.30
   0 -10   9  179.68   12.80
   1 -10   9   15.10    6.90
   1 -10   9   22.00    6.20
   1 -10   9   28.30    6.90
   1 -10   9   12.30    5.50
   1 -10   9   33.70   10.00
   2 -10   9    6.40    5.30
   2 -10   9    9.60    7.70
   2 -10   9    3.70    6.40
   2 -10   9    7.90    5.60
   3 -10   9    0.20    5.40
   3 -10   9    6.90    8.20
   3 -10   9   20.70    8.50
  -4  10  -9  431.46   21.20
   4 -10   9  429.66   22.20
   4 -10   9  422.86   21.30
   4 -10   9  435.56   22.50
   4 -10   9  364.36   24.40
   5 -10   9   59.49   13.70
   5 -10   9   66.19   12.00
   5 -10   9   68.99   13.60
   5 -10   9   44.40   10.10
   6 -10   9   25.50   18.40
   6 -10   9   35.80   12.50
   6 -10   9   27.30   10.90
  -5  -9   9  173.58   19.90
  -5  -9   9  185.58   27.80
  -5  -9   9  150.78   15.00
  -4  -9   9   -1.90    8.70
  -4  -9   9    8.80    6.10
  -4  -9   9    1.80    7.70
  -3  -9   9    8.80    6.60
  -3  -9   9    6.80    5.30
  -3  -9   9    1.30    8.40
  -2  -9   9    2.50    3.20
  -2  -9   9   -0.20    2.70
  -2  -9   9    0.20    4.40
  -2  -9   9    7.20    5.40
  -2  -9   9   -0.70    7.00
  -1  -9   9   56.19    8.30
  -1  -9   9   60.29   11.00
  -1  -9   9   58.29    7.50
  -1  -9   9   58.19    7.40
  -1  -9   9   51.29    6.00
   0  -9   9  128.49   10.30
   0  -9   9  108.99   12.80
   0  -9   9  121.49    8.80
   0  -9   9  130.69   10.30
   0  -9   9  131.39   14.90
   1  -9   9 1017.50   29.90
   1  -9   9 1015.50   29.30
   1  -9   9  953.80   27.80
   1  -9   9 1013.70   29.90
   1  -9   9 1038.50   36.90
  -2   9  -9  105.89   13.10
  -2   9  -9   83.19    9.70
   2  -9   9   82.29   10.20
   2  -9   9  101.99   14.30
   2  -9   9   95.79   10.40
   2  -9   9   81.19   10.00
  -3   9  -9   55.59    9.40
   3  -9   9   67.09    9.80
   3  -9   9   56.89    9.40
   3  -9   9   47.50    8.80
   3  -9   9   56.79   11.40
  -4   9  -9  373.56   21.60
   4  -9   9  406.36   21.30
   4  -9   9  380.76   20.70
   4  -9   9  380.16   23.80
   4  -9   9  364.46   21.00
  -5   9  -9    6.40   11.70
   5  -9   9   18.00    9.30
   5  -9   9    2.90    7.10
   5  -9   9   20.50    9.00
   5  -9   9   13.80    9.90
   6  -9   9   19.20   10.90
   6  -9   9   12.10    9.60
   6  -9   9   22.30   10.20
  -5  -8   9   -0.90    9.50
  -5  -8   9   10.00    9.10
  -5  -8   9    5.40    7.00
  -4  -8   9   55.19    9.20
  -4  -8   9   47.10   11.10
  -4  -8   9   58.39   10.40
  -3  -8   9  432.96   24.00
  -3  -8   9  455.25   20.10
  -3  -8   9  405.26   18.20
  -2  -8   9  438.76   23.40
  -2  -8   9  446.86   19.10
  -2  -8   9  422.26   17.60
  -1  -8   9  102.69   10.40
  -1  -8   9  102.79    6.30
  -1  -8   9  111.69    9.80
  -1  -8   9   89.69    6.90
  -1  -8   9   84.39   11.60
   0   8  -9   42.00    6.10
   0  -8   9   36.60    7.20
   0  -8   9   40.50    6.10
   0  -8   9   39.00    9.10
   0  -8   9   42.10    7.00
   1  -8   9   47.10    7.70
   1  -8   9   45.40    7.70
   1  -8   9   34.50    8.40
   1  -8   9   60.09    7.30
  -2   8  -9   53.39    8.80
  -2   8  -9   71.19    8.70
   2  -8   9   68.19   11.50
   2  -8   9   64.19    9.20
   2  -8   9   86.69    9.70
   2  -8   9   68.69    9.30
  -3   8  -9   72.59   11.20
   3  -8   9   92.39   13.20
   3  -8   9   81.59   10.60
   3  -8   9   78.69   11.20
   3  -8   9  101.09   11.20
   4  -8   9  428.36   22.00
   4  -8   9  383.66   21.70
   4  -8   9  382.36   20.50
   4  -8   9  410.76   23.40
  -5   8  -9  345.37   24.50
   5  -8   9  357.16   21.80
   5  -8   9  335.17   23.50
   5  -8   9  355.06   22.00
   5  -8   9  380.86   23.60
   6  -8   9   14.10   10.30
   6  -8   9   30.20   11.10
   6  -8   9   49.80   12.40
  -6  -7   9  138.49   15.60
  -6  -7   9  164.18   18.90
   5   7  -9  233.98   16.50
  -5  -7   9  233.18   16.60
  -5  -7   9  267.47   20.40
  -5  -7   9  235.88   18.70
   4   7  -9   28.40    7.00
  -4  -7   9   27.30    8.30
  -4  -7   9   19.60    7.10
  -4  -7   9   13.20    8.80
   3   7  -9   66.29    8.30
  -3  -7   9   90.09   10.10
  -3  -7   9   71.79   12.00
   2   7  -9   74.19    7.30
  -2  -7   9   89.59   14.00
  -2  -7   9   77.69    9.60
  -2  -7   9   75.29    9.00
   1   7  -9   45.00    6.10
  -1  -7   9   44.20    7.70
  -1  -7   9   41.00    4.20
  -1  -7   9   50.09    7.30
  -1  -7   9   26.80    7.50
  -1  -7   9   48.70    4.40
   0   7  -9  695.13   20.80
   0  -7   9  679.63   27.60
   0  -7   9  708.73   19.20
   0  -7   9  749.23   24.90
   0  -7   9  700.13   24.00
  -1   7  -9  542.85   18.60
   1  -7   9  477.25   20.40
   1  -7   9  503.85   20.40
   1  -7   9  492.35   17.20
   1  -7   9  508.95   23.40
  -2   7  -9  336.87   16.80
   2  -7   9  320.67   22.40
   2  -7   9  347.17   15.80
   2  -7   9  331.97   17.90
   2  -7   9  361.16   18.30
  -3   7  -9  109.89   12.70
   3  -7   9  115.49   11.40
   3  -7   9  101.69   12.40
   3  -7   9  113.19   13.30
   3  -7   9  109.09   12.30
  -4   7  -9   88.59   12.90
   4  -7   9  100.29   13.50
   4  -7   9   56.69   10.20
   4  -7   9   87.79   13.30
   4  -7   9   71.79   10.70
  -5   7  -9   20.70   10.20
   5  -7   9    3.20   10.40
   5  -7   9    7.80    7.40
   5  -7   9    7.10    7.50
   5  -7   9   12.70    7.70
  -6   7  -9    5.80   12.60
   6  -7   9    7.50    8.80
   6  -7   9   11.10    9.10
   6  -7   9   10.50    9.90
  -7  -6   9   35.60   11.30
  -7  -6   9   72.59   15.10
  -6  -6   9   83.39   12.20
  -6  -6   9  129.49   17.00
  -6  -6   9  105.59   14.60
   5   6  -9  512.85   22.30
  -5  -6   9  534.55   26.60
  -5  -6   9  524.35   23.90
  -5  -6   9  489.55   24.30
   4   6  -9   28.00    7.30
  -4  -6   9   27.30    9.30
  -4  -6   9   12.20    6.00
  -4  -6   9   15.60    6.90
   3   6  -9  400.56   16.30
  -3  -6   9  417.96   18.70
  -3  -6   9  381.86   18.50
  -3  -6   9  394.06   21.40
  -2  -6   9  465.05   22.50
  -2  -6   9  451.85   18.80
  -2  -6   9  455.15   19.40
  -1  -6   9  386.06   17.60
  -1  -6   9  409.26   10.50
  -1  -6   9  386.16   17.40
  -1  -6   9  406.36   20.40
  -1  -6   9  404.16   10.60
   0   6  -9  156.38    8.90
   0   6  -9  163.88   10.70
   0  -6   9  155.38    8.70
   0  -6   9  146.69   11.40
   0  -6   9  140.19   13.00
   0  -6   9  143.69   12.00
  -1   6  -9  208.48   13.40
  -1   6  -9  183.68   11.10
   1  -6   9  190.08   14.40
   1  -6   9  185.98   16.30
   1  -6   9  178.78   10.40
   1  -6   9  166.78   12.50
  -2   6  -9    5.80    5.50
  -2   6  -9   -0.20    5.50
   2  -6   9    6.90    5.40
   2  -6   9   10.90    5.10
   2  -6   9    5.70    6.00
   2  -6   9   14.90    6.20
  -3   6  -9   20.50    7.00
   3  -6   9   24.10    8.30
   3  -6   9   28.10    7.30
   3  -6   9   20.40    7.10
   3  -6   9   23.90    6.60
  -4   6  -9  577.74   26.60
   4  -6   9  555.14   27.00
   4  -6   9  567.64   24.50
   4  -6   9  587.04   26.00
   4  -6   9  567.74   26.20
  -5   6  -9  431.86   25.90
   5  -6   9  447.76   23.70
   5  -6   9  415.66   27.10
   5  -6   9  443.46   23.40
   5  -6   9  436.96   24.80
  -6   6  -9    5.80   11.80
   6  -6   9    7.50    9.60
   6  -6   9   -3.00    8.60
   6  -6   9    4.30    8.60
  -7  -5   9   20.80    9.40
  -7  -5   9   24.70   10.70
  -6  -5   9   49.20   11.80
  -6  -5   9   47.90   11.50
  -6  -5   9   60.89   10.80
  -5  -5   9  427.16   21.20
  -5  -5   9  455.25   22.80
  -5  -5   9  432.36   23.80
   4   5  -9   52.09    8.40
  -4  -5   9   54.49    8.90
  -4  -5   9   74.99   17.90
   3   5  -9    3.20    4.40
  -3  -5   9    1.00    4.40
  -3  -5   9    9.50    6.40
  -3  -5   9   -0.40    4.80
   2   5  -9  585.44   20.10
  -2  -5   9  586.64   22.20
  -2  -5   9  537.75   23.80
  -2  -5   9  586.74   21.80
   1   5  -9  188.68   11.50
  -1  -5   9  161.98    6.20
  -1  -5   9  160.48   11.80
  -1  -5   9  167.58   13.50
   0   5  -9   42.40    7.40
   0   5  -9   38.20    5.20
   0  -5   9   44.00    5.60
   0  -5   9   36.10    7.40
   0  -5   9   52.39    8.10
   0  -5   9   42.40    8.40
  -1   5  -9 2140.09   48.00
  -1   5  -9 2179.08   52.59
   1  -5   9 2233.38   48.10
   1  -5   9 2155.28   53.49
   1  -5   9 2204.98   54.49
   1  -5   9 2156.28   52.99
  -2   5  -9  384.16   17.30
  -2   5  -9  386.36   18.90
   2  -5   9  368.36   18.80
   2  -5   9  395.16   19.80
   2  -5   9  345.17   15.90
   2  -5   9  364.26   18.70
  -3   5  -9   -0.60    6.40
   3  -5   9    3.20    5.60
   3  -5   9   12.10    5.90
   3  -5   9   -5.40    6.10
   3  -5   9    3.20    5.40
  -4   5  -9   59.19   10.90
   4  -5   9   55.09   10.10
   4  -5   9   49.80   11.10
   4  -5   9   49.40   10.40
   4  -5   9   63.89   10.50
  -5   5  -9    4.00    8.80
   5  -5   9    6.60    7.90
   5  -5   9    6.10    6.90
   5  -5   9    2.80    7.00
   5  -5   9   20.20   11.40
  -6   5  -9   -8.50   10.40
   6  -5   9    7.00   10.00
   6  -5   9    1.90    7.90
   6  -5   9   -1.80    8.20
   7   4  -9   35.20   14.80
  -7  -4   9   25.20    9.50
  -7  -4   9   38.30   11.80
   6   4  -9  149.79   16.30
  -6  -4   9  202.88   18.60
  -6  -4   9  152.08   17.00
  -6  -4   9  173.78   16.00
   5   4  -9  755.22   27.40
  -5  -4   9  730.63   28.50
  -5  -4   9  746.53   29.20
  -5  -4   9  809.32   31.20
   4   4  -9  308.67   16.10
  -4  -4   9  313.37   18.80
  -4  -4   9  301.67   17.20
  -4  -4   9  329.07   18.30
   3   4  -9  236.88   13.70
  -3  -4   9  216.98   14.10
  -3  -4   9  265.17   15.50
  -3  -4   9  240.08   16.10
   2   4  -9 1998.90   47.10
  -2  -4   9 1899.71   50.39
  -2  -4   9 2061.09   49.60
  -2  -4   9 1923.31   48.40
   1   4  -9  129.09   10.60
   1   4  -9  140.09   14.80
   1   4  -9  133.29   10.70
   1   4  -9  131.79    6.20
  -1  -4   9  140.49   12.30
  -1  -4   9  138.59   11.90
  -1  -4   9  139.19    6.10
  -1  -4   9  140.89   11.30
   0   4  -9   -5.00    5.40
   0   4  -9    6.30    5.10
   0   4  -9    2.40    3.10
   0   4  -9   -1.10    4.10
   0  -4   9    0.00    4.20
   0  -4   9    3.60    5.00
   0  -4   9    2.80    3.10
   0  -4   9    2.80    4.60
  -1   4  -9  167.38   12.80
  -1   4  -9  161.38   10.60
  -1   4  -9  165.78   12.80
   1  -4   9  157.88   12.60
   1  -4   9  193.78   10.80
   1  -4   9  157.38   13.60
   1  -4   9  177.28   13.80
   1  -4   9  184.78   13.00
  -2   4  -9    7.20    5.50
  -2   4  -9    4.90    5.30
   2  -4   9    7.70    6.40
   2  -4   9   -2.20    5.00
   2  -4   9    4.20    6.10
   2  -4   9    0.10    4.50
   2  -4   9    3.40    4.30
  -3   4  -9    9.90    6.40
   3  -4   9   25.80    7.20
   3  -4   9   14.50    6.00
   3  -4   9   13.80    7.00
  -4   4  -9  844.22   32.70
   4  -4   9  786.32   28.20
   4  -4   9  787.32   33.20
   4  -4   9  758.32   29.20
   4  -4   9  785.42   31.50
  -5   4  -9  467.05   27.60
   5  -4   9  455.05   24.20
   5  -4   9  384.86   25.10
   5  -4   9  435.56   21.30
  -6   4  -9   58.09   15.60
   6  -4   9   47.70   11.50
   6  -4   9   30.70   11.50
  -8  -3   9  367.16   26.00
  -8  -3   9  408.86   26.80
   7   3  -9   66.09   13.20
  -7  -3   9  102.39   15.50
  -7  -3   9   98.69   14.10
   6   3  -9   49.70   10.20
  -6  -3   9   63.79   12.30
  -6  -3   9   76.79   12.00
  -6  -3   9   62.19   11.70
   5   3  -9  374.56   21.40
  -5  -3   9  393.96   21.90
  -5  -3   9  371.16   21.20
  -5  -3   9  411.36   20.70
   4   3  -9    4.50    7.70
  -4  -3   9    0.80    4.80
  -4  -3   9    5.80    5.80
  -4  -3   9    4.60    5.60
  -3  -3   9  719.63   26.90
  -3  -3   9  712.63   25.70
  -3  -3   9  639.04   24.40
   2   3  -9  248.58   13.90
   2   3  -9  218.68   14.00
  -2  -3   9  221.18   14.80
  -2  -3   9  257.47   14.60
  -2  -3   9  251.87   14.80
   1   3  -9  443.96   13.00
   1   3  -9  443.26   19.90
   1   3  -9  465.05   19.30
   1   3  -9  450.45   19.20
  -1  -3   9  441.96   19.20
  -1  -3   9  438.66   19.60
  -1  -3   9  432.46   12.90
  -1  -3   9  491.85   20.60
   0   3  -9  140.49   12.20
   0   3  -9  116.59    8.30
   0   3  -9  134.99   11.60
   0   3  -9  126.49   11.40
   0  -3   9  125.69   11.20
   0  -3   9  126.69   11.50
   0  -3   9  134.79   13.00
   0  -3   9  135.99   10.70
  -1   3  -9 1035.80   32.00
  -1   3  -9  968.90   30.80
  -1   3  -9  971.70   27.30
   1  -3   9  946.11   26.80
   1  -3   9  924.41   29.40
   1  -3   9  880.61   30.30
   1  -3   9  945.01   31.70
  -2   3  -9 1028.00   30.90
  -2   3  -9 1036.50   33.70
  -2   3  -9 1000.10   32.80
   2  -3   9 1028.70   34.60
   2  -3   9  982.20   30.50
   2  -3   9  997.10   33.30
   2  -3   9 1008.70   31.30
   2  -3   9  996.50   29.70
  -3   3  -9   58.19   12.00
   3  -3   9   47.90    8.90
   3  -3   9   34.20    9.60
   3  -3   9   46.20    8.40
   3  -3   9   57.89    8.60
   3  -3   9   64.09   11.10
   4  -3   9  131.39   16.00
   4  -3   9  116.89   15.60
   4  -3   9  132.69   14.00
   4  -3   9  122.49   14.30
   4  -3   9  118.09   11.80
  -5   3  -9   13.50   10.10
   5  -3   9    5.60    8.90
   5  -3   9   12.00    7.00
   5  -3   9    0.50    7.30
  -6   3  -9    6.10   12.30
   6  -3   9  -12.50    9.80
   6  -3   9   -1.50    7.90
   6  -3   9   26.20   16.60
   8   2  -9   31.90    6.60
   8   2  -9   12.60   14.40
  -8  -2   9   26.10   10.50
  -8  -2   9    7.60   10.60
   7   2  -9   11.20    9.20
   7   2  -9    6.20    3.60
  -7  -2   9    3.80    7.90
  -7  -2   9   17.60    9.00
  -7  -2   9    8.30   10.80
   6   2  -9  538.65   24.90
  -6  -2   9  532.45   26.30
  -6  -2   9  569.04   27.40
  -6  -2   9  582.24   26.60
   5   2  -9  676.93   26.40
  -5  -2   9  708.13   28.00
  -5  -2   9  706.83   28.20
   4   2  -9  276.37   16.10
  -4  -2   9  303.47   17.50
  -4  -2   9  315.87   17.40
  -4  -2   9  288.67   17.90
   3   2  -9  171.78   12.40
   3   2  -9  178.98   13.50
  -3  -2   9  190.98   13.80
  -3  -2   9  176.78   13.20
  -3  -2   9  156.68   13.10
   2   2  -9  350.56   21.60
   2   2  -9  336.37   16.70
   2   2  -9  327.77   17.50
   2   2  -9  357.26   10.20
  -2  -2   9  335.57   17.30
  -2  -2   9  369.86   17.70
  -2  -2   9  324.37    9.90
  -2  -2   9  358.56   17.90
   1   2  -9  529.75   21.30
   1   2  -9  492.05   21.00
   1   2  -9  505.55   20.70
  -1  -2   9  530.45   20.80
  -1  -2   9  539.85   22.30
   0   2  -9   46.40    7.70
   0   2  -9   59.89    7.30
   0   2  -9   42.30    7.50
   0   2  -9   55.69    9.50
   0  -2   9   41.40    6.00
   0  -2   9   56.69    9.60
   0  -2   9   44.30    7.70
  -1   2  -9  102.49   10.10
  -1   2  -9  101.09   11.60
   1  -2   9  109.59    9.40
   1  -2   9  114.69   12.40
   1  -2   9   94.89    9.90
   1  -2   9  120.69   12.20
  -2   2  -9  646.44   26.80
  -2   2  -9  635.84   26.70
   2  -2   9  669.83   23.80
   2  -2   9  646.04   27.80
   2  -2   9  662.83   23.20
   2  -2   9  676.23   27.00
   2  -2   9  674.13   24.10
  -3   2  -9   15.50    7.80
   3  -2   9    1.10    7.10
   3  -2   9    2.50    7.50
   3  -2   9    9.40    6.30
   3  -2   9    9.60    7.90
   3  -2   9   11.80    5.50
  -4   2  -9  425.16   24.80
   4  -2   9  450.25   18.90
   4  -2   9  428.76   26.90
   4  -2   9  409.06   28.50
   4  -2   9  465.65   25.60
   4  -2   9  453.45   23.10
  -5   2  -9  855.51   37.30
   5  -2   9  892.11   28.00
   5  -2   9  884.11   34.80
   5  -2   9  845.02   37.20
   5  -2   9  886.91   30.50
  -6   2  -9   54.79   16.20
   6  -2   9   74.89   10.40
   6  -2   9  101.49   15.30
   6  -2   9   46.50   15.30
   8   1  -9  432.26   28.60
   8   1  -9  407.46   16.50
  -8  -1   9  367.26   26.00
  -8  -1   9  402.16   26.10
   7   1  -9  339.57   22.70
   7   1  -9  329.07   16.90
  -7  -1   9  316.47   21.70
  -7  -1   9  355.66   22.80
  -7  -1   9  336.47   24.70
   6   1  -9   48.10    5.30
   6   1  -9   60.49    5.50
   6   1  -9   51.29   10.30
  -6  -1   9   45.30   11.20
  -6  -1   9   40.30   10.00
  -6  -1   9   68.19   11.20
   5   1  -9   37.70    8.80
   5   1  -9   39.60    4.00
   5   1  -9   32.90    3.90
  -5  -1   9   41.30    9.50
  -5  -1   9   36.80    8.50
  -5  -1   9   36.30   12.10
   4   1  -9   51.09    9.10
   4   1  -9   49.50    3.90
   4   1  -9   49.50    8.70
   4   1  -9   45.60    3.80
  -4  -1   9   61.39   10.00
  -4  -1   9   44.00    9.20
  -4  -1   9   44.40    8.80
   3   1  -9  229.18   24.20
   3   1  -9  226.28    8.10
   3   1  -9  228.08    8.10
   3   1  -9  234.68   14.60
  -3  -1   9  222.38   14.90
  -3  -1   9  195.18   13.80
   2   1  -9 1506.75   41.00
   2   1  -9 1483.75   40.60
   2   1  -9 1484.25   40.90
  -2  -1   9 1473.65   32.50
  -2  -1   9 1573.64   46.90
  -2  -1   9 1459.45   40.30
  -2  -1   9 1496.15   41.00
   1   1  -9  793.32   27.70
   1   1  -9  784.22   21.40
   1   1  -9  759.62   26.50
   1   1  -9  735.73   26.50
  -1  -1   9  704.33   26.00
  -1  -1   9  726.63   25.10
  -1  -1   9  738.53   27.10
   0   1  -9   56.09    9.30
   0   1  -9   54.39   12.70
   0   1  -9   57.69    8.30
   0   1  -9   45.60    6.70
   0  -1   9   37.20    6.00
   0  -1   9   46.70    8.80
   0  -1   9   38.90    7.80
   0  -1   9   30.80    6.50
  -1   1  -9  935.01   32.00
  -1   1  -9  919.71   28.50
   1  -1   9  924.41   27.70
   1  -1   9  917.11   31.50
   1  -1   9  964.10   33.00
   1  -1   9  946.71   28.20
  -2   1  -9  766.92   30.00
  -2   1  -9  807.82   32.50
   2  -1   9  795.62   25.30
   2  -1   9  795.02   24.80
   2  -1   9  779.62   27.10
   2  -1   9  800.32   30.30
   2  -1   9  775.32   30.90
  -3   1  -9   56.89   10.50
  -3   1  -9   49.90   11.40
   3  -1   9   61.19   10.80
   3  -1   9   54.59    8.50
   3  -1   9   49.10   10.70
   3  -1   9   52.89    7.60
   3  -1   9   44.20    9.80
  -4   1  -9   14.30    9.20
   4  -1   9   -9.10    7.80
   4  -1   9    3.30    6.80
   4  -1   9    3.20    7.00
   4  -1   9   15.40    5.70
  -5   1  -9    6.40    8.90
   5  -1   9   17.80    8.70
   5  -1   9   23.30   12.10
   5  -1   9   13.40    6.30
  -6   1  -9   31.70   15.60
   6  -1   9   35.80   11.60
   6  -1   9   17.60   16.20
   8   0  -9   34.30    7.50
   8   0  -9   47.50   16.70
  -8   0   9   40.10   12.40
  -8   0   9   35.00   12.20
   7   0  -9   12.30    8.50
  -7   0   9   13.50    8.60
  -7   0   9   15.70   11.20
   6   0  -9  192.88    9.70
   6   0  -9  196.28   16.70
   6   0  -9  185.58    9.80
  -6   0   9  189.38   16.50
  -6   0   9  204.68   16.90
   5   0  -9 1622.04   45.80
   5   0  -9 1600.74   33.70
   5   0  -9 1546.05   44.40
  -5   0   9 1493.55   51.99
  -5   0   9 1497.15   45.00
  -5   0   9 1483.55   44.30
   4   0  -9  721.93   36.70
   4   0  -9  787.72   20.00
   4   0  -9  821.82   32.40
  -4   0   9  809.02   29.40
  -4   0   9  802.82   28.90
  -4   0   9  760.42   29.00
   3   0  -9    5.40    5.40
   3   0  -9   -1.20    4.60
  -3   0   9   -4.20    5.20
  -3   0   9    3.20    4.60
  -3   0   9    7.00    5.10
   2   0  -9  928.41   29.70
   2   0  -9  936.61   24.20
   2   0  -9  972.30   31.30
   2   0  -9  936.61   30.80
  -2   0   9  912.01   26.60
  -2   0   9  940.21   35.50
  -2   0   9  906.21   30.90
  -2   0   9  920.71   29.50
   1   0  -9  308.97   17.20
   1   0  -9  279.47   16.30
   1   0  -9  259.97   17.10
   1   0  -9  272.87   12.80
  -1   0   9  250.77   14.20
  -1   0   9  257.37   12.40
  -1   0   9  269.77   16.20
  -1   0   9  283.97   17.20
   0   0  -9   47.70    9.90
   0   0  -9   40.70    7.20
   0   0  -9   47.60    7.40
   0   0  -9   36.20    8.20
   0   0   9   37.50    6.60
   0   0   9   30.80    6.30
   0   0   9   50.29    9.50
  -1   0  -9  537.05   24.20
  -1   0  -9  570.04   24.00
   1   0   9  582.64   25.30
   1   0   9  487.35   20.60
   1   0   9  538.55   19.40
   1   0   9  524.85   27.60
  -2   0  -9  142.99   15.00
  -2   0  -9  103.39   13.60
   2   0   9  162.38   16.70
   2   0   9  143.49   13.10
   2   0   9  140.29   10.70
   2   0   9  134.99   10.00
  -3   0  -9  297.37   27.10
  -3   0  -9  256.57   19.70
   3   0   9  244.98   13.30
   3   0   9  216.48   16.50
   3   0   9  216.68   19.00
   3   0   9  254.47   16.10
  -4   0  -9  615.64   30.50
  -4   0  -9  652.93   34.80
   4   0   9  574.74   18.40
   4   0   9  571.74   30.00
   4   0   9  553.94   19.20
   4   0   9  576.74   27.50
  -5   0  -9  608.24   33.50
   5   0   9  696.13   41.00
   5   0   9  659.63   35.00
   9  -1  -9  204.48   27.50
   9  -1  -9  167.98   16.90
  -9   1   9  136.89   19.10
  -9   1   9  162.18   21.70
   8  -1  -9 1016.10   40.90
   8  -1  -9 1019.40   37.10
   8  -1  -9  972.00   29.50
  -8   1   9  996.40   40.40
  -8   1   9  999.20   40.00
   7  -1  -9  225.78   12.70
   7  -1  -9  214.28   12.90
   7  -1  -9  231.98   19.50
  -7   1   9  222.18   22.00
  -7   1   9  186.78   18.70
  -7   1   9  204.08   19.40
   6  -1  -9   15.20    5.00
   6  -1  -9   24.50    9.00
   6  -1  -9   22.30    5.30
  -6   1   9   32.00    9.70
  -6   1   9   22.30    9.00
   5  -1  -9   93.29   14.00
   5  -1  -9   64.69    7.40
   5  -1  -9   70.99   11.40
   5  -1  -9   65.59    7.30
  -5   1   9   79.39   12.40
  -5   1   9   91.89   11.90
   4  -1  -9   42.00    8.80
   4  -1  -9   41.50    6.60
   4  -1  -9   38.80    5.60
  -4   1   9   43.10    9.00
  -4   1   9   38.20    8.90
  -4   1   9   39.10    8.10
   3  -1  -9   22.20    7.30
   3  -1  -9   15.60    4.60
  -3   1   9   27.00    8.40
  -3   1   9   22.60    8.40
  -3   1   9   15.30    6.80
  -3   1   9   26.10    7.60
   2  -1  -9 1198.68   31.00
   2  -1  -9 1194.58   36.90
   2  -1  -9 1164.48   34.60
   2  -1  -9 1246.28   37.10
  -2   1   9 1219.18   36.60
  -2   1   9 1231.98   31.40
  -2   1   9 1155.38   34.50
  -2   1   9 1282.37   38.20
   1  -1  -9  945.41   27.40
   1  -1  -9  898.21   31.30
   1  -1  -9  926.91   28.50
   1  -1  -9  880.91   30.90
  -1   1   9  963.50   32.30
  -1   1   9  909.31   27.10
  -1   1   9  905.81   28.20
  -1   1   9  975.40   31.80
   0  -1  -9  231.98   13.30
   0  -1  -9  231.48   16.50
   0  -1  -9  245.38   14.70
   0  -1  -9  231.88   16.20
   0   1   9  211.68   13.20
   0   1   9  231.38   13.00
   0   1   9  241.88   16.00
  -1  -1  -9  727.63   29.00
  -1  -1  -9  731.03   23.00
   1   1   9  748.63   28.90
   1   1   9  740.03   22.80
   1   1   9  760.62   26.90
   1   1   9  758.12   30.30
  -2  -1  -9  635.84   28.40
  -2  -1  -9  606.44   28.20
   2   1   9  641.44   27.80
   2   1   9  632.94   25.90
   2   1   9  592.04   19.70
  -3  -1  -9   63.99   12.40
  -3  -1  -9   83.19   13.70
   3   1   9   65.99   10.80
   3   1   9   64.79   12.40
  -4  -1  -9   37.20   15.20
  -4  -1  -9   32.30   11.70
   4   1   9   29.00   15.40
   4   1   9   52.19   10.90
  -5  -1  -9   57.89   16.00
   5   1   9   81.69   18.80
   5   1   9   90.19   14.80
   9  -2  -9   92.99   19.30
   9  -2  -9  101.19   13.20
  -9   2   9   87.39   17.40
  -9   2   9   81.89   16.70
   8  -2  -9   65.79    9.80
   8  -2  -9   71.39   14.90
  -8   2   9   65.89   14.10
  -8   2   9   35.50   11.00
   7  -2  -9  100.49   10.60
   7  -2  -9   93.09   11.00
   7  -2  -9   63.29   11.70
  -7   2   9   88.29   14.20
  -7   2   9  107.99   15.70
   6  -2  -9  349.07   21.30
   6  -2  -9  320.37   22.20
   6  -2  -9  304.57   14.60
   6  -2  -9  298.37   14.70
  -6   2   9  307.67   21.00
  -6   2   9  353.26   23.00
  -6   2   9  320.47   20.70
   5  -2  -9 1139.19   30.00
   5  -2  -9 1175.58   38.30
   5  -2  -9 1170.48   37.80
   5  -2  -9 1155.28   30.60
  -5   2   9 1108.69   37.30
  -5   2   9 1100.29   41.10
  -5   2   9 1130.09   38.40
   4  -2  -9  602.14   25.50
   4  -2  -9  602.24   19.80
   4  -2  -9  580.24   19.80
   4  -2  -9  582.94   25.00
  -4   2   9  589.84   27.80
  -4   2   9  572.24   24.40
  -4   2   9  602.24   25.80
   3  -2  -9  323.07   18.50
   3  -2  -9  315.77   14.50
   3  -2  -9  308.97   18.00
  -3   2   9  353.86   15.00
  -3   2   9  327.67   17.30
  -3   2   9  304.37   17.50
   2  -2  -9  332.07   15.50
   2  -2  -9  319.37   18.50
   2  -2  -9  330.47   18.80
   2  -2  -9  322.47   17.10
  -2   2   9  312.87   17.90
  -2   2   9  342.27   16.90
  -2   2   9  290.67   18.50
  -2   2   9  315.67   15.00
   1  -2  -9  182.98   12.50
   1  -2  -9  204.88   15.30
   1  -2  -9  188.68   13.30
   1  -2  -9  171.88   14.80
  -1   2   9  188.88   14.80
  -1   2   9  224.78   16.70
  -1   2   9  176.38   12.40
  -1   2   9  178.48   12.20
   0  -2  -9  137.69   14.00
   0  -2  -9  145.29   10.90
   0  -2  -9  140.29   14.40
   0   2   9  165.78   12.80
   0   2   9  143.29   13.80
   0   2   9  142.59   10.50
   0   2   9  206.38   26.50
  -1  -2  -9   79.59   11.70
   1   2   9   57.59   10.00
   1   2   9   86.39   11.10
   1   2   9   77.59    9.60
  -2  -2  -9 1035.60   37.60
  -2  -2  -9  934.51   37.10
   2   2   9  982.70   26.30
   2   2   9  976.80   34.60
   2   2   9 1021.20   36.80
  -3  -2  -9   97.09   17.00
  -3  -2  -9   79.89   13.80
   3   2   9   92.89   14.10
   3   2   9   86.29   13.30
  -4  -2  -9   98.99   16.00
   4   2   9  117.79   15.90
   4   2   9  114.99   22.20
   9  -3  -9  201.28   24.40
   9  -3  -9  157.68   17.00
  -9   3   9  143.79   19.50
  -9   3   9  167.58   23.60
   8  -3  -9  169.88   20.70
   8  -3  -9  187.88   15.20
  -8   3   9  163.18   19.20
  -8   3   9  171.68   21.60
   7  -3  -9  693.23   31.90
   7  -3  -9  661.23   24.50
  -7   3   9  672.23   31.10
  -7   3   9  685.03   31.90
   6  -3  -9   46.70    9.60
   6  -3  -9   50.09    8.40
   6  -3  -9   55.49    8.30
   6  -3  -9   77.79   19.70
  -6   3   9   43.90   10.90
  -6   3   9   48.60   10.60
   5  -3  -9   36.70    7.10
   5  -3  -9   37.90    9.20
   5  -3  -9   66.39   11.00
   5  -3  -9   33.10    6.50
  -5   3   9   46.20   10.10
  -5   3   9   38.50    9.30
   4  -3  -9   23.30    8.90
   4  -3  -9   19.40    5.90
   4  -3  -9   19.00    7.10
   4  -3  -9   21.90    6.30
  -4   3   9   11.90    7.30
  -4   3   9   15.10    7.00
   3  -3  -9  125.79   14.10
   3  -3  -9  128.59   11.40
   3  -3  -9  113.09   12.70
  -3   3   9  152.68   20.30
  -3   3   9  137.29   13.40
  -3   3   9  129.89   12.40
  -3   3   9  129.39   10.70
   2  -3  -9  791.32   27.10
   2  -3  -9  733.43   26.10
   2  -3  -9  785.32   29.70
   2  -3  -9  806.42   30.00
  -2   3   9  817.42   29.40
  -2   3   9  812.12   26.50
  -2   3   9  847.62   27.30
   1  -3  -9 1622.14   46.40
   1  -3  -9 1622.04   46.50
   1  -3  -9 1595.74   40.60
  -1   3   9 1581.64   45.20
  -1   3   9 1568.64   40.20
  -1   3   9 1597.54   42.90
   0  -3  -9  169.38   15.40
   0  -3  -9  143.29   10.90
   0  -3  -9  185.18   16.60
   0   3   9  160.98   13.70
   0   3   9  159.38   14.70
   0   3   9  148.69   10.60
  -1  -3  -9  292.07   19.80
   1   3   9  322.47   20.00
   1   3   9  237.98   17.40
   1   3   9  306.07   12.60
  -2  -3  -9  496.25   28.50
  -2  -3  -9  564.54   27.70
   2   3   9  482.65   25.00
   2   3   9  470.85   25.60
  -3  -3  -9   30.90    9.60
   3   3   9   42.40   11.80
   3   3   9   43.40   13.50
  -4  -3  -9   39.90   12.80
   4   3   9   42.90   12.40
   9  -4  -9  181.58   22.70
   9  -4  -9  206.28   18.60
  -9   4   9  212.98   26.20
  -9   4   9  185.08   23.20
   8  -4  -9   94.29   12.60
  -8   4   9  113.79   16.30
  -8   4   9  101.69   16.80
   7  -4  -9  218.18   23.60
   7  -4  -9  245.28   16.20
   7  -4  -9  253.97   20.80
  -7   4   9  263.27   21.00
  -7   4   9  246.68   21.90
   6  -4  -9  162.38   19.20
   6  -4  -9  173.68   17.30
   6  -4  -9  150.18   13.20
  -6   4   9  170.78   16.60
  -6   4   9  195.78   18.40
   5  -4  -9  858.11   33.30
   5  -4  -9  832.92   28.20
   5  -4  -9  826.02   32.40
  -5   4   9  825.22   32.10
  -5   4   9  889.21   32.70
   4  -4  -9 1363.16   42.80
   4  -4  -9 1360.76   38.60
   4  -4  -9 1396.76   43.30
  -4   4   9 1399.56   42.00
  -4   4   9 1442.06   42.80
   3  -4  -9    3.60    6.40
   3  -4  -9    2.70    6.80
  -3   4   9    8.60    5.90
  -3   4   9   -2.20    4.90
  -3   4   9    3.90    6.10
   2  -4  -9   48.40    8.90
   2  -4  -9   38.10    9.30
   2  -4  -9   71.49   11.20
  -2   4   9   47.00    8.90
  -2   4   9   36.40    9.10
  -2   4   9   53.39    9.00
   1  -4  -9   -2.40    5.40
   1  -4  -9   -3.60    6.80
   1  -4  -9   16.30    7.10
  -1   4   9   -0.30    5.10
  -1   4   9    4.50    6.50
  -1   4   9    4.80    5.10
   0  -4  -9   48.90    9.70
   0  -4  -9   34.30   10.00
   0  -4  -9   24.70    6.10
   0   4   9   30.30    8.80
   0   4   9   32.10    6.40
   0   4   9   36.00    9.00
  -1  -4  -9  313.87   21.00
   1   4   9  258.07   19.80
   1   4   9  328.07   20.60
   1   4   9  301.17   11.20
  -2  -4  -9  665.23   31.50
  -2  -4  -9  672.43   34.00
   2   4   9  650.93   30.20
   2   4   9  713.93   31.80
  -3  -4  -9  147.29   20.10
   3   4   9  166.18   20.80
   8  -5  -9  411.06   23.20
   8  -5  -9  444.86   29.00
  -8   5   9  372.66   28.80
  -8   5   9  415.46   29.80
   7  -5  -9  307.77   23.10
   7  -5  -9  314.57   19.20
  -7   5   9  281.77   23.20
  -7   5   9  268.67   21.60
   6  -5  -9   73.99   11.50
   6  -5  -9   71.89   14.10
  -6   5   9   72.99   12.60
  -6   5   9   71.09   13.00
   5  -5  -9  120.59   14.60
   5  -5  -9  113.89   15.60
   5  -5  -9  106.69   12.70
  -5   5   9  132.19   15.10
  -5   5   9  112.19   14.30
   4  -5  -9   20.40   10.40
   4  -5  -9   14.90    6.90
  -4   5   9   17.50    8.30
   3  -5  -9   30.60    9.50
   3  -5  -9   31.90    8.50
  -3   5   9   18.10    6.80
  -3   5   9   45.20    9.70
  -3   5   9   24.30    7.60
   2  -5  -9  817.22   39.00
   2  -5  -9  871.31   29.10
   2  -5  -9  867.31   33.20
  -2   5   9  820.92   30.50
  -2   5   9  871.01   31.80
  -2   5   9  902.51   28.90
   1  -5  -9  914.51   27.90
   1  -5  -9  856.01   33.50
   1  -5  -9  875.71   34.00
  -1   5   9  894.61   32.50
  -1   5   9  890.81   27.40
  -1   5   9  956.00   46.10
   0  -5  -9  337.17   22.80
   0  -5  -9  356.96   14.90
   0  -5  -9  312.87   21.10
   0   5   9  379.76   22.50
   0   5   9  352.56   20.30
   0   5   9  303.67   20.10
  -1  -5  -9   46.10   11.40
  -1  -5  -9   86.89   15.70
   1   5   9   72.99   13.40
   1   5   9   63.19   12.40
  -2  -5  -9  159.78   19.30
   2   5   9  165.88   20.00
   8  -6  -9  205.28   23.40
   8  -6  -9  230.58   20.00
  -8   6   9  268.87   23.60
  -8   6   9  203.78   24.80
   7  -6  -9  166.18   19.50
   7  -6  -9  145.89   16.40
  -7   6   9  187.58   19.90
  -7   6   9  190.58   22.30
   6  -6  -9   13.20    8.30
   6  -6  -9   22.00   11.30
   6  -6  -9   16.80    8.10
  -6   6   9   15.20   10.50
  -6   6   9   11.70   10.00
   5  -6  -9  476.25   23.40
   5  -6  -9  449.86   24.70
   5  -6  -9  478.15   27.60
  -5   6   9  484.25   24.90
  -5   6   9  484.05   25.50
   4  -6  -9  687.93   30.40
   4  -6  -9  684.23   29.70
  -4   6   9  681.13   32.90
  -4   6   9  688.13   28.40
   3  -6  -9  687.53   30.50
   3  -6  -9  688.73   29.50
  -3   6   9  715.93   28.80
  -3   6   9  647.94   26.30
  -3   6   9  626.64   27.30
   2  -6  -9   99.19   13.80
   2  -6  -9  106.19   14.30
   2  -6  -9   89.09   14.00
  -2   6   9   91.19   12.70
  -2   6   9   98.89   13.10
  -2   6   9  104.09   11.80
   1  -6  -9   14.00    8.20
   1  -6  -9    0.20    8.50
   1  -6  -9   -6.00    6.30
  -1   6   9    6.60    6.80
  -1   6   9    3.30    8.80
  -1   6   9   -0.40    5.50
   0  -6  -9    7.60    5.30
   0  -6  -9   13.80    8.40
   0  -6  -9    7.30    9.90
   0   6   9    2.10    7.40
   0   6   9    6.30    5.10
   0   6   9   21.10   11.00
  -1  -6  -9  171.38   19.30
   1   6   9  163.68   19.30
  -2  -6  -9  521.05   33.50
   2   6   9  581.74   31.50
   8  -7  -9  131.89   17.10
   8  -7  -9  185.18   22.30
  -8   7   9  157.48   21.50
   7  -7  -9  327.67   25.00
   7  -7  -9  344.97   23.20
  -7   7   9  331.27   32.50
   6  -7  -9  107.99   15.20
   6  -7  -9  112.39   14.40
  -6   7   9  111.09   18.90
  -6   7   9   90.49   14.50
   5  -7  -9   35.30   12.90
   5  -7  -9   57.19   11.40
   5  -7  -9   64.49   11.60
  -5   7   9   45.30   12.40
  -5   7   9   37.30   10.60
   4  -7  -9  207.28   18.30
   4  -7  -9  225.08   20.40
  -4   7   9  193.28   19.20
  -4   7   9  188.18   17.20
   3  -7  -9   20.90   10.60
   3  -7  -9   33.80    9.60
  -3   7   9   32.00   10.80
  -3   7   9   38.30    9.60
  -3   7   9   11.00    8.30
   2  -7  -9  444.86   26.20
   2  -7  -9  397.86   23.50
  -2   7   9  409.76   24.30
  -2   7   9  408.66   24.20
  -2   7   9  413.56   20.30
   1  -7  -9  490.15   31.00
   1  -7  -9  503.85   27.00
  -1   7   9  518.55   20.40
  -1   7   9  615.14   29.20
   0  -7  -9  456.75   26.80
  -1  -7  -9   27.60   11.40
   1   7   9    7.60    8.70
   7  -8  -9  417.76   28.30
   7  -8  -9  445.86   27.50
  -7   8   9  494.65   30.10
   6  -8  -9    9.70    9.30
   6  -8  -9    1.20    9.50
  -6   8   9    9.90    9.80
   5  -8  -9  243.38   20.70
   5  -8  -9  229.98   20.30
  -5   8   9  219.28   19.70
   4  -8  -9  459.35   26.10
   4  -8  -9  446.36   26.30
  -4   8   9  509.95   26.30
   3  -8  -9   79.09   13.10
  -3   8   9   52.59   12.00
  -3   8   9   65.79   11.70
   2  -8  -9   34.30   10.70
  -2   8   9   47.90   11.60
  -2   8   9   33.10    9.80
   1  -8  -9   37.10   20.20
  -1   8   9   46.20    9.00
  -1   8   9   39.80   12.10
   5  -9  -9  147.09   18.90
   5  -9  -9  141.79   19.20
  -5   9   9  144.89   18.90
   4  -9  -9  301.37   23.00
   4  -9  -9  254.07   22.90
  -4   9   9  317.57   22.70
   3  -9  -9   51.49   11.80
  -3   9   9   71.49   12.20
  -3   9   9   85.69   15.70
   2  -9  -9   78.39   14.30
  -2   9   9  113.99   17.50
  -2   9   9   73.29   13.40
  -1 -12  10    5.90    6.00
  -1 -12  10    1.00    6.00
  -1 -12  10    4.00    4.90
   0 -12  10   10.10   11.80
   0 -12  10    0.50    6.10
   0 -12  10   -7.80    7.90
   1 -12  10  212.38   15.30
   1 -12  10  240.88   36.10
   1 -12  10  203.98   13.70
   2 -12  10   14.90    7.30
   2 -12  10    0.00    8.60
   2 -12  10   10.20    7.20
   2 -12  10    7.60    7.10
   3 -12  10    1.00    7.70
   3 -12  10    7.30    7.00
   3 -12  10    5.10   10.00
   3 -12  10   -1.00    7.50
   4 -12  10  328.07   26.30
   4 -12  10  350.56   21.00
   4 -12  10  295.87   21.90
  -3 -11  10  183.58   21.80
  -3 -11  10  171.58   16.10
  -3 -11  10  159.78   12.80
  -2 -11  10  214.18   21.60
  -2 -11  10  173.38   14.30
  -2 -11  10  163.28   14.10
  -1 -11  10   58.29    8.00
  -1 -11  10   46.30   12.00
  -1 -11  10   40.90    8.00
   0 -11  10  149.59   18.40
   0 -11  10  155.98   11.80
   0 -11  10  157.68   11.40
   0 -11  10  158.68   12.50
   1 -11  10  217.58   14.00
   1 -11  10  208.68   20.60
   1 -11  10  195.48   14.20
   1 -11  10  223.48   14.50
   2 -11  10   21.70    7.60
   2 -11  10   18.70    7.10
   2 -11  10   20.10    9.80
   2 -11  10    5.90    7.10
   3 -11  10   18.70    7.60
   3 -11  10   16.00    7.80
   3 -11  10    8.10    9.20
   4 -11  10    7.20    7.00
   4 -11  10    3.00    8.80
   4 -11  10    0.40   11.50
   4 -11  10   -1.20    8.00
   5 -11  10  194.08   23.00
   5 -11  10  266.57   21.20
   5 -11  10  251.47   20.30
  -4 -10  10    0.00    6.30
  -4 -10  10    6.40   11.30
  -4 -10  10   -0.20    9.10
  -3 -10  10  183.38   20.50
  -3 -10  10  134.99   14.90
  -2 -10  10   35.20   11.00
  -2 -10  10   18.80    6.40
  -2 -10  10   31.10    8.30
  -1 -10  10  126.39    8.60
  -1 -10  10   91.69   10.40
  -1 -10  10  107.09    9.50
  -1 -10  10  106.89   11.60
  -1 -10  10  115.19   16.10
   0 -10  10   72.29    9.40
   0 -10  10  107.29   11.60
   0 -10  10   85.09   13.20
   0 -10  10   89.69    8.80
   0 -10  10   81.89   10.60
   1 -10  10  121.69   12.00
   1 -10  10  119.29   13.40
   1 -10  10  156.68   13.10
   1 -10  10  154.28   11.60
   1 -10  10  123.79   16.70
   2 -10  10  482.95   20.90
   2 -10  10  474.05   21.40
   2 -10  10  490.55   27.10
   2 -10  10  512.35   22.50
   3 -10  10  135.29   15.20
   3 -10  10  130.79   13.90
   3 -10  10   85.89   12.10
   4 -10  10  297.87   23.00
   4 -10  10  335.37   22.00
   4 -10  10  284.27   19.40
   4 -10  10  268.97   19.40
   5 -10  10   82.59   13.30
   5 -10  10  101.89   14.00
   5 -10  10   69.79   15.20
  -4  -9  10   38.40   10.60
  -4  -9  10   16.80   10.90
  -3  -9  10  135.09   17.90
  -3  -9  10  128.29   12.10
  -3  -9  10  172.28   15.50
  -2  -9  10  714.83   27.50
  -2  -9  10  720.93   31.90
  -2  -9  10  648.94   23.90
  -1  -9  10  408.36   23.90
  -1  -9  10  385.86   12.10
  -1  -9  10  406.76   12.90
  -1  -9  10  373.86   20.90
  -1  -9  10  394.56   17.90
   0  -9  10  400.86   23.70
   0  -9  10  406.46   18.90
   0  -9  10  463.15   22.20
   0  -9  10  452.35   16.50
   0  -9  10  428.56   19.80
  -1   9 -10  231.78   11.60
   1  -9  10  246.58   17.90
   1  -9  10  239.08   13.10
   1  -9  10  228.48   14.70
   1  -9  10  233.08   18.90
   1  -9  10  220.28   14.10
  -2   9 -10   56.09   11.40
   2  -9  10   88.99   11.70
   2  -9  10   82.09   11.30
   2  -9  10   81.89   10.00
   2  -9  10   62.19   11.60
  -3   9 -10   83.69   11.60
   3  -9  10   62.69   11.20
   3  -9  10   73.39   10.90
   3  -9  10   82.19   12.30
   3  -9  10   69.69   12.50
  -4   9 -10   41.60   12.70
   4  -9  10   28.70   10.80
   4  -9  10   16.00    8.20
   4  -9  10   25.00   10.40
   4  -9  10   39.60    9.70
   5  -9  10  208.88   18.90
   5  -9  10  224.68   21.50
   5  -9  10  204.18   19.10
  -5  -8  10  427.26   28.50
  -5  -8  10  452.45   23.10
  -5  -8  10  450.45   27.20
  -4  -8  10   43.70    9.10
  -4  -8  10   51.39   12.10
  -3  -8  10  209.38   18.70
  -3  -8  10  209.08   14.50
   2   8 -10   -1.30    4.40
  -2  -8  10    9.40    7.30
  -2  -8  10    6.90    6.90
  -2  -8  10   -0.30    5.20
   1   8 -10    5.20    4.90
  -1  -8  10   11.90    5.70
  -1  -8  10   17.30    3.60
  -1  -8  10   15.40    3.10
  -1  -8  10   15.50    8.00
  -1  -8  10    8.30    6.20
   0   8 -10   10.00    5.10
   0  -8  10    2.40    4.30
   0  -8  10    7.80    5.30
   0  -8  10   10.20    7.40
   0  -8  10    8.80    6.30
   0  -8  10    9.80    5.80
  -1   8 -10  545.15   20.10
  -1   8 -10  529.55   19.40
   1  -8  10  524.45   18.90
   1  -8  10  567.14   26.60
   1  -8  10  531.15   22.50
   1  -8  10  527.55   22.10
  -2   8 -10  514.25   21.40
  -2   8 -10  453.35   21.10
   2  -8  10  499.55   22.80
   2  -8  10  533.55   23.00
   2  -8  10  472.15   24.80
   2  -8  10  491.65   19.90
   3  -8  10   -0.10    6.50
   3  -8  10    4.80    6.50
   3  -8  10    0.70    6.00
  -4   8 -10  383.76   24.10
   4  -8  10  371.16   23.10
   4  -8  10  345.37   20.40
   4  -8  10  373.66   22.20
   4  -8  10  350.26   23.30
   5  -8  10  221.18   20.50
   5  -8  10  239.38   19.90
   5  -8  10  264.37   20.90
   6  -8  10   -4.50   10.20
   6  -8  10    0.20    9.70
   6  -8  10    3.10    9.00
  -6  -7  10  -10.30    6.90
  -6  -7  10   -2.10    9.30
   5   7 -10  165.78   18.00
  -5  -7  10  165.08   15.90
  -5  -7  10  187.08   19.10
  -5  -7  10  223.18   19.10
   4   7 -10   13.40    7.00
  -4  -7  10   -3.60    6.60
  -4  -7  10   -4.60    8.10
  -4  -7  10    8.70    6.10
   3   7 -10  134.09   11.20
  -3  -7  10  145.49   15.80
  -3  -7  10  144.19   13.70
  -3  -7  10  130.99   12.50
   2   7 -10  805.92   23.80
  -2  -7  10  788.42   27.00
  -2  -7  10  859.41   28.90
  -2  -7  10  801.02   32.30
   1   7 -10  251.77   13.10
  -1  -7  10  246.58   14.70
  -1  -7  10  239.18   15.60
  -1  -7  10  253.57    8.00
  -1  -7  10  261.17    7.90
  -1  -7  10  237.78   17.80
   0   7 -10    4.80    5.30
   0  -7  10    5.80    5.30
   0  -7  10    4.40    3.80
   0  -7  10    7.00    5.80
   0  -7  10   -1.70    5.70
  -1   7 -10  265.57   14.20
   1  -7  10  281.77   18.40
   1  -7  10  277.27   16.20
   1  -7  10  256.27   13.10
   1  -7  10  256.07   16.30
  -2   7 -10   52.99    9.00
  -2   7 -10   44.80    8.70
   2  -7  10   69.19    9.00
   2  -7  10   49.20    9.20
   2  -7  10   45.70    9.20
   2  -7  10   43.70    9.80
  -3   7 -10   22.20    8.80
   3  -7  10   22.50    7.60
   3  -7  10   36.70    8.20
   3  -7  10   30.70    9.30
   3  -7  10   34.50    8.40
  -4   7 -10  105.69   14.50
   4  -7  10  111.69   14.90
   4  -7  10  115.29   14.80
   4  -7  10  115.59   14.20
  -5   7 -10  296.17   25.20
   5  -7  10  308.07   21.20
   5  -7  10  290.27   21.80
   5  -7  10  277.77   20.80
   6  -7  10  161.08   21.50
   6  -7  10  143.99   18.40
   6  -7  10  145.09   18.50
  -6  -6  10  136.49   17.90
  -6  -6  10  134.89   16.00
   5   6 -10  858.01   30.30
  -5  -6  10  881.61   32.20
  -5  -6  10  885.31   33.70
  -5  -6  10  908.11   36.30
   4   6 -10    2.10    6.50
  -4  -6  10   12.50    7.80
  -4  -6  10   -2.20    5.40
  -4  -6  10    1.90    6.30
   3   6 -10   71.09   10.70
  -3  -6  10   75.59   10.70
  -3  -6  10   72.69   12.10
  -3  -6  10   77.99   10.10
  -2  -6  10   55.49   11.50
  -2  -6  10   42.60    8.60
  -2  -6  10   52.99   13.60
   1   6 -10   85.09    9.60
  -1  -6  10  116.59   14.20
  -1  -6  10  108.49   11.20
  -1  -6  10   94.79   11.60
  -1  -6  10  120.19    5.50
  -1  -6  10  121.29    5.30
   0   6 -10   33.90    5.20
   0   6 -10   43.70    7.60
   0  -6  10   35.50    8.00
   0  -6  10   30.90    5.00
   0  -6  10   38.60    8.90
  -1   6 -10  784.82   24.20
  -1   6 -10  809.22   27.90
   1  -6  10  826.62   24.00
   1  -6  10  826.92   29.40
   1  -6  10  810.62   30.40
   1  -6  10  761.22   27.90
  -2   6 -10  892.61   30.70
  -2   6 -10  860.21   27.90
   2  -6  10  858.21   31.40
   2  -6  10  871.61   27.20
   2  -6  10  832.12   31.30
  -3   6 -10    9.60    8.10
   3  -6  10   -5.10    5.90
   3  -6  10  -11.80    7.30
   3  -6  10    6.30    5.80
   3  -6  10    8.00    6.90
  -4   6 -10  641.74   29.90
   4  -6  10  645.84   26.90
   4  -6  10  665.33   28.10
   4  -6  10  600.44   40.80
   4  -6  10  624.24   29.00
  -5   6 -10   18.90   11.50
   5  -6  10   28.20    9.70
   5  -6  10   19.30    9.80
   5  -6  10   36.30   10.30
   6  -6  10   23.40   11.80
   6  -6  10   14.50   10.20
   6  -6  10   13.80    9.80
  -7  -5  10   33.90   12.60
   6   5 -10    1.40   11.10
  -6  -5  10    7.20    8.80
  -6  -5  10    5.40   10.30
  -6  -5  10    8.10    8.00
   5   5 -10  299.57   18.80
  -5  -5  10  329.17   22.00
  -5  -5  10  293.37   18.70
  -5  -5  10  315.57   20.60
   4   5 -10  278.27   16.50
  -4  -5  10  284.27   19.80
  -4  -5  10  282.07   17.60
  -4  -5  10  289.67   18.20
   3   5 -10  220.88   13.90
  -3  -5  10  202.38   16.40
  -3  -5  10  171.28   16.60
  -3  -5  10  208.68   15.10
   2   5 -10 1327.87   36.20
  -2  -5  10 1348.37   39.10
  -2  -5  10 1358.56   38.50
  -2  -5  10 1336.67   41.20
   1   5 -10  907.81   28.20
   1   5 -10  863.21   19.70
  -1  -5  10  903.11   19.70
  -1  -5  10  893.81   30.00
  -1  -5  10  894.51   30.40
  -1  -5  10  881.01   31.50
   0   5 -10  137.79    9.00
   0   5 -10  139.89   12.50
   0  -5  10  120.09   13.20
   0  -5  10  133.49   13.00
   0  -5  10  119.99    8.30
   0  -5  10  142.39   12.30
  -1   5 -10   64.29    9.60
  -1   5 -10   68.69    8.90
   1  -5  10   67.39   10.00
   1  -5  10   68.99   10.90
   1  -5  10   60.59    7.50
   1  -5  10   65.89   10.50
  -2   5 -10   -1.30    6.50
  -2   5 -10    5.50    5.90
   2  -5  10   11.30    7.80
   2  -5  10    8.70    6.40
   2  -5  10    6.00    6.00
   2  -5  10    5.50    5.10
  -3   5 -10   11.70    8.00
   3  -5  10    5.00    7.00
   3  -5  10    4.00    5.70
   3  -5  10    4.30    8.00
   3  -5  10   15.90    7.10
  -4   5 -10  134.19   17.20
   4  -5  10  142.69   14.60
   4  -5  10  149.69   16.40
   4  -5  10  159.38   19.20
   4  -5  10  130.29   15.10
  -5   5 -10  536.55   31.00
   5  -5  10  513.75   25.50
   5  -5  10  610.24   30.70
   5  -5  10  517.35   26.90
  -6   5 -10   24.40   20.50
   6  -5  10   43.90   14.80
   6  -5  10   55.79   12.20
   6  -5  10   78.69   14.00
  -7  -4  10  114.29   16.10
  -7  -4  10   85.69   15.00
   6   4 -10  310.87   21.00
  -6  -4  10  295.27   21.80
  -6  -4  10  288.07   20.00
  -6  -4  10  241.08   22.50
   5   4 -10  472.35   22.70
  -5  -4  10  490.15   23.90
  -5  -4  10  497.85   24.90
  -5  -4  10  517.35   26.00
   4   4 -10  515.75   21.80
  -4  -4  10  492.15   23.20
  -4  -4  10  538.95   25.30
  -4  -4  10  464.75   24.00
   3   4 -10  113.79   11.40
  -3  -4  10   90.89   12.20
  -3  -4  10  119.69   12.60
  -3  -4  10  111.59   11.90
   2   4 -10    2.30    5.10
  -2  -4  10    0.80    5.50
  -2  -4  10    0.50    5.60
  -2  -4  10   -5.10    4.20
   1   4 -10  422.96   19.30
   1   4 -10  458.95   12.80
  -1  -4  10  385.86   20.20
  -1  -4  10  419.86   20.70
  -1  -4  10  426.16   12.50
  -1  -4  10  429.06   20.00
   0   4 -10   22.40    6.60
   0   4 -10   13.50    4.50
   0  -4  10   23.40    7.40
   0  -4  10   10.10    5.80
   0  -4  10   34.00    8.20
   0  -4  10   20.40    4.80
  -1   4 -10  189.28   12.20
  -1   4 -10  175.38   14.60
   1  -4  10  207.68   14.70
   1  -4  10  225.38   12.30
   1  -4  10  177.08   15.50
   1  -4  10  215.68   15.30
  -2   4 -10 2010.80   53.69
   2  -4  10 1993.40   53.69
   2  -4  10 1951.60   48.40
   2  -4  10 2007.20   51.49
   3  -4  10   65.49   10.90
   3  -4  10   67.39   10.50
   3  -4  10   80.89   11.10
   3  -4  10   70.59   13.90
  -4   4 -10  111.19   17.10
   4  -4  10  122.39   14.70
   4  -4  10   92.19   15.20
   4  -4  10  112.19   13.10
   4  -4  10  135.69   17.20
  -5   4 -10  322.17   26.50
   5  -4  10  278.07   23.60
   5  -4  10  267.97   27.70
   5  -4  10  249.58   20.00
  -6   4 -10   10.80   14.90
   6  -4  10  -14.20    8.40
   6  -4  10   -2.60    9.60
   6  -4  10    3.70   12.60
  -8  -3  10   32.30   12.40
   7   3 -10   10.00   19.60
  -7  -3  10   37.00   11.50
  -7  -3  10   35.70   11.20
   6   3 -10   15.10    8.80
  -6  -3  10   17.10   10.30
  -6  -3  10   23.30    9.20
  -6  -3  10   36.30   11.40
   5   3 -10  468.05   22.60
  -5  -3  10  537.35   25.70
  -5  -3  10  446.26   24.00
   4   3 -10  477.05   21.50
  -4  -3  10  465.35   24.90
  -4  -3  10  483.85   22.60
  -4  -3  10  452.55   22.60
   3   3 -10    5.40    5.20
  -3  -3  10   -1.10    5.40
  -3  -3  10   -1.60    5.00
  -3  -3  10    3.40    5.00
   2   3 -10 1043.40   32.50
  -2  -3  10 1083.09   34.30
  -2  -3  10 1009.90   32.90
  -2  -3  10 1058.89   34.20
   1   3 -10 2406.06   63.49
   1   3 -10 2299.27   56.59
  -1  -3  10 2312.27   54.09
  -1  -3  10 2268.17   56.79
  -1  -3  10 2207.78   56.39
  -1  -3  10 2279.67   57.29
   0   3 -10   -7.40    3.90
   0   3 -10    3.10    5.40
   0   3 -10    2.20    7.10
   0  -3  10   -1.70    3.40
   0  -3  10   11.40    7.00
   0  -3  10   -1.60    4.80
   0  -3  10    5.40    5.30
  -1   3 -10  125.29   13.10
   1  -3  10   97.49    9.40
   1  -3  10  113.39   12.80
   1  -3  10  126.09   14.40
   1  -3  10  113.49   11.70
  -2   3 -10   14.30    7.50
   2  -3  10    4.30    8.10
   2  -3  10   11.40    6.50
   2  -3  10   10.90    5.90
   2  -3  10    9.30    5.80
  -3   3 -10  129.49   16.10
   3  -3  10   82.29   11.00
   3  -3  10  100.39   14.70
   3  -3  10  101.39   11.80
   3  -3  10  100.69   14.00
  -4   3 -10  221.48   20.30
   4  -3  10  212.68   15.20
   4  -3  10  238.18   18.20
   4  -3  10  247.48   23.80
   4  -3  10  219.98   20.00
  -5   3 -10  396.76   28.40
   5  -3  10  449.95   21.60
   5  -3  10  438.36   28.80
   5  -3  10  457.25   25.80
  -8  -2  10  640.74   34.90
  -8  -2  10  673.13   34.10
   7   2 -10  214.58   20.90
  -7  -2  10  217.78   19.80
  -7  -2  10  260.27   25.90
  -7  -2  10  256.27   21.50
   6   2 -10   24.80    9.40
  -6  -2  10    8.90    8.40
  -6  -2  10   25.20    8.80
  -6  -2  10   44.40   11.80
   5   2 -10 1006.40   34.30
  -5  -2  10  988.80   36.60
  -5  -2  10 1002.70   36.40
  -5  -2  10 1006.30   35.20
   4   2 -10  107.19   12.30
  -4  -2  10  107.49   19.50
  -4  -2  10  105.99   12.70
  -4  -2  10  124.09   14.30
   3   2 -10  124.69   12.10
  -3  -2  10  114.49   12.90
  -3  -2  10  105.89   12.40
  -3  -2  10   95.39   11.60
   2   2 -10   71.09   10.00
   2   2 -10   74.49   10.10
   2   2 -10   67.99    5.70
  -2  -2  10   73.59   10.90
  -2  -2  10   73.29    5.70
  -2  -2  10   47.40    8.40
  -2  -2  10   48.90    8.20
   1   2 -10  306.37   17.70
   1   2 -10  289.37   17.50
   1   2 -10  301.17   12.40
  -1  -2  10  312.87   17.00
  -1  -2  10  320.47   13.30
  -1  -2  10  258.27   25.10
  -1  -2  10  292.47   17.10
   0   2 -10  187.08   13.90
   0   2 -10  177.18   11.30
   0   2 -10  186.18   14.90
   0   2 -10  148.19   13.90
   0  -2  10  162.98   15.90
   0  -2  10  187.78   11.10
   0  -2  10  187.28   14.50
   0  -2  10  184.38   13.30
  -1   2 -10 1349.07   36.90
  -1   2 -10 1339.97   40.90
   1  -2  10 1365.66   38.20
   1  -2  10 1382.76   41.60
   1  -2  10 1357.36   36.40
  -2   2 -10 1048.50   41.60
   2  -2  10 1003.60   37.20
   2  -2  10 1083.79   37.00
   2  -2  10 1027.20   32.10
   2  -2  10  968.50   31.60
   2  -2  10 1019.10   31.20
  -3   2 -10  195.78   18.30
   3  -2  10  215.68   16.00
   3  -2  10  210.58   18.50
   3  -2  10  206.38   16.00
   3  -2  10  219.38   14.20
   3  -2  10  196.88   20.40
  -4   2 -10   60.19   12.80
   4  -2  10   69.89   11.80
   4  -2  10   78.79   10.60
   4  -2  10   43.00   11.60
   4  -2  10   66.09   11.90
  -5   2 -10   41.40   14.40
   5  -2  10   71.69   15.30
   5  -2  10   58.69   13.00
   5  -2  10   56.79   10.20
   8   1 -10  108.09   14.00
  -8  -1  10  130.59   17.90
  -8  -1  10  135.39   19.00
   7   1 -10    3.70    9.10
  -7  -1  10    7.00    8.50
  -7  -1  10   24.30   11.50
   6   1 -10   42.10    9.90
  -6  -1  10   38.20   11.50
  -6  -1  10   51.09   11.00
  -6  -1  10   43.80   11.10
   5   1 -10  997.10   34.70
  -5  -1  10  991.00   35.70
  -5  -1  10  986.30   35.70
  -5  -1  10  938.61   34.50
   4   1 -10  512.55   12.70
   4   1 -10  517.75   12.80
   4   1 -10  557.14   24.10
  -4  -1  10  488.65   24.00
  -4  -1  10  538.65   23.90
  -4  -1  10  473.95   24.00
   3   1 -10   11.60    7.10
   3   1 -10    1.00    2.50
   3   1 -10    0.30    5.30
   3   1 -10    4.30    2.80
  -3  -1  10   -5.10    4.80
  -3  -1  10   -1.00    5.30
  -3  -1  10   11.30    7.10
   2   1 -10 1438.76   41.90
   2   1 -10 1493.95   42.40
   2   1 -10 1497.65   33.40
  -2  -1  10 1483.05   33.50
  -2  -1  10 1452.55   42.30
  -2  -1  10 1469.85   42.80
  -2  -1  10 1411.66   40.90
   1   1 -10  651.03   25.00
   1   1 -10  658.43   20.70
  -1  -1  10  605.74   25.30
  -1  -1  10  686.13   27.60
  -1  -1  10  687.43   20.80
  -1  -1  10  678.13   25.00
   0   1 -10   78.19   11.60
   0   1 -10   62.29    9.30
   0   1 -10   75.09    9.60
   0  -1  10   76.49   11.80
   0  -1  10   79.49    9.90
   0  -1  10   78.09    8.80
   0  -1  10   79.59   11.50
   1  -1  10   20.10    9.10
   1  -1  10   -0.20    4.50
   1  -1  10    4.50    6.20
   1  -1  10    8.60    5.30
  -2   1 -10   80.79   12.90
  -2   1 -10   59.39   12.30
   2  -1  10   43.20   11.60
   2  -1  10   45.90    9.90
   2  -1  10   61.29    8.60
   2  -1  10   62.89    9.90
  -3   1 -10  124.69   16.50
   3  -1  10  107.69   13.20
   3  -1  10  116.29   13.70
   3  -1  10   90.19   10.40
   3  -1  10  115.59   15.70
  -4   1 -10  105.69   16.40
   4  -1  10   91.69   13.00
   4  -1  10  113.29   11.30
   4  -1  10  112.89   14.70
   4  -1  10   83.39   14.90
  -5   1 -10  531.65   33.50
   5  -1  10  544.25   34.00
   5  -1  10  575.44   29.80
   5  -1  10  593.94   20.70
   8   0 -10  674.73   35.50
   8   0 -10  658.23   21.10
  -8   0  10  687.43   34.50
  -8   0  10  613.54   32.50
   7   0 -10  509.95   16.80
   7   0 -10  483.55   16.50
   7   0 -10  558.64   30.10
  -7   0  10  515.15   31.00
  -7   0  10  507.35   27.90
  -7   0  10  543.75   28.90
   6   0 -10   -7.80    7.20
  -6   0  10    3.70    9.50
  -6   0  10   -4.90    6.50
  -6   0  10   10.00    7.80
   5   0 -10  495.05   15.40
   5   0 -10  529.95   24.80
  -5   0  10  507.95   24.80
  -5   0  10  494.85   25.30
  -5   0  10  462.55   24.10
   4   0 -10  290.87   18.40
   4   0 -10  310.77   15.00
   4   0 -10  330.17   20.30
  -4   0  10  343.37   19.50
  -4   0  10  286.47   19.30
  -4   0  10  326.87   19.50
   3   0 -10    2.10    7.80
   3   0 -10    9.60    4.00
   3   0 -10    9.60    5.60
  -3   0  10   20.70    7.40
  -3   0  10    6.70    6.90
  -3   0  10    7.20    5.80
   2   0 -10  255.37   17.20
   2   0 -10  249.78   18.90
   2   0 -10  273.37   12.60
  -2   0  10  247.38   16.50
  -2   0  10  237.08   18.00
  -2   0  10  242.48   15.70
  -2   0  10  231.18   11.80
   1   0 -10 1526.15   43.70
   1   0 -10 1483.95   37.00
   1   0 -10 1413.16   40.10
  -1   0  10 1481.55   43.10
  -1   0  10 1400.86   39.50
  -1   0  10 1512.45   44.40
  -1   0  10 1457.55   36.80
   0   0 -10   10.40    6.80
   0   0 -10   15.70    6.50
   0   0 -10    7.70    5.90
   0   0 -10   -2.80    4.90
   0   0  10   18.40    5.60
   0   0  10   10.20    7.10
   0   0  10    4.00    7.70
   0   0  10    5.20    4.70
  -1   0 -10  281.27   18.90
   1   0  10  221.88   17.60
   1   0  10  223.78   19.30
   1   0  10  239.98   15.50
   1   0  10  226.38   13.40
  -2   0 -10 1587.34   49.30
  -2   0 -10 1541.15   49.50
   2   0  10 1635.44   40.20
   2   0  10 1660.63   41.00
   2   0  10 1596.64   45.70
   2   0  10 1615.44   49.00
  -3   0 -10  250.97   21.70
  -3   0 -10  252.57   27.80
   3   0  10  295.67   19.80
   3   0  10  277.97   15.70
   3   0  10  274.17   13.90
   3   0  10  260.27   21.60
  -4   0 -10   31.30   13.00
   4   0  10   48.80   13.30
   4   0  10   44.00   10.90
  -5   0 -10   14.30   14.30
   5   0  10   18.50   11.20
   5   0  10   10.30   16.30
   8  -1 -10   25.60    7.90
   8  -1 -10   48.20   13.80
  -8   1  10   12.10   10.70
  -8   1  10   28.30   13.40
   7  -1 -10    7.00    5.20
   7  -1 -10    2.10    6.30
   7  -1 -10   -1.20    8.30
  -7   1  10   -2.20    8.20
  -7   1  10    7.40    8.80
   6  -1 -10   41.80    6.70
   6  -1 -10   56.89    7.10
   6  -1 -10   42.70    9.40
  -6   1  10   22.50    9.60
  -6   1  10   45.70   11.30
   5  -1 -10  555.94   22.10
   5  -1 -10  548.65   26.90
   5  -1 -10  557.24   26.00
   5  -1 -10  530.25   17.80
  -5   1  10  564.34   26.30
  -5   1  10  525.35   25.80
  -5   1  10  596.94   36.90
   4  -1 -10 1869.51   56.69
   4  -1 -10 1823.22   41.50
   4  -1 -10 1883.01   41.60
   4  -1 -10 1743.03   50.19
  -4   1  10 1776.52   50.39
  -4   1  10 1807.72   51.09
  -4   1  10 1832.32   51.69
   3  -1 -10   93.49   11.60
   3  -1 -10   83.49    8.80
   3  -1 -10   93.19   12.20
  -3   1  10   72.99    8.00
  -3   1  10   65.29    9.90
  -3   1  10  116.69   14.30
  -3   1  10   84.09   11.80
   2  -1 -10  565.44   25.10
   2  -1 -10  561.94   20.00
   2  -1 -10  533.25   24.80
  -2   1  10  513.15   27.20
  -2   1  10  576.84   23.30
  -2   1  10  543.15   19.90
  -2   1  10  645.34   28.70
   1  -1 -10 1510.95   41.10
   1  -1 -10 1512.75   39.80
   1  -1 -10 1490.55   44.70
   1  -1 -10 1456.15   44.50
  -1   1  10 1558.64   39.70
  -1   1  10 1529.75   40.70
  -1   1  10 1561.24   45.90
   0  -1 -10   78.69   11.10
   0  -1 -10   48.80    9.80
   0  -1 -10   66.19   11.60
   0   1  10   57.89   10.70
   0   1  10   71.29    9.10
   0   1  10   63.39   12.10
   0   1  10   63.09    8.90
  -1  -1 -10   14.10    7.70
   1   1  10   13.70    5.90
   1   1  10    1.20    6.10
   1   1  10    1.80   12.10
  -2  -1 -10  122.09   16.20
  -2  -1 -10  130.29   17.40
   2   1  10  117.99   18.50
   2   1  10  111.09   14.20
   2   1  10  126.39   11.80
   2   1  10   97.79    9.60
  -3  -1 -10   16.20    9.60
  -3  -1 -10   22.50   14.80
   3   1  10   33.40   10.00
   3   1  10   24.40    6.90
  -4  -1 -10  -10.50    8.80
   4   1  10   -9.80   13.30
   8  -2 -10  719.83   26.00
   8  -2 -10  770.22   37.20
  -8   2  10  837.42   57.49
  -8   2  10  761.02   37.40
   7  -2 -10  920.21   31.80
   7  -2 -10  890.11   27.50
   7  -2 -10  914.91   37.70
  -7   2  10  844.52   36.70
  -7   2  10  907.41   37.60
   6  -2 -10   15.00    5.80
   6  -2 -10    4.10    5.90
   6  -2 -10    5.20    7.90
  -6   2  10    3.90    7.70
  -6   2  10   16.90    8.80
   5  -2 -10  169.78   11.60
   5  -2 -10  155.98   15.80
   5  -2 -10  146.39   17.60
   5  -2 -10  191.98   12.20
  -5   2  10  169.88   16.30
  -5   2  10  221.98   29.70
  -5   2  10  165.28   16.70
   4  -2 -10  472.75   18.40
   4  -2 -10  462.05   24.20
   4  -2 -10  498.75   18.70
   4  -2 -10  447.36   23.40
  -4   2  10  473.45   24.80
  -4   2  10  464.85   27.50
  -4   2  10  475.05   30.20
   3  -2 -10   -1.60    6.90
   3  -2 -10   -1.30    5.60
  -3   2  10    9.80    8.50
  -3   2  10    2.90    5.40
  -3   2  10   -2.00    4.10
  -3   2  10   -9.00    5.30
   2  -2 -10  293.57   19.00
   2  -2 -10  245.98   18.60
   2  -2 -10  285.87   16.00
  -2   2  10  299.27   17.00
  -2   2  10  307.67   19.00
  -2   2  10  288.47   19.90
  -2   2  10  294.17   15.40
   1  -2 -10  455.95   23.60
   1  -2 -10  460.35   20.50
   1  -2 -10  480.65   24.50
  -1   2  10  447.46   19.60
  -1   2  10  496.05   28.80
  -1   2  10  500.15   20.90
   0  -2 -10  689.63   29.90
   0  -2 -10  653.53   23.50
   0  -2 -10  733.33   30.20
   0   2  10  710.43   23.80
   0   2  10  699.63   26.50
  -1  -2 -10  244.18   19.20
   1   2  10  188.28   15.60
   1   2  10  229.88   12.70
  -2  -2 -10  994.80   43.60
  -2  -2 -10  937.61   40.00
   2   2  10 1057.39   37.30
   2   2  10 1013.80   25.90
   2   2  10 1031.50   26.60
   2   2  10 1137.09   50.99
  -3  -2 -10  191.58   20.90
   3   2  10  205.08   23.30
   3   2  10  173.18   18.60
  -4  -2 -10   83.89   18.00
   4   2  10   67.19   14.00
   8  -3 -10    3.10    7.80
   8  -3 -10    8.60   11.90
  -8   3  10    0.50    9.80
  -8   3  10   13.00   11.70
   7  -3 -10   17.40    9.30
   7  -3 -10   35.00    7.90
  -7   3  10   33.00   11.70
  -7   3  10   28.00   10.10
   6  -3 -10    4.10    7.30
   6  -3 -10    6.70   11.10
   6  -3 -10    6.20    5.70
   6  -3 -10   -3.00    7.50
  -6   3  10    2.40    7.70
  -6   3  10    5.00    7.90
   5  -3 -10  888.21   29.10
   5  -3 -10 1001.70   36.60
   5  -3 -10 1023.50   37.60
   5  -3 -10  937.01   29.60
  -5   3  10 1065.59   39.00
  -5   3  10  944.31   35.50
   4  -3 -10 1210.18   34.20
   4  -3 -10 1121.49   39.10
   4  -3 -10 1147.89   39.70
   4  -3 -10 1184.48   33.90
  -4   3  10 1175.78   39.20
  -4   3  10 1210.28   43.70
   3  -3 -10  246.18   18.50
   3  -3 -10  223.98   17.60
  -3   3  10  231.28   17.50
  -3   3  10  226.78   16.30
  -3   3  10  215.98   14.10
   2  -3 -10  283.37   19.80
   2  -3 -10  279.47   19.00
  -2   3  10  275.37   16.10
  -2   3  10  244.08   15.70
  -2   3  10  276.37   18.60
   1  -3 -10  496.55   25.10
   1  -3 -10  490.05   20.90
   1  -3 -10  483.45   25.10
  -1   3  10  513.25   20.50
  -1   3  10  481.05   24.30
  -1   3  10  495.45   22.20
   0  -3 -10  153.08   16.40
   0  -3 -10  124.19   15.70
   0  -3 -10  145.79   12.00
   0   3  10  142.49   11.10
   0   3  10  139.99   16.00
   0   3  10  138.59   14.20
  -1  -3 -10   47.30   10.60
  -1  -3 -10   79.89   14.90
   1   3  10   73.19   12.70
   1   3  10   70.39   12.40
  -2  -3 -10   93.29   17.60
  -2  -3 -10   91.99   15.60
   2   3  10   90.09   13.40
   2   3  10  108.89   16.50
  -3  -3 -10  209.78   22.50
   3   3  10  174.38   23.90
   3   3  10  203.18   20.60
   8  -4 -10  686.63   35.70
   8  -4 -10  655.53   27.50
  -8   4  10  642.74   33.90
  -8   4  10  552.54   33.90
   7  -4 -10  530.85   34.50
   7  -4 -10  589.14   24.80
  -7   4  10  594.34   30.80
  -7   4  10  665.43   33.00
   6  -4 -10   46.10    9.10
   6  -4 -10   64.19   17.00
   6  -4 -10   57.29   11.80
  -6   4  10   58.29   12.10
   5  -4 -10   65.89   11.20
   5  -4 -10   71.99    9.80
   5  -4 -10   58.69   12.90
  -5   4  10   50.09   13.10
  -5   4  10   79.49   12.60
   4  -4 -10   -3.40    8.20
   4  -4 -10    3.00    7.20
  -4   4  10   10.60    8.10
  -4   4  10   -5.80    6.80
   3  -4 -10    3.20    7.20
   3  -4 -10    4.00    9.10
  -3   4  10   -0.90    6.80
  -3   4  10    4.70    5.50
  -3   4  10    3.30    6.00
   2  -4 -10  409.46   23.10
   2  -4 -10  385.96   23.70
  -2   4  10  393.36   19.50
  -2   4  10  401.66   22.50
   1  -4 -10  668.23   41.80
   1  -4 -10  742.23   31.70
   1  -4 -10  704.23   25.40
  -1   4  10  732.03   30.40
  -1   4  10  690.13   28.40
  -1   4  10  749.33   25.50
   0  -4 -10  542.25   27.60
   0  -4 -10  535.65   20.00
   0  -4 -10  570.14   29.60
   0   4  10  574.44   28.10
   0   4  10  552.14   19.80
   0   4  10  535.45   25.50
  -1  -4 -10   39.00   12.60
  -1  -4 -10   49.70   11.50
   1   4  10   49.99   11.60
   1   4  10   32.90   11.30
   1   4  10   33.90    7.40
  -2  -4 -10  468.45   29.00
   2   4  10  482.75   31.00
   2   4  10  532.05   29.70
   8  -5 -10   -7.80   10.20
   8  -5 -10   -6.00    8.00
  -8   5  10   -7.30    9.00
  -8   5  10   -0.90   13.50
   7  -5 -10  246.88   22.40
   7  -5 -10  244.08   18.50
  -7   5  10  232.98   21.90
  -7   5  10  251.67   27.60
   6  -5 -10   20.90    8.00
   6  -5 -10   20.50   11.70
   6  -5 -10   11.20    8.90
  -6   5  10    3.80    8.80
  -6   5  10   -0.10   10.50
   5  -5 -10  364.06   25.50
   5  -5 -10  351.16   22.70
   5  -5 -10  360.36   20.00
  -5   5  10  375.86   24.00
  -5   5  10  376.66   22.70
   4  -5 -10 1347.37   45.50
   4  -5 -10 1324.37   44.40
  -4   5  10 1328.57   42.40
  -4   5  10 1435.06   44.90
   3  -5 -10  484.95   25.70
   3  -5 -10  522.85   27.70
  -3   5  10  496.95   23.40
  -3   5  10  446.56   24.60
  -3   5  10  499.25   23.20
   2  -5 -10  213.08   28.80
   2  -5 -10  275.67   19.90
  -2   5  10  248.48   17.80
  -2   5  10  212.88   19.10
  -2   5  10  225.08   15.70
   1  -5 -10  195.08   15.10
   1  -5 -10  211.38   18.90
  -1   5  10  194.18   18.80
  -1   5  10  209.38   17.50
  -1   5  10  210.68   14.20
   0  -5 -10   86.79   20.10
   0  -5 -10   71.29   13.10
   0  -5 -10   81.19   10.80
   0   5  10   81.59   13.00
   0   5  10  104.29   10.20
  -1  -5 -10   10.60    9.70
   1   5  10   13.80    9.60
   1   5  10    2.90   22.50
  -2  -5 -10  301.87   25.80
   2   5  10  371.86   26.40
   7  -6 -10  724.43   35.60
   7  -6 -10  719.83   31.00
  -7   6  10  796.62   38.80
   6  -6 -10   84.99   12.70
   6  -6 -10   98.19   15.30
  -6   6  10   60.79   12.80
  -6   6  10   82.19   14.60
   5  -6 -10   -2.40    7.40
   5  -6 -10   10.00   10.80
   5  -6 -10    4.30    7.20
  -5   6  10    0.20    8.20
  -5   6  10   -1.00   10.00
   4  -6 -10   48.50   10.80
   4  -6 -10   35.00   12.70
  -4   6  10   41.30   11.50
  -4   6  10   44.10   10.60
   3  -6 -10   70.69   14.30
   3  -6 -10   91.59   13.10
  -3   6  10  112.79   14.40
  -3   6  10   80.09   13.90
   2  -6 -10  113.89   16.20
   2  -6 -10  132.39   16.70
  -2   6  10  130.99   15.80
  -2   6  10  149.49   18.80
  -2   6  10  112.69   13.20
   1  -6 -10  665.23   31.80
  -1   6  10  716.33   31.20
  -1   6  10  660.13   24.30
  -1   6  10  688.43   32.90
   0  -6 -10  528.35   29.10
   0   6  10  561.34   18.90
   0   6  10  492.75   27.90
   1   6  10   11.90   10.40
   7  -7 -10  107.59   16.10
   7  -7 -10  128.59   18.50
  -7   7  10  107.49   18.10
   6  -7 -10   70.09   14.50
   6  -7 -10   84.09   13.40
  -6   7  10   92.29   15.40
   5  -7 -10  158.08   18.80
   5  -7 -10  128.69   16.80
  -5   7  10  171.08   22.40
  -5   7  10  178.68   18.90
   4  -7 -10  918.21   37.40
  -4   7  10  951.30   38.50
  -4   7  10  951.10   36.00
   3  -7 -10  242.28   21.10
  -3   7  10  344.67   28.50
  -3   7  10  273.47   21.50
  -3   7  10  305.87   20.00
   2  -7 -10   78.89   14.10
  -2   7  10   86.69   12.20
  -2   7  10   83.59   14.20
   1  -7 -10  236.68   22.20
  -1   7  10  274.07   16.60
  -1   7  10  311.37   31.10
   0  -7 -10    6.40    9.40
   0   7  10   14.90   10.30
   6  -8 -10  153.08   31.80
   6  -8 -10  111.89   16.90
   5  -8 -10   30.60   12.20
   5  -8 -10   26.90   10.80
  -5   8  10    3.10    9.50
   4  -8 -10    1.20    9.40
  -4   8  10  -12.00    8.60
  -3   8  10   62.89   12.20
  -3   8  10   52.59   15.50
   2  -8 -10   31.50   11.30
  -2   8  10   63.89   14.20
  -2   8  10   51.69   11.40
   0 -12  11   32.40   12.50
   0 -12  11   23.30    8.30
   0 -12  11   35.20    7.90
   0 -12  11   37.60    7.80
   1 -12  11  246.38   16.20
   1 -12  11  228.98   15.30
   1 -12  11  248.98   16.80
   1 -12  11  257.57   24.80
   2 -12  11  164.18   15.70
   2 -12  11  149.99   20.40
   2 -12  11  199.68   15.80
   2 -12  11  184.38   16.40
  -2 -11  11  116.49   12.50
  -2 -11  11  109.69   13.00
  -1 -11  11   74.89   15.60
  -1 -11  11   76.99   11.60
  -1 -11  11   78.89   11.40
   0 -11  11   70.19    9.70
   0 -11  11   50.39    9.70
   0 -11  11   56.79   13.80
   0 -11  11   62.09    7.90
   1 -11  11   45.10   13.00
   1 -11  11   54.59   10.00
   1 -11  11   41.90    9.60
   1 -11  11   34.80    8.10
   2 -11  11   41.10    9.20
   2 -11  11   24.60    9.90
   3 -11  11   -2.50    7.10
   3 -11  11   -0.50    7.40
   3 -11  11    7.50   10.70
   3 -11  11   10.10    9.80
   4 -11  11   86.79   13.90
   4 -11  11   72.89   14.90
   4 -11  11  106.19   14.80
  -3 -10  11    3.40    6.40
  -3 -10  11   11.00   11.30
  -3 -10  11    1.90    8.70
  -2 -10  11  198.98   14.80
  -2 -10  11  233.68   17.40
  -2 -10  11  224.68   22.40
  -1 -10  11  107.09   16.10
  -1 -10  11  122.99   12.20
  -1 -10  11  110.39   13.30
  -1 -10  11  101.79    6.80
   0 -10  11   -1.40    4.50
   0 -10  11    3.50    6.40
   0 -10  11    4.30    5.70
   0 -10  11   23.30    7.90
   0 -10  11   -3.30    8.40
   1 -10  11  421.96   20.10
   1 -10  11  457.05   18.30
   1 -10  11  449.26   27.00
   1 -10  11  392.06   20.40
   2 -10  11  139.89   14.50
   2 -10  11  136.39   18.40
   2 -10  11  170.78   13.80
   3 -10  11   16.50   10.80
   3 -10  11    7.90    7.40
   3 -10  11   -4.80    8.70
   3 -10  11   12.80    7.50
   4 -10  11   45.90   11.00
   4 -10  11   28.10   13.00
   4 -10  11   17.30    9.70
  -4  -9  11  158.48   20.80
  -4  -9  11  165.08   15.00
  -4  -9  11  193.38   25.20
  -3  -9  11   25.60    7.50
  -3  -9  11   22.10   10.60
  -2  -9  11  594.34   30.70
  -2  -9  11  578.94   23.40
  -1  -9  11   -2.00    7.20
  -1  -9  11    4.20    6.90
  -1  -9  11   -1.10    5.30
   0  -9  11    9.50    5.70
   0  -9  11    3.10    7.80
   0  -9  11    5.30    5.90
  -1   9 -11    5.50    6.70
   1  -9  11    5.00    7.60
   1  -9  11    6.20    5.30
   1  -9  11    9.80    8.50
   1  -9  11    3.40    5.90
  -2   9 -11  230.18   17.00
   2  -9  11  225.48   20.60
   2  -9  11  250.27   18.10
   2  -9  11  229.08   16.70
   2  -9  11  197.68   14.30
  -3   9 -11  139.89   18.50
   3  -9  11  131.29   15.20
   3  -9  11  131.39   16.90
   3  -9  11  128.19   17.00
   3  -9  11  115.79   13.60
   4  -9  11  371.06   23.40
   4  -9  11  378.26   25.30
   4  -9  11  381.06   22.50
   5  -9  11  119.89   16.20
   5  -9  11  149.19   18.60
   5  -9  11  119.79   23.00
  -5  -8  11   51.99   11.00
  -5  -8  11   72.69   14.50
  -4  -8  11   37.00    8.90
  -4  -8  11   42.20   12.20
  -4  -8  11   45.70   11.10
  -3  -8  11    2.60    6.00
  -3  -8  11   -4.40    7.90
  -3  -8  11    8.10    7.40
   2   8 -11  240.58   13.30
  -2  -8  11  220.18   19.60
  -2  -8  11  257.07   17.60
  -2  -8  11  257.37   16.30
   1   8 -11  899.71   26.40
  -1  -8  11  815.72   29.20
  -1  -8  11  866.51   30.60
  -1  -8  11  798.02   33.80
   0   8 -11   -3.40    5.80
   0  -8  11    0.80    5.70
   0  -8  11    7.70    7.00
   0  -8  11    4.20    5.00
   0  -8  11   -4.30    7.00
   0  -8  11    7.20    6.70
  -1   8 -11  615.64   23.60
  -1   8 -11  635.34   22.40
   1  -8  11  612.34   25.60
   1  -8  11  633.34   21.20
   1  -8  11  578.64   28.50
   1  -8  11  599.84   26.00
  -2   8 -11  246.68   18.10
   2  -8  11  285.77   18.40
   2  -8  11  264.37   18.70
   2  -8  11  248.48   20.00
   2  -8  11  262.07   15.40
   3  -8  11   34.30   10.50
   3  -8  11   35.10    9.50
   3  -8  11   47.40   10.50
   3  -8  11   45.90   11.40
  -4   8 -11   31.60   13.90
   4  -8  11   56.99   12.10
   4  -8  11   25.80    9.70
   4  -8  11   40.30   10.60
   5  -8  11   -2.60    9.10
   5  -8  11   -7.80    8.70
   5  -8  11    3.30    9.30
  -6  -7  11   60.59   15.80
  -6  -7  11   89.89   14.60
  -5  -7  11  504.15   28.80
  -5  -7  11  467.15   27.80
  -5  -7  11  420.86   23.30
   4   7 -11  383.76   20.00
  -4  -7  11  418.96   25.50
  -4  -7  11  408.26   21.60
  -4  -7  11  364.56   22.10
   3   7 -11   11.20    6.80
  -3  -7  11   12.90    7.40
  -3  -7  11   20.40    7.20
  -3  -7  11    7.40    8.20
   2   7 -11  447.36   18.50
  -2  -7  11  435.16   24.70
  -2  -7  11  441.66   21.80
  -2  -7  11  384.36   20.00
   1   7 -11   31.20    7.40
  -1  -7  11   30.20    9.10
  -1  -7  11   23.60    7.30
  -1  -7  11   47.30    9.10
   0   7 -11    5.50    4.80
   0  -7  11    1.60    6.70
   0  -7  11    6.80    6.90
   0  -7  11   20.90    6.80
   0  -7  11   14.90    4.80
  -1   7 -11   -0.80    6.50
  -1   7 -11    4.10    6.00
   1  -7  11   11.60    7.60
   1  -7  11    8.00    6.10
   1  -7  11   -1.40    4.80
   1  -7  11    8.00    7.60
  -2   7 -11  683.03   28.10
   2  -7  11  675.13   29.80
   2  -7  11  682.23   29.50
   2  -7  11  654.93   24.00
   2  -7  11  672.63   28.10
  -3   7 -11   14.80    8.80
   3  -7  11   16.90    8.10
   3  -7  11   24.20   10.60
   3  -7  11   21.20    8.70
  -4   7 -11   28.60   13.00
   4  -7  11   35.40    9.50
   4  -7  11   30.70   16.20
   4  -7  11   28.20   10.30
   4  -7  11   35.50   10.30
   5  -7  11  543.25   28.30
   5  -7  11  421.86   27.80
   5  -7  11  460.05   26.20
  -6  -6  11  211.38   21.60
   5   6 -11   19.30   10.90
  -5  -6  11   29.00   10.50
  -5  -6  11   27.70   16.00
  -5  -6  11   22.80    9.10
   4   6 -11   33.60    8.90
  -4  -6  11   18.80    8.40
  -4  -6  11   21.70    8.20
  -4  -6  11   20.70    8.50
  -3  -6  11    0.00    6.90
  -3  -6  11    9.20    7.60
  -3  -6  11   -4.30    5.40
  -2  -6  11  432.56   21.20
  -2  -6  11  474.05   22.70
  -2  -6  11  422.96   23.40
   1   6 -11  803.12   27.00
  -1  -6  11  789.52   17.30
  -1  -6  11  775.62   28.80
  -1  -6  11  731.83   30.30
  -1  -6  11  774.72   29.80
   0   6 -11   10.10    6.00
   0   6 -11    6.60    4.90
   0  -6  11    6.70    6.50
   0  -6  11   10.30    7.40
   0  -6  11    4.80    6.00
  -1   6 -11  173.48   12.70
  -1   6 -11  168.48   14.90
   1  -6  11  147.29   14.30
   1  -6  11  156.28   11.30
   1  -6  11  160.48   15.70
   1  -6  11  190.68   16.20
  -2   6 -11  394.66   22.00
   2  -6  11  373.76   18.10
   2  -6  11  397.06   22.40
   2  -6  11  394.16   22.00
   2  -6  11  404.96   23.70
  -3   6 -11    1.40   11.50
   3  -6  11    4.80   10.20
   3  -6  11    0.00    7.50
   3  -6  11    9.20    7.80
   3  -6  11    4.50    7.00
  -4   6 -11   50.99   13.30
   4  -6  11   53.09   11.20
   4  -6  11   53.99   11.40
   4  -6  11   76.09   15.00
   4  -6  11   58.39   12.30
  -5   6 -11   24.50   15.80
   5  -6  11   19.80   10.50
   5  -6  11   18.10   11.10
   5  -6  11   12.10    9.80
  -7  -5  11  166.38   20.20
  -6  -5  11    0.50    7.90
  -6  -5  11   33.80   12.10
   5   5 -11  672.13   28.70
  -5  -5  11  659.33   29.20
  -5  -5  11  810.02   32.60
  -5  -5  11  744.83   33.40
   4   5 -11  556.64   24.50
  -4  -5  11  572.54   28.20
  -4  -5  11  639.64   27.80
  -4  -5  11  642.14   27.00
   3   5 -11   -5.30    6.00
  -3  -5  11    5.00    5.80
  -3  -5  11    0.40    6.50
  -3  -5  11    3.60    6.50
   2   5 -11   87.59   11.40
  -2  -5  11  120.49   16.30
  -2  -5  11   99.09   13.30
  -2  -5  11   99.39   13.10
   1   5 -11    4.80    5.80
   1   5 -11    6.00    3.00
  -1  -5  11    3.50    2.80
  -1  -5  11    2.00    6.40
  -1  -5  11    7.60    5.70
  -1  -5  11    1.60    6.60
   0   5 -11    7.40    6.30
   0   5 -11   17.10    4.90
   0  -5  11   15.10    8.00
   0  -5  11    3.10    5.80
  -1   5 -11  143.29   14.10
  -1   5 -11  146.49   15.50
   1  -5  11  140.29   10.80
   1  -5  11  170.58   16.40
   1  -5  11  137.79   14.20
  -2   5 -11  440.86   23.30
   2  -5  11  454.85   20.00
   2  -5  11  437.96   27.60
   2  -5  11  465.35   25.60
   2  -5  11  472.25   23.30
  -3   5 -11  392.36   24.00
   3  -5  11  428.76   22.40
   3  -5  11  375.26   25.90
   3  -5  11  384.06   23.60
   3  -5  11  361.66   19.80
  -4   5 -11  181.48   21.20
   4  -5  11  181.78   19.40
   4  -5  11  164.08   16.40
   4  -5  11  186.58   17.00
  -5   5 -11  391.16   30.70
   5  -5  11  373.46   23.20
   5  -5  11  428.06   28.80
   5  -5  11  388.26   24.80
  -7  -4  11  234.18   22.10
  -7  -4  11  251.67   23.20
   6   4 -11    3.10   10.40
  -6  -4  11  -10.30    8.70
  -6  -4  11    5.40   11.40
  -6  -4  11   -0.10    7.50
   5   4 -11   17.90    8.50
  -5  -4  11   23.40    8.60
  -5  -4  11   30.90   10.30
  -5  -4  11   29.70   10.20
   4   4 -11  130.59   13.40
  -4  -4  11   88.49   12.30
  -4  -4  11  132.69   15.30
  -4  -4  11   91.09   12.60
   3   4 -11   96.79   12.00
  -3  -4  11  128.39   15.20
  -3  -4  11  123.29   12.90
  -3  -4  11  104.19   13.60
   2   4 -11  873.51   29.80
  -2  -4  11  861.51   30.80
  -2  -4  11  848.22   31.30
  -2  -4  11  778.42   34.80
   1   4 -11 1334.17   39.90
  -1  -4  11 1323.37   41.60
  -1  -4  11 1358.26   30.10
  -1  -4  11 1333.67   40.80
  -1  -4  11 1394.66   41.80
   0   4 -11  208.18   15.90
   0   4 -11  229.78   12.20
   0  -4  11  238.78   11.80
   0  -4  11  223.48   16.30
   0  -4  11  231.48   18.20
   0  -4  11  236.28   16.60
  -1   4 -11  290.37   16.00
  -1   4 -11  292.97   19.00
   1  -4  11  309.77   15.20
   1  -4  11  319.87   18.70
   1  -4  11  281.57   18.90
   1  -4  11  311.67   21.00
  -2   4 -11  234.18   18.40
   2  -4  11  200.08   14.40
   2  -4  11  243.68   16.80
   2  -4  11  246.48   19.00
   2  -4  11  212.28   19.70
  -3   4 -11   43.70   11.50
   3  -4  11   53.79   11.50
   3  -4  11   63.79   13.70
   3  -4  11   46.50    9.80
   3  -4  11   36.20    8.60
  -4   4 -11    6.50   11.30
   4  -4  11    0.90   14.00
   4  -4  11    6.20    8.80
   4  -4  11   -4.90    6.60
   4  -4  11    4.70    7.70
  -5   4 -11   91.39   18.20
   5  -4  11   71.09   12.80
   5  -4  11   89.89   17.00
   5  -4  11   77.49   12.90
  -7  -3  11  381.66   26.10
  -7  -3  11  325.77   24.90
   6   3 -11  -12.20    7.70
  -6  -3  11    2.20    9.10
  -6  -3  11    7.80    7.40
  -6  -3  11   10.10   11.90
   5   3 -11 1028.40   35.60
  -5  -3  11 1056.69   38.50
  -5  -3  11  991.30   37.40
  -5  -3  11  989.60   36.20
   4   3 -11  887.71   31.50
  -4  -3  11  836.02   32.00
  -4  -3  11  896.31   33.70
  -4  -3  11  849.41   33.40
   3   3 -11  121.29   12.90
  -3  -3  11  104.89   14.20
  -3  -3  11  113.29   13.30
  -3  -3  11   82.89   11.80
   2   3 -11  463.95   12.50
   2   3 -11  474.45   22.10
  -2  -3  11  482.05   22.80
  -2  -3  11  478.35   23.70
  -2  -3  11  462.15   22.80
  -2  -3  11  467.35   12.40
   1   3 -11   91.89   12.40
   1   3 -11   97.49    8.00
  -1  -3  11  113.59   12.70
  -1  -3  11   68.99   10.30
  -1  -3  11  105.09   13.40
  -1  -3  11   85.39    7.30
   0   3 -11    9.70    6.50
   0   3 -11   22.00    5.90
   0  -3  11   36.10    8.90
   0  -3  11   15.20    6.50
   0  -3  11   18.90    9.10
   0  -3  11   23.50    5.60
  -1   3 -11    3.30    6.80
  -1   3 -11    4.20    6.00
   1  -3  11   10.80    7.50
   1  -3  11    4.30    5.90
   1  -3  11    3.70    4.70
   1  -3  11   -5.40    6.10
  -2   3 -11  871.51   39.30
   2  -3  11  824.82   35.30
   2  -3  11  828.92   33.40
   2  -3  11  865.11   30.20
   2  -3  11  833.22   29.10
  -3   3 -11  372.66   26.00
   3  -3  11  323.47   29.30
   3  -3  11  409.86   24.80
   3  -3  11  375.86   19.80
   3  -3  11  322.97   19.60
  -4   3 -11   -1.90   10.40
   4  -3  11   -0.30    9.40
   4  -3  11    4.70    7.50
   4  -3  11   -4.10    7.80
  -5   3 -11  129.09   20.50
   5  -3  11  134.99   16.10
   5  -3  11  119.69   16.70
   5  -3  11  135.79   21.00
  -8  -2  11  351.26   27.30
  -8  -2  11  340.47   27.60
   7   2 -11  190.88   21.60
  -7  -2  11  219.28   21.00
  -7  -2  11  178.88   20.10
   6   2 -11   16.10    8.70
  -6  -2  11   12.30   11.30
  -6  -2  11    9.60    8.30
  -6  -2  11   10.10    8.50
   5   2 -11  150.28   15.30
  -5  -2  11  158.88   16.70
  -5  -2  11  149.59   17.90
  -5  -2  11  127.09   15.80
   4   2 -11  281.87   18.60
  -4  -2  11  312.17   20.70
  -4  -2  11  278.77   18.80
  -4  -2  11  312.27   20.20
   3   2 -11    6.80    6.30
  -3  -2  11    9.70    8.50
  -3  -2  11   14.00    6.50
   2   2 -11  152.58   14.40
  -2  -2  11  133.49   16.00
  -2  -2  11  151.28   14.00
  -2  -2  11  131.59   13.70
   1   2 -11 1661.53   39.00
   1   2 -11 1704.03   48.30
  -1  -2  11 1699.93   39.20
  -1  -2  11 1694.33   46.60
  -1  -2  11 1756.82   49.90
  -1  -2  11 1614.54   47.40
   0   2 -11  652.43   26.00
   0   2 -11  665.63   31.10
   0  -2  11  604.04   24.90
   0  -2  11  651.13   22.20
   0  -2  11  661.73   27.70
   0  -2  11  660.63   29.20
  -1   2 -11   48.10   10.00
   1  -2  11   46.10    9.40
   1  -2  11   51.19    9.20
   1  -2  11   53.89    8.70
   1  -2  11   61.29   12.50
  -2   2 -11  195.88   18.30
   2  -2  11  214.08   18.50
   2  -2  11  280.47   26.60
   2  -2  11  195.28   14.60
  -3   2 -11   40.50   11.50
   3  -2  11   48.70    9.90
   3  -2  11   30.50   10.20
   3  -2  11   32.50    8.60
  -4   2 -11   34.80   11.90
   4  -2  11   17.50    9.10
   4  -2  11    2.30   11.20
   4  -2  11    4.80    7.40
  -5   2 -11   75.19   16.70
   5  -2  11   69.89   13.80
   5  -2  11   92.19   21.10
   5  -2  11   91.89   12.60
  -8  -1  11  359.66   27.70
  -8  -1  11  328.27   27.20
  -7  -1  11  553.04   30.10
  -7  -1  11  516.25   29.20
   6   1 -11   -8.40    8.10
  -6  -1  11   12.40    9.00
  -6  -1  11  -15.00    9.80
  -6  -1  11    2.00    8.90
   5   1 -11  428.76   24.00
  -5  -1  11  404.06   23.40
  -5  -1  11  369.96   22.70
  -5  -1  11  386.46   24.50
   4   1 -11 1168.28   24.50
   4   1 -11 1198.88   39.60
   4   1 -11 1150.48   24.50
  -4  -1  11 1120.79   38.40
  -4  -1  11 1147.79   39.10
  -4  -1  11 1112.69   39.40
  -3  -1  11   99.89   19.10
  -3  -1  11   62.79   10.10
  -3  -1  11   79.39   12.70
   2   1 -11   29.10    5.70
   2   1 -11   21.40    9.00
  -2  -1  11   42.60   10.70
  -2  -1  11   28.80    8.10
  -2  -1  11   30.10    7.80
   1   1 -11    2.80    5.10
   1   1 -11   24.90    8.30
   1   1 -11   -3.30    5.80
  -1  -1  11    0.80    6.00
  -1  -1  11    4.40    7.80
  -1  -1  11    4.70    5.70
  -1  -1  11    6.10    4.50
   0   1 -11   90.09   12.10
   0   1 -11   97.99   11.90
   0  -1  11  102.69   11.60
   0  -1  11   95.59   10.20
   0  -1  11   97.49   14.10
   0  -1  11  120.19   15.80
  -1   1 -11   69.69   12.90
   1  -1  11   51.19    9.00
   1  -1  11   44.00    8.60
   1  -1  11   36.80   10.00
   1  -1  11   64.29   13.00
  -2   1 -11 1077.89   40.20
   2  -1  11 1101.69   33.00
   2  -1  11 1044.80   33.70
   2  -1  11 1102.09   35.90
   2  -1  11 1117.69   40.20
  -3   1 -11  390.16   26.10
   3  -1  11  365.56   22.40
   3  -1  11  427.86   19.10
   3  -1  11  432.06   22.60
   3  -1  11  415.06   27.30
  -4   1 -11    7.90   10.60
   4  -1  11   19.80   13.30
   4  -1  11    3.30    9.10
   4  -1  11    9.70    6.90
   8   0 -11  229.18   25.90
  -8   0  11  236.58   23.60
  -8   0  11  225.08   24.30
   7   0 -11  247.48   13.00
   7   0 -11  223.18   22.60
  -7   0  11  249.58   22.40
  -7   0  11  273.87   23.10
  -7   0  11  312.47   36.10
   6   0 -11    7.90    4.10
  -6   0  11    2.50   11.20
  -6   0  11   19.70    9.90
  -6   0  11   10.20    9.00
   5   0 -11  145.89   19.20
  -5   0  11  125.19   15.20
  -5   0  11  157.18   17.00
  -5   0  11  168.08   18.60
   4   0 -11  409.06   14.20
   4   0 -11  392.26   14.10
   4   0 -11  374.66   22.30
  -4   0  11  386.46   22.10
  -4   0  11  408.36   24.00
  -4   0  11  374.86   22.10
   3   0 -11  287.17   13.00
   3   0 -11  276.07   19.80
  -3   0  11  311.47   20.10
  -3   0  11  296.07   19.30
  -3   0  11  310.77   14.00
  -3   0  11  281.97   21.00
   2   0 -11  650.43   28.30
   2   0 -11  622.34   21.20
   2   0 -11  656.63   28.30
  -2   0  11  666.83   29.20
  -2   0  11  624.14   27.30
  -2   0  11  664.03   21.60
  -2   0  11  630.84   26.00
   1   0 -11 1315.77   41.90
   1   0 -11 1302.97   35.50
   1   0 -11 1309.07   42.00
  -1   0  11 1308.67   35.40
  -1   0  11 1249.97   41.40
  -1   0  11 1297.67   38.40
   0   0 -11  289.47   20.60
   0   0 -11  286.77   20.60
   0   0 -11  266.57   19.20
   0   0  11  248.58   18.60
   0   0  11  276.97   21.40
   0   0  11  263.67   15.50
   0   0  11  273.77   15.90
  -1   0 -11   21.60    8.40
  -1   0 -11   18.00    9.70
   1   0  11   26.60    9.20
   1   0  11   14.80    6.50
  -2   0 -11  178.78   19.10
   2   0  11  181.88   16.50
   2   0  11  177.18   19.40
   2   0  11  208.48   13.50
  -3   0 -11   27.40   11.00
   3   0  11   31.80   10.50
   3   0  11   44.80   13.30
   3   0  11   12.50    8.50
   3   0  11   26.60    7.50
  -4   0 -11   11.10   11.50
   4   0  11   -8.30   13.10
   4   0  11   13.70   10.10
   8  -1 -11  290.57   26.60
   8  -1 -11  338.67   16.60
  -8   1  11  368.66   28.10
  -8   1  11  388.76   28.80
   7  -1 -11  599.34   20.20
   7  -1 -11  619.84   22.50
   7  -1 -11  649.34   33.00
  -7   1  11  589.44   32.30
  -7   1  11  612.34   32.00
   6  -1 -11  185.38   12.30
   6  -1 -11  205.08   11.70
   6  -1 -11  198.08   19.30
  -6   1  11  208.78   19.00
  -6   1  11  208.38   20.20
   5  -1 -11  442.36   24.50
   5  -1 -11  418.26   16.20
   5  -1 -11  390.16   16.20
  -5   1  11  430.86   24.80
  -5   1  11  444.16   24.50
  -5   1  11  475.85   27.00
   4  -1 -11  830.52   33.00
   4  -1 -11  841.22   33.80
   4  -1 -11  831.22   24.60
   4  -1 -11  796.02   24.30
  -4   1  11  856.61   33.40
  -4   1  11  826.22   34.60
  -4   1  11  918.21   33.70
   3  -1 -11  265.97   13.90
   3  -1 -11  258.27   19.90
  -3   1  11  259.17   13.60
  -3   1  11  243.48   20.80
  -3   1  11  233.78   17.30
   2  -1 -11    4.80    6.70
   2  -1 -11    1.10    5.80
  -2   1  11    4.30    6.20
  -2   1  11   15.40    9.30
  -2   1  11  -11.30    5.40
  -2   1  11    2.70    5.10
   1  -1 -11  130.79   15.40
   1  -1 -11  167.28   16.70
  -1   1  11  115.09   12.30
  -1   1  11  112.69   11.50
  -1   1  11  128.69   15.70
   0  -1 -11  190.38   17.40
   0  -1 -11  179.68   15.10
   0   1  11  170.08   13.10
   0   1  11  182.48   14.30
   0   1  11  196.38   17.70
  -1  -1 -11   29.40    9.90
  -1  -1 -11   35.90   12.00
   1   1  11   10.50    7.10
   1   1  11   27.90    9.50
   1   1  11   26.10    6.90
  -2  -1 -11  591.64   30.90
  -2  -1 -11  569.34   33.40
   2   1  11  592.84   22.80
   2   1  11  599.14   21.20
   2   1  11  597.54   31.20
   2   1  11  657.73   28.70
  -3  -1 -11  827.62   38.40
   3   1  11  809.02   26.70
   3   1  11  762.12   33.90
   3   1  11  859.71   39.60
   8  -2 -11  149.69   15.10
   8  -2 -11  164.08   22.80
  -8   2  11  145.99   20.70
  -8   2  11  151.78   20.20
   7  -2 -11  104.49   11.70
   7  -2 -11   82.99   14.30
  -7   2  11   74.29   15.10
  -7   2  11   61.99   13.90
   6  -2 -11   32.70   11.30
   6  -2 -11   36.80    9.20
   6  -2 -11   45.90    8.00
  -6   2  11   45.30   11.70
  -6   2  11   35.90   11.80
   5  -2 -11   21.80    6.30
   5  -2 -11    7.00   12.60
   5  -2 -11   18.50    8.70
   5  -2 -11   33.50    8.90
  -5   2  11   27.30   10.60
  -5   2  11   24.80    9.50
   4  -2 -11  870.91   27.20
   4  -2 -11  893.31   35.50
   4  -2 -11  835.32   26.70
   4  -2 -11  874.31   34.20
  -4   2  11  830.02   33.50
  -4   2  11  844.02   32.80
   3  -2 -11  349.87   17.50
   3  -2 -11  340.07   21.50
   3  -2 -11  360.96   23.10
  -3   2  11  309.57   16.20
  -3   2  11  342.77   25.70
  -3   2  11  349.47   22.60
   2  -2 -11   31.40    9.90
   2  -2 -11   20.10    8.50
  -2   2  11   28.60    7.40
  -2   2  11   24.80    7.70
   1  -2 -11 1065.19   39.10
   1  -2 -11 1101.49   39.60
  -1   2  11 1082.19   33.80
  -1   2  11 1106.19   39.00
  -1   2  11 1128.79   34.80
   0  -2 -11 1199.88   41.80
   0  -2 -11 1101.89   33.80
   0  -2 -11 1133.09   41.70
   0   2  11 1194.08   37.40
   0   2  11 1134.69   33.40
   0   2  11 1127.89   40.20
  -1  -2 -11   60.99   12.90
  -1  -2 -11   65.09   16.30
   1   2  11   25.50    9.10
   1   2  11   42.20    7.60
   1   2  11   20.90    8.50
   1   2  11   28.40    8.70
  -2  -2 -11   29.00   11.20
   2   2  11   27.20   12.70
   2   2  11   30.50   10.30
  -3  -2 -11   12.60   11.70
   3   2  11   13.70    9.80
   8  -3 -11  290.97   19.20
   8  -3 -11  273.97   31.60
  -8   3  11  279.87   25.20
  -8   3  11  314.97   29.30
   7  -3 -11  958.90   40.40
   7  -3 -11  936.31   30.70
  -7   3  11  938.41   41.40
  -7   3  11  930.81   39.30
   6  -3 -11  156.38   19.40
   6  -3 -11  152.68   13.40
  -6   3  11  195.88   19.40
  -6   3  11  168.08   19.70
   5  -3 -11   20.00   11.40
   5  -3 -11   14.00    8.80
   5  -3 -11   29.00    7.50
  -5   3  11   24.90    9.60
  -5   3  11   21.20   10.40
   4  -3 -11  736.03   32.10
   4  -3 -11  757.62   33.00
  -4   3  11  723.13   30.30
   3  -3 -11  311.97   21.70
   3  -3 -11  258.67   21.70
  -3   3  11  324.77   21.70
  -3   3  11  331.67   17.80
   2  -3 -11    9.50    9.90
   2  -3 -11    0.60    7.40
  -2   3  11   12.20    6.60
  -2   3  11   16.80    7.10
   1  -3 -11  138.29   16.80
   1  -3 -11  104.39   15.30
  -1   3  11   97.59   13.40
  -1   3  11  124.19   13.80
  -1   3  11  111.39   12.30
   0  -3 -11  166.18   20.90
   0  -3 -11  154.28   17.40
   0  -3 -11  132.69   17.30
   0   3  11  139.69   18.60
   0   3  11  152.58   12.60
   0   3  11  118.69   14.60
  -1  -3 -11   32.10   20.80
  -1  -3 -11   26.70   10.70
   1   3  11   14.50    8.60
   1   3  11    6.80    6.30
   1   3  11   21.60   10.60
   1   3  11    5.90    7.70
  -2  -3 -11  380.66   27.80
   2   3  11  439.16   29.60
   2   3  11  448.86   31.10
   8  -4 -11   16.20    9.90
   8  -4 -11   14.00   14.20
  -8   4  11   45.10   17.30
  -8   4  11   25.10   12.80
   7  -4 -11   45.70   13.50
  -7   4  11   44.80   18.80
  -7   4  11   57.19   15.60
   6  -4 -11    3.40    6.70
   6  -4 -11   10.90   14.00
   6  -4 -11   14.90   11.70
  -6   4  11   16.10   12.30
  -6   4  11   12.80    9.80
   5  -4 -11   54.19   15.20
   5  -4 -11   51.89    9.50
   5  -4 -11   65.89   22.70
  -5   4  11   45.70   12.20
  -5   4  11   55.79   12.30
   4  -4 -11  836.42   36.30
   4  -4 -11  893.91   37.10
  -4   4  11  791.62   32.80
  -4   4  11  924.51   46.20
   3  -4 -11  441.76   27.10
  -3   4  11  466.35   22.50
  -3   4  11  462.45   25.80
  -3   4  11  495.05   24.00
   2  -4 -11    9.40    8.40
   2  -4 -11  -18.30    9.50
  -2   4  11   -1.50    6.50
  -2   4  11   13.90    7.50
  -2   4  11    0.90    9.00
   1  -4 -11 1027.50   37.90
   1  -4 -11  981.60   38.70
   1  -4 -11  989.60   40.30
  -1   4  11 1076.49   39.30
  -1   4  11  972.40   35.40
  -1   4  11 1019.10   32.00
   0  -4 -11  281.67   22.20
   0   4  11  212.28   22.30
   0   4  11  214.38   18.40
   0   4  11  238.88   14.30
  -1  -4 -11   86.69   15.40
   1   4  11  101.49   18.40
   1   4  11   60.49   12.80
  -2  -4 -11   13.40   12.70
   2   4  11   41.90   12.70
   7  -5 -11  685.93   36.10
   7  -5 -11  766.42   31.10
  -7   5  11  755.52   36.50
   6  -5 -11  412.96   27.60
   6  -5 -11  416.56   22.80
  -6   5  11  399.86   26.00
  -6   5  11  461.15   30.20
   5  -5 -11   45.30    9.40
   5  -5 -11   31.40   10.10
   5  -5 -11   20.90   19.30
  -5   5  11   32.40   10.30
  -5   5  11   26.80   12.50
   4  -5 -11  479.75   27.00
   4  -5 -11  461.35   29.40
  -4   5  11  445.46   24.50
  -4   5  11  423.16   26.50
   3  -5 -11   28.90   12.00
   3  -5 -11   11.70    8.70
  -3   5  11    7.80    7.70
  -3   5  11   -0.20    9.80
  -3   5  11    2.40    7.40
   2  -5 -11  168.18   22.50
   2  -5 -11  134.89   17.60
  -2   5  11  152.28   19.70
  -2   5  11  155.38   14.80
  -2   5  11  179.78   17.20
   1  -5 -11  114.39   15.10
  -1   5  11  118.29   15.00
  -1   5  11  148.39   18.50
  -1   5  11  137.59   13.80
   0  -5 -11  462.35   28.50
   0   5  11  482.95   27.40
   0   5  11  503.85   19.30
  -1  -5 -11   14.40   11.10
   1   5  11   -7.10    9.00
   7  -6 -11   -5.40   11.10
   7  -6 -11    0.00    9.60
  -7   6  11   -9.50   10.50
   6  -6 -11   29.40   12.90
   6  -6 -11   26.20   10.00
  -6   6  11   17.80   11.20
  -6   6  11   16.80   24.90
   5  -6 -11   91.39   13.50
   5  -6 -11   96.49   15.50
  -5   6  11  112.49   16.20
  -5   6  11   91.09   16.70
   4  -6 -11  490.65   28.10
  -4   6  11  487.95   30.20
  -4   6  11  536.25   27.10
   3  -6 -11  673.43   32.50
  -3   6  11  656.53   30.10
  -3   6  11  655.63   28.30
  -3   6  11  652.83   34.60
   2  -6 -11   -0.10    9.20
  -2   6  11    7.40    8.70
  -2   6  11    7.70    8.00
   1  -6 -11  297.07   24.40
  -1   6  11  331.47   26.50
  -1   6  11  302.97   18.30
   0  -6 -11  247.88   36.40
   0   6  11  320.77   24.60
   6  -7 -11  658.53   34.80
   6  -7 -11  659.73   32.20
  -6   7  11  662.03   36.50
   5  -7 -11   -5.40    9.80
   5  -7 -11    0.50    9.20
  -5   7  11    6.40    9.80
   4  -7 -11  187.58   20.40
  -4   7  11  136.39   18.10
   3  -7 -11   88.19   15.20
  -3   7  11   65.09   14.00
  -3   7  11   85.19   13.20
   2  -7 -11   30.60   19.50
  -2   7  11    8.40    9.90
  -2   7  11   -4.20    9.50
  -1 -11  12  101.49   18.30
  -1 -11  12   84.29   12.70
  -1 -11  12   89.29   11.90
   0 -11  12    2.50   10.30
   0 -11  12    3.20    7.30
   0 -11  12    1.40    9.00
   0 -11  12   -1.90    5.70
   1 -11  12   97.69   13.80
   1 -11  12  110.89   16.90
   1 -11  12  106.39   13.80
   1 -11  12   99.49   12.40
   2 -11  12   46.70   10.70
   2 -11  12   82.59   16.30
   2 -11  12   65.69   13.10
   3 -11  12   67.89   15.40
   3 -11  12  104.39   14.70
   3 -11  12   63.39   12.20
  -3 -10  12    2.50   11.70
  -3 -10  12    4.60    7.40
  -3 -10  12   35.00   12.60
  -2 -10  12  159.08   14.80
  -2 -10  12  168.68   17.80
  -1 -10  12  144.59   19.50
  -1 -10  12  103.39   14.40
  -1 -10  12  113.69   18.50
   0 -10  12   39.60    9.40
   0 -10  12   47.10   12.70
   0 -10  12   58.89   16.90
   1 -10  12   17.80    6.60
   1 -10  12   12.20    7.60
   1 -10  12   29.60   10.10
   1 -10  12   22.00   11.00
   2 -10  12    4.50    7.10
   2 -10  12   -1.40    9.60
   3 -10  12   -5.10   10.20
   3 -10  12   17.30    9.20
   3 -10  12    8.80    8.70
  -4  -9  12   70.39   12.10
  -4  -9  12  108.29   18.60
  -3  -9  12   10.60   10.30
  -3  -9  12   19.50   11.70
  -3  -9  12   29.50    9.70
  -2  -9  12   78.99   13.40
  -2  -9  12   62.19   14.30
  -2  -9  12   82.69   11.40
  -1  -9  12   50.39   12.90
  -1  -9  12   62.79   10.60
   0  -9  12    4.20    5.90
   0  -9  12    6.70    7.20
   0  -9  12   24.30   10.80
   0  -9  12   12.90    8.90
  -1   9 -12   41.30   10.40
   1  -9  12   45.70   11.10
   1  -9  12   32.90    8.90
   1  -9  12   47.90   12.40
   1  -9  12   24.70    7.10
  -2   9 -12  437.76   29.00
   2  -9  12  418.76   24.60
   2  -9  12  442.86   20.40
   2  -9  12  415.36   23.30
   2  -9  12  451.25   27.50
   3  -9  12   12.80   10.70
   3  -9  12    1.70    8.20
   3  -9  12  -10.10    6.70
   4  -9  12   -3.50    8.50
   4  -9  12   13.70    9.20
   4  -9  12   -6.60    9.80
  -4  -8  12  216.18   22.20
  -4  -8  12  259.97   23.80
  -4  -8  12  208.08   24.10
  -3  -8  12   25.30   10.70
  -3  -8  12   35.80    9.50
  -3  -8  12   40.50   12.00
   2   8 -12  263.27   16.60
  -2  -8  12  314.97   20.60
  -2  -8  12  278.57   18.20
  -2  -8  12  270.47   22.40
   1   8 -12  306.77   17.50
  -1  -8  12  342.97   21.40
  -1  -8  12  302.57   18.90
  -1  -8  12  364.76   23.90
   0   8 -12    6.70    8.10
   0  -8  12   -2.90    5.00
   0  -8  12   16.60    8.70
   0  -8  12    1.20    6.40
   0  -8  12   11.20    8.70
  -1   8 -12   22.10    9.70
   1  -8  12   32.80    6.80
   1  -8  12   16.60    7.80
   1  -8  12   11.00    9.10
   1  -8  12   30.90    9.90
  -2   8 -12   12.00   10.40
   2  -8  12   18.80    9.90
   2  -8  12   16.40   10.00
   2  -8  12    5.00    6.30
   2  -8  12   -5.00    6.40
   3  -8  12   50.59   11.60
   3  -8  12   57.89   10.30
   3  -8  12   58.29   11.50
   4  -8  12   -0.90    8.60
   4  -8  12    4.50   10.20
   4  -8  12   -8.90    8.90
  -5  -7  12   86.69   15.80
  -5  -7  12   64.99   12.60
  -4  -7  12   40.90   10.20
  -4  -7  12   42.90   11.70
  -4  -7  12   35.90   12.00
   3   7 -12   -1.00    7.50
  -3  -7  12   -4.90    6.10
  -3  -7  12    4.20    8.10
  -3  -7  12   -4.80    8.70
   2   7 -12   83.39   11.30
  -2  -7  12   70.49   12.00
  -2  -7  12   99.49   15.40
  -2  -7  12   90.69   12.20
   1   7 -12  152.78   14.90
  -1  -7  12  129.79   13.70
  -1  -7  12  140.59   16.00
   0   7 -12  300.97   14.00
   0  -7  12  316.17   23.70
   0  -7  12  331.77   22.20
   0  -7  12  321.47   19.60
  -1   7 -12  309.07   20.30
  -1   7 -12  283.37   18.70
   1  -7  12  252.57   18.20
   1  -7  12  250.07   19.80
   1  -7  12  246.58   19.40
   1  -7  12  249.78   14.10
  -2   7 -12  243.38   20.70
   2  -7  12  235.38   21.30
   2  -7  12  234.48   15.60
   2  -7  12  235.48   18.40
   2  -7  12  210.88   19.10
  -3   7 -12  187.58   21.70
   3  -7  12  175.48   21.20
   3  -7  12  194.78   19.30
   3  -7  12  195.88   16.40
   3  -7  12  196.08   18.70
   4  -7  12   19.50    9.70
   4  -7  12   -4.20    9.40
   4  -7  12    7.00    9.50
  -6  -6  12   22.60   10.40
  -6  -6  12   18.20   12.30
  -5  -6  12  390.36   23.50
  -5  -6  12  383.26   26.30
   4   6 -12  204.68   18.80
  -4  -6  12  170.08   18.90
  -4  -6  12  218.78   18.10
  -4  -6  12  184.88   18.60
  -3  -6  12  141.59   18.00
  -3  -6  12   96.89   14.30
  -3  -6  12  128.69   14.40
   2   6 -12  178.38   15.20
  -2  -6  12  166.78   17.40
  -2  -6  12  163.88   16.70
  -2  -6  12  181.88   15.90
   1   6 -12  178.38   15.50
  -1  -6  12  150.58   15.00
  -1  -6  12  123.79   15.60
  -1  -6  12  138.39   16.30
  -1  -6  12  166.78    6.70
   0   6 -12  281.47   18.50
   0   6 -12  263.57   13.20
   0  -6  12  254.07   12.60
   0  -6  12  250.57   20.20
   0  -6  12  265.97   18.30
   0  -6  12  214.78   18.40
  -1   6 -12   33.70    9.90
  -1   6 -12   31.70    8.60
   1  -6  12   49.00    7.80
   1  -6  12   25.40    8.20
   1  -6  12   32.00    9.50
   1  -6  12   33.20   10.10
  -2   6 -12   98.99   13.50
   2  -6  12  114.89   15.20
   2  -6  12  145.79   16.10
   2  -6  12  117.59   12.40
   2  -6  12  122.79   17.30
  -3   6 -12  113.79   16.60
   3  -6  12   85.39   13.10
   3  -6  12   63.79   11.00
   3  -6  12   73.59   15.80
  -4   6 -12   16.60   14.80
   4  -6  12   37.80   11.70
   4  -6  12   45.90   11.50
   4  -6  12   38.40   11.00
  -6  -5  12    7.30   10.00
  -6  -5  12    2.40    8.60
   5   5 -12   26.00   11.20
  -5  -5  12   28.20   10.00
  -5  -5  12   31.70   12.40
  -5  -5  12   54.79   12.20
   4   5 -12   44.90   10.50
  -4  -5  12   39.80   10.70
  -4  -5  12   47.20   10.50
  -4  -5  12   46.70   11.20
   3   5 -12   12.30    8.10
  -3  -5  12   18.20    7.70
  -3  -5  12   15.00    8.70
  -3  -5  12   26.10    9.70
   2   5 -12   29.10    8.30
  -2  -5  12   36.90   10.40
  -2  -5  12   49.40   11.40
  -2  -5  12   42.60    9.30
   1   5 -12  564.34   25.10
  -1  -5  12  563.34   27.00
  -1  -5  12  567.84   26.00
  -1  -5  12  597.64   27.90
  -1  -5  12  588.74   15.90
   0   5 -12  103.59   10.20
   0   5 -12  121.49   14.80
   0  -5  12   98.79   14.40
   0  -5  12  122.99   14.30
   0  -5  12  131.69   14.70
   0  -5  12  128.09    9.70
  -1   5 -12   37.20    8.80
  -1   5 -12   41.00    9.90
   1  -5  12   46.60    9.60
   1  -5  12   48.50   10.10
   1  -5  12   50.69    7.60
   1  -5  12   49.80   10.70
  -2   5 -12  464.05   26.20
   2  -5  12  445.26   28.00
   2  -5  12  473.95   25.50
   2  -5  12  444.56   20.80
   2  -5  12  452.55   24.00
  -3   5 -12   86.19   15.10
   3  -5  12   81.29   11.80
   3  -5  12   90.19   15.10
   3  -5  12   75.79   12.60
   3  -5  12  105.29   17.50
  -4   5 -12    7.70   13.00
   4  -5  12   -3.60    7.40
   4  -5  12    1.90   10.30
   4  -5  12    9.70    8.70
  -7  -4  12   47.60   15.10
  -6  -4  12    0.80    9.10
  -6  -4  12    6.90   10.10
   5   4 -12   70.59   12.90
  -5  -4  12   54.49   12.60
  -5  -4  12   76.69   13.00
  -5  -4  12   76.59   14.30
   4   4 -12 1133.99   37.40
  -4  -4  12 1004.90   37.20
  -4  -4  12 1081.29   39.90
  -4  -4  12 1041.70   38.80
   3   4 -12  169.48   15.40
  -3  -4  12  157.38   15.80
  -3  -4  12  150.88   16.20
  -3  -4  12  157.38   17.00
   2   4 -12  106.99   13.40
  -2  -4  12  113.29   15.20
  -2  -4  12  126.29   14.60
  -2  -4  12  174.58   24.30
   1   4 -12   76.99   11.40
   1   4 -12   70.39    7.70
  -1  -4  12   77.69    7.10
  -1  -4  12   71.19   11.70
  -1  -4  12   94.09   13.50
  -1  -4  12   76.19   12.80
   0   4 -12   85.59   10.60
   0   4 -12   99.19   13.30
   0  -4  12   70.39    8.80
   0  -4  12   72.59   11.10
   0  -4  12  106.09   14.30
   0  -4  12  104.39   24.40
  -1   4 -12   32.00    9.30
  -1   4 -12   33.40   10.50
   1  -4  12   52.79   10.20
   1  -4  12   50.09    8.10
   1  -4  12   42.90   11.60
   1  -4  12   43.50    9.90
  -2   4 -12  274.87   21.90
   2  -4  12  294.87   24.70
   2  -4  12  259.87   18.20
   2  -4  12  304.07   19.90
  -3   4 -12   28.10   11.40
   3  -4  12   44.60   11.90
   3  -4  12   13.90    8.50
   3  -4  12   29.20   18.10
   3  -4  12   23.30    8.50
  -4   4 -12   12.70   13.30
   4  -4  12   15.10    9.30
   4  -4  12   21.10   12.50
   4  -4  12   13.60    9.20
  -7  -3  12  409.66   27.80
  -7  -3  12  443.86   28.70
   6   3 -12  134.59   17.20
  -6  -3  12  107.79   16.00
  -6  -3  12   83.99   13.60
   5   3 -12   -5.90    7.70
  -5  -3  12    1.70    7.90
  -5  -3  12   -6.60    7.00
  -5  -3  12    8.00   10.90
   4   3 -12   59.09   11.40
  -4  -3  12   50.19   10.20
  -4  -3  12   65.39   15.00
  -4  -3  12   52.39   10.80
   3   3 -12   30.90    9.10
  -3  -3  12   26.30    8.80
  -3  -3  12   21.70   14.80
  -3  -3  12   22.20    7.90
   2   3 -12  270.87   18.90
  -2  -3  12  282.77   21.50
  -2  -3  12  283.07   19.20
  -2  -3  12  265.27   10.00
  -2  -3  12  286.87   19.30
   1   3 -12  279.27   19.60
   1   3 -12  259.37   12.80
  -1  -3  12  278.27   19.30
  -1  -3  12  275.47   12.50
  -1  -3  12  275.87   18.50
  -1  -3  12  269.27   21.30
   0   3 -12  702.03   30.00
   0  -3  12  711.63   30.00
   0  -3  12  685.03   23.10
   0  -3  12  628.14   31.00
  -1   3 -12    4.90    8.40
   1  -3  12    0.20    6.80
   1  -3  12    0.80    7.50
   1  -3  12   12.10    5.80
   1  -3  12   -2.00    8.60
  -2   3 -12  336.47   23.70
   2  -3  12  363.76   19.60
   2  -3  12  376.76   31.50
   2  -3  12  328.77   23.00
   2  -3  12  376.76   24.40
  -3   3 -12  157.48   20.50
   3  -3  12  135.59   15.40
   3  -3  12  126.79   20.50
  -4   3 -12  167.68   21.90
   4  -3  12  175.58   19.70
   4  -3  12  153.58   18.30
   4  -3  12  183.38   23.30
   7   2 -12   45.70   17.30
  -7  -2  12   41.70   15.80
  -7  -2  12   42.60   12.90
   6   2 -12   44.10   12.10
  -6  -2  12   51.19   12.60
  -6  -2  12   49.10   18.50
  -6  -2  12   49.60   11.60
   5   2 -12  398.46   24.30
  -5  -2  12  342.77   23.40
  -5  -2  12  387.76   26.20
  -5  -2  12  403.56   24.30
   4   2 -12  516.95   25.90
  -4  -2  12  510.95   26.30
  -4  -2  12  506.45   27.50
  -4  -2  12  530.75   26.90
   3   2 -12  824.32   19.00
   3   2 -12  837.62   19.10
   3   2 -12  812.12   32.20
  -3  -2  12  801.32   32.40
  -3  -2  12  877.91   33.70
  -3  -2  12  797.72   33.90
   2   2 -12   35.80   10.40
   2   2 -12   33.80    5.70
  -2  -2  12   27.00    8.80
  -2  -2  12   20.40    4.80
  -2  -2  12   24.00   10.00
  -2  -2  12   36.90    9.70
   1   2 -12  354.86   16.20
  -1  -2  12  364.26   15.50
  -1  -2  12  363.56   22.10
  -1  -2  12  406.26   25.30
   0   2 -12    8.70    7.00
   0   2 -12  -13.80    6.30
   0  -2  12   -2.70    7.40
   0  -2  12   -8.20    5.10
   0  -2  12   -0.30    4.80
   0  -2  12  -10.90    8.70
   1  -2  12   78.19   10.50
   1  -2  12   95.99   18.90
   1  -2  12   84.79   13.50
   1  -2  12   86.59   12.10
  -2   2 -12   99.39   14.80
   2  -2  12  130.59   14.50
   2  -2  12  111.39   13.20
   2  -2  12  118.79   16.80
  -3   2 -12  328.67   26.40
   3  -2  12  274.97   24.10
   3  -2  12  277.87   17.90
   3  -2  12  283.17   20.50
  -4   2 -12   14.90   14.90
   4  -2  12   13.10    8.90
   4  -2  12    9.90   16.50
   7   1 -12  432.06   29.90
  -7  -1  12  407.96   36.80
  -7  -1  12  419.16   28.50
   6   1 -12  121.29   17.40
  -6  -1  12   93.49   14.80
  -6  -1  12   95.49   15.10
   5   1 -12   -8.00    7.40
  -5  -1  12    9.70    8.50
  -5  -1  12  -12.50   10.40
  -5  -1  12   -8.60    6.90
   4   1 -12   22.40    4.00
   4   1 -12    9.20    9.00
   4   1 -12   21.50    4.10
  -4  -1  12   25.30   11.10
  -4  -1  12   10.00    7.80
  -4  -1  12   34.40   10.20
   3   1 -12   36.60    6.00
   3   1 -12   45.40   10.20
  -3  -1  12   50.09   10.50
  -3  -1  12   30.00   10.70
  -3  -1  12   37.50    9.70
   2   1 -12  139.49   11.00
   2   1 -12  109.19   15.10
  -2  -1  12  146.79   17.90
  -2  -1  12  111.19   14.30
  -2  -1  12  106.09    9.50
  -2  -1  12  123.09   14.30
   1   1 -12  609.84   22.50
   1   1 -12  570.24   34.10
  -1  -1  12  607.24   21.80
  -1  -1  12  580.04   27.90
  -1  -1  12  589.44   25.40
  -1  -1  12  661.53   31.20
   0   1 -12  740.53   31.80
   0  -1  12  687.53   30.60
   0  -1  12  668.93   27.00
   0  -1  12  661.43   24.80
   0  -1  12  748.23   33.50
  -1   1 -12    7.50    9.20
   1  -1  12   10.80    7.60
   1  -1  12   10.50    6.30
   1  -1  12    9.90    7.00
  -2   1 -12   37.10   12.00
   2  -1  12   21.80    7.80
   2  -1  12   22.30    8.50
   2  -1  12   20.70   10.60
  -3   1 -12  165.48   22.00
   3  -1  12  166.28   18.00
   3  -1  12  185.98   23.10
   3  -1  12  151.18   14.70
   7   0 -12  454.95   30.50
  -7   0  12  370.96   27.20
   6   0 -12   12.20    4.30
   6   0 -12   19.40   10.50
   6   0 -12   14.60    4.60
  -6   0  12   13.20   15.60
  -6   0  12    4.60    9.70
  -6   0  12   -0.40    9.80
   5   0 -12   27.20   11.30
  -5   0  12   35.80   10.30
  -5   0  12   60.49   14.00
  -5   0  12   35.40   11.20
   4   0 -12 1109.59   32.00
   4   0 -12 1111.79   39.80
   4   0 -12 1077.29   27.60
  -4   0  12 1079.39   41.20
  -4   0  12 1035.80   38.60
  -4   0  12 1066.29   39.50
   3   0 -12  492.75   25.80
   3   0 -12  512.85   18.40
  -3   0  12  446.86   25.20
  -3   0  12  481.85   24.70
  -3   0  12  466.75   17.80
  -3   0  12  532.15   29.30
   2   0 -12   10.30    7.30
  -2   0  12    2.60    5.10
  -2   0  12   15.30   10.10
  -2   0  12   20.20    8.40
  -2   0  12   -7.40    9.40
   1   0 -12   71.09   12.50
  -1   0  12   76.79   11.20
  -1   0  12   98.79   14.30
  -1   0  12   79.79   10.00
  -1   0  12  107.09   16.60
   0   0 -12  196.88   18.70
   0   0  12  181.58   14.70
   0   0  12  214.28   18.60
   0   0  12  182.08   15.20
  -1   0 -12    5.00    8.90
   1   0  12    0.10    6.80
   1   0  12    4.80   10.10
   1   0  12    4.10    6.60
  -2   0 -12  351.36   25.70
   2   0  12  325.17   25.80
   2   0  12  343.57   22.50
   2   0  12  320.87   21.40
   2   0  12  341.97   18.30
  -3   0 -12  329.17   27.90
   3   0  12  301.27   17.30
   3   0  12  315.07   23.60
   3   0  12  323.17   29.00
   7  -1 -12  612.64   21.80
   7  -1 -12  543.75   32.30
  -7   1  12  647.24   44.40
  -7   1  12  570.74   39.10
   6  -1 -12  259.07   14.50
   6  -1 -12  249.68   13.20
   6  -1 -12  263.07   22.90
  -6   1  12  186.58   21.30
  -6   1  12  236.28   21.40
   5  -1 -12    5.60    5.50
   5  -1 -12   16.10   10.10
   5  -1 -12    7.90    6.10
  -5   1  12    1.80    7.90
  -5   1  12    4.30    8.60
   4  -1 -12  207.28   13.50
   4  -1 -12  210.48   12.50
   4  -1 -12  177.68   18.30
  -4   1  12  175.38   17.30
  -4   1  12  168.58   18.00
   3  -1 -12   11.60    6.70
   3  -1 -12   22.30    9.90
  -3   1  12   18.80    8.10
  -3   1  12   18.30    9.40
  -3   1  12   16.70    5.70
   2  -1 -12   10.90    8.50
   2  -1 -12    8.50   10.60
  -2   1  12   12.00    8.10
  -2   1  12   21.20    6.60
   1  -1 -12  833.82   35.10
   1  -1 -12  777.82   34.20
  -1   1  12  786.02   29.30
  -1   1  12  822.42   28.70
  -1   1  12  813.42   34.20
   0  -1 -12  436.76   26.70
   0  -1 -12  579.64   32.70
   0   1  12  509.75   23.40
   0   1  12  480.25   21.80
   0   1  12  483.05   27.20
  -1  -1 -12   53.89   13.10
   1   1  12   35.80   12.00
   1   1  12   44.90   11.80
   1   1  12   60.29   10.90
   1   1  12   37.60    8.70
  -2  -1 -12   38.50   13.30
   2   1  12   61.79    9.70
   2   1  12   19.00   13.40
   2   1  12   46.40   11.70
  -3  -1 -12   88.09   17.60
   3   1  12   74.19   20.60
   3   1  12   78.69   13.80
   7  -2 -12  189.18   23.60
   7  -2 -12  185.88   14.60
  -7   2  12  197.88   21.50
  -7   2  12  196.68   24.60
   6  -2 -12  313.17   18.40
   6  -2 -12  306.77   16.30
   6  -2 -12  287.07   24.30
  -6   2  12  303.87   23.80
  -6   2  12  321.37   25.50
   5  -2 -12   36.10    9.30
   5  -2 -12   41.10    8.10
   5  -2 -12   17.50    9.40
  -5   2  12   51.69   11.70
  -5   2  12   62.29   13.10
   4  -2 -12  696.03   25.40
   4  -2 -12  721.83   25.10
   4  -2 -12  665.43   31.80
  -4   2  12  735.63   31.30
  -4   2  12  694.13   32.20
   3  -2 -12  346.87   23.60
   3  -2 -12  379.46   25.50
  -3   2  12  337.57   21.10
  -3   2  12  328.37   23.10
  -3   2  12  369.56   18.30
   2  -2 -12  233.58   20.20
   2  -2 -12  224.38   22.10
  -2   2  12  252.17   20.80
  -2   2  12  253.57   16.10
   1  -2 -12   34.00   11.80
   1  -2 -12   40.60   11.90
  -1   2  12   34.60    8.60
  -1   2  12   24.20    9.40
  -1   2  12   45.50    9.30
   0  -2 -12   27.70   13.30
   0  -2 -12   27.20   11.20
   0   2  12   36.90    9.60
   0   2  12   40.80    8.60
  -1  -2 -12   17.50    9.90
   1   2  12   34.50    8.40
   1   2  12   23.00    9.70
  -2  -2 -12  126.39   18.20
   2   2  12  122.49   18.10
   7  -3 -12  214.68   16.80
  -7   3  12  226.48   26.20
  -7   3  12  232.08   23.50
   6  -3 -12  278.27   17.50
   6  -3 -12  247.08   24.10
  -6   3  12  262.67   22.70
  -6   3  12  204.78   23.50
   5  -3 -12   73.39   10.40
   5  -3 -12   56.69   12.00
  -5   3  12   69.99   13.50
  -5   3  12   74.19   15.70
   4  -3 -12   24.50    8.90
   4  -3 -12   29.70   13.30
  -4   3  12   53.09   11.80
   3  -3 -12  189.48   23.10
   3  -3 -12  245.48   21.20
  -3   3  12  276.07   19.30
  -3   3  12  243.48   19.00
  -3   3  12  221.78   24.50
   2  -3 -12   -0.20    9.30
  -2   3  12   10.40    9.50
  -2   3  12    5.30    6.80
   1  -3 -12  329.77   24.50
  -1   3  12  275.47   19.50
  -1   3  12  311.97   24.40
  -1   3  12  288.37   18.00
   0  -3 -12  624.54   32.70
   0   3  12  622.34   24.20
   0   3  12  610.94   28.70
   0   3  12  662.83   34.60
  -1  -3 -12  169.08   22.20
   1   3  12  202.38   29.10
   1   3  12  215.88   13.70
   1   3  12  184.78   19.60
   7  -4 -12  392.16   29.70
   7  -4 -12  406.46   22.70
  -7   4  12  408.26   33.00
  -7   4  12  373.06   27.90
   6  -4 -12  428.96   28.60
   6  -4 -12  424.36   22.20
  -6   4  12  412.26   30.30
  -6   4  12  400.06   26.60
   5  -4 -12   25.20    8.90
   5  -4 -12   30.30   11.30
  -5   4  12   40.70   12.40
  -5   4  12   10.80   20.00
   4  -4 -12  218.68   29.60
   4  -4 -12  226.08   21.30
  -4   4  12  237.08   22.70
  -4   4  12  252.17   20.50
   3  -4 -12  679.83   33.00
   3  -4 -12  682.13   38.90
  -3   4  12  657.33   28.90
  -3   4  12  580.24   45.90
  -3   4  12  633.94   27.40
   2  -4 -12   62.79   13.80
  -2   4  12   74.99   15.40
  -2   4  12   63.49   11.70
  -2   4  12   64.29   13.50
   1  -4 -12   51.29   12.80
  -1   4  12   47.40    9.70
  -1   4  12   39.20   10.30
  -1   4  12   77.09   16.20
   0  -4 -12   29.80   11.90
   0   4  12   32.10   10.30
   0   4  12   26.60   20.90
   0   4  12   27.80    8.70
   6  -5 -12  134.49   17.20
   6  -5 -12  167.08   22.30
  -6   5  12  136.09   22.60
   5  -5 -12   30.80   10.00
   5  -5 -12   36.00   12.30
  -5   5  12   35.20   11.70
  -5   5  12   29.90   18.50
   4  -5 -12  349.47   25.90
  -4   5  12  391.96   24.30
  -4   5  12  384.66   29.30
   3  -5 -12   81.09   13.70
  -3   5  12   65.19   12.00
  -3   5  12   75.09   12.80
  -3   5  12   56.69   15.80
   2  -5 -12   40.80   13.30
  -2   5  12   35.60   14.80
  -2   5  12   33.20   10.30
  -2   5  12   35.00   11.20
   1  -5 -12  142.89   19.70
  -1   5  12  125.19   15.70
  -1   5  12  153.38   18.00
   5  -6 -12   60.89   12.90
  -5   6  12   64.79   13.80
   4  -6 -12  274.87   24.10
  -4   6  12  228.88   21.10
   3  -6 -12  264.27   24.00
  -3   6  12  225.98   20.00
  -3   6  12  199.08   20.70
   2  -6 -12   86.99   16.40
  -2   6  12   65.39   17.90
  -2   6  12  104.29   14.30
  -2 -10  13   24.20   13.90
  -2 -10  13   22.70    9.10
  -1 -10  13    4.80    9.70
  -1 -10  13   -9.30    7.00
   0 -10  13    6.90   10.60
   0 -10  13   10.70   11.80
   0 -10  13    6.30    7.60
   1 -10  13  135.69   13.10
   1 -10  13  164.98   16.80
   1 -10  13  133.69   19.10
   2 -10  13   57.59   12.60
   2 -10  13   69.39   15.70
   2 -10  13   84.29   13.30
  -3  -9  13   22.40   12.50
  -2  -9  13  158.98   21.10
  -2  -9  13  138.49   15.90
  -2  -9  13  171.28   22.60
  -1  -9  13   26.20   11.60
  -1  -9  13   41.20   11.10
  -1  -9  13   45.10   14.60
   0  -9  13   65.59   14.20
   0  -9  13   97.89   13.60
   0  -9  13   90.69   10.90
   0  -9  13  106.29   14.80
   1  -9  13    4.30    8.00
   1  -9  13   12.80    6.60
   1  -9  13  -10.10    8.80
   1  -9  13    3.70   11.50
   2  -9  13    8.80   12.70
   2  -9  13    5.00    7.10
   3  -9  13    6.20    9.70
   3  -9  13    4.10    8.50
   3  -9  13    3.50   10.70
  -4  -8  13  209.78   23.20
  -4  -8  13  229.28   19.50
  -3  -8  13   37.60   14.20
  -3  -8  13   49.60   16.20
  -3  -8  13   64.19   16.30
  -2  -8  13   14.30    8.00
  -2  -8  13   10.30   10.00
  -2  -8  13    8.00    9.30
   1   8 -13   96.19   13.40
  -1  -8  13   89.89   14.80
  -1  -8  13   70.69   11.70
  -1  -8  13  110.59   15.30
   0   8 -13    2.20   10.50
   0  -8  13   -0.20    7.20
   0  -8  13   -0.90    9.40
   0  -8  13   15.60    9.60
  -1   8 -13   64.79   19.90
  -1   8 -13   51.69   12.60
   1  -8  13   44.90   12.30
   1  -8  13   59.79   11.80
   1  -8  13   46.90    8.00
   1  -8  13   20.80   10.90
   2  -8  13  144.89   19.00
   2  -8  13  160.58   14.50
   2  -8  13  191.68   18.50
   3  -8  13   26.50    9.40
   3  -8  13   55.09   13.20
   3  -8  13   30.10   11.70
  -5  -7  13   38.10   13.30
  -5  -7  13   19.40   10.30
  -4  -7  13  152.08   29.30
  -4  -7  13  149.79   18.80
   3   7 -13   16.20   19.30
  -3  -7  13    6.30   10.00
  -3  -7  13    5.40    7.50
  -3  -7  13   14.90   10.20
   2   7 -13    4.20   10.00
  -2  -7  13    3.60    7.90
  -2  -7  13    5.20    9.20
  -2  -7  13   11.50    9.80
   1   7 -13  374.96   23.80
  -1  -7  13  324.97   23.70
  -1  -7  13  326.67   21.00
  -1  -7  13  370.46   24.30
   0   7 -13   10.20    7.10
   0  -7  13   17.00   10.20
   0  -7  13   23.80   10.00
   0  -7  13   24.40    7.00
   0  -7  13    7.40    8.00
  -1   7 -13   16.30    9.90
  -1   7 -13    7.80   11.20
   1  -7  13    7.40    8.90
   1  -7  13    6.60   10.30
   1  -7  13    7.00    8.10
  -2   7 -13   69.59   14.90
   2  -7  13   54.89   12.30
   2  -7  13   74.39   10.70
   2  -7  13   80.49   14.40
   3  -7  13   92.89   15.90
   3  -7  13   80.89   14.50
   3  -7  13   69.79   11.90
  -5  -6  13    3.90   12.00
  -5  -6  13   -9.60   12.90
  -4  -6  13  140.09   28.00
  -4  -6  13  154.48   17.80
  -4  -6  13  159.18   19.60
   3   6 -13   -6.80   14.80
  -3  -6  13   -2.40    7.10
  -3  -6  13    7.30   10.10
  -3  -6  13    4.00    8.90
   2   6 -13  178.38   18.30
  -2  -6  13  217.18   20.30
  -2  -6  13  199.38   19.90
  -2  -6  13  203.08   17.90
   1   6 -13   53.09   11.20
  -1  -6  13   60.99    5.30
  -1  -6  13   60.69   10.90
  -1  -6  13   58.19   12.20
  -1  -6  13   62.19   12.40
   0   6 -13   70.59    8.80
   0  -6  13   51.19   10.70
   0  -6  13   73.69   13.70
   0  -6  13   65.59   14.40
   0  -6  13   68.49    8.10
  -1   6 -13   18.00   10.30
  -1   6 -13   48.30   12.30
   1  -6  13   18.60    9.00
   1  -6  13   56.69   12.90
   1  -6  13   28.60    7.40
   1  -6  13   35.90   10.90
  -2   6 -13  391.56   27.10
   2  -6  13  385.36   25.40
   2  -6  13  371.26   24.40
  -3   6 -13    6.10   16.20
   3  -6  13   35.10   10.00
   3  -6  13    8.40    9.40
   3  -6  13   10.60   10.40
   4  -6  13   58.29   12.50
   4  -6  13   39.40   12.80
   4  -6  13   44.30   14.10
  -6  -5  13   24.70   12.60
  -6  -5  13    8.40   10.50
  -5  -5  13  231.18   20.70
  -5  -5  13  229.28   22.40
   4   5 -13  236.58   21.20
  -4  -5  13  248.28   23.50
  -4  -5  13  269.07   22.20
  -4  -5  13  274.67   21.00
   3   5 -13   68.89   12.50
  -3  -5  13   70.19   12.90
  -3  -5  13   74.39   12.90
  -3  -5  13   95.59   14.90
   2   5 -13  174.08   17.40
  -2  -5  13  165.98   18.10
  -2  -5  13  137.69   17.30
  -2  -5  13  126.89   15.90
   1   5 -13  143.59   17.10
  -1  -5  13  126.79   15.20
  -1  -5  13  130.39   16.80
  -1  -5  13  130.19   16.30
   0   5 -13   26.10   12.50
   0   5 -13   27.70    7.50
   0  -5  13   28.10    9.20
   0  -5  13   35.50   12.40
   0  -5  13   19.60    9.20
   0  -5  13   26.50    6.50
  -1   5 -13  118.69   16.00
   1  -5  13  145.79   12.40
   1  -5  13  135.69   17.80
   1  -5  13  138.99   16.80
   1  -5  13  142.09   16.20
  -2   5 -13    1.70   10.20
   2  -5  13   20.40   10.00
   2  -5  13   14.70    9.50
   2  -5  13    3.40    6.90
  -3   5 -13   89.49   17.80
   3  -5  13   60.29   14.30
   3  -5  13   76.19   13.50
   3  -5  13   70.39   12.00
   4  -5  13   49.50   13.20
   4  -5  13   26.30   11.50
   4  -5  13   27.80   14.00
  -6  -4  13  123.69   19.80
  -6  -4  13  126.79   17.40
   5   4 -13   18.50   11.30
  -5  -4  13   45.90   12.10
  -5  -4  13   36.10   12.30
   4   4 -13   36.30   11.40
  -4  -4  13   55.69   11.90
  -4  -4  13   39.70   10.70
  -4  -4  13   55.09   14.00
   3   4 -13   27.50    9.80
  -3  -4  13   41.20   10.60
  -3  -4  13   25.60    8.90
  -3  -4  13   22.70   11.50
   2   4 -13  303.47   21.00
  -2  -4  13  315.77   21.60
  -2  -4  13  333.77   26.70
  -2  -4  13  272.57   20.40
   1   4 -13   66.59    7.80
   1   4 -13   68.79   12.10
  -1  -4  13   36.60   10.20
  -1  -4  13   57.19   12.80
  -1  -4  13   61.09   10.20
  -1  -4  13   57.19   11.10
   0   4 -13  181.98   16.10
   0   4 -13  212.88   20.00
   0  -4  13  208.58   18.00
   0  -4  13  239.78   19.50
   0  -4  13  211.28   13.10
   0  -4  13  225.28   22.60
  -1   4 -13  125.49   16.70
   1  -4  13  143.49   16.10
   1  -4  13  104.39   16.30
   1  -4  13  126.49   16.30
   1  -4  13  100.59   12.20
  -2   4 -13   75.99   15.90
   2  -4  13   76.49   12.90
   2  -4  13   97.79   26.50
   2  -4  13   79.29   11.40
   2  -4  13   49.80   12.60
   3  -4  13  216.18   18.80
   3  -4  13  258.67   24.30
   3  -4  13  243.78   19.70
   6   3 -13   45.40   17.10
  -6  -3  13   40.00   12.50
  -6  -3  13    4.50   13.90
   5   3 -13   51.59   13.20
  -5  -3  13   58.09   12.40
  -5  -3  13   59.29   12.90
   4   3 -13  338.57   22.90
  -4  -3  13  306.77   23.00
  -4  -3  13  302.67   22.10
  -4  -3  13  295.37   25.20
   3   3 -13  266.97   20.60
  -3  -3  13  244.58   22.90
  -3  -3  13  270.87   20.90
  -3  -3  13  261.37   20.50
   2   3 -13    9.30    9.30
  -2  -3  13   29.90    9.90
  -2  -3  13   12.50   10.10
   1   3 -13   33.90    7.70
   1   3 -13   35.90   10.30
  -1  -3  13   25.00    8.70
  -1  -3  13   23.60   11.50
  -1  -3  13   50.19   11.60
  -1  -3  13   28.70    6.20
   0   3 -13  305.77   22.80
   0   3 -13  300.47   18.30
   0  -3  13  281.17   15.30
   0  -3  13  296.67   21.70
   0  -3  13  258.07   23.90
   0  -3  13  269.47   19.30
  -1   3 -13   33.80   11.80
   1  -3  13   13.90   18.10
   1  -3  13   14.80   15.20
   1  -3  13    9.30    7.00
   1  -3  13   12.80    7.60
  -2   3 -13  252.07   23.90
   2  -3  13  232.28   18.70
   2  -3  13  277.67   23.40
   2  -3  13  292.07   19.50
  -3   3 -13   61.29   16.50
   3  -3  13   42.20   14.90
   3  -3  13   42.00   11.00
   3  -3  13   28.50    9.80
  -7  -2  13  542.85   33.30
  -7  -2  13  468.65   31.50
   6   2 -13  124.59   19.80
  -6  -2  13  122.59   24.20
  -6  -2  13  107.49   16.50
   5   2 -13   29.00   11.50
  -5  -2  13   16.40   10.80
  -5  -2  13   45.50   12.30
  -5  -2  13   18.50   13.20
   4   2 -13   32.30   11.40
  -4  -2  13   35.30   11.10
  -4  -2  13   16.50    8.70
  -4  -2  13   34.20   12.50
   3   2 -13   24.20    9.40
   3   2 -13   33.30    4.60
  -3  -2  13   35.00   12.20
  -3  -2  13   29.40    9.40
  -3  -2  13   46.50   11.30
   2   2 -13  187.38   12.00
   2   2 -13  159.58   21.60
  -2  -2  13  187.68   11.00
  -2  -2  13  164.68   16.90
  -2  -2  13  157.58   20.20
  -2  -2  13  190.08   17.20
   1   2 -13  379.86   25.10
   1   2 -13  384.56   20.40
  -1  -2  13  425.46   17.90
  -1  -2  13  451.75   25.70
  -1  -2  13  424.76   23.10
  -1  -2  13  401.26   27.40
   0  -2  13  101.59   13.40
   0  -2  13  144.99   20.20
   0  -2  13   90.59   11.50
   0  -2  13  125.19   16.30
  -1   2 -13   -4.30    8.90
   1  -2  13    8.70    7.80
   1  -2  13    4.00    6.40
   1  -2  13   -4.70    9.40
  -2   2 -13  141.49   19.10
   2  -2  13  164.18   20.90
   2  -2  13  131.79   15.20
   2  -2  13  148.79   16.10
  -3   2 -13   95.29   18.90
   3  -2  13   70.99   13.30
   3  -2  13   71.69   14.10
   3  -2  13   78.89   20.10
  -7  -1  13  102.09   17.60
  -7  -1  13   98.59   17.70
   6   1 -13   15.10   14.00
  -6  -1  13   13.00   11.50
  -6  -1  13   13.10   10.90
   5   1 -13  149.39   24.40
  -5  -1  13  179.88   22.20
  -5  -1  13  177.78   20.30
   4   1 -13  613.64   16.50
  -4  -1  13  589.94   29.60
  -4  -1  13  594.24   36.90
  -4  -1  13  543.45   29.50
   3   1 -13  105.79   10.40
  -3  -1  13  110.79   15.10
  -3  -1  13  112.19   15.40
  -3  -1  13  135.49   19.20
   2   1 -13  113.29   12.30
   2   1 -13  103.79   13.50
  -2  -1  13   89.59   16.40
  -2  -1  13  119.29   10.40
  -2  -1  13   97.49   14.30
  -2  -1  13  148.69   17.30
   1   1 -13  190.48   19.40
  -1  -1  13  204.18   19.80
  -1  -1  13  190.08   23.10
  -1  -1  13  185.48   16.80
  -1  -1  13  181.68   13.40
   0   1 -13   65.69   13.80
   0  -1  13   47.30   12.30
   0  -1  13   34.60    9.20
   0  -1  13   51.09    9.30
  -1   1 -13  123.39   17.40
   1  -1  13   88.19   15.60
   1  -1  13  114.59   14.00
  -2   1 -13  213.78   24.20
   2  -1  13  180.98   18.00
   2  -1  13  191.98   16.50
   2  -1  13  139.19   18.80
  -3   1 -13   28.50   14.70
   3  -1  13   46.80   17.40
   3  -1  13   21.70   14.40
   3  -1  13   26.70   10.30
   7   0 -13  211.78   26.80
  -7   0  13  210.98   25.50
  -7   0  13  237.78   24.40
   6   0 -13  133.69   19.90
  -6   0  13  176.38   21.90
  -6   0  13  177.78   20.80
   5   0 -13  114.59   12.50
   5   0 -13   96.29    9.10
   5   0 -13   99.79   15.50
  -5   0  13  113.89   15.90
  -5   0  13  102.99   16.10
   4   0 -13   20.20    6.00
   4   0 -13   13.20   10.60
   4   0 -13   37.30    7.60
  -4   0  13   16.20    9.50
  -4   0  13   21.10   10.40
   3   0 -13   20.50    7.70
   3   0 -13   31.50   10.60
  -3   0  13   22.80    9.10
  -3   0  13   26.30   10.80
   2   0 -13  135.59   18.10
   2   0 -13  144.89   15.20
  -2   0  13  137.79   12.00
  -2   0  13  149.88   17.80
  -2   0  13  145.69   15.80
   1   0 -13  319.27   24.30
  -1   0  13  324.87   20.00
  -1   0  13  323.97   17.90
  -1   0  13  316.47   24.30
   0   0 -13  377.66   26.60
   0   0  13  414.06   26.40
   0   0  13  402.96   21.20
  -1   0 -13   10.70   11.10
   1   0  13   25.10    8.60
   1   0  13   11.70   11.30
   1   0  13   17.20    8.80
  -2   0 -13  143.89   24.50
   2   0  13  131.59   15.80
   2   0  13  157.18   22.20
   2   0  13  147.09   18.20
   7  -1 -13   79.19   19.60
  -7   1  13   57.49   17.30
  -7   1  13   46.10   14.50
   6  -1 -13   77.19   16.80
   6  -1 -13   97.39   10.80
  -6   1  13  102.29   17.30
  -6   1  13   83.29   21.60
   5  -1 -13  188.18   13.00
   5  -1 -13  209.18   22.10
   5  -1 -13  201.58   15.20
  -5   1  13  180.68   20.00
  -5   1  13  212.78   22.70
   4  -1 -13  253.17   22.90
   4  -1 -13  235.98   14.60
   4  -1 -13  241.28   17.40
  -4   1  13  247.28   22.60
  -4   1  13  249.78   20.40
   3  -1 -13  627.44   31.90
   3  -1 -13  626.04   36.40
  -3   1  13  629.84   23.50
  -3   1  13  633.64   29.10
  -3   1  13  565.04   31.00
   2  -1 -13   17.60   10.00
  -2   1  13   27.10   10.80
  -2   1  13    9.80    8.30
  -2   1  13   12.60    6.70
   1  -1 -13   -0.20    9.80
  -1   1  13   -2.70    6.50
  -1   1  13    5.40    8.40
  -1   1  13   -6.80    6.90
   0  -1 -13    0.30    9.20
   0   1  13   16.40    8.10
   0   1  13   23.80    8.80
   0   1  13    8.20   10.60
  -1  -1 -13   95.79   17.40
   1   1  13   83.29   12.90
   1   1  13   72.89   13.10
   1   1  13   41.90   14.30
  -2  -1 -13  123.19   19.40
   2   1  13  128.49   15.60
   2   1  13  152.48   24.30
   2   1  13   93.59   15.40
   7  -2 -13  220.88   27.20
   7  -2 -13  170.18   15.80
  -7   2  13  195.48   25.40
  -7   2  13  222.08   23.80
   6  -2 -13  577.24   33.90
   6  -2 -13  541.95   22.30
  -6   2  13  552.94   33.70
   5  -2 -13   25.60    8.10
   5  -2 -13    7.00   10.00
  -5   2  13   -2.70   11.40
  -5   2  13   30.80   11.20
   4  -2 -13  147.29   13.80
   4  -2 -13  184.68   20.70
  -4   2  13  115.99   16.70
  -4   2  13  139.49   17.60
   3  -2 -13  -12.40    8.20
  -3   2  13   -5.10    7.90
  -3   2  13   -4.50    8.40
  -3   2  13   -3.40    6.00
   2  -2 -13  130.59   18.10
  -2   2  13  132.09   15.60
  -2   2  13  145.49   19.40
  -2   2  13  113.79   13.80
  -1   2  13  153.18   15.80
  -1   2  13  140.89   18.80
  -1   2  13  145.99   16.10
   0  -2 -13  637.74   34.40
   0   2  13  600.54   34.50
   0   2  13  617.84   28.80
   0   2  13  628.54   26.10
  -1  -2 -13   10.40   12.70
   1   2  13   12.20    9.90
   1   2  13   13.60    8.70
   1   2  13   -0.70   14.10
   6  -3 -13   18.40    9.10
   6  -3 -13   29.50   14.60
  -6   3  13   14.60   11.40
  -6   3  13   31.60   15.80
   5  -3 -13  -10.00    6.80
   5  -3 -13    4.40   11.00
  -5   3  13    7.80   11.60
  -5   3  13    7.80    9.50
   4  -3 -13  250.07   23.40
  -4   3  13  267.87   24.40
  -4   3  13  286.97   22.70
   3  -3 -13  486.75   29.40
  -3   3  13  456.35   25.30
  -3   3  13  476.05   29.50
  -3   3  13  411.96   22.20
   2  -3 -13   65.79   14.80
  -2   3  13   95.19   13.10
  -2   3  13  103.99   20.80
  -2   3  13   65.69   11.50
   1  -3 -13   34.30   12.80
  -1   3  13   21.20    9.30
  -1   3  13    1.90   14.20
   0  -3 -13    1.30   11.90
   0   3  13    4.50    8.60
   0   3  13    3.50    9.10
   6  -4 -13  157.98   23.00
   6  -4 -13  167.18   17.80
  -6   4  13  161.58   21.00
  -6   4  13  144.69   21.90
   5  -4 -13  201.68   23.30
   5  -4 -13  210.28   17.80
  -5   4  13  178.28   21.10
  -5   4  13  207.68   25.10
   4  -4 -13   83.79   15.40
  -4   4  13   55.59   17.20
  -4   4  13   67.69   14.00
   3  -4 -13    7.30   10.60
  -3   4  13    8.30   10.40
  -3   4  13    8.80    8.30
  -3   4  13   21.10   14.10
   2  -4 -13   -1.70   11.10
  -2   4  13    1.10   17.70
  -2   4  13   -0.20    8.70
  -2   4  13   11.30    9.10
   1  -4 -13  478.55   31.70
  -1   4  13  456.15   24.20
  -1   4  13  476.45   27.10
   4  -5 -13  196.08   23.20
  -4   5  13  165.28   20.00
   3  -5 -13  268.57   25.50
  -3   5  13  248.68   21.80
  -3   5  13  284.67   22.50
  -2  -9  14   27.70   10.30
  -2  -9  14   23.90   12.60
  -1  -9  14   34.20   10.70
  -1  -9  14   30.70   13.20
   0  -9  14    5.70   11.40
   0  -9  14   -0.60    8.40
   1  -9  14  -11.80    9.20
   1  -9  14   10.10    7.30
   1  -9  14    8.80    8.90
  -3  -8  14   -8.40    7.70
  -3  -8  14    1.10   10.70
  -2  -8  14   81.99   13.40
  -2  -8  14   75.69   15.50
  -1  -8  14  204.48   21.50
  -1  -8  14  228.28   26.40
   0  -8  14   -1.10   14.20
   0  -8  14    9.20    8.80
   1  -8  14  -11.50    8.70
   1  -8  14    6.00    6.50
   1  -8  14   -1.40   10.10
   2  -8  14   15.60    8.40
   2  -8  14    8.70   11.10
   2  -8  14   -4.00    9.00
  -4  -7  14   72.19   16.10
  -4  -7  14   67.49   14.10
  -3  -7  14   56.79   14.30
  -3  -7  14   38.80   12.20
  -2  -7  14   12.80    9.60
  -2  -7  14   28.60   13.10
  -1  -7  14   17.50   10.10
  -1  -7  14   16.00    9.00
   0  -7  14   55.29   13.00
   0  -7  14   50.19   11.50
   0  -7  14   55.89    7.70
   1  -7  14  238.48   15.50
   1  -7  14  255.47   21.90
   1  -7  14  239.88   22.50
   2  -7  14   67.19   10.90
   2  -7  14   64.79   14.20
   2  -7  14  103.19   16.40
  -4  -6  14  238.38   23.70
  -4  -6  14  242.28   21.70
  -3  -6  14   -6.90    8.70
  -3  -6  14   -1.40    8.00
   2   6 -14  205.98   22.50
  -2  -6  14  250.57   34.00
  -2  -6  14  219.18   19.90
  -2  -6  14  181.98   20.50
   1   6 -14  104.39   16.40
  -1  -6  14  120.59   18.80
  -1  -6  14  129.69   16.90
  -1  -6  14  130.39   17.00
   0   6 -14  124.09   17.50
   0   6 -14  151.48   19.90
   0  -6  14  112.39   16.00
   0  -6  14  138.19   17.80
   0  -6  14  113.49   10.90
  -1   6 -14   17.00   13.80
   1  -6  14   41.70    8.50
   1  -6  14   36.30   11.60
   1  -6  14   25.40   10.30
   2  -6  14   36.20   10.20
   2  -6  14   39.00   12.20
   2  -6  14   21.50   10.40
  -5  -5  14   25.80   11.30
  -5  -5  14   20.10   11.30
  -4  -5  14   27.50   10.50
  -4  -5  14   63.79   17.70
   3   5 -14   10.90   11.60
  -3  -5  14   13.60    9.50
  -3  -5  14    9.50    9.20
   2   5 -14    4.90   10.20
  -2  -5  14   -2.00    9.80
  -2  -5  14   -2.20    8.30
  -2  -5  14    8.70    9.00
   1   5 -14  309.17   25.90
   1   5 -14  278.87   13.80
  -1  -5  14  299.17   12.30
  -1  -5  14  280.57   22.30
  -1  -5  14  303.87   22.40
   0   5 -14   45.10   11.20
   0   5 -14   41.90   13.10
   0  -5  14   34.20   11.00
   0  -5  14   47.70    8.20
   0  -5  14   42.70   12.30
  -1   5 -14   -0.10   11.90
   1  -5  14    0.90    8.40
   1  -5  14   11.40    7.40
   1  -5  14    5.10    9.40
  -2   5 -14  382.36   34.10
   2  -5  14  381.26   21.50
   2  -5  14  395.86   25.60
   2  -5  14  344.77   27.10
  -5  -4  14   72.09   14.50
  -5  -4  14   94.69   15.30
   4   4 -14  492.55   31.80
  -4  -4  14  482.55   28.10
  -4  -4  14  427.56   28.00
   3   4 -14   21.80   10.80
  -3  -4  14   31.30   11.60
  -3  -4  14   56.19   12.90
  -3  -4  14   20.80   16.80
   2   4 -14   -5.40    9.10
  -2  -4  14   -2.80    8.00
  -2  -4  14   -1.90   11.90
  -2  -4  14   10.80    9.70
   1   4 -14  684.33   22.70
   1   4 -14  697.23   33.10
  -1  -4  14  649.24   35.30
  -1  -4  14  669.33   31.50
  -1  -4  14  698.93   21.40
  -1  -4  14  661.63   32.10
   0   4 -14   49.70   11.90
   0   4 -14   52.19   14.50
   0  -4  14   58.29   13.20
   0  -4  14   46.10   11.30
   0  -4  14   53.09    9.00
   0  -4  14   58.79   18.90
  -1   4 -14    9.90   11.90
   1  -4  14   17.00   10.60
   1  -4  14   18.60    9.60
  -2   4 -14   21.20   14.40
   2  -4  14   50.69   11.00
   2  -4  14   87.09   16.60
   2  -4  14   65.49   13.20
  -6  -3  14  104.09   17.50
  -6  -3  14  126.09   19.80
   5   3 -14    3.90   12.50
  -5  -3  14    5.40   10.40
  -5  -3  14    4.20   11.50
   4   3 -14  284.47   24.10
  -4  -3  14  287.87   23.70
  -4  -3  14  286.47   23.10
   3   3 -14   46.70   13.10
  -3  -3  14   34.50   11.40
  -3  -3  14   37.10   11.60
  -3  -3  14   68.19   16.30
   2   3 -14  289.67   14.00
   2   3 -14  362.06   24.90
  -2  -3  14  334.77   13.40
  -2  -3  14  292.27   22.60
  -2  -3  14  308.87   22.30
  -2  -3  14  260.47   27.00
   1   3 -14  110.89   19.20
   1   3 -14  118.29   15.80
  -1  -3  14  117.59   16.40
  -1  -3  14  107.59   18.10
  -1  -3  14  117.89   11.10
  -1  -3  14  100.59   14.70
   0   3 -14  202.68   22.70
   0  -3  14  252.27   20.10
   0  -3  14  243.38   21.70
   0  -3  14  187.08   30.40
   0  -3  14  223.38   15.00
   1  -3  14   28.80   10.90
   1  -3  14   21.60   10.00
   1  -3  14   49.10   10.10
  -2   3 -14  345.77   29.30
   2  -3  14  303.27   21.90
   2  -3  14  349.47   28.30
   2  -3  14  317.37   21.60
  -6  -2  14    5.50   12.30
  -6  -2  14    1.40   10.40
   5   2 -14  212.98   24.80
  -5  -2  14  148.09   28.40
  -5  -2  14  229.68   23.60
  -4  -2  14  316.57   24.90
  -4  -2  14  340.97   24.80
   3   2 -14   64.59   15.10
  -3  -2  14   99.99   15.80
  -3  -2  14   81.59   14.90
   2   2 -14   12.60   11.20
   2   2 -14    6.80    7.70
  -2  -2  14    7.00    9.80
  -2  -2  14   21.60    9.30
  -2  -2  14    1.20   14.50
  -2  -2  14    6.80    5.50
   1   2 -14  192.18   27.30
   1   2 -14  142.79   16.70
  -1  -2  14  162.78   13.10
  -1  -2  14  151.38   30.80
  -1  -2  14  174.18   22.00
  -1  -2  14  138.29   16.40
   0   2 -14    7.80   11.30
   0  -2  14   24.00    9.30
   0  -2  14   29.00    8.30
  -1   2 -14   73.19   15.30
   1  -2  14   81.99   12.70
   1  -2  14   83.49   13.20
   1  -2  14  118.79   18.40
  -2   2 -14   52.39   17.80
   2  -2  14   27.80   11.00
   2  -2  14   44.90   11.20
   2  -2  14   70.79   18.10
   6   1 -14  158.18   23.30
  -6  -1  14  156.38   21.30
  -6  -1  14  154.28   20.30
   5   1 -14    4.80   13.00
  -5  -1  14   -2.30   10.40
  -5  -1  14    4.30   10.30
   4   1 -14   23.50   12.20
   4   1 -14    8.40    8.20
  -4  -1  14   14.00    9.60
  -4  -1  14    7.10   10.10
   3   1 -14   44.30   13.20
   3   1 -14   36.30    8.40
  -3  -1  14   41.40   12.10
  -3  -1  14   50.19   13.30
   2   1 -14   39.10    9.90
   2   1 -14   11.10   11.90
  -2  -1  14   36.40   11.90
  -2  -1  14   39.50   10.90
   1   1 -14  382.66   27.70
  -1  -1  14  392.96   19.50
  -1  -1  14  406.36   27.40
  -1  -1  14  342.17   22.40
   0   1 -14  396.06   28.90
   0  -1  14  454.65   22.60
   0  -1  14  431.76   24.20
  -1   1 -14   17.60   13.90
   1  -1  14   37.10   10.40
   1  -1  14   32.40   14.70
   1  -1  14   34.80   10.00
   6   0 -14   24.30   15.40
  -6   0  14    8.20   12.00
  -6   0  14    5.70   11.80
   5   0 -14   45.20   15.60
   5   0 -14   53.19    7.60
  -5   0  14   41.70   14.00
  -5   0  14   49.90   14.70
   4   0 -14  672.03   22.70
   4   0 -14  742.13   36.40
  -4   0  14  700.43   33.80
  -4   0  14  760.32   36.70
   3   0 -14  455.65   29.20
   3   0 -14  474.55   23.00
  -3   0  14  469.35   19.70
  -3   0  14  474.85   29.20
  -3   0  14  503.05   28.00
   2   0 -14   22.00   10.60
  -2   0  14   29.60    8.00
  -2   0  14   24.80   11.20
  -2   0  14   40.60   10.50
   1   0 -14   58.79   15.10
  -1   0  14   99.29   12.40
  -1   0  14   95.49   17.00
  -1   0  14   86.99   13.80
   0   0 -14   86.89   16.10
   0   0  14   74.09   17.40
   0   0  14   77.69   12.40
   0   0  14   56.99   12.10
  -1   0 -14    2.10   14.00
   1   0  14    6.70    8.80
   1   0  14    3.60    9.20
   1   0  14  -19.00   12.30
   6  -1 -14  141.79   13.50
   6  -1 -14  192.78   24.60
  -6   1  14  159.78   21.50
  -6   1  14  205.98   23.10
   5  -1 -14   -6.70   11.50
   5  -1 -14   -7.30    6.70
  -5   1  14    5.90   11.00
  -5   1  14   -8.70   11.80
   4  -1 -14    4.40    6.60
   4  -1 -14    8.80   12.90
  -4   1  14    5.70    8.70
  -4   1  14   12.50   11.70
   3  -1 -14   -8.10    9.30
  -3   1  14   -9.70    8.10
  -3   1  14    7.10   11.70
  -3   1  14    8.50    7.00
   2  -1 -14   54.09   13.60
  -2   1  14   47.90   11.30
  -2   1  14   53.79   10.50
  -2   1  14   60.89   15.40
   1  -1 -14  233.38   24.80
  -1   1  14  274.17   19.70
  -1   1  14  270.47   20.30
  -1   1  14  335.57   27.20
   0  -1 -14  318.57   28.40
   0   1  14  285.17   29.30
   0   1  14  301.37   20.30
   0   1  14  328.07   22.10
   5  -2 -14   70.89   11.70
   5  -2 -14   82.29   18.10
  -5   2  14   71.39   18.00
   4  -2 -14  708.03   37.30
   4  -2 -14  624.34   25.80
  -4   2  14  652.73   32.30
  -4   2  14  617.44   35.80
  -3   2  14  118.29   14.60
  -3   2  14  168.78   22.50
  -3   2  14  120.19   16.50
   2  -2 -14  128.19   18.70
  -2   2  14  122.89   19.70
  -2   2  14  150.18   17.80
  -2   2  14  130.09   16.20
   1  -2 -14   78.99   17.00
  -1   2  14   79.69   17.80
  -1   2  14   94.59   13.70
  -1   2  14   86.39   13.40
   5  -3 -14  137.19   16.50
   5  -3 -14  134.89   19.80
  -5   3  14  146.69   19.60
  -5   3  14  161.68   23.80
   4  -3 -14   -5.90   10.70
  -4   3  14    3.40   14.60
  -4   3  14    6.50   10.60
   3  -3 -14   43.10   13.20
  -3   3  14   75.29   18.00
  -3   3  14   43.40   12.60
  -3   3  14   42.20   10.20
   2  -3 -14   32.10   14.70
  -2   3  14   43.10   11.60
  -2   3  14   59.09   12.80
  -2   3  14   47.30   16.20
  -1  -8  15   23.80   12.40
  -1  -8  15   10.40    9.60
   0  -8  15   14.80   11.80
   0  -8  15    0.80    9.10
  -3  -7  15  -10.70   10.30
  -3  -7  15   -6.30    9.10
  -2  -7  15    3.80   10.10
  -2  -7  15    9.20   11.80
  -1  -7  15  410.56   28.30
   0  -7  15   64.39   23.00
   0  -7  15   84.59   10.70
   0  -7  15   70.79   16.00
   1  -7  15   32.30    9.30
   1  -7  15   29.40   13.50
   1  -7  15   19.20   11.90
  -3  -6  15    5.00   11.90
  -3  -6  15    0.70   15.50
  -2  -6  15   14.00   10.50
  -2  -6  15    0.80    9.00
  -1  -6  15   -6.90    8.40
  -1  -6  15  -15.80   19.10
   0  -6  15   58.09   14.70
   0  -6  15   69.19    9.10
   0  -6  15   38.10   18.20
   1  -6  15    0.90   11.80
   1  -6  15   33.80    9.10
  -4  -5  15   86.69   17.50
  -4  -5  15  108.59   18.50
  -3  -5  15  204.88   21.60
  -3  -5  15  181.38   21.50
  -2  -5  15   73.59   23.20
  -2  -5  15   66.39   14.60
  -1  -5  15  582.64   31.30
  -1  -5  15  545.25   30.40
   0  -5  15  132.09   12.90
   0  -5  15  116.09   18.20
   0  -5  15  165.68   20.30
   1  -5  15   10.70   10.20
   1  -5  15    2.40    7.80
   1  -5  15   -9.60   10.30
  -4  -4  15  254.97   23.80
  -4  -4  15  169.68   21.90
   3   4 -15   67.29   26.40
  -3  -4  15   46.10   13.10
   2   4 -15   20.90   13.70
  -2  -4  15   11.00    9.80
  -2  -4  15    5.80   10.40
   1   4 -15    8.50   13.70
  -1  -4  15   -1.10    9.10
  -1  -4  15    8.00   10.40
   0   4 -15  334.87   30.40
   0  -4  15  303.47   23.70
   0  -4  15  371.06   27.20
   0  -4  15  330.97   18.20
   1  -4  15  -13.50   11.00
   1  -4  15   -4.30    7.80
   1  -4  15   -1.40    9.70
  -5  -3  15   -9.00   11.50
  -5  -3  15    9.80   11.30
  -4  -3  15  486.85   30.10
  -4  -3  15  507.85   31.70
   3   3 -15   92.29   18.00
  -3  -3  15  111.79   17.80
  -3  -3  15   68.69   14.20
   2   3 -15    9.20   13.20
  -2  -3  15   11.20    9.90
  -2  -3  15    3.70    9.40
   1   3 -15  253.17   25.90
  -1  -3  15  240.08   15.20
  -1  -3  15  191.98   20.40
  -1  -3  15  187.38   21.40
   0  -3  15  512.65   28.40
   0  -3  15  502.25   31.10
   0  -3  15  471.05   25.40
  -1   3 -15   18.50   15.70
   1  -3  15   24.50   12.30
  -5  -2  15   -1.50   12.60
  -5  -2  15    4.40   11.20
   4   2 -15  228.88   26.80
  -4  -2  15  211.78   23.80
  -4  -2  15  188.28   23.80
   3   2 -15  112.19   10.00
   3   2 -15  105.79   23.00
  -3  -2  15  128.09   19.40
  -3  -2  15  119.29   16.70
   2   2 -15    1.30   11.50
  -2  -2  15  -12.30    8.60
  -2  -2  15    1.70    6.40
  -2  -2  15    2.90    9.50
   1   2 -15   87.99   16.30
  -1  -2  15  103.99   13.50
  -1  -2  15  123.59   16.60
  -1  -2  15   85.89   14.30
   0   2 -15   80.89   18.30
   0  -2  15   62.29   13.60
   0  -2  15   72.09   11.60
   0  -2  15   83.59   16.50
   5   1 -15   14.70   14.80
  -5  -1  15   -3.60   10.50
  -5  -1  15  -22.00   12.00
   4   1 -15  486.55   32.50
  -4  -1  15  520.55   32.70
  -4  -1  15  379.56   36.10
   3   1 -15  193.58   25.00
  -3  -1  15  212.38   21.90
  -3  -1  15  211.78   24.60
   2   1 -15   21.30   13.20
  -2  -1  15   13.20   12.00
  -2  -1  15   17.90   10.50
  -2  -1  15   22.10    7.70
   1   1 -15  566.44   35.80
  -1  -1  15  458.75   27.50
  -1  -1  15  512.95   24.00
  -1  -1  15  523.65   32.50
   0   1 -15  104.09   21.00
   0  -1  15  112.29   20.00
   0  -1  15   77.29   14.40
   0  -1  15   95.49   13.20
   5   0 -15    8.90   16.20
  -5   0  15    6.00   10.90
  -5   0  15  -11.60   12.80
   4   0 -15  116.49   13.40
   4   0 -15  137.19   20.40
  -4   0  15  151.58   22.40
   3   0 -15   43.70   15.40
  -3   0  15   25.60   11.90
  -3   0  15   11.00    7.60
   2   0 -15   18.40   14.40
  -2   0  15   -1.70   12.70
  -2   0  15   10.80   10.80
   1   0 -15   42.40   16.70
  -1   0  15   51.19   16.80
  -1   0  15   25.90   11.50
  -1   0  15   49.40   11.20
   4  -1 -15  208.58   17.30
   4  -1 -15  263.47   29.40
  -4   1  15  207.38   26.10
  -4   1  15  274.97   29.80
   3  -1 -15  568.24   36.00
  -3   1  15  601.74   36.70
  -3   1  15  701.43   33.10
  -2   1  15   56.19   13.50
  -2   1  15   52.49   16.90
  -2   1  15   65.79   12.10
  -2  -4  16   99.89   18.00
  -2  -4  16   94.29   16.80
  -2  -3  16   59.99   15.20
  -2  -3  16   45.10   13.60
   0   0   0    0.00    0.00


_computing_structure_solution     'SHELXT 2018/2 (Sheldrick, 2018)'
_computing_structure_solution     'SHELXT 2018/2 (Sheldrick, 2018)'
;
_shelx_hkl_checksum              7241
_olex2_submission_special_instructions 'No special instructions were received'
loop_
_space_group_symop_operation_xyz
'x, y, z'
'-x, -y, -z'
loop_
_atom_site_label
_atom_site_type_symbol
_atom_site_fract_x
_atom_site_fract_y
_atom_site_fract_z
_atom_site_U_iso_or_equiv
_atom_site_adp_type
_atom_site_occupancy
_atom_site_site_symmetry_order
_atom_site_calc_flag
_atom_site_refinement_flags_posn
_atom_site_refinement_flags_adp
_atom_site_refinement_flags_occupancy
_atom_site_disorder_assembly
_atom_site_disorder_group
I1 I 1.09474(2) 0.72617(2) 0.27681(2) 0.02176(5) Uani 1 1 d . . . . .
Zn1 Zn 0.78656(3) 0.75387(2) 0.34128(2) 0.01177(5) Uani 1 1 d . . . . .
S1 S 0.79878(7) 0.75685(5) 0.53528(4) 0.01379(10) Uani 1 1 d . . . . .
S2 S 0.56388(9) 1.07130(6) 0.20901(5) 0.02452(12) Uani 1 1 d . . . . .
N1 N 0.6105(2) 0.53370(16) 0.30055(15) 0.0140(3) Uani 1 1 d . . . . .
N2 N 0.5502(2) 0.70062(17) 0.18700(14) 0.0126(3) Uani 1 1 d . . . . .
N3 N 0.7790(2) 0.95491(17) 0.32628(15) 0.0125(3) Uani 1 1 d . . . . .
H3 H 0.890(4) 1.021(3) 0.356(2) 0.019(6) Uiso 1 1 d . . . . .
C1 C 0.8303(3) 0.5877(2) 0.50117(19) 0.0183(4) Uani 1 1 d . . . . .
H1A H 0.957536 0.598689 0.483122 0.022 Uiso 1 1 calc R U . . .
H1B H 0.836714 0.557696 0.572950 0.022 Uiso 1 1 calc R U . . .
C2 C 0.6616(3) 0.4738(2) 0.39427(19) 0.0185(4) Uani 1 1 d . . . . .
H2A H 0.704060 0.395699 0.362275 0.022 Uiso 1 1 calc R U . . .
H2B H 0.544513 0.437205 0.420675 0.022 Uiso 1 1 calc R U . . .
C3 C 0.4520(3) 0.4780(2) 0.21338(18) 0.0147(4) Uani 1 1 d . . . . .
C4 C 0.4224(3) 0.5667(2) 0.13735(17) 0.0136(4) Uani 1 1 d . . . . .
C5 C 0.2793(3) 0.5231(2) 0.02843(18) 0.0176(4) Uani 1 1 d . . . . .
H5 H 0.190201 0.428916 -0.006466 0.021 Uiso 1 1 calc R U . . .
C6 C 0.2683(3) 0.6200(2) -0.02909(19) 0.0212(5) Uani 1 1 d . . . . .
H6 H 0.173583 0.591474 -0.105429 0.025 Uiso 1 1 calc R U . . .
C7 C 0.3948(3) 0.7580(2) 0.02424(18) 0.0200(4) Uani 1 1 d . . . . .
H7 H 0.385541 0.825594 -0.013256 0.024 Uiso 1 1 calc R U . . .
C8 C 0.5366(3) 0.7951(2) 0.13480(17) 0.0146(4) Uani 1 1 d . . . . .
C9 C 0.6898(3) 0.9424(2) 0.20152(18) 0.0157(4) Uani 1 1 d . . . . .
C10 C 0.6514(3) 0.9915(2) 0.39852(18) 0.0140(4) Uani 1 1 d . . . . .
H10A H 0.722076 1.020928 0.485210 0.017 Uiso 1 1 calc R U . . .
H10B H 0.529309 0.909489 0.379260 0.017 Uiso 1 1 calc R U . . .
C11 C 0.5990(4) 1.1099(2) 0.36911(19) 0.0222(5) Uani 1 1 d . . . . .
H11A H 0.707475 1.200711 0.415068 0.027 Uiso 1 1 calc R U . . .
H11B H 0.476209 1.112831 0.388337 0.027 Uiso 1 1 calc R U . . .
C12 C 0.2940(3) 0.3376(2) 0.1842(2) 0.0231(5) Uani 1 1 d . . . . .
H12A H 0.300668 0.271566 0.113498 0.035 Uiso 1 1 calc R U . . .
H12B H 0.163541 0.345857 0.167409 0.035 Uiso 1 1 calc R U . . .
H12C H 0.314755 0.303918 0.252739 0.035 Uiso 1 1 calc R U . . .
C13 C 0.8479(3) 0.9742(2) 0.1375(2) 0.0237(5) Uani 1 1 d . . . . .
H13A H 0.785672 0.969894 0.055865 0.036 Uiso 1 1 calc R U . . .
H13B H 0.912089 0.905335 0.133477 0.036 Uiso 1 1 calc R U . . .
H13C H 0.947156 1.067772 0.182027 0.036 Uiso 1 1 calc R U . . .
loop_
_atom_site_aniso_label
_atom_site_aniso_U_11
_atom_site_aniso_U_22
_atom_site_aniso_U_33
_atom_site_aniso_U_23
_atom_site_aniso_U_13
_atom_site_aniso_U_12
I1 0.01171(7) 0.02568(8) 0.01878(7) -0.00437(6) 0.00518(5) 0.00341(5)
Zn1 0.01094(11) 0.01045(11) 0.01245(11) 0.00283(9) 0.00310(9) 0.00289(9)
S1 0.0154(2) 0.0121(2) 0.0141(2) 0.00445(18) 0.00471(19) 0.00495(18)
S2 0.0406(3) 0.0213(3) 0.0183(3) 0.0109(2) 0.0076(2) 0.0178(3)
N1 0.0151(8) 0.0108(8) 0.0160(8) 0.0036(7) 0.0058(7) 0.0045(7)
N2 0.0120(8) 0.0129(8) 0.0111(8) 0.0024(6) 0.0039(6) 0.0032(6)
N3 0.0118(8) 0.0113(8) 0.0117(8) 0.0033(6) 0.0033(7) 0.0010(7)
C1 0.0198(10) 0.0143(10) 0.0226(11) 0.0088(8) 0.0036(9) 0.0081(8)
C2 0.0223(11) 0.0117(10) 0.0225(11) 0.0084(8) 0.0059(9) 0.0061(8)
C3 0.0149(9) 0.0105(9) 0.0170(10) 0.0009(8) 0.0072(8) 0.0035(8)
C4 0.0120(9) 0.0138(9) 0.0131(9) -0.0004(8) 0.0067(8) 0.0038(7)
C5 0.0135(9) 0.0171(10) 0.0163(10) -0.0011(8) 0.0051(8) 0.0022(8)
C6 0.0197(11) 0.0291(12) 0.0108(10) 0.0020(9) 0.0015(8) 0.0089(9)
C7 0.0234(11) 0.0246(11) 0.0132(10) 0.0075(9) 0.0058(9) 0.0089(9)
C8 0.0163(10) 0.0168(10) 0.0114(9) 0.0044(8) 0.0066(8) 0.0056(8)
C9 0.0211(10) 0.0145(10) 0.0132(10) 0.0065(8) 0.0075(8) 0.0055(8)
C10 0.0160(9) 0.0135(9) 0.0123(9) 0.0037(8) 0.0048(8) 0.0050(8)
C11 0.0346(13) 0.0206(11) 0.0180(11) 0.0080(9) 0.0105(10) 0.0160(10)
C12 0.0214(11) 0.0144(10) 0.0246(12) 0.0030(9) 0.0041(9) -0.0011(8)
C13 0.0285(12) 0.0204(11) 0.0212(11) 0.0081(9) 0.0134(10) 0.0026(9)
loop_
_atom_type_symbol
_atom_type_description
_atom_type_scat_dispersion_real
_atom_type_scat_dispersion_imag
_atom_type_scat_source
C C 0.0033 0.0016 'International Tables Vol C Tables 4.2.6.8 and 6.1.1.4'
H H 0.0000 0.0000 'International Tables Vol C Tables 4.2.6.8 and 6.1.1.4'
I I -0.4742 1.8119 'International Tables Vol C Tables 4.2.6.8 and 6.1.1.4'
N N 0.0061 0.0033 'International Tables Vol C Tables 4.2.6.8 and 6.1.1.4'
S S 0.1246 0.1234 'International Tables Vol C Tables 4.2.6.8 and 6.1.1.4'
Zn Zn 0.2839 1.4301 'International Tables Vol C Tables 4.2.6.8 and 6.1.1.4'
loop_
_exptl_crystal_face_index_h
_exptl_crystal_face_index_k
_exptl_crystal_face_index_l
_exptl_crystal_face_perp_dist
-1.00 1.00 0.00 0.0690
-1.00 -1.00 1.00 0.0620
-1.00 2.00 2.00 0.0510
-1.00 0.00 1.00 0.0580
0.00 -1.00 1.00 0.0330
0.00 1.00 -1.00 0.0680
0.00 1.00 1.00 0.0550
0.00 -1.00 -1.00 0.0350
0.00 0.00 -1.00 0.0210
0.00 0.00 1.00 0.0390
1.00 -1.00 0.00 0.0290
1.00 1.00 -1.00 0.0800
loop_
_geom_angle_atom_site_label_1
_geom_angle_atom_site_label_2
_geom_angle_atom_site_label_3
_geom_angle
_geom_angle_site_symmetry_1
_geom_angle_site_symmetry_3
_geom_angle_publ_flag
S1 Zn1 I1 114.566(15) . . ?
N1 Zn1 I1 99.15(4) . . ?
N1 Zn1 S1 81.70(5) . . ?
N1 Zn1 N3 145.07(6) . . ?
N2 Zn1 I1 109.23(4) . . ?
N2 Zn1 S1 132.45(5) . . ?
N2 Zn1 N1 73.87(6) . . ?
N2 Zn1 N3 75.06(6) . . ?
N3 Zn1 I1 105.85(4) . . ?
N3 Zn1 S1 108.62(4) . . ?
C1 S1 Zn1 89.94(7) . . ?
C11 S2 C9 93.31(9) . . ?
C2 N1 Zn1 115.40(12) . . ?
C3 N1 Zn1 118.27(14) . . ?
C3 N1 C2 124.60(17) . . ?
C4 N2 Zn1 118.79(13) . . ?
C8 N2 Zn1 119.94(13) . . ?
C8 N2 C4 121.08(17) . . ?
Zn1 N3 H3 114.2(16) . . ?
C9 N3 Zn1 111.54(12) . . ?
C9 N3 H3 110.1(16) . . ?
C9 N3 C10 108.65(16) . . ?
C10 N3 Zn1 105.25(11) . . ?
C10 N3 H3 106.7(16) . . ?
S1 C1 H1A 109.0 . . ?
S1 C1 H1B 109.0 . . ?
H1A C1 H1B 107.8 . . ?
C2 C1 S1 112.77(14) . . ?
C2 C1 H1A 109.0 . . ?
C2 C1 H1B 109.0 . . ?
N1 C2 C1 108.99(16) . . ?
N1 C2 H2A 109.9 . . ?
N1 C2 H2B 109.9 . . ?
C1 C2 H2A 109.9 . . ?
C1 C2 H2B 109.9 . . ?
H2A C2 H2B 108.3 . . ?
N1 C3 C4 114.66(17) . . ?
N1 C3 C12 126.31(19) . . ?
C4 C3 C12 118.99(18) . . ?
N2 C4 C3 113.35(17) . . ?
N2 C4 C5 120.90(19) . . ?
C5 C4 C3 125.73(18) . . ?
C4 C5 H5 120.8 . . ?
C4 C5 C6 118.47(19) . . ?
C6 C5 H5 120.8 . . ?
C5 C6 H6 119.8 . . ?
C7 C6 C5 120.34(19) . . ?
C7 C6 H6 119.8 . . ?
C6 C7 H7 120.9 . . ?
C6 C7 C8 118.2(2) . . ?
C8 C7 H7 120.9 . . ?
N2 C8 C7 120.95(18) . . ?
N2 C8 C9 115.34(17) . . ?
C7 C8 C9 123.66(18) . . ?
N3 C9 S2 106.33(13) . . ?
N3 C9 C8 109.49(16) . . ?
N3 C9 C13 111.05(17) . . ?
C8 C9 S2 109.53(14) . . ?
C8 C9 C13 110.11(16) . . ?
C13 C9 S2 110.26(14) . . ?
N3 C10 H10A 110.0 . . ?
N3 C10 H10B 110.0 . . ?
N3 C10 C11 108.26(16) . . ?
H10A C10 H10B 108.4 . . ?
C11 C10 H10A 110.0 . . ?
C11 C10 H10B 110.0 . . ?
S2 C11 H11A 110.7 . . ?
S2 C11 H11B 110.7 . . ?
C10 C11 S2 104.99(14) . . ?
C10 C11 H11A 110.7 . . ?
C10 C11 H11B 110.7 . . ?
H11A C11 H11B 108.8 . . ?
C3 C12 H12A 109.5 . . ?
C3 C12 H12B 109.5 . . ?
C3 C12 H12C 109.5 . . ?
H12A C12 H12B 109.5 . . ?
H12A C12 H12C 109.5 . . ?
H12B C12 H12C 109.5 . . ?
C9 C13 H13A 109.5 . . ?
C9 C13 H13B 109.5 . . ?
C9 C13 H13C 109.5 . . ?
H13A C13 H13B 109.5 . . ?
H13A C13 H13C 109.5 . . ?
H13B C13 H13C 109.5 . . ?
loop_
_geom_bond_atom_site_label_1
_geom_bond_atom_site_label_2
_geom_bond_distance
_geom_bond_site_symmetry_2
_geom_bond_publ_flag
I1 Zn1 2.6269(3) . ?
Zn1 S1 2.3112(5) . ?
Zn1 N1 2.1881(16) . ?
Zn1 N2 2.0985(16) . ?
Zn1 N3 2.2042(17) . ?
S1 C1 1.837(2) . ?
S2 C9 1.865(2) . ?
S2 C11 1.814(2) . ?
N1 C2 1.465(3) . ?
N1 C3 1.269(3) . ?
N2 C4 1.353(2) . ?
N2 C8 1.327(3) . ?
N3 H3 0.84(2) . ?
N3 C9 1.468(3) . ?
N3 C10 1.478(2) . ?
C1 H1A 0.9900 . ?
C1 H1B 0.9900 . ?
C1 C2 1.536(3) . ?
C2 H2A 0.9900 . ?
C2 H2B 0.9900 . ?
C3 C4 1.498(3) . ?
C3 C12 1.504(3) . ?
C4 C5 1.379(3) . ?
C5 H5 0.9500 . ?
C5 C6 1.389(3) . ?
C6 H6 0.9500 . ?
C6 C7 1.385(3) . ?
C7 H7 0.9500 . ?
C7 C8 1.398(3) . ?
C8 C9 1.530(3) . ?
C9 C13 1.532(3) . ?
C10 H10A 0.9900 . ?
C10 H10B 0.9900 . ?
C10 C11 1.521(3) . ?
C11 H11A 0.9900 . ?
C11 H11B 0.9900 . ?
C12 H12A 0.9800 . ?
C12 H12B 0.9800 . ?
C12 H12C 0.9800 . ?
C13 H13A 0.9800 . ?
C13 H13B 0.9800 . ?
C13 H13C 0.9800 . ?
loop_
_geom_torsion_atom_site_label_1
_geom_torsion_atom_site_label_2
_geom_torsion_atom_site_label_3
_geom_torsion_atom_site_label_4
_geom_torsion
_geom_torsion_site_symmetry_1
_geom_torsion_site_symmetry_2
_geom_torsion_site_symmetry_3
_geom_torsion_site_symmetry_4
_geom_torsion_publ_flag
Zn1 S1 C1 C2 -57.04(15) . . . . ?
Zn1 N1 C2 C1 0.9(2) . . . . ?
Zn1 N1 C3 C4 9.0(2) . . . . ?
Zn1 N1 C3 C12 -168.71(16) . . . . ?
Zn1 N2 C4 C3 9.2(2) . . . . ?
Zn1 N2 C4 C5 -172.23(14) . . . . ?
Zn1 N2 C8 C7 172.20(15) . . . . ?
Zn1 N2 C8 C9 -5.6(2) . . . . ?
Zn1 N3 C9 S2 148.47(9) . . . . ?
Zn1 N3 C9 C8 30.22(18) . . . . ?
Zn1 N3 C9 C13 -91.58(16) . . . . ?
Zn1 N3 C10 C11 -166.73(13) . . . . ?
S1 C1 C2 N1 41.1(2) . . . . ?
N1 C3 C4 N2 -11.7(2) . . . . ?
N1 C3 C4 C5 169.74(19) . . . . ?
N2 C4 C5 C6 -0.3(3) . . . . ?
N2 C8 C9 S2 -133.43(15) . . . . ?
N2 C8 C9 N3 -17.2(2) . . . . ?
N2 C8 C9 C13 105.2(2) . . . . ?
N3 C10 C11 S2 37.85(19) . . . . ?
C2 N1 C3 C4 173.26(17) . . . . ?
C2 N1 C3 C12 -4.4(3) . . . . ?
C3 N1 C2 C1 -163.76(18) . . . . ?
C3 C4 C5 C6 178.10(19) . . . . ?
C4 N2 C8 C7 -2.7(3) . . . . ?
C4 N2 C8 C9 179.56(16) . . . . ?
C4 C5 C6 C7 -2.0(3) . . . . ?
C5 C6 C7 C8 2.0(3) . . . . ?
C6 C7 C8 N2 0.3(3) . . . . ?
C6 C7 C8 C9 177.87(19) . . . . ?
C7 C8 C9 S2 48.9(2) . . . . ?
C7 C8 C9 N3 165.10(18) . . . . ?
C7 C8 C9 C13 -72.5(3) . . . . ?
C8 N2 C4 C3 -175.91(17) . . . . ?
C8 N2 C4 C5 2.7(3) . . . . ?
C9 S2 C11 C10 -15.93(16) . . . . ?
C9 N3 C10 C11 -47.2(2) . . . . ?
C10 N3 C9 S2 32.90(17) . . . . ?
C10 N3 C9 C8 -85.35(19) . . . . ?
C10 N3 C9 C13 152.85(16) . . . . ?
C11 S2 C9 N3 -9.12(15) . . . . ?
C11 S2 C9 C8 109.10(15) . . . . ?
C11 S2 C9 C13 -129.59(16) . . . . ?
C12 C3 C4 N2 166.14(17) . . . . ?
C12 C3 C4 C5 -12.4(3) . . . . ?
