#------------------------------------------------------------------------------
#$Date: 2022-09-29 01:59:41 +0300 (Thu, 29 Sep 2022) $
#$Revision: 278255 $
#$URL: file:///home/coder/svn-repositories/cod/cif/7/71/13/7711364.cif $
#------------------------------------------------------------------------------
#
# This file is available in the Crystallography Open Database (COD),
# http://www.crystallography.net/
#
# All data on this site have been placed in the public domain by the
# contributors.
#
data_7711364
loop_
_publ_author_name
'Li, Chengchuang'
'Lei, Caijin'
'Tang, Jie'
'Zhu, Teng'
'Cheng, Guangbin'
'Yang, Hongwei'
_publ_section_title
;
 C-C bonded bis-5,6 fused triazole-triazine compound: an advanced
 heat-resistant explosive with high energy and low sensitivity.
;
_journal_name_full
'Dalton transactions (Cambridge, England : 2003)'
_journal_paper_doi               10.1039/d2dt02885a
_journal_year                    2022
_chemical_formula_moiety         '4(C2 H6 O S), C10 H4 N14'
_chemical_formula_sum            'C18 H28 N14 O4 S4'
_chemical_formula_weight         632.78
_space_group_crystal_system      triclinic
_space_group_IT_number           2
_space_group_name_Hall           '-P 1'
_space_group_name_H-M_alt        'P -1'
_atom_sites_solution_hydrogens   geom
_atom_sites_solution_primary     iterative
_audit_creation_date             2022-05-13
_audit_creation_method
;
Olex2 1.5
(compiled 2022.04.07 svn.rca3783a0 for OlexSys, GUI svn.r6498)
;
_audit_update_record
;
2022-05-31 deposited with the CCDC.	2022-09-16 downloaded from the CCDC.
;
_cell_angle_alpha                68.425(3)
_cell_angle_beta                 88.011(4)
_cell_angle_gamma                76.253(3)
_cell_formula_units_Z            1
_cell_length_a                   5.9008(6)
_cell_length_b                   11.3741(9)
_cell_length_c                   11.9467(11)
_cell_measurement_reflns_used    1205
_cell_measurement_temperature    193.00
_cell_measurement_theta_max      25.319
_cell_measurement_theta_min      3.164
_cell_volume                     723.05(12)
_computing_cell_refinement       'SAINT V8.40B (?, 2016)'
_computing_data_reduction        'SAINT V8.40B (?, 2016)'
_computing_molecular_graphics    'Olex2 1.5 (Dolomanov et al., 2009)'
_computing_publication_material  'Olex2 1.5 (Dolomanov et al., 2009)'
_computing_structure_refinement  'olex2.refine 1.5 (Bourhis et al., 2015)'
_computing_structure_solution    'olex2.solve 1.5 (Bourhis et al., 2015)'
_diffrn_ambient_temperature      193.00
_diffrn_measured_fraction_theta_full 0.999
_diffrn_measured_fraction_theta_max 0.998
_diffrn_measurement_device_type  'Bruker APEX-II CCD'
_diffrn_measurement_method       '\f and \w scans'
_diffrn_radiation_type           MoK\a
_diffrn_radiation_wavelength     0.71073
_diffrn_reflns_av_R_equivalents  0.0989
_diffrn_reflns_av_unetI/netI     0.0751
_diffrn_reflns_Laue_measured_fraction_full 0.999
_diffrn_reflns_Laue_measured_fraction_max 0.998
_diffrn_reflns_limit_h_max       7
_diffrn_reflns_limit_h_min       -7
_diffrn_reflns_limit_k_max       14
_diffrn_reflns_limit_k_min       -14
_diffrn_reflns_limit_l_max       15
_diffrn_reflns_limit_l_min       -15
_diffrn_reflns_number            15150
_diffrn_reflns_point_group_measured_fraction_full 0.999
_diffrn_reflns_point_group_measured_fraction_max 0.998
_diffrn_reflns_theta_full        25.242
_diffrn_reflns_theta_max         27.457
_diffrn_reflns_theta_min         2.147
_diffrn_source_current           1.4
_diffrn_source_power             0.07
_diffrn_source_voltage           50.0
_diffrn_standards_number         0
_exptl_absorpt_coefficient_mu    0.381
_exptl_absorpt_correction_T_max  0.7456
_exptl_absorpt_correction_T_min  0.6621
_exptl_absorpt_correction_type   multi-scan
_exptl_absorpt_process_details
;
SADABS-2016/2 (Bruker,2016/2) was used for absorption correction.
wR2(int) was 0.1245 before and 0.0730 after correction.
The Ratio of minimum to maximum transmission is 0.8880.
The \l/2 correction factor is Not present.
;
_exptl_crystal_density_diffrn    1.453
_exptl_crystal_description       block
_exptl_crystal_F_000             330
_exptl_crystal_size_max          0.16
_exptl_crystal_size_mid          0.15
_exptl_crystal_size_min          0.12
_refine_diff_density_max         0.330
_refine_diff_density_min         -0.404
_refine_diff_density_rms         0.076
_refine_ls_extinction_method     none
_refine_ls_goodness_of_fit_ref   1.037
_refine_ls_hydrogen_treatment    constr
_refine_ls_matrix_type           full
_refine_ls_number_parameters     224
_refine_ls_number_reflns         3306
_refine_ls_number_restraints     0
_refine_ls_restrained_S_all      1.037
_refine_ls_R_factor_all          0.0995
_refine_ls_R_factor_gt           0.0554
_refine_ls_shift/su_max          0.000
_refine_ls_shift/su_mean         0.000
_refine_ls_structure_factor_coef Fsqd
_refine_ls_weighting_details
'w=1/[\s^2^(Fo^2^)+(0.0479P)^2^+0.5222P] where P=(Fo^2^+2Fc^2^)/3'
_refine_ls_weighting_scheme      calc
_refine_ls_wR_factor_gt          0.1186
_refine_ls_wR_factor_ref         0.1436
_reflns_Friedel_coverage         0.000
_reflns_number_gt                2085
_reflns_number_total             3306
_reflns_threshold_expression     'I > 2\s(I)'
_cod_data_source_file            d2dt02885a2.cif
_cod_data_source_block           mo_20220507_wq_nlg_lcc_28_1_0m
_cod_database_code               7711364
_shelx_shelxl_version_number     2018/3
_shelx_space_group_comment
;
The symmetry employed for this shelxl refinement is uniquely defined
by the following loop, which should always be used as a source of
symmetry information in preference to the above space-group names.
They are only intended as comments.
;
_shelx_estimated_absorpt_t_max   0.956
_shelx_estimated_absorpt_t_min   0.942
_olex2_refinement_description
;
1. Fixed Uiso
 At 1.2 times of:
  All N(H,H) groups
 At 1.5 times of:
  All C(H,H,H) groups
2. Others
 Sof(S2A)=Sof(O2A)=Sof(C8A)=Sof(H8Aa)=Sof(H8Ab)=Sof(H8Ac)=Sof(C9A)=Sof(H9Aa)=
 Sof(H9Ab)=Sof(H9Ac)=1-FVAR(1)
 Sof(S2)=Sof(O2)=Sof(C8)=Sof(H8a)=Sof(H8b)=Sof(H8c)=Sof(C9)=Sof(H9a)=Sof(H9b)=
 Sof(H9c)=FVAR(1)
3.a X=CH2 refined with riding coordinates:
 N7(H7a,H7b)
3.b Idealised Me refined as rotating group:
 C6(H6a,H6b,H6c), C7(H7c,H7d,H7e), C8(H8a,H8b,H8c), C9(H9a,H9b,H9c), C8A(H8Aa,
 H8Ab,H8Ac), C9A(H9Aa,H9Ab,H9Ac)
;
_shelx_res_file
;
TITL mo_20220507_wq_nlg_lcc_28_1_0m_a.res in P-1
    mo_20220507_wq_nlg_lcc_28_1_0m.res
    created by SHELXL-2018/3 at 16:09:44 on 13-May-2022
REM Old TITL mo_20220507_WQ_NLG_LCC_28_1_0m in P-1
REM SHELXT solution in P-1: R1 0.259, Rweak 0.015, Alpha 0.039
REM <I/s> 0.000 for 0 systematic absences, Orientation as input
REM Formula found by SHELXT: C14 N3 O3
CELL 0.71073 5.9008 11.3741 11.9467 68.425 88.011 76.253
ZERR 1 0.0006 0.0009 0.0011 0.003 0.004 0.003
LATT 1
SFAC C H N O S
UNIT 18 28 14 4 4

L.S. 4
PLAN  5
SIZE 0.12 0.15 0.16
TEMP -80.15
CONF
list 4
MORE -1
BOND $H
fmap 2 53
acta
REM <olex2.extras>
REM <HklSrc "%.\\mo_20220507_WQ_NLG_LCC_28_1_0m.hkl">
REM </olex2.extras>

WGHT    0.047900    0.522200
FVAR       0.66456   0.76924
S1    5    0.733263    0.273966   -0.141566    11.00000    0.03227    0.02935 =
         0.03765   -0.01651   -0.00159   -0.00578
O1    4    0.523542    0.366282   -0.221372    11.00000    0.03535    0.03299 =
         0.05723   -0.02346   -0.01137    0.00058
C6    1    0.743211    0.121207   -0.153305    11.00000    0.07950    0.03330 =
         0.07891   -0.02950   -0.01707   -0.00129
AFIX 137
H6A   2    0.614443    0.086368   -0.110820    11.00000   -1.50000
H6B   2    0.892457    0.060077   -0.117090    11.00000   -1.50000
H6C   2    0.728206    0.133124   -0.238465    11.00000   -1.50000
AFIX   0
C7    1    0.978197    0.309598   -0.225793    11.00000    0.04028    0.08494 =
         0.05249   -0.03878    0.00755   -0.01580
AFIX 137
H7C   2    0.957984    0.306771   -0.305765    11.00000   -1.50000
H7D   2    1.120283    0.245005   -0.183699    11.00000   -1.50000
H7E   2    0.991716    0.396716   -0.234471    11.00000   -1.50000
AFIX   0

N1    3    0.136465    0.328347    0.021601    11.00000    0.02591    0.02725 =
         0.03379   -0.01101   -0.00438   -0.00670
N2    3    0.270118    0.466533    0.087704    11.00000    0.01900    0.02519 =
         0.02682   -0.00946   -0.00326   -0.00101
N3    3    0.424025    0.347584    0.122068    11.00000    0.02114    0.02394 =
         0.02499   -0.00937   -0.00326   -0.00462
N4    3    0.459775    0.141543    0.102200    11.00000    0.03297    0.02321 =
         0.04242   -0.01224   -0.00850   -0.00260
N5    3    0.658553    0.100136    0.167526    11.00000    0.03583    0.02447 =
         0.03744   -0.00941   -0.00326   -0.00402
N6    3    1.128306    0.071052    0.337718    11.00000    0.03948    0.05487 =
         0.06455   -0.03285   -0.02144    0.01531
N7    3    0.694566    0.389091    0.230334    11.00000    0.02277    0.02636 =
         0.03348   -0.01073   -0.00879   -0.00051
AFIX  93
H7A   2    0.609191    0.469127    0.212361    11.00000   -1.20000
H7B   2    0.825941    0.362766    0.274828    11.00000   -1.20000
AFIX   0
C1    1    0.103172    0.447526    0.028033    11.00000    0.02003    0.02955 =
         0.02525   -0.00964   -0.00005   -0.00887
C2    1    0.341933    0.265499    0.081721    11.00000    0.02434    0.02452 =
         0.02933   -0.00897   -0.00027   -0.00763
C3    1    0.739338    0.178167    0.210544    11.00000    0.02540    0.02582 =
         0.03091   -0.00819   -0.00073   -0.00367
C4    1    0.626319    0.309405    0.190989    11.00000    0.01753    0.02606 =
         0.02504   -0.00826    0.00072   -0.00513
C5    1    0.956184    0.119050    0.281297    11.00000    0.03293    0.03413 =
         0.03955   -0.01595   -0.00288    0.00130

PART 1
S2    5    0.268903    0.281215    0.431257    21.00000    0.03529    0.03976 =
         0.02965   -0.01148   -0.00535   -0.01137
O2    4    0.008409    0.337949    0.420616    21.00000    0.03408    0.04518 =
         0.05937   -0.02458   -0.02466    0.00701
C8    1    0.321373    0.135509    0.563629    21.00000    0.05165    0.03777 =
         0.03627   -0.00612   -0.00774   -0.00299
AFIX 137
H8A   2    0.489301    0.094702    0.576303    21.00000   -1.50000
H8B   2    0.237694    0.074963    0.553429    21.00000   -1.50000
H8C   2    0.265841    0.157112    0.633604    21.00000   -1.50000
AFIX   0
C9    1    0.396035    0.376815    0.487827    21.00000    0.05337    0.05973 =
         0.04135   -0.02177   -0.00751   -0.02463
AFIX 137
H9A   2    0.312822    0.386772    0.557457    21.00000   -1.50000
H9B   2    0.384507    0.462873    0.424712    21.00000   -1.50000
H9C   2    0.560805    0.333462    0.512474    21.00000   -1.50000
AFIX   0

PART 2
S2A   5    0.163436    0.293515    0.479437   -21.00000    0.04143    0.04028 =
         0.03926   -0.01750   -0.00371   -0.00927
O2A   4    0.136249    0.337713    0.346335   -21.00000    0.04123    0.03617 =
         0.03045   -0.00418   -0.01794   -0.00552
C8A   1    0.393136    0.156789    0.520569   -21.00000    0.09057    0.04019 =
         0.02629   -0.01023   -0.02460   -0.00303
AFIX 137
H8AA  2    0.357186    0.092881    0.491342   -21.00000   -1.50000
H8AB  2    0.417273    0.118678    0.608619   -21.00000   -1.50000
H8AC  2    0.535362    0.181184    0.485099   -21.00000   -1.50000
AFIX   0
C9A   1    0.311089    0.401189    0.511717   -21.00000    0.07832    0.03299 =
         0.04425   -0.02625    0.02034   -0.02258
AFIX 137
H9AA  2    0.444921    0.411592    0.461223   -21.00000   -1.50000
H9AB  2    0.365845    0.363786    0.596914   -21.00000   -1.50000
H9AC  2    0.202331    0.486403    0.494466   -21.00000   -1.50000
AFIX   0
HKLF 4




REM  mo_20220507_wq_nlg_lcc_28_1_0m_a.res in P-1
REM wR2 = 0.1436, GooF = S = 1.037, Restrained GooF = 1.037 for all data
REM R1 = 0.0554 for 2085 Fo > 4sig(Fo) and 0.0995 for all 3306 data
REM 224 parameters refined using 0 restraints

END

WGHT      0.0479      0.5222

REM Highest difference peak  0.330,  deepest hole -0.404,  1-sigma level  0.076
Q1    1   0.6566  0.3352 -0.2635  11.00000  0.05    0.33
Q2    1   0.9199  0.0460 -0.2939  11.00000  0.05    0.30
Q3    1   0.9228  0.2396 -0.1610  11.00000  0.05    0.28
Q4    1   0.6334  0.1002 -0.1941  11.00000  0.05    0.28
Q5    1   0.7125  0.0953  0.1205  11.00000  0.05    0.27
;
_shelx_res_checksum              9423
_shelx_hkl_file
;
  -1   0   0  208.48   11.90
  -1   0   0  194.18   10.30
  -1   0   0  213.98    8.40
   1   0   0  190.78   13.10
   1   0   0  195.08   12.10
   1   0   0  200.28   10.70
  -2   0   0  505.45   22.80
  -2   0   0  481.85   22.60
  -2   0   0  462.95   17.90
   2   0   0  461.65   24.50
   2   0   0  464.65   22.50
   2   0   0  456.85   22.80
  -3   0   0  261.27   14.00
  -3   0   0  285.07   19.40
  -3   0   0  267.97   18.90
   3   0   0  265.87   19.50
   3   0   0  297.87   22.50
   3   0   0  281.47   19.40
  -4   0   0  146.39   19.70
  -4   0   0  124.19   17.40
  -4   0   0  115.59   10.40
   4   0   0  114.09   18.40
   4   0   0  155.98   21.60
  -5   0   0  136.19   20.00
  -5   0   0   95.09   12.10
  -5   0   0  120.49   18.40
   5   0   0   79.99   19.50
   5   0   0  111.29   19.40
   5   0   0   99.59   18.40
  -6   0   0   25.40   10.00
  -6   0   0   22.60    7.80
  -6   0   0   13.30    8.90
   6   0   0   13.70   10.70
   6   0   0   16.80   10.50
  -7   0   0   43.20    9.70
  -7   0   0   33.00   12.40
  -7   0   0   62.39   15.70
   7   0   0   26.60   14.30
   7  -1   0    4.30   10.40
  -7   1   0    8.70    8.10
  -7   1   0   -0.80    4.30
   6  -1   0    4.40    8.20
   6  -1   0    4.80    7.90
   6  -1   0   -5.30    6.00
  -6   1   0   -3.30    5.10
  -6   1   0    1.70    5.60
  -6   1   0    5.80    5.30
   5  -1   0   16.30    9.70
   5  -1   0   21.70   11.00
   5  -1   0   10.20    8.40
  -5   1   0   36.40    7.50
  -5   1   0   16.10    8.40
  -5   1   0   14.20    7.90
   4  -1   0   82.49   18.40
   4  -1   0   98.39   16.90
  -4   1   0  119.89   16.30
  -4   1   0  112.39    9.60
  -4   1   0  107.19   15.10
   3  -1   0  157.08   18.80
   3  -1   0  119.19   15.10
   3  -1   0  120.19   17.50
  -3   1   0  168.38   24.00
  -3   1   0  127.49    8.90
  -3   1   0  143.39   16.20
   2  -1   0   39.50    7.60
   2  -1   0   43.10    7.60
  -2   1   0   55.19    5.60
  -2   1   0   49.90    7.80
  -2   1   0   43.20    7.10
   1  -1   0   25.60    4.70
   1  -1   0   34.80    3.30
   1  -1   0   24.30    4.60
  -1   1   0   20.20    3.80
  -1   1   0   25.20    4.40
  -1   1   0   33.30    3.40
  -1  -1   0    4.60    2.80
  -1  -1   0   -1.80    1.80
  -1  -1   0    0.60    2.80
   1   1   0    1.10    2.70
   1   1   0    0.10    2.90
   1   1   0    0.40    3.10
  -2  -1   0   76.69   10.10
  -2  -1   0   78.79    7.50
  -2  -1   0   79.09   10.40
  -2  -1   0  100.09   13.60
   2   1   0   70.09    9.10
   2   1   0   89.99   12.70
   2   1   0   59.59    9.30
  -3  -1   0  204.48   16.80
  -3  -1   0  238.18   13.80
  -3  -1   0  227.08   17.30
   3   1   0  255.47   20.30
   3   1   0  248.98   17.90
   3   1   0  241.68   18.50
  -4  -1   0   34.40    7.80
  -4  -1   0   34.10    9.80
  -4  -1   0   33.60    9.50
   4   1   0   40.50   11.00
  -5  -1   0   73.69   14.80
  -5  -1   0  103.89   18.70
   5   1   0   89.19   18.70
   5   1   0   82.79   15.60
   5   1   0   74.19   15.80
  -6  -1   0   53.39   15.40
  -6  -1   0   24.90   10.10
  -6  -1   0   43.30   10.20
   6   1   0   21.80   10.20
   6   1   0   45.30   17.30
   6   1   0   63.29   17.40
  -7  -1   0   29.00   13.20
   7   1   0   17.20   13.70
   7  -2   0    4.50   13.20
  -7   2   0    7.00    5.00
  -7   2   0   -6.00    4.30
   6  -2   0    2.90    7.40
   6  -2   0   -7.90    4.00
   6  -2   0   -1.40    5.50
  -6   2   0   -2.40    3.80
  -6   2   0   -2.50    4.50
  -6   2   0    2.00    4.00
   5  -2   0   -3.40    4.90
   5  -2   0    3.30    6.30
   5  -2   0    0.70    5.10
  -5   2   0    2.50    3.60
  -5   2   0    0.40    4.80
   4  -2   0  138.69   21.10
   4  -2   0  139.39   21.90
  -4   2   0  165.28   18.80
  -4   2   0  178.98   18.60
  -4   2   0  141.39   10.10
   3  -2   0   40.90    9.90
   3  -2   0   61.69   11.30
  -3   2   0   60.49    7.00
  -3   2   0   68.79   10.30
  -3   2   0   48.00    8.90
   2  -2   0   56.19    5.30
   2  -2   0   53.09    8.70
   2  -2   0   55.69    9.00
  -2   2   0   61.39    7.60
  -2   2   0   46.90    7.00
   1  -2   0  103.29    4.40
   1  -2   0  105.29    7.10
   1  -2   0  103.49    6.50
  -1   2   0  106.99    5.00
  -1   2   0   90.39    5.00
  -1   2   0  105.59    4.20
   0  -2   0 2125.99  114.49
   0  -2   0 2171.38   72.99
   0   2   0 2149.39  119.89
   0   2   0 1995.30   72.19
  -1  -2   0  569.74   21.50
  -1  -2   0  587.64   23.70
  -1  -2   0  584.84   22.80
   1   2   0  596.54   22.50
   1   2   0  597.54   23.60
   1   2   0  580.34   20.90
  -2  -2   0  471.95   24.80
  -2  -2   0  449.56   22.20
  -2  -2   0  513.15   24.00
   2   2   0  454.95   24.40
   2   2   0  437.06   21.30
   2   2   0  451.75   22.90
  -3  -2   0   76.79   10.00
  -3  -2   0   76.69   12.90
  -3  -2   0   76.79   12.40
  -3  -2   0   53.29   12.80
   3   2   0   75.79   11.90
   3   2   0   85.49   13.90
   3   2   0   87.79   16.80
  -4  -2   0   88.69   15.00
  -4  -2   0  107.69   16.90
  -4  -2   0   80.89   11.30
   4   2   0   80.29   15.70
  -5  -2   0   10.30    5.70
  -5  -2   0    4.00    6.90
  -5  -2   0    2.80    6.40
   5   2   0    1.30    6.60
   5   2   0    5.00    7.30
   5   2   0   -0.10    4.60
  -6  -2   0   25.50   11.30
  -6  -2   0   14.00    7.50
   6   2   0    4.70    8.30
  -7  -2   0   61.29   17.70
   7   2   0   74.89   20.10
   6  -3   0    6.90    8.20
   6  -3   0    0.50    5.60
  -6   3   0    4.60    5.60
  -6   3   0    3.60    5.00
  -6   3   0    0.10    2.90
   5  -3   0   30.70   12.00
   5  -3   0   34.30   11.40
   5  -3   0   18.40    9.70
  -5   3   0   43.90    6.40
  -5   3   0   29.00    7.90
  -5   3   0   32.80    8.00
   4  -3   0   11.00    7.70
   4  -3   0   10.40    6.60
  -4   3   0   21.70    4.60
  -4   3   0   23.40    6.80
  -4   3   0   20.70    5.80
   3  -3   0    0.00    4.00
   3  -3   0    1.10    4.00
  -3   3   0    3.10    3.20
  -3   3   0    2.40    2.00
  -3   3   0    3.30    3.10
   2  -3   0  160.58   11.80
   2  -3   0  139.89   11.70
  -2   3   0  152.48    8.30
  -2   3   0  174.88   11.50
  -2   3   0  170.78    6.60
   1  -3   0   24.60    4.30
   1  -3   0   25.20    2.60
   1  -3   0   20.60    3.50
   0  -3   0  937.31   28.20
   0  -3   0  946.61   28.10
  -1  -3   0   10.90    4.10
  -1  -3   0    6.40    3.50
   1   3   0   10.70    3.60
   1   3   0    6.60    2.20
   1   3   0    6.20    2.90
  -2  -3   0    5.70    3.90
  -2  -3   0    3.30    3.90
  -2  -3   0    4.00    3.80
   2   3   0    4.50    3.40
   2   3   0    1.40    3.30
   2   3   0    3.20    4.00
  -3  -3   0    3.20    4.80
  -3  -3   0    4.00    4.90
  -3  -3   0    4.60    4.70
   3   3   0    3.40    5.30
   3   3   0    5.50    4.40
   3   3   0    2.90    4.50
  -4  -3   0    2.90    5.90
  -4  -3   0    1.30    4.40
  -4  -3   0    5.00    5.70
  -4  -3   0   -1.60    4.80
   4   3   0   -0.90    4.70
   4   3   0   -0.30    5.40
   4   3   0   12.90    7.30
  -5  -3   0    2.80    5.00
  -5  -3   0    2.60    6.50
  -5  -3   0   -1.50    6.00
   5   3   0    6.10    7.10
   5   3   0   -1.20    6.10
   5   3   0    6.00    6.20
  -6  -3   0   16.80    8.20
  -6  -3   0   14.20   10.30
   6   3   0   10.00   10.30
  -7  -3   0   93.79   15.40
  -7  -3   0   64.99   18.30
   7   3   0   72.89   19.30
   6  -4   0   44.40   14.60
   6  -4   0   19.40   11.00
  -6   4   0   46.10    8.20
  -6   4   0   70.49   10.00
   5  -4   0   13.40    8.70
   5  -4   0    4.30   11.80
  -5   4   0   17.30    6.80
  -5   4   0   24.90    6.50
  -5   4   0   24.50    4.20
   4  -4   0    2.00    5.90
   4  -4   0   -3.20    4.50
  -4   4   0   -2.40    1.50
  -4   4   0   -1.30    2.60
  -4   4   0   -1.60    2.50
   3  -4   0    1.30    4.00
   3  -4   0   11.20    6.30
  -3   4   0    9.40    2.90
  -3   4   0    5.20    2.50
   2  -4   0  179.28   11.90
   2  -4   0  133.89   11.50
   1  -4   0  191.78    7.40
   1  -4   0  178.18   10.10
   0  -4   0  634.54   25.60
   0  -4   0  622.64   20.60
   0  -4   0  622.34   20.40
  -1  -4   0  110.99    8.70
  -1  -4   0   98.79    9.30
  -1  -4   0  107.29    7.30
   1   4   0  112.69    6.40
   1   4   0  107.19    9.20
   1   4   0  105.19    7.20
  -2  -4   0 1436.86   53.19
  -2  -4   0 1478.05   51.59
  -2  -4   0 1520.25   57.09
   2   4   0 1396.56   51.89
   2   4   0 1475.55   49.40
   2   4   0 1434.46   54.39
  -3  -4   0   48.80   10.60
  -3  -4   0   17.20    8.90
  -3  -4   0   26.60    8.00
   3   4   0   33.20    7.90
   3   4   0   18.60    6.40
   3   4   0   28.50    8.40
  -4  -4   0  129.29   14.70
  -4  -4   0  174.28   22.50
  -4  -4   0  128.79   21.30
  -4  -4   0  127.19   18.40
   4   4   0  168.18   23.00
   4   4   0  146.69   19.70
  -5  -4   0   -8.30    3.30
  -5  -4   0   -5.20    4.60
  -5  -4   0   -1.90    5.50
  -5  -4   0    4.40    7.60
   5   4   0   -7.20    4.00
   5   4   0   -1.30    4.80
   5   4   0    0.50    4.90
  -6  -4   0    7.10    8.70
  -6  -4   0    6.70    9.20
   6   4   0    6.90    8.10
  -7  -4   0   -6.00    5.20
  -7  -4   0   -9.00    5.30
   7   4   0   -0.10    7.30
   6  -5   0    4.20    8.00
   5  -5   0    7.20    7.20
   5  -5   0    2.40    6.30
   4  -5   0    8.60    6.70
   4  -5   0    0.50    5.90
   3  -5   0   75.59   13.10
   3  -5   0   72.79   12.90
   2  -5   0  183.48   13.30
   2  -5   0  180.58   12.60
   1  -5   0    1.80    1.40
   1  -5   0   -1.70    1.50
   1  -5   0    0.40    2.20
   0  -5   0 1396.06   42.80
   0  -5   0 1406.66   43.30
  -1  -5   0  122.59   11.60
  -1  -5   0  151.98    9.10
  -1  -5   0  161.18   10.90
   1   5   0  147.29   11.60
  -2  -5   0   38.10    8.40
  -2  -5   0   48.50    9.20
   2   5   0   49.70    6.70
   2   5   0   42.80    7.90
  -3  -5   0    5.70    4.60
  -3  -5   0    8.60    5.70
  -3  -5   0    8.90    5.40
   3   5   0   -0.50    3.80
   3   5   0   11.20    5.70
   3   5   0    6.60    4.50
  -4  -5   0  111.79   17.40
  -4  -5   0  103.49   17.70
  -4  -5   0  128.59   19.60
  -4  -5   0  169.18   18.50
   4   5   0  143.39   17.20
   4   5   0  113.39   18.20
   4   5   0  174.48   26.00
  -5  -5   0    7.50    6.70
  -5  -5   0    3.10    8.00
  -5  -5   0   -0.10    6.40
  -5  -5   0   -1.70    8.10
   5   5   0    1.70    5.90
   5   5   0    4.60    6.60
   5   5   0    4.70    5.90
  -6  -5   0    8.30    9.90
  -6  -5   0    6.30    8.50
  -6  -5   0    5.20    9.80
   6   5   0    4.80    7.50
   6   5   0    6.00   13.00
  -7  -5   0    8.90   10.80
   7   5   0    9.40    9.80
   5  -6   0   21.60   11.40
   5  -6   0    5.20    8.50
   4  -6   0    3.80    6.00
   4  -6   0   -2.30    5.20
   3  -6   0   10.30    6.60
   3  -6   0    1.40    4.70
   2  -6   0  117.19   10.20
   2  -6   0  136.49   14.50
   1  -6   0   16.30    4.40
   1  -6   0   19.10    3.10
   1  -6   0   20.80    4.00
   1  -6   0   22.60    6.90
   0  -6   0    6.00    2.60
   0  -6   0   13.80    4.80
   0  -6   0    7.20    2.80
  -1  -6   0   17.50    5.70
  -1  -6   0   27.80    4.90
  -1  -6   0   33.60    6.50
   1   6   0   40.80    8.60
  -2  -6   0  319.17   22.40
  -2  -6   0  301.97   18.20
  -2  -6   0  310.37   19.80
   2   6   0  332.77   17.60
   2   6   0  316.67   14.80
   2   6   0  365.56   21.50
  -3  -6   0  151.38   18.10
  -3  -6   0  104.99   16.80
  -3  -6   0  122.39   16.20
   3   6   0  119.79   16.10
   3   6   0  137.19   16.70
   3   6   0  165.38   12.40
  -4  -6   0    0.10    5.10
  -4  -6   0    2.50    5.50
  -4  -6   0   -1.30    4.10
  -4  -6   0   -1.00    5.10
   4   6   0    1.50    5.30
   4   6   0    0.40    4.30
   4   6   0    9.70    7.90
  -5  -6   0   36.70   13.30
   5   6   0   46.60   11.30
   5   6   0   63.29   14.00
   5   6   0   50.29   15.80
  -6  -6   0   19.70   13.70
  -6  -6   0   41.00   10.90
  -6  -6   0   23.50   12.30
  -6  -6   0   24.20   11.70
   6   6   0   21.50   11.10
   6   6   0   45.90   13.80
   6   6   0   10.50    7.10
  -7  -6   0    5.20    9.70
   7   6   0    0.30    8.50
   5  -7   0    3.90    8.00
   5  -7   0   -5.20    4.90
   4  -7   0   69.49   14.80
   4  -7   0   45.00   12.20
   3  -7   0   17.10    7.80
   3  -7   0   11.40    6.70
   2  -7   0  133.49   13.90
   1  -7   0   78.59   11.40
   1  -7   0   88.19    5.80
   1  -7   0   92.69    9.90
   1  -7   0   75.29    6.70
   0  -7   0  183.28   10.20
   0  -7   0  169.88   10.20
   0  -7   0  167.28   14.70
  -1  -7   0  153.08   18.50
  -1  -7   0  116.69    8.60
  -1  -7   0  125.09   10.30
   1   7   0  101.69   12.20
  -2  -7   0  440.06   25.20
  -2  -7   0  463.45   23.60
  -2  -7   0  481.75   29.80
   2   7   0  486.35   20.00
   2   7   0  461.15   26.70
   2   7   0  462.45   18.00
  -3  -7   0   69.89   13.20
  -3  -7   0   96.89   14.70
  -3  -7   0   94.59   19.60
   3   7   0   76.19   11.80
   3   7   0   78.69    9.60
  -4  -7   0   46.80   12.50
  -4  -7   0   29.60    9.40
  -4  -7   0   34.70   12.80
  -4  -7   0   38.10    9.30
   4   7   0   44.20   10.70
   4   7   0   40.30   10.90
  -5  -7   0   61.59   15.00
  -5  -7   0   83.99   17.90
  -5  -7   0   71.09   19.50
   5   7   0   48.60   13.10
   5   7   0   50.09   10.90
  -6  -7   0   12.20   12.30
  -6  -7   0   13.10   11.20
  -6  -7   0    2.70    7.60
   6   7   0    7.70    8.60
   6   7   0   -1.50    4.50
  -7  -7   0   -3.50    7.60
  -7  -7   0   -4.70    5.90
   7   7   0   -5.90    6.70
   4  -8   0   14.00    8.60
   4  -8   0   11.10    9.20
   3  -8   0   51.59   11.00
   3  -8   0   46.30   11.00
   2  -8   0    9.90    7.30
   2  -8   0   12.40    5.90
   2  -8   0   11.40    5.60
   1  -8   0  144.09   11.10
   1  -8   0  135.29   15.90
   1  -8   0  174.88   10.70
   1  -8   0  157.88    8.60
   0  -8   0   26.40    5.00
   0  -8   0   31.90    8.30
  -1  -8   0   30.80    5.80
  -1  -8   0   29.50    6.40
  -1  -8   0   58.29   13.00
   1   8   0   38.40   10.00
  -2  -8   0   10.20    5.60
  -2  -8   0   16.50    5.80
  -2  -8   0    7.20    5.90
   2   8   0    4.80    4.20
  -3  -8   0   -0.30    4.30
  -3  -8   0    5.80    6.50
  -3  -8   0    0.90    7.00
   3   8   0    0.60    2.60
   3   8   0    1.70    4.50
  -4  -8   0   26.70   10.70
  -4  -8   0   43.70   10.80
  -4  -8   0   44.20   12.20
  -4  -8   0   41.40   11.80
   4   8   0   26.40    8.40
   4   8   0   30.70    7.10
   4   8   0   25.20    9.10
  -5  -8   0    3.30    6.90
  -5  -8   0    1.30    7.90
  -5  -8   0   -8.70    4.70
   5   8   0    5.30    5.20
   5   8   0   -3.60    3.50
   5   8   0    7.90    7.80
  -6  -8   0   -0.70    8.30
  -6  -8   0    4.70    9.60
   6   8   0   -0.30    8.60
   6   8   0    1.50    7.40
  -7  -8   0   29.40   16.30
  -7  -8   0   18.80   11.90
   7   8   0   34.90   14.60
   4  -9   0   44.10   13.80
   3  -9   0    5.40    5.70
   3  -9   0   -2.90    6.80
   3  -9   0   -1.70    3.30
   2  -9   0   39.50    8.10
   2  -9   0   19.20    9.50
   2  -9   0   42.40    8.90
   1  -9   0   59.79    8.70
   1  -9   0   90.69   15.30
   1  -9   0   73.29    9.40
   1  -9   0   61.09    6.80
   0  -9   0   53.49    7.60
   0  -9   0   41.90    7.00
   0  -9   0   49.80   13.00
  -1  -9   0    6.80    4.40
  -1  -9   0    3.00    4.60
  -1  -9   0   14.90    4.80
  -2  -9   0  522.45   27.80
  -2  -9   0  542.85   26.80
  -2  -9   0  513.25   33.90
   2   9   0  442.86   28.70
  -3  -9   0   74.49   17.90
  -3  -9   0   69.69   13.00
  -3  -9   0   49.99   10.70
   3   9   0   48.70    6.30
   3   9   0   64.39    8.20
  -4  -9   0  140.59   21.00
  -4  -9   0  107.69   21.90
  -4  -9   0  135.59   21.00
  -4  -9   0  125.79   17.30
   4   9   0  137.09   17.40
   4   9   0  127.89   13.90
  -5  -9   0   23.60   12.70
  -5  -9   0   22.60   10.10
  -5  -9   0   13.20    8.20
  -5  -9   0   42.50   13.30
   5   9   0   29.70    8.30
   5   9   0   23.00   10.50
  -6  -9   0   14.70   12.10
  -6  -9   0   -0.70    7.50
   6   9   0    2.20    6.70
   3 -10   0   -3.80    4.70
   3 -10   0    2.00    5.30
   3 -10   0    2.30    5.30
   2 -10   0   27.90    7.80
   2 -10   0   20.50    9.90
   2 -10   0   23.60    7.90
   1 -10   0    0.00    3.90
   1 -10   0    0.40    3.70
   1 -10   0    3.60    3.90
   1 -10   0    3.20    3.80
   0 -10   0    2.70    3.90
   0 -10   0    1.00    2.90
   0 -10   0   15.10    6.30
  -1 -10   0   -0.70    3.40
  -1 -10   0    2.00    4.00
  -1 -10   0    1.80    3.20
  -2 -10   0   46.90    9.80
  -2 -10   0   55.19   10.80
   2  10   0   47.30   11.70
  -3 -10   0   32.90    9.60
  -3 -10   0   49.90   11.40
   3  10   0   55.69   13.90
  -4 -10   0   -0.60    6.70
  -4 -10   0    4.70    7.30
  -4 -10   0    0.30    5.10
  -4 -10   0   -1.60    4.60
   4  10   0    0.10    4.10
   4  10   0   -0.90    2.70
   4  10   0    8.60    9.00
  -5 -10   0    3.10    7.30
  -5 -10   0    4.20    7.10
  -5 -10   0   -6.40    4.20
   5  10   0    5.20   10.10
   5  10   0   -1.10    3.50
   5  10   0    9.50    7.60
  -6 -10   0   15.80   12.00
  -6 -10   0   65.79   28.20
   6  10   0   43.40   13.50
   2 -11   0   47.10   13.70
   2 -11   0   41.90    9.30
   2 -11   0   35.40    8.40
   1 -11   0   32.80    6.20
   1 -11   0   21.50   10.90
   1 -11   0   28.20    7.20
   1 -11   0   35.20    5.40
   0 -11   0   90.59   10.30
   0 -11   0   89.89   11.10
   0 -11   0   69.19    9.30
   0 -11   0   74.69   14.10
  -1 -11   0    0.30    4.10
  -1 -11   0   -1.00    2.80
  -1 -11   0   -0.30    4.10
  -2 -11   0  124.69   16.70
  -2 -11   0  116.29   21.20
  -2 -11   0  103.19   14.50
  -3 -11   0   51.19   13.00
  -3 -11   0   56.89   15.30
  -3 -11   0   73.79   13.90
  -3 -11   0   87.59   14.90
  -4 -11   0   60.19   13.90
  -4 -11   0   25.40    9.80
  -4 -11   0   31.70   11.90
  -4 -11   0   20.20   11.70
   4  11   0   58.19   14.50
  -5 -11   0   35.60   14.10
  -5 -11   0   29.30   14.90
   5  11   0   33.50    9.50
   1 -12   0    6.70    5.50
   1 -12   0    7.00    3.80
   0 -12   0   17.20    5.00
   0 -12   0   20.70    5.90
   0 -12   0   17.00    6.80
   0 -12   0   35.80    7.80
   0 -12   0   11.10    8.30
  -1 -12   0   10.50    6.70
  -1 -12   0   25.40    7.10
  -1 -12   0   11.30    8.30
  -1 -12   0   34.70   10.10
  -2 -12   0   13.00    7.20
  -2 -12   0    8.50    7.30
  -2 -12   0    6.80    5.80
  -2 -12   0    7.70    6.70
  -3 -12   0   26.10   14.00
  -3 -12   0   29.80   11.10
  -3 -12   0   11.90    8.80
   3  12   0   15.10    8.50
  -4 -12   0   29.10   12.80
  -4 -12   0    5.70   10.00
  -4 -12   0   15.60    9.60
  -5 -12   0   30.20   12.80
  -5 -12   0   25.00   14.60
   5  12   0   18.60    5.00
   0 -13   0   11.10    7.10
   0 -13   0   24.60    5.90
   0 -13   0    8.60    6.60
   0 -13   0    5.10    4.50
   0 -13   0   14.10   10.90
  -1 -13   0    3.40    5.70
  -1 -13   0    5.20    5.10
  -1 -13   0    4.00    5.70
  -1 -13   0    5.50    7.10
  -2 -13   0    0.70    8.70
  -2 -13   0   -2.90    4.70
  -2 -13   0    6.60    7.00
  -2 -13   0   -0.20    5.80
  -3 -13   0    1.60    5.80
  -3 -13   0   -0.90    6.00
  -3 -13   0   -4.30    4.80
  -4 -13   0   -0.80    7.80
  -4 -13   0   18.10   10.60
  -4 -13   0   16.40   12.30
  -3 -13   1    3.20   10.20
  -3 -13   1   15.60   10.30
  -3 -13   1   31.80   10.80
  -2 -13   1    0.20    7.60
  -2 -13   1    3.90    6.70
  -2 -13   1   -2.90    5.00
  -2 -13   1    5.90    5.80
  -1 -13   1   27.70   10.70
  -1 -13   1   39.40   10.10
  -1 -13   1   50.39   10.60
  -1 -13   1   48.90   10.00
  -4 -12   1    8.00    9.00
  -4 -12   1    8.00    7.70
  -4 -12   1    0.40    7.50
  -3 -12   1    6.80    6.90
  -3 -12   1   -1.60    6.60
  -3 -12   1    3.40    6.50
  -3 -12   1   -2.70    6.00
  -2 -12   1   -7.30    4.70
  -2 -12   1    1.00    6.10
  -2 -12   1   -3.90    3.50
  -2 -12   1    3.50    6.00
  -1 -12   1    1.40    5.30
  -1 -12   1    7.10    5.60
  -1 -12   1    5.70    6.40
  -1 -12   1    1.70    6.60
   0 -12   1    1.70    4.00
   0 -12   1    0.40    3.30
   0 -12   1    3.00    6.60
   0 -12   1   -1.90    4.20
   1 -12   1    0.20    3.50
   1 -12   1    1.10    5.80
   1 -12   1   -3.30    4.50
   5  11  -1    6.10    5.30
   5  11  -1    0.60    5.10
  -5 -11   1   -3.60    5.40
  -5 -11   1    4.80    9.20
   4  11  -1    0.20    2.80
   4  11  -1   -1.30    2.20
  -4 -11   1    5.70    7.50
  -4 -11   1   -2.90    6.40
  -4 -11   1   -2.00    6.10
  -4 -11   1   -3.10    6.30
   3  11  -1   19.30    9.80
  -3 -11   1   48.20   16.30
  -3 -11   1   25.30   10.50
  -3 -11   1   22.20   10.60
  -3 -11   1   28.50   10.30
  -2 -11   1   65.19   12.50
  -2 -11   1   57.59   10.80
  -2 -11   1   41.00    9.50
  -1 -11   1   73.39   11.20
  -1 -11   1   89.39   19.60
  -1 -11   1   98.49   19.30
  -1 -11   1   83.29   12.80
   0 -11   1   11.20    5.70
   0 -11   1   10.90    7.20
   0 -11   1    6.10    4.30
   0 -11   1    9.60    5.70
   1 -11   1   52.89    9.80
   1 -11   1   69.59   16.90
   1 -11   1   81.99   12.70
   2 -11   1    2.30    5.40
   2 -11   1    1.10    4.80
   2 -11   1   -0.50    5.50
   6  10  -1   46.50   13.90
  -6 -10   1   25.30   13.70
  -6 -10   1   34.30   17.10
   5  10  -1    0.90    4.50
   5  10  -1   -2.00    6.20
  -5 -10   1    3.30    8.20
  -5 -10   1   -3.10    6.20
  -5 -10   1    7.30    8.80
   4  10  -1   -4.50    3.40
   4  10  -1   -0.90    2.90
   4  10  -1    0.00    3.20
  -4 -10   1    6.10    7.90
  -4 -10   1    3.40    6.90
  -4 -10   1    6.50    9.50
  -4 -10   1   -3.20    5.30
  -3 -10   1    8.90    6.70
  -3 -10   1   -5.10    4.00
  -3 -10   1   -3.00    3.70
  -3 -10   1   -2.10    3.90
  -2 -10   1   21.50   10.30
  -2 -10   1   17.90    7.50
  -1 -10   1  133.69   11.60
  -1 -10   1  110.29   13.90
  -1 -10   1  109.99   20.90
  -1 -10   1  119.99   14.60
   0 -10   1   11.60    4.40
   0 -10   1   12.40    6.00
   0 -10   1    1.90    4.20
   0 -10   1    9.10    5.90
   1 -10   1   67.09   15.40
   1 -10   1   78.09    6.00
   1 -10   1   94.99    7.60
   1 -10   1   88.39   12.60
   1 -10   1   73.49   11.10
   2 -10   1    5.30    5.40
   2 -10   1    5.30    5.50
   3 -10   1    2.60    6.00
   3 -10   1    9.20    7.40
   3 -10   1    4.50    6.90
   6   9  -1   -5.60    3.30
   6   9  -1    1.00    7.70
  -6  -9   1   -8.40    5.10
  -6  -9   1   -3.00    6.70
   5   9  -1    9.70    6.40
   5   9  -1   -2.30    5.40
   5   9  -1    5.30    5.30
  -5  -9   1   10.10    9.60
  -5  -9   1   12.00    9.10
  -5  -9   1    2.70    9.20
  -5  -9   1    1.30    6.40
   4   9  -1   39.80   10.00
   4   9  -1   27.20    6.70
  -4  -9   1   30.70   10.40
  -4  -9   1   33.80   11.40
  -4  -9   1   32.80   11.80
   3   9  -1    4.70    5.80
   3   9  -1   -2.50    3.40
  -3  -9   1   -0.90    5.20
  -3  -9   1    7.10    6.90
  -3  -9   1    9.80    7.10
   2   9  -1   18.60    7.60
  -2  -9   1   26.80    8.10
  -2  -9   1   25.70    7.60
  -2  -9   1   27.40    9.30
  -1  -9   1   33.00    6.50
  -1  -9   1   26.00    7.80
  -1  -9   1   12.40    5.60
  -1  -9   1   19.20    6.90
   0  -9   1   -2.60    2.40
   0  -9   1    1.30    3.80
   0  -9   1    2.10    5.70
   0  -9   1    2.00    3.70
   1  -9   1   83.59   19.30
   1  -9   1   67.69    9.80
   1  -9   1   90.79   11.40
   1  -9   1   66.79    5.40
   1  -9   1   76.29    7.90
   2  -9   1    0.70    4.70
   2  -9   1   -2.90    2.60
   2  -9   1    0.30    4.50
   3  -9   1   10.50    7.30
   3  -9   1   12.20    8.00
   3  -9   1    6.20    6.90
   4  -9   1    5.60    9.00
   4  -9   1    5.10    7.30
   6   8  -1    0.90    6.10
   6   8  -1    7.50    9.20
  -6  -8   1    0.20    7.10
  -6  -8   1   -4.10    6.80
   5   8  -1   31.10   12.30
   5   8  -1   50.79   10.70
   5   8  -1   52.09   14.20
  -5  -8   1   61.89   17.20
  -5  -8   1   73.99   16.40
   4   8  -1    3.20    4.00
   4   8  -1    6.30    5.70
   4   8  -1    6.50    5.80
  -4  -8   1    6.40    7.90
  -4  -8   1    4.30    6.50
  -4  -8   1    1.20    6.20
  -4  -8   1    8.60    9.90
   3   8  -1  131.89   11.00
   3   8  -1  153.98   17.00
  -3  -8   1  148.29   17.60
  -3  -8   1  172.58   24.00
  -3  -8   1  156.88   19.20
   2   8  -1   14.10    7.20
   2   8  -1    9.60    3.10
  -2  -8   1    3.30    5.20
  -2  -8   1    2.60    4.80
  -2  -8   1   10.50    5.70
  -1  -8   1   98.99   16.60
  -1  -8   1  116.89   10.00
  -1  -8   1  134.29   14.10
   0  -8   1   27.30    6.90
   0  -8   1   21.70    5.70
   0  -8   1   14.90    5.20
   0  -8   1    9.10    6.20
   1  -8   1  280.97   11.90
   1  -8   1  303.77   17.00
   1  -8   1  297.17   17.70
   1  -8   1  306.37   22.90
   1  -8   1  288.47   13.50
   2  -8   1   21.10    7.20
   2  -8   1   38.70    9.10
   3  -8   1   20.90    9.20
   3  -8   1   23.20    9.00
   4  -8   1    2.40   10.20
   4  -8   1   23.80   10.30
   7   7  -1   -1.80    6.50
  -7  -7   1    4.90    7.40
  -7  -7   1    1.60   11.20
   6   7  -1    7.50    7.60
   6   7  -1   -3.50    7.30
  -6  -7   1    2.00    8.20
  -6  -7   1   34.70   13.80
  -6  -7   1    4.70    8.40
   5   7  -1   -4.90    5.10
   5   7  -1   -4.20    3.10
  -5  -7   1    6.20    8.30
  -5  -7   1    1.40    7.20
  -5  -7   1   -5.50    4.50
   4   7  -1   21.60    6.90
   4   7  -1   14.20    7.90
   4   7  -1   21.20    9.60
  -4  -7   1   19.50    7.80
  -4  -7   1   21.40    9.20
  -4  -7   1   28.00    9.90
  -4  -7   1   23.20   10.20
   3   7  -1  133.19   16.30
   3   7  -1  123.39   10.80
   3   7  -1  123.79   17.80
  -3  -7   1  123.59   21.20
  -3  -7   1  142.99   20.80
  -3  -7   1  158.78   17.20
  -3  -7   1  137.99   17.40
   2   7  -1   10.10    4.40
   2   7  -1    4.10    3.70
   2   7  -1   10.70    3.50
  -2  -7   1    6.90    6.50
  -2  -7   1    9.90    4.80
  -2  -7   1    4.50    4.60
  -1  -7   1   21.50    5.80
  -1  -7   1   18.80    7.10
   0  -7   1   33.90    6.20
   0  -7   1   47.10    7.10
   0  -7   1   46.40    9.80
   1  -7   1   -1.10    2.50
   1  -7   1    2.70    5.20
   1  -7   1    3.50    2.00
   1  -7   1    0.90    3.10
   1  -7   1    1.30    3.30
   2  -7   1    7.30    5.00
   2  -7   1   -1.50    3.90
   3  -7   1   16.30    7.40
   3  -7   1   12.70    7.60
   4  -7   1    1.80    6.00
   4  -7   1    6.60    7.00
   5  -7   1    0.10    6.20
   5  -7   1    8.00    9.80
   7   6  -1  106.49   24.60
  -7  -6   1   80.09   27.50
  -7  -6   1  116.39   28.60
   6   6  -1    0.10    5.90
   6   6  -1    4.10    8.60
  -6  -6   1    5.50    9.40
  -6  -6   1    0.00    5.50
  -6  -6   1   -0.50    5.10
  -6  -6   1   -0.80    7.60
   5   6  -1    6.80    7.20
   5   6  -1    7.50    8.10
  -5  -6   1    7.30    8.20
  -5  -6   1    6.70    7.70
  -5  -6   1   -4.00    6.00
  -5  -6   1    8.40    6.90
   4   6  -1   10.20    7.20
   4   6  -1    2.90    5.70
  -4  -6   1    1.70    5.50
  -4  -6   1    0.70    6.00
  -4  -6   1    4.40    6.20
  -4  -6   1    0.80    5.50
   3   6  -1  154.28   18.30
   3   6  -1  155.38   12.50
  -3  -6   1  181.58   20.00
  -3  -6   1  141.39   15.70
  -3  -6   1  199.48   21.20
  -3  -6   1  234.88   29.60
   2   6  -1   56.39   11.40
   2   6  -1   38.50    6.30
   2   6  -1   29.40    6.80
  -2  -6   1   43.00    8.40
  -2  -6   1   26.80    8.30
  -2  -6   1   30.70    7.70
   1   6  -1  137.09   16.60
  -1  -6   1  119.59    9.10
  -1  -6   1  111.49   15.40
  -1  -6   1  106.69   11.70
   0  -6   1    3.10    2.60
   0  -6   1   -2.40    1.90
   1  -6   1  202.68    9.40
   1  -6   1  205.28   13.40
   1  -6   1  198.18    8.30
   1  -6   1  187.98   16.10
   2  -6   1   90.29   12.90
   2  -6   1   80.19   10.90
   3  -6   1  265.67   19.80
   3  -6   1  255.57   20.30
   4  -6   1    5.20    6.80
   4  -6   1   -2.70    4.70
   5  -6   1   -0.60    6.10
   5  -6   1    1.90    6.40
   7   5  -1    9.50   10.60
  -7  -5   1    1.90    8.00
   6   5  -1   24.70   10.10
   6   5  -1   47.60   15.40
  -6  -5   1   32.40   13.10
  -6  -5   1   13.30   11.60
  -6  -5   1   45.20   13.60
  -6  -5   1   26.50   10.60
   5   5  -1    8.60    7.60
   5   5  -1    2.90    5.60
  -5  -5   1    2.90    7.50
  -5  -5   1    6.90    9.30
  -5  -5   1    3.90    5.80
   4   5  -1   35.80   10.00
   4   5  -1   51.19   10.90
   4   5  -1   56.29   13.20
  -4  -5   1   52.39   12.30
  -4  -5   1   92.49   20.90
  -4  -5   1   76.09   14.00
  -4  -5   1   53.19   10.10
   3   5  -1   19.30    6.40
   3   5  -1   37.80    8.70
   3   5  -1   32.20    7.60
  -3  -5   1   31.60    8.00
  -3  -5   1   24.90    8.80
  -3  -5   1   34.60    9.40
   2   5  -1    1.30    3.60
   2   5  -1    0.90    2.60
   2   5  -1   -1.00    1.70
  -2  -5   1    1.30    4.40
  -2  -5   1   -1.30    2.90
  -2  -5   1   -3.70    2.40
   1   5  -1   50.89    6.40
   1   5  -1   81.29   12.10
   1   5  -1   68.49    6.60
  -1  -5   1   55.69    7.10
  -1  -5   1   37.90    7.80
  -1  -5   1   52.59    8.10
   0  -5   1   85.99    7.30
   0  -5   1  108.59   13.80
   0  -5   1  102.89    7.60
   1  -5   1  231.58   12.60
   1  -5   1  244.48   14.20
   2  -5   1    8.80    4.50
   3  -5   1  198.78   21.40
   3  -5   1  209.28   22.70
   4  -5   1   50.09   12.50
   4  -5   1   36.30   10.90
   5  -5   1   -0.20    6.50
   5  -5   1   -7.70    3.10
   6  -5   1   -4.60    6.00
   7   4  -1   12.20   12.30
  -7  -4   1   59.99   16.80
  -7  -4   1   30.10   14.60
   6   4  -1   10.50    8.60
   6   4  -1   19.40    8.50
  -6  -4   1    8.10    9.10
  -6  -4   1    0.40    6.60
  -6  -4   1    2.30    8.00
   5   4  -1   71.99   13.70
   5   4  -1   76.99   16.80
   5   4  -1   93.99   15.30
  -5  -4   1   88.59   16.60
  -5  -4   1   75.59   16.90
  -5  -4   1   94.39   13.70
  -5  -4   1   60.59   15.70
   4   4  -1   58.79   13.40
   4   4  -1   42.60    9.90
   4   4  -1   26.20    9.50
  -4  -4   1   45.20   10.20
  -4  -4   1   32.20    9.70
  -4  -4   1   51.89   12.40
  -4  -4   1   50.09   11.90
   3   4  -1  157.98   18.50
   3   4  -1  137.59   19.40
  -3  -4   1  172.78   22.50
  -3  -4   1  143.99   12.50
  -3  -4   1  140.49   17.10
  -3  -4   1  112.29   15.30
   2   4  -1    5.70    3.40
   2   4  -1    2.80    4.30
   2   4  -1    1.30    3.20
  -2  -4   1    3.40    3.90
  -2  -4   1    1.50    3.60
  -2  -4   1    2.50    4.10
  -2  -4   1    1.20    4.10
   1   4  -1 1325.77   45.20
   1   4  -1 1393.76   48.80
  -1  -4   1 1369.36   44.60
  -1  -4   1 1347.27   46.70
   0  -4   1   12.30    3.40
   0  -4   1    8.40    3.40
   0  -4   1   16.70    3.90
   1  -4   1  584.34   24.70
   1  -4   1  629.94   23.30
  -2   4  -1    5.30    1.90
  -2   4  -1    7.40    2.30
   2  -4   1    4.10    3.90
   2  -4   1    2.00    3.90
  -3   4  -1  483.25   20.50
  -3   4  -1  485.35   19.70
   3  -4   1  471.65   27.50
   3  -4   1  530.25   29.20
  -4   4  -1  447.06   20.90
  -4   4  -1  476.25   22.30
   4  -4   1  420.26   29.80
   4  -4   1  477.35   30.70
  -5   4  -1    8.10    4.70
  -5   4  -1    0.60    3.70
   5  -4   1   13.70    8.80
   5  -4   1    3.40    7.10
  -6   4  -1   23.10    6.70
  -6   4  -1   25.40    7.10
   6  -4   1    6.00    9.70
   7   3  -1   54.29   18.10
  -7  -3   1   29.40   14.30
  -7  -3   1   72.19   14.90
   6   3  -1    4.10    8.10
   6   3  -1    8.00    9.20
  -6  -3   1   15.10    8.50
  -6  -3   1   17.90    8.70
  -6  -3   1   -3.10    7.00
   5   3  -1   34.30   10.50
   5   3  -1   50.99   14.20
   5   3  -1   37.60    9.90
  -5  -3   1   36.80    9.70
  -5  -3   1   33.80   12.20
  -5  -3   1   47.30   11.90
  -5  -3   1   24.10   10.20
   4   3  -1   13.20    6.70
   4   3  -1   30.80    9.60
  -4  -3   1   12.50    7.90
  -4  -3   1   32.70   10.10
  -4  -3   1   34.20   11.10
  -4  -3   1   33.00    9.50
   3   3  -1  245.48   19.40
   3   3  -1  273.37   20.90
   3   3  -1  287.77   18.30
  -3  -3   1  262.17   16.40
  -3  -3   1  256.27   19.40
  -3  -3   1  276.17   22.20
  -3  -3   1  275.67   19.40
   2   3  -1   60.09    8.50
   2   3  -1   38.90    7.50
   2   3  -1   49.00    8.90
  -2  -3   1   53.89    9.30
  -2  -3   1   63.39    8.10
  -2  -3   1   63.39   10.10
   1   3  -1   41.70    5.30
   1   3  -1   31.90    5.70
  -1  -3   1   28.20    5.70
  -1  -3   1   35.10    6.00
  -1  -3   1   32.70    5.00
   0   3  -1  103.49    6.00
   0   3  -1  106.29    6.00
   0  -3   1  114.89    6.90
   0  -3   1  105.89    6.80
   0  -3   1   92.49    7.90
  -1   3  -1    6.50    2.00
  -1   3  -1    4.40    2.20
   1  -3   1    5.20    2.80
   1  -3   1    1.90    2.80
  -2   3  -1    3.20    2.60
  -2   3  -1    3.00    3.00
   2  -3   1    2.70    4.00
   2  -3   1   -0.50    3.10
  -3   3  -1   44.60    7.20
  -3   3  -1   48.50    8.40
   3  -3   1   45.10   10.20
   3  -3   1   40.10    9.30
  -4   3  -1   26.90    7.40
  -4   3  -1   23.10    7.40
   4  -3   1   13.80    8.20
   4  -3   1   34.30   11.40
  -5   3  -1    3.40    2.70
  -5   3  -1   -3.10    3.40
  -5   3  -1    0.20    4.20
   5  -3   1   -3.50    4.40
   5  -3   1   -6.10    4.50
  -6   3  -1   12.80    4.30
  -6   3  -1   12.40    6.60
  -6   3  -1    8.60    6.30
   6  -3   1   21.10   10.70
   6  -3   1   12.50   10.60
   7   2  -1   -0.90    7.90
  -7  -2   1    5.80    6.70
  -7  -2   1    6.00    8.80
   6   2  -1    2.30    7.40
   6   2  -1   -5.00    3.50
  -6  -2   1    1.60    5.30
  -6  -2   1   -4.60    5.50
   5   2  -1  162.88   23.50
   5   2  -1  203.78   23.70
   5   2  -1  158.78   23.90
  -5  -2   1  143.39   21.40
  -5  -2   1  163.88   22.90
  -5  -2   1  173.98   15.30
   4   2  -1   53.79   10.80
   4   2  -1   45.40   11.20
   4   2  -1   48.60   12.90
  -4  -2   1   50.19   12.30
  -4  -2   1   59.59    9.40
  -4  -2   1   91.49   15.30
   3   2  -1   35.90    8.10
   3   2  -1   13.40    6.70
   3   2  -1   23.10    8.50
  -3  -2   1   24.40    8.10
  -3  -2   1   29.60    6.10
  -3  -2   1   12.10    6.10
  -3  -2   1   29.50    8.30
   2   2  -1  664.93   26.90
   2   2  -1  641.74   29.00
  -2  -2   1  625.54   28.40
  -2  -2   1  636.54   25.00
  -2  -2   1  597.04   27.40
  -2  -2   1  638.44   30.60
   1   2  -1   87.39    7.60
   1   2  -1   75.39    5.90
   1   2  -1   60.79    7.40
  -1  -2   1   85.89    6.90
  -1  -2   1   73.29    6.50
  -1  -2   1   91.69    8.10
  -1  -2   1   87.79    7.60
   0   2  -1   55.59    4.90
   0   2  -1   65.99    4.90
   0  -2   1   71.09    4.80
   0  -2   1   51.19    6.20
   0  -2   1   57.79    5.00
   0  -2   1   62.49    5.00
  -1   2  -1  126.69    6.90
   1  -2   1  108.39    8.50
   1  -2   1  113.89    7.70
  -2   2  -1   -0.30    2.90
  -2   2  -1    0.20    2.70
   2  -2   1   -0.80    3.50
   2  -2   1    2.00    3.50
  -3   2  -1  177.78   14.20
  -3   2  -1  181.08    9.00
  -3   2  -1  173.28   14.40
   3  -2   1  191.78   20.50
   3  -2   1  204.58   20.90
  -4   2  -1   95.59   14.30
  -4   2  -1   96.39   14.00
  -4   2  -1   95.29    7.70
   4  -2   1  117.09   19.40
   4  -2   1  102.29   17.20
  -5   2  -1   55.29   11.40
  -5   2  -1   50.89    7.70
   5  -2   1   26.20   12.10
   5  -2   1   47.90   13.40
   5  -2   1   20.40   11.00
  -6   2  -1   -2.40    4.60
  -6   2  -1    4.50    6.00
  -6   2  -1    0.20    3.20
   6  -2   1   -2.70    6.60
   6  -2   1   11.50    9.60
   6  -2   1   -3.30    8.20
   7   1  -1   24.70   14.20
  -7  -1   1   12.70    8.90
  -7  -1   1   21.50   11.30
  -7  -1   1   20.40   11.70
   6   1  -1    0.50    6.90
   6   1  -1    7.10    9.80
   6   1  -1   -4.10    6.20
  -6  -1   1    0.60    5.10
  -6  -1   1   14.00   10.80
  -6  -1   1    9.40    7.00
   5   1  -1   46.80   15.90
   5   1  -1   63.39   13.30
   5   1  -1   31.80   11.80
  -5  -1   1   42.40   13.00
  -5  -1   1   49.80   11.40
  -5  -1   1   64.19   11.10
   4   1  -1   -1.20    4.70
  -4  -1   1    3.90    4.40
  -4  -1   1   -0.10    3.80
  -4  -1   1    6.70    5.90
   3   1  -1  155.38   19.10
   3   1  -1  108.69   14.60
   3   1  -1   80.79   11.80
  -3  -1   1   97.59   16.10
  -3  -1   1  115.39   14.40
  -3  -1   1  104.09   14.30
  -3  -1   1  113.59   11.80
   2   1  -1    4.50    3.50
   2   1  -1    1.70    3.60
   2   1  -1    2.70    3.30
  -2  -1   1    3.90    4.10
  -2  -1   1    7.20    3.30
  -2  -1   1    2.10    3.00
  -2  -1   1    4.40    3.70
   1   1  -1  125.89    8.80
   1   1  -1  100.19    8.30
   1   1  -1  109.89    7.40
  -1  -1   1  111.99    8.90
  -1  -1   1  131.59    8.80
  -1  -1   1  101.39    7.70
  -1  -1   1  113.69    7.40
   0   1  -1   53.59    4.30
   0   1  -1   46.70    3.80
   0   1  -1   43.80    3.70
   0   1  -1   51.59    3.40
   0  -1   1   58.89    3.50
   0  -1   1   55.29    4.00
   0  -1   1   48.40    4.10
   0  -1   1   58.49    4.10
  -1   1  -1 1259.97   39.80
  -1   1  -1 1258.67   41.30
   1  -1   1 1249.07   41.70
  -2   1  -1   32.30    6.40
  -2   1  -1   32.30    4.00
  -2   1  -1   34.60    7.00
   2  -1   1   30.80    7.00
   2  -1   1   23.30    6.40
  -3   1  -1  752.82   33.20
  -3   1  -1  771.32   26.10
  -3   1  -1  713.33   33.80
   3  -1   1  702.93   34.80
   3  -1   1  681.03   35.30
  -4   1  -1  104.29   10.60
  -4   1  -1  102.19   15.30
  -4   1  -1   90.59   15.00
   4  -1   1  132.59   20.10
   4  -1   1  115.59   17.50
   4  -1   1  140.69   22.80
  -5   1  -1    5.60    6.40
  -5   1  -1   14.00    5.50
  -5   1  -1    7.30    7.30
   5  -1   1   35.90   11.20
   5  -1   1   33.80   12.10
   5  -1   1    2.00    6.50
  -6   1  -1   14.90    9.20
  -6   1  -1   37.10    7.90
  -6   1  -1   17.90    9.60
   6  -1   1   40.30   14.50
   6  -1   1   34.60   12.70
   6  -1   1    9.40   10.20
  -7   1  -1    0.20    6.50
  -7   1  -1    0.30    6.70
  -7   1  -1    5.00    4.60
   7   0  -1    1.50    7.20
  -7   0   1    7.80    7.40
  -7   0   1    4.50    7.40
   6   0  -1  101.59   21.30
   6   0  -1   81.49   18.20
   6   0  -1   91.09   20.20
  -6   0   1   91.89   14.60
  -6   0   1  123.09   21.10
  -6   0   1   56.79   12.50
   5   0  -1   33.40   10.60
   5   0  -1   11.60    9.30
   5   0  -1   40.60   13.90
  -5   0   1   22.20    9.90
  -5   0   1   30.50    9.70
   4   0  -1   56.69   12.30
   4   0  -1   64.49   19.40
  -4   0   1   51.69   12.00
  -4   0   1   50.39    8.50
  -4   0   1   52.89   10.80
   3   0  -1   29.10    8.20
   3   0  -1   27.60    8.10
   3   0  -1   22.30    6.80
  -3   0   1   40.30    8.60
  -3   0   1   31.40    6.20
  -3   0   1   42.20    9.10
   2   0  -1   12.80    5.00
   2   0  -1   18.00    5.30
   2   0  -1   18.70    6.10
   2   0  -1    7.30    3.20
  -2   0   1   13.20    3.60
  -2   0   1   12.70    4.60
  -2   0   1   10.70    4.80
  -2   0   1   21.60    7.00
   1   0  -1   28.50    4.50
   1   0  -1   34.30    4.60
   1   0  -1   20.50    4.30
  -1   0   1   26.80    5.10
  -1   0   1   25.40    5.10
  -1   0   1   30.20    4.80
  -1   0   1   33.60    5.10
  -1   0  -1  983.50   33.40
  -1   0  -1 1005.60   34.50
   1   0   1  987.80   34.20
   1   0   1 1009.50   34.10
  -2   0  -1  147.59   11.60
  -2   0  -1  159.98   12.20
   2   0   1  140.69   14.30
   2   0   1  158.28   12.70
  -3   0  -1   11.50    6.00
  -3   0  -1    2.80    4.80
  -3   0  -1    3.00    3.20
   3   0   1    2.70    4.40
   3   0   1   20.30    8.00
   3   0   1    2.40    4.90
  -4   0  -1   13.60    7.10
  -4   0  -1   24.30    8.70
  -4   0  -1   30.40    6.20
   4   0   1    9.00    7.40
   4   0   1   15.50    8.40
   4   0   1   14.90    8.20
  -5   0  -1  218.48   26.00
  -5   0  -1  184.68   13.80
  -5   0  -1  244.78   26.40
   5   0   1  238.78   33.50
   5   0   1  189.38   25.60
   5   0   1  233.08   27.80
  -6   0  -1   13.20    6.40
  -6   0  -1   18.50    9.70
   6   0   1    9.30    8.90
   6   0   1   26.50   14.60
   6   0   1    6.50    7.10
  -7   0  -1   -3.80    3.60
  -7   0  -1   14.50   10.80
  -7   0  -1    1.80    7.20
   7   0   1   -2.80    8.80
   7  -1  -1   -5.80    6.90
  -7   1   1   -1.10    4.40
  -7   1   1    7.50    8.30
   6  -1  -1   -0.60    7.10
   6  -1  -1    4.20    7.20
   6  -1  -1   -0.60    6.00
  -6   1   1   -4.60    2.90
  -6   1   1   -1.60    5.50
  -6   1   1    1.60    4.70
   5  -1  -1   70.09   14.60
   5  -1  -1   60.19   14.90
   5  -1  -1   56.89   16.20
  -5   1   1   48.10    9.60
  -5   1   1   81.09   14.90
  -5   1   1   53.39   11.20
   4  -1  -1   11.30    7.80
   4  -1  -1   21.50   12.20
   4  -1  -1   10.60    6.40
  -4   1   1   20.60    8.60
  -4   1   1   22.20    6.10
  -4   1   1    7.00    5.30
   3  -1  -1  232.68   17.90
   3  -1  -1  186.58   21.00
   3  -1  -1  209.28   16.20
  -3   1   1  189.98   14.50
  -3   1   1  211.98   12.40
   2  -1  -1  257.37   15.40
   2  -1  -1  274.87   16.00
   2  -1  -1  263.97   17.60
   2  -1  -1  264.67   12.30
  -2   1   1  259.67   15.20
  -2   1   1  272.67   12.40
  -2   1   1  253.77   14.10
   1  -1  -1 1200.18  162.18
   1  -1  -1 1272.97   66.29
   1  -1  -1 1228.98   62.49
  -1   1   1 1150.08  151.58
  -1   1   1 1278.17   63.69
   0   1   1  617.54   18.90
  -1  -1  -1 1007.50   33.80
  -1  -1  -1 1008.40   34.20
  -1  -1  -1  975.10   34.50
   1   1   1  962.00   33.40
   1   1   1  991.00   33.90
  -2  -1  -1   43.60    8.00
  -2  -1  -1   46.30    8.10
   2   1   1   25.90    6.50
   2   1   1   28.30    6.70
   2   1   1   28.10    7.10
  -3  -1  -1  455.05   26.30
  -3  -1  -1  468.75   26.70
   3   1   1  424.76   28.10
   3   1   1  462.05   26.30
   3   1   1  500.55   28.00
  -4  -1  -1  426.16   28.50
  -4  -1  -1  509.35   30.40
  -4  -1  -1  476.35   22.30
   4   1   1  491.25   51.69
   4   1   1  460.65   33.10
   4   1   1  446.36   30.50
  -5  -1  -1  176.78   23.60
  -5  -1  -1  156.88   16.00
  -5  -1  -1  155.18   22.80
   5   1   1  196.58   29.30
   5   1   1  162.68   22.80
   5   1   1  171.68   24.90
  -6  -1  -1   -2.30    4.00
  -6  -1  -1   -3.50    5.50
  -6  -1  -1    1.40    6.00
   6   1   1   -2.30    4.90
   6   1   1   -4.20    6.60
  -7  -1  -1    9.00    7.10
  -7  -1  -1   12.40    9.50
  -7  -1  -1   25.50   12.20
   7   1   1    6.40   10.30
  -7   2   1   10.90   10.40
  -7   2   1    2.70    7.00
  -7   2   1    8.40    5.70
   6  -2  -1    8.60    8.70
   6  -2  -1   -1.70    5.50
   6  -2  -1    0.20    7.90
  -6   2   1   22.00    9.60
  -6   2   1   11.20    6.50
  -6   2   1    8.10    5.30
   5  -2  -1   -3.20    4.90
   5  -2  -1   -2.50    5.10
  -5   2   1    9.20    6.40
  -5   2   1   -1.60    3.10
   4  -2  -1   32.10   10.50
   4  -2  -1   37.70   11.70
  -4   2   1   31.70    6.20
  -4   2   1   46.00    9.20
  -4   2   1   42.90    9.70
   3  -2  -1   60.09   11.60
   3  -2  -1   83.29    9.20
   3  -2  -1  103.89   15.00
   3  -2  -1   99.69   16.10
  -3   2   1   80.59    7.20
  -3   2   1  104.09   12.50
  -3   2   1   85.69   11.20
   2  -2  -1  234.28   14.40
   2  -2  -1  235.08   11.30
   2  -2  -1  220.78   14.50
  -2   2   1  253.37   11.20
  -2   2   1  247.48   12.90
  -2   2   1  264.27   12.80
   1  -2  -1  256.77   11.40
   1  -2  -1  276.37   11.30
   1  -2  -1  282.57   10.70
  -1   2   1  285.57   10.50
   0  -2  -1   33.50    3.00
  -1  -2  -1  738.13   26.70
  -1  -2  -1  766.52   27.60
  -1  -2  -1  753.72   28.20
   1   2   1  731.53   26.80
   1   2   1  763.02   28.10
   1   2   1  744.53   28.50
  -2  -2  -1  458.25   22.10
  -2  -2  -1  404.56   23.10
  -2  -2  -1  437.66   22.50
   2   2   1  446.76   23.80
   2   2   1  444.86   21.60
   2   2   1  394.86   21.70
  -3  -2  -1   34.20    9.70
  -3  -2  -1   16.30    7.00
  -3  -2  -1   12.70    6.20
   3   2   1    4.70    4.80
   3   2   1   15.10    7.30
   3   2   1    4.10    4.20
  -4  -2  -1   12.30    5.30
  -4  -2  -1    7.70    6.90
  -4  -2  -1   29.70    9.80
   4   2   1   15.50    8.50
  -5  -2  -1    0.00    5.60
  -5  -2  -1    4.20    5.00
  -5  -2  -1    3.80    7.00
   5   2   1   26.10    9.30
   5   2   1   10.70    9.30
   5   2   1   -1.80    4.10
  -6  -2  -1   38.80   13.10
  -6  -2  -1   23.40    7.50
   6   2   1   25.70   11.20
  -7  -2  -1    4.40    8.50
   7   2   1   -4.90    7.00
   6  -3  -1   16.00   10.20
   6  -3  -1   -3.40    5.10
   6  -3  -1    0.20    6.60
  -6   3   1    9.70    4.60
  -6   3   1    2.80    4.60
  -6   3   1    7.60    6.00
   5  -3  -1  270.77   36.60
   5  -3  -1  299.57   25.90
   5  -3  -1  287.37   30.80
  -5   3   1  273.17   15.20
  -5   3   1  272.77   18.40
   4  -3  -1   40.00   12.40
   4  -3  -1   31.10   10.00
  -4   3   1   25.70    6.80
  -4   3   1   44.70    8.80
  -4   3   1   35.40    6.10
   3  -3  -1  206.78   16.40
   3  -3  -1  192.28   15.30
   3  -3  -1  187.28   10.80
  -3   3   1  202.18   12.30
  -3   3   1  194.28   10.20
  -3   3   1  182.48   11.60
   2  -3  -1  194.48   12.90
   2  -3  -1  216.08   13.70
   2  -3  -1  198.58    9.80
  -2   3   1  201.08    8.90
  -2   3   1  201.48    9.00
  -2   3   1  199.98    9.20
   1  -3  -1   10.90    2.20
   1  -3  -1   10.40    2.40
   1  -3  -1    9.40    2.20
  -1   3   1   10.70    2.50
  -1  -3  -1 1278.47   40.80
  -1  -3  -1 1243.28   41.80
   1   3   1 1297.67   40.50
  -2  -3  -1   28.10    6.80
  -2  -3  -1   16.10    5.20
  -2  -3  -1   20.20    5.90
   2   3   1    8.40    4.70
   2   3   1   21.90    5.40
   2   3   1   16.60    5.30
  -3  -3  -1    3.50    4.60
  -3  -3  -1    0.10    3.70
  -3  -3  -1   -0.20    4.00
   3   3   1   -0.20    4.40
   3   3   1    6.00    4.70
   3   3   1   -3.00    3.80
  -4  -3  -1  141.49   20.20
  -4  -3  -1   97.89   18.10
  -4  -3  -1  122.69   18.30
  -4  -3  -1  107.09   12.30
   4   3   1  110.29   23.30
   4   3   1   93.49   16.40
  -5  -3  -1  157.28   23.20
  -5  -3  -1  164.58   17.10
  -5  -3  -1  134.29   21.10
   5   3   1  181.68   23.50
   5   3   1  134.69   21.10
   5   3   1  111.39   19.80
  -6  -3  -1   98.19   20.10
  -6  -3  -1   81.39   12.80
   6   3   1  117.49   22.50
  -7  -3  -1   -4.70    8.20
  -7  -3  -1   -2.60    8.70
   7   3   1    2.40    9.80
   6  -4  -1   -4.90    4.80
   6  -4  -1    0.30    7.90
  -6   4   1   -3.80    2.30
  -6   4   1    1.50    3.90
  -6   4   1   -2.90    3.00
   5  -4  -1   64.29   15.60
   5  -4  -1   45.70   12.70
  -5   4   1   29.20    6.20
  -5   4   1   34.40    5.90
   4  -4  -1  305.47   26.00
   4  -4  -1  264.07   22.30
  -4   4   1  284.97   13.50
  -4   4   1  279.47   14.50
  -4   4   1  292.27   14.80
   3  -4  -1    9.80    3.60
   3  -4  -1   19.60    6.50
   3  -4  -1    2.60    3.90
  -3   4   1    7.00    3.60
  -3   4   1    8.90    2.70
  -3   4   1    7.70    2.30
   2  -4  -1  196.98   12.70
   2  -4  -1  198.38    9.60
   2  -4  -1  203.28   13.10
  -2   4   1  204.78    8.80
   1  -4  -1   46.60    3.90
   1  -4  -1   42.70    3.00
   1  -4  -1   51.39    3.40
   0  -4  -1   18.40    3.80
  -1  -4  -1    6.40    3.20
  -1  -4  -1    3.20    2.60
  -1  -4  -1   10.60    3.00
   1   4   1    9.30    1.80
   1   4   1   14.80    4.60
   1   4   1    5.50    2.10
  -2  -4  -1    1.80    3.70
  -2  -4  -1    3.80    3.70
  -2  -4  -1   -0.90    3.00
   2   4   1    0.30    3.20
   2   4   1    1.80    2.50
   2   4   1    0.30    2.60
  -3  -4  -1  300.27   21.40
  -3  -4  -1  305.27   22.30
  -3  -4  -1  370.46   25.50
   3   4   1  349.96   21.10
   3   4   1  351.56   24.60
   3   4   1  352.96   22.90
  -4  -4  -1    9.00    6.40
  -4  -4  -1   11.00    6.90
  -4  -4  -1   -1.10    4.80
   4   4   1   -3.10    4.20
   4   4   1    0.80    5.70
  -5  -4  -1    0.20    6.10
  -5  -4  -1    2.20    6.40
  -5  -4  -1   -3.40    5.00
  -5  -4  -1    9.30    8.40
   5   4   1   -0.80    5.10
   5   4   1    3.90    5.90
   5   4   1    0.60    5.30
  -6  -4  -1    6.70    9.60
   6   4   1    8.00    9.50
  -7  -4  -1    6.30    8.10
  -7  -4  -1   -7.30    5.50
   6  -5  -1    0.40    7.20
   6  -5  -1   21.80   13.80
   5  -5  -1   43.30   13.30
   5  -5  -1   39.90   16.10
  -5   5   1   34.20    5.00
   4  -5  -1   18.80    9.30
   4  -5  -1   13.10    7.90
   3  -5  -1  173.98   15.00
   3  -5  -1  195.68   19.90
   3  -5  -1  173.68    9.70
  -3   5   1  180.38    8.60
   2  -5  -1    7.50    4.00
   2  -5  -1    5.20    3.70
   2  -5  -1   15.50    3.40
   1  -5  -1  100.59    5.90
   1  -5  -1  103.59    4.90
   0  -5  -1    1.30    2.00
  -1  -5  -1  936.21   37.10
  -1  -5  -1  906.01   32.90
   1   5   1  930.81   35.40
  -2  -5  -1   40.20    8.60
  -2  -5  -1   47.70    8.40
  -2  -5  -1   36.70    8.10
   2   5   1   55.59    7.20
   2   5   1   61.39    9.00
   2   5   1   41.10    8.20
  -3  -5  -1  304.57   23.90
  -3  -5  -1  336.17   23.10
  -3  -5  -1  326.57   21.60
   3   5   1  295.97   20.70
   3   5   1  312.97   22.60
   3   5   1  297.97   18.40
  -4  -5  -1   33.60   10.40
  -4  -5  -1   15.10    8.40
  -4  -5  -1    9.30    7.90
   4   5   1    8.60    6.70
   4   5   1   37.10   11.00
  -5  -5  -1  235.68   28.30
  -5  -5  -1  212.98   26.90
  -5  -5  -1  179.88   25.30
  -5  -5  -1  193.58   22.00
   5   5   1  152.88   21.00
   5   5   1  174.78   24.40
   5   5   1  154.88   20.10
  -6  -5  -1  166.48   25.20
   6   5   1  184.18   31.70
   6   5   1  176.58   27.10
  -7  -5  -1   -2.60    8.50
  -7  -5  -1   -7.20    3.70
   7   5   1   -9.10    4.90
   5  -6  -1    6.00    8.00
   5  -6  -1   -3.50    5.00
   4  -6  -1   24.20    8.90
   4  -6  -1   15.00    8.70
   3  -6  -1  123.89   15.50
   3  -6  -1  117.49   15.50
   2  -6  -1   36.40    4.90
   2  -6  -1   30.00    6.40
   2  -6  -1   36.90    6.60
   1  -6  -1   33.80    4.30
   1  -6  -1   30.10    7.70
   1  -6  -1   40.70    4.00
   1  -6  -1   34.00    4.40
   0  -6  -1    3.70    3.70
  -1  -6  -1  125.59   11.80
  -1  -6  -1  115.79    7.80
  -1  -6  -1  119.89    9.30
   1   6   1  142.19   11.20
  -2  -6  -1  324.47   22.20
  -2  -6  -1  340.07   20.40
   2   6   1  337.27   14.60
   2   6   1  320.17   20.10
   2   6   1  330.57   16.60
  -3  -6  -1   54.09   10.80
  -3  -6  -1   67.59   14.30
  -3  -6  -1   87.79   14.30
   3   6   1   53.89   10.50
   3   6   1   67.59    9.80
   3   6   1   53.09   11.20
  -4  -6  -1    6.00    6.80
  -4  -6  -1   13.80    7.90
  -4  -6  -1   11.10    8.10
   4   6   1    6.90    8.40
   4   6   1   17.30    8.30
   4   6   1   25.40    9.00
  -5  -6  -1   -2.90    5.00
  -5  -6  -1    0.60    5.10
  -5  -6  -1   -5.00    5.10
  -5  -6  -1   12.50    8.40
   5   6   1    4.50    7.20
   5   6   1   -2.10    4.10
   5   6   1    2.60    6.30
  -6  -6  -1    2.70    7.90
  -6  -6  -1    4.20    7.50
   6   6   1   -3.40    3.50
   6   6   1    0.50    6.70
  -7  -6  -1   18.40   12.90
   7   6   1   11.80   11.30
   5  -7  -1    4.70    7.10
   5  -7  -1    7.90    8.50
   4  -7  -1   -2.50    4.70
   4  -7  -1    2.50    5.30
   3  -7  -1   61.69   12.00
   3  -7  -1   68.69   11.90
   2  -7  -1   20.70    5.90
   2  -7  -1   16.30    5.30
   2  -7  -1   20.50    4.00
   1  -7  -1  386.56   23.00
   1  -7  -1  370.86   15.00
   1  -7  -1  366.36   15.50
   0  -7  -1   22.30    7.30
   0  -7  -1   22.20    3.70
  -1  -7  -1  216.78   16.70
  -1  -7  -1  207.98   13.00
  -1  -7  -1  201.58   11.20
   1   7   1  216.38   15.60
  -2  -7  -1  111.09   15.00
  -2  -7  -1  127.99   13.80
  -2  -7  -1  103.99   13.50
   2   7   1  117.49    7.10
   2   7   1   84.79   11.00
  -3  -7  -1  426.16   25.80
  -3  -7  -1  342.97   27.60
  -3  -7  -1  417.46   26.50
   3   7   1  385.06   22.70
   3   7   1  411.16   20.10
   3   7   1  410.16   27.80
  -4  -7  -1   92.19   17.00
  -4  -7  -1   87.49   16.20
  -4  -7  -1   75.99   17.00
   4   7   1  118.69   17.10
   4   7   1  129.19   16.00
   4   7   1  100.39   15.90
  -5  -7  -1   57.19   13.40
  -5  -7  -1   58.19   18.70
  -5  -7  -1   32.40   12.40
  -5  -7  -1   74.99   16.40
   5   7   1   57.09   12.60
   5   7   1   45.70   11.10
   5   7   1   45.20   12.60
  -6  -7  -1  158.38   26.20
  -6  -7  -1  134.69   23.50
  -6  -7  -1  179.88   28.60
   6   7   1  139.29   23.80
   7   7   1   -7.40    7.10
   5  -8  -1    2.60   12.00
   5  -8  -1   -6.70    4.50
   4  -8  -1    8.30    7.60
   4  -8  -1    2.00    5.50
   3  -8  -1   17.90    7.70
   3  -8  -1   21.20    8.00
   2  -8  -1   85.69   11.30
   2  -8  -1   94.19   11.60
   2  -8  -1  103.79   17.00
   1  -8  -1   85.59    6.50
   1  -8  -1  112.49    8.10
   1  -8  -1  114.09   16.40
   1  -8  -1   98.89    7.10
   0  -8  -1   60.39    6.20
   0  -8  -1   57.09    9.70
   0  -8  -1   72.39    7.20
  -1  -8  -1  109.09    8.40
  -1  -8  -1  127.49   10.20
  -1  -8  -1  132.79   18.80
  -2  -8  -1   11.50    6.00
  -2  -8  -1    8.80    5.90
  -2  -8  -1    5.20    4.40
  -3  -8  -1    5.70    6.30
  -3  -8  -1    4.90    6.00
  -3  -8  -1    3.00    6.00
   3   8   1    6.80    4.80
   3   8   1   11.60    3.90
   3   8   1    3.10    3.40
  -4  -8  -1  114.39   19.00
  -4  -8  -1   96.89   18.40
  -4  -8  -1   68.69   15.20
   4   8   1  112.49   15.90
   4   8   1  105.59   13.10
   4   8   1  115.49   17.50
  -5  -8  -1   21.50   11.80
  -5  -8  -1   15.00   10.10
  -5  -8  -1    6.20    9.00
   5   8   1    6.70    7.70
   5   8   1   24.80    7.70
  -6  -8  -1   32.70   13.80
  -6  -8  -1   33.40   14.40
   6   8   1   29.70   13.10
   6   8   1   11.60    9.00
   6   8   1   23.20   11.90
  -7  -8  -1   -1.50    9.00
  -7  -8  -1   -0.40    9.40
   7   8   1    6.50   10.10
   4  -9  -1   30.40   12.00
   4  -9  -1   42.20   11.90
   3  -9  -1   -1.60    4.70
   3  -9  -1    3.20    4.90
   2  -9  -1   20.00    8.70
   2  -9  -1   15.50    7.30
   2  -9  -1   23.10    6.20
   1  -9  -1    4.50    3.00
   1  -9  -1    5.00    3.00
   1  -9  -1   15.00    7.60
   1  -9  -1   10.10    4.00
   0  -9  -1   69.49    7.70
   0  -9  -1   95.19   16.50
   0  -9  -1   71.09    6.30
  -1  -9  -1    3.20    2.90
  -1  -9  -1    2.10    4.60
  -1  -9  -1   -0.90    3.20
  -2  -9  -1   39.70   11.80
  -2  -9  -1   29.60    7.70
  -2  -9  -1   35.80    8.50
   2   9   1   28.70    7.40
  -3  -9  -1   45.00   14.70
  -3  -9  -1   51.59   12.50
  -3  -9  -1   64.39   13.40
   3   9   1   68.99    5.60
   3   9   1   76.49    7.90
   3   9   1   71.09   14.40
  -4  -9  -1    6.70   10.00
  -4  -9  -1    0.20    5.70
  -4  -9  -1   -1.60    5.70
   4   9   1    3.20    4.80
   4   9   1    4.50    6.50
   4   9   1    3.30    3.60
  -5  -9  -1   -5.70    6.00
  -5  -9  -1    3.50    7.50
  -5  -9  -1    3.40    6.90
   5   9   1    8.10    5.60
   5   9   1    6.30    6.70
   5   9   1    1.10    4.90
  -6  -9  -1   -1.50    5.40
  -6  -9  -1   -8.80    4.80
   6   9   1   -5.20    6.10
   3 -10  -1   -2.20    5.50
   3 -10  -1   -4.70    2.20
   3 -10  -1    2.90    5.40
   2 -10  -1    3.90    4.80
   2 -10  -1   -1.40    3.60
   2 -10  -1   -1.70    3.40
   1 -10  -1   17.10    4.10
   1 -10  -1   16.10    4.80
   1 -10  -1   11.10    7.40
   1 -10  -1   15.00    4.50
   0 -10  -1   51.19    7.90
   0 -10  -1   54.69    7.00
   0 -10  -1   39.50    9.60
   0 -10  -1   46.70    6.80
  -1 -10  -1   -0.70    3.30
  -1 -10  -1    1.50    4.70
  -1 -10  -1    0.70    2.70
  -2 -10  -1  118.29   15.60
  -2 -10  -1  103.09   13.60
  -2 -10  -1  113.29   19.90
   2  10   1   78.59   12.60
  -3 -10  -1   89.69   17.40
  -3 -10  -1  109.39   16.30
   3  10   1   78.39   13.70
  -4 -10  -1    0.00    5.80
  -4 -10  -1    6.20    6.70
  -4 -10  -1    3.00    6.80
   4  10   1   -3.00    2.30
   4  10   1   -0.20    3.80
  -5 -10  -1   -5.90    5.80
  -5 -10  -1    2.90    7.10
  -5 -10  -1    8.80    7.90
  -5 -10  -1    9.70    9.30
   5  10   1    5.80    5.00
   5  10   1    4.90    6.40
   5  10   1   11.00    7.40
  -6 -10  -1   11.00   11.70
  -6 -10  -1   22.80   14.00
   6  10   1   26.30   11.60
   3 -11  -1   10.60    7.50
   3 -11  -1   -0.20    5.40
   3 -11  -1    0.50    6.00
   2 -11  -1    6.10    5.00
   2 -11  -1    1.00    4.20
   2 -11  -1    4.70    5.00
   1 -11  -1    1.70    4.90
   1 -11  -1    2.10    3.50
   0 -11  -1    9.90    6.70
   0 -11  -1   15.20    4.70
   0 -11  -1    9.50    4.20
  -1 -11  -1   -4.70    3.00
  -1 -11  -1   -1.50    3.40
  -1 -11  -1    0.30    2.80
  -2 -11  -1   -2.60    3.80
  -2 -11  -1    1.70    5.10
  -2 -11  -1    1.20    4.00
   2  11   1   -2.20    1.70
  -3 -11  -1   28.40   10.80
  -3 -11  -1    8.80    7.40
  -3 -11  -1   13.50    7.90
  -4 -11  -1   16.60    9.00
  -4 -11  -1    0.60    5.80
  -4 -11  -1    5.80    7.30
   4  11   1    5.40    5.60
  -5 -11  -1    9.90    9.70
  -5 -11  -1    7.80    8.50
  -5 -11  -1    1.20    6.60
   5  11   1   19.90    7.80
   5  11   1   15.40    5.30
  -6 -11  -1    3.90   10.20
   6  11   1    2.10    7.20
   6  11   1   -0.40    4.60
   2 -12  -1    2.40    5.00
   2 -12  -1   -2.00    3.50
   2 -12  -1   -6.20    2.40
   1 -12  -1   54.49    7.60
   1 -12  -1   56.29    8.90
   1 -12  -1   52.59    8.00
   0 -12  -1   13.90    4.60
   0 -12  -1   18.80    5.10
   0 -12  -1    7.10    7.50
   0 -12  -1   17.00    5.30
  -1 -12  -1   15.10    6.50
  -1 -12  -1    7.10    6.50
  -2 -12  -1   21.10    7.60
  -2 -12  -1   12.60    8.30
  -2 -12  -1   28.20    8.00
  -3 -12  -1  109.19   21.50
  -3 -12  -1  130.69   18.90
  -3 -12  -1  128.59   19.30
   3  12   1   87.69   15.30
  -4 -12  -1    2.80    6.70
  -4 -12  -1   -5.20    5.00
  -4 -12  -1   -6.70    4.60
  -5 -12  -1   36.00   14.90
  -5 -12  -1   36.00   19.50
   5  12   1   35.80    5.70
   5  12   1   35.30    6.40
   1 -13  -1    5.20    5.20
   1 -13  -1   -0.50    3.50
   1 -13  -1   -2.90    4.20
   1 -13  -1   -1.40    3.10
   1 -13  -1   -1.80    4.70
   0 -13  -1   31.00    7.90
   0 -13  -1   20.70    5.50
   0 -13  -1   37.10    7.10
   0 -13  -1   46.50   14.60
  -1 -13  -1   24.10    7.80
  -1 -13  -1    8.20    7.10
  -2 -13  -1    5.30    8.70
  -2 -13  -1    4.20    5.90
  -2 -13  -1   -4.30    3.70
  -3 -13  -1    2.60    7.10
  -3 -13  -1   -1.50    5.90
  -3 -13  -1    1.20    6.10
  -4 -13  -1    0.00    6.30
  -4 -13  -1    0.00    7.90
  -4 -13  -1    3.70    7.30
  -2 -14  -1   55.59   12.20
  -2 -14  -1   57.59   12.70
  -2 -14  -1   87.39   15.10
  -2 -14  -1   94.09   22.30
  -4 -12   2   36.50   12.60
  -4 -12   2   68.19   21.00
  -3 -12   2    7.60    7.20
  -3 -12   2   15.40    9.80
  -3 -12   2    2.20    8.20
  -3 -12   2    7.80    8.00
  -2 -12   2   28.40    9.50
  -2 -12   2   55.39   17.50
  -2 -12   2   29.50   10.10
  -2 -12   2   30.80    9.50
  -1 -12   2   -2.40    4.30
  -1 -12   2   -1.00    6.20
  -1 -12   2    1.20    5.90
  -1 -12   2    9.60    5.90
   0 -12   2   19.40    5.70
   0 -12   2   23.30    7.70
   0 -12   2    6.60    6.70
   0 -12   2   20.40    7.00
   0 -12   2   42.30   10.40
   5  11  -2    1.30    4.10
   5  11  -2   -0.70    5.10
  -5 -11   2    6.70    9.30
  -5 -11   2   11.60   10.30
   4  11  -2    0.10    4.60
   4  11  -2    9.30    4.20
  -4 -11   2   13.10   11.30
  -4 -11   2   16.60    9.40
  -4 -11   2   -4.40    5.30
  -3 -11   2   14.50    8.50
  -3 -11   2   11.80    9.00
  -3 -11   2   13.20    8.60
  -3 -11   2   12.00    8.70
  -2 -11   2    9.20    8.20
  -2 -11   2   -4.70    3.30
  -2 -11   2    0.40    4.90
  -1 -11   2    1.70    4.10
  -1 -11   2    2.70    5.90
  -1 -11   2    5.50    6.00
  -1 -11   2   -2.50    4.70
   0 -11   2    1.60    4.80
   0 -11   2    2.20    4.20
   0 -11   2    6.70    7.40
   0 -11   2    0.60    5.10
   1 -11   2   11.30    8.20
   1 -11   2   10.50    6.10
   1 -11   2   13.00    7.70
   2 -11   2   -3.00    5.20
   2 -11   2   -6.80    2.50
   2 -11   2   -4.50    3.60
   5  10  -2   -4.70    5.00
   5  10  -2   -4.40    3.40
  -5 -10   2   -4.40    6.80
  -5 -10   2   -2.10    7.20
   4  10  -2   34.80    9.00
   4  10  -2   32.20    6.80
   4  10  -2   16.20   10.00
  -4 -10   2   34.60   11.50
  -4 -10   2   24.60   13.20
  -4 -10   2   50.59   11.30
   3  10  -2  110.99   18.50
  -3 -10   2   99.59   16.60
  -3 -10   2  157.98   27.70
  -3 -10   2  109.59   16.40
  -3 -10   2  122.79   19.40
  -2 -10   2    8.30    5.80
  -2 -10   2    0.50    5.50
  -2 -10   2   -3.30    3.80
  -2 -10   2    6.10    5.90
  -1 -10   2   16.20    7.20
  -1 -10   2   13.70    6.80
  -1 -10   2    9.00    7.60
  -1 -10   2   12.70    5.80
   0 -10   2   -2.90    2.90
   0 -10   2    3.00    4.90
   0 -10   2    1.90    4.70
   1 -10   2   -3.10    2.90
   1 -10   2   -1.10    3.90
   1 -10   2    0.90    3.80
   2 -10   2   19.90    9.20
   2 -10   2   17.90    7.80
   2 -10   2    7.80    7.70
   3 -10   2   15.50    9.70
   3 -10   2    7.80    6.80
   3 -10   2    1.20    5.70
   6   9  -2    0.90    6.90
   6   9  -2   -4.10    4.10
  -6  -9   2   -5.90   12.00
  -6  -9   2  -13.90    9.10
   5   9  -2   10.30    6.10
   5   9  -2   31.20   11.80
  -5  -9   2   11.30    9.80
  -5  -9   2   21.80   14.60
  -5  -9   2   14.30    9.30
   4   9  -2    1.50    3.70
   4   9  -2    7.00    6.80
  -4  -9   2    6.40    6.90
  -4  -9   2    4.50    7.10
  -4  -9   2    9.80    7.30
   3   9  -2    5.70    6.60
   3   9  -2   11.50    4.80
  -3  -9   2   14.10    7.60
  -3  -9   2   14.80   10.60
  -3  -9   2    9.00    7.20
  -3  -9   2    6.80    6.50
   2   9  -2   16.60    6.20
  -2  -9   2   27.60    7.90
  -2  -9   2   16.00    9.50
  -2  -9   2   20.90    7.70
  -2  -9   2    8.40    5.60
  -1  -9   2    1.30    4.80
  -1  -9   2   -4.60    3.10
  -1  -9   2    0.10    3.20
  -1  -9   2    2.80    5.80
   0  -9   2   15.20    5.60
   0  -9   2    8.30    5.30
   0  -9   2    5.50    4.80
   0  -9   2   11.00    5.10
   1  -9   2    0.80    4.30
   1  -9   2   -3.80    3.00
   1  -9   2   -0.40    4.80
   2  -9   2   22.70    7.50
   2  -9   2    4.80    6.00
   2  -9   2    1.60    4.20
   3  -9   2   14.20    7.80
   3  -9   2   19.90   10.30
   3  -9   2   12.60    8.70
   6   8  -2   45.10   12.00
   6   8  -2   18.50   11.80
  -6  -8   2   29.00   16.40
  -6  -8   2   49.20   15.70
   5   8  -2   43.20   13.20
   5   8  -2   60.69   14.60
   5   8  -2   40.00    9.90
  -5  -8   2   29.70   11.70
  -5  -8   2   28.20   12.00
  -5  -8   2   58.99   19.30
  -5  -8   2   53.79   14.90
   4   8  -2   37.20   10.50
   4   8  -2   64.09   10.20
  -4  -8   2   53.79   12.10
  -4  -8   2   63.99   16.40
  -4  -8   2   58.49   13.00
   3   8  -2   42.80   11.20
   3   8  -2   43.70    7.40
   3   8  -2   33.90    8.80
  -3  -8   2   46.20   10.60
  -3  -8   2   29.30   10.70
  -3  -8   2   65.19   12.40
   2   8  -2  110.09    9.30
   2   8  -2  100.39    7.90
   2   8  -2  143.69   20.60
  -2  -8   2   94.99   13.30
  -2  -8   2   97.19   13.40
  -2  -8   2   71.49   15.00
  -2  -8   2  132.09   18.50
  -1  -8   2    6.90    5.40
  -1  -8   2   -0.60    2.80
  -1  -8   2    4.00    4.30
  -1  -8   2    2.50    4.30
   0  -8   2  148.79   11.40
   0  -8   2  153.48   12.70
   0  -8   2  178.08   24.40
   0  -8   2  139.29   12.10
   1  -8   2    5.70    4.90
   1  -8   2   10.60    4.90
   2  -8   2   53.69   10.50
   2  -8   2   63.89   11.60
   2  -8   2   37.10    9.70
   3  -8   2    5.00    6.10
   3  -8   2   11.30    7.10
   4  -8   2   17.30   10.10
   4  -8   2    9.20    8.80
   7   7  -2   33.70   14.40
  -7  -7   2   23.90   13.70
  -7  -7   2   24.60   14.20
   6   7  -2   49.50   12.60
   6   7  -2   80.59   19.20
  -6  -7   2   42.00   14.40
  -6  -7   2   20.00   12.30
   5   7  -2   14.60    7.40
   5   7  -2    4.40    8.20
  -5  -7   2   25.70   11.40
  -5  -7   2   28.00   14.50
  -5  -7   2   15.00   10.40
   4   7  -2  135.99   19.40
   4   7  -2  115.79   14.50
  -4  -7   2  105.39   17.90
  -4  -7   2  135.29   18.00
  -4  -7   2  111.09   18.30
  -4  -7   2  154.88   28.40
   3   7  -2   86.99   13.90
   3   7  -2   86.09   11.00
  -3  -7   2   57.79   15.40
  -3  -7   2   73.09   13.60
  -3  -7   2   76.09   13.70
  -3  -7   2   77.89   12.40
   2   7  -2  209.68   14.40
   2   7  -2  201.68   23.80
   2   7  -2  184.98   12.10
  -2  -7   2  199.88   15.40
  -2  -7   2  200.98   16.30
  -2  -7   2  204.28   26.40
  -2  -7   2  172.08   15.10
   1   7  -2    2.30    2.80
  -1  -7   2    2.60    4.30
  -1  -7   2    3.90    4.50
  -1  -7   2    1.10    3.10
  -1  -7   2    3.30    4.50
   0  -7   2  174.58   11.60
   0  -7   2  158.18   12.10
   0  -7   2  159.58   12.20
   1  -7   2   97.89   17.70
   1  -7   2  103.39   13.10
   1  -7   2  113.99   12.80
   2  -7   2   13.10    6.50
   2  -7   2    6.40    5.30
   2  -7   2   11.90    6.90
   3  -7   2    5.30    5.90
   3  -7   2    2.00    5.70
   4  -7   2   -1.10    5.50
   5  -7   2    6.20    9.60
   5  -7   2   24.70   13.10
   7   6  -2   24.70   11.40
  -7  -6   2   11.60   13.00
  -7  -6   2   13.50   12.10
   6   6  -2   29.40   13.10
   6   6  -2   22.40    8.90
   6   6  -2   22.60   10.10
  -6  -6   2   28.70   11.90
  -6  -6   2   46.00   16.20
  -6  -6   2   26.30   13.00
  -6  -6   2   11.50    8.70
   5   6  -2    0.00    4.60
   5   6  -2   -4.10    5.40
  -5  -6   2    4.20    6.80
  -5  -6   2   -3.60    4.90
  -5  -6   2    3.30    6.70
   4   6  -2   33.20   10.60
   4   6  -2   41.00    9.50
   4   6  -2   49.60   10.30
  -4  -6   2   57.29   14.90
  -4  -6   2   55.99   11.40
  -4  -6   2   43.60   11.40
  -4  -6   2   56.69   12.40
   3   6  -2   21.50    6.00
   3   6  -2   18.70    7.80
   3   6  -2   22.50    6.50
  -3  -6   2   29.00    8.30
  -3  -6   2   21.20    8.30
  -3  -6   2   34.30    9.60
  -3  -6   2   31.50   11.90
   2   6  -2   61.29    8.40
   2   6  -2   74.39   14.60
  -2  -6   2   52.39   10.50
  -2  -6   2   52.69   12.80
  -2  -6   2   53.89    9.00
  -2  -6   2   57.49    9.70
   1   6  -2  201.38   11.70
   1   6  -2  240.68   13.10
   1   6  -2  231.78   17.40
  -1  -6   2  243.58   15.40
  -1  -6   2  204.88   17.60
  -1  -6   2  249.18   14.70
  -1  -6   2  248.88   15.00
   0  -6   2   37.00    9.60
   0  -6   2   39.00    7.20
   0  -6   2   21.60    5.10
   1  -6   2   14.70    5.40
   1  -6   2    4.50    3.70
   1  -6   2    9.10    4.90
   2  -6   2  113.19   15.40
   2  -6   2  134.69   15.70
   3  -6   2   -0.30    4.30
   3  -6   2    1.90    5.50
   4  -6   2   40.50   12.00
   4  -6   2   37.00   10.80
   5  -6   2   -3.50    6.20
   5  -6   2   -5.20    5.90
   7   5  -2   12.00   11.80
  -7  -5   2   20.80   12.90
  -7  -5   2   11.40   12.20
   6   5  -2   74.39   17.90
  -6  -5   2   56.09   15.80
  -6  -5   2   74.09   14.90
  -6  -5   2   57.19   15.10
  -6  -5   2   76.59   21.10
   5   5  -2    1.50    4.80
   5   5  -2   13.10    9.40
  -5  -5   2    2.80    7.00
  -5  -5   2    4.20    5.30
  -5  -5   2   -2.40    5.40
   4   5  -2  130.29   16.30
   4   5  -2  142.09   20.20
  -4  -5   2  129.59   16.90
  -4  -5   2  169.98   22.00
  -4  -5   2  197.88   30.30
  -4  -5   2  113.39   17.60
   3   5  -2  275.07   22.00
   3   5  -2  319.77   22.70
   3   5  -2  306.77   18.70
  -3  -5   2  315.97   21.70
  -3  -5   2  301.37   25.20
  -3  -5   2  285.07   21.30
   2   5  -2  147.99   14.00
   2   5  -2  180.78   12.00
   2   5  -2  184.58   23.10
  -2  -5   2  140.79   18.90
  -2  -5   2  159.48   12.90
  -2  -5   2  197.08   15.40
   1   5  -2   61.89    8.50
   1   5  -2   70.99    8.00
  -1  -5   2   66.89    8.60
  -1  -5   2   60.89    9.10
  -1  -5   2   80.89   12.80
   0   5  -2  290.67   12.50
   0   5  -2  304.37   13.20
   0  -5   2  298.17   14.00
   0  -5   2  293.67   19.10
   0  -5   2  301.17   16.00
   0  -5   2  303.47   16.00
   1  -5   2  123.79   10.00
   1  -5   2  133.59   11.10
   1  -5   2  119.69   14.40
   2  -5   2  153.78   13.00
   2  -5   2  144.09   16.60
   3  -5   2    9.60    6.40
   3  -5   2   14.30    7.40
   4  -5   2   -0.30    6.10
   4  -5   2    1.90    6.30
   5  -5   2   85.29   26.20
   5  -5   2  110.99   20.40
   7   4  -2   70.39   18.80
  -7  -4   2   66.49   18.00
   6   4  -2    4.10    7.40
   6   4  -2   15.90    8.00
   6   4  -2    4.80    6.60
  -6  -4   2    5.20    8.00
  -6  -4   2    9.20    9.20
  -6  -4   2   17.20   10.70
   5   4  -2    0.00    3.90
   5   4  -2    5.30    6.10
   5   4  -2    1.40    6.50
  -5  -4   2   -6.20    4.40
  -5  -4   2    3.00    5.40
  -5  -4   2    6.00    8.10
   4   4  -2   -0.80    5.70
   4   4  -2    0.30    3.80
   4   4  -2    0.00    2.50
  -4  -4   2    5.20    6.30
  -4  -4   2   -0.70    4.90
  -4  -4   2    1.60    4.40
  -4  -4   2   -1.40    4.50
   3   4  -2   57.79    9.70
   3   4  -2   60.09   11.80
   3   4  -2   53.79   11.40
  -3  -4   2   43.30   10.20
  -3  -4   2   57.79    9.90
  -3  -4   2   42.70   10.20
  -3  -4   2   59.19   10.90
   2   4  -2   22.30    5.30
   2   4  -2   44.00    7.10
   2   4  -2   28.50    8.60
  -2  -4   2   31.80    7.50
  -2  -4   2   54.89   11.00
  -2  -4   2   36.90    8.20
  -2  -4   2   52.79    9.10
   1   4  -2   73.19    9.30
   1   4  -2   85.59    7.40
  -1  -4   2   88.29   10.70
  -1  -4   2   69.59    8.30
  -1  -4   2   88.99    9.50
  -1  -4   2   67.59   10.80
   0   4  -2   29.80    4.90
   0   4  -2   39.80    5.90
   0  -4   2   27.30    5.40
   0  -4   2   25.50    4.60
   0  -4   2   33.20    7.30
   0  -4   2   31.50    5.70
  -1   4  -2  133.29    9.00
  -1   4  -2  111.09    7.10
   1  -4   2  118.29   12.60
   1  -4   2  108.89    9.10
  -2   4  -2   21.60    4.80
  -2   4  -2   24.80    4.60
   2  -4   2   31.60    7.80
   2  -4   2   17.40    5.50
  -3   4  -2   82.39    9.30
  -3   4  -2  101.89   11.70
   3  -4   2   71.09   13.10
   3  -4   2   62.19   12.70
  -4   4  -2  132.69   11.50
   4  -4   2  158.68   22.60
   4  -4   2  141.89   20.60
  -5   4  -2    5.40    5.40
  -5   4  -2    4.30    4.40
   5  -4   2   -3.70    5.70
  -6   4  -2   28.80    7.00
  -6   4  -2   37.40    8.60
   6  -4   2    9.40   10.50
   7   3  -2   26.60   14.80
  -7  -3   2   11.90   12.00
  -7  -3   2   12.10    9.40
   6   3  -2   73.49   18.10
  -6  -3   2   53.69   15.50
   5   3  -2    9.00    6.40
   5   3  -2    4.90    6.90
   5   3  -2   -0.40    6.00
  -5  -3   2    7.50    7.70
  -5  -3   2   -1.00    6.10
  -5  -3   2   21.40    6.90
  -5  -3   2    0.80    5.50
   4   3  -2   23.90    7.40
   4   3  -2   39.50   11.40
   4   3  -2   37.30   10.50
  -4  -3   2   41.00   11.00
  -4  -3   2   15.80    7.90
  -4  -3   2   24.30    6.90
  -4  -3   2   29.90   11.40
   3   3  -2   -2.40    2.60
   3   3  -2    0.50    3.70
   3   3  -2   -1.80    4.00
  -3  -3   2   -2.50    2.60
  -3  -3   2    1.00    4.00
  -3  -3   2   -0.30    3.60
  -3  -3   2   -0.60    4.00
   2   3  -2  566.44   27.10
   2   3  -2  496.15   22.80
  -2  -3   2  484.15   24.00
  -2  -3   2  462.05   24.90
  -2  -3   2  494.85   27.30
  -2  -3   2  516.95   22.80
   1   3  -2   53.39    7.00
   1   3  -2   39.40    6.90
  -1  -3   2   52.99    6.50
  -1  -3   2   55.09    7.40
  -1  -3   2   45.70    8.40
  -1  -3   2   49.40    7.60
   0   3  -2  354.86   15.80
   0   3  -2  401.86   16.80
   0  -3   2  346.67   16.10
   0  -3   2  369.96   16.60
   0  -3   2  357.56   18.40
   0  -3   2  355.46   14.30
  -1   3  -2  119.59   11.40
  -1   3  -2   97.39    7.20
   1  -3   2  103.39    8.60
   1  -3   2  112.49   11.80
  -2   3  -2  492.65   23.10
  -2   3  -2  499.55   21.00
   2  -3   2  478.65   25.80
   2  -3   2  534.75   25.50
  -3   3  -2  100.09   12.20
  -3   3  -2  117.29   13.70
   3  -3   2   66.09   12.60
   3  -3   2  111.69   17.00
  -4   3  -2  200.48   14.90
  -4   3  -2  183.68   16.10
   4  -3   2  229.28   26.30
   4  -3   2  185.98   23.70
  -5   3  -2   -3.00    5.30
  -5   3  -2    5.60    5.20
   5  -3   2   14.10    9.20
   5  -3   2    6.70    8.30
  -6   3  -2   24.40    9.20
  -6   3  -2   19.70    7.90
   6  -3   2    7.70   11.10
   7   2  -2    2.90    9.10
  -7  -2   2    5.30    9.20
  -7  -2   2   -3.30    5.20
  -6  -2   2   38.00   13.30
  -6  -2   2   27.90    9.30
   5   2  -2   17.60    8.60
   5   2  -2    4.10    6.80
   5   2  -2   22.40   10.20
  -5  -2   2   38.20   11.90
  -5  -2   2    5.20    6.30
  -5  -2   2   16.60   11.90
  -5  -2   2   23.00    8.20
   4   2  -2  117.19   18.70
   4   2  -2   88.79   13.70
   4   2  -2  102.49   17.90
  -4  -2   2   85.29   14.40
  -4  -2   2  103.99   20.00
  -4  -2   2   69.49   13.00
  -4  -2   2  114.49   17.60
   3   2  -2   76.39   13.20
   3   2  -2   79.19   15.00
   3   2  -2   60.39   10.00
  -3  -2   2   80.09   12.40
  -3  -2   2   72.69    9.60
  -3  -2   2   64.29   11.50
  -3  -2   2   80.99   15.10
   2   2  -2  157.88   13.20
   2   2  -2  142.89   11.20
   2   2  -2  139.49   12.50
  -2  -2   2  160.58   17.50
  -2  -2   2  133.59   14.30
  -2  -2   2  139.39   10.50
  -2  -2   2  147.19   16.60
   1   2  -2   17.30    3.80
   1   2  -2   19.30    4.10
   1   2  -2   22.10    5.00
   1   2  -2   16.50    3.50
  -1  -2   2   32.30    5.30
  -1  -2   2   16.80    4.10
  -1  -2   2   27.90    5.50
  -1  -2   2   24.60    5.80
   0   2  -2   36.00    5.20
   0   2  -2   38.90    5.50
   0   2  -2   30.30    3.90
   0  -2   2   36.20    5.30
   0  -2   2   35.70    4.20
   0  -2   2   51.59    7.50
   0  -2   2   45.10    5.80
  -1   2  -2  164.38    9.80
  -1   2  -2  187.48   11.60
   1  -2   2  156.08   10.40
   1  -2   2  169.38   11.60
  -2   2  -2    0.70    2.80
  -2   2  -2    9.20    4.70
   2  -2   2    7.00    4.50
  -3   2  -2    0.80    4.20
  -3   2  -2    5.50    4.10
   3  -2   2    1.30    4.30
   3  -2   2    8.90    5.70
  -4   2  -2  114.09   14.90
  -4   2  -2   96.09   14.60
  -4   2  -2   88.09    6.80
   4  -2   2   93.39   15.80
   4  -2   2  129.19   19.00
  -5   2  -2   -3.60    2.40
  -5   2  -2   -0.60    4.40
  -5   2  -2   -3.60    4.30
   5  -2   2    7.70    7.10
  -6   2  -2    8.30    7.40
  -6   2  -2    7.70    4.10
  -6   2  -2    3.80    5.80
   6  -2   2   -3.90    6.60
   6  -2   2   -1.40    7.80
   7   1  -2   -1.20    8.60
  -7  -1   2   -5.20    4.30
  -7  -1   2    1.30    6.40
  -7  -1   2    7.40    9.20
   6   1  -2  119.19   31.90
   6   1  -2  135.99   22.10
   6   1  -2  139.79   23.80
  -6  -1   2  125.49   21.10
   5   1  -2   -0.10    4.50
   5   1  -2    3.10    8.00
   5   1  -2    1.30    6.20
  -5  -1   2   -2.90    3.80
  -5  -1   2    6.20    7.40
  -5  -1   2    3.90    5.40
   4   1  -2  380.86   24.70
   4   1  -2  294.77   35.60
   4   1  -2  317.47   25.50
  -4  -1   2  330.27   19.90
  -4  -1   2  385.16   29.30
  -4  -1   2  352.06   24.50
  -4  -1   2  395.86   26.50
   3   1  -2   -0.30    3.20
   3   1  -2   -1.40    3.90
   3   1  -2    2.60    4.30
  -3  -1   2    0.60    4.30
  -3  -1   2    6.60    4.70
  -3  -1   2    3.00    4.50
  -3  -1   2   -4.90    2.90
   2   1  -2  698.63   31.50
   2   1  -2  719.93   27.50
   2   1  -2  711.73   29.20
   2   1  -2  723.73   32.30
  -2  -1   2  723.73   33.20
  -2  -1   2  728.03   30.40
  -2  -1   2  714.53   30.30
  -2  -1   2  721.23   27.40
   1   1  -2 9087.99  318.87
   1   1  -2 9999.00  533.25
  -1  -1   2 9386.26  505.05
  -1  -1   2 9713.03  322.67
   0   1  -2  673.43   21.60
   0   1  -2  628.54   23.30
   0   1  -2  670.33   23.60
   0  -1   2  660.33   23.60
   0  -1   2  664.73   23.60
   0  -1   2  620.64   23.50
   0  -1   2  687.93   21.40
  -1   1  -2  159.98    9.80
  -1   1  -2  173.68    6.30
  -1   1  -2  178.08   11.60
   1  -1   2  164.08   10.50
   1  -1   2  157.98   11.00
  -2   1  -2  125.99   14.20
  -2   1  -2  170.48   11.90
   2  -1   2  163.78   17.10
   2  -1   2  136.79   11.90
  -3   1  -2    7.70    3.10
  -3   1  -2   10.90    5.90
  -3   1  -2    9.00    5.00
   3  -1   2   17.80    7.30
   3  -1   2    4.70    5.20
  -4   1  -2   37.20    6.20
  -4   1  -2   42.10   10.40
  -4   1  -2   33.40    9.70
   4  -1   2   48.80   11.20
   4  -1   2   33.60   10.70
  -5   1  -2   43.00   11.60
  -5   1  -2   40.00    7.50
  -5   1  -2   44.80   10.20
   5  -1   2   36.60   13.00
   5  -1   2   20.20   10.90
  -6   1  -2   -2.50    5.10
  -6   1  -2   -4.30    4.50
  -6   1  -2    6.30    4.70
   6  -1   2   -1.70    6.10
   6  -1   2    8.30    9.30
   6  -1   2    6.10    8.80
  -7   1  -2   45.70   14.40
  -7   1  -2   56.49    8.90
  -7   1  -2   31.40   12.70
   7  -1   2   35.00   13.30
   7   0  -2    8.20   10.70
  -7   0   2   -6.60    4.90
  -7   0   2    6.90   10.80
  -7   0   2    0.10    5.80
   6   0  -2   28.10   11.00
   6   0  -2   29.10   11.40
   6   0  -2   32.10   12.40
  -6   0   2    7.70    7.80
  -6   0   2   15.10   10.70
   5   0  -2   81.39   15.80
   5   0  -2   63.39   15.50
   5   0  -2   75.99   18.30
  -5   0   2   72.09   11.20
  -5   0   2   83.69   16.30
  -5   0   2   73.99   13.90
   4   0  -2   73.69   15.50
   4   0  -2   47.60   11.10
  -4   0   2   72.69   12.40
  -4   0   2   68.79   13.10
  -4   0   2   70.69   10.20
   3   0  -2   83.89   12.10
   3   0  -2  105.29   11.60
   3   0  -2   77.89   12.60
   3   0  -2   77.99   14.70
  -3   0   2   90.49   13.20
  -3   0   2   84.39    9.60
  -3   0   2   74.09   11.30
  -3   0   2   82.39   13.70
   2   0  -2  317.97   17.50
   2   0  -2  329.97   19.80
   2   0  -2  341.27   15.80
   2   0  -2  333.07   18.80
  -2   0   2  323.07   20.20
  -2   0   2  339.27   15.70
  -2   0   2  341.37   18.30
  -2   0   2  341.17   17.70
   1   0  -2  391.26   16.10
   1   0  -2  366.26   16.50
   1   0  -2  360.96   16.40
   1   0  -2  392.96   15.40
  -1   0   2  372.26   16.00
  -1   0   2  352.36   17.00
  -1   0   2  349.77   15.80
  -1   0   2  369.16   15.10
   0   0  -2    5.00    2.70
   0   0  -2    9.00    2.90
   0   0  -2    9.80    2.50
   0   0   2    7.40    2.90
   0   0   2   12.30    2.40
   0   0   2    7.70    2.50
   0   0   2   10.40    2.50
  -1   0  -2  219.78   13.00
  -1   0  -2  217.58    8.10
  -1   0  -2  224.98   12.10
   1   0   2  219.18   12.70
   1   0   2  198.28   12.10
  -2   0  -2   14.50    5.40
  -2   0  -2   11.00    4.90
   2   0   2   10.60    5.10
   2   0   2   19.80    6.00
  -3   0  -2   13.30    6.60
  -3   0  -2    5.80    5.30
   3   0   2    6.20    5.30
   3   0   2   11.00    6.10
  -4   0  -2   13.40    7.60
  -4   0  -2   14.00    7.00
  -4   0  -2   13.70    5.00
   4   0   2   15.60    8.10
   4   0   2   18.70    8.60
   4   0   2   17.40    8.10
  -5   0  -2   75.79   16.10
  -5   0  -2  110.99   12.80
  -5   0  -2   90.49   16.70
   5   0   2  121.69   20.00
   5   0   2   96.59   19.00
  -6   0  -2    6.40    8.00
  -6   0  -2    2.90    7.10
   6   0   2    4.90    7.20
   6   0   2   -3.10    5.40
   6   0   2    8.50    9.50
  -7   0  -2   11.00   10.10
  -7   0  -2   10.80    9.50
  -7   0  -2    6.20    5.70
   7  -1  -2   22.80   15.00
  -7   1   2   20.70   10.70
   6  -1  -2    2.40    8.70
   6  -1  -2   -0.90    4.90
   6  -1  -2    9.90   11.30
  -6   1   2   14.30    9.30
  -6   1   2    7.20    6.20
  -6   1   2    2.30    4.70
   5  -1  -2   -3.10    4.60
   5  -1  -2   -2.70    5.60
  -5   1   2   18.10    9.50
  -5   1   2    1.40    4.30
  -5   1   2    2.00    4.70
   4  -1  -2  486.45   34.60
   4  -1  -2  521.85   32.10
  -4   1   2  460.95   26.60
  -4   1   2  529.45   24.20
  -4   1   2  477.95   29.30
   3  -1  -2    0.80    3.50
   3  -1  -2    0.60    3.00
   3  -1  -2   -4.90    2.40
  -3   1   2    7.50    4.20
  -3   1   2    0.90    3.10
  -3   1   2   11.50    5.30
   2  -1  -2  345.87   15.40
   2  -1  -2  346.97   18.00
   2  -1  -2  291.47   19.00
   2  -1  -2  319.77   17.90
  -2   1   2  345.27   15.30
  -2   1   2  301.67   17.30
  -2   1   2  328.67   16.40
   1  -1  -2 1843.82  219.88
   1  -1  -2 2320.47  104.19
   1  -1  -2 2274.97   99.49
  -1   1   2 2370.66  101.79
  -1   1   2 2302.17  104.19
   0  -1  -2   11.60    2.20
   0  -1  -2   14.00    3.00
   0  -1  -2   18.70    3.00
   0   1   2   14.60    2.70
   0   1   2   15.80    3.20
  -1  -1  -2 1099.79   37.60
  -1  -1  -2 1130.59   38.40
   1   1   2 1078.09   38.10
   1   1   2 1074.79   37.70
  -2  -1  -2    5.40    4.30
  -2  -1  -2    9.50    4.70
   2   1   2   15.50    5.70
   2   1   2    5.60    4.30
   2   1   2    8.80    4.60
  -3  -1  -2    4.40    5.00
  -3  -1  -2    2.80    4.60
   3   1   2    1.40    4.10
   3   1   2    0.10    3.60
   3   1   2   12.30    5.80
  -4  -1  -2  232.78   20.10
  -4  -1  -2  215.48   14.00
  -4  -1  -2  217.88   27.20
   4   1   2  244.18   26.80
   4   1   2  243.68   21.20
   4   1   2  234.98   29.50
  -5  -1  -2   60.59   13.60
  -5  -1  -2   34.80    8.00
   5   1   2   59.99   15.00
   5   1   2   30.90   11.10
   5   1   2   49.40   14.50
  -6  -1  -2   -2.50    6.30
  -6  -1  -2    1.80    4.60
   6   1   2   -2.60    5.60
   6   1   2    2.00    7.60
  -7  -1  -2    2.50    4.80
  -7  -1  -2   -3.90    5.60
  -7  -1  -2    3.40    8.10
   7   1   2    3.40    5.30
  -7   2   2    6.60    8.70
  -7   2   2    0.70    4.40
  -7   2   2    1.00    7.10
   6  -2  -2    1.80    6.50
   6  -2  -2   -1.00    6.50
   6  -2  -2    6.80    8.40
  -6   2   2    4.00    5.00
  -6   2   2    1.70    4.30
  -6   2   2    6.30    7.70
   5  -2  -2   50.59   12.90
   5  -2  -2    8.80    8.50
   5  -2  -2   25.00   10.80
  -5   2   2   15.20    6.00
  -5   2   2   28.40    9.30
   4  -2  -2    9.30    7.40
   4  -2  -2   10.90    7.60
  -4   2   2   22.30    8.10
  -4   2   2   30.80    8.20
  -4   2   2   32.20    6.90
   3  -2  -2   45.90    9.20
   3  -2  -2   58.29    8.80
   3  -2  -2   49.20   10.90
   3  -2  -2   49.40   10.50
  -3   2   2   57.79    8.50
  -3   2   2   63.99    8.30
  -3   2   2   55.59    9.50
   2  -2  -2   15.10    4.60
   2  -2  -2   13.90    4.20
   2  -2  -2   13.10    4.80
   2  -2  -2   22.30    7.10
  -2   2   2   13.20    3.70
  -2   2   2    9.20    3.40
  -2   2   2   19.10    5.20
   1  -2  -2  134.19    7.30
   1  -2  -2  136.19    8.60
   1  -2  -2  135.99    7.60
  -1   2   2  136.29    7.20
  -1   2   2  139.69    6.30
  -1   2   2  134.09    7.10
   0  -2  -2   98.29    4.80
   0  -2  -2   97.99    5.60
   0  -2  -2   92.39    5.60
   0   2   2   86.29    5.40
   0   2   2  101.49    4.90
  -1  -2  -2  943.41   33.50
  -1  -2  -2  958.20   33.80
  -1  -2  -2  973.70   33.80
   1   2   2  889.51   32.70
   1   2   2  987.30   37.70
   1   2   2  976.10   33.50
  -2  -2  -2   -5.00    2.50
  -2  -2  -2    0.30    3.30
   2   2   2    1.20    3.20
   2   2   2   -1.30    2.80
   2   2   2   -1.30    2.30
  -3  -2  -2   42.90    9.90
  -3  -2  -2   46.80   10.50
   3   2   2   45.90   10.40
   3   2   2   54.39   13.00
   3   2   2   29.80    8.40
  -4  -2  -2   64.49   13.10
   4   2   2   54.69   12.80
   4   2   2   76.19   13.80
   4   2   2   65.59   15.70
  -5  -2  -2    5.00    7.20
  -5  -2  -2   -2.50    5.10
  -5  -2  -2    0.00    6.10
   5   2   2   -6.00    4.00
   5   2   2   -0.60    4.30
   5   2   2   -0.30    6.00
  -6  -2  -2  118.29   22.50
  -6  -2  -2   90.19   13.10
   6   2   2   74.29   17.00
  -7  -2  -2    2.40    7.70
  -7  -2  -2    8.70    6.90
   7   2   2    6.20    9.90
   6  -3  -2   11.50    9.60
   6  -3  -2   13.20   11.20
   6  -3  -2   11.00    9.50
  -6   3   2   11.60    5.50
  -6   3   2    8.00    5.80
  -6   3   2    4.70    5.40
   5  -3  -2   32.50   12.20
   5  -3  -2   42.50   12.70
   5  -3  -2   36.40   13.80
  -5   3   2   38.80    9.70
  -5   3   2   57.99    8.90
  -5   3   2   46.00    9.20
   4  -3  -2  144.39   22.20
   4  -3  -2  115.29   12.40
   4  -3  -2  116.79   18.50
  -4   3   2  108.99    9.50
  -4   3   2  123.89   14.50
  -4   3   2  141.69   14.10
   3  -3  -2   -0.20    2.60
   3  -3  -2    2.50    4.00
   3  -3  -2    0.10    4.20
   3  -3  -2    3.00    4.10
  -3   3   2    6.00    3.20
  -3   3   2   -2.30    2.40
  -3   3   2    3.60    2.90
   2  -3  -2    3.30    3.40
   2  -3  -2    2.00    2.90
   2  -3  -2    4.20    3.50
  -2   3   2    3.30    1.80
  -2   3   2    3.60    2.30
  -2   3   2    7.30    2.80
   1  -3  -2  327.87   13.00
   1  -3  -2  347.57   13.70
   1  -3  -2  340.27   12.30
  -1   3   2  350.56   13.20
   0  -3  -2  465.45   16.20
   0  -3  -2  437.06   15.80
  -1  -3  -2  647.94   25.10
  -1  -3  -2  675.53   25.20
  -1  -3  -2  708.73   26.40
   1   3   2  636.94   25.80
   1   3   2  663.23   23.80
   1   3   2  691.23   25.40
  -2  -3  -2  332.27   20.40
  -2  -3  -2  342.27   19.80
  -2  -3  -2  339.27   19.10
   2   3   2  328.87   18.90
   2   3   2  313.67   19.60
   2   3   2  350.86   18.80
  -3  -3  -2  257.67   19.70
  -3  -3  -2  317.77   23.10
  -3  -3  -2  314.37   22.20
   3   3   2  276.07   21.80
   3   3   2  275.47   19.50
   3   3   2  324.27   21.60
  -4  -3  -2  127.99   18.70
  -4  -3  -2  164.98   21.00
   4   3   2  156.58   29.80
   4   3   2  172.18   20.90
   4   3   2  193.68   23.00
  -5  -3  -2   66.19   15.10
  -5  -3  -2   95.19   18.30
  -5  -3  -2   80.19   12.70
   5   3   2   55.09   15.40
   5   3   2   57.59   14.20
   5   3   2   85.69   17.00
  -6  -3  -2   43.00   14.40
  -6  -3  -2   18.50    7.90
   6   3   2    6.00   11.00
   6   3   2   25.30   11.90
  -7  -3  -2    7.90   10.40
   7   3   2   17.00   11.90
   6  -4  -2    2.70    7.30
   6  -4  -2    1.40    8.00
  -6   4   2    1.70    4.50
  -6   4   2   -1.50    3.00
  -6   4   2   -3.50    2.90
   5  -4  -2  162.98   22.80
   5  -4  -2  130.09   20.80
   5  -4  -2  146.79   27.30
  -5   4   2  150.88   11.10
  -5   4   2  124.99   10.10
   4  -4  -2  370.36   30.10
   4  -4  -2  336.87   25.40
   4  -4  -2  343.67   18.00
  -4   4   2  370.16   17.00
  -4   4   2  321.57   16.00
  -4   4   2  370.86   17.10
   3  -4  -2   63.09   11.20
   3  -4  -2   31.70    5.90
   3  -4  -2   40.50    9.00
  -3   4   2   34.70    5.60
  -3   4   2   40.10    4.10
   2  -4  -2  209.78   11.00
   2  -4  -2  219.88   13.00
   2  -4  -2  215.28   13.20
  -2   4   2  191.58    9.70
   1  -4  -2  400.36   15.30
  -1   4   2  366.76   14.70
   0  -4  -2 2043.20  103.69
   0   4   2 1926.11   62.49
   0   4   2 1854.41   60.69
  -1  -4  -2    5.30    2.70
  -1  -4  -2    5.00    2.90
  -1  -4  -2    4.50    2.90
   1   4   2    4.30    1.80
   1   4   2    4.70    1.70
   1   4   2    4.20    2.40
  -2  -4  -2  364.26   20.60
  -2  -4  -2  320.67   20.70
  -2  -4  -2  353.86   19.80
   2   4   2  358.96   18.40
   2   4   2  374.66   20.90
   2   4   2  351.86   19.10
  -3  -4  -2  115.19   15.40
  -3  -4  -2   86.69   14.00
  -3  -4  -2  121.09   16.30
   3   4   2  122.09   15.50
   3   4   2  108.49   14.00
   3   4   2   96.79   14.70
  -4  -4  -2  118.99   18.50
  -4  -4  -2  115.49   18.70
  -4  -4  -2  152.88   20.40
   4   4   2  112.49   17.50
   4   4   2  155.38   23.80
   4   4   2  137.69   21.20
  -5  -4  -2   66.09   15.70
  -5  -4  -2   71.49   15.20
   5   4   2   63.79   16.10
   5   4   2   41.40   12.00
  -6  -4  -2   23.40    9.30
  -6  -4  -2   37.90   13.70
   6   4   2   25.90   14.00
   6   4   2   26.70   17.20
   6   4   2   39.60   13.90
  -7  -4  -2    9.50   10.60
  -7  -4  -2   20.30   10.20
   7   4   2   31.50   15.50
   6  -5  -2   10.40    9.50
   6  -5  -2   14.80   11.00
  -6   5   2   13.10    4.00
   5  -5  -2    8.20    8.50
   5  -5  -2    0.20    6.00
   5  -5  -2    4.10    7.80
  -5   5   2    6.90    3.50
   4  -5  -2   -4.60    3.80
   4  -5  -2    4.50    3.90
   4  -5  -2    4.30    5.70
  -4   5   2    4.10    2.80
   3  -5  -2    6.40    5.10
   3  -5  -2    5.60    5.10
   3  -5  -2    5.20    3.70
  -3   5   2    4.40    2.60
   2  -5  -2   15.60    4.00
   2  -5  -2   12.60    4.50
   2  -5  -2   22.60    5.20
  -2   5   2   16.90    3.50
   1  -5  -2  209.48   10.20
   0  -5  -2   60.09    7.80
   0  -5  -2   60.09    6.30
  -1  -5  -2    2.40    2.90
  -1  -5  -2    4.10    2.50
  -1  -5  -2    0.90    2.50
   1   5   2   -1.80    1.90
  -2  -5  -2    5.70    5.40
  -2  -5  -2    0.30    3.50
  -2  -5  -2    5.30    4.60
   2   5   2    6.70    3.70
   2   5   2    5.90    3.90
   2   5   2    6.90    3.50
  -3  -5  -2    9.00    6.20
  -3  -5  -2   22.70    8.00
  -3  -5  -2    1.10    4.20
   3   5   2    6.40    5.00
   3   5   2   11.10    6.60
   3   5   2    5.30    4.50
  -4  -5  -2   29.60   10.60
  -4  -5  -2    9.20    7.20
  -4  -5  -2   25.90   11.60
   4   5   2   10.00    6.60
   4   5   2   23.30    9.90
  -5  -5  -2   65.39   14.80
  -5  -5  -2   97.39   19.00
  -5  -5  -2   64.89   16.50
   5   5   2  102.39   18.50
   5   5   2   34.50   10.50
   5   5   2   62.49   13.10
  -6  -5  -2   54.09   15.50
   6   5   2   28.40   12.10
   6   5   2   85.69   22.20
  -7  -5  -2   15.00   11.70
  -7  -5  -2    8.70    7.50
   6  -6  -2   -4.40    5.70
   5  -6  -2    5.10    9.80
   5  -6  -2    2.90    6.40
   5  -6  -2    8.80    9.50
  -5   6   2    5.60    2.80
   4  -6  -2  206.28   12.50
   4  -6  -2  256.97   26.30
   4  -6  -2  254.77   26.40
  -4   6   2  227.38   11.40
   3  -6  -2   15.30    4.60
   3  -6  -2    6.00    5.40
   3  -6  -2   11.70    5.90
  -3   6   2   12.20    3.50
   2  -6  -2   55.69    7.10
   2  -6  -2   56.39    7.70
   2  -6  -2   46.80    7.40
   1  -6  -2  124.89    7.70
   0  -6  -2    3.00    2.20
   0  -6  -2    0.50    2.10
  -1  -6  -2  193.08   10.40
  -1  -6  -2  196.08   14.40
  -1  -6  -2  194.28   11.40
   1   6   2  214.98   13.40
  -2  -6  -2  495.05   24.10
  -2  -6  -2  494.25   25.10
  -2  -6  -2  436.06   26.50
   2   6   2  516.65   25.90
   2   6   2  485.05   19.00
   2   6   2  472.45   20.50
  -3  -6  -2  158.58   21.20
  -3  -6  -2  177.48   20.40
  -3  -6  -2  183.98   20.10
   3   6   2  151.78   12.40
   3   6   2  119.69   15.10
   3   6   2  122.19   16.30
  -4  -6  -2   38.00   11.60
  -4  -6  -2   -2.00    4.20
  -4  -6  -2   19.20    9.10
   4   6   2    8.60    5.70
   4   6   2    3.50    6.00
   4   6   2   13.40    7.40
  -5  -6  -2    9.00    8.20
  -5  -6  -2   14.30    9.20
  -5  -6  -2    3.10    7.10
   5   6   2   -0.10    5.30
   5   6   2   10.40    7.00
  -6  -6  -2  131.29   21.00
   6   6   2  139.49   23.30
   6   6   2  148.49   27.90
  -7  -6  -2   29.50   14.30
   7   6   2   25.70   14.80
   5  -7  -2   13.90   10.10
   5  -7  -2    4.90    7.00
   5  -7  -2   -1.30    6.10
   4  -7  -2   30.90    9.80
   4  -7  -2   21.30    9.70
   3  -7  -2    5.70    5.30
   3  -7  -2    2.70    4.60
   3  -7  -2    4.40    3.50
   2  -7  -2  121.09    9.50
   2  -7  -2  124.19    9.90
   2  -7  -2  143.29    9.00
   1  -7  -2   13.90    5.30
   1  -7  -2   15.40    4.00
   0  -7  -2   -1.60    1.60
   0  -7  -2   -0.20    2.20
  -1  -7  -2  102.49    7.40
  -1  -7  -2  139.39   16.90
  -1  -7  -2  117.99    9.10
   1   7   2  157.78   17.00
  -2  -7  -2   28.00    7.70
  -2  -7  -2   19.50    9.90
  -2  -7  -2   26.30    7.00
   2   7   2   29.30    3.40
   2   7   2   33.00    8.50
  -3  -7  -2    2.40    5.10
  -3  -7  -2    5.20    5.70
  -3  -7  -2    0.90    4.40
   3   7   2   -1.70    5.20
   3   7   2    2.70    3.00
   3   7   2    6.80    5.50
  -4  -7  -2   27.60   12.30
  -4  -7  -2   58.89   13.30
  -4  -7  -2   42.80   12.30
   4   7   2   47.70   10.60
   4   7   2   32.50    8.10
   4   7   2   39.70    9.60
  -5  -7  -2   13.40    9.40
  -5  -7  -2    1.30    6.90
   5   7   2    7.50    6.90
   5   7   2   11.30    8.10
   5   7   2    5.10    5.60
  -6  -7  -2   89.89   19.50
  -6  -7  -2  104.99   21.90
  -6  -7  -2   89.69   20.30
  -6  -7  -2   80.89   15.50
   6   7   2  141.09   27.10
   6   7   2   62.29   17.10
   6   7   2   93.19   17.50
   7   7   2  -10.00    4.80
   5  -8  -2    7.10    8.90
   5  -8  -2    4.90    7.70
   4  -8  -2    8.90    7.60
   4  -8  -2   11.20    8.20
   3  -8  -2    2.30    4.90
   3  -8  -2    2.30    3.10
   3  -8  -2    4.30    4.60
   2  -8  -2  292.47   16.30
   2  -8  -2  300.87   15.60
   2  -8  -2  294.77   14.20
   1  -8  -2   79.19   12.90
   1  -8  -2   51.89    6.50
   0  -8  -2   31.00    8.00
   0  -8  -2   35.50    6.50
  -1  -8  -2  540.35   28.60
  -1  -8  -2  461.55   21.50
   1   8   2  512.05   26.30
  -2  -8  -2   79.79   11.70
  -2  -8  -2   83.89   11.80
  -2  -8  -2   85.19   15.30
   2   8   2   68.29   11.20
  -3  -8  -2  259.87   21.10
  -3  -8  -2  264.47   24.10
   3   8   2  261.57   15.90
   3   8   2  242.98   13.50
   3   8   2  271.37   21.00
  -4  -8  -2   18.30   11.50
  -4  -8  -2   -0.50    5.70
  -4  -8  -2   15.50    9.20
   4   8   2   16.40    6.50
   4   8   2   13.70    7.30
  -5  -8  -2    5.20    8.40
  -5  -8  -2   14.60    9.80
  -5  -8  -2   21.00   10.80
   5   8   2    6.60    6.90
  -6  -8  -2   29.70   14.80
  -6  -8  -2   22.70   12.30
  -6  -8  -2   20.10    9.00
  -6  -8  -2   22.50   12.90
   6   8   2   63.59   16.30
   6   8   2   37.90   13.70
  -7  -8  -2    6.80    9.20
   7   8   2   17.30   12.90
   4  -9  -2   -4.10    4.70
   4  -9  -2    0.20    5.60
   3  -9  -2   -1.00    4.60
   3  -9  -2   10.10    6.50
   2  -9  -2    6.20    4.40
   2  -9  -2    1.10    2.70
   2  -9  -2    2.90    3.70
   2  -9  -2    6.10    5.90
   1  -9  -2    9.30    5.80
   1  -9  -2    4.10    3.00
   0  -9  -2    2.50    2.10
   0  -9  -2    5.30    4.30
   0  -9  -2    3.50    3.10
  -1  -9  -2   22.00    5.80
  -1  -9  -2   30.20    8.40
  -2  -9  -2    6.10    4.50
  -2  -9  -2    4.70    5.70
  -2  -9  -2    8.70    5.90
   2   9   2    6.90    4.90
  -3  -9  -2   13.40    8.40
  -3  -9  -2   20.60    8.50
  -3  -9  -2   30.50   10.50
   3   9   2   23.90    4.10
   3   9   2   24.20    3.70
   3   9   2   25.20    6.50
  -4  -9  -2    4.70    7.50
  -4  -9  -2   12.20    8.40
  -4  -9  -2   -4.00    3.50
   4   9   2    5.70    4.30
   4   9   2    4.30    5.10
  -5  -9  -2   31.40   12.90
  -5  -9  -2   47.80   14.40
  -5  -9  -2   30.10   14.40
   5   9   2   32.60    8.50
   5   9   2   38.50   10.80
  -6  -9  -2    8.30    8.90
  -6  -9  -2   31.60   13.00
   6   9   2    4.90    7.60
   4 -10  -2   -4.10    4.50
   4 -10  -2   -5.70    4.30
   3 -10  -2    1.80    5.10
   3 -10  -2    1.30    5.10
   3 -10  -2   10.10    7.80
   2 -10  -2  130.49   10.50
   2 -10  -2  125.99   11.10
   1 -10  -2   71.89    8.80
   1 -10  -2   62.49    6.40
   1 -10  -2   76.19    7.90
   1 -10  -2   78.19   14.60
   0 -10  -2  126.49    8.30
   0 -10  -2  132.89   10.40
   0 -10  -2  140.09    7.60
   0 -10  -2  123.89   17.30
  -1 -10  -2  185.38   22.20
  -1 -10  -2  188.68   13.10
  -2 -10  -2   50.89   10.60
  -2 -10  -2   26.80    8.80
  -2 -10  -2   68.89   10.70
   2  10   2   40.00    8.70
  -3 -10  -2   85.29   14.60
  -3 -10  -2   95.09   20.00
  -3 -10  -2   81.39   13.90
   3  10   2   65.89   13.10
  -4 -10  -2   -3.10    5.20
  -4 -10  -2    1.60    6.60
  -4 -10  -2    9.50    9.30
   4  10   2    3.10    3.10
   4  10   2    1.50    4.40
  -5 -10  -2   96.09   19.80
  -5 -10  -2   61.39   18.30
  -5 -10  -2   57.59   16.10
   5  10   2   77.39   11.60
   5  10   2   73.69   17.70
   5  10   2   81.29   13.90
  -6 -10  -2   -4.80    6.00
  -6 -10  -2    6.50    9.30
   6  10   2   -3.80    5.20
   3 -11  -2    2.80    5.60
   3 -11  -2   -0.40    5.20
   3 -11  -2    9.20    6.70
   2 -11  -2    7.30    7.00
   2 -11  -2    5.80    5.70
   2 -11  -2    9.80    5.40
   2 -11  -2   11.80    5.60
   1 -11  -2   49.90    7.80
   1 -11  -2   48.40    6.40
   1 -11  -2   68.89   17.30
   1 -11  -2   47.50    6.50
   0 -11  -2   -1.20    2.90
   0 -11  -2    3.20    2.60
   0 -11  -2    0.60    2.70
   0 -11  -2    8.10    3.50
  -1 -11  -2   81.89   16.80
  -1 -11  -2   72.09   10.10
  -1 -11  -2   63.99    9.40
  -2 -11  -2    3.20    5.60
  -2 -11  -2    4.40    4.80
  -2 -11  -2    3.40    4.50
   2  11   2    2.40    3.60
  -3 -11  -2   61.89   23.40
  -3 -11  -2   48.20   12.00
  -3 -11  -2   37.80   10.50
   3  11   2   34.20    9.60
  -4 -11  -2   15.30   12.50
  -4 -11  -2   17.10    9.10
   4  11   2    9.80    8.00
  -5 -11  -2    7.40    9.80
  -5 -11  -2    7.90    8.80
  -5 -11  -2    3.90    8.70
   5  11   2   -0.10    5.00
   5  11   2   -1.10    2.90
   5  11   2   -0.60    4.40
  -6 -11  -2   17.80   15.30
  -6 -11  -2   41.00   22.10
   6  11   2   31.10   11.50
   2 -12  -2    7.80    5.00
   2 -12  -2   -0.90    3.70
   2 -12  -2    0.70    4.40
   1 -12  -2    3.30    3.50
   1 -12  -2    4.20    3.10
   1 -12  -2    3.10    4.80
   1 -12  -2    1.30    3.40
   0 -12  -2   40.00    5.90
   0 -12  -2   28.40    5.70
   0 -12  -2   38.80   10.60
   0 -12  -2   26.50    6.20
  -1 -12  -2    4.70    4.20
  -1 -12  -2    2.30    5.10
  -1 -12  -2    5.80    4.60
  -2 -12  -2    2.00    5.20
  -2 -12  -2    2.90    5.00
  -2 -12  -2    8.60    6.10
  -3 -12  -2    0.80    5.20
  -3 -12  -2    1.90    6.50
  -3 -12  -2   -1.40    4.60
   3  12   2    0.70    3.20
  -4 -12  -2   63.29   16.20
  -4 -12  -2   74.79   15.50
  -4 -12  -2   52.29   16.30
  -5 -12  -2    1.60    8.90
  -5 -12  -2   -6.30    6.80
   5  12   2   14.60    3.90
   5  12   2   10.00    4.00
   1 -13  -2    7.00    6.30
   1 -13  -2    9.10    3.80
   1 -13  -2    5.90    4.60
   1 -13  -2    9.30    4.60
   0 -13  -2   11.70    5.00
   0 -13  -2   14.90    5.00
   0 -13  -2   10.70    4.10
   0 -13  -2   16.40   10.30
  -1 -13  -2   24.30   10.40
  -1 -13  -2   35.40    8.20
  -2 -13  -2   15.40    7.80
  -2 -13  -2   11.20    8.60
  -2 -13  -2   32.40    9.20
  -3 -13  -2    8.40    8.00
  -3 -13  -2    6.90    7.70
  -3 -13  -2   10.50    7.70
   3  13   2    5.00    6.70
  -4 -13  -2   -1.00    6.00
  -4 -13  -2   -0.10    7.20
  -4 -13  -2    5.00    9.20
  -1 -14  -2    2.00    5.00
  -1 -14  -2    2.70    4.80
  -1 -14  -2    4.20    7.20
  -1 -14  -2    5.50    6.00
  -2 -14  -2   19.40    8.50
  -2 -14  -2   12.70    6.90
  -2 -14  -2   29.60   11.40
  -3 -14  -2    6.60    9.00
  -3 -14  -2    2.60    7.50
  -3 -14  -2    5.20    7.60
  -3 -12   3    8.90    8.00
  -3 -12   3   25.20   11.70
  -3 -12   3    8.10    9.00
  -2 -12   3   -1.80    5.90
  -2 -12   3   -0.30    6.30
  -2 -12   3   -5.90    8.90
  -1 -12   3   42.80   10.40
  -1 -12   3   25.00    9.10
  -1 -12   3   70.29   21.20
  -1 -12   3   21.40    8.50
   0 -12   3    3.50    8.30
   0 -12   3   20.50    7.30
   0 -12   3   28.70   11.30
   0 -12   3   19.20    5.20
   0 -12   3   13.00    6.50
   4  11  -3    1.20    7.30
  -4 -11   3   12.90    9.20
  -4 -11   3   11.80   14.80
  -3 -11   3   47.80   11.40
  -3 -11   3   49.99   12.90
  -3 -11   3   33.00   11.30
  -3 -11   3   45.80   16.60
  -2 -11   3   15.50    9.20
  -2 -11   3   15.30    8.40
  -2 -11   3    0.50    5.00
  -1 -11   3   45.80   11.60
  -1 -11   3   35.70   11.20
  -1 -11   3   53.29   10.00
  -1 -11   3   43.20    9.90
   0 -11   3   44.90    8.10
   0 -11   3   24.40   12.90
   0 -11   3   43.80   10.50
   0 -11   3   38.40    9.10
   1 -11   3   16.00    9.00
   1 -11   3    8.80    8.90
   1 -11   3   23.30   10.00
   5  10  -3   29.40    8.90
   5  10  -3    6.90    7.90
  -5 -10   3   23.40   13.60
  -5 -10   3    4.80   19.00
   4  10  -3   40.10   11.00
  -4 -10   3   43.40   16.10
  -4 -10   3   25.10   10.10
  -4 -10   3   16.90    9.30
  -4 -10   3   24.80   11.50
   3  10  -3   89.79   10.10
   3  10  -3   79.99    8.80
   3  10  -3   76.29   15.80
  -3 -10   3  112.19   18.00
  -3 -10   3   83.89   13.80
  -3 -10   3   94.49   22.40
  -3 -10   3   88.09   15.60
  -2 -10   3    0.70    5.80
  -2 -10   3    2.40    5.70
  -2 -10   3   -0.40    4.70
  -2 -10   3    2.60    6.20
  -1 -10   3   -2.50    3.90
  -1 -10   3   10.80    7.10
  -1 -10   3   21.30    7.20
  -1 -10   3    5.00    5.50
   0 -10   3   19.70    6.60
   0 -10   3   35.10    8.00
   0 -10   3   10.00    6.70
   0 -10   3   30.30   10.10
   1 -10   3    8.20    5.90
   1 -10   3    1.10    5.10
   1 -10   3   -1.80    4.10
   2 -10   3    9.30    8.10
   2 -10   3   28.80   11.00
   2 -10   3   20.00   11.00
   6   9  -3   -6.50    6.60
   6   9  -3   -3.20    4.30
  -6  -9   3   15.50   12.10
  -6  -9   3   -6.00    4.20
   5   9  -3   46.20   11.30
  -5  -9   3   64.09   15.70
  -5  -9   3   67.99   17.90
   4   9  -3    4.10    5.40
   4   9  -3    0.70    4.10
   4   9  -3   -6.90    4.30
  -4  -9   3   -5.30    3.50
  -4  -9   3   16.20    8.40
  -4  -9   3    4.80    7.00
   3   9  -3  100.09   11.90
   3   9  -3  110.79   14.10
  -3  -9   3   87.39   14.30
  -3  -9   3   89.79   19.30
  -2  -9   3   10.60    6.20
  -2  -9   3    1.60    5.30
  -2  -9   3    1.20    6.10
  -2  -9   3    5.20    5.70
  -1  -9   3   59.19   10.30
  -1  -9   3   72.69   12.10
  -1  -9   3   57.09   10.50
  -1  -9   3   59.99   13.00
   0  -9   3  132.79   11.20
   0  -9   3  151.08   16.90
   0  -9   3  123.09   15.90
   0  -9   3  159.58   25.10
   1  -9   3    1.00    4.90
   1  -9   3    1.40    4.20
   1  -9   3    3.80    5.60
   2  -9   3   20.40    8.80
   2  -9   3   10.80    7.70
   2  -9   3   25.90    8.00
   3  -9   3   77.39   16.30
   3  -9   3  107.99   23.10
   3  -9   3   90.79   15.80
   6   8  -3    8.00   10.30
   6   8  -3    1.40    5.50
  -6  -8   3   -0.80    6.10
  -6  -8   3   -2.30    7.80
   5   8  -3   13.20   10.30
   5   8  -3   -1.20    4.50
   5   8  -3   -1.40    5.60
  -5  -8   3    6.10    7.40
  -5  -8   3    1.80    7.70
  -5  -8   3   -8.10    3.00
  -5  -8   3   -4.20    5.20
   4   8  -3   -1.00    3.50
   4   8  -3   -2.90    4.50
  -4  -8   3   -5.00    5.10
  -4  -8   3    4.30    6.40
  -4  -8   3    4.10    7.20
  -4  -8   3   15.20   11.10
   3   8  -3   34.80    7.00
   3   8  -3   24.40    8.20
  -3  -8   3   32.60   10.10
  -3  -8   3   34.20    9.90
  -3  -8   3   38.40    9.90
  -3  -8   3   36.20   10.90
   2   8  -3    6.30    5.00
   2   8  -3   11.60    4.70
   2   8  -3    1.30    2.70
  -2  -8   3    7.80    8.20
  -2  -8   3    8.30    6.30
  -2  -8   3    7.30    5.50
  -2  -8   3   -0.40    4.70
  -1  -8   3   -9.30    4.10
  -1  -8   3    0.40    4.30
  -1  -8   3    1.30    5.10
  -1  -8   3   -0.80    3.30
   0  -8   3   87.09   10.30
   0  -8   3  102.79   13.40
   0  -8   3   71.99   12.50
   0  -8   3   97.99   13.20
   1  -8   3   -4.00    3.70
   1  -8   3    3.10    4.70
   1  -8   3    1.80    3.90
   2  -8   3   -1.40    4.00
   2  -8   3   -1.50    4.40
   2  -8   3   -0.10    4.20
   3  -8   3    2.80    6.70
   3  -8   3    4.60    7.40
   3  -8   3    6.30    7.50
   4  -8   3    6.80    9.30
   4  -8   3    9.30    8.40
   6   7  -3   -4.20    7.50
   6   7  -3   14.30    6.60
  -6  -7   3   24.90   13.60
   5   7  -3   27.20   11.70
   5   7  -3   52.89   11.60
  -5  -7   3   16.10   10.00
  -5  -7   3   18.10    9.20
  -5  -7   3   54.29   18.00
  -5  -7   3   21.80   10.30
   4   7  -3   10.80    8.20
   4   7  -3    2.60    4.70
  -4  -7   3    4.70    8.10
  -4  -7   3    2.60    5.50
  -4  -7   3    6.80    7.40
   3   7  -3   82.59   13.80
   3   7  -3   87.19   12.20
   3   7  -3   85.89   16.00
  -3  -7   3   83.79   14.00
  -3  -7   3   96.39   14.60
  -3  -7   3   81.29   17.60
  -3  -7   3  105.59   16.20
   2   7  -3    8.90    5.60
   2   7  -3    6.20    4.70
   2   7  -3   10.00    4.90
  -2  -7   3   18.10    8.80
  -2  -7   3   15.00    6.80
  -2  -7   3   13.70    6.50
  -2  -7   3    5.50    5.00
   1   7  -3  129.89    9.40
   1   7  -3  146.19   10.20
  -1  -7   3  139.19   15.60
  -1  -7   3  110.39   12.50
  -1  -7   3  116.09   17.20
  -1  -7   3  125.69   14.20
   0  -7   3   -1.50    3.50
   0  -7   3    5.10    4.10
   0  -7   3    2.60    4.20
   0  -7   3    2.60    4.00
   1  -7   3   41.60   11.80
   1  -7   3   43.90    9.40
   2  -7   3  100.09   16.40
   2  -7   3  152.08   18.20
   2  -7   3  178.98   21.00
   3  -7   3  110.99   17.30
   3  -7   3   86.49   15.90
   4  -7   3   -2.20    5.20
   4  -7   3    3.70    6.80
   7   6  -3   38.90   27.60
  -7  -6   3   24.30   14.00
  -7  -6   3   30.80   17.60
   6   6  -3    1.80    6.00
   6   6  -3   -1.30    6.80
  -6  -6   3    4.20   10.50
  -6  -6   3   18.60   12.00
   5   6  -3    5.40    8.00
  -5  -6   3   12.90    8.90
  -5  -6   3    4.10    7.70
  -5  -6   3    1.30    8.40
   4   6  -3   25.10   10.90
   4   6  -3   18.40   10.50
   4   6  -3   11.30    6.20
  -4  -6   3   11.80    7.90
  -4  -6   3   10.70    8.70
  -4  -6   3   14.20    8.90
  -4  -6   3   10.30    6.90
   3   6  -3   13.40    7.60
   3   6  -3   19.10    5.90
   3   6  -3    6.00    5.60
  -3  -6   3   11.40    6.80
  -3  -6   3   10.80    6.50
  -3  -6   3   14.00    7.30
  -3  -6   3    5.70    5.30
   2   6  -3   -0.40    3.40
   2   6  -3    9.30    4.90
   2   6  -3    6.10    3.70
  -2  -6   3    9.50    5.10
  -2  -6   3   11.60    5.40
  -2  -6   3    9.10    6.40
  -2  -6   3   10.00    6.00
   1   6  -3   16.30    5.60
   1   6  -3   33.30    9.40
   1   6  -3   12.50    4.40
  -1  -6   3   27.20    6.80
  -1  -6   3   23.00    6.10
  -1  -6   3   20.50    7.30
  -1  -6   3   11.30    4.60
   0   6  -3   11.20    3.40
   0   6  -3   14.70    4.00
   0  -6   3    8.20    4.40
   0  -6   3   10.50    4.30
   0  -6   3    9.00    5.90
   0  -6   3    6.40    4.50
   1  -6   3    4.90    4.30
   1  -6   3    1.70    3.50
   1  -6   3   -1.30    2.60
   2  -6   3    9.00    5.70
   2  -6   3    1.80    4.70
   3  -6   3   -5.20    3.70
   3  -6   3   -2.90    4.60
   4  -6   3   15.00    9.60
   4  -6   3   18.00    9.50
   5  -6   3   -3.10    5.30
   5  -6   3    7.10    9.40
  -7  -5   3   18.40   15.30
   6   5  -3   12.40    6.30
   6   5  -3   -3.10    6.50
   6   5  -3    6.10    7.10
  -6  -5   3    3.10    6.40
  -6  -5   3    8.30    9.40
  -6  -5   3    4.30    7.40
  -6  -5   3   -3.30    6.10
   5   5  -3  102.09   22.90
   5   5  -3   78.29   14.40
   5   5  -3   82.89   18.50
  -5  -5   3  113.79   23.60
  -5  -5   3  100.79   18.90
   4   5  -3   -8.60    3.90
   4   5  -3   -4.50    4.20
   4   5  -3   -1.50    3.90
  -4  -5   3   -6.10    3.70
  -4  -5   3   11.90    7.90
  -4  -5   3    5.30    6.00
  -4  -5   3   -1.00    5.30
   3   5  -3  172.98   14.20
   3   5  -3  183.78   17.20
   3   5  -3  153.28   19.60
  -3  -5   3  167.38   19.50
  -3  -5   3  167.18   14.90
  -3  -5   3  157.18   19.40
   2   5  -3  301.27   17.70
   2   5  -3  305.37   20.50
   2   5  -3  310.57   21.30
  -2  -5   3  330.97   20.30
  -2  -5   3  328.37   24.10
  -2  -5   3  306.97   20.50
  -2  -5   3  329.97   19.20
   1   5  -3  181.88   15.30
   1   5  -3  182.18   13.70
   1   5  -3  179.18   12.10
  -1  -5   3  205.18   13.40
  -1  -5   3  237.18   18.20
  -1  -5   3  180.38   13.10
  -1  -5   3  189.68   14.10
   0   5  -3   78.99    9.70
   0   5  -3   93.59    8.20
   0  -5   3  118.89   17.10
   0  -5   3   77.09    8.40
   0  -5   3   81.59   10.50
   0  -5   3   95.09   11.50
  -1   5  -3  129.99    8.60
  -1   5  -3  117.09    8.80
   1  -5   3  131.49   17.10
   1  -5   3  149.69   15.70
   1  -5   3  136.99   14.20
  -2   5  -3  450.05   17.60
  -2   5  -3  394.76   18.10
   2  -5   3  416.56   25.60
   2  -5   3  427.06   24.60
  -3   5  -3   95.09   10.00
  -3   5  -3   80.39    6.90
   3  -5   3  102.49   16.40
   3  -5   3   64.79   13.00
  -4   5  -3    1.00    2.80
  -4   5  -3   -0.50    3.10
   4  -5   3    2.70    5.70
   4  -5   3    0.00    6.10
  -5   5  -3    9.90    3.80
  -5   5  -3    7.70    3.70
   5  -5   3    6.00    7.80
   5  -5   3    5.90    9.10
   7   4  -3   23.00   16.40
  -7  -4   3   10.30    9.50
   6   4  -3   -1.90    5.70
   6   4  -3   -8.80    4.20
   6   4  -3   -2.10    6.20
  -6  -4   3    1.40    6.70
  -6  -4   3   -0.50    7.70
  -6  -4   3   -3.10    6.40
  -6  -4   3   -4.00    4.30
   5   4  -3   38.10   11.80
   5   4  -3   35.80   10.10
  -5  -4   3   49.50   14.00
  -5  -4   3   39.80   10.30
  -5  -4   3   27.00   15.00
   4   4  -3    4.30    5.10
   4   4  -3    6.10    6.70
   4   4  -3    4.70    6.00
  -4  -4   3    9.80    7.20
  -4  -4   3    9.40    7.10
  -4  -4   3   12.00    9.10
   3   4  -3   46.70   10.90
  -3  -4   3   36.00    9.90
  -3  -4   3   40.20   11.40
  -3  -4   3   41.90   10.00
   2   4  -3   43.90    9.10
   2   4  -3   40.10    7.30
  -2  -4   3   34.60    8.40
  -2  -4   3   35.20    8.30
  -2  -4   3   25.90    6.60
  -2  -4   3   43.90    8.00
   1   4  -3   63.69    8.70
   1   4  -3   37.80    7.60
  -1  -4   3   56.49    8.10
  -1  -4   3   46.50    7.60
  -1  -4   3   61.29    9.40
  -1  -4   3   38.10    8.20
   0   4  -3  144.39   10.80
   0   4  -3  147.29   10.60
   0  -4   3  161.08    9.50
   0  -4   3  142.59   12.70
   0  -4   3  135.39   11.00
  -1   4  -3  108.59    8.50
   1  -4   3   88.89   11.90
   1  -4   3  131.89   10.80
   1  -4   3  133.69   14.00
  -2   4  -3   84.19   10.70
  -2   4  -3   61.99    8.20
   2  -4   3   72.49   12.10
   2  -4   3   92.29   12.80
  -3   4  -3  174.88   13.80
  -3   4  -3  177.18   12.80
   3  -4   3  182.48   21.20
   3  -4   3  180.48   27.50
  -4   4  -3    8.60    5.70
  -4   4  -3    7.00    4.50
   4  -4   3    9.80    7.90
   4  -4   3    7.80    7.50
  -5   4  -3   -0.40    4.20
  -5   4  -3    1.50    4.10
   5  -4   3   -3.20    4.80
  -6   4  -3   22.50    6.90
   6  -4   3   15.70   11.80
   7   3  -3   21.90   14.60
  -7  -3   3    6.50   10.10
   6   3  -3    0.40    6.70
   6   3  -3   -4.60    4.00
   6   3  -3    1.60    5.80
  -6  -3   3   -3.10    5.00
  -6  -3   3   -3.40    6.30
  -6  -3   3   -6.50    5.30
   5   3  -3    7.10    6.20
   5   3  -3    7.50    8.40
   5   3  -3   -3.20    4.60
  -5  -3   3    6.20    6.10
  -5  -3   3   -2.70    4.50
  -5  -3   3   -2.60    6.00
  -5  -3   3   -4.00    5.30
   4   3  -3   -2.50    3.40
   4   3  -3   -7.70    3.70
   4   3  -3   -0.30    3.10
  -4  -3   3    9.80    7.00
  -4  -3   3    5.60    5.60
  -4  -3   3    0.10    4.00
  -4  -3   3   -0.70    4.80
   3   3  -3  394.96   25.90
   3   3  -3  374.16   25.30
  -3  -3   3  405.56   24.80
  -3  -3   3  412.56   24.90
  -3  -3   3  408.76   22.10
  -3  -3   3  362.76   26.90
   2   3  -3   82.09   10.70
   2   3  -3   60.19   11.20
   2   3  -3   68.99   11.30
  -2  -3   3   73.49   11.20
  -2  -3   3   85.59   11.40
  -2  -3   3   60.19    9.40
   1   3  -3  114.89   13.90
   1   3  -3   83.89    8.80
   1   3  -3   81.49   10.50
   1   3  -3   90.39   10.10
  -1  -3   3   88.79    9.10
  -1  -3   3   81.99   10.30
  -1  -3   3  119.69   15.30
   0   3  -3  135.19   10.20
   0   3  -3  150.58   11.10
   0   3  -3  149.59    8.90
   0  -3   3  153.08   11.00
   0  -3   3  155.68    9.00
   0  -3   3  159.68   11.00
   0  -3   3  154.28   12.10
  -1   3  -3   19.00    4.70
  -1   3  -3   29.10    6.60
   1  -3   3   17.30    6.40
   1  -3   3   22.60    5.70
  -2   3  -3  161.18   13.40
  -2   3  -3  142.49   11.10
   2  -3   3  177.18   18.50
   2  -3   3  163.28   13.70
  -3   3  -3   20.60    6.00
  -3   3  -3   33.00    9.20
   3  -3   3    8.00    6.20
   3  -3   3   20.20    8.20
  -4   3  -3   18.90    7.10
  -4   3  -3   18.60    5.90
   4  -3   3    5.30    7.60
   4  -3   3   12.80    9.00
  -5   3  -3   14.50    7.00
  -5   3  -3   26.80    9.00
   5  -3   3    9.10    8.60
   5  -3   3   10.30    8.90
  -6   3  -3   14.50    8.90
  -6   3  -3    7.10    6.30
   6  -3   3    2.40    8.80
   7   2  -3   -6.60    6.20
  -7  -2   3    8.10   10.00
   6   2  -3    8.40    8.50
   6   2  -3   -1.00    5.70
  -6  -2   3   10.20    8.40
  -6  -2   3   -2.10    6.90
   5   2  -3   54.39   15.70
   5   2  -3    1.50    6.90
  -5  -2   3   20.60    9.50
  -5  -2   3   25.90    8.50
  -5  -2   3   11.20    9.50
  -5  -2   3   21.20    9.60
   4   2  -3    3.50    4.40
   4   2  -3   11.20    7.40
   4   2  -3   -2.60    4.20
  -4  -2   3    7.40    8.80
  -4  -2   3   -3.30    3.60
  -4  -2   3   13.90    7.50
  -4  -2   3   -1.50    4.30
   3   2  -3  109.49   16.70
   3   2  -3   93.09   15.20
   3   2  -3   96.39   12.50
  -3  -2   3   85.99   12.80
  -3  -2   3   95.49   14.20
  -3  -2   3   62.49    9.10
  -3  -2   3  147.49   22.00
   2   2  -3    1.80    3.50
   2   2  -3    5.90    4.20
   2   2  -3    3.50    4.10
   2   2  -3    6.80    3.70
  -2  -2   3    3.20    3.90
  -2  -2   3    1.30    3.60
  -2  -2   3    0.50    3.20
  -2  -2   3    4.70    4.30
   1   2  -3  735.13   28.10
   1   2  -3  775.12   29.00
   1   2  -3  790.12   30.80
   1   2  -3  747.43   30.50
  -1  -2   3  751.42   27.80
  -1  -2   3  770.22   30.30
  -1  -2   3  771.32   29.50
  -1  -2   3  703.03   31.10
   0   2  -3    6.30    3.20
   0   2  -3    3.40    2.90
   0   2  -3    8.50    3.60
   0  -2   3   10.70    3.60
   0  -2   3    3.60    2.50
   0  -2   3    9.40    2.90
   0  -2   3   10.70    3.80
  -1   2  -3  120.89    9.40
  -1   2  -3  128.49   11.20
  -1   2  -3  136.89    6.50
   1  -2   3  115.79   10.40
   1  -2   3  142.09    5.80
   1  -2   3  119.89   10.20
  -2   2  -3  632.64   30.20
  -2   2  -3  628.24   27.10
   2  -2   3  626.84   30.80
   2  -2   3  640.04   30.40
  -3   2  -3  135.49   14.80
  -3   2  -3  134.39   16.70
   3  -2   3  102.29   16.40
   3  -2   3  137.79   18.60
  -4   2  -3   -0.10    4.40
  -4   2  -3    5.70    5.80
   4  -2   3   -4.20    4.70
   4  -2   3   -3.30    4.90
  -5   2  -3   12.40    7.00
  -5   2  -3    3.90    6.80
   5  -2   3    4.40    7.90
   5  -2   3    7.80    7.90
  -6   2  -3   14.60    9.70
  -6   2  -3   27.80    9.00
   6  -2   3    2.10    8.20
   7   1  -3   67.79   20.10
  -7  -1   3   21.00   16.90
  -7  -1   3   43.50   16.10
  -7  -1   3   47.00   10.10
   6   1  -3   41.10   13.00
   6   1  -3   17.50   10.90
   6   1  -3   46.20   14.70
  -6  -1   3   39.20   14.00
  -6  -1   3   64.39   12.00
   5   1  -3   12.10    8.90
   5   1  -3   13.40    8.70
   5   1  -3    7.00    5.70
  -5  -1   3    3.20    5.60
  -5  -1   3    8.40    6.30
  -5  -1   3    1.80    6.10
   4   1  -3   31.90    9.50
   4   1  -3   19.60    8.80
   4   1  -3   29.30    8.60
  -4  -1   3   24.80   10.40
  -4  -1   3   27.90    8.40
  -4  -1   3   20.20    8.00
  -4  -1   3   30.80   10.00
   3   1  -3   92.59   10.50
   3   1  -3  116.39   18.20
   3   1  -3  114.29   16.20
   3   1  -3   85.49   12.80
  -3  -1   3   89.09   15.00
  -3  -1   3  109.69   15.40
  -3  -1   3   99.19   13.40
  -3  -1   3   99.99   11.40
   2   1  -3  564.34   25.10
   2   1  -3  552.94   26.70
   2   1  -3  544.65   26.50
   2   1  -3  555.74   23.50
  -2  -1   3  546.45   26.10
  -2  -1   3  502.55   27.20
  -2  -1   3  512.65   24.90
  -2  -1   3  484.75   22.40
   1   1  -3 1927.31   62.49
   1   1  -3 1863.21   59.69
  -1  -1   3 1943.81   61.89
  -1  -1   3 1945.51   59.59
   0   1  -3  631.64   24.50
   0   1  -3  613.54   21.80
   0   1  -3  633.04   24.30
   0  -1   3  602.24   21.20
   0  -1   3  616.64   24.10
   0  -1   3  639.34   24.50
  -1   1  -3 1053.29   40.00
  -1   1  -3 1026.10   38.00
  -1   1  -3 1081.49   32.60
   1  -1   3 1096.49   39.30
   1  -1   3 1089.09   32.10
   1  -1   3 1111.49   40.30
  -2   1  -3  219.38    8.30
  -2   1  -3  257.97   17.10
  -2   1  -3  211.58   16.10
   2  -1   3  192.08   15.60
   2  -1   3  177.08   14.50
  -3   1  -3  250.37   17.50
  -3   1  -3  226.68   18.60
   3  -1   3  240.68   19.20
   3  -1   3  278.67   21.10
  -4   1  -3  216.98   23.20
  -4   1  -3  175.38   10.60
  -4   1  -3  238.08   27.90
   4  -1   3  209.38   25.00
   4  -1   3  212.18   24.90
  -5   1  -3    2.10    5.80
  -5   1  -3    9.90    4.40
  -5   1  -3    6.80    7.30
   5  -1   3    8.70    9.40
   5  -1   3   18.80   10.20
  -6   1  -3   18.80    5.60
  -6   1  -3   17.90   10.20
   6  -1   3   24.70   12.70
   6  -1   3   22.00   11.50
   7   0  -3   16.30   15.10
  -7   0   3   16.20   10.90
  -7   0   3   20.20    8.00
  -7   0   3   23.30   10.50
   6   0  -3   17.80   10.20
   6   0  -3   -2.50    6.90
   6   0  -3    5.70    8.00
  -6   0   3    5.70    6.50
  -6   0   3    7.00    9.70
  -6   0   3    1.20    4.60
   5   0  -3   49.10   12.40
   5   0  -3   28.20   12.00
   5   0  -3   34.90   12.10
  -5   0   3   22.90   10.50
  -5   0   3   29.10    9.30
  -5   0   3   22.30    7.70
   4   0  -3   36.90    8.80
   4   0  -3   35.70   10.80
   4   0  -3   28.10   16.90
   4   0  -3   29.30    8.60
  -4   0   3   38.80    9.40
  -4   0   3   40.40    8.70
  -4   0   3   49.40   11.30
   3   0  -3  541.35   27.40
   3   0  -3  435.26   27.50
   3   0  -3  526.35   30.40
   3   0  -3  527.35   24.30
  -3   0   3  529.05   28.20
  -3   0   3  502.45   23.70
  -3   0   3  522.25   30.80
  -3   0   3  517.45   26.40
   2   0  -3   71.59   11.00
   2   0  -3   63.89    9.30
   2   0  -3   67.49    9.00
   2   0  -3   53.09    7.50
  -2   0   3   93.39   12.70
  -2   0   3   56.29    8.20
  -2   0   3   79.69    9.40
  -2   0   3   72.99   10.40
   1   0  -3 8395.86  497.65
   1   0  -3 7729.93  282.07
  -1   0   3 8254.47  476.25
  -1   0   3 7796.42  283.87
   0   0  -3 2127.19  108.99
   0   0  -3 2471.05  108.69
   0   0  -3 2420.06  217.88
   0   0   3 2527.85  221.18
   0   0   3 2440.76  110.59
   0   0   3 2369.96  114.79
  -1   0  -3   87.79    5.00
  -1   0  -3   93.59   10.50
  -1   0  -3  107.19   10.70
   1   0   3   72.29    8.80
   1   0   3   81.19    9.90
   1   0   3   79.19    4.80
  -2   0  -3  766.02   34.50
  -2   0  -3  713.03   34.60
   2   0   3  767.52   34.00
   2   0   3  820.12   35.20
  -3   0  -3   53.79   10.80
  -3   0  -3   29.50    8.20
   3   0   3   52.49   10.90
   3   0   3   33.80    9.30
  -4   0  -3  331.27   29.30
  -4   0  -3  396.06   26.00
  -4   0  -3  335.77   16.80
   4   0   3  365.76   29.60
   4   0   3  377.36   27.00
   4   0   3  362.96   27.60
  -5   0  -3  114.89   19.00
  -5   0  -3   53.99   14.50
  -5   0  -3   86.79   11.00
   5   0   3   80.99   27.00
   5   0   3   57.79   14.80
  -6   0  -3   79.59   11.50
  -6   0  -3   91.79   16.70
   6   0   3   81.19   18.20
   6   0   3   87.79   20.80
   6   0   3   69.19   18.40
  -7   0  -3    3.30    5.40
  -7   0  -3   17.60   10.20
  -7   0  -3   21.60   12.90
   7   0   3    7.20    5.50
  -7   1   3    5.70    6.10
  -7   1   3    6.90    6.50
  -7   1   3    5.30    7.60
   6  -1  -3   -1.00    6.80
   6  -1  -3    4.30    8.80
   6  -1  -3   -3.60    5.50
  -6   1   3   -3.10    4.10
  -6   1   3   -1.90    6.50
  -6   1   3    0.70    4.60
   5  -1  -3    6.10    6.10
   5  -1  -3   -0.30    6.60
   5  -1  -3   -0.30    5.80
  -5   1   3    8.30    6.80
  -5   1   3    5.80    4.90
  -5   1   3    7.80    6.00
   4  -1  -3   10.50    4.70
   4  -1  -3    2.30    5.50
   4  -1  -3    2.50    4.70
   4  -1  -3    2.00    6.90
  -4   1   3    1.60    4.10
  -4   1   3   11.10    6.30
  -4   1   3    0.10    3.60
   3  -1  -3    2.20    4.70
   3  -1  -3    5.80    4.30
   3  -1  -3    1.60    3.80
   3  -1  -3   -0.20    3.60
  -3   1   3   -2.80    2.50
  -3   1   3    3.00    4.20
  -3   1   3   -3.40    2.70
   2  -1  -3   12.60    5.20
   2  -1  -3    9.40    4.50
   2  -1  -3   11.70    4.10
   2  -1  -3   15.70    5.10
  -2   1   3   13.80    4.40
  -2   1   3   27.50    7.10
  -2   1   3   11.20    3.90
  -2   1   3   17.10    5.40
   1  -1  -3   18.40    4.10
   1  -1  -3   24.70    4.70
   1  -1  -3   24.10    4.60
   1  -1  -3   12.80    3.60
  -1   1   3   19.30    3.90
  -1   1   3   22.00    4.60
  -1   1   3   18.60    4.20
  -1   1   3   23.20    5.10
   0  -1  -3  460.05   18.10
   0  -1  -3  415.76   17.10
   0   1   3  428.26   14.60
   0   1   3  414.76   17.50
   0   1   3  460.95   16.00
   0   1   3  401.06   16.70
  -1  -1  -3   76.49    5.00
  -1  -1  -3   75.89    9.30
  -1  -1  -3   68.39    8.40
   1   1   3   80.89    9.20
   1   1   3   67.79    8.50
  -2  -1  -3  267.27   17.50
  -2  -1  -3  281.97   18.50
   2   1   3  274.27   20.70
  -3  -1  -3   14.00    7.00
  -3  -1  -3   17.40    6.80
   3   1   3   37.70    9.50
   3   1   3   34.10    9.00
   3   1   3   33.80    9.70
  -4  -1  -3   16.40    7.90
  -4  -1  -3    9.10    7.20
   4   1   3   12.30    8.00
   4   1   3    8.40    7.00
   4   1   3   11.40    7.20
  -5  -1  -3   13.30    8.20
  -5  -1  -3    5.10    4.60
  -5  -1  -3    3.90    7.30
   5   1   3    5.60    7.40
   5   1   3    0.70    5.40
   5   1   3    1.20    5.90
  -6  -1  -3    2.50    4.70
  -6  -1  -3   -3.30    5.70
   6   1   3    1.10    6.70
   6   1   3   -7.10    3.70
   6   1   3   -3.40    7.00
  -7  -1  -3   -2.10    6.30
  -7  -1  -3   -2.10    4.00
   7  -2  -3    4.00   11.50
  -7   2   3   20.10   10.10
   6  -2  -3   27.20   13.90
   6  -2  -3    5.30    9.30
   6  -2  -3    8.50    8.70
  -6   2   3   12.90    8.70
  -6   2   3   14.60    6.90
  -6   2   3    8.10    6.10
   5  -2  -3    7.00    7.50
   5  -2  -3   10.40    8.10
   5  -2  -3   39.70   12.30
  -5   2   3   24.30    9.80
  -5   2   3    8.10    5.90
   4  -2  -3   64.09   10.20
   4  -2  -3   42.60   11.40
   4  -2  -3   45.50   10.70
   4  -2  -3   62.39   14.70
  -4   2   3   38.60    7.90
  -4   2   3   50.69    9.10
  -4   2   3   60.79   12.00
   3  -2  -3   57.89    8.20
   3  -2  -3   62.29   10.40
   3  -2  -3   68.69   12.10
   3  -2  -3   74.29   13.80
  -3   2   3   61.49    8.50
  -3   2   3   65.29    9.20
  -3   2   3   68.69   10.80
   2  -2  -3   -2.30    2.30
   2  -2  -3    2.90    3.40
   2  -2  -3    3.60    3.20
   2  -2  -3    2.60    3.10
  -2   2   3    0.80    3.10
  -2   2   3    0.60    2.50
  -2   2   3    2.30    2.80
   1  -2  -3    1.10    1.80
   1  -2  -3    0.30    1.90
   1  -2  -3   -0.80    2.20
   1  -2  -3    2.00    2.70
  -1   2   3    0.90    2.10
  -1   2   3   -0.80    1.70
  -1   2   3   -0.20    1.80
   0  -2  -3 3992.80  246.98
   0  -2  -3 3730.33  145.99
   0   2   3 4152.98  151.08
  -1  -2  -3  519.35   22.20
  -1  -2  -3  535.65   22.20
  -1  -2  -3  501.25   18.20
   1   2   3  489.65   21.00
   1   2   3  501.65   21.00
   1   2   3  487.95   22.00
  -2  -2  -3   -0.90    3.10
  -2  -2  -3   -0.10    3.40
   2   2   3   -3.90    2.20
   2   2   3    0.50    3.40
   2   2   3   -1.60    3.00
  -3  -2  -3   -2.50    4.10
  -3  -2  -3    3.60    4.80
   3   2   3    4.30    5.00
   3   2   3   -2.70    3.20
   3   2   3   -4.70    2.90
  -4  -2  -3  168.48   21.80
  -4  -2  -3  246.58   20.60
   4   2   3  233.58   25.70
   4   2   3  249.08   28.40
   4   2   3  216.08   28.80
  -5  -2  -3    6.00    4.70
  -5  -2  -3   10.10    8.50
  -5  -2  -3    0.20    5.70
   5   2   3    0.30    4.40
   5   2   3   22.00   11.20
   5   2   3   14.60    9.60
  -6  -2  -3   85.49   17.40
  -6  -2  -3   79.89   27.90
  -6  -2  -3   86.59   13.10
   6   2   3   46.30   14.30
   6   2   3  100.19   20.80
  -7  -2  -3   12.00   10.40
  -7  -2  -3    3.20    5.50
   7   2   3    3.20   10.30
   6  -3  -3    2.30    8.40
   6  -3  -3    4.90    7.80
   6  -3  -3   -3.10    6.20
  -6   3   3    0.30    4.90
  -6   3   3    2.60    4.50
   5  -3  -3  151.48   22.00
   5  -3  -3  152.48   23.60
   5  -3  -3  122.19   22.20
  -5   3   3  134.49   15.10
  -5   3   3  151.18   18.40
  -5   3   3  139.69   12.10
   4  -3  -3   10.00    5.20
   4  -3  -3    6.90    6.60
   4  -3  -3    4.10    5.60
   4  -3  -3    4.40    6.80
  -4   3   3    7.60    4.40
  -4   3   3    9.40    5.80
  -4   3   3    9.80    4.40
   3  -3  -3   82.59   14.60
   3  -3  -3   85.89   12.40
   3  -3  -3  109.19   15.30
   3  -3  -3   70.39    9.20
  -3   3   3   84.79   10.90
  -3   3   3   79.69    9.00
  -3   3   3   68.29    8.30
   2  -3  -3   70.29    9.60
   2  -3  -3   69.49   11.00
   2  -3  -3   58.39    7.40
   2  -3  -3   58.99    8.70
  -2   3   3   62.09    6.20
  -2   3   3   61.89    7.20
  -2   3   3   53.29    6.90
   1  -3  -3  544.85   20.40
   1  -3  -3  545.75   19.60
   1  -3  -3  509.45   19.80
  -1   3   3  544.75   19.80
   0  -3  -3    4.90    2.30
   0  -3  -3    2.00    1.50
   0  -3  -3    4.50    2.20
   0   3   3    2.30    1.90
   0   3   3    5.50    1.70
   0   3   3    3.90    1.40
  -1  -3  -3    0.80    3.00
  -1  -3  -3    5.70    3.10
  -1  -3  -3    3.90    3.10
   1   3   3    7.50    3.50
   1   3   3    6.90    3.00
   1   3   3    6.70    3.30
  -2  -3  -3  452.65   24.00
  -2  -3  -3  450.55   23.80
   2   3   3  444.46   22.80
   2   3   3  430.96   22.90
   2   3   3  435.86   23.80
  -3  -3  -3    7.80    6.10
  -3  -3  -3    3.40    4.90
   3   3   3    9.20    6.00
   3   3   3   12.20    7.00
   3   3   3   17.70    6.90
  -4  -3  -3   39.20   11.50
  -4  -3  -3   23.70    9.00
   4   3   3   19.20    8.10
   4   3   3   40.70   11.30
   4   3   3   47.70   12.40
  -5  -3  -3   56.49   15.00
  -5  -3  -3   89.79   16.90
   5   3   3  103.89   18.20
   5   3   3   65.69   14.70
   5   3   3   55.59   15.10
  -6  -3  -3   88.19   17.80
  -6  -3  -3   62.59   12.40
   6   3   3   42.40   13.90
   6   3   3   54.69   17.50
  -7  -3  -3    1.80    8.30
   7   3   3    1.20    8.00
   6  -4  -3    2.80    7.00
   6  -4  -3   -6.00    4.20
   6  -4  -3    2.00    7.90
  -6   4   3    5.80    4.30
  -6   4   3   -0.80    3.40
  -6   4   3    0.80    3.10
   5  -4  -3    7.60    6.90
   5  -4  -3   -2.50    5.70
   5  -4  -3   -4.50    4.30
  -5   4   3   -3.50    3.10
  -5   4   3    6.70    4.10
   4  -4  -3   -3.80    4.10
   4  -4  -3    1.40    5.80
   4  -4  -3    1.00    4.30
   4  -4  -3   -1.50    5.30
  -4   4   3    4.00    3.50
  -4   4   3    1.40    3.10
  -4   4   3    1.00    2.80
   3  -4  -3  127.79   12.30
   3  -4  -3  135.39   19.10
   3  -4  -3  158.48   17.80
   3  -4  -3  148.19   16.90
  -3   4   3  100.19    8.40
  -3   4   3  121.59    7.10
   2  -4  -3    2.70    3.10
   2  -4  -3    0.30    2.60
   2  -4  -3    4.20    3.50
  -2   4   3    0.70    2.00
   1  -4  -3    2.50    1.90
   1  -4  -3    1.20    2.00
   1  -4  -3    1.10    2.00
  -1   4   3    1.70    2.10
   0  -4  -3   57.39    5.10
   0  -4  -3   63.89    4.70
   0  -4  -3   62.29    4.40
   0  -4  -3   60.29    3.60
  -1  -4  -3 2642.54   80.59
  -2  -4  -3  223.38   16.80
  -2  -4  -3  239.18   16.70
  -2  -4  -3  265.27   17.40
   2   4   3  257.57   16.00
   2   4   3  248.48   17.10
   2   4   3  265.77   16.10
  -3  -4  -3   70.69   13.00
  -3  -4  -3   73.19   13.10
  -3  -4  -3   49.00   10.70
   3   4   3   74.39   12.40
   3   4   3   66.79   11.80
   3   4   3   71.09   12.00
  -4  -4  -3  259.87   27.20
   4   4   3  243.58   20.30
   4   4   3  179.38   21.90
   4   4   3  197.08   23.40
  -5  -4  -3   -1.90    6.80
  -5  -4  -3    7.20    7.60
   5   4   3    3.40    6.20
   5   4   3   16.30    9.20
   5   4   3    9.70    9.30
  -6  -4  -3    5.40    7.50
  -6  -4  -3   11.00   10.10
  -6  -4  -3   17.00    7.60
   6   4   3    9.70    9.40
   6   4   3    1.70    6.70
   6   4   3   11.40    9.90
  -7  -4  -3   -0.10    5.30
  -7  -4  -3    8.00   10.00
   7   4   3   -2.20    7.60
   6  -5  -3    0.00    6.20
   6  -5  -3   -0.40    6.70
  -6   5   3   -2.50    2.50
   5  -5  -3   24.70   13.30
   5  -5  -3   14.90   10.50
   5  -5  -3    6.10    6.90
  -5   5   3   15.90    5.00
   4  -5  -3   45.20    8.30
   4  -5  -3   29.30    9.80
   4  -5  -3   41.20   12.80
  -4   5   3   38.00    6.30
   3  -5  -3   16.90    6.80
   3  -5  -3   16.40    5.30
   3  -5  -3    2.80    4.50
  -3   5   3    6.80    3.30
   2  -5  -3   31.70    6.40
   2  -5  -3   34.20    6.00
   2  -5  -3   50.99    7.60
  -2   5   3   39.10    5.50
   1  -5  -3  288.87   13.80
  -1   5   3  289.87   13.50
   0  -5  -3  118.19    8.10
   0  -5  -3  124.49    7.90
  -1  -5  -3    9.70    3.70
  -1  -5  -3   14.10    4.10
  -1  -5  -3   14.80    4.80
   1   5   3   15.20    4.10
  -2  -5  -3  132.19   15.30
  -2  -5  -3  137.59   12.10
  -2  -5  -3  123.69   14.90
   2   5   3  151.48   10.90
   2   5   3  120.29   10.30
  -3  -5  -3   93.39   16.60
  -3  -5  -3  127.69   17.10
  -3  -5  -3  107.69   15.40
   3   5   3   89.89   12.80
   3   5   3   86.29   14.60
   3   5   3   76.49   12.10
  -4  -5  -3   63.39   16.30
  -4  -5  -3   40.70   11.70
  -4  -5  -3   65.19   14.20
   4   5   3   16.90    8.40
   4   5   3   38.90    9.90
   4   5   3   37.50   10.90
  -5  -5  -3   39.50   12.20
   5   5   3   16.30    9.80
   5   5   3   31.10   11.20
   5   5   3   53.59   15.30
  -6  -5  -3    4.60    7.30
  -6  -5  -3   -4.70    3.70
  -6  -5  -3   -4.80    4.10
   6   5   3   -3.10    4.70
   6   5   3   -0.80    5.60
   6   5   3    3.30    6.80
  -7  -5  -3    5.20    6.50
  -7  -5  -3    4.80    9.60
   7   5   3   -8.70    5.70
   6  -6  -3   -4.80    5.40
  -6   6   3    1.70    3.20
   5  -6  -3   24.80   15.90
   5  -6  -3   13.10   15.30
   5  -6  -3   22.40   11.10
  -5   6   3   24.90    5.30
   4  -6  -3   19.40    8.70
   4  -6  -3    3.90    5.80
   4  -6  -3    6.30    4.80
  -4   6   3    9.70    3.70
   3  -6  -3   96.49   10.80
   3  -6  -3  101.99   13.70
   3  -6  -3  108.79   14.10
  -3   6   3   82.99    7.20
   2  -6  -3  123.69    9.20
   2  -6  -3  125.09    9.60
  -2   6   3  120.49    8.40
   1  -6  -3   92.49    9.50
   0  -6  -3  114.19    8.10
   0  -6  -3  125.79    9.50
  -1  -6  -3  397.46   20.50
  -1  -6  -3  375.66   17.20
  -1  -6  -3  360.16   16.60
   1   6   3  393.36   18.60
  -2  -6  -3 1059.79   44.90
  -2  -6  -3 1194.98   48.30
  -2  -6  -3 1213.68   49.30
   2   6   3 1157.58   45.00
   2   6   3 1156.88   39.40
  -3  -6  -3    5.90    4.90
  -3  -6  -3    2.50    4.70
  -3  -6  -3   -0.30    3.60
   3   6   3    3.30    3.90
   3   6   3    3.60    5.20
   3   6   3   -0.80    3.20
  -4  -6  -3  247.28   27.60
  -4  -6  -3  256.47   22.20
  -4  -6  -3  266.37   32.50
   4   6   3  238.88   21.00
   4   6   3  259.67   23.30
  -5  -6  -3   43.00   13.60
  -5  -6  -3   56.39   14.50
  -5  -6  -3   71.49   18.70
   5   6   3   52.49   14.10
   5   6   3   90.09   16.40
   5   6   3   50.89   12.20
  -6  -6  -3   -0.50    6.90
  -6  -6  -3   -3.80    3.30
   6   6   3   -1.60    4.50
   6   6   3   -5.90    4.70
  -7  -6  -3    0.30    8.60
   7   6   3   16.80   11.50
   5  -7  -3   11.10   11.20
   5  -7  -3   21.80   10.90
   5  -7  -3   13.30    8.90
   4  -7  -3   30.80    9.50
   4  -7  -3   26.90    9.30
  -4   7   3   31.80    5.20
   3  -7  -3    5.30    4.90
   3  -7  -3    2.70    3.70
   3  -7  -3    1.60    4.90
   2  -7  -3  207.38   12.20
   2  -7  -3  198.18   12.30
   2  -7  -3  200.48   12.30
   1  -7  -3    6.60    3.20
   1  -7  -3   10.60    4.30
   0  -7  -3  515.95   21.20
  -1  -7  -3  385.86   17.20
  -1  -7  -3  393.26   17.90
   1   7   3  403.56   20.10
  -2  -7  -3   82.29   16.30
  -2  -7  -3   92.79   13.90
  -2  -7  -3  105.89   13.30
   2   7   3  116.99   15.10
   2   7   3  108.69    5.50
   2   7   3   99.19    5.10
  -3  -7  -3   35.30    9.80
  -3  -7  -3   37.70    9.80
  -3  -7  -3   25.50    9.00
   3   7   3   46.00   10.60
   3   7   3   36.70    9.00
   3   7   3   24.90    5.80
  -4  -7  -3   89.59   17.10
  -4  -7  -3   76.99   16.30
  -4  -7  -3   48.90   13.50
   4   7   3  104.29   18.10
   4   7   3   88.29   13.50
   4   7   3   76.79   14.20
  -5  -7  -3    5.60    8.30
  -5  -7  -3    4.30    7.80
  -5  -7  -3   -2.50    4.30
   5   7   3   -1.90    3.20
   5   7   3    6.00    6.60
   5   7   3    2.10    5.10
  -6  -7  -3   15.10   10.30
  -6  -7  -3   22.90   12.80
   6   7   3    7.70    8.30
   6   7   3   31.70   13.70
   7   7   3   -0.50    8.80
   5  -8  -3   86.09   18.20
   5  -8  -3   78.69   17.20
   4  -8  -3   28.90    6.10
   4  -8  -3   37.00   11.00
   4  -8  -3   11.10    7.60
   3  -8  -3   -3.50    3.60
   3  -8  -3    1.30    3.50
   3  -8  -3   -4.30    3.70
   2  -8  -3    7.90    3.90
   2  -8  -3    7.00    4.00
   2  -8  -3    9.50    4.30
   1  -8  -3   10.10    3.50
   1  -8  -3   14.80    5.10
   0  -8  -3   15.20    5.30
   0  -8  -3   12.40    3.90
  -1  -8  -3    1.40    2.50
  -1  -8  -3    0.90    2.80
  -1  -8  -3    2.00    2.90
   1   8   3    0.60    2.90
  -2  -8  -3   57.59   11.60
  -2  -8  -3  103.79   12.80
  -2  -8  -3  100.09   13.60
   2   8   3   75.49   11.40
  -3  -8  -3  164.98   24.20
  -3  -8  -3  155.48   18.80
  -3  -8  -3  170.38   20.70
   3   8   3  120.39   16.60
   3   8   3  160.98   10.60
   3   8   3  139.29   11.20
  -4  -8  -3   -0.90    5.00
  -4  -8  -3    5.30    7.40
  -4  -8  -3   11.40    8.60
   4   8   3    6.70    6.10
   4   8   3   13.80    8.60
  -5  -8  -3   15.20   11.10
  -5  -8  -3   21.30   10.90
  -5  -8  -3   26.20   11.60
   5   8   3   13.70    8.30
   5   8   3    7.10    6.30
   5   8   3    9.50    6.10
  -6  -8  -3   -3.30    6.70
  -6  -8  -3   -3.70    7.20
  -6  -8  -3   -6.40    5.70
   6   8   3   -2.00    3.30
   6   8   3   11.20    6.20
   6   8   3    3.10    7.00
  -7  -8  -3    4.40    9.60
   7   8   3    1.00    8.30
   4  -9  -3    1.50    5.50
   4  -9  -3    1.30    5.50
   3  -9  -3   28.70    8.30
   3  -9  -3   17.70    6.90
   3  -9  -3   17.70    5.00
   2  -9  -3   -0.20    2.90
   2  -9  -3    1.80    3.20
   2  -9  -3   10.90    6.30
   2  -9  -3   -3.00    2.30
   1  -9  -3    4.20    4.40
   1  -9  -3    0.50    2.40
   0  -9  -3   20.60    6.30
   0  -9  -3   27.30    5.30
  -1  -9  -3  483.15   20.60
  -1  -9  -3  454.25   27.60
  -1  -9  -3  513.25   22.40
  -2  -9  -3  361.96   25.50
  -2  -9  -3  344.67   20.70
  -2  -9  -3  353.56   21.70
   2   9   3  342.87   21.60
  -3  -9  -3   14.10    8.30
  -3  -9  -3    8.50    6.70
  -3  -9  -3   38.50   10.40
   3   9   3   30.90    5.90
   3   9   3   36.70    9.30
   3   9   3   25.20    3.80
  -4  -9  -3   40.50   13.10
  -4  -9  -3   77.99   15.30
  -4  -9  -3   52.19   13.80
   4   9   3   72.79   15.50
   4   9   3   58.19    9.30
  -5  -9  -3    0.90    7.50
  -5  -9  -3    6.70    8.50
  -5  -9  -3   -5.10    5.60
   5   9   3   10.10    7.50
   5   9   3    8.00    6.10
  -6  -9  -3   33.10   15.70
  -6  -9  -3   19.60   13.50
   6   9   3   47.00   13.60
   6   9   3   10.40   10.90
   4 -10  -3    7.00    8.00
   4 -10  -3    1.70    5.80
   3 -10  -3   -6.10    3.30
   3 -10  -3   -7.50    3.00
   3 -10  -3    0.90    3.50
   3 -10  -3   -3.80    2.40
   2 -10  -3   11.20    4.80
   2 -10  -3   18.20    6.80
   2 -10  -3   16.60    5.50
   1 -10  -3   43.00    7.30
   1 -10  -3   52.59   10.70
   0 -10  -3    9.10    3.90
  -1 -10  -3    1.90    4.10
  -1 -10  -3    4.70    4.20
  -1 -10  -3    5.70    3.40
  -2 -10  -3    4.00    5.80
  -2 -10  -3    0.80    4.40
  -2 -10  -3   -4.00    3.30
   2  10   3    8.30    5.70
  -3 -10  -3    4.50    5.80
  -3 -10  -3    6.50    7.40
  -4 -10  -3   22.00   10.70
  -4 -10  -3   23.80   12.00
  -4 -10  -3   36.90   11.70
   4  10   3   24.30    8.40
   4  10   3   34.90    5.90
  -5 -10  -3   39.70   23.20
  -5 -10  -3   56.69   15.70
  -5 -10  -3   53.59   15.10
   5  10   3   36.40    9.00
   5  10   3   49.30   11.50
   5  10   3   46.60   15.90
  -6 -10  -3   17.20   13.00
  -6 -10  -3   18.70   12.30
   6  10   3   19.20   10.00
   3 -11  -3   13.90    7.70
   3 -11  -3   18.10    8.50
   3 -11  -3   31.80    9.40
   2 -11  -3   -0.90    3.90
   2 -11  -3    0.60    3.40
   2 -11  -3    0.60    3.60
   2 -11  -3    2.30    3.70
   1 -11  -3   99.39   11.50
   1 -11  -3   83.59   14.30
   0 -11  -3   11.00    6.50
   0 -11  -3   15.40    5.00
  -1 -11  -3   47.70    7.40
  -1 -11  -3   49.90   13.00
  -1 -11  -3   36.90    7.20
  -2 -11  -3  267.57   32.50
  -2 -11  -3  339.67   21.30
  -2 -11  -3  343.47   22.20
   2  11   3  343.37   23.80
  -3 -11  -3   76.99   13.80
  -3 -11  -3   74.39   15.30
  -3 -11  -3  113.69   17.20
   3  11   3   79.69   12.80
  -4 -11  -3  155.18   23.50
  -4 -11  -3  255.87   39.60
  -4 -11  -3  145.29   23.80
  -5 -11  -3   -4.50    6.40
  -5 -11  -3    3.60    8.00
  -5 -11  -3   11.00    9.20
   5  11   3    4.80    5.30
   5  11   3    4.40    4.40
   5  11   3   -0.20    4.90
  -6 -11  -3   14.10   11.70
  -6 -11  -3   21.90   14.60
   6  11   3   15.20    8.70
   6  11   3   15.00    7.20
   2 -12  -3   24.90    7.10
   2 -12  -3   28.70    6.30
   2 -12  -3   13.40    5.20
   2 -12  -3    4.60    5.10
   1 -12  -3    4.00    5.50
   1 -12  -3    9.40    5.00
   0 -12  -3    6.40    3.30
   0 -12  -3    6.60    4.10
   0 -12  -3   11.90    3.30
   0 -12  -3   -1.80    3.30
  -1 -12  -3    4.70    4.30
  -1 -12  -3    3.60    5.40
  -1 -12  -3   -0.60    3.30
  -1 -12  -3   -2.30    3.20
  -2 -12  -3    9.50    7.20
  -2 -12  -3    1.70    5.10
  -3 -12  -3    2.70    7.00
  -3 -12  -3   11.70    7.20
  -3 -12  -3    1.90    6.10
  -4 -12  -3    7.80    8.20
  -4 -12  -3    2.60    6.90
  -4 -12  -3   15.80   10.20
   4  12   3    5.60    6.40
  -5 -12  -3    4.00    9.20
  -5 -12  -3   -4.00    5.70
   5  12   3    0.70    2.50
   1 -13  -3    4.70    4.20
   1 -13  -3   -2.80    3.80
   0 -13  -3   42.20    6.10
   0 -13  -3   38.20    7.70
  -1 -13  -3    5.00    6.30
  -1 -13  -3    7.60    4.90
  -1 -13  -3    5.10    4.90
  -1 -13  -3   10.90    5.60
  -2 -13  -3   25.30    8.60
  -2 -13  -3   32.50   11.20
  -2 -13  -3   27.10   10.80
  -3 -13  -3   12.70    8.60
  -3 -13  -3   14.10   11.00
  -3 -13  -3   10.60    7.80
   3  13   3   18.90    9.20
  -4 -13  -3   69.39   19.40
  -4 -13  -3   35.90   12.80
  -4 -13  -3   49.60   18.70
   4  13   3   41.00   11.40
  -5 -13  -3    6.10    9.80
   0 -14  -3    0.40    5.60
   0 -14  -3    2.90    3.80
  -1 -14  -3    3.40    4.90
  -1 -14  -3    0.50    5.10
  -1 -14  -3   -3.40    2.60
  -1 -14  -3    1.60    4.40
  -2 -14  -3    1.20    6.50
  -2 -14  -3   -3.10    4.30
  -2 -14  -3    3.10    5.40
  -3 -14  -3    8.90    9.30
  -3 -14  -3    2.40    7.00
   4  11  -4    4.50    4.70
  -4 -11   4   14.50   11.60
  -4 -11   4    1.70    7.20
  -3 -11   4    4.10   11.10
  -3 -11   4   -6.30    5.30
  -3 -11   4    9.30    8.10
  -3 -11   4   -5.40    4.60
  -2 -11   4   54.69   12.10
  -2 -11   4   23.30   11.70
  -2 -11   4   55.89   12.80
  -1 -11   4    1.00    5.60
  -1 -11   4   -2.30    3.90
  -1 -11   4    7.70    7.20
  -1 -11   4    2.50    7.60
   0 -11   4   23.50   12.80
   0 -11   4   22.30    6.90
   0 -11   4   38.30   10.00
   0 -11   4   51.19   13.10
   5  10  -4   -0.10    7.50
  -5 -10   4   -3.40    7.10
  -5 -10   4   -6.90    6.00
   4  10  -4    9.50    5.80
   4  10  -4   10.30    8.00
  -4 -10   4   16.30   10.10
   3  10  -4   -1.00    3.50
  -3 -10   4    5.60    8.10
  -3 -10   4   -1.30    5.00
  -3 -10   4    6.20    8.80
  -3 -10   4   -5.30    4.40
  -2 -10   4    7.10    7.30
  -2 -10   4    8.00    7.50
  -2 -10   4    8.90    6.80
  -2 -10   4   20.30   10.80
  -1 -10   4    1.60    6.40
  -1 -10   4   11.00    9.10
  -1 -10   4   -1.90    4.50
   0 -10   4   15.30    7.30
   0 -10   4   12.10    7.90
   0 -10   4   18.00   11.60
   0 -10   4   17.40    6.00
   1 -10   4   18.40    8.40
   1 -10   4   -3.20    3.40
   1 -10   4   -1.10    5.90
   2 -10   4   -4.40    4.10
   2 -10   4    2.20    7.20
   2 -10   4   10.90    7.70
   5   9  -4    0.80    7.20
  -5  -9   4    1.50    8.50
  -5  -9   4   -2.80    6.80
   4   9  -4   -0.90    5.50
   4   9  -4   -2.70    3.20
  -4  -9   4    9.70    8.30
  -4  -9   4    6.90    8.20
  -4  -9   4    0.40    5.70
  -4  -9   4    9.20    6.90
   3   9  -4    3.70    4.10
   3   9  -4    6.20    6.50
   3   9  -4    1.40    4.10
  -3  -9   4   -4.00    4.10
  -3  -9   4    2.00    6.80
  -3  -9   4    0.30    5.60
  -3  -9   4   -5.50    3.60
   2   9  -4   13.60   10.60
   2   9  -4   34.50    6.50
  -2  -9   4   28.40    9.90
  -2  -9   4   31.00    9.90
  -2  -9   4   52.29   10.90
  -2  -9   4   15.10    7.90
  -1  -9   4   28.80   10.10
  -1  -9   4   20.10    9.90
  -1  -9   4   26.90    7.60
  -1  -9   4   37.20    9.20
   0  -9   4  104.69   15.90
   0  -9   4   96.19   14.20
   0  -9   4  109.89   11.70
   0  -9   4   81.39   16.50
   1  -9   4   48.40   10.10
   1  -9   4   49.60   10.80
   2  -9   4   11.20    8.60
   2  -9   4    0.30    5.50
   2  -9   4   14.30    9.50
   3  -9   4    6.50    8.70
   3  -9   4   -4.20    3.80
   3  -9   4    4.50    7.50
   6   8  -4   15.40   11.70
  -6  -8   4   -6.10    7.50
  -6  -8   4    7.10   10.80
   5   8  -4   19.80   10.60
  -5  -8   4   -4.90    7.50
  -5  -8   4   11.10   10.80
   4   8  -4    5.00    7.00
   4   8  -4   -1.10    1.60
   4   8  -4    0.00    3.90
  -4  -8   4   11.60   12.50
  -4  -8   4   -4.00    4.80
  -4  -8   4    1.30    6.60
  -4  -8   4    4.90    6.50
   3   8  -4   35.30   10.70
  -3  -8   4   29.40   10.30
  -3  -8   4   30.00    9.90
  -3  -8   4   15.30    9.00
   2   8  -4   37.40    7.30
   2   8  -4   29.40    8.00
  -2  -8   4   22.20    8.40
  -2  -8   4   51.59   11.70
  -2  -8   4   28.50    8.70
  -2  -8   4   40.90   13.00
   1   8  -4   69.49    7.60
   1   8  -4   61.19    7.20
  -1  -8   4   58.99   15.00
  -1  -8   4   78.39   12.40
  -1  -8   4   68.79   12.90
  -1  -8   4   70.19   11.80
   0  -8   4   36.40    9.30
   0  -8   4   50.29    8.40
   0  -8   4   34.70    9.20
   0  -8   4   46.90    9.50
   1  -8   4   12.20    6.60
   1  -8   4    9.90    5.80
   1  -8   4    4.70    5.50
   2  -8   4   63.79   15.40
   2  -8   4   53.59   11.60
   2  -8   4   62.29   13.10
   3  -8   4    3.90    6.10
   3  -8   4    4.30    7.60
   3  -8   4   -2.50    2.80
   6   7  -4   10.60    9.50
  -6  -7   4    5.50   11.70
  -6  -7   4   21.40   13.00
   5   7  -4   -1.30    5.50
   5   7  -4    4.70    6.80
  -5  -7   4   -1.60    6.00
  -5  -7   4   13.90   10.40
  -5  -7   4    9.20    8.30
   4   7  -4   95.69   18.30
   4   7  -4   74.99   12.60
  -4  -7   4   64.79   15.10
  -4  -7   4   73.29   15.00
  -4  -7   4   67.29   14.00
  -4  -7   4   68.59   13.90
   3   7  -4   -3.30    2.60
   3   7  -4    1.80    5.90
  -3  -7   4    8.60    8.70
  -3  -7   4    2.30    5.30
  -3  -7   4   -5.60    3.30
  -3  -7   4    6.90    7.00
   2   7  -4    8.80    4.50
   2   7  -4   11.00    6.60
   2   7  -4    7.20    4.60
  -2  -7   4    3.90    5.90
  -2  -7   4    4.80    5.10
  -2  -7   4   11.40    6.70
  -2  -7   4    4.50    5.10
   1   7  -4    0.20    3.80
   1   7  -4    2.50    3.80
  -1  -7   4    2.70    5.30
  -1  -7   4    8.00    5.70
  -1  -7   4   15.30    6.60
  -1  -7   4    2.70    4.30
   0   7  -4   39.60    7.30
   0   7  -4   38.50    5.60
   0  -7   4   33.00    6.90
   0  -7   4   20.00    7.70
   0  -7   4   34.30    8.90
   1  -7   4   62.19   12.90
   1  -7   4   52.99   10.60
   1  -7   4   59.49   10.80
   2  -7   4   97.19   15.80
   2  -7   4   92.69   19.20
   2  -7   4   73.69   13.80
   3  -7   4    7.50    8.30
   3  -7   4    3.70    4.60
   4  -7   4   36.10   12.40
   4  -7   4   11.20    8.80
   6   6  -4   -1.00    7.80
  -6  -6   4    1.70    8.90
  -6  -6   4   26.10   13.10
   5   6  -4   -3.70    5.50
   5   6  -4    8.10    7.70
  -5  -6   4   26.70   12.00
  -5  -6   4    1.10    6.00
  -5  -6   4   17.80   12.80
   4   6  -4    4.20    6.80
   4   6  -4    2.30    4.10
   4   6  -4   -2.30    3.30
  -4  -6   4    0.10    5.70
  -4  -6   4    1.70    7.40
  -4  -6   4   -2.60    5.00
  -4  -6   4    2.10    5.80
   3   6  -4   55.59   12.70
   3   6  -4   75.59   11.80
   3   6  -4   60.09   13.70
  -3  -6   4   74.99   14.30
  -3  -6   4   68.89   15.80
  -3  -6   4   69.59   12.20
  -3  -6   4   99.49   15.20
   2   6  -4   28.70    7.20
   2   6  -4   30.20    8.60
   2   6  -4   27.40    8.20
  -2  -6   4   32.60   11.30
  -2  -6   4   31.10    8.50
  -2  -6   4   23.60    8.10
  -2  -6   4   36.00    9.20
   1   6  -4  138.59   15.70
   1   6  -4  106.99   15.80
   1   6  -4  141.89   11.50
  -1  -6   4  112.59   14.50
  -1  -6   4  125.49   15.30
  -1  -6   4  130.09   13.60
  -1  -6   4  100.99   17.50
   0   6  -4   10.90    5.00
   0   6  -4    2.50    3.90
   0  -6   4   15.70    6.50
   0  -6   4    8.60    5.30
  -1   6  -4  122.79    9.10
  -1   6  -4  135.09    9.10
   1  -6   4  137.39   16.90
   1  -6   4  151.58   16.90
   2  -6   4   27.40    8.30
   2  -6   4   31.00    8.80
   2  -6   4   14.30    6.00
   3  -6   4    5.90    7.40
   3  -6   4   21.90    9.60
   4  -6   4   -7.50    4.50
   4  -6   4   -0.60    7.10
   5  -6   4   16.90   11.00
   7   5  -4   -3.80    7.90
  -7  -5   4   -3.30    9.00
  -7  -5   4    6.90    9.30
   6   5  -4   17.40   11.70
   6   5  -4    0.40    5.80
  -6  -5   4   11.80   11.40
  -6  -5   4   29.40   16.60
   5   5  -4   18.30   11.30
  -5  -5   4   31.10   12.00
  -5  -5   4    8.60    8.60
   4   5  -4   30.70    8.30
   4   5  -4   42.90   10.80
   4   5  -4   69.69   14.70
  -4  -5   4   41.10   11.50
  -4  -5   4   56.69   13.00
  -4  -5   4   59.09   12.90
  -4  -5   4   39.00   12.40
   3   5  -4   -3.90    2.40
   3   5  -4   -3.40    2.40
   3   5  -4   -1.80    4.60
  -3  -5   4    4.80    5.30
  -3  -5   4    7.50    6.30
  -3  -5   4   -2.00    3.90
  -3  -5   4    3.20    5.80
   2   5  -4   35.30    7.80
   2   5  -4   37.80    9.60
   2   5  -4   39.40    8.00
  -2  -5   4   54.39   10.70
  -2  -5   4   46.10   11.00
  -2  -5   4   59.89   13.90
  -2  -5   4   39.10    8.20
   1   5  -4   34.60    8.30
   1   5  -4   25.90    8.30
   1   5  -4   45.70    8.50
  -1  -5   4   37.90    7.40
  -1  -5   4   49.99    9.60
  -1  -5   4   45.90    8.50
   0   5  -4  169.28   12.90
   0   5  -4  153.68   12.40
   0  -5   4  170.28   15.90
   0  -5   4  176.18   11.10
   0  -5   4  178.48   14.00
   0  -5   4  163.58   17.00
  -1   5  -4    0.10    3.00
  -1   5  -4    5.00    4.20
   1  -5   4   -0.10    3.70
   1  -5   4    0.50    3.40
   1  -5   4   12.50    7.30
   1  -5   4    5.70    2.30
  -2   5  -4  220.18   13.50
   2  -5   4  222.08   18.90
  -3   5  -4  225.58   14.90
  -3   5  -4  218.28   13.40
   3  -5   4  240.88   20.60
   3  -5   4  206.78   24.60
  -4   5  -4   -2.20    3.80
  -4   5  -4   -2.40    4.60
   4  -5   4    8.60    8.80
   4  -5   4   -3.00    4.40
  -5   5  -4   15.20    5.80
  -5   5  -4    8.90    5.80
   5  -5   4   21.90   11.50
   5  -5   4   20.00   16.40
   7   4  -4    9.70   11.60
  -7  -4   4   13.50   13.50
   6   4  -4   45.30   12.60
   6   4  -4   61.29   15.10
   6   4  -4   82.69   20.60
  -6  -4   4   81.29   19.30
  -6  -4   4   80.79   19.30
  -6  -4   4   56.29   14.60
  -6  -4   4   71.29   13.80
   5   4  -4    5.10    6.90
   5   4  -4   11.80    9.70
  -5  -4   4   10.40    8.30
   4   4  -4   89.09   13.80
   4   4  -4   51.39   11.30
   4   4  -4   91.59   16.90
  -4  -4   4   92.59   15.90
  -4  -4   4  100.09   18.10
  -4  -4   4   70.09   14.60
  -4  -4   4   72.79   12.30
   3   4  -4   31.00    9.00
   3   4  -4   10.90    6.50
   3   4  -4   17.60    8.20
  -3  -4   4   14.70    7.40
  -3  -4   4   21.40    8.10
  -3  -4   4   28.60    8.20
  -3  -4   4   38.10   10.00
   2   4  -4  215.38   15.10
   2   4  -4  224.28   18.10
  -2  -4   4  198.48   18.40
  -2  -4   4  214.18   16.60
  -2  -4   4  228.18   17.40
  -2  -4   4  203.98   14.80
   1   4  -4  155.98   14.00
   1   4  -4  188.88   13.60
   1   4  -4  197.68   14.80
  -1  -4   4  197.08   16.40
  -1  -4   4  174.28   14.10
  -1  -4   4  170.38   13.20
  -1  -4   4  186.98   12.70
   0   4  -4  230.78   15.20
   0   4  -4  200.88   14.80
   0  -4   4  240.58   15.80
   0  -4   4  234.28   17.60
   0  -4   4  251.87   12.70
   0  -4   4  213.98   15.30
  -1   4  -4  313.07   17.40
  -1   4  -4  329.07   19.40
   1  -4   4  328.77   12.20
   1  -4   4  317.97   19.80
   1  -4   4  312.07   19.20
   1  -4   4  315.87   22.10
  -2   4  -4   27.50    7.10
   2  -4   4   25.30    8.50
   2  -4   4   29.70    8.30
  -3   4  -4  480.15   23.50
  -3   4  -4  459.25   25.60
   3  -4   4  420.26   28.50
   3  -4   4  452.55   30.40
  -4   4  -4   13.00    6.90
  -4   4  -4   14.00    6.10
   4  -4   4   15.40    9.90
  -5   4  -4   37.50    8.40
  -5   4  -4   20.90   10.90
   5  -4   4   21.50   11.30
   5  -4   4    7.30    9.30
   7   3  -4   -4.60    7.10
  -7  -3   4   -0.70    8.50
   6   3  -4    3.70    5.40
   6   3  -4    3.90    7.20
   6   3  -4    2.40    8.30
  -6  -3   4    3.60    8.30
  -6  -3   4    7.50    7.70
  -6  -3   4   -1.00    7.00
  -6  -3   4    1.20    6.70
   5   3  -4   12.00    8.90
   5   3  -4    6.60    5.70
   5   3  -4    9.80    8.00
  -5  -3   4    7.70    6.60
  -5  -3   4   14.10    9.50
  -5  -3   4   14.50    8.30
   4   3  -4   -3.30    4.70
   4   3  -4   -2.30    2.80
   4   3  -4    4.50    4.90
  -4  -3   4   -2.60    4.90
  -4  -3   4   -1.00    5.50
  -4  -3   4    8.30    6.50
  -4  -3   4   -3.10    4.60
   3   3  -4   68.49   13.50
   3   3  -4   55.49   11.50
   3   3  -4   35.10    8.80
  -3  -3   4   43.50   10.70
  -3  -3   4   35.80   11.20
  -3  -3   4   59.89   11.30
  -3  -3   4   44.10   10.30
   2   3  -4   26.10    6.80
   2   3  -4   27.70    6.80
   2   3  -4   31.60    8.10
   2   3  -4   32.80    7.70
  -2  -3   4   17.90    5.90
  -2  -3   4   29.90    9.10
  -2  -3   4   22.60    6.70
  -2  -3   4   20.50    6.30
   1   3  -4   -0.30    2.30
   1   3  -4   -1.00    2.30
   1   3  -4    3.40    4.00
   1   3  -4   -0.20    3.30
  -1  -3   4   -1.30    2.20
  -1  -3   4   -0.60    2.80
  -1  -3   4   -2.20    3.00
  -1  -3   4    0.50    3.20
   0   3  -4  178.08   13.40
   0   3  -4  181.88   10.90
   0   3  -4  184.98   13.00
   0  -3   4  182.08   13.10
   0  -3   4  194.98   10.50
   0  -3   4  180.58   14.00
   0  -3   4  178.78   13.20
  -1   3  -4    1.70    3.40
  -1   3  -4   -0.70    1.90
  -1   3  -4    5.30    4.40
   1  -3   4   -3.70    2.50
   1  -3   4    1.60    1.70
   1  -3   4   -4.60    2.20
  -2   3  -4    4.90    4.00
  -2   3  -4   15.80    6.60
   2  -3   4    8.80    5.70
   2  -3   4    1.30    4.30
  -3   3  -4  126.79   16.80
  -3   3  -4   91.39   12.20
   3  -3   4  122.29   17.80
   3  -3   4   95.79   15.80
  -4   3  -4    5.30    5.20
  -4   3  -4    7.10    6.60
   4  -3   4    2.00    6.10
   4  -3   4    9.20    7.70
  -5   3  -4    6.60    6.90
  -5   3  -4   -1.30    4.60
   5  -3   4   -1.00    6.50
   5  -3   4   -3.10    5.90
  -6   3  -4    0.60    5.50
  -6   3  -4  -11.20    3.90
   6  -3   4   -7.00    6.60
  -7  -2   4   22.40   12.90
   6   2  -4   92.79   21.90
   6   2  -4  139.49   26.20
   6   2  -4   88.59   17.30
  -6  -2   4   97.79   14.30
  -6  -2   4   95.99   18.20
  -6  -2   4   63.59   16.50
   5   2  -4   18.10    8.40
   5   2  -4   24.80   11.70
  -5  -2   4   34.70   10.30
  -5  -2   4   22.40   12.20
  -5  -2   4   34.90   12.10
  -5  -2   4   23.60    9.80
   4   2  -4   37.10    9.40
   4   2  -4   62.59   11.10
   4   2  -4   48.10   12.50
  -4  -2   4   45.60   11.30
  -4  -2   4   64.69   12.10
  -4  -2   4   73.69   17.20
  -4  -2   4   60.19   11.20
   3   2  -4    8.10    5.80
   3   2  -4   -4.10    2.50
   3   2  -4   -3.80    3.20
   3   2  -4    0.00    3.40
  -3  -2   4    6.20    3.90
  -3  -2   4    1.30    4.20
  -3  -2   4   -2.20    3.20
  -3  -2   4    3.30    5.30
   2   2  -4  116.69   15.40
   2   2  -4  124.09   13.90
   2   2  -4   92.29   11.60
   2   2  -4   93.99   13.30
  -2  -2   4   95.89   12.50
  -2  -2   4   91.39   14.00
  -2  -2   4   91.09   12.40
  -2  -2   4   97.89   10.60
   1   2  -4   88.29   10.40
   1   2  -4   78.59   10.60
   1   2  -4   82.49   10.70
   1   2  -4   84.29   12.00
  -1  -2   4   81.39    8.80
  -1  -2   4   94.39   12.00
  -1  -2   4  115.29   12.20
   0   2  -4  164.78   12.00
   0   2  -4  170.38   10.40
   0   2  -4  182.68   12.50
   0  -2   4  171.08   12.70
   0  -2   4  161.18    9.50
   0  -2   4  155.78   11.80
   0  -2   4  144.29   11.60
  -1   2  -4  218.18   15.60
  -1   2  -4  210.28   10.10
  -1   2  -4  215.48   16.00
   1  -2   4  211.28    8.90
   1  -2   4  208.88   14.80
   1  -2   4  219.48   14.80
  -2   2  -4  278.87   19.70
  -2   2  -4  298.27   17.70
   2  -2   4  287.87   20.10
   2  -2   4  256.17   18.90
  -3   2  -4  267.67   18.30
  -3   2  -4  284.57   21.10
   3  -2   4  279.17   21.90
   3  -2   4  292.47   22.70
  -4   2  -4    4.20    5.30
  -4   2  -4    9.20    7.20
   4  -2   4   -6.00    4.50
   4  -2   4    7.10    7.60
  -5   2  -4   41.40   12.20
  -5   2  -4   17.20    8.00
   5  -2   4   20.60   10.60
   5  -2   4   60.39   16.20
  -6   2  -4   -4.40    5.80
   6  -2   4    2.30    8.10
   7   1  -4   13.60   13.30
  -7  -1   4    3.60    8.80
   6   1  -4    0.30    5.60
   6   1  -4   -6.50    2.90
   6   1  -4  -11.30    4.50
  -6  -1   4   -0.10    4.40
  -6  -1   4    0.80    7.30
  -6  -1   4    1.70    5.00
   5   1  -4    8.50    7.30
   5   1  -4    8.30    7.00
  -5  -1   4    7.40    6.40
  -5  -1   4    6.30    6.40
  -5  -1   4    7.20    8.00
  -5  -1   4    0.80    6.40
   4   1  -4   -3.10    4.50
   4   1  -4   -0.90    3.30
   4   1  -4   -0.60    3.50
   4   1  -4    1.80    4.40
  -4  -1   4   -2.40    4.40
  -4  -1   4    1.80    5.00
  -4  -1   4    0.60    4.50
  -4  -1   4    0.00    4.30
   3   1  -4   46.20   11.50
   3   1  -4   39.50    8.40
   3   1  -4   44.40   10.20
   3   1  -4   53.59    9.70
  -3  -1   4   50.19    9.40
  -3  -1   4   66.79   14.20
  -3  -1   4   60.09   11.60
  -3  -1   4   39.10    7.50
   2   1  -4   18.60    6.30
   2   1  -4   28.60    6.60
   2   1  -4   21.70    5.30
   2   1  -4   20.20    6.10
  -2  -1   4   31.00    7.00
  -2  -1   4   25.70    6.40
  -2  -1   4   37.10    9.80
  -2  -1   4   28.40    6.70
   1   1  -4    1.70    3.20
   1   1  -4    7.80    4.00
   1   1  -4    2.80    2.80
   1   1  -4   10.70    4.20
  -1  -1   4   -0.10    2.70
  -1  -1   4    5.90    3.80
  -1  -1   4    2.40    3.20
   0   1  -4  116.59   12.10
   0   1  -4  109.39    8.10
   0   1  -4  115.19    9.40
   0  -1   4   98.09    8.50
   0  -1   4  106.89   11.10
   0  -1   4  111.39    9.50
   0  -1   4  131.49    7.80
  -1   1  -4   59.49    5.60
  -1   1  -4   79.59   11.50
  -1   1  -4   53.59    8.60
   1  -1   4   53.99    8.60
   1  -1   4   60.99    9.30
   1  -1   4   56.79    4.40
  -2   1  -4  214.78    9.00
  -2   1  -4  183.58   15.90
  -2   1  -4  175.88   14.00
   2  -1   4  184.38   16.00
   2  -1   4  221.58   16.80
  -3   1  -4  190.68   15.80
  -3   1  -4  177.78    8.40
  -3   1  -4  194.08   21.60
   3  -1   4  232.78   24.50
   3  -1   4  181.88   22.00
  -4   1  -4   25.10    4.00
  -4   1  -4   37.70   11.30
  -4   1  -4   23.00    8.90
  -4   1  -4   22.40    4.60
   4  -1   4   19.60   10.10
   4  -1   4   19.90    9.50
  -5   1  -4   -0.90    2.90
  -5   1  -4   -4.40    4.30
  -5   1  -4    7.80    6.50
  -5   1  -4   -3.10    1.80
   5  -1   4   -3.60    4.50
   5  -1   4    0.20    5.90
  -6   1  -4   -3.00    5.20
  -6   1  -4    2.60    2.80
  -6   1  -4    6.40    3.80
   6  -1   4    6.30    8.60
   7   0  -4   19.40   13.70
  -7   0   4    0.20    4.90
  -7   0   4    0.40    5.70
  -7   0   4    7.20    8.90
   6   0  -4   29.90   12.50
   6   0  -4   15.50   11.50
   6   0  -4   55.39   15.10
  -6   0   4   22.60   11.80
   5   0  -4   75.79   14.60
   5   0  -4   94.09   24.60
   5   0  -4   97.89   20.90
  -5   0   4   88.69   14.50
  -5   0   4   78.79   12.90
  -5   0   4   51.99   13.90
   4   0  -4   43.40   12.20
   4   0  -4   35.20    9.20
   4   0  -4   18.70    7.80
   4   0  -4   29.30   10.00
  -4   0   4   16.30    8.70
  -4   0   4   27.70    9.60
  -4   0   4   15.90    6.90
  -4   0   4   39.90    9.70
   3   0  -4   32.50    7.40
   3   0  -4   51.09   10.80
   3   0  -4   34.80    8.80
   3   0  -4   37.40    7.20
  -3   0   4   52.89   11.60
  -3   0   4   33.00    7.30
  -3   0   4   43.80    9.60
  -3   0   4   31.30    6.80
   2   0  -4   33.40    6.80
   2   0  -4   48.20    9.00
   2   0  -4   51.59    7.60
   2   0  -4   43.80    8.70
  -2   0   4   53.59    8.40
  -2   0   4   30.40    6.90
  -2   0   4   37.70    8.00
  -2   0   4   32.50    7.20
   1   0  -4  679.83   27.10
   1   0  -4  688.73   28.10
   1   0  -4  658.63   26.10
   1   0  -4  675.23   25.90
  -1   0   4  692.93   27.70
  -1   0   4  667.53   27.50
  -1   0   4  640.74   27.20
  -1   0   4  694.13   25.80
   0   0  -4   24.80    5.30
   0   0  -4   38.80    5.60
   0   0  -4   34.90    6.50
   0   0   4   33.80    5.90
   0   0   4   25.80    5.50
   0   0   4   31.50    4.60
  -1   0  -4    2.40    3.20
  -1   0  -4    3.50    3.80
  -1   0  -4   -0.30    1.70
   1   0   4   -2.10    2.60
   1   0   4    0.20    1.60
   1   0   4    2.20    3.40
  -2   0  -4  343.17   13.50
  -2   0  -4  338.97   22.00
  -2   0  -4  339.87   20.00
   2   0   4  343.57   21.40
   2   0   4  358.96   22.20
  -3   0  -4  212.88   22.00
  -3   0  -4  233.38   10.90
  -3   0  -4  239.68   19.80
   3   0   4  207.28   22.80
   3   0   4  233.18   19.40
  -4   0  -4  115.89   18.50
  -4   0  -4   94.59   15.60
   4   0   4   78.69   15.60
   4   0   4   94.29   16.80
  -5   0  -4  124.89   10.40
  -5   0  -4  157.58   21.20
  -5   0  -4  173.98   24.80
   5   0   4  107.19   20.30
   5   0   4  163.68   24.80
  -6   0  -4   37.10    7.10
  -6   0  -4   32.90   11.20
   6   0   4   13.70    9.90
   6   0   4   43.50   15.30
  -7   0  -4   10.80    6.40
   7   0   4   14.30   10.20
   7  -1  -4    1.70    9.30
  -7   1   4    0.40    8.20
  -7   1   4    3.20    5.30
  -7   1   4    4.00    6.80
   6  -1  -4   30.00   11.20
   6  -1  -4   60.69   17.20
   6  -1  -4   31.00   12.40
  -6   1   4   26.40    9.50
  -6   1   4   56.79   14.00
  -6   1   4   45.60    9.70
   5  -1  -4    8.60    7.70
   5  -1  -4   19.00    7.90
   5  -1  -4    2.80    6.40
  -5   1   4    9.50    6.40
  -5   1   4    8.60    6.60
  -5   1   4   12.40    8.20
   4  -1  -4   21.50    7.30
   4  -1  -4   37.70    9.70
   4  -1  -4   35.30   14.40
   4  -1  -4   22.80    9.10
  -4   1   4   29.90    8.50
  -4   1   4   35.70    9.60
  -4   1   4   36.20    7.80
   3  -1  -4   -0.90    2.80
   3  -1  -4   -0.60    3.40
   3  -1  -4    1.80    4.40
   3  -1  -4   -0.40    3.70
  -3   1   4   -1.80    3.70
  -3   1   4    6.20    5.40
  -3   1   4    7.00    4.40
  -3   1   4    2.30    3.50
   2  -1  -4   95.29   12.40
   2  -1  -4   65.99    8.10
   2  -1  -4   73.69   10.40
   2  -1  -4   77.09   10.30
  -2   1   4   92.59   10.50
  -2   1   4   76.59   10.60
  -2   1   4   74.19   11.00
   1  -1  -4   75.99    9.60
   1  -1  -4   73.99    6.30
   1  -1  -4   82.19    8.80
   1  -1  -4   81.49    9.20
  -1   1   4   59.59    6.90
  -1   1   4   82.99    9.30
  -1   1   4   70.79    8.70
  -1   1   4   79.19    9.20
   0  -1  -4  539.15   22.60
   0  -1  -4  539.75   22.90
   0  -1  -4  556.64   20.70
   0   1   4  524.05   20.00
   0   1   4  599.04   23.50
   0   1   4  556.04   22.20
   0   1   4  549.25   19.50
  -1  -1  -4   37.40    7.70
  -1  -1  -4   31.10    6.50
  -1  -1  -4   28.90    3.70
   1   1   4   48.50    8.00
   1   1   4   25.00    3.60
   1   1   4   44.00    7.80
  -2  -1  -4  246.38   16.70
  -2  -1  -4  213.78   17.10
  -2  -1  -4  236.68   10.90
   2   1   4  234.08   17.30
   2   1   4  211.38   16.90
  -3  -1  -4  497.35   30.00
  -3  -1  -4  477.75   27.90
   3   1   4  486.75   29.00
   3   1   4  483.35   29.00
  -4  -1  -4   68.89   13.70
  -4  -1  -4  103.49   17.20
   4   1   4   73.19   15.50
   4   1   4   66.39   14.90
   4   1   4   67.09   14.00
  -5  -1  -4   86.29   17.90
  -5  -1  -4   68.39   14.90
  -5  -1  -4   72.19   10.30
   5   1   4   61.49   15.80
   5   1   4   56.19   15.40
   5   1   4   77.19   17.20
  -6  -1  -4    4.20    8.10
  -6  -1  -4    6.60    5.20
   6   1   4   10.20    9.40
   6   1   4    4.90    9.00
   6   1   4   48.60   17.20
  -7  -1  -4   18.20   11.90
  -7  -1  -4   11.60    6.10
   7   1   4   14.00   11.40
   7  -2  -4   -2.60    7.20
  -7   2   4    8.70    8.40
  -7   2   4   -1.20    4.50
   6  -2  -4   73.59   17.00
   6  -2  -4   56.29   15.40
   6  -2  -4   56.29   15.60
  -6   2   4   77.09   13.80
  -6   2   4  112.99   18.80
  -6   2   4   71.09   12.80
   5  -2  -4   -3.40    4.30
   5  -2  -4    3.00    6.20
   5  -2  -4   -6.00    4.30
   5  -2  -4   -0.20    5.10
  -5   2   4    5.20    6.90
  -5   2   4    0.30    5.00
  -5   2   4    4.50    5.00
   4  -2  -4   57.59   15.40
   4  -2  -4   63.39   11.60
   4  -2  -4   57.79   13.40
   4  -2  -4   65.29   12.20
  -4   2   4   73.59   13.30
  -4   2   4   60.89   11.90
  -4   2   4   55.09    9.80
   3  -2  -4  125.89   13.50
   3  -2  -4  135.09   19.60
   3  -2  -4  112.49   14.70
   3  -2  -4   96.89   14.30
  -3   2   4  104.39   13.90
  -3   2   4  116.49   10.20
  -3   2   4  119.19   12.90
   2  -2  -4  253.07   15.50
   2  -2  -4  278.67   15.40
   2  -2  -4  298.77   18.00
  -2   2   4  265.27   14.30
  -2   2   4  243.68   15.50
  -2   2   4  260.27   14.60
   1  -2  -4   16.10    4.00
   1  -2  -4   13.60    3.90
   1  -2  -4   10.80    3.30
  -1   2   4   14.20    3.20
  -1   2   4   25.90    5.00
  -1   2   4   20.80    4.90
  -1   2   4   19.60    4.40
   0  -2  -4    0.60    1.90
   0  -2  -4   -1.20    2.10
   0  -2  -4    0.80    2.00
   0   2   4    1.00    2.10
   0   2   4    0.80    2.50
   0   2   4    1.80    1.70
  -1  -2  -4  738.23   30.20
  -1  -2  -4  729.23   29.70
  -1  -2  -4  723.73   25.20
   1   2   4  738.83   28.70
   1   2   4  713.43   29.90
  -2  -2  -4    1.50    4.00
  -2  -2  -4    1.00    3.80
   2   2   4    3.50    4.20
   2   2   4    1.50    3.90
  -3  -2  -4  168.58   20.10
  -3  -2  -4  127.69   16.70
   3   2   4  168.18   20.40
   3   2   4  141.19   17.90
   3   2   4  161.78   19.00
  -4  -2  -4    0.80    5.60
  -4  -2  -4    7.30    6.20
   4   2   4    0.50    5.40
   4   2   4    0.30    5.60
   4   2   4   -0.70    4.50
  -5  -2  -4  203.98   28.10
  -5  -2  -4  198.08   26.00
   5   2   4  204.18   29.70
   5   2   4  172.58   30.80
  -6  -2  -4    9.90   10.60
  -6  -2  -4   -0.60    4.40
  -6  -2  -4   -4.90    5.70
   6   2   4   -4.20    5.40
   6   2   4   -1.60    4.20
   6   2   4    6.40    8.80
  -7  -2  -4    2.00    5.40
  -7  -2  -4   12.80   10.40
   7   2   4   -0.50    9.20
   6  -3  -4  254.17   38.80
   6  -3  -4  240.68   30.50
   6  -3  -4  198.38   30.20
  -6   3   4  211.48   16.80
  -6   3   4  169.18   20.30
  -6   3   4  178.48   14.80
   5  -3  -4  133.69   16.40
   5  -3  -4   92.59   16.80
   5  -3  -4   95.99   19.40
   5  -3  -4  103.39   20.80
  -5   3   4  130.89   15.10
  -5   3   4  121.29   13.70
  -5   3   4  134.39   17.50
   4  -3  -4   28.50    8.00
   4  -3  -4   34.40    9.50
   4  -3  -4   28.30   10.40
   4  -3  -4   36.00   10.80
  -4   3   4   33.30    7.50
  -4   3   4   38.70    9.30
  -4   3   4   27.00    6.90
   3  -3  -4  214.38   14.40
   3  -3  -4  211.18   16.80
   3  -3  -4  187.88   15.60
   3  -3  -4  224.98   19.10
  -3   3   4  201.38   13.20
  -3   3   4  252.97   16.00
  -3   3   4  200.58   12.70
   2  -3  -4   47.30    8.10
   2  -3  -4   40.50    8.70
   2  -3  -4   30.60    6.70
   2  -3  -4   51.09    8.30
  -2   3   4   35.80    5.90
  -2   3   4   47.50    6.30
  -2   3   4   39.80    6.90
   1  -3  -4  896.71   32.00
   1  -3  -4  909.51   32.10
   1  -3  -4  888.51   31.90
   1  -3  -4  909.81   32.20
  -1   3   4  913.21   30.80
  -1   3   4  928.41   31.50
  -1   3   4  903.31   30.10
   0  -3  -4   73.09    6.10
   0  -3  -4   80.69    6.30
   0  -3  -4   76.89    8.10
   0   3   4   79.29    6.50
   0   3   4   81.49    6.30
   0   3   4   79.09    5.70
  -1  -3  -4  175.98   11.90
  -1  -3  -4  159.48   11.80
  -1  -3  -4  167.68    9.30
   1   3   4  165.78   10.70
   1   3   4  147.99   11.30
   1   3   4  164.48   10.50
  -2  -3  -4   -2.20    3.20
  -2  -3  -4   -2.30    3.50
   2   3   4   -3.60    3.20
   2   3   4    2.00    4.10
  -3  -3  -4  166.18   19.70
  -3  -3  -4  211.98   22.70
   3   3   4  202.68   17.30
   3   3   4  193.98   18.10
   3   3   4  140.39   17.50
  -4  -3  -4    8.30    6.80
  -4  -3  -4   15.30    8.50
   4   3   4    7.00    7.20
   4   3   4   12.30    7.60
   4   3   4    5.90    5.90
  -5  -3  -4  216.58   28.50
  -5  -3  -4  306.67   33.10
   5   3   4  205.58   27.30
   5   3   4  244.88   29.40
   5   3   4  258.47   34.00
  -6  -3  -4    5.40    5.30
  -6  -3  -4    7.10    8.70
   6   3   4   13.70    9.90
   6   3   4    1.20    6.00
   6   3   4    3.00    7.30
  -7  -3  -4   10.80   10.40
   7   3   4    2.40   10.20
   6  -4  -4    2.90    8.00
   6  -4  -4    1.20    6.40
   6  -4  -4    3.50    7.80
  -6   4   4    2.00    3.90
  -6   4   4    0.40    4.40
  -6   4   4    3.90    4.50
   5  -4  -4   36.50   13.00
   5  -4  -4   22.20    8.10
   5  -4  -4   40.80   15.20
   5  -4  -4   47.00   12.30
  -5   4   4   40.90    8.80
  -5   4   4   36.80    8.00
  -5   4   4   23.30    6.30
   4  -4  -4   52.49   12.10
   4  -4  -4   54.89   14.40
   4  -4  -4   33.40   11.00
   4  -4  -4   53.29   10.50
  -4   4   4   41.10    8.00
  -4   4   4   45.70    7.70
  -4   4   4   44.50    7.00
   3  -4  -4   15.50    6.60
   3  -4  -4    9.30    4.70
   3  -4  -4   25.00    8.10
   3  -4  -4   16.80    6.00
  -3   4   4   14.40    3.40
  -3   4   4   11.10    3.70
  -3   4   4   17.40    4.80
   2  -4  -4  118.19   14.70
   2  -4  -4  119.69    9.60
   2  -4  -4  118.49   12.10
   2  -4  -4  104.69    9.30
  -2   4   4  130.59    8.90
   1  -4  -4   18.60    6.00
   1  -4  -4   11.10    3.40
   1  -4  -4   13.50    3.70
  -1   4   4   11.30    3.60
   0  -4  -4   87.59    6.20
   0  -4  -4   96.79    7.10
   0  -4  -4   89.99    7.00
   0   4   4   87.29    7.00
  -1  -4  -4    2.90    2.40
  -1  -4  -4    5.70    3.40
  -1  -4  -4    2.20    3.30
   1   4   4    2.50    3.20
   1   4   4    4.30    2.60
   1   4   4    2.40    2.10
  -2  -4  -4   67.29   11.20
  -2  -4  -4   64.99   10.70
   2   4   4   55.49    9.70
   2   4   4   63.49   10.30
   2   4   4   57.29    9.60
  -3  -4  -4   42.90   11.20
  -3  -4  -4   20.00    7.70
   3   4   4   18.60    7.10
   3   4   4   27.50    8.60
   3   4   4   14.40    6.50
  -4  -4  -4   13.30    8.50
  -4  -4  -4   15.10    8.10
   4   4   4    7.70    6.60
   4   4   4   16.00    8.10
   4   4   4   23.50    8.80
  -5  -4  -4   59.69   17.20
  -5  -4  -4   44.80   13.20
   5   4   4   28.50   13.60
   5   4   4   23.80   10.40
   5   4   4   55.99   14.70
  -6  -4  -4    1.50    7.30
  -6  -4  -4   -9.10    5.10
  -6  -4  -4    1.80    5.20
   6   4   4    6.80    8.40
   6   4   4    4.10    7.70
   6   4   4   -4.30    3.10
  -7  -4  -4    4.50   11.00
  -7  -4  -4    7.70    9.00
   7   4   4   18.20   11.90
   6  -5  -4   14.40   11.00
   6  -5  -4   22.00   12.90
  -6   5   4   23.60    6.90
   5  -5  -4   70.29   15.00
   5  -5  -4   70.79   11.60
   5  -5  -4   60.49   17.00
  -5   5   4   90.49   11.20
   4  -5  -4   52.89   11.80
   4  -5  -4   51.29    9.80
   4  -5  -4   85.89   15.70
   4  -5  -4   67.49   14.80
   3  -5  -4   81.59   12.70
   3  -5  -4   84.49   16.20
   3  -5  -4   75.89   11.90
   3  -5  -4   77.29   10.20
  -3   5   4   75.59    8.60
   2  -5  -4   64.49    8.40
   2  -5  -4   60.99    8.60
   2  -5  -4   53.59    8.30
  -2   5   4   57.69    7.50
   1  -5  -4   78.09    8.80
   1  -5  -4   65.19    6.30
   1  -5  -4   66.69    6.70
  -1   5   4   53.49    6.30
   0  -5  -4  307.17   13.10
   0  -5  -4  307.47   14.60
   0  -5  -4  314.67   13.40
  -1  -5  -4 1331.17   45.00
  -1  -5  -4 1308.77   43.60
  -1  -5  -4 1325.97   45.80
  -1  -5  -4 1276.07   44.70
   1   5   4 1299.27   42.60
   1   5   4 1286.87   39.90
  -2  -5  -4  126.39   15.00
  -2  -5  -4  134.89   15.60
  -2  -5  -4  111.19   14.10
   2   5   4  133.29   15.40
   2   5   4  117.59   10.30
   2   5   4  130.09   13.30
  -3  -5  -4  144.19   19.50
  -3  -5  -4  122.59   17.20
  -3  -5  -4  177.58   20.80
   3   5   4  153.08   17.60
   3   5   4  162.98   18.20
   3   5   4  165.08   20.80
  -4  -5  -4   36.70   10.70
  -4  -5  -4   38.10   11.40
   4   5   4   33.70   10.40
   4   5   4   34.20   12.40
   4   5   4   28.10    8.90
  -5  -5  -4  621.34   45.30
   5   5   4  556.54   36.50
   5   5   4  665.53   40.40
   5   5   4  553.04   39.80
  -6  -5  -4    5.40    8.70
  -6  -5  -4   13.60   11.10
   6   5   4    4.70    8.30
   6   5   4    9.70    9.40
  -7  -5  -4    8.40    7.10
  -7  -5  -4   17.30   11.50
   7   5   4    4.40   10.70
   6  -6  -4    4.30    7.40
  -6   6   4   -0.50    3.10
   5  -6  -4   -3.20    4.70
   5  -6  -4   -1.90    7.30
   5  -6  -4   -5.80    3.50
   5  -6  -4   -5.00    3.20
  -5   6   4    2.00    3.00
   4  -6  -4   13.80    8.30
   4  -6  -4    5.70    5.00
   4  -6  -4    2.60    5.50
   4  -6  -4    6.10    6.60
  -4   6   4   10.80    4.00
   3  -6  -4   13.10    5.60
   3  -6  -4   12.20    6.40
   3  -6  -4    9.50    5.20
  -3   6   4    7.40    3.80
   2  -6  -4  106.49    9.10
   2  -6  -4  119.29    9.20
   2  -6  -4  111.39    9.50
  -2   6   4  108.89    8.50
   1  -6  -4    0.50    1.60
   1  -6  -4    0.00    1.40
   1  -6  -4    2.10    2.80
   0  -6  -4  148.49    7.90
   0  -6  -4  158.38   10.10
   0  -6  -4  159.98    9.80
   0  -6  -4  166.58    7.10
  -1  -6  -4  265.17   14.70
  -1  -6  -4  272.57   14.30
  -1  -6  -4  253.67   15.30
  -1  -6  -4  244.18   14.00
   1   6   4  273.57   13.80
  -2  -6  -4   67.09   10.70
  -2  -6  -4   81.39   12.50
  -2  -6  -4   75.29   11.80
   2   6   4   74.99    8.60
   2   6   4   90.09   13.20
   2   6   4   88.89    9.20
  -3  -6  -4   17.30    7.60
  -3  -6  -4   23.00    8.90
  -3  -6  -4   17.20    7.60
   3   6   4   21.60    7.30
   3   6   4   30.00    7.80
   3   6   4   16.80    6.40
  -4  -6  -4   47.10   12.40
  -4  -6  -4   31.70   10.50
  -4  -6  -4   35.70   11.30
   4   6   4   62.09   14.00
   4   6   4   38.40   10.10
   4   6   4   27.50    9.80
  -5  -6  -4  118.99   25.80
  -5  -6  -4   60.59   15.60
   5   6   4   80.19   15.40
   5   6   4   79.89   15.50
   5   6   4   52.09   14.20
  -6  -6  -4    5.80    5.90
  -6  -6  -4    9.40    9.50
   6   6   4   25.10   10.80
   6   6   4   -5.30    5.40
   6   6   4   -4.70    6.00
  -7  -6  -4   15.80   11.90
   5  -7  -4   -3.90    5.70
   5  -7  -4   -2.40    4.90
   5  -7  -4    4.30    8.40
   5  -7  -4   -1.40    3.60
   4  -7  -4   52.99   12.20
   4  -7  -4   40.60    8.50
   4  -7  -4   25.80   12.30
   4  -7  -4   38.00   10.70
  -4   7   4   63.89    8.40
   3  -7  -4  166.78   18.10
   3  -7  -4  153.48   12.50
   3  -7  -4  170.18   18.00
  -3   7   4  177.88   11.30
   2  -7  -4   94.69    8.40
   2  -7  -4  103.99    8.60
   2  -7  -4   99.89   11.50
   1  -7  -4   41.60    7.00
   1  -7  -4   46.70    9.80
   0  -7  -4   13.70    4.30
   0  -7  -4   11.20    3.50
  -1  -7  -4  579.84   24.00
  -1  -7  -4  604.54   27.30
  -1  -7  -4  546.85   24.00
   1   7   4  610.34   24.90
  -2  -7  -4   78.99   12.70
  -2  -7  -4   69.49   10.70
  -2  -7  -4   84.99   11.90
   2   7   4   56.49    4.60
   2   7   4   62.79   10.70
  -3  -7  -4  241.08   19.90
  -3  -7  -4  235.68   19.80
  -3  -7  -4  236.28   20.70
   3   7   4  242.68   19.20
   3   7   4  240.58   16.20
   3   7   4  260.17   17.00
  -4  -7  -4   19.20    9.40
  -4  -7  -4    6.90    7.00
  -4  -7  -4   15.30    8.70
   4   7   4    5.40    6.60
   4   7   4   17.70    8.60
   4   7   4   15.50    7.90
  -5  -7  -4  319.97   29.90
  -5  -7  -4  353.26   30.50
  -5  -7  -4  353.06   36.90
   5   7   4  308.47   24.70
   5   7   4  299.47   27.60
   5   7   4  344.27   26.70
  -6  -7  -4   -9.70    4.10
  -6  -7  -4    2.50    8.00
   6   7   4   -2.80    3.80
   6   7   4    0.40    6.90
   6   7   4   -3.10    5.60
  -7  -7  -4   39.70   19.30
   7   7   4   79.69   19.40
   5  -8  -4   -5.40    4.30
   5  -8  -4    2.50    6.60
   4  -8  -4   -1.20    4.60
   4  -8  -4    9.10    5.00
   4  -8  -4   -0.40    4.80
   3  -8  -4   43.00    7.70
   3  -8  -4   54.59   10.50
   3  -8  -4   60.89   11.00
   2  -8  -4   28.30    6.10
   2  -8  -4   24.30    6.10
   2  -8  -4   13.90    4.60
   1  -8  -4    5.50    3.40
   1  -8  -4    4.30    3.90
   0  -8  -4    3.40    2.80
   0  -8  -4    1.40    2.40
  -1  -8  -4   -1.00    2.10
  -1  -8  -4   -0.40    2.60
  -1  -8  -4   -0.20    2.60
  -1  -8  -4    2.20    3.30
   1   8   4   -0.20    2.20
  -2  -8  -4   22.20    7.20
  -2  -8  -4   13.80    6.20
  -2  -8  -4   13.10    6.50
   2   8   4   14.70    5.00
  -3  -8  -4    1.50    5.20
  -3  -8  -4   -3.10    4.10
  -3  -8  -4    2.70    5.60
   3   8   4    2.00    3.50
   3   8   4   -4.10    2.70
  -4  -8  -4    3.90    7.10
  -4  -8  -4    2.80    7.30
  -4  -8  -4   14.60    9.50
   4   8   4    6.20    5.20
   4   8   4   15.10    7.00
   4   8   4    2.70    4.80
  -5  -8  -4   32.00   13.20
  -5  -8  -4   36.30   13.40
   5   8   4   21.60    8.50
   5   8   4   38.40   10.50
   5   8   4   27.30    9.00
  -6  -8  -4    5.80    8.30
   6   8   4   -4.20    6.40
   6   8   4    2.20    7.20
   6   8   4   21.60   10.90
  -7  -8  -4    1.90    8.40
   7   8   4   -5.60    5.30
   4  -9  -4    1.00    4.50
   4  -9  -4    6.50    7.20
   4  -9  -4   12.60    7.80
   3  -9  -4   69.19    9.90
   3  -9  -4   58.99   11.00
   3  -9  -4   66.29   11.50
   2  -9  -4    2.60    3.50
   2  -9  -4    2.20    3.30
   2  -9  -4    1.50    3.80
   2  -9  -4    0.00    3.00
   1  -9  -4  180.38   14.60
   1  -9  -4  220.08   13.50
   0  -9  -4   66.19    8.80
   0  -9  -4  105.39   15.00
  -1  -9  -4   47.20   10.30
  -1  -9  -4   64.49    8.60
  -1  -9  -4   58.99    7.80
  -1  -9  -4   57.49    8.20
  -2  -9  -4    5.30    5.50
  -2  -9  -4   -3.80    3.20
  -2  -9  -4   -0.20    4.10
   2   9   4    8.80    5.80
  -3  -9  -4   21.30   10.60
  -3  -9  -4   14.90    8.50
  -3  -9  -4   31.90    9.90
   3   9   4   22.40    3.70
   3   9   4   29.40    9.00
   3   9   4   22.40    3.50
  -4  -9  -4   30.20   10.50
  -4  -9  -4    2.70    6.40
  -4  -9  -4    8.20    7.90
   4   9   4    2.40    5.20
   4   9   4    4.90    4.90
   4   9   4   15.20    5.60
  -5  -9  -4   14.50   10.30
  -5  -9  -4   20.80   12.80
  -5  -9  -4   12.50   10.20
   5   9   4   26.80    8.40
   5   9   4    8.50    7.30
  -6  -9  -4    2.00    7.40
  -6  -9  -4    2.40    7.80
   6   9   4    2.50    6.40
   6   9   4   13.60    8.40
   4 -10  -4   -2.00    3.50
   4 -10  -4   -3.80    4.40
   4 -10  -4    2.10    6.20
   3 -10  -4   -2.30    3.60
   3 -10  -4    2.00    4.80
   3 -10  -4   -0.70    4.40
   3 -10  -4    7.00    4.50
   2 -10  -4    4.50    3.90
   2 -10  -4    3.00    4.20
   2 -10  -4    0.50    2.90
   2 -10  -4    1.10    3.20
   1 -10  -4   36.00    7.20
   1 -10  -4   28.90    8.10
   0 -10  -4   11.70    4.70
   0 -10  -4   16.70    7.00
  -1 -10  -4   -1.00    3.00
  -1 -10  -4    0.00    3.40
  -1 -10  -4   -3.50    2.50
  -1 -10  -4   -1.20    3.10
  -2 -10  -4   32.70    8.30
  -2 -10  -4   30.50    9.70
  -2 -10  -4   31.70    8.40
   2  10   4   31.00   10.00
  -3 -10  -4    3.90    5.40
  -3 -10  -4    5.00    6.00
  -3 -10  -4   -3.80    5.10
   3  10   4    0.90    3.50
  -4 -10  -4   -4.80    3.10
  -4 -10  -4   -0.10    5.90
  -4 -10  -4   -2.40    4.50
   4  10   4   -2.40    3.00
   4  10   4    4.40    3.50
  -5 -10  -4   97.89   20.10
  -5 -10  -4   92.59   31.30
  -5 -10  -4   61.19   18.70
   5  10   4  103.89   14.70
   5  10   4   83.19   13.50
  -6 -10  -4   -0.20    8.70
  -6 -10  -4    5.80   10.10
   6  10   4   -3.30    5.80
   3 -11  -4    4.50    4.40
   3 -11  -4   18.80    7.70
   3 -11  -4    6.80    6.10
   3 -11  -4    8.60    6.70
   2 -11  -4   36.70    9.90
   2 -11  -4   15.70    5.10
   2 -11  -4   21.30    5.50
   2 -11  -4   31.30    7.20
   1 -11  -4   23.10    7.60
   1 -11  -4   12.70    5.30
   0 -11  -4    3.20    4.50
   0 -11  -4    0.70    3.50
  -1 -11  -4    0.60    3.50
  -1 -11  -4    1.00    3.30
  -1 -11  -4    1.40    3.90
  -1 -11  -4    2.20    4.20
  -2 -11  -4   14.60    7.40
  -2 -11  -4   19.70    7.50
  -2 -11  -4   33.70    9.70
   2  11   4   25.30    7.50
  -3 -11  -4   80.59   16.00
  -3 -11  -4   73.99   14.40
  -3 -11  -4   97.49   16.00
   3  11   4   60.99   11.00
  -4 -11  -4   29.40   13.20
  -4 -11  -4   23.00   11.20
  -4 -11  -4   24.60   11.70
   4  11   4   10.50    5.70
  -5 -11  -4    1.80    6.50
  -5 -11  -4    4.60    8.90
  -5 -11  -4    2.40    7.70
   5  11   4    0.50    3.40
   5  11   4    3.20    5.10
   5  11   4   15.90   10.40
  -6 -11  -4   10.10   10.40
  -6 -11  -4   -2.40    7.80
   6  11   4    6.20    6.10
   6  11   4    3.30    7.30
   2 -12  -4    7.20    5.90
   2 -12  -4   24.20    6.60
   2 -12  -4    7.90    4.40
   2 -12  -4    6.10    4.20
   1 -12  -4   65.99   10.10
   1 -12  -4   88.59   16.10
   0 -12  -4   -0.80    3.50
   0 -12  -4    0.10    3.10
  -1 -12  -4   76.39   15.30
  -1 -12  -4   62.69    9.60
  -1 -12  -4   86.19   10.50
  -1 -12  -4   58.59    9.50
  -2 -12  -4   17.80    7.90
  -2 -12  -4   17.10    8.30
  -3 -12  -4   76.49   15.00
  -3 -12  -4   71.49   14.40
  -3 -12  -4   62.79   17.20
  -4 -12  -4    5.10    9.10
  -4 -12  -4   13.60   10.20
  -5 -12  -4   36.60   14.30
  -5 -12  -4   38.80   15.10
   5  12   4   36.60    5.10
   1 -13  -4    4.50    3.60
   1 -13  -4   -2.30    3.70
   0 -13  -4   82.99   16.30
   0 -13  -4   87.99   12.00
  -1 -13  -4   50.69    9.40
  -1 -13  -4   48.50    8.40
  -1 -13  -4   38.80    8.10
  -2 -13  -4    1.10    5.50
  -2 -13  -4    6.60    6.70
  -2 -13  -4    4.00    5.10
  -3 -13  -4   24.30   12.00
  -3 -13  -4   29.00   10.50
  -3 -13  -4   18.00   10.20
  -4 -13  -4   -1.00    7.40
  -4 -13  -4    4.80    7.60
  -4 -13  -4    6.60    9.40
   4  13   4    0.80    4.70
  -5 -13  -4    5.50    9.00
  -5 -13  -4   16.30   12.50
   0 -14  -4    0.70    4.10
   0 -14  -4    0.60    5.10
  -1 -14  -4   54.89   14.00
  -1 -14  -4   34.30    8.00
  -1 -14  -4   44.00    8.70
  -1 -14  -4   38.40    8.40
  -2 -14  -4    1.70    4.60
  -2 -14  -4    8.00    8.00
  -2 -14  -4    9.50    7.20
  -2 -14  -4   11.30    8.10
  -3 -14  -4   47.50   12.40
  -3 -14  -4   49.00   16.70
  -3 -14  -4   48.90   13.70
   3  14   4   43.80   12.40
  -4 -14  -4   -3.40    6.20
  -2 -11   5   -1.40    7.80
  -2 -11   5   -2.00    5.20
  -2 -11   5  -11.20    8.30
  -1 -11   5   -0.40    5.90
  -1 -11   5   -0.20    6.90
  -1 -11   5   -1.50    4.80
  -1 -11   5    4.90    6.50
   4  10  -5   25.20   10.60
   4  10  -5   19.10    7.80
  -4 -10   5   10.30   11.10
  -4 -10   5   30.80   12.60
   3  10  -5    0.90    4.70
   3  10  -5    9.40    5.30
  -3 -10   5    0.00    7.40
  -3 -10   5   15.00   12.40
  -3 -10   5    4.30    7.20
  -3 -10   5    8.10    7.70
  -2 -10   5    4.00    7.60
  -2 -10   5    9.00    7.70
  -2 -10   5    8.60    7.20
  -2 -10   5    1.80    6.70
  -1 -10   5   -4.50    3.20
  -1 -10   5   -1.20    5.70
  -1 -10   5    1.10    5.10
  -1 -10   5    1.70    7.60
   0 -10   5    8.90    5.40
   0 -10   5    6.30    7.30
   0 -10   5    7.20    6.50
   1 -10   5    4.60    8.70
   1 -10   5   -1.30    4.70
   1 -10   5    3.60    7.00
   5   9  -5   11.10    7.70
   5   9  -5    0.00    6.90
  -5  -9   5   -6.50    5.80
  -5  -9   5   -3.90    6.60
   4   9  -5    2.80    5.20
   4   9  -5    7.30    8.20
  -4  -9   5   11.10   11.90
  -4  -9   5   24.90   11.80
   3   9  -5   -0.40    4.00
   3   9  -5    2.20    5.90
  -3  -9   5    1.00   13.20
  -3  -9   5    2.30    6.10
  -3  -9   5   -1.20    5.60
  -3  -9   5    4.30    6.80
   2   9  -5   -1.30    5.20
   2   9  -5    0.40    3.40
  -2  -9   5   -3.00    3.80
  -2  -9   5   -5.10    3.60
  -2  -9   5    5.70    6.50
  -1  -9   5   22.00    8.70
  -1  -9   5   25.80    7.90
  -1  -9   5   29.60    8.70
  -1  -9   5   18.40    8.90
   0  -9   5    0.70    4.90
   0  -9   5   -2.70    3.60
   0  -9   5    3.80    6.10
   0  -9   5    6.80    5.00
   1  -9   5    1.60    6.00
   1  -9   5    0.80    4.60
   1  -9   5    4.00    5.90
   2  -9   5   -1.10    5.30
   2  -9   5    5.90    9.90
   2  -9   5    2.10   10.10
   5   8  -5   46.80   11.30
   5   8  -5   54.59   15.70
  -5  -8   5   59.09   18.60
  -5  -8   5   31.30   12.50
   4   8  -5    9.00   10.00
   4   8  -5    3.10    5.10
  -4  -8   5   26.00   11.40
  -4  -8   5    0.30    4.90
  -4  -8   5   19.00   10.00
  -4  -8   5   10.50   10.40
   3   8  -5   23.20    9.60
   3   8  -5   20.80    6.80
  -3  -8   5   13.10    8.40
  -3  -8   5   26.50   10.30
  -3  -8   5   15.00    8.70
  -3  -8   5   19.20   10.90
   2   8  -5   57.29    9.90
   2   8  -5   56.19   11.50
  -2  -8   5   50.79   10.60
  -2  -8   5   83.49   20.30
  -2  -8   5   54.39   12.20
   1   8  -5   95.69   11.90
   1   8  -5  103.49   11.50
  -1  -8   5  145.79   25.30
  -1  -8   5   91.29   12.70
  -1  -8   5   98.79   15.40
  -1  -8   5   88.59   14.50
   0  -8   5   12.40    8.50
   0  -8   5    8.90    6.10
   0  -8   5   18.20    8.30
   0  -8   5    9.90    5.20
   1  -8   5    4.20    6.40
   1  -8   5   10.70    6.50
   1  -8   5    5.90    6.70
   2  -8   5   53.19   11.90
   2  -8   5   71.79   13.70
   2  -8   5   63.29   14.10
   3  -8   5   26.60   13.10
   3  -8   5   11.80    8.60
   6   7  -5   -5.00    6.30
  -6  -7   5   -1.30   10.20
  -6  -7   5   -3.70    6.00
   5   7  -5   16.80   11.20
  -5  -7   5   17.80   14.10
   4   7  -5   21.00   10.30
   4   7  -5   42.90   12.80
   4   7  -5   31.10    9.10
  -4  -7   5   47.40   11.50
  -4  -7   5   35.20   12.60
  -4  -7   5   22.70   11.90
  -4  -7   5    8.00    8.10
   3   7  -5    7.20    3.90
   3   7  -5   -1.20    3.30
   3   7  -5    8.00    7.40
  -3  -7   5   -7.60    3.00
  -3  -7   5   -3.00    5.10
  -3  -7   5    1.00    5.20
  -3  -7   5    5.90    6.70
   2   7  -5   -1.40    3.60
   2   7  -5    7.90    6.70
  -2  -7   5   -5.00    5.10
  -2  -7   5   -0.40    4.30
  -2  -7   5   -5.40    3.20
  -2  -7   5    6.20    6.80
   1   7  -5    4.20    4.50
   1   7  -5   21.80    7.00
  -1  -7   5   10.80    7.10
  -1  -7   5   -2.10    3.10
  -1  -7   5    4.80    5.30
  -1  -7   5   -2.40    3.10
   0   7  -5   12.70    5.10
   0   7  -5    4.80    4.20
   0  -7   5   17.40    6.60
   0  -7   5    7.80    7.90
   0  -7   5    9.60    4.80
   1  -7   5   -4.30    3.40
   1  -7   5    0.10    4.10
   1  -7   5    2.00    4.10
   2  -7   5    1.80    4.80
   2  -7   5   -0.30    4.80
   2  -7   5    1.80    6.10
   3  -7   5   -2.20    5.80
   3  -7   5   -3.10    3.10
   3  -7   5    1.80    6.00
   4  -7   5   -9.20    3.90
   6   6  -5    0.40    7.90
  -6  -6   5    5.60    9.30
  -6  -6   5    9.40   11.50
   5   6  -5   49.10   15.00
   5   6  -5   64.79   13.00
   5   6  -5   77.49   18.10
  -5  -6   5  105.49   25.40
  -5  -6   5   79.19   17.20
  -5  -6   5   80.99   13.70
   4   6  -5    1.30    5.90
   4   6  -5   15.50   10.00
   4   6  -5   13.10    6.80
  -4  -6   5    1.10    6.30
  -4  -6   5   10.40    7.70
  -4  -6   5   -0.40    6.40
  -4  -6   5    6.00    7.00
   3   6  -5   -0.70    3.50
   3   6  -5   -2.00    4.80
   3   6  -5   -3.50    3.50
  -3  -6   5   -1.70    5.00
  -3  -6   5    9.00    8.00
  -3  -6   5   -1.60    4.80
  -3  -6   5   -3.40    4.90
   2   6  -5   78.69   11.80
   2   6  -5   74.69   14.20
   2   6  -5   88.19   14.00
  -2  -6   5   91.79   13.20
  -2  -6   5   85.89   13.50
  -2  -6   5   92.09   14.80
  -2  -6   5   72.29   16.30
   1   6  -5   39.20    9.50
   1   6  -5   66.19   10.50
  -1  -6   5   38.50    8.90
  -1  -6   5   49.99   10.10
  -1  -6   5   59.29   13.60
  -1  -6   5   34.50    8.00
   0   6  -5   88.69   11.90
   0   6  -5   67.69   10.80
   0  -6   5   86.59   17.10
   0  -6   5   74.29    9.00
   0  -6   5   89.09   13.80
   0  -6   5   79.49   12.50
  -1   6  -5   -2.10    3.20
  -1   6  -5    7.30    4.90
   1  -6   5   -1.40    4.30
   1  -6   5   -2.50    3.60
   1  -6   5    5.00    5.30
  -2   6  -5    3.50    3.70
  -2   6  -5    3.30    3.50
   2  -6   5    3.00    5.40
   2  -6   5    1.40    5.00
   2  -6   5   -2.10    4.10
   3  -6   5   55.09   14.10
   4  -6   5   45.90   13.60
   4  -6   5   36.90   12.90
   6   5  -5    6.20    9.20
  -6  -5   5   13.30   10.50
  -6  -5   5   -0.20    7.50
   5   5  -5   30.70   10.60
   5   5  -5   66.99   16.50
  -5  -5   5   56.49   17.40
  -5  -5   5   52.99   14.70
   4   5  -5   39.90   12.70
   4   5  -5   73.69   12.70
   4   5  -5   36.60    8.70
  -4  -5   5   62.79   14.60
  -4  -5   5   82.19   15.90
  -4  -5   5   65.99   21.80
  -4  -5   5   59.89   12.20
   3   5  -5    6.00    6.40
   3   5  -5    1.40    3.90
   3   5  -5    3.30    5.50
  -3  -5   5    1.30    4.60
  -3  -5   5   -0.80    4.70
  -3  -5   5    2.30    5.40
  -3  -5   5   -3.30    4.60
   2   5  -5    3.70    4.00
   2   5  -5   -2.10    2.00
   2   5  -5    3.20    5.40
  -2  -5   5   -6.10    3.30
  -2  -5   5    4.00    5.60
  -2  -5   5    3.60    4.60
  -2  -5   5    0.90    4.00
   1   5  -5   86.79   15.10
   1   5  -5   92.29   13.70
   1   5  -5  111.49   13.80
  -1  -5   5  117.09   14.80
  -1  -5   5  111.29   14.80
  -1  -5   5   89.49   15.20
  -1  -5   5  115.19   12.60
   0   5  -5  165.98   17.70
   0   5  -5  132.89   14.80
   0  -5   5  119.09    9.50
   0  -5   5  153.28   17.00
   0  -5   5  111.19   21.00
   0  -5   5  113.69   16.00
  -1   5  -5   -1.30    3.40
  -1   5  -5   -1.70    3.60
   1  -5   5    4.40    4.90
   1  -5   5    2.00    4.20
   1  -5   5   -0.40    3.90
   1  -5   5    1.50    2.10
  -2   5  -5  146.19   11.70
  -2   5  -5  161.88   17.10
   2  -5   5   97.79   15.50
   2  -5   5   91.79   16.20
   2  -5   5  126.59   17.70
  -3   5  -5    3.30    4.50
  -3   5  -5    1.80    3.50
   3  -5   5    1.60    6.50
   3  -5   5   -1.60    5.50
  -4   5  -5   32.70    8.20
  -4   5  -5   31.00    7.10
   4  -5   5    8.90    8.80
   4  -5   5   13.50   15.00
  -5   5  -5    3.90    5.20
  -5   5  -5    2.80    4.90
   5  -5   5    2.80    8.20
   6   4  -5    1.50    9.70
  -6  -4   5    6.80   10.10
  -6  -4   5    2.80    8.80
   5   4  -5    8.50    7.60
   5   4  -5   14.30   10.50
   5   4  -5   14.60    9.20
  -5  -4   5   19.80   11.60
  -5  -4   5   12.30    9.40
   4   4  -5   14.20    6.70
   4   4  -5   10.00    6.10
   4   4  -5    4.00    7.60
  -4  -4   5   35.20   10.40
  -4  -4   5   17.90    7.70
  -4  -4   5   36.90   12.60
   3   4  -5   58.79   12.20
   3   4  -5   63.59   13.50
   3   4  -5   80.39   13.20
  -3  -4   5   50.39   10.70
  -3  -4   5   55.39   13.10
  -3  -4   5   86.29   14.90
  -3  -4   5   58.59   11.30
   2   4  -5   15.40    5.60
   2   4  -5   13.80    6.00
   2   4  -5    1.70    4.70
  -2  -4   5    9.90    5.70
  -2  -4   5    4.60    4.60
  -2  -4   5   -0.50    3.70
  -2  -4   5    7.20    5.70
   1   4  -5   -1.90    3.60
   1   4  -5   -3.60    3.40
   1   4  -5   -0.50    2.80
  -1  -4   5   -5.50    2.20
  -1  -4   5    0.40    3.10
  -1  -4   5    2.20    3.30
   0   4  -5   -3.40    2.90
   0   4  -5    4.40    4.10
   0  -4   5    2.90    3.90
   0  -4   5   -0.90    3.10
   0  -4   5    2.20    3.20
  -1   4  -5    0.50    4.20
  -1   4  -5    1.40    3.70
   1  -4   5   -2.20    1.70
   1  -4   5    1.30    4.50
   1  -4   5   -0.70    3.40
   1  -4   5   -2.50    3.00
  -2   4  -5   -6.30    3.10
  -2   4  -5   -4.50    2.70
   2  -4   5    0.00    3.90
   2  -4   5   -4.50    2.90
  -3   4  -5   64.69   12.50
  -3   4  -5   74.99   11.30
   3  -4   5   68.89   13.60
   3  -4   5   99.39   17.20
  -4   4  -5   34.40    8.40
  -4   4  -5   37.60   10.70
   4  -4   5   13.70    9.90
   4  -4   5   15.70    9.30
  -5   4  -5   89.19   16.20
  -5   4  -5   50.09   10.20
   5  -4   5   33.50   14.00
   7   3  -5    5.20   10.30
   6   3  -5   17.50   11.20
   6   3  -5   -3.50    2.30
  -6  -3   5   -1.20    5.00
  -6  -3   5    4.10    9.80
  -6  -3   5   -7.50    3.60
  -6  -3   5    6.00    8.70
   5   3  -5   15.30   10.50
   5   3  -5   17.20    8.40
  -5  -3   5   70.49   20.00
  -5  -3   5   20.20   10.60
   4   3  -5   -3.60    2.90
   4   3  -5    9.80    7.10
   4   3  -5   -3.10    5.30
  -4  -3   5    5.60    6.00
  -4  -3   5   -5.90    4.00
  -4  -3   5   -6.10    4.80
  -4  -3   5   -2.60    4.80
   3   3  -5   41.30   10.90
   3   3  -5   32.00    8.20
   3   3  -5   45.00    9.60
  -3  -3   5   55.89   13.60
  -3  -3   5   30.70    8.10
  -3  -3   5   39.30    9.40
   2   3  -5  137.09   17.40
   2   3  -5  158.48   13.10
   2   3  -5  152.98   13.10
  -2  -3   5  175.28   13.70
  -2  -3   5  148.89   19.20
  -2  -3   5  143.39   16.70
  -2  -3   5  156.78   17.80
   1   3  -5  176.48   14.10
   1   3  -5  184.38   14.80
   1   3  -5  213.98   16.00
   1   3  -5  217.38   14.30
  -1  -3   5  206.68   15.60
  -1  -3   5  196.88   14.80
  -1  -3   5  191.58   16.30
  -1  -3   5  191.68   13.00
   0   3  -5   50.39    7.50
   0   3  -5   48.60    9.00
   0   3  -5   51.49    8.90
   0  -3   5   40.40    8.50
   0  -3   5   39.80    8.00
   0  -3   5   53.49    7.00
   0  -3   5   35.90    7.90
  -1   3  -5   15.00    5.50
  -1   3  -5    2.50    3.00
  -1   3  -5    5.30    5.20
   1  -3   5    2.00    3.80
   1  -3   5    2.90    2.00
   1  -3   5    1.30    3.90
   1  -3   5    0.40    3.40
  -2   3  -5  343.27   20.30
  -2   3  -5  346.17   23.00
   2  -3   5  314.37   23.00
   2  -3   5  363.36   42.30
  -3   3  -5   26.50    7.80
  -3   3  -5   12.80    7.40
   3  -3   5   19.00    8.70
   3  -3   5   33.40   10.10
  -4   3  -5   -0.10    5.80
  -4   3  -5   -5.40    3.30
   4  -3   5   -2.60    5.70
   4  -3   5    0.90    4.90
  -5   3  -5    1.50    4.80
  -5   3  -5   -3.90    5.30
   5  -3   5   -6.50    3.70
   5  -3   5   10.80    9.30
   7   2  -5   53.49   20.20
  -7  -2   5   26.30   13.80
   6   2  -5   12.70    7.90
   6   2  -5    3.20    9.60
  -6  -2   5   11.80   10.80
  -6  -2   5   12.60   10.80
  -6  -2   5    9.50    7.10
   5   2  -5   57.09   13.00
   5   2  -5   52.99   14.90
  -5  -2   5   90.09   17.80
  -5  -2   5   92.79   27.60
  -5  -2   5   77.29   14.60
  -5  -2   5   51.79   12.50
   4   2  -5    2.60    6.40
   4   2  -5    6.40    6.10
   4   2  -5    6.90    5.50
   4   2  -5    3.60    4.70
  -4  -2   5   -3.20    3.70
  -4  -2   5    3.60    5.70
  -4  -2   5    5.90    6.00
  -4  -2   5   -1.60    4.90
   3   2  -5  166.88   14.80
   3   2  -5  154.38   18.10
   3   2  -5  198.18   15.80
   3   2  -5  226.48   24.40
  -3  -2   5  167.58   21.00
  -3  -2   5  173.08   14.70
  -3  -2   5  173.58   20.10
  -3  -2   5  201.28   16.60
   2   2  -5  392.06   24.30
   2   2  -5  394.76   22.40
   2   2  -5  383.26   21.20
  -2  -2   5  385.06   23.10
  -2  -2   5  360.36   24.10
  -2  -2   5  399.16   20.90
  -2  -2   5  376.56   22.80
   1   2  -5   12.00    5.60
   1   2  -5   17.70    5.60
   1   2  -5    9.10    3.50
   1   2  -5    0.60    3.90
  -1  -2   5   20.70    7.40
  -1  -2   5   12.00    4.50
  -1  -2   5   19.00    6.20
  -1  -2   5    9.00    5.00
   0   2  -5  266.97   14.40
   0   2  -5  276.47   17.50
   0   2  -5  283.17   17.50
   0  -2   5  255.47   16.90
   0  -2   5  287.67   13.70
   0  -2   5  294.57   17.90
   0  -2   5  249.88   16.70
  -1   2  -5   52.59    6.20
  -1   2  -5   50.29    9.70
  -1   2  -5   43.60    8.60
   1  -2   5   39.90    8.80
   1  -2   5   50.39    5.30
   1  -2   5   38.90    8.30
  -2   2  -5   90.89   14.80
  -2   2  -5   74.09    5.60
  -2   2  -5   88.49   12.20
   2  -2   5   64.69   12.00
   2  -2   5   97.09   14.80
  -3   2  -5    0.70    4.60
  -3   2  -5   -2.20    4.00
   3  -2   5    4.90    6.20
  -4   2  -5    9.50    8.40
  -4   2  -5   20.20    7.70
   4  -2   5   -0.40    5.60
   4  -2   5    6.50    7.80
  -5   2  -5   -2.90    5.60
  -5   2  -5    2.20    5.40
   5  -2   5   -1.60    6.00
   5  -2   5    3.80    8.30
  -6   2  -5    6.60    6.80
   6  -2   5   -1.10    7.60
   7   1  -5   15.70   12.80
  -7  -1   5   20.90   12.80
   6   1  -5    7.90    8.10
   6   1  -5   23.20   12.80
  -6  -1   5   12.40    7.30
  -6  -1   5   15.20    9.70
  -6  -1   5   18.50   11.30
   5   1  -5   76.59   17.40
   5   1  -5   49.30   14.20
  -5  -1   5   59.89   15.40
  -5  -1   5   80.29   19.00
  -5  -1   5   79.59   14.20
  -5  -1   5   86.19   15.10
   4   1  -5   52.99   12.80
   4   1  -5   51.89   11.10
   4   1  -5   31.70   11.10
   4   1  -5   44.10    9.40
  -4  -1   5   60.09   14.80
  -4  -1   5   48.40   11.00
  -4  -1   5   37.00    9.50
  -4  -1   5   51.89   12.50
   3   1  -5   96.09   15.50
   3   1  -5  114.49   13.40
   3   1  -5   93.29   13.10
   3   1  -5  151.28   19.70
  -3  -1   5   69.59   15.80
  -3  -1   5  138.49   16.40
  -3  -1   5  135.09   19.90
  -3  -1   5  124.99   16.20
   2   1  -5 2645.24   90.49
   2   1  -5 2718.43   88.39
   2   1  -5 2749.72   86.39
  -2  -1   5 2605.14   91.59
  -2  -1   5 2700.43   88.79
  -2  -1   5 2567.84   84.69
  -2  -1   5 2713.33   88.99
   1   1  -5    1.40    3.40
   1   1  -5   -0.70    1.90
   1   1  -5    0.20    3.40
   1   1  -5    0.80    2.80
  -1  -1   5    0.10    3.30
  -1  -1   5    3.60    3.70
  -1  -1   5   -2.70    2.20
  -1  -1   5   -0.40    3.10
   0   1  -5  158.38   10.60
   0   1  -5  159.18   12.50
   0   1  -5  161.28   12.50
   0  -1   5  172.58   12.80
   0  -1   5  141.09   12.10
   0  -1   5  140.59    9.30
   0  -1   5  184.88   13.00
  -1   1  -5    1.80    3.60
  -1   1  -5    1.60    2.50
  -1   1  -5   -0.20    3.60
   1  -1   5    1.80    3.60
   1  -1   5   -0.20    1.60
   1  -1   5   -5.20    2.40
  -2   1  -5  102.89   14.90
  -2   1  -5   95.79   12.80
  -2   1  -5   93.09    6.30
   2  -1   5  117.19   15.20
   2  -1   5   97.59   14.20
  -3   1  -5   16.60    3.40
  -3   1  -5   10.40    6.10
  -3   1  -5   20.10    8.70
   3  -1   5   13.70    7.80
   3  -1   5    8.20    6.40
  -4   1  -5  195.38   21.60
  -4   1  -5  249.38   27.70
  -4   1  -5  223.28   10.10
   4  -1   5  223.08   28.20
   4  -1   5  228.08   28.30
  -5   1  -5   -1.90    5.00
  -5   1  -5   -1.50    2.40
  -5   1  -5   -6.40    4.10
   5  -1   5    6.00    7.70
   5  -1   5    8.20   13.50
  -6   1  -5   83.29   16.00
   6  -1   5   84.49   18.90
   7   0  -5   -8.10    5.90
  -7   0   5    0.70    7.50
   6   0  -5    3.10    6.30
   6   0  -5    7.40   10.30
   6   0  -5    1.80    7.00
  -6   0   5   -0.20    5.60
  -6   0   5    7.30    6.60
   5   0  -5   25.80   12.00
   5   0  -5   38.00   11.10
   5   0  -5   39.00   12.60
   5   0  -5   54.19   12.20
  -5   0   5   44.60   12.00
  -5   0   5   41.10   10.60
  -5   0   5   51.69   10.80
   4   0  -5   -4.40    4.00
   4   0  -5    5.00    5.80
   4   0  -5    3.10    5.00
  -4   0   5    0.80    4.00
  -4   0   5    4.10    4.80
  -4   0   5   -2.60    4.20
  -4   0   5    3.50    5.70
   3   0  -5  100.99   13.40
   3   0  -5  119.99   17.40
   3   0  -5   99.49   15.10
   3   0  -5   96.89   13.60
  -3   0   5   90.89   12.80
  -3   0   5  103.49   16.70
  -3   0   5   93.79   14.90
  -3   0   5   77.19   10.70
   2   0  -5   -3.40    1.90
   2   0  -5   -0.70    3.10
   2   0  -5   -0.40    2.70
   2   0  -5    3.30    4.10
  -2   0   5   -1.50    2.90
  -2   0   5    1.10    3.40
  -2   0   5    5.20    5.10
  -2   0   5   -3.70    2.40
   1   0  -5    7.10    3.70
   1   0  -5    0.80    3.20
   1   0  -5    8.10    4.00
   1   0  -5    1.70    3.70
  -1   0   5    3.70    3.30
  -1   0   5    2.20    3.10
  -1   0   5    3.40    3.90
  -1   0   5    3.40    3.20
   0   0  -5   25.50    6.40
   0   0  -5   26.80    5.00
   0   0  -5   30.50    6.50
   0   0   5   37.40    6.90
   0   0   5   26.00    4.20
   0   0   5   29.20    6.40
   0   0   5   22.00    4.90
  -1   0  -5  155.68    9.10
  -1   0  -5  156.08   13.60
  -1   0  -5  158.18   12.70
   1   0   5  137.39    8.10
   1   0   5  165.48   13.40
  -2   0  -5    8.60    6.00
  -2   0  -5   10.10    5.30
  -2   0  -5   15.10    3.60
   2   0   5   17.80    6.80
   2   0   5   23.10    7.80
  -3   0  -5    2.90    5.70
  -3   0  -5    3.30    4.60
  -3   0  -5    0.30    1.90
   3   0   5    7.30    6.10
   3   0   5    0.00    4.60
  -4   0  -5    9.40    8.30
  -4   0  -5    5.40    6.80
  -4   0  -5    5.00    2.90
   4   0   5    4.50    6.30
   4   0   5    5.70    6.80
  -5   0  -5    1.60    2.60
  -5   0  -5    4.00    6.50
  -5   0  -5   -0.90    6.60
  -5   0  -5    0.10    3.10
   5   0   5   -1.00    6.60
   5   0   5    2.30    7.20
  -6   0  -5   -0.40    6.00
  -6   0  -5   -2.00    2.60
  -6   0  -5    8.00    4.60
  -6   0  -5   -7.60    4.50
   6   0   5    8.80    8.80
   7  -1  -5   -3.00    7.60
  -7   1   5   -1.40    6.50
  -7   1   5    9.90    7.50
   6  -1  -5    4.60    9.70
   6  -1  -5   17.90    9.00
   6  -1  -5    0.50    7.10
  -6   1   5   12.10    7.50
  -6   1   5   -3.40    4.70
  -6   1   5   -3.10    3.30
   5  -1  -5   60.09   13.70
   5  -1  -5   68.59   16.50
   5  -1  -5   36.40    8.90
  -5   1   5   56.99   13.60
  -5   1   5   67.19   12.30
  -5   1   5   65.09   11.30
   4  -1  -5   27.60    8.30
   4  -1  -5   27.90    8.00
   4  -1  -5   23.40    9.80
   4  -1  -5   26.60   10.10
  -4   1   5   21.10    7.30
  -4   1   5   39.00   10.70
  -4   1   5   32.10    8.00
   3  -1  -5  114.19   12.90
   3  -1  -5  141.79   18.30
   3  -1  -5   99.69   14.10
   3  -1  -5  114.99   16.60
  -3   1   5  114.99   13.60
  -3   1   5  113.89   13.20
  -3   1   5  107.89   14.70
  -3   1   5  132.49   17.80
   2  -1  -5  213.18   14.80
   2  -1  -5  218.68   14.90
   2  -1  -5  235.08   15.00
   2  -1  -5  229.28   16.40
  -2   1   5  224.48   16.60
  -2   1   5  225.98   15.90
  -2   1   5  201.98   13.60
  -2   1   5  215.18   14.70
   1  -1  -5  595.74   23.50
   1  -1  -5  564.44   24.90
   1  -1  -5  641.04   27.60
   1  -1  -5  616.84   26.20
  -1   1   5  587.74   26.60
  -1   1   5  625.44   24.40
  -1   1   5  631.24   26.40
  -1   1   5  628.54   25.50
   0  -1  -5  778.32   31.20
   0  -1  -5  775.72   28.30
   0   1   5  759.62   27.40
   0   1   5  766.52   30.20
   0   1   5  758.32   31.00
   0   1   5  769.22   27.40
  -1  -1  -5    1.00    3.30
  -1  -1  -5   -0.20    2.20
  -1  -1  -5    1.20    3.20
   1   1   5    1.50    2.10
   1   1   5    4.70    3.90
   1   1   5    0.40    3.30
  -2  -1  -5   12.50    6.00
  -2  -1  -5   26.30    8.30
  -2  -1  -5   15.70    3.70
   2   1   5   30.20    7.80
   2   1   5   33.20    8.90
  -3  -1  -5   72.79   13.90
  -3  -1  -5   64.59   12.00
  -3  -1  -5   74.39    7.80
   3   1   5   74.99   13.60
  -4  -1  -5  245.08   28.90
  -4  -1  -5  224.28   19.60
   4   1   5  221.38   25.20
   4   1   5  232.38   27.20
  -5  -1  -5   13.30    8.70
  -5  -1  -5   33.00   12.20
   5   1   5   16.50    9.40
   5   1   5   26.40   12.20
  -6  -1  -5   -3.00    5.10
  -6  -1  -5   25.00   11.50
   6   1   5   -2.00    6.50
  -7  -1  -5    6.30    5.30
   6  -2  -5   10.50    9.50
   6  -2  -5    6.50    7.30
   6  -2  -5    3.90    9.00
  -6   2   5    8.50    7.70
  -6   2   5    2.40    5.20
   5  -2  -5   -3.80    4.50
   5  -2  -5    0.90    5.20
   5  -2  -5   -3.10    4.50
   5  -2  -5   -3.00    3.80
  -5   2   5    5.70    5.50
  -5   2   5    4.40    5.40
  -5   2   5   -2.90    4.90
   4  -2  -5   15.80    8.60
   4  -2  -5   35.90   14.70
   4  -2  -5   41.90    9.80
   4  -2  -5   18.20    8.10
  -4   2   5   27.50    7.40
  -4   2   5   20.80    6.30
  -4   2   5   33.60    9.50
   3  -2  -5   -3.50    3.30
   3  -2  -5    6.80    5.50
   3  -2  -5    3.80    4.50
   3  -2  -5   -0.90    3.10
  -3   2   5    4.20    4.60
  -3   2   5   -0.50    3.10
  -3   2   5    1.10    3.70
   2  -2  -5  367.36   20.20
   2  -2  -5  383.26   19.80
   2  -2  -5  344.17   19.70
   2  -2  -5  362.26   20.80
  -2   2   5  383.86   21.70
  -2   2   5  392.36   19.40
  -2   2   5  357.86   20.80
  -2   2   5  419.66   19.20
   1  -2  -5    0.40    1.80
   1  -2  -5   -0.10    2.20
   1  -2  -5   -0.40    2.50
   1  -2  -5   -1.60    2.50
  -1   2   5   -1.00    2.30
  -1   2   5    0.70    2.40
  -1   2   5    2.20    3.10
  -1   2   5    2.90    2.50
   0  -2  -5   40.80    7.00
   0  -2  -5   47.90    7.90
   0  -2  -5   30.80    5.00
   0   2   5   39.30    7.00
   0   2   5   40.60    3.80
   0   2   5   54.19    6.50
   0   2   5   35.60    6.00
  -1  -2  -5    9.10    4.60
  -1  -2  -5   11.90    3.00
  -1  -2  -5   11.10    4.70
   1   2   5   13.30    4.70
   1   2   5   16.40    4.20
   1   2   5   10.60    5.50
  -2  -2  -5   17.60    7.00
  -2  -2  -5   12.60    5.80
  -2  -2  -5   13.30    3.50
   2   2   5   12.60    6.80
   2   2   5   15.10    6.30
  -3  -2  -5    8.40    5.80
  -3  -2  -5    6.80    6.00
   3   2   5    2.30    4.60
   3   2   5    7.70    5.60
  -4  -2  -5   71.99   16.00
  -4  -2  -5   83.79   15.40
   4   2   5  119.39   21.30
   4   2   5   95.99   17.40
   4   2   5  101.39   17.60
  -5  -2  -5   48.90   16.80
  -5  -2  -5   97.29   19.00
   5   2   5   55.69   16.10
   5   2   5   76.19   16.40
  -6  -2  -5   -3.10    3.60
  -6  -2  -5   -4.10    5.90
  -6  -2  -5   -8.20    4.90
   6   2   5    4.70    6.60
   6   2   5   -5.70    4.40
   6   2   5   -0.30    5.20
  -7  -2  -5   -2.60    6.40
  -7  -2  -5    0.60    5.50
   7   2   5   -2.30    6.10
   6  -3  -5   15.80    9.70
   6  -3  -5   25.70   13.40
   6  -3  -5   25.80   14.10
  -6   3   5   14.50    8.00
  -6   3   5   32.20    8.80
   5  -3  -5   76.99   17.90
   5  -3  -5   91.99   17.30
   5  -3  -5  111.39   23.70
   5  -3  -5   72.09   12.00
  -5   3   5   72.49   12.00
  -5   3   5   61.79   13.00
  -5   3   5   97.99   13.60
   4  -3  -5   71.69   11.50
   4  -3  -5   90.59   18.20
   4  -3  -5   99.69   17.50
   4  -3  -5   95.99   16.80
  -4   3   5   84.39   11.60
  -4   3   5   77.59   10.70
  -4   3   5   64.29   12.10
   3  -3  -5   64.29    9.50
   3  -3  -5   90.09   12.80
   3  -3  -5   91.69   13.90
   3  -3  -5   62.79   12.20
  -3   3   5   92.99   11.70
   2  -3  -5    4.40    3.70
   2  -3  -5    0.90    3.50
   2  -3  -5   14.60    4.90
  -2   3   5    3.90    3.40
  -2   3   5    1.70    2.50
  -2   3   5    8.80    3.80
   1  -3  -5  168.08   10.90
   1  -3  -5  202.18   12.20
   1  -3  -5  165.48    8.80
   1  -3  -5  146.49   11.10
  -1   3   5  169.38   10.90
  -1   3   5  174.18   10.60
  -1   3   5  157.68   10.30
   0  -3  -5 1114.89   40.80
   0  -3  -5 1269.17   41.20
   0  -3  -5 1199.88   41.80
   0   3   5 1185.68   41.50
   0   3   5 1127.69   39.10
   0   3   5 1163.18   39.40
  -1  -3  -5   14.70    3.90
  -1  -3  -5   23.30    6.10
  -1  -3  -5   23.00    6.30
   1   3   5   10.50    4.20
   1   3   5   22.30    6.40
   1   3   5   17.80    4.70
  -2  -3  -5  222.48   17.30
  -2  -3  -5  206.18   11.70
  -2  -3  -5  192.08   15.90
   2   3   5  192.28   15.50
   2   3   5  214.48   15.90
   2   3   5  241.38   17.60
  -3  -3  -5   27.70    8.60
  -3  -3  -5   15.10    8.00
   3   3   5   25.90    8.40
   3   3   5   26.80    8.70
   3   3   5   33.80   10.40
  -4  -3  -5  149.79   20.70
  -4  -3  -5  123.79   20.20
   4   3   5  142.79   21.00
   4   3   5  133.39   19.90
   4   3   5  126.19   18.80
  -5  -3  -5   -1.50    6.10
   5   3   5   -3.20    4.80
   5   3   5   -3.40    5.60
  -6  -3  -5   37.90   14.00
  -6  -3  -5   16.40   11.70
   6   3   5   10.50    9.80
   6   3   5   11.00    9.30
   6   3   5   19.60   11.80
   7   3   5   13.70    9.80
   6  -4  -5    5.90    8.50
   6  -4  -5   24.40   14.00
   6  -4  -5    5.90    9.20
  -6   4   5   13.90    8.10
  -6   4   5   11.20    6.00
  -6   4   5   30.20    7.50
   5  -4  -5   59.09   14.90
   5  -4  -5   62.89   12.00
   5  -4  -5   81.89   19.10
   5  -4  -5   73.99   15.90
  -5   4   5   65.39   10.60
  -5   4   5   75.59   10.00
  -5   4   5   47.40    9.30
   4  -4  -5   13.10    6.50
   4  -4  -5    8.90    7.30
   4  -4  -5   17.20    7.80
   4  -4  -5   13.90    8.60
  -4   4   5   15.40    5.70
  -4   4   5   12.00    5.60
  -4   4   5   25.50    5.70
   3  -4  -5  152.58   18.40
   3  -4  -5  174.08   21.10
   3  -4  -5  166.88   14.30
   3  -4  -5  163.58   13.20
  -3   4   5  128.09   11.00
  -3   4   5  151.48    9.80
  -3   4   5  148.89   11.10
   2  -4  -5  267.67   17.10
   2  -4  -5  278.67   16.00
   2  -4  -5  264.67   17.30
   2  -4  -5  302.87   16.70
  -2   4   5  271.27   12.20
  -2   4   5  257.17   14.60
  -2   4   5  273.47   13.50
   1  -4  -5  148.49    9.90
   1  -4  -5  119.69    8.00
   1  -4  -5  112.79    8.70
   1  -4  -5  121.99    9.50
  -1   4   5  123.99    8.80
  -1   4   5  120.49    7.40
  -1   4   5  122.99    8.90
   0  -4  -5   16.70    4.20
   0  -4  -5   19.90    4.90
   0  -4  -5   16.70    4.60
   0   4   5   19.10    4.40
   0   4   5   15.40    3.40
   0   4   5   22.50    4.70
  -1  -4  -5  263.37   15.80
  -1  -4  -5  251.57   15.90
  -1  -4  -5  255.97   13.10
   1   4   5  232.78   15.00
   1   4   5  230.08   13.00
  -2  -4  -5  301.57   20.00
  -2  -4  -5  319.07   15.80
  -2  -4  -5  314.77   20.80
   2   4   5  348.07   19.50
   2   4   5  328.67   20.30
   2   4   5  333.17   20.10
  -3  -4  -5   50.79   11.10
  -3  -4  -5   33.40    9.50
   3   4   5   54.39   11.70
   3   4   5   29.30    9.20
   3   4   5   26.00    8.10
  -4  -4  -5  259.27   29.10
  -4  -4  -5  268.97   28.70
   4   4   5  272.17   24.60
   4   4   5  262.67   23.10
   4   4   5  260.37   22.40
  -5  -4  -5    7.30    5.80
   5   4   5    2.60    6.70
  -6  -4  -5   -2.00    7.00
  -6  -4  -5   -5.80    5.80
   6   4   5   -0.10    7.10
   6   4   5   -0.80    6.00
   6   4   5    8.50    9.00
  -7  -4  -5    2.40    6.50
   6  -5  -5   13.20   10.90
   6  -5  -5   -9.00    4.10
  -6   5   5    0.10    3.70
   5  -5  -5   65.39   11.60
   5  -5  -5   84.49   16.10
   5  -5  -5   69.89   17.40
   5  -5  -5   84.99   18.50
  -5   5   5   90.69   11.20
   4  -5  -5   34.50    8.30
   4  -5  -5   50.09   13.90
   4  -5  -5   39.40   10.10
   4  -5  -5   47.80   12.10
  -4   5   5   24.80    6.70
   3  -5  -5    4.90    5.40
   3  -5  -5    6.00    5.00
   3  -5  -5   13.80    6.20
   3  -5  -5   19.10    7.10
  -3   5   5    8.90    4.00
   2  -5  -5   12.60    4.70
   2  -5  -5    8.90    4.90
   2  -5  -5    2.40    3.10
  -2   5   5   10.50    4.20
   1  -5  -5   87.79    9.10
   1  -5  -5   95.09    7.70
   1  -5  -5   94.79    7.70
  -1   5   5  108.09    8.30
   0  -5  -5  169.28   10.70
   0  -5  -5  155.48   10.50
   0  -5  -5  188.38   10.30
   0   5   5  190.48   11.40
  -1  -5  -5  151.98   11.50
  -1  -5  -5  154.88   10.20
  -1  -5  -5  130.19   11.20
  -1  -5  -5  145.19    9.60
   1   5   5  158.38   10.30
   1   5   5  149.79    8.80
   1   5   5  149.09    8.60
  -2  -5  -5   98.89   13.80
  -2  -5  -5   92.19   13.30
   2   5   5   83.59   10.80
   2   5   5  113.09   14.40
   2   5   5   81.59   11.60
  -3  -5  -5  172.08   21.90
  -3  -5  -5  143.79   19.10
   3   5   5  130.69   17.10
   3   5   5  129.99   16.50
   3   5   5  126.79   16.20
  -4  -5  -5   36.90   11.80
  -4  -5  -5   48.10   12.90
   4   5   5   48.30   11.50
   4   5   5   24.60   10.10
   4   5   5   39.90   12.30
  -5  -5  -5   88.89   17.80
   5   5   5   82.99   15.80
   5   5   5   67.59   15.50
   5   5   5  101.89   17.80
  -6  -5  -5   60.69   17.30
  -6  -5  -5   95.29   19.80
   6   5   5   51.39   14.90
   6   5   5   78.89   17.20
  -7  -5  -5   32.30   20.30
  -7  -5  -5    5.70    6.80
   7   5   5    4.40    8.70
   5  -6  -5   12.00    9.50
   5  -6  -5   19.20    7.90
   5  -6  -5    7.40    8.20
   5  -6  -5   20.60   10.90
  -5   6   5   27.00    6.50
   4  -6  -5   27.50    9.50
   4  -6  -5   36.50    8.30
   4  -6  -5   30.80    9.40
   4  -6  -5   16.10    9.70
  -4   6   5   27.90    6.40
   3  -6  -5   10.80    6.00
   3  -6  -5   11.50    6.00
   3  -6  -5    9.60    5.60
   3  -6  -5    8.40    6.20
  -3   6   5    8.10    3.90
   2  -6  -5   45.40    7.60
   2  -6  -5   36.20    6.80
   2  -6  -5   35.50    7.90
  -2   6   5   32.70    6.10
   1  -6  -5   64.19    7.00
   1  -6  -5   68.59    8.60
   1  -6  -5   70.79    7.90
  -1   6   5   63.49    9.00
   0  -6  -5  638.54   25.10
   0  -6  -5  639.54   23.70
   0  -6  -5  701.73   26.60
   0  -6  -5  678.53   24.00
  -1  -6  -5   84.79   11.00
  -1  -6  -5   84.59    8.00
  -1  -6  -5   77.19    9.70
  -1  -6  -5   95.29   10.20
   1   6   5   92.49    6.80
  -2  -6  -5  262.97   18.80
  -2  -6  -5  260.57   17.80
  -2  -6  -5  281.07   19.00
   2   6   5  257.87   16.40
   2   6   5  277.67   16.20
   2   6   5  253.07   14.40
  -3  -6  -5   -4.50    3.20
  -3  -6  -5    2.80    4.40
  -3  -6  -5   10.10    6.50
   3   6   5   15.30    7.70
   3   6   5   -1.90    3.60
   3   6   5    3.40    4.60
  -4  -6  -5  112.49   19.00
  -4  -6  -5  101.39   18.10
   4   6   5  131.19   18.80
   4   6   5  151.08   23.60
  -5  -6  -5    7.30    7.70
  -5  -6  -5    8.30    6.80
   5   6   5    7.70    7.00
   5   6   5   17.30   12.00
   5   6   5    2.80    5.50
  -6  -6  -5   31.30   13.20
  -6  -6  -5   19.10   12.50
   6   6   5   19.70   11.60
   6   6   5   48.80   14.00
   6   6   5   19.50   11.20
  -7  -6  -5   -1.40    9.10
   7   6   5    1.30    7.90
   5  -7  -5   24.00   11.40
   5  -7  -5   37.70   11.10
   5  -7  -5   46.60    9.20
  -5   7   5   47.90    8.00
   4  -7  -5    5.60    6.10
   4  -7  -5   -5.20    3.40
   4  -7  -5   -2.80    4.60
   4  -7  -5   -3.50    4.00
  -4   7   5   -0.70    2.40
   3  -7  -5  143.79   15.80
   3  -7  -5  180.38   14.90
   3  -7  -5  169.98   14.20
  -3   7   5  142.49   10.90
   2  -7  -5   12.20    4.50
   2  -7  -5   12.20    5.80
   2  -7  -5   15.30    4.80
  -2   7   5    4.70    3.40
   1  -7  -5    6.50    2.80
   1  -7  -5    9.80    3.50
   1  -7  -5   11.90    3.00
   1  -7  -5    8.00    4.10
   0  -7  -5    4.70    2.80
   0  -7  -5    3.60    2.70
   0  -7  -5   -0.80    1.80
   0  -7  -5    2.50    1.80
  -1  -7  -5    6.10    3.90
  -1  -7  -5    4.00    3.40
  -1  -7  -5    2.40    3.50
  -1  -7  -5    3.40    3.10
   1   7   5    4.00    2.70
  -2  -7  -5  242.78   17.80
  -2  -7  -5  247.98   18.00
  -2  -7  -5  259.87   18.70
   2   7   5  246.68   12.70
   2   7   5  291.57   16.90
   2   7   5  255.97   12.00
  -3  -7  -5    6.30    6.20
  -3  -7  -5    5.10    5.70
  -3  -7  -5    0.10    5.40
   3   7   5    9.70    5.10
   3   7   5    2.70    3.90
   3   7   5    0.60    3.80
  -4  -7  -5    4.40    6.00
  -4  -7  -5   13.60    9.00
  -4  -7  -5   13.20    8.60
   4   7   5    7.60    6.70
   4   7   5    8.90    6.80
   4   7   5    4.30    6.00
  -5  -7  -5  121.89   21.20
  -5  -7  -5  131.59   22.30
   5   7   5  106.99   18.20
   5   7   5  139.79   24.40
   5   7   5  106.89   17.70
  -6  -7  -5   43.80   22.30
  -6  -7  -5   25.20   12.50
   6   7   5   36.60   11.70
   6   7   5   24.00   11.40
   6   7   5   29.20   15.00
  -7  -7  -5   -4.50    6.00
   7   7   5   -3.30    7.50
   5  -8  -5   11.80    6.40
   5  -8  -5   -2.30    6.40
   5  -8  -5   -4.00    5.30
   5  -8  -5    6.10    9.00
  -5   8   5   11.90    5.30
   4  -8  -5   29.20    7.90
   4  -8  -5   16.80    8.60
   4  -8  -5   16.20   10.20
   4  -8  -5   21.00    8.00
  -4   8   5   29.90    6.20
   3  -8  -5   60.69   10.60
   3  -8  -5   54.79   10.50
   3  -8  -5   66.69   11.20
   2  -8  -5   20.60    6.10
   2  -8  -5   30.50    6.10
   2  -8  -5   34.80    6.50
   1  -8  -5    2.70    3.60
   1  -8  -5   -0.30    2.80
   1  -8  -5    2.70    2.20
   0  -8  -5  524.95   19.80
   0  -8  -5  527.45   20.20
   0  -8  -5  526.15   23.90
   0  -8  -5  515.45   23.30
  -1  -8  -5   67.59    8.80
  -1  -8  -5   86.09   11.80
  -1  -8  -5   82.49   10.10
  -1  -8  -5  104.89   11.20
   1   8   5   75.19    9.50
  -2  -8  -5  291.77   19.90
  -2  -8  -5  294.47   20.90
  -2  -8  -5  272.07   19.40
   2   8   5  290.47   17.40
  -3  -8  -5   11.50    7.00
  -3  -8  -5    7.60    6.30
  -3  -8  -5    5.80    6.70
   3   8   5   17.50    5.30
   3   8   5   18.80    5.20
   3   8   5   15.60    6.60
  -4  -8  -5    1.40    6.80
  -4  -8  -5    3.00    6.50
  -4  -8  -5   14.90    9.10
   4   8   5   13.30    7.20
   4   8   5    9.20    5.70
   4   8   5    1.80    5.70
  -5  -8  -5   -3.70    5.40
  -5  -8  -5   -7.40    4.70
   5   8   5    3.60    6.20
   5   8   5   -1.80    4.10
   5   8   5   -0.40    5.50
  -6  -8  -5   30.70   13.90
   6   8   5   60.49   15.60
   6   8   5   66.49   17.90
   6   8   5   41.20   14.40
  -7  -8  -5    0.00    8.30
   7   8   5   -3.00    7.70
   4  -9  -5    3.10    5.70
   4  -9  -5    8.30    6.60
   4  -9  -5    9.30    8.80
   4  -9  -5    2.90    5.10
   3  -9  -5   42.80    9.20
   3  -9  -5   27.20    7.60
   3  -9  -5   34.90    8.80
   2  -9  -5   41.90    7.00
   2  -9  -5   49.70    7.60
   2  -9  -5   33.60    7.60
   1  -9  -5   20.40    6.10
   1  -9  -5   20.60    5.70
   0  -9  -5   -1.10    2.00
   0  -9  -5   -2.50    2.10
   0  -9  -5    1.10    2.00
   0  -9  -5   -1.50    2.30
  -1  -9  -5   49.00    7.90
  -1  -9  -5   37.40    9.10
  -1  -9  -5   40.70    6.80
  -1  -9  -5   41.60    8.10
  -2  -9  -5   -2.80    3.70
  -2  -9  -5   -3.70    3.50
  -2  -9  -5   -3.60    3.40
   2   9   5    2.40    3.60
  -3  -9  -5   -4.70    4.30
  -3  -9  -5   -2.20    4.30
   3   9   5    0.80    2.20
   3   9   5    5.30    2.60
   3   9   5   -0.80    3.20
  -4  -9  -5  165.98   22.80
  -4  -9  -5  198.78   26.10
  -4  -9  -5  215.98   27.60
   4   9   5  195.48   14.90
   4   9   5  183.98   24.10
   4   9   5  194.78   15.40
  -5  -9  -5   60.29   15.40
  -5  -9  -5   28.70   10.80
  -5  -9  -5   22.70   14.10
   5   9   5   10.30    7.00
   5   9   5   25.90    8.50
   5   9   5   15.10    7.20
  -6  -9  -5    2.60    9.10
   6   9   5    0.30    5.70
   6   9   5   12.30    8.50
   6   9   5    2.50    5.10
   4 -10  -5    8.10   10.20
   4 -10  -5   30.90    7.70
   4 -10  -5   14.70    8.20
   4 -10  -5   14.70    8.30
   3 -10  -5   93.29   17.40
   3 -10  -5   77.59   12.40
   3 -10  -5   61.59   11.10
   3 -10  -5   69.49   11.10
   2 -10  -5  129.99    9.90
   2 -10  -5  134.59   11.70
   2 -10  -5  124.19    9.50
   2 -10  -5  143.39   17.80
   1 -10  -5   24.70    7.80
   1 -10  -5   28.30    6.70
   0 -10  -5  147.79   11.80
   0 -10  -5  146.69   13.60
  -1 -10  -5  199.18   13.50
  -1 -10  -5  197.58   13.10
  -1 -10  -5  192.18   14.30
  -1 -10  -5  177.68   15.80
  -2 -10  -5  224.98   17.40
  -2 -10  -5  186.38   15.50
  -2 -10  -5  186.38   22.40
   2  10   5  181.38   14.60
  -3 -10  -5   46.20   12.20
  -3 -10  -5   42.30   11.50
  -3 -10  -5   60.59   12.60
   3  10   5   65.19   12.40
  -4 -10  -5   68.99   14.80
  -4 -10  -5   91.59   17.90
  -4 -10  -5   59.59   15.30
   4  10   5   68.19   14.70
   4  10   5   74.59    9.00
  -5 -10  -5   -1.40    5.80
  -5 -10  -5    0.80    7.10
  -5 -10  -5   15.60   11.00
   5  10   5   -1.20    4.40
  -6 -10  -5   32.60   15.30
   6  10   5   30.20   11.90
   3 -11  -5    1.90    5.00
   3 -11  -5    7.10    6.00
   3 -11  -5    5.20    5.60
   3 -11  -5    1.50    4.70
   2 -11  -5    9.90    5.30
   2 -11  -5    9.10    4.20
   2 -11  -5   24.90    8.50
   2 -11  -5   17.10    4.80
   1 -11  -5    8.80    5.10
   1 -11  -5    8.80    5.80
   0 -11  -5   21.20    5.80
   0 -11  -5   41.40   10.60
  -1 -11  -5    4.60    4.20
  -1 -11  -5    5.40    5.30
  -1 -11  -5    4.70    4.00
  -1 -11  -5    3.30    4.20
  -2 -11  -5   86.09   15.70
  -2 -11  -5   89.79   13.80
  -2 -11  -5  107.49   14.40
   2  11   5  119.99   16.00
  -3 -11  -5   41.60   11.30
  -3 -11  -5   42.50   12.70
  -3 -11  -5   23.80    9.80
   3  11   5   19.30    8.00
  -4 -11  -5    0.30    6.30
  -4 -11  -5  -12.70    5.70
  -4 -11  -5   -4.20    4.70
   4  11   5    4.20    6.30
  -5 -11  -5    1.90    9.70
  -5 -11  -5   10.40   10.10
  -5 -11  -5   -2.20    5.70
   5  11   5   18.20   12.50
   5  11   5    2.20    4.60
   5  11   5    7.60    5.00
  -6 -11  -5   -8.50    6.60
  -6 -11  -5   -6.40    4.90
   6  11   5    4.40    5.90
   6  11   5   -4.40    4.50
   2 -12  -5    5.00   10.50
   2 -12  -5    8.90    5.40
   1 -12  -5   14.90    6.00
   0 -12  -5   40.20   10.60
   0 -12  -5   20.70    6.40
  -1 -12  -5   -2.70    3.10
  -1 -12  -5    3.90    4.30
  -1 -12  -5    7.60    8.30
  -1 -12  -5   -2.60    3.40
  -2 -12  -5   80.59   15.90
  -2 -12  -5   44.80   10.20
  -2 -12  -5   59.59   11.80
  -2 -12  -5   53.99   11.10
  -3 -12  -5   -4.70    5.00
  -3 -12  -5    0.80    5.40
  -3 -12  -5   -1.20    5.80
   3  12   5   -1.30    3.60
  -4 -12  -5   84.29   18.60
  -4 -12  -5   52.69   14.50
  -4 -12  -5   78.79   18.50
  -5 -12  -5    2.40    7.60
  -5 -12  -5    4.00    8.70
  -5 -12  -5   14.30   10.10
   5  12   5   -1.90    5.10
   5  12   5    3.90    2.80
   5  12   5    7.60    3.40
   1 -13  -5   -0.40    8.60
   1 -13  -5   -5.00    2.80
   0 -13  -5   27.50    7.00
  -1 -13  -5    0.50    4.00
  -1 -13  -5    0.10    3.50
  -1 -13  -5    1.70    4.20
  -1 -13  -5    4.10    4.80
  -2 -13  -5   13.50    8.50
  -2 -13  -5   12.50    7.80
  -2 -13  -5   21.20    6.40
  -2 -13  -5   18.30    7.70
  -3 -13  -5    7.90    7.60
  -3 -13  -5    5.80    7.00
   3  13   5    7.40    6.60
  -4 -13  -5   41.40   12.80
  -4 -13  -5   16.70   10.20
  -4 -13  -5   17.90   10.90
   4  13   5   11.10    8.00
  -5 -13  -5    8.00    9.70
  -5 -13  -5   -4.60    6.60
   0 -14  -5    3.00    4.30
   0 -14  -5    4.60    5.90
  -1 -14  -5    1.80    5.50
  -1 -14  -5    4.00    4.90
  -1 -14  -5    7.60    5.10
  -1 -14  -5    6.90    5.20
  -2 -14  -5   23.90    8.80
  -2 -14  -5   18.30   10.30
  -2 -14  -5   41.10    9.90
  -3 -14  -5   42.40   13.80
  -3 -14  -5    5.50    7.20
  -3 -14  -5   21.20   12.30
   3  14   5   25.20   14.60
  -4 -14  -5   37.90   13.10
  -4 -14  -5   32.70   14.10
  -4 -14  -5   38.40   15.20
   4  14   5   28.30    9.70
   3  10  -6   13.40    7.80
  -3 -10   6   32.90   12.30
  -2 -10   6   -1.70    6.90
  -2 -10   6   -3.30    6.50
  -2 -10   6    4.00    6.90
  -1 -10   6   54.99   10.30
  -1 -10   6   82.79   16.50
  -1 -10   6   47.80   13.50
  -1 -10   6   64.99   18.00
   0 -10   6   -0.60    3.70
   0 -10   6    1.80    7.10
   0 -10   6   20.60   12.90
   0 -10   6   -0.70    4.30
   4   9  -6   -2.10    7.90
   4   9  -6    9.30   11.40
  -4  -9   6    9.20   10.80
  -4  -9   6   -5.50    5.60
   3   9  -6   11.00    5.90
   3   9  -6   23.80   10.00
  -3  -9   6   -1.50    6.80
  -3  -9   6    5.00    6.50
  -3  -9   6    8.70    8.10
   2   9  -6    4.10    5.10
   2   9  -6    2.20    5.50
  -2  -9   6   -0.60    6.00
  -2  -9   6    5.40    6.10
  -2  -9   6   -1.00    5.00
  -2  -9   6    1.10    6.30
  -1  -9   6   87.89   17.30
  -1  -9   6  113.49   14.40
  -1  -9   6   86.39   15.30
  -1  -9   6   79.79   17.70
   0  -9   6    3.70    7.90
   0  -9   6    2.60    4.40
   0  -9   6   -3.50    4.00
   0  -9   6   -0.10    4.50
   1  -9   6   38.30   10.60
   1  -9   6   63.09   15.20
   1  -9   6   31.20   23.90
   5   8  -6   -2.20    4.50
   5   8  -6   11.40   11.00
  -5  -8   6    4.20    8.80
  -5  -8   6   13.10   12.00
   4   8  -6   12.60    9.40
  -4  -8   6   19.80   10.80
  -4  -8   6    8.20   11.00
   3   8  -6    4.10    6.30
   3   8  -6   -2.00    3.80
   3   8  -6   -4.60    4.90
  -3  -8   6   -4.50    5.70
  -3  -8   6   -3.00    6.90
  -3  -8   6   -7.40    3.50
   2   8  -6   16.70    8.60
   2   8  -6   16.10   10.50
  -2  -8   6   10.20    8.70
  -2  -8   6    6.80    7.50
  -2  -8   6    6.70    6.60
  -2  -8   6   15.70    8.80
   1   8  -6    1.10    4.80
  -1  -8   6    5.80    6.70
  -1  -8   6    6.00    5.90
  -1  -8   6    2.30    7.50
  -1  -8   6    2.70    4.90
   0   8  -6    5.70    3.90
   0   8  -6    2.60    3.10
   0  -8   6   -3.60    5.10
   0  -8   6   11.60    5.60
   0  -8   6   -1.60    4.20
   0  -8   6    1.40    3.70
   1  -8   6   26.00   10.10
   1  -8   6   27.20    9.40
   1  -8   6   13.80    8.10
   2  -8   6    2.20    6.50
   2  -8   6    3.10    7.40
   2  -8   6   -0.70    5.50
   5   7  -6   -5.90    5.20
   5   7  -6   -5.70    4.10
  -5  -7   6   -2.40    6.10
  -5  -7   6    9.70   12.60
   4   7  -6    2.00    4.50
   4   7  -6    7.20    8.40
  -4  -7   6    6.80    7.50
  -4  -7   6   10.60    9.90
  -4  -7   6   16.20   10.40
  -4  -7   6   10.70    8.50
   3   7  -6    1.30    3.80
   3   7  -6   11.10    5.00
   3   7  -6   24.50   10.70
  -3  -7   6   11.10    8.10
  -3  -7   6   12.60    8.60
  -3  -7   6   14.60    7.60
  -3  -7   6    8.40    8.60
   2   7  -6    0.90    3.10
   2   7  -6   -1.20    4.30
   2   7  -6    3.90    5.90
  -2  -7   6   -1.90    4.40
  -2  -7   6    2.60    5.40
  -2  -7   6    2.50    5.80
  -2  -7   6   -0.20    5.20
   1   7  -6   17.80    8.10
   1   7  -6   26.50    8.30
  -1  -7   6   10.10    6.00
  -1  -7   6    8.50    8.50
  -1  -7   6   19.10    8.40
  -1  -7   6   28.00    8.50
   0   7  -6    3.10    4.50
   0  -7   6   -0.20    4.90
   0  -7   6    5.80    4.70
   0  -7   6    0.30    5.10
   0  -7   6    2.40    5.00
  -1   7  -6  100.29   11.20
  -1   7  -6   90.79   10.90
   1  -7   6   74.39   14.20
   1  -7   6   91.39   15.80
   2  -7   6   13.10    7.10
   2  -7   6   10.60    8.30
   3  -7   6   11.70    9.50
   3  -7   6   22.60   12.40
   3  -7   6   29.50   11.40
   6   6  -6   -5.30    6.70
  -6  -6   6    5.50   10.20
  -6  -6   6   -3.30    7.70
   5   6  -6    4.00    6.00
   5   6  -6   15.80   11.20
  -5  -6   6    9.20    9.20
  -5  -6   6   -4.00    4.60
   4   6  -6    0.60    4.90
   4   6  -6   12.10    9.30
  -4  -6   6    2.90    7.00
  -4  -6   6   17.10    9.80
  -4  -6   6   -0.10    6.90
  -4  -6   6   11.60    8.00
   3   6  -6    5.90    5.60
   3   6  -6    7.80    6.40
   3   6  -6    2.50    6.30
  -3  -6   6    4.30    6.00
  -3  -6   6    5.30    6.70
  -3  -6   6    6.90    9.00
  -3  -6   6   14.10    8.40
   2   6  -6   71.69   15.00
   2   6  -6   91.69   15.20
   2   6  -6   72.69   12.10
  -2  -6   6   75.19   13.00
  -2  -6   6   58.29   12.60
  -2  -6   6   70.29   12.00
   1   6  -6   34.10    9.70
   1   6  -6   56.49   11.20
  -1  -6   6   69.89   13.10
  -1  -6   6   42.10   10.30
  -1  -6   6   41.30   10.40
   0   6  -6   12.80    6.50
   0   6  -6   28.80    8.30
   0  -6   6   28.40    9.00
   0  -6   6   31.20    6.50
   0  -6   6   13.00    7.60
   0  -6   6   25.80    8.10
  -1   6  -6  133.99   16.00
  -1   6  -6  140.09   15.50
   1  -6   6  105.19   17.70
   1  -6   6  130.89   17.60
   1  -6   6  123.59    7.50
   1  -6   6  118.59   17.30
  -2   6  -6   85.49   12.00
  -2   6  -6   85.49   12.60
   2  -6   6  116.69   22.50
   2  -6   6   72.49   15.10
   2  -6   6   63.99   14.60
  -3   6  -6    2.30    4.10
  -3   6  -6    4.10    4.80
   3  -6   6    1.80    4.70
   3  -6   6   15.20    9.20
   3  -6   6   15.10   15.70
   4  -6   6   -2.00    6.40
   6   5  -6   61.69   18.00
  -6  -5   6   21.80   13.70
  -6  -5   6   16.10   12.90
   5   5  -6    2.20    4.30
   5   5  -6   11.10   10.50
   5   5  -6    4.80    6.60
  -5  -5   6   19.00   10.00
  -5  -5   6   27.90   15.70
  -5  -5   6    0.00    6.90
  -5  -5   6    3.50    8.40
   4   5  -6   44.40   10.20
   4   5  -6   53.39   14.30
  -4  -5   6   53.39   11.90
  -4  -5   6   88.29   17.20
  -4  -5   6   27.40   12.40
   3   5  -6   65.79   12.00
   3   5  -6   56.39   12.80
   3   5  -6   71.39   13.90
  -3  -5   6   71.69   13.00
  -3  -5   6   55.59   12.70
  -3  -5   6   55.39   14.30
  -3  -5   6   68.79   13.70
   2   5  -6   -0.30    4.00
   2   5  -6    0.70    4.10
   2   5  -6    0.20    5.10
  -2  -5   6    0.00    4.10
  -2  -5   6    6.90    7.30
  -2  -5   6    1.70    5.00
  -2  -5   6    0.60    5.00
   1   5  -6  107.99   14.60
   1   5  -6  100.59   14.70
  -1  -5   6  103.49   12.90
  -1  -5   6   87.19   14.10
  -1  -5   6   62.39   11.30
  -1  -5   6   81.59   15.20
   0   5  -6   21.40    7.10
   0   5  -6   32.00    8.40
   0  -5   6    1.90    4.80
   0  -5   6    9.20    5.90
   0  -5   6   25.30    8.80
   0  -5   6   13.80    4.90
  -1   5  -6  129.09   15.30
  -1   5  -6  131.49   17.10
   1  -5   6  142.09   21.80
   1  -5   6  136.09    8.10
   1  -5   6  152.78   19.50
   1  -5   6  138.19   18.10
  -2   5  -6  128.79   16.90
   2  -5   6  109.09   16.90
   2  -5   6   84.39   15.40
   2  -5   6  101.49   18.80
  -3   5  -6   58.29    9.80
  -3   5  -6   60.29   11.70
   3  -5   6   58.09   14.00
   3  -5   6   64.09   13.50
  -4   5  -6    5.60    6.10
  -4   5  -6   13.50    6.30
   4  -5   6   22.90   11.30
   4  -5   6   16.30   11.60
   6   4  -6   -1.90    8.00
  -6  -4   6   10.70   10.30
  -6  -4   6   13.30   12.00
   5   4  -6   -1.10    5.50
   5   4  -6    5.60    6.10
   5   4  -6   -2.20    5.70
  -5  -4   6   -2.70    6.70
  -5  -4   6   -5.00    4.00
  -5  -4   6    0.10    5.00
  -5  -4   6   -2.20    7.80
   4   4  -6    3.00    5.00
   4   4  -6    3.20    3.60
  -4  -4   6   -3.30    5.10
  -4  -4   6    7.00    6.30
  -4  -4   6    0.20    5.80
   3   4  -6   -4.10    3.30
   3   4  -6   -2.70    5.20
   3   4  -6   -0.80    3.70
  -3  -4   6   -1.90    4.60
  -3  -4   6   -3.00    4.00
  -3  -4   6   -4.60    4.50
  -3  -4   6    0.60    4.60
   2   4  -6   15.70    7.10
   2   4  -6   15.50    5.90
   2   4  -6   31.10    7.40
   2   4  -6   13.70    7.30
  -2  -4   6   35.90    9.40
  -2  -4   6   12.60    6.00
  -2  -4   6    7.80    7.10
  -2  -4   6   13.50    6.60
   1   4  -6    2.50    4.00
   1   4  -6   -4.40    3.30
   1   4  -6   -0.10    4.20
  -1  -4   6   -1.90    3.70
  -1  -4   6    1.20    4.30
  -1  -4   6   -1.30    4.00
  -1  -4   6   -2.50    2.80
   0   4  -6    6.40    6.10
   0   4  -6   16.40    5.90
   0   4  -6   27.60    7.60
   0  -4   6   20.60    7.70
   0  -4   6    9.30    6.10
   0  -4   6   13.20    4.80
   0  -4   6   22.00    7.80
  -1   4  -6    4.40    4.90
  -1   4  -6   -2.60    4.10
   1  -4   6    5.90    5.10
   1  -4   6    5.10    2.80
   1  -4   6   -1.70    3.70
   1  -4   6    3.00    3.90
  -2   4  -6  165.38   14.30
  -2   4  -6  163.08   19.80
   2  -4   6  174.78   22.60
   2  -4   6  164.98   20.20
  -3   4  -6    7.30    5.40
   3  -4   6   13.50    8.70
  -4   4  -6   -0.90    4.70
  -4   4  -6   -1.90    5.00
   4  -4   6   -3.30    6.40
   4  -4   6   -3.20    5.00
  -5   4  -6    3.40    5.30
  -5   4  -6    2.50    6.40
   5  -4   6    0.90    6.90
   6   3  -6   -6.90    5.20
  -6  -3   6   16.30   12.00
  -6  -3   6   -2.50    8.20
   5   3  -6   11.00    8.50
   5   3  -6   13.40    7.70
   5   3  -6   14.40    9.90
  -5  -3   6    6.40    7.30
  -5  -3   6   17.80   12.70
  -5  -3   6   10.80    7.90
  -5  -3   6   25.00   10.10
   4   3  -6  109.79   20.00
   4   3  -6  104.49   15.30
   4   3  -6  135.29   21.90
  -4  -3   6  147.19   24.60
  -4  -3   6  159.68   27.40
  -4  -3   6  144.29   19.50
   3   3  -6    9.60    6.40
   3   3  -6   18.50    8.60
   3   3  -6   12.20    5.90
   3   3  -6   10.90    5.80
  -3  -3   6    9.20    6.70
  -3  -3   6   18.40    7.70
  -3  -3   6   16.90    8.30
  -3  -3   6    7.60    5.80
   2   3  -6    2.80    4.70
   2   3  -6   14.30    6.00
   2   3  -6   11.20    6.80
   2   3  -6    2.50    5.00
  -2  -3   6    0.00    4.00
  -2  -3   6    7.00    5.70
  -2  -3   6    8.50    5.00
  -2  -3   6    5.60    5.50
   1   3  -6  126.29   16.50
   1   3  -6  130.69   16.00
   1   3  -6  128.19   14.00
   1   3  -6  146.39   13.50
  -1  -3   6  142.19   11.30
  -1  -3   6  123.59   15.30
  -1  -3   6  116.69   23.80
   0   3  -6    2.70    3.80
   0   3  -6    2.30    4.20
   0   3  -6   -0.10    3.20
   0  -3   6    5.20    3.50
   0  -3   6   -1.70    2.40
   0  -3   6    5.70    4.30
  -1   3  -6  224.58   12.70
  -1   3  -6  227.38   16.90
  -1   3  -6  234.28   18.60
   1  -3   6  220.28   10.90
   1  -3   6  228.98   17.90
   1  -3   6  221.48   18.20
   1  -3   6  249.97   19.80
  -2   3  -6   85.69   15.10
  -2   3  -6   78.49   12.50
   2  -3   6   79.69   13.70
   2  -3   6   80.69   15.00
  -3   3  -6   35.10    8.90
  -3   3  -6   44.50   11.50
   3  -3   6   59.29   13.10
  -4   3  -6   10.80    8.20
  -4   3  -6    0.30    4.80
   4  -3   6   -2.30    4.90
   4  -3   6   14.60   10.50
  -5   3  -6    7.80    8.00
  -5   3  -6   -5.80    3.60
   5  -3   6   -0.80    6.50
   6   2  -6    4.80    6.30
   6   2  -6    3.50    9.10
  -6  -2   6   23.90   12.20
  -6  -2   6    0.60    5.50
  -6  -2   6    7.10   10.60
   5   2  -6    7.40    6.90
   5   2  -6   -3.70    5.60
  -5  -2   6   10.10    9.10
  -5  -2   6   26.30    9.90
  -5  -2   6   17.00    8.60
   4   2  -6   12.80    8.60
   4   2  -6   14.70    7.80
   4   2  -6   12.20    7.90
   4   2  -6    5.40    5.20
  -4  -2   6   28.20    8.40
  -4  -2   6   10.40    7.20
  -4  -2   6   33.10   10.40
  -4  -2   6   -0.40    6.70
   3   2  -6   -1.20    4.70
   3   2  -6   -2.10    4.40
   3   2  -6    4.60    4.10
   3   2  -6   -1.10    3.70
  -3  -2   6   -1.40    5.10
  -3  -2   6    0.50    4.70
  -3  -2   6    5.50    5.20
  -3  -2   6   -1.10    4.40
   2   2  -6    3.00    4.50
   2   2  -6    1.50    3.50
   2   2  -6    1.30    4.80
  -2  -2   6    9.30    5.00
  -2  -2   6    2.50    4.00
  -2  -2   6    4.30    4.40
  -2  -2   6   -0.90    3.50
   1   2  -6  131.29   16.00
   1   2  -6  111.79   13.00
   1   2  -6  114.79   14.50
   1   2  -6  132.59   15.60
  -1  -2   6  133.19   15.50
  -1  -2   6  102.09   11.20
  -1  -2   6  150.28   19.10
  -1  -2   6  102.19   13.00
   0   2  -6   10.80    5.50
   0   2  -6   11.60    4.80
   0   2  -6   22.60    6.50
   0  -2   6   10.00    5.60
   0  -2   6   10.40    5.10
   0  -2   6   21.60    7.50
   0  -2   6    9.50    3.70
  -1   2  -6  405.66   23.70
  -1   2  -6  439.56   18.90
  -1   2  -6  410.66   25.50
   1  -2   6  404.46   24.60
   1  -2   6  421.26   25.10
   1  -2   6  417.76   16.80
   1  -2   6  442.76   25.70
  -2   2  -6   74.99   12.10
  -2   2  -6   71.59   13.40
  -2   2  -6   75.29    6.60
   2  -2   6   91.59   14.20
   2  -2   6   65.99   12.50
  -3   2  -6   18.20    7.70
  -3   2  -6   18.70    9.40
   3  -2   6   14.30    8.40
   3  -2   6    8.60    7.30
  -4   2  -6    4.40    5.60
  -4   2  -6    3.80    6.90
   4  -2   6    0.50    5.80
   4  -2   6   -3.20    4.70
  -5   2  -6    5.10    6.70
  -5   2  -6   -1.90    4.40
   5  -2   6   11.80   10.10
   5  -2   6   -2.50    5.40
  -6   2  -6    4.30    7.40
  -6   2  -6   14.30   11.70
   6  -2   6    6.50    9.60
   6   1  -6   13.10   10.70
   6   1  -6   -1.20    7.00
  -6  -1   6    5.40    8.60
  -6  -1   6   -2.50    4.00
  -6  -1   6    0.10    5.70
   5   1  -6   -0.90    4.10
   5   1  -6    0.50    6.90
   5   1  -6    0.90    4.70
  -5  -1   6    3.70    9.00
  -5  -1   6   -1.20    5.70
  -5  -1   6   -3.40    5.20
   4   1  -6   56.79   11.20
   4   1  -6   65.39   15.00
   4   1  -6   60.79   13.80
   4   1  -6   81.89   14.10
  -4  -1   6   90.59   16.10
  -4  -1   6   93.59   19.70
  -4  -1   6  100.29   15.10
  -4  -1   6   53.19   10.50
   3   1  -6    2.20    3.80
   3   1  -6    8.40    5.80
   3   1  -6    5.30    5.60
   3   1  -6    8.60    5.80
  -3  -1   6   17.60    8.00
  -3  -1   6    2.80    4.10
  -3  -1   6   24.20    8.40
  -3  -1   6    6.90    5.10
   2   1  -6 1378.16   52.09
   2   1  -6 1285.57   54.29
   2   1  -6 1327.47   51.49
   2   1  -6 1322.67   50.59
  -2  -1   6 1377.76   49.40
  -2  -1   6 1371.46   53.19
  -2  -1   6 1418.86   55.99
   1   1  -6  252.27   16.90
   1   1  -6  278.97   18.60
   1   1  -6  266.47   16.10
   1   1  -6  233.48   15.40
  -1  -1   6  205.68   16.20
  -1  -1   6  245.48   14.70
  -1  -1   6  240.78   16.60
  -1  -1   6  253.77   17.60
   0   1  -6   84.79   12.50
   0   1  -6  108.09   13.60
   0   1  -6   91.79   10.00
   0  -1   6  103.19   13.40
   0  -1   6  103.99   12.60
   0  -1   6  114.49    8.60
   0  -1   6  136.59   15.00
  -1   1  -6  167.58   10.40
  -1   1  -6  127.59   15.20
   1  -1   6  166.18    9.10
   1  -1   6  133.79   15.50
   1  -1   6  153.68   17.40
  -2   1  -6    1.90    2.70
  -2   1  -6    1.00    4.60
  -2   1  -6   -0.80    3.70
   2  -1   6    3.80    3.10
   2  -1   6    5.60    5.00
  -3   1  -6  367.26   14.90
  -3   1  -6  334.97   23.50
  -3   1  -6  392.06   27.60
   3  -1   6  312.17   25.00
   3  -1   6  369.26   27.00
  -4   1  -6   13.70    8.90
  -4   1  -6    6.90    6.40
  -4   1  -6   25.30    4.20
   4  -1   6   41.70   12.00
   4  -1   6   19.70   10.30
  -5   1  -6  114.59   20.70
  -5   1  -6  109.19   17.40
   5  -1   6   98.49   19.40
   5  -1   6   68.79   18.00
  -6   1  -6   12.70    8.90
  -6   1  -6    5.20    8.90
   6  -1   6    4.70   10.70
   6   0  -6   -0.30    7.20
   6   0  -6    1.60    5.20
  -6   0   6    0.00    4.60
  -6   0   6   -2.10    4.10
  -6   0   6   14.90    9.50
   5   0  -6    8.50    9.30
   5   0  -6   22.30    8.30
   5   0  -6    8.00    7.60
   5   0  -6   45.30   12.00
  -5   0   6   17.60   11.40
  -5   0   6   13.60    9.20
  -5   0   6   14.30    7.90
   4   0  -6   97.69   15.10
   4   0  -6  123.39   19.90
   4   0  -6  102.79   15.90
   4   0  -6  110.69   16.70
  -4   0   6  126.19   22.00
  -4   0   6   88.59   15.40
  -4   0   6   81.39   13.50
  -4   0   6   90.69   12.90
   3   0  -6   25.90    9.20
   3   0  -6   24.80    7.20
   3   0  -6   18.30    6.70
   3   0  -6   14.40    6.30
  -3   0   6   28.30    9.30
  -3   0   6   14.40    6.00
  -3   0   6   28.60    9.30
  -3   0   6   41.80   10.30
   2   0  -6  114.79   10.80
   2   0  -6  126.59   14.00
   2   0  -6  114.89   15.30
   2   0  -6  155.28   13.00
  -2   0   6  143.49   16.70
  -2   0   6  120.49   12.50
  -2   0   6  115.39   14.30
  -2   0   6  128.99   16.10
   1   0  -6  172.18   11.50
   1   0  -6  155.78   12.90
   1   0  -6  156.38   13.50
   1   0  -6  166.98   12.70
  -1   0   6  168.48   13.00
  -1   0   6  148.99   11.00
  -1   0   6  149.29   15.60
  -1   0   6  153.58   12.80
   0   0  -6    7.40    4.20
   0   0  -6   12.50    5.30
   0   0  -6   14.90    5.40
   0   0   6   10.30    4.30
   0   0   6   17.10    6.00
   0   0   6   15.40    4.20
   0   0   6   25.70    6.50
  -1   0  -6  449.56   26.50
  -1   0  -6  510.75   25.90
  -1   0  -6  487.95   20.50
   1   0   6  528.15   26.70
   1   0   6  494.75   19.40
   1   0   6  465.55   26.10
  -2   0  -6  294.87   22.30
  -2   0  -6  324.37   14.90
  -2   0  -6  315.87   20.80
   2   0   6  326.07   23.20
   2   0   6  342.77   22.50
  -3   0  -6  405.76   26.30
  -3   0  -6  407.56   29.00
  -3   0  -6  438.56   17.80
   3   0   6  468.05   30.30
   3   0   6  411.86   28.90
  -4   0  -6  183.98   25.10
  -4   0  -6  127.09   18.30
   4   0   6  135.89   22.10
   4   0   6  173.68   24.60
  -5   0  -6   41.60   15.20
  -5   0  -6   63.09    8.50
  -5   0  -6   48.50   12.60
  -5   0  -6   67.89    7.60
   5   0   6   45.10   14.40
   5   0   6   81.89   18.10
  -6   0  -6   14.80    5.30
  -6   0  -6    5.40    7.30
  -6   0  -6   14.30   10.90
  -6   0  -6   12.00    4.10
   6   0   6    3.90    9.60
   6  -1  -6   24.70   13.70
   6  -1  -6    9.00    8.70
  -6   1   6   30.70    8.80
  -6   1   6    3.70    6.90
   5  -1  -6   -1.40    4.80
   5  -1  -6   -3.00    5.20
   5  -1  -6   -0.90    3.90
  -5   1   6   -0.80    6.20
  -5   1   6    0.30    4.60
  -5   1   6    5.20    5.60
   4  -1  -6   -0.20    3.90
   4  -1  -6    1.50    5.60
   4  -1  -6    4.90    5.80
  -4   1   6   -5.90    3.40
  -4   1   6   -0.20    6.00
  -4   1   6    2.10    5.00
  -4   1   6   -5.60    3.00
   3  -1  -6   69.39   12.70
   3  -1  -6   75.69   13.80
   3  -1  -6   90.59   13.70
   3  -1  -6  104.59   14.60
  -3   1   6   97.19   13.20
  -3   1   6   63.79   11.80
  -3   1   6   72.49   10.90
  -3   1   6   83.49   14.50
   2  -1  -6  327.27   19.10
   2  -1  -6  302.87   17.70
   2  -1  -6  311.67   18.50
   2  -1  -6  321.37   20.50
  -2   1   6  293.37   19.40
  -2   1   6  254.97   16.30
  -2   1   6  293.17   18.30
  -2   1   6  275.07   19.30
   1  -1  -6  129.09   11.20
   1  -1  -6  147.79   15.60
   1  -1  -6  143.69   11.50
   1  -1  -6  129.89    9.10
  -1   1   6  143.39   12.10
  -1   1   6  155.98   12.50
  -1   1   6  141.69   10.50
  -1   1   6  136.29   10.90
   0  -1  -6   33.60    7.70
   0  -1  -6   41.10    8.10
   0  -1  -6   34.10    5.90
   0   1   6   50.29    8.50
   0   1   6   55.49    7.20
   0   1   6   45.50    8.80
   0   1   6   51.19    7.60
  -1  -1  -6   76.79   11.50
  -1  -1  -6   77.99   12.10
   1   1   6   68.29   11.20
   1   1   6   43.70    5.70
   1   1   6   67.39   10.40
  -2  -1  -6    1.20    4.40
  -2  -1  -6    9.20    5.50
   2   1   6   19.10    6.50
   2   1   6    7.60    5.60
  -3  -1  -6   95.49   15.30
  -3  -1  -6   91.19   15.80
  -3  -1  -6   91.09    7.50
   3   1   6   90.59   16.20
   3   1   6   88.39   15.10
  -4  -1  -6   85.79   15.70
  -4  -1  -6   75.99   16.60
  -4  -1  -6   94.49    7.90
   4   1   6   99.29   18.40
   4   1   6   93.09   17.20
  -5  -1  -6   48.40   11.90
  -5  -1  -6   82.69    9.40
   5   1   6   58.69   14.50
  -6  -1  -6   -0.30    7.90
  -6  -1  -6    5.20    7.60
  -6  -1  -6    1.30    3.20
  -6  -1  -6    0.80    4.10
   6   1   6   -5.50    4.80
   6  -2  -6    5.30    9.80
   6  -2  -6   -5.20    6.30
  -6   2   6    6.00    7.60
  -6   2   6    2.10    5.50
  -6   2   6    1.00    4.40
   5  -2  -6   10.20    9.00
   5  -2  -6   15.40   11.70
   5  -2  -6   15.00    8.00
   5  -2  -6   28.20   11.90
  -5   2   6   28.80    8.20
  -5   2   6   24.70   10.20
  -5   2   6   33.10    8.40
   4  -2  -6   -1.30    4.20
   4  -2  -6   -0.80    3.70
   4  -2  -6    2.60    6.10
  -4   2   6   -1.70    4.70
  -4   2   6    4.00    5.10
   3  -2  -6   29.30    7.90
   3  -2  -6   33.80    9.60
   3  -2  -6   46.10    9.60
  -3   2   6   22.20    6.20
  -3   2   6   29.20    7.20
  -3   2   6   42.10   11.00
  -3   2   6   32.00    8.70
   2  -2  -6   11.90    4.30
   2  -2  -6   15.30    5.10
   2  -2  -6   10.60    5.40
   2  -2  -6   15.90    5.60
  -2   2   6   21.90    6.60
  -2   2   6    4.00    3.80
  -2   2   6   16.20    6.10
  -2   2   6   13.80    4.80
   1  -2  -6  389.96   19.80
   1  -2  -6  412.86   21.60
   1  -2  -6  406.16   16.60
   1  -2  -6  397.16   20.30
  -1   2   6  421.06   20.90
  -1   2   6  380.66   18.60
  -1   2   6  370.76   18.50
  -1   2   6  399.56   20.70
   0  -2  -6    3.80    3.20
   0  -2  -6   -1.40    2.60
   0  -2  -6   -2.30    2.60
   0   2   6    3.30    3.20
   0   2   6   -0.20    1.60
   0   2   6    0.10    3.60
   0   2   6    3.50    2.30
  -1  -2  -6   -0.70    2.10
  -1  -2  -6    3.50    3.90
  -1  -2  -6    2.90    3.80
   1   2   6    2.40    2.20
   1   2   6    1.30    3.90
   1   2   6    0.10    2.90
  -2  -2  -6    5.10    3.00
  -2  -2  -6    2.10    5.00
  -2  -2  -6    5.40    4.90
   2   2   6    0.10    4.10
   2   2   6    3.90    4.30
  -3  -2  -6  257.97   20.90
  -3  -2  -6  290.07   14.50
  -3  -2  -6  270.47   28.50
   3   2   6  273.07   22.10
   3   2   6  279.17   22.80
  -4  -2  -6   76.59   14.30
  -4  -2  -6   63.29    8.30
  -4  -2  -6   66.29   15.60
   4   2   6   48.90   12.50
   4   2   6   50.19   12.90
   4   2   6   90.29   17.60
  -5  -2  -6  136.19   22.10
  -5  -2  -6  145.29   11.00
   5   2   6  230.68   50.39
   5   2   6  147.39   22.60
  -6  -2  -6    6.80    8.80
  -6  -2  -6    5.10    5.10
  -6  -2  -6    9.30   10.30
  -6  -2  -6   10.50    5.00
   6   2   6   -1.80    6.90
   6  -3  -6   18.60   12.70
   6  -3  -6   23.20   11.80
  -6   3   6   48.10   12.60
  -6   3   6   23.60    8.20
  -6   3   6   46.90   10.30
   5  -3  -6    7.10    7.80
   5  -3  -6    4.30    6.50
   5  -3  -6  -10.70    3.90
   5  -3  -6   -2.00    5.00
  -5   3   6   13.00    7.10
  -5   3   6   -3.50    3.60
  -5   3   6   -5.40    3.50
   4  -3  -6    2.10    4.90
   4  -3  -6   16.60    8.90
   4  -3  -6   -3.30    4.60
   4  -3  -6   -3.30    4.10
  -4   3   6    8.30    5.00
  -4   3   6    1.30    3.90
  -4   3   6    8.90    6.10
   3  -3  -6   97.59   13.90
   3  -3  -6   97.99   15.10
   3  -3  -6   83.39   14.70
   3  -3  -6   83.49   13.40
  -3   3   6   82.19   10.80
  -3   3   6   92.39   13.50
  -3   3   6   76.89   11.50
   2  -3  -6   10.70    4.40
   2  -3  -6    2.90    4.00
   2  -3  -6    8.10    4.00
   2  -3  -6    0.70    3.30
  -2   3   6    8.10    4.70
  -2   3   6   17.60    5.10
  -2   3   6    8.60    4.30
   1  -3  -6   14.60    4.50
   1  -3  -6    2.50    3.40
   1  -3  -6   14.20    5.30
  -1   3   6    3.30    3.40
  -1   3   6    6.40    3.40
  -1   3   6   10.00    4.10
  -1   3   6   12.60    3.80
   0  -3  -6   51.49    8.30
   0  -3  -6   42.70    6.50
   0  -3  -6   50.29    8.10
   0   3   6   35.40    4.80
   0   3   6   36.10    7.20
  -1  -3  -6  295.57   14.90
  -1  -3  -6  309.37   19.10
  -1  -3  -6  302.87   19.00
   1   3   6  308.57   17.40
   1   3   6  313.47   19.20
   1   3   6  288.97   14.90
  -2  -3  -6   56.89   12.00
  -2  -3  -6   31.10    8.00
  -2  -3  -6   48.80    7.40
   2   3   6   43.60   10.90
   2   3   6   44.30    8.90
  -3  -3  -6   16.90    4.30
  -3  -3  -6   13.40    6.70
  -3  -3  -6    5.00    5.50
   3   3   6   17.20    9.00
   3   3   6    5.70    5.70
   3   3   6   18.80    8.40
  -4  -3  -6    7.30    7.40
  -4  -3  -6    0.00    6.30
   4   3   6    8.60    8.00
   4   3   6   12.20    7.90
   4   3   6    6.30    6.80
  -5  -3  -6    2.10    6.70
   5   3   6   -3.60    4.60
   5   3   6   -7.60    4.20
  -6  -3  -6   11.30   10.00
  -6  -3  -6    5.60    9.20
   6   3   6   -1.90    5.40
   6   3   6   14.40    9.90
  -7  -3  -6   14.10    9.30
   7   3   6   -3.00    7.80
   6  -4  -6   -5.70    5.60
   6  -4  -6   -1.30    4.80
   6  -4  -6   -6.10    4.30
  -6   4   6   -2.70    4.20
  -6   4   6    3.60    4.50
  -6   4   6   -0.20    3.90
   5  -4  -6   19.10   10.40
   5  -4  -6    9.70    8.50
   5  -4  -6   13.10    8.00
   5  -4  -6   34.50   10.20
  -5   4   6   23.10    7.60
  -5   4   6   29.20    6.80
  -5   4   6   28.50    7.00
   4  -4  -6    1.00    4.50
   4  -4  -6    6.90    5.80
   4  -4  -6   16.30    8.20
   4  -4  -6    4.40    6.80
  -4   4   6    3.90    4.10
  -4   4   6    2.60    3.50
  -4   4   6    0.90    4.30
   3  -4  -6   77.19   15.00
   3  -4  -6   44.80    8.70
   3  -4  -6   92.79   14.20
   3  -4  -6   44.20    9.00
  -3   4   6   52.19    9.00
  -3   4   6   77.89   11.10
  -3   4   6   66.29    8.40
   2  -4  -6  276.87   16.70
   2  -4  -6  306.67   17.80
   2  -4  -6  261.07   16.50
   2  -4  -6  244.88   16.60
  -2   4   6  273.67   15.60
  -2   4   6  249.48   15.10
  -2   4   6  268.87   14.00
   1  -4  -6   68.89   10.80
   1  -4  -6   81.39    9.60
   1  -4  -6   82.49   10.10
  -1   4   6   92.89    7.70
  -1   4   6   84.59    9.40
  -1   4   6   88.29    7.70
   0  -4  -6   10.20    3.60
   0  -4  -6   22.80    5.40
   0  -4  -6   11.70    5.00
   0   4   6   27.90    5.30
   0   4   6   18.20    4.00
   0   4   6   13.60    4.50
  -1  -4  -6  338.47   16.20
  -1  -4  -6  334.37   19.40
  -1  -4  -6  318.27   19.20
   1   4   6  288.07   16.70
   1   4   6  349.57   19.90
   1   4   6  314.07   17.00
  -2  -4  -6    9.80    5.90
  -2  -4  -6   22.20    4.20
  -2  -4  -6   19.90    7.00
   2   4   6   34.00    8.50
   2   4   6   31.00    7.60
   2   4   6   28.20    7.20
  -3  -4  -6  195.88   22.50
  -3  -4  -6  190.08   22.40
  -3  -4  -6  255.17   14.40
   3   4   6  247.78   20.40
   3   4   6  204.78   19.00
   3   4   6  211.08   18.50
  -4  -4  -6  298.47   26.00
  -4  -4  -6  328.57   26.00
   4   4   6  306.07   26.50
   4   4   6  295.97   25.00
   4   4   6  291.07   24.90
  -5  -4  -6   37.60   12.10
   5   4   6   56.39   14.90
   5   4   6   38.70   13.00
  -6  -4  -6   -7.60    3.20
  -6  -4  -6   -3.80    5.60
   6   4   6   -3.50    3.80
   6   4   6    0.20    7.80
   6   4   6    3.90    6.90
  -7  -4  -6   -3.50    8.30
   7   4   6   -3.90    6.90
   6  -5  -6    8.60   10.10
   6  -5  -6    1.50    4.80
   6  -5  -6    3.60    6.60
   5  -5  -6    0.20    6.40
   5  -5  -6    9.00    8.20
   5  -5  -6    3.60    5.60
   5  -5  -6   -4.90    3.70
  -5   5   6    3.40    4.60
   4  -5  -6   22.30   11.10
   4  -5  -6   34.60   10.50
   4  -5  -6   10.00    6.00
   4  -5  -6   12.40    7.30
  -4   5   6    4.50    4.30
   3  -5  -6   61.39   11.60
   3  -5  -6   75.19   13.50
   3  -5  -6   65.39   11.30
   3  -5  -6   74.49   12.00
  -3   5   6   69.09   10.30
   2  -5  -6   11.60    5.00
   2  -5  -6    7.30    4.20
   2  -5  -6    5.10    4.20
   2  -5  -6   20.00    5.30
  -2   5   6   12.30    4.20
   1  -5  -6    2.40    2.70
   1  -5  -6    3.50    2.90
   1  -5  -6    4.40    3.40
  -1   5   6    5.50    3.50
   0  -5  -6  305.67   16.10
   0  -5  -6  260.47   14.70
   0  -5  -6  255.87   14.30
   0   5   6  260.67   11.70
   0   5   6  252.87   12.60
   0   5   6  269.07   14.90
  -1  -5  -6  121.89   13.40
  -1  -5  -6  108.59   12.80
  -1  -5  -6  117.99    9.30
   1   5   6  104.49   11.50
   1   5   6  117.69    8.70
  -2  -5  -6   32.60    8.30
  -2  -5  -6   22.10    7.60
  -2  -5  -6   29.20    5.30
   2   5   6   54.79    9.30
   2   5   6   31.10    7.10
   2   5   6   37.70    8.70
  -3  -5  -6    5.90    6.20
  -3  -5  -6   12.60    7.80
   3   5   6   10.80    6.20
   3   5   6    0.60    4.30
   3   5   6    6.10    5.20
  -4  -5  -6   67.69   15.90
  -4  -5  -6   98.19   18.20
   4   5   6   84.79   16.20
   4   5   6   92.89   16.20
   4   5   6  102.79   19.00
  -5  -5  -6    4.40    7.20
   5   5   6   20.80   10.30
   5   5   6   -3.30    5.10
   5   5   6   -2.80    5.70
  -6  -5  -6    7.30    9.30
  -6  -5  -6   -0.20    8.20
   6   5   6   -3.70    4.90
   6   5   6    1.70    7.30
   6   5   6    7.40    8.60
  -7  -5  -6   10.40    8.30
  -7  -5  -6    1.70    9.30
   7   5   6   -6.70    6.20
   5  -6  -6   11.10    8.50
   5  -6  -6    8.00    5.30
   5  -6  -6    1.40    6.30
  -5   6   6   11.40    5.50
   4  -6  -6   -5.40    3.40
   4  -6  -6    2.30    5.70
   4  -6  -6    5.50    5.90
   4  -6  -6    3.20    5.80
  -4   6   6    1.90    3.30
   3  -6  -6  231.58   16.80
   3  -6  -6  211.08   24.20
   3  -6  -6  189.38   15.40
   3  -6  -6  225.18   17.60
  -3   6   6  202.58   13.60
   2  -6  -6   99.79   13.40
   2  -6  -6  136.59   15.90
   2  -6  -6  105.29   12.30
  -2   6   6  109.99   11.70
   1  -6  -6  186.68   11.90
   1  -6  -6  196.88    9.20
   1  -6  -6  187.88   13.10
   1  -6  -6  185.28   11.50
  -1   6   6  198.88   12.60
   0  -6  -6    2.80    3.50
   0  -6  -6    5.30    3.00
   0  -6  -6   -2.20    2.20
  -1  -6  -6 1262.07   51.59
  -1  -6  -6 1245.68   47.10
  -1  -6  -6 1345.57   45.40
   1   6   6 1268.97   40.10
   1   6   6 1275.87   42.10
  -2  -6  -6   49.00    7.60
  -2  -6  -6   68.19   12.10
  -2  -6  -6   73.29   11.60
   2   6   6   65.59    9.90
   2   6   6   81.89   10.30
   2   6   6   68.79   10.20
  -3  -6  -6  149.49   20.30
  -3  -6  -6  192.28   22.40
   3   6   6  166.78   19.40
   3   6   6  156.78   17.40
   3   6   6  183.68   21.80
  -4  -6  -6  261.67   29.10
  -4  -6  -6  271.27   31.00
   4   6   6  237.98   21.00
   4   6   6  219.18   24.60
   4   6   6  269.87   23.70
  -5  -6  -6   40.30   15.20
  -5  -6  -6   25.80   12.00
   5   6   6   46.10   16.60
   5   6   6   36.00   11.00
   5   6   6   46.70   13.80
  -6  -6  -6   34.70   12.80
   6   6   6   21.80   10.80
   6   6   6   32.30   12.40
   6   6   6   16.80   11.90
  -7  -6  -6   -0.10    8.50
   5  -7  -6   11.50    8.80
   5  -7  -6    1.60    6.70
   5  -7  -6    1.40    4.50
   5  -7  -6   -0.30    6.80
  -5   7   6    9.70    5.30
   4  -7  -6   13.90    8.00
   4  -7  -6   30.30    9.50
   4  -7  -6   17.70    9.60
   4  -7  -6   40.30    9.80
  -4   7   6   33.50    6.70
   3  -7  -6   82.19   11.60
   3  -7  -6   96.29   13.60
   3  -7  -6   71.79   12.00
   3  -7  -6   71.49   13.80
  -3   7   6   82.69   11.00
   2  -7  -6   -1.40    3.50
   2  -7  -6   -0.60    3.00
   2  -7  -6    1.80    4.00
   2  -7  -6    5.80    3.90
  -2   7   6   -1.40    3.00
   1  -7  -6   35.10    5.20
   1  -7  -6   40.40    8.00
   1  -7  -6   28.00    5.40
   1  -7  -6   24.00    5.00
  -1   7   6   24.70    5.90
   0  -7  -6   25.20    6.20
   0  -7  -6   23.50    4.70
   0  -7  -6   25.90    5.40
  -1  -7  -6   12.10    4.10
  -1  -7  -6   18.80    5.20
  -1  -7  -6   11.40    4.20
   1   7   6   14.10    3.30
  -2  -7  -6   71.19   12.30
  -2  -7  -6   49.30    8.90
  -2  -7  -6   44.70    9.70
  -2  -7  -6   33.10    5.60
   2   7   6   55.09    8.00
   2   7   6   53.29    7.00
   2   7   6   43.10    7.60
  -3  -7  -6   35.00   10.30
  -3  -7  -6   18.00    9.10
   3   7   6   44.90    9.10
   3   7   6   25.20    7.50
   3   7   6   44.70    9.60
  -4  -7  -6   47.70   13.10
  -4  -7  -6   67.19   15.30
   4   7   6   46.90   11.00
   4   7   6   52.09   11.30
   4   7   6   32.40   10.00
  -5  -7  -6   33.70   14.30
  -5  -7  -6   83.59   18.30
   5   7   6   73.29   15.20
   5   7   6   60.09   15.00
   5   7   6   72.59   15.00
  -6  -7  -6   11.70   10.00
   6   7   6   -3.30    4.80
   6   7   6    3.80    9.20
   6   7   6    4.50    8.20
  -7  -7  -6   -6.30    6.60
   7   7   6    6.10    9.90
   5  -8  -6    1.60    7.10
   5  -8  -6    4.70    8.70
   5  -8  -6    4.70    4.40
   5  -8  -6   -5.30    4.80
   4  -8  -6   -1.30    5.70
   4  -8  -6    7.30    7.00
   4  -8  -6   -3.20    3.80
   4  -8  -6   -2.10    4.60
  -4   8   6   -2.00    2.30
   3  -8  -6    1.90    4.60
   3  -8  -6    0.60    4.20
   3  -8  -6   -2.40    3.50
   3  -8  -6    1.00    5.00
  -3   8   6    1.20    3.10
   2  -8  -6    8.40    4.10
   2  -8  -6    1.30    4.20
   1  -8  -6    1.30    2.20
   1  -8  -6   -0.40    2.40
   1  -8  -6    9.80    5.30
   1  -8  -6    4.10    2.80
   0  -8  -6  132.89   10.90
   0  -8  -6  134.99    8.80
   0  -8  -6  139.59    9.80
  -1  -8  -6  197.98   13.60
  -1  -8  -6  197.28   14.40
  -1  -8  -6  209.78   14.30
  -1  -8  -6  217.18   14.20
  -2  -8  -6   17.00    4.60
  -2  -8  -6   17.10    7.10
  -2  -8  -6   11.20    6.40
  -2  -8  -6   22.10    7.90
   2   8   6   20.30    5.80
  -3  -8  -6   24.50    9.10
  -3  -8  -6   17.10    8.20
  -3  -8  -6   32.10   10.30
   3   8   6   28.40    6.40
   3   8   6   18.20    7.40
   3   8   6   28.90    6.70
  -4  -8  -6    4.00    6.60
  -4  -8  -6   -1.20    6.40
   4   8   6   13.00    7.20
   4   8   6    1.70    6.10
   4   8   6   -0.40    7.00
  -5  -8  -6  119.79   21.00
  -5  -8  -6  123.49   35.00
   5   8   6   53.69   12.10
   5   8   6   81.59   15.70
   5   8   6   72.39   16.10
  -6  -8  -6   60.39   17.90
   6   8   6   31.20   13.60
   6   8   6   66.19   15.80
   6   8   6   41.90   12.90
   4  -9  -6   -0.50    5.60
   4  -9  -6   -4.50    4.20
   4  -9  -6   -2.40    4.40
   4  -9  -6    0.50    5.70
   3  -9  -6    8.90    5.70
   3  -9  -6   11.10    8.40
   3  -9  -6   32.60    8.70
   3  -9  -6   18.30    6.20
   2  -9  -6    2.90    3.30
   2  -9  -6    4.00    3.90
   2  -9  -6    7.50    4.10
   2  -9  -6    0.50    3.90
   1  -9  -6    0.90    2.70
   1  -9  -6    2.90    2.40
   1  -9  -6   -2.00    2.80
   1  -9  -6    1.00    2.90
   0  -9  -6   50.19    7.80
   0  -9  -6   60.79    6.90
   0  -9  -6   70.39    8.00
   0  -9  -6   61.79    9.50
  -1  -9  -6  300.87   17.90
  -1  -9  -6  283.87   18.40
  -1  -9  -6  284.47   18.00
  -1  -9  -6  333.47   18.50
  -2  -9  -6   -2.40    3.60
  -2  -9  -6    4.80    4.10
  -2  -9  -6   -1.90    3.80
   2   9   6    0.70    2.90
  -3  -9  -6    0.70    5.40
  -3  -9  -6    7.00    6.60
  -3  -9  -6   10.30    7.70
   3   9   6    3.20    4.60
   3   9   6    6.60    3.10
  -4  -9  -6   57.69   14.70
  -4  -9  -6   61.09   15.60
  -4  -9  -6   55.29   13.70
   4   9   6   70.89   11.60
   4   9   6   71.79   11.40
   4   9   6   64.69   13.00
  -5  -9  -6   72.29   17.60
  -5  -9  -6   46.00   14.60
   5   9   6   70.09   14.40
   5   9   6   34.20   10.10
   5   9   6   42.50   11.40
  -6  -9  -6   -0.20    8.30
   6   9   6   -1.70    6.60
   6   9   6    3.50    6.80
   6   9   6    9.80    9.30
   4 -10  -6   45.60   12.00
   4 -10  -6   23.40    9.60
   4 -10  -6   29.20   13.40
   4 -10  -6   19.90    7.30
   3 -10  -6    3.30    4.90
   3 -10  -6   -1.60    4.50
   3 -10  -6   -2.20    3.50
   3 -10  -6    0.40    2.80
   2 -10  -6    8.90    5.20
   2 -10  -6    8.20    5.40
   2 -10  -6   11.10    4.20
   2 -10  -6   15.20    5.20
   1 -10  -6    5.90    4.80
   1 -10  -6    1.00    2.90
   1 -10  -6   -0.60    1.70
   1 -10  -6    0.90    2.10
   0 -10  -6   38.20    8.00
   0 -10  -6   61.89    6.70
   0 -10  -6   50.69    8.10
   0 -10  -6   55.99    6.80
  -1 -10  -6   28.40    6.80
  -1 -10  -6   32.60    6.90
  -1 -10  -6   39.00    7.80
  -1 -10  -6   31.00    7.80
  -2 -10  -6    5.40    6.10
  -2 -10  -6    1.30    4.90
  -2 -10  -6   -1.70    3.30
  -2 -10  -6   15.20    7.20
   2  10   6    1.10    3.40
  -3 -10  -6  142.69   19.40
  -3 -10  -6  142.29   20.40
  -3 -10  -6  125.29   19.30
   3  10   6  146.99   18.20
  -4 -10  -6    6.70    6.80
  -4 -10  -6   10.50    8.90
  -4 -10  -6    4.80    7.10
   4  10   6   -0.40    3.00
   4  10   6   -2.00    2.90
   4  10   6    3.00    5.50
  -5 -10  -6    9.20    9.20
  -5 -10  -6    7.60    8.90
  -5 -10  -6    7.70    9.50
   5  10   6   34.90    9.20
  -6 -10  -6    4.70   10.00
   6  10   6   -2.80    5.40
   6  10   6    6.20    8.80
   3 -11  -6   45.10   10.40
   3 -11  -6   27.70    7.50
   3 -11  -6   20.30    7.40
   3 -11  -6   37.50   10.00
   2 -11  -6   -3.20    2.60
   2 -11  -6    3.60    4.30
   2 -11  -6   -1.50    2.60
   2 -11  -6   -0.50    3.70
   1 -11  -6   18.70    6.30
   1 -11  -6   41.10    9.40
   0 -11  -6    0.10    2.70
   0 -11  -6    7.60    5.40
   0 -11  -6    1.00    2.40
   0 -11  -6    2.30    3.30
  -1 -11  -6  278.47   17.30
  -1 -11  -6  263.07   19.90
  -1 -11  -6  252.47   17.60
  -2 -11  -6    3.00    5.20
  -2 -11  -6    0.00    3.60
  -2 -11  -6    0.60    4.90
  -2 -11  -6    3.00    5.30
   2  11   6    2.00    3.80
  -3 -11  -6  137.99   19.50
  -3 -11  -6  150.48   21.70
  -3 -11  -6  175.58   22.80
   3  11   6  158.88   14.80
  -4 -11  -6    7.00    6.70
  -4 -11  -6   21.50   11.40
  -4 -11  -6   12.20    9.90
   4  11   6   27.10    8.50
  -5 -11  -6   33.20   14.60
  -5 -11  -6   13.50   11.90
   5  11   6   10.20   12.80
   5  11   6   22.70    8.00
   5  11   6   14.80    6.40
   6  11   6   13.60    9.70
   2 -12  -6   24.10    7.10
   2 -12  -6   12.20    6.60
   2 -12  -6   14.40    5.50
   1 -12  -6   33.10    9.40
   1 -12  -6   29.30    7.10
   0 -12  -6   -0.30    3.20
  -1 -12  -6    4.90    4.40
  -1 -12  -6    2.90    4.60
  -1 -12  -6    0.30    4.10
  -1 -12  -6    5.50    5.00
  -2 -12  -6   -2.40    5.00
  -2 -12  -6    5.80    6.10
  -2 -12  -6    7.20    5.70
  -3 -12  -6   17.30    8.70
  -3 -12  -6    7.10    8.00
  -3 -12  -6    3.30    7.20
   3  12   6    4.50    4.80
  -4 -12  -6   -5.30    5.90
  -4 -12  -6    4.10    8.30
   4  12   6   -2.70    3.40
  -5 -12  -6    7.00    9.70
  -5 -12  -6    4.60    9.20
   5  12   6    2.30    2.90
   5  12   6    3.70    2.90
   5  12   6    2.20    6.00
   1 -13  -6   69.09   10.80
   1 -13  -6   69.69   14.50
   0 -13  -6   22.40    6.10
   0 -13  -6   29.60    9.60
  -1 -13  -6    3.30    4.40
  -1 -13  -6    8.40    5.90
  -1 -13  -6    2.60    4.50
  -1 -13  -6    4.40    4.50
  -2 -13  -6    7.20    5.30
  -2 -13  -6   18.20    8.80
  -2 -13  -6    9.90    7.80
  -2 -13  -6   18.90    7.90
  -3 -13  -6   79.29   15.30
  -3 -13  -6   71.89   11.60
  -3 -13  -6   84.99   17.50
  -3 -13  -6  129.79   20.70
   3  13   6   83.19   15.30
  -4 -13  -6   29.70   14.20
  -4 -13  -6   25.30   11.60
  -4 -13  -6   36.30   15.50
  -5 -13  -6   10.30   10.90
  -5 -13  -6    8.40    9.90
   5  13   6   14.80    8.80
   0 -14  -6    1.20    5.20
   0 -14  -6    4.40    5.00
  -1 -14  -6   -3.40    3.70
  -1 -14  -6    3.10    5.60
  -1 -14  -6   16.70    7.60
  -1 -14  -6    0.00    5.00
  -2 -14  -6    7.70    6.80
  -2 -14  -6    3.90    6.50
  -2 -14  -6   15.30   13.60
  -2 -14  -6    0.20    5.40
  -3 -14  -6    9.60    7.70
  -3 -14  -6    0.40    6.40
  -3 -14  -6    8.80    8.60
  -3 -14  -6   20.70   11.20
  -4 -14  -6    2.90    7.40
  -4 -14  -6    6.80    9.30
   4  14   6    3.20    6.20
   3   9  -7    8.50    9.10
   3   9  -7    3.40    5.80
  -3  -9   7    0.10    7.10
  -3  -9   7   11.00   11.70
   2   9  -7   18.80    9.00
  -2  -9   7    4.80    9.60
  -2  -9   7   39.00   11.70
   1   9  -7   10.90    5.30
  -1  -9   7    6.30    6.80
  -1  -9   7    5.10    7.60
  -1  -9   7    5.40    7.20
   0  -9   7   11.20    8.40
   0  -9   7   11.80    8.70
   4   8  -7    9.00    7.10
   4   8  -7   12.90    8.00
  -4  -8   7    0.20    7.60
   3   8  -7   -2.30    4.40
   3   8  -7    4.80    7.60
  -3  -8   7    5.70    7.90
  -3  -8   7    9.90    8.50
  -3  -8   7   -0.60    6.30
   2   8  -7   18.10    7.70
   2   8  -7    3.40    6.80
  -2  -8   7   26.00    9.90
  -2  -8   7   14.40   12.20
  -2  -8   7   30.90    8.80
  -2  -8   7   13.30    7.90
   1   8  -7   -1.10    4.40
   1   8  -7   -4.50    5.10
  -1  -8   7    5.50    7.20
  -1  -8   7   -1.50    5.00
  -1  -8   7   -1.80    4.00
  -1  -8   7   -2.50    6.40
   0   8  -7   -3.80    3.40
   0  -8   7    5.40    7.20
   0  -8   7   -3.20    3.30
   0  -8   7   -1.70    4.90
   0  -8   7    2.10    6.50
   1  -8   7    4.90    6.60
   1  -8   7    5.10    6.30
   1  -8   7    1.20    6.90
   2  -8   7    1.50    6.60
   2  -8   7    5.20    7.40
   5   7  -7    7.30   11.00
  -5  -7   7    3.20   13.40
  -5  -7   7   10.10   10.00
   4   7  -7    5.50    6.50
   4   7  -7   17.30   11.00
  -4  -7   7    8.20   11.50
  -4  -7   7    2.80    7.30
   3   7  -7   -2.10    6.50
   3   7  -7    2.50    4.70
   3   7  -7    4.60    6.30
  -3  -7   7    6.50    8.80
  -3  -7   7   -1.30    5.10
  -3  -7   7    3.90    6.50
  -3  -7   7    0.90    7.20
   2   7  -7   26.00   10.60
   2   7  -7   20.90    8.20
  -2  -7   7   34.40   11.70
  -2  -7   7   17.70    8.70
  -2  -7   7    9.40    9.60
  -2  -7   7   22.20    8.50
   1   7  -7    3.90    5.30
   1   7  -7   -4.10    4.90
  -1  -7   7   -0.20    5.20
  -1  -7   7    7.40    6.00
  -1  -7   7    1.10    4.80
  -1  -7   7   -1.10    6.20
   0   7  -7   92.19   13.90
   0   7  -7   63.49   11.60
   0  -7   7   85.79   18.50
   0  -7   7   69.09   14.10
   0  -7   7   64.39   13.60
  -1   7  -7   15.30    6.50
  -1   7  -7   19.40    6.80
   1  -7   7   28.30   11.40
   1  -7   7   13.90    8.40
  -2   7  -7   47.60    7.90
  -2   7  -7   58.59    8.60
   2  -7   7   46.90   13.00
   2  -7   7   37.90   11.00
   3  -7   7    6.50    8.40
   3  -7   7    1.70    6.90
   5   6  -7   12.80   10.20
  -5  -6   7   10.30   10.10
  -5  -6   7    3.30   10.50
   4   6  -7   -5.10    5.00
   4   6  -7    3.40    5.70
  -4  -6   7   -0.60    6.50
  -4  -6   7   -0.10    5.60
  -4  -6   7    5.40    7.30
  -4  -6   7   -2.60    5.80
   3   6  -7   -0.30    4.50
   3   6  -7   -0.40    2.70
   3   6  -7   -5.60    5.70
  -3  -6   7    0.70    5.60
  -3  -6   7   -7.30    3.00
  -3  -6   7   -0.10    5.80
  -3  -6   7    0.50    5.10
   2   6  -7   73.49   13.00
  -2  -6   7   76.29   15.30
  -2  -6   7   59.79   12.60
  -2  -6   7   72.69   13.00
  -2  -6   7   51.99   15.10
   1   6  -7   24.90    9.70
   1   6  -7   17.10    7.80
  -1  -6   7   15.30    8.00
  -1  -6   7   15.10    6.50
  -1  -6   7   13.20    7.90
  -1  -6   7   19.30    7.90
   0   6  -7   30.00    9.40
   0  -6   7   20.70    9.20
   0  -6   7   51.19   14.70
   0  -6   7   17.20    8.70
  -1   6  -7   18.60    8.10
  -1   6  -7    5.80    5.80
   1  -6   7    8.50    3.40
   1  -6   7    7.80    7.40
   1  -6   7    7.80    7.10
   1  -6   7   20.40    7.20
  -2   6  -7    7.60    5.80
  -2   6  -7   19.80    7.40
   2  -6   7    4.40    6.50
   2  -6   7   17.80    8.90
  -3   6  -7   -2.00    4.10
  -3   6  -7    1.40    4.40
   3  -6   7   -7.10    3.70
   3  -6   7    9.20    9.40
   3  -6   7   -8.50    3.50
   6   5  -7    4.20   10.50
  -6  -5   7    2.00   19.40
  -6  -5   7   11.80   10.70
   5   5  -7   26.20   13.40
  -5  -5   7   26.50   16.30
  -5  -5   7   16.40    9.90
   4   5  -7    7.10    8.10
   4   5  -7   -0.50    4.50
   4   5  -7   11.40    6.00
  -4  -5   7    4.40    8.30
  -4  -5   7    8.80    7.90
  -4  -5   7    9.10    9.10
  -4  -5   7    5.30    6.30
   3   5  -7   64.79   14.70
   3   5  -7   24.80    7.90
   3   5  -7   58.59   12.00
  -3  -5   7   35.70   11.30
  -3  -5   7   63.09   16.20
  -3  -5   7   27.10    9.00
  -3  -5   7   16.90    8.30
   2   5  -7    2.30    3.90
   2   5  -7    5.00    5.30
   2   5  -7    2.50    6.00
  -2  -5   7   -3.70    5.50
  -2  -5   7    5.30    6.60
  -2  -5   7    2.60    5.40
  -2  -5   7   -4.00    4.10
   1   5  -7   63.89   12.20
   1   5  -7   94.79   15.60
  -1  -5   7   72.69   13.50
  -1  -5   7   77.49   13.60
  -1  -5   7   88.59   17.80
  -1  -5   7   63.19   10.10
   0   5  -7  101.19   15.20
   0   5  -7   79.79   13.40
   0  -5   7   82.79   13.50
   0  -5   7   71.49   15.90
   0  -5   7   66.89    8.80
   0  -5   7   74.39   12.90
  -1   5  -7   24.30    8.30
   1  -5   7   44.60   13.20
   1  -5   7   37.20    5.60
   1  -5   7   52.49   11.70
   1  -5   7   58.99   12.30
  -2   5  -7  266.17   19.30
   2  -5   7  291.97   25.10
   2  -5   7  289.27   24.30
  -3   5  -7   10.00   10.40
  -3   5  -7    4.00    5.30
   3  -5   7   -3.10    4.50
   3  -5   7    6.70    8.60
   3  -5   7   10.30   10.00
  -4   5  -7   80.99   17.30
  -4   5  -7   80.59   12.40
   4  -5   7   71.79   15.40
   6   4  -7   -0.40   13.20
  -6  -4   7   12.00   16.90
  -6  -4   7   -9.30    5.70
   5   4  -7   -2.30    7.60
   5   4  -7   -1.10    4.30
   5   4  -7    5.10    6.10
  -5  -4   7    1.10    6.40
  -5  -4   7    3.40    8.30
   4   4  -7    4.30    8.00
   4   4  -7   10.50    6.90
  -4  -4   7   39.10   13.70
  -4  -4   7   23.00    9.10
  -4  -4   7    9.60    8.00
   3   4  -7   -3.20    2.30
   3   4  -7    0.90    6.00
  -3  -4   7    6.00    6.30
  -3  -4   7   -3.40    5.30
  -3  -4   7    2.00    5.40
   2   4  -7   70.89   12.80
   2   4  -7   63.29   13.00
   2   4  -7   94.19   14.90
   2   4  -7   73.89   12.20
  -2  -4   7   68.39   13.10
  -2  -4   7   88.39   18.20
  -2  -4   7   79.39   13.90
  -2  -4   7   93.79   12.90
   1   4  -7    2.80    5.20
   1   4  -7   10.40    6.00
   1   4  -7    4.30    6.10
  -1  -4   7   -2.20    3.30
  -1  -4   7   12.80    8.50
  -1  -4   7   19.40    8.30
   0   4  -7  110.99   16.70
   0   4  -7  111.69   15.60
   0   4  -7  115.59   13.30
   0  -4   7  108.69   11.30
   0  -4   7   84.99   13.50
   0  -4   7  127.69   19.20
   0  -4   7  106.89   15.70
  -1   4  -7   46.30   10.40
  -1   4  -7   21.90    8.00
   1  -4   7   25.70    9.40
   1  -4   7   18.30    7.50
   1  -4   7   34.30    5.50
   1  -4   7   17.10    9.50
  -2   4  -7   99.49   16.00
  -2   4  -7   75.49   12.50
   2  -4   7   96.69   17.50
   2  -4   7   70.09   16.80
   2  -4   7   53.19   12.70
  -3   4  -7   10.10    8.30
  -3   4  -7   11.20    6.90
   3  -4   7    9.50    7.60
   3  -4   7   11.80    9.30
  -4   4  -7   23.50   10.10
  -4   4  -7   29.70    9.50
   4  -4   7   23.10   10.60
   6   3  -7    8.00   10.00
  -6  -3   7    7.60   11.20
  -6  -3   7   11.00   10.90
   5   3  -7    9.90    9.20
   5   3  -7    9.30    7.00
   5   3  -7   -1.70    6.10
  -5  -3   7    3.70    6.40
  -5  -3   7   -2.00    7.00
  -5  -3   7   23.40   15.60
  -5  -3   7   -2.80    5.20
   4   3  -7    9.60    7.20
   4   3  -7    0.00    3.80
   4   3  -7    7.30    8.40
  -4  -3   7    2.90    7.80
  -4  -3   7    4.20    6.90
   3   3  -7   -0.20    4.30
   3   3  -7    2.40    3.50
   3   3  -7   -5.10    5.30
   3   3  -7    7.50    7.20
  -3  -3   7    2.10    7.00
  -3  -3   7   -0.40    4.90
  -3  -3   7    4.40    6.20
  -3  -3   7    4.60    9.80
   2   3  -7    4.10    4.60
   2   3  -7    3.90    3.40
   2   3  -7    2.20    5.90
   2   3  -7    5.10    6.00
  -2  -3   7    8.90    5.90
  -2  -3   7    5.90    6.70
  -2  -3   7    3.80    4.90
  -2  -3   7   -2.10    3.60
   1   3  -7   11.00    6.30
   1   3  -7   18.20    6.80
   1   3  -7   14.40    6.80
  -1  -3   7    9.20    6.50
  -1  -3   7    6.30    5.50
  -1  -3   7   23.60    8.50
  -1  -3   7   24.70    7.00
   0   3  -7    7.20    4.80
   0   3  -7    8.20    6.10
   0   3  -7    2.00    4.80
   0  -3   7    7.50    5.30
   0  -3   7    3.60    5.00
   0  -3   7   10.20    4.20
   0  -3   7    5.10    5.30
  -1   3  -7    1.80    3.70
  -1   3  -7    5.10    5.90
  -1   3  -7    9.90    6.50
   1  -3   7   -1.10    2.10
   1  -3   7    0.80    4.10
   1  -3   7   -0.10    3.80
   1  -3   7   -1.30    4.50
  -2   3  -7   78.49   12.80
  -2   3  -7   80.79   15.20
  -2   3  -7   60.09    6.90
   2  -3   7   60.69   12.90
   2  -3   7   84.39   14.60
  -3   3  -7   -1.30    5.80
  -3   3  -7    2.90    5.00
   3  -3   7    0.80    5.60
   3  -3   7   -0.40    5.70
  -4   3  -7   -1.60    4.40
  -4   3  -7   -5.60    4.90
   4  -3   7    1.30    7.20
   4  -3   7   11.30   10.10
  -5   3  -7    9.40    9.80
  -5   3  -7   -0.50    6.60
   5  -3   7   -5.50    5.00
   6   2  -7   29.00   14.40
  -6  -2   7    0.40    9.40
  -6  -2   7   21.60   12.50
   5   2  -7   15.50    8.80
   5   2  -7   29.50    9.50
   5   2  -7   20.50   10.50
  -5  -2   7   10.50    9.30
  -5  -2   7   11.10   12.20
  -5  -2   7   17.00    8.30
  -5  -2   7   14.20    8.80
   4   2  -7   30.30    8.70
   4   2  -7   58.29   12.50
   4   2  -7   52.59   14.40
  -4  -2   7   55.39   12.00
  -4  -2   7   35.80   13.40
  -4  -2   7   38.20   12.70
   3   2  -7  124.79   16.80
   3   2  -7   86.59   12.40
   3   2  -7  104.29   14.40
   3   2  -7  116.19   18.20
  -3  -2   7  156.08   19.20
  -3  -2   7  114.39   17.50
  -3  -2   7  126.29   19.60
  -3  -2   7  143.39   16.60
   2   2  -7   36.80    9.30
   2   2  -7   38.90   10.20
   2   2  -7   33.80    8.10
   2   2  -7   54.89   10.50
  -2  -2   7   42.50   10.00
  -2  -2   7   39.00    8.30
  -2  -2   7   27.20   10.50
  -2  -2   7   38.80   10.20
   1   2  -7    1.90    2.60
   1   2  -7    1.50    4.20
   1   2  -7    6.80    5.80
   1   2  -7    6.80    5.30
  -1  -2   7    7.70    6.00
  -1  -2   7    3.30    4.00
  -1  -2   7    8.20    5.50
   0   2  -7  177.68   13.20
   0   2  -7  169.38   18.50
   0  -2   7  147.59   17.90
   0  -2   7  190.28   16.10
   0  -2   7  177.08   15.30
   0  -2   7  165.78   11.50
  -1   2  -7    7.20    5.80
  -1   2  -7   14.80    8.50
  -1   2  -7   14.40    4.90
   1  -2   7    7.80    5.60
   1  -2   7    9.20    5.80
   1  -2   7    7.50    3.30
   1  -2   7   10.40    5.90
  -2   2  -7   92.99    8.00
  -2   2  -7   84.09   16.00
  -2   2  -7   97.59   14.40
   2  -2   7   71.19   14.00
   2  -2   7   72.19   13.50
  -3   2  -7   59.29   14.50
  -3   2  -7   49.90   11.10
   3  -2   7   42.50   12.70
  -4   2  -7  110.39   19.40
  -4   2  -7   91.69   15.20
   4  -2   7  124.19   21.10
  -5   2  -7    5.50    6.40
   5  -2   7    4.30    7.80
   6   1  -7   10.50    7.10
   6   1  -7   20.10   13.40
  -6  -1   7   27.80   12.40
  -6  -1   7   22.70   12.10
  -6  -1   7   28.30   13.60
   5   1  -7    3.50    5.60
   5   1  -7   -4.20    5.40
   5   1  -7    1.10    4.60
   5   1  -7   13.90    8.80
  -5  -1   7   -6.90    3.20
  -5  -1   7    5.70    9.90
  -5  -1   7    0.80    6.30
   4   1  -7    6.10    6.30
   4   1  -7    5.00    7.20
   4   1  -7    8.70    9.80
  -4  -1   7    0.80    4.50
  -4  -1   7   21.60    9.90
  -4  -1   7    3.50    7.50
   3   1  -7   -2.10    4.20
   3   1  -7    7.80    7.00
   3   1  -7   -2.70    3.60
   3   1  -7   -1.40    4.10
  -3  -1   7   -3.20    3.30
  -3  -1   7    3.60    5.60
  -3  -1   7   -4.10    3.20
  -3  -1   7    2.60    5.40
   2   1  -7    4.20    5.30
   2   1  -7    3.20    4.00
   2   1  -7    5.20    5.00
   2   1  -7    3.50    3.20
  -2  -1   7   -2.50    2.90
  -2  -1   7    6.20    5.20
  -2  -1   7    9.10    5.60
  -2  -1   7    2.30    4.30
   1   1  -7    0.20    3.90
   1   1  -7    0.30    3.80
  -1  -1   7    6.40    5.10
  -1  -1   7    2.80    3.90
  -1  -1   7    1.40    3.10
   0   1  -7   62.69    9.30
   0   1  -7   53.39   10.40
   0   1  -7   54.89   10.30
   0  -1   7   73.39   12.20
   0  -1   7   63.69    8.00
   0  -1   7  102.49   21.30
   0  -1   7   77.59   12.00
  -1   1  -7    7.70    6.70
  -1   1  -7    8.00    5.60
  -1   1  -7    3.30    3.80
   1  -1   7    8.80    4.60
   1  -1   7    9.70    6.00
   1  -1   7   14.90    6.20
   1  -1   7    8.60    3.20
  -2   1  -7   12.70    7.80
  -2   1  -7   11.30    6.40
   2  -1   7   12.80    6.60
   2  -1   7   27.50    8.70
  -3   1  -7   11.70    3.90
  -3   1  -7   19.80    9.10
  -3   1  -7    3.20    5.60
   3  -1   7   20.00    8.60
   3  -1   7   31.60   10.60
  -4   1  -7   11.00    7.90
  -4   1  -7    7.60    7.90
   4  -1   7    6.50    8.20
   4  -1   7   -1.70    4.60
  -5   1  -7    8.30    7.40
   5  -1   7   -4.90    6.60
  -6   1  -7   -5.10    6.30
   6   0  -7   32.90   13.30
   6   0  -7   41.00   16.00
  -6   0   7   53.49   15.30
  -6   0   7   80.29   15.10
   5   0  -7   31.50   10.80
   5   0  -7   34.20   12.60
   5   0  -7   44.30   11.90
   5   0  -7   11.20   10.50
  -5   0   7   40.90   12.60
  -5   0   7   11.70    9.10
  -5   0   7   39.80   15.50
   4   0  -7   53.19   15.30
   4   0  -7   45.70   12.30
   4   0  -7   51.89   11.30
   4   0  -7   60.29   12.60
  -4   0   7   47.50   10.40
  -4   0   7   60.39   13.80
  -4   0   7   45.90   10.40
  -4   0   7   78.69   16.30
   3   0  -7    3.60    5.20
   3   0  -7   20.50    8.90
   3   0  -7   10.50    5.80
   3   0  -7   17.10    6.40
  -3   0   7    0.30    5.30
  -3   0   7    2.70    5.20
  -3   0   7    4.70    5.30
  -3   0   7    6.90    5.80
   2   0  -7   32.20    7.80
   2   0  -7   19.60    5.50
   2   0  -7   24.00    7.80
   2   0  -7   27.20    7.40
  -2   0   7   44.30   11.00
  -2   0   7   22.60    6.00
   1   0  -7   27.40    7.40
   1   0  -7   16.30    4.60
   1   0  -7   20.20    6.90
   1   0  -7   14.50    5.40
  -1   0   7   19.80    6.50
  -1   0   7   21.60    6.70
  -1   0   7   20.50    6.30
  -1   0   7   17.40    5.10
   0   0  -7   67.69   11.20
   0   0  -7   51.29    9.90
   0   0  -7   47.90    7.80
   0   0   7   49.80    8.70
   0   0   7   48.90    9.20
   0   0   7   39.00    6.40
   0   0   7   40.30    8.10
  -1   0  -7   52.39    8.00
  -1   0  -7   51.59   10.40
  -1   0  -7   61.39   12.30
   1   0   7   39.90    8.90
   1   0   7   45.50    8.80
   1   0   7   57.89    7.20
   1   0   7   48.70   11.00
  -2   0  -7  558.54   33.00
  -2   0  -7  565.24   31.20
  -2   0  -7  563.14   22.90
   2   0   7  546.35   32.70
  -3   0  -7   39.10   10.80
  -3   0  -7   34.20    9.90
  -3   0  -7   53.49    7.50
   3   0   7   46.30   11.20
   3   0   7   45.30   12.50
  -4   0  -7   72.89    8.60
  -4   0  -7  102.19   20.30
  -4   0  -7   86.09   15.70
   4   0   7  107.09   20.40
   4   0   7   96.39   19.10
  -5   0  -7    5.30    3.30
  -5   0  -7   11.20   10.80
  -5   0  -7    6.10    7.50
   5   0   7   12.70    9.50
   5   0   7    1.30    7.00
  -6   0  -7    2.30    7.70
   6   0   7   13.30   10.90
   6  -1  -7   -3.20    4.40
   6  -1  -7   -7.40    6.80
  -6   1   7   -4.40    5.10
   5  -1  -7   -2.90    5.40
   5  -1  -7    3.50    5.80
   5  -1  -7    1.50    5.40
   5  -1  -7    5.40    7.20
  -5   1   7   -1.90    4.50
  -5   1   7   -8.30    3.80
  -5   1   7    6.80    6.00
   4  -1  -7    3.30    4.60
   4  -1  -7   14.70    7.30
   4  -1  -7    1.50    4.90
   4  -1  -7   -1.70    4.50
  -4   1   7   -2.20    4.20
  -4   1   7   -5.20    4.10
  -4   1   7   -1.00    4.40
  -4   1   7   11.20    8.90
   3  -1  -7   20.10    8.80
   3  -1  -7   15.30    6.70
   3  -1  -7   24.60    6.90
   3  -1  -7   23.50    6.90
  -3   1   7   27.50    7.50
  -3   1   7   17.90    6.80
  -3   1   7   11.60    7.10
  -3   1   7   28.80    9.60
   2  -1  -7   -3.10    3.10
   2  -1  -7   -0.10    3.40
   2  -1  -7    1.00    2.50
  -2   1   7   -3.40    2.60
  -2   1   7   -2.90    2.40
  -2   1   7   -1.80    3.40
  -2   1   7   -2.60    2.80
   1  -1  -7  143.99   12.70
   1  -1  -7  180.48   15.00
   1  -1  -7  166.48   11.20
   1  -1  -7  175.98   14.10
  -1   1   7  172.68   14.10
  -1   1   7  169.98   13.90
  -1   1   7  171.88   12.20
  -1   1   7  158.18   12.70
   0  -1  -7   15.00    5.30
   0  -1  -7    4.30    4.40
   0  -1  -7    8.00    5.00
   0   1   7    5.20    4.20
   0   1   7    4.80    3.20
   0   1   7   -0.50    3.40
   0   1   7    1.30    2.50
  -1  -1  -7   37.30    6.30
  -1  -1  -7   42.50    9.40
  -1  -1  -7   57.09   10.70
   1   1   7   46.60    6.70
   1   1   7   31.20    7.50
   1   1   7   53.89   10.80
  -2  -1  -7   25.20    8.70
  -2  -1  -7   12.50    4.10
  -2  -1  -7   13.70    6.60
   2   1   7   16.80    6.80
   2   1   7   15.00    7.30
  -3  -1  -7   44.10    6.70
  -3  -1  -7   45.80   12.70
  -3  -1  -7   49.00   11.90
   3   1   7   19.10    9.40
   3   1   7   32.90   10.10
  -4  -1  -7   13.00    7.70
  -4  -1  -7   30.80   12.90
  -4  -1  -7   34.60    6.30
   4   1   7   25.30   10.40
  -5  -1  -7   10.30    4.40
  -5  -1  -7   21.50   10.60
  -5  -1  -7   39.00   15.90
   5   1   7    4.70    9.00
   5   1   7   -2.30    6.50
   5   1   7   16.70   10.90
  -6  -1  -7    6.00    8.40
  -6  -1  -7    3.70    4.20
  -6  -1  -7    1.90    3.50
   6   1   7   -2.40    7.00
   6  -2  -7   35.50   10.60
   6  -2  -7   36.10   16.40
   6  -2  -7   25.40   11.90
  -6   2   7   39.50   12.60
  -6   2   7   38.90    9.90
   5  -2  -7    7.60    7.20
   5  -2  -7   23.90   11.70
  -5   2   7   10.10    8.00
  -5   2   7   14.50    7.40
   4  -2  -7   75.89   13.90
   4  -2  -7   86.19   13.60
   4  -2  -7  124.89   18.10
   4  -2  -7   98.39   17.50
  -4   2   7  100.99   13.00
  -4   2   7  110.49   15.40
  -4   2   7   93.49   15.60
   3  -2  -7   73.29   12.70
   3  -2  -7   84.59   13.10
   3  -2  -7   94.19   14.10
   3  -2  -7   47.90   11.60
  -3   2   7   72.29   11.00
  -3   2   7   58.69   12.50
  -3   2   7   77.89   13.70
  -3   2   7   52.69    9.50
   2  -2  -7  239.78   17.00
   2  -2  -7  245.98   18.50
   2  -2  -7  263.87   17.30
   2  -2  -7  225.38   14.50
  -2   2   7  233.88   17.70
  -2   2   7  246.08   17.30
  -2   2   7  236.88   17.60
  -2   2   7  237.38   16.50
   1  -2  -7    4.00    3.50
   1  -2  -7    2.50    3.70
   1  -2  -7    2.60    2.10
   1  -2  -7   -3.90    2.70
  -1   2   7    3.80    3.50
  -1   2   7    2.30    3.50
  -1   2   7    4.60    3.80
  -1   2   7    3.30    4.00
   0  -2  -7   94.29   11.00
   0  -2  -7   94.59   12.90
   0  -2  -7   82.49   11.80
   0   2   7   82.99   11.50
   0   2   7   92.79    8.20
   0   2   7   76.89   10.70
   0   2   7   96.79    7.60
  -1  -2  -7   33.20    8.40
  -1  -2  -7   31.70    8.00
  -1  -2  -7   24.10    5.00
   1   2   7   14.10    6.40
   1   2   7   32.70    7.50
   1   2   7   29.60    5.40
  -2  -2  -7  462.75   27.20
  -2  -2  -7  444.76   20.20
   2   2   7  498.85   34.10
   2   2   7  442.36   26.40
  -3  -2  -7   67.29    8.80
  -3  -2  -7   48.50   12.10
  -3  -2  -7   41.70   10.80
   3   2   7   70.79   14.40
   3   2   7   37.60   10.50
  -4  -2  -7  132.09   20.30
  -4  -2  -7  174.98   25.20
  -4  -2  -7  129.29   10.20
   4   2   7  144.39   23.30
   4   2   7  108.09   18.90
  -5  -2  -7   54.09   13.90
  -5  -2  -7   24.40   15.90
  -5  -2  -7   65.49    9.20
   5   2   7   47.90   13.00
  -6  -2  -7    3.00    8.00
   6   2   7    9.10   10.10
   6  -3  -7   94.09   20.60
   6  -3  -7  105.59   16.40
   6  -3  -7  105.39   23.40
  -6   3   7   81.79   13.00
  -6   3   7  116.19   19.00
  -6   3   7   66.49   11.30
   5  -3  -7    5.30    6.00
   5  -3  -7    0.70    5.00
   5  -3  -7   -0.70    6.50
  -5   3   7   -2.10    3.70
  -5   3   7    2.00    5.80
   4  -3  -7   99.79   15.40
   4  -3  -7  110.39   17.80
   4  -3  -7   82.59   13.90
   4  -3  -7  105.09   17.40
  -4   3   7  121.89   14.90
  -4   3   7  120.29   17.10
  -4   3   7   94.69   13.00
   3  -3  -7   28.00    8.80
   3  -3  -7   29.80    8.00
   3  -3  -7   16.30    7.20
   3  -3  -7   14.10    5.80
  -3   3   7   13.10    5.50
  -3   3   7    9.80    5.50
  -3   3   7   11.80    6.00
   2  -3  -7  174.68   14.70
   2  -3  -7  146.69   11.00
   2  -3  -7  156.98   13.20
   2  -3  -7  134.49   15.60
  -2   3   7  150.08   12.30
  -2   3   7  152.58   13.10
  -2   3   7  157.98   12.60
  -2   3   7  152.18   13.20
   1  -3  -7   26.90    6.40
   1  -3  -7   15.30    3.10
   1  -3  -7   12.60    5.50
   1  -3  -7   11.50    4.70
  -1   3   7   21.10    6.10
  -1   3   7   17.10    4.30
  -1   3   7    7.50    4.00
   0  -3  -7   21.30    5.70
   0  -3  -7   19.50    6.00
   0  -3  -7   31.10    7.20
   0   3   7   33.80    4.60
   0   3   7   32.10    6.20
   0   3   7   26.00    6.90
   0   3   7   29.60    6.10
  -1  -3  -7   74.69   10.30
  -1  -3  -7   47.80    9.80
  -1  -3  -7   66.49   10.90
   1   3   7   43.80    8.10
   1   3   7   57.99    8.10
   1   3   7   44.10    9.40
  -2  -3  -7  146.69   10.70
  -2  -3  -7  157.98   18.80
  -2  -3  -7  165.98   20.00
   2   3   7  147.19   17.20
   2   3   7  207.98   22.40
  -3  -3  -7   60.09   13.10
  -3  -3  -7   63.49    8.60
  -3  -3  -7   58.89   12.70
   3   3   7   84.79   15.80
   3   3   7   36.30   11.10
   3   3   7   47.00   11.20
  -4  -3  -7  198.88   13.20
  -4  -3  -7  175.38   26.80
  -4  -3  -7  198.48   24.50
   4   3   7  179.78   24.60
   4   3   7  208.58   28.60
   4   3   7  209.98   26.00
  -5  -3  -7    0.30   10.40
  -5  -3  -7   -4.00    4.50
  -5  -3  -7    7.40    4.50
   5   3   7    3.50    7.40
   5   3   7    4.20   11.60
  -6  -3  -7    3.00    4.20
  -6  -3  -7    6.60    9.30
   6   3   7   -0.40    6.70
   6  -4  -7   32.50    8.90
   6  -4  -7   34.40   14.70
   6  -4  -7   14.10   11.90
  -6   4   7   15.80    7.50
  -6   4   7   26.90    8.70
   5  -4  -7    6.10    7.70
   5  -4  -7    4.00    5.60
   5  -4  -7   10.50    8.40
  -5   4   7    5.90    5.60
  -5   4   7   11.30    5.60
   4  -4  -7   13.20    9.00
   4  -4  -7    5.00    7.80
   4  -4  -7   14.40    7.10
   4  -4  -7    1.00    5.00
  -4   4   7   18.90    7.80
  -4   4   7   25.60    6.40
   3  -4  -7   22.60    7.40
   3  -4  -7    8.80    6.00
   3  -4  -7   14.30    6.50
   3  -4  -7   22.10    7.50
  -3   4   7   20.90    5.80
  -3   4   7    4.40    5.20
  -3   4   7   16.50    5.70
   2  -4  -7   68.89   11.20
   2  -4  -7   87.89   12.40
   2  -4  -7   75.49    9.60
   2  -4  -7   86.39   11.50
  -2   4   7   77.09    9.90
  -2   4   7   76.59   10.50
  -2   4   7   87.29   11.30
   1  -4  -7   94.79   11.90
   1  -4  -7   78.39   10.20
   1  -4  -7   65.79    9.20
  -1   4   7   94.69   11.10
  -1   4   7   82.79    9.10
   0  -4  -7   17.60    5.30
   0  -4  -7   16.90    5.60
   0  -4  -7   10.50    3.80
   0   4   7   18.90    5.10
   0   4   7   21.40    6.00
   0   4   7   13.40    4.40
  -1  -4  -7    6.30    4.60
  -1  -4  -7    1.80    2.70
  -1  -4  -7    1.60    3.80
   1   4   7    7.20    4.00
   1   4   7   -1.00    3.90
   1   4   7    4.30    3.10
  -2  -4  -7    8.00    6.00
  -2  -4  -7    2.00    4.20
  -2  -4  -7    4.10    3.00
   2   4   7    2.30    3.70
   2   4   7    1.30    3.90
   2   4   7   -0.30    4.50
  -3  -4  -7   80.29   14.40
  -3  -4  -7   66.79    8.50
  -3  -4  -7   62.69   13.40
   3   4   7   87.59   16.40
   3   4   7   66.69   12.80
   3   4   7   93.39   15.40
  -4  -4  -7  263.97   16.20
  -4  -4  -7  229.98   27.10
  -4  -4  -7  230.38   33.40
   4   4   7  267.57   29.80
   4   4   7  274.37   29.70
  -5  -4  -7   86.69   16.90
  -5  -4  -7   75.59   10.70
   5   4   7   49.50   13.00
   5   4   7   59.59   15.10
   5   4   7   31.60   17.20
  -6  -4  -7   97.19   19.70
   6   4   7   47.80   17.00
   6   4   7   94.69   22.10
   6  -5  -7   58.19   11.30
   6  -5  -7   17.30   11.90
   6  -5  -7   53.79   16.20
  -6   5   7   38.60    9.20
   5  -5  -7    2.40   10.00
   5  -5  -7    4.60    6.50
   5  -5  -7   11.60    9.70
   5  -5  -7   -1.10    5.50
  -5   5   7    6.70    3.40
  -5   5   7   10.50    4.10
   4  -5  -7   50.29   13.70
   4  -5  -7   61.69   12.60
   4  -5  -7   16.30    8.80
  -4   5   7   44.00    6.80
  -4   5   7   34.80    5.40
  -4   5   7   28.60    6.80
   3  -5  -7   -2.80    3.60
   3  -5  -7    1.30    4.40
   3  -5  -7    0.70    4.70
   3  -5  -7    5.60    5.20
  -3   5   7    2.70    2.60
  -3   5   7   -1.00    3.20
  -3   5   7   -3.70    2.20
   2  -5  -7    2.10    3.60
   2  -5  -7    8.30    4.10
   2  -5  -7   -0.80    2.90
   2  -5  -7    2.00    4.10
  -2   5   7    1.60    2.70
  -2   5   7    3.10    3.30
  -2   5   7    1.50    2.40
   1  -5  -7   14.50    5.40
   1  -5  -7   19.20    5.90
   1  -5  -7   12.20    4.70
  -1   5   7    2.60    3.20
  -1   5   7    7.90    3.40
  -1   5   7    7.40    3.40
   0  -5  -7  643.04   27.60
   0  -5  -7  611.14   27.20
   0  -5  -7  623.94   28.30
   0   5   7  594.04   24.40
   0   5   7  623.74   26.50
   0   5   7  626.14   26.80
  -1  -5  -7  134.99   15.50
  -1  -5  -7  132.99   10.60
  -1  -5  -7  185.48   14.40
   1   5   7  156.08   17.30
   1   5   7  164.48   13.30
  -2  -5  -7  175.88   19.80
  -2  -5  -7  170.38   19.20
  -2  -5  -7  198.48   13.00
   2   5   7  199.48   16.80
   2   5   7  178.88   14.50
   2   5   7  198.68   14.80
  -3  -5  -7   61.09   13.20
  -3  -5  -7   87.79   15.30
  -3  -5  -7   67.39    8.70
   3   5   7   45.50   11.50
   3   5   7   66.29   12.40
   3   5   7   60.59   11.80
  -4  -5  -7  176.38   24.40
  -4  -5  -7  219.28   26.60
  -4  -5  -7  169.28   13.50
   4   5   7  191.78   24.10
   4   5   7  176.88   23.80
   4   5   7  184.38   22.50
  -5  -5  -7   76.99   17.10
   5   5   7   74.19   15.80
   5   5   7   50.09   14.90
  -6  -5  -7    3.90    9.00
   6   5   7    7.30    9.60
   6   5   7    1.20    8.10
   5  -6  -7   25.70   11.80
   5  -6  -7    1.40    5.80
   5  -6  -7   -0.10    5.10
   4  -6  -7   55.59   14.30
   4  -6  -7   64.69   12.50
   4  -6  -7   59.19   13.70
   4  -6  -7   33.50   10.00
  -4   6   7   51.19    8.40
   3  -6  -7   23.50    8.20
   3  -6  -7   30.00    8.60
   3  -6  -7   26.10    8.90
  -3   6   7   28.50    6.60
   2  -6  -7   28.00    8.00
   2  -6  -7   28.70    7.20
   2  -6  -7   26.40    7.00
   2  -6  -7   31.80    7.40
  -2   6   7   27.60    6.70
   1  -6  -7  108.29    9.40
   1  -6  -7  110.19   13.80
   1  -6  -7  122.19   12.80
  -1   6   7  119.19   12.90
   0  -6  -7   10.00    3.90
   0  -6  -7   10.60    4.80
   0  -6  -7   11.20    4.80
   0   6   7    7.90    4.20
  -1  -6  -7    0.80    3.30
  -1  -6  -7    4.10    3.20
  -1  -6  -7    5.50    4.30
   1   6   7    0.80    2.10
   1   6   7   -0.20    3.00
  -2  -6  -7   38.20    6.70
  -2  -6  -7   59.59   11.60
  -2  -6  -7   44.00    9.70
   2   6   7   37.30    7.30
   2   6   7   41.90    8.40
   2   6   7   31.80    8.40
  -3  -6  -7   63.79   10.20
  -3  -6  -7   90.09   15.90
  -3  -6  -7   71.89   14.20
   3   6   7   74.09   12.50
   3   6   7  116.09   16.30
   3   6   7   88.89   15.00
  -4  -6  -7  236.48   28.40
  -4  -6  -7  265.67   28.80
   4   6   7  260.47   22.60
   4   6   7  184.38   23.30
   4   6   7  246.68   21.20
  -5  -6  -7   -0.90    7.30
  -5  -6  -7   13.00    9.10
   5   6   7   19.20   10.20
   5   6   7   10.80    9.70
  -6  -6  -7   33.20   14.30
   6   6   7   46.40   14.30
   6   6   7   21.80   12.40
   6   6   7   31.30   13.60
   5  -7  -7    2.50    7.70
   5  -7  -7    6.00    6.90
   5  -7  -7    6.40    9.80
   5  -7  -7    6.30   11.40
   4  -7  -7   78.69   14.10
   4  -7  -7  157.28   23.80
   4  -7  -7   97.89   14.40
   4  -7  -7  108.99   18.30
  -4   7   7  128.29   15.10
   3  -7  -7    0.80    4.70
   3  -7  -7    3.90    5.00
   3  -7  -7    2.70    5.00
  -3   7   7   -1.60    3.20
   2  -7  -7   78.89   11.40
   2  -7  -7   97.39   12.20
   2  -7  -7  102.29   14.90
   2  -7  -7  107.09   13.00
  -2   7   7   91.09   11.80
   1  -7  -7    7.30    4.00
   1  -7  -7    2.50    3.60
   1  -7  -7    4.00    3.10
  -1   7   7    0.80    2.80
   0  -7  -7   74.19    8.60
   0  -7  -7  103.89    8.80
   0  -7  -7   91.59   11.40
  -1  -7  -7  193.48   13.50
  -1  -7  -7  171.98   14.20
  -1  -7  -7  216.78   15.70
  -2  -7  -7  149.09   12.00
  -2  -7  -7  139.39   17.60
   2   7   7  148.39   12.20
   2   7   7  130.29   10.70
   2   7   7  125.69   10.00
  -3  -7  -7    0.50    6.30
  -3  -7  -7   -2.30    5.10
  -3  -7  -7   -0.20    2.80
   3   7   7    4.50    5.30
   3   7   7    5.00    4.30
   3   7   7    0.60    3.90
  -4  -7  -7  163.98   23.40
  -4  -7  -7  180.28   24.90
   4   7   7  118.59   17.50
   4   7   7  143.59   21.30
   4   7   7  135.79   18.30
  -5  -7  -7   82.89   18.90
  -5  -7  -7   70.19   15.80
   5   7   7   80.39   19.30
   5   7   7  118.79   23.70
   5   7   7   88.39   17.40
  -6  -7  -7  123.19   23.30
   6   7   7   98.79   18.60
   6   7   7  123.39   21.50
   6   7   7   84.89   21.10
   5  -8  -7   -1.20    5.70
   5  -8  -7    0.90    5.90
   5  -8  -7    2.20    7.00
   5  -8  -7    3.60    8.20
   4  -8  -7   11.00    9.10
   4  -8  -7    7.20    7.20
   4  -8  -7    6.10    6.10
   4  -8  -7   -1.20    4.80
  -4   8   7    4.30    4.30
   3  -8  -7    1.20    4.70
   3  -8  -7   -1.40    3.80
   3  -8  -7    3.40    5.90
  -3   8   7    0.60    3.60
   2  -8  -7   52.99    9.90
   2  -8  -7   33.80    7.00
   2  -8  -7   52.09    8.70
   2  -8  -7   57.99   11.10
   2  -8  -7   48.00    7.60
  -2   8   7   37.40    8.30
   1  -8  -7    0.60    3.30
   1  -8  -7    0.10    4.30
   1  -8  -7    1.60    2.50
   0  -8  -7   52.39    8.90
   0  -8  -7   53.09    7.50
   0  -8  -7   37.30    6.40
  -1  -8  -7   36.80    7.70
  -1  -8  -7   30.70    7.80
  -1  -8  -7   26.40    7.30
  -2  -8  -7   -0.10    2.90
  -2  -8  -7   -2.50    4.10
  -2  -8  -7    0.50    3.90
  -2  -8  -7   -1.40    4.00
   2   8   7   -0.60    1.80
   2   8   7    0.10    2.30
   2   8   7   -1.00    2.30
  -3  -8  -7  111.29   18.50
  -3  -8  -7  124.29   15.70
  -3  -8  -7  108.19   16.80
   3   8   7   98.29   13.10
   3   8   7   89.79   11.50
  -4  -8  -7   54.79   14.90
  -4  -8  -7   54.19   13.30
   4   8   7   41.00   11.20
   4   8   7   46.80    9.70
   4   8   7   27.20    8.90
  -5  -8  -7   26.60   11.10
  -5  -8  -7    9.50   10.10
   5   8   7   14.00    7.60
   5   8   7    9.90    7.70
   5   8   7    4.70    6.50
  -6  -8  -7    3.40    9.10
   6   8   7   11.70    9.20
   6   8   7   16.70   12.30
   6   8   7    0.10    7.10
   4  -9  -7   73.79   15.20
   4  -9  -7   78.09   18.40
   4  -9  -7   52.59   12.10
  -4   9   7   70.29   10.40
   3  -9  -7   10.20    5.30
   3  -9  -7    7.70    6.00
   3  -9  -7   10.40    7.30
   3  -9  -7   12.80    6.50
   2  -9  -7  146.09   11.30
   2  -9  -7  110.09   15.50
   2  -9  -7  153.58   11.40
   2  -9  -7  125.49   11.10
   2  -9  -7  151.58   17.20
   1  -9  -7   31.70    5.80
   1  -9  -7   23.10    4.80
   1  -9  -7   35.20    6.10
   1  -9  -7   15.30    5.60
   0  -9  -7  108.09   11.40
   0  -9  -7  130.29   15.50
   0  -9  -7  124.39    9.40
  -1  -9  -7   20.90    6.30
  -1  -9  -7   22.90    6.60
  -1  -9  -7   27.10    7.20
  -1  -9  -7   32.50    6.90
  -2  -9  -7   23.00    8.30
  -2  -9  -7   16.40    6.60
  -2  -9  -7   14.10    4.60
  -2  -9  -7   12.60    6.40
   2   9   7   22.40    5.20
  -3  -9  -7   31.30   10.30
  -3  -9  -7   32.20   10.90
  -3  -9  -7   43.00   10.50
   3   9   7   32.60    6.20
   3   9   7   35.00    6.00
   3   9   7   32.90    8.50
  -4  -9  -7   31.30   13.10
   4   9   7   47.90   11.60
   4   9   7   42.10    9.40
   4   9   7   44.50    8.80
  -5  -9  -7   31.10   13.60
  -5  -9  -7   67.89   17.30
   5   9   7   47.90   11.60
   5   9   7   49.40   14.00
   5   9   7   49.20   11.70
  -6  -9  -7   75.29   18.70
   6   9   7   63.99   14.40
   6   9   7   48.80   13.70
   6   9   7   57.79   16.20
   4 -10  -7    6.90    7.20
   4 -10  -7   -0.70    5.30
   4 -10  -7    0.00    5.00
   4 -10  -7   -5.80    5.50
   3 -10  -7   13.40    8.90
   3 -10  -7   10.40    7.00
   3 -10  -7   15.40    5.60
   3 -10  -7   12.10    6.50
   2 -10  -7    2.80    3.60
   2 -10  -7    2.90    4.60
   2 -10  -7    3.70    3.50
   2 -10  -7    3.70    4.10
   1 -10  -7    6.90    4.80
   1 -10  -7    7.30    3.00
   1 -10  -7    5.60    3.50
   0 -10  -7    5.90    3.60
   0 -10  -7    3.30    3.30
   0 -10  -7    0.20    2.60
   0 -10  -7   -2.80    1.90
  -1 -10  -7   73.99   10.90
  -1 -10  -7   77.79   11.40
  -1 -10  -7   56.89    9.10
  -2 -10  -7    8.30    6.30
  -2 -10  -7   -0.30    5.30
  -2 -10  -7   12.90    6.70
   2  10   7   18.20    5.20
  -3 -10  -7   13.60    7.10
  -3 -10  -7   16.10    7.00
  -3 -10  -7    2.50    6.80
  -3 -10  -7   10.70    8.80
   3  10   7    6.30    5.40
  -4 -10  -7   41.20   13.40
  -4 -10  -7   45.10   13.30
  -4 -10  -7   36.10   11.10
   4  10   7   37.20    9.70
   4  10   7   41.20    7.60
   4  10   7   39.50    7.80
  -5 -10  -7    7.30    8.90
  -5 -10  -7    9.10    9.20
   5  10   7   -0.90    4.70
   5  10   7   19.90   10.90
   5  10   7    5.20    5.70
  -6 -10  -7   -6.70    7.70
   6  10   7    4.10    6.60
   6  10   7    2.70    6.90
   3 -11  -7    9.10    8.40
   3 -11  -7    9.90    6.90
   3 -11  -7    7.60    5.50
   2 -11  -7   57.89    9.80
   2 -11  -7   45.50    8.20
   2 -11  -7   47.20   10.70
   2 -11  -7   49.20    7.70
   1 -11  -7    3.50    2.40
   1 -11  -7   -0.90    2.70
   1 -11  -7    0.40    3.90
   1 -11  -7   -1.70    2.50
   0 -11  -7   11.90    4.50
   0 -11  -7   12.50    4.20
   0 -11  -7   16.90    6.00
   0 -11  -7   11.60    5.90
  -1 -11  -7   25.30    7.30
  -1 -11  -7   32.90    8.90
  -1 -11  -7   27.60    6.60
  -1 -11  -7   19.20    6.50
  -2 -11  -7   84.59   13.20
  -2 -11  -7   99.69   15.00
  -2 -11  -7   90.19   14.00
  -2 -11  -7   93.79   14.70
   2  11   7  107.99   13.10
  -3 -11  -7   -1.20    5.80
  -3 -11  -7   -0.70    4.50
  -3 -11  -7   -1.00    4.30
  -3 -11  -7   11.80    8.40
  -4 -11  -7   31.20   13.50
  -4 -11  -7   18.90   10.30
  -4 -11  -7   17.40   10.10
   4  11   7   19.60    7.40
  -5 -11  -7   14.80   10.90
  -5 -11  -7   13.00   11.90
   5  11   7   29.80    8.10
   6  11   7   11.20    9.30
   2 -12  -7   42.10    9.10
   2 -12  -7   46.90   10.00
   2 -12  -7   55.39    7.30
   2 -12  -7   55.39    8.90
   1 -12  -7   30.10    8.50
   1 -12  -7   22.00    4.20
   1 -12  -7   25.50    8.20
   1 -12  -7   24.30    4.80
   0 -12  -7   16.70    5.30
   0 -12  -7    7.70    4.00
   0 -12  -7   12.80    6.10
   0 -12  -7    4.90    4.60
  -1 -12  -7   17.20    6.90
  -1 -12  -7   23.70    8.00
  -1 -12  -7   29.40    7.80
  -1 -12  -7   31.60    9.10
  -2 -12  -7    8.30    6.30
  -2 -12  -7   13.70    8.40
  -2 -12  -7   15.70    6.90
  -2 -12  -7   19.20    8.20
  -3 -12  -7   37.10   10.60
  -3 -12  -7   27.80   10.80
  -3 -12  -7   22.60    7.60
  -3 -12  -7   11.30    8.40
   3  12   7   17.80    7.50
  -4 -12  -7   -8.50    5.80
  -4 -12  -7    2.70    7.70
   4  12   7    2.00    5.20
  -5 -12  -7   10.00    9.20
  -5 -12  -7    9.80   10.40
   5  12   7   17.80    4.40
   5  12   7    1.10    7.50
   1 -13  -7    8.90    6.00
   1 -13  -7    8.90    6.20
   0 -13  -7  114.39    8.90
   0 -13  -7  114.09   11.50
   0 -13  -7  115.19   16.30
   0 -13  -7   98.99   13.30
  -1 -13  -7    4.10    5.40
  -1 -13  -7    5.20    5.30
  -1 -13  -7    0.40    3.90
  -1 -13  -7   -2.30    3.60
  -2 -13  -7    6.30    6.60
  -2 -13  -7   -1.50    4.80
  -2 -13  -7    3.70    5.30
  -3 -13  -7   17.40    7.00
  -3 -13  -7   26.50   10.60
  -3 -13  -7   15.60    9.60
  -3 -13  -7   33.80   11.40
   3  13   7   22.30    8.90
  -4 -13  -7    8.30    7.80
  -4 -13  -7   24.60   11.40
   4  13   7    8.80    7.00
   0 -14  -7   -2.00    3.50
   0 -14  -7    5.00    5.30
  -1 -14  -7   10.30    6.10
  -1 -14  -7   22.00    7.70
  -1 -14  -7   21.80    9.20
  -1 -14  -7   24.30    8.60
  -2 -14  -7   45.50   12.30
  -2 -14  -7   35.70   10.60
  -2 -14  -7   33.00   11.10
  -3 -14  -7   36.60   11.80
  -3 -14  -7   63.19   16.00
  -3 -14  -7   46.20    9.20
   3   8  -8   35.90   13.40
  -3  -8   8   32.80   25.70
  -3  -8   8   24.90   12.20
   2   8  -8   13.70    9.30
   2   8  -8   -1.90    5.20
  -2  -8   8    1.30    6.80
  -2  -8   8   -7.00    9.30
  -2  -8   8    6.00    7.60
   1   8  -8    2.60    6.20
   1   8  -8   14.00    8.30
  -1  -8   8   13.40    8.60
  -1  -8   8    5.10    6.40
  -1  -8   8   11.10    9.60
   0   8  -8    6.10    6.30
   0   8  -8    2.40    5.40
   0  -8   8    2.00    4.70
   0  -8   8   20.00    9.70
   0  -8   8   13.80   15.90
   1  -8   8   29.80   12.50
   1  -8   8   47.20   16.70
   4   7  -8    0.00    6.30
   4   7  -8    4.00    7.90
  -4  -7   8   -2.30    8.60
   3   7  -8    8.20    9.90
  -3  -7   8   15.00    9.10
  -3  -7   8    8.40    7.30
  -3  -7   8    5.80    8.90
   2   7  -8    0.40    6.80
   2   7  -8    5.20    5.90
  -2  -7   8   -3.50    5.00
  -2  -7   8    8.50    8.80
  -2  -7   8    1.10    7.30
  -2  -7   8    4.40    7.00
   1   7  -8   16.60    8.50
   1   7  -8    7.50    7.80
  -1  -7   8    0.10    5.70
  -1  -7   8    4.30    7.10
  -1  -7   8    8.70    6.60
  -1  -7   8    2.90    6.00
   0   7  -8   -1.60    4.80
   0   7  -8    4.60    6.90
   0  -7   8    6.80    7.30
   0  -7   8    0.60    4.80
   0  -7   8    1.80    4.60
   0  -7   8    0.30    5.60
  -1   7  -8   15.00    7.50
  -1   7  -8   16.70    7.40
   1  -7   8   11.60    7.90
   1  -7   8   12.30    9.10
   1  -7   8   17.00   11.10
  -2   7  -8   -1.10    4.30
   2  -7   8    1.40    6.50
   2  -7   8    4.70    7.40
   5   6  -8   17.60   12.00
  -5  -6   8   21.70   22.00
  -5  -6   8   46.40   15.90
   4   6  -8    3.80    9.10
   4   6  -8    7.00    6.80
  -4  -6   8   -0.50    7.20
   3   6  -8   12.00   10.00
   3   6  -8   14.70    8.80
  -3  -6   8   20.80   10.30
  -3  -6   8    7.90    9.10
  -3  -6   8   26.50    8.30
  -3  -6   8    1.70    5.30
   2   6  -8    4.80    7.50
   2   6  -8    3.30    4.80
  -2  -6   8    3.90    7.00
  -2  -6   8    8.40    7.50
  -2  -6   8   -5.10    4.80
  -2  -6   8    0.50    4.90
   1   6  -8   99.09   16.10
   1   6  -8   90.29   15.50
  -1  -6   8  101.09   27.40
  -1  -6   8   79.49   14.40
  -1  -6   8   85.79   18.60
  -1  -6   8   79.79   11.60
   0   6  -8    2.30    6.40
   0   6  -8    1.50    6.20
   0  -6   8    4.20    5.60
   0  -6   8    1.80    6.20
   0  -6   8    0.00    5.10
  -1   6  -8   -1.80    5.00
  -1   6  -8    2.40    5.30
   1  -6   8   19.40    9.60
   1  -6   8    5.60    3.40
   1  -6   8    1.60    5.70
   1  -6   8    0.40    5.70
  -2   6  -8    2.90    5.00
  -2   6  -8   -4.50    5.30
   2  -6   8    6.10    6.70
   2  -6   8    0.20    4.80
   2  -6   8   -3.50    4.90
  -3   6  -8   84.49   12.80
  -3   6  -8   54.49   13.00
   3  -6   8   72.49   17.70
   3  -6   8   77.19   16.80
   5   5  -8    5.00   10.80
  -5  -5   8   -7.10    6.10
  -5  -5   8   -7.60    5.30
   4   5  -8    7.80    7.40
   4   5  -8   -4.40    6.30
  -4  -5   8    9.40    9.30
  -4  -5   8    5.20    9.30
  -4  -5   8    5.30    6.40
   3   5  -8   -4.10    5.50
   3   5  -8   -3.70    6.20
  -3  -5   8    3.80    6.10
  -3  -5   8    5.40    6.60
  -3  -5   8   10.30    9.20
   2   5  -8    6.30    6.90
   2   5  -8    8.20    7.90
   2   5  -8    3.80    5.80
  -2  -5   8   -2.40    4.80
  -2  -5   8    8.80    7.60
  -2  -5   8   12.30    7.00
  -2  -5   8    3.10    5.20
   1   5  -8   16.70    8.30
   1   5  -8   17.80    9.30
  -1  -5   8   13.70    6.30
  -1  -5   8    9.50    7.70
  -1  -5   8   34.70    9.20
  -1  -5   8    3.50    5.50
   0   5  -8    1.20    5.20
   0   5  -8    0.30    5.10
   0  -5   8   -1.00    3.40
   0  -5   8    0.20    4.50
   0  -5   8    3.20    6.40
   0  -5   8    9.00    8.10
  -1   5  -8  143.89   18.70
  -1   5  -8  151.98   20.50
   1  -5   8  111.89   19.90
   1  -5   8  110.39    8.20
   1  -5   8  116.49   17.40
   1  -5   8   80.79   15.80
  -2   5  -8   12.70    8.00
   2  -5   8    8.60    8.00
   2  -5   8    4.40    7.90
   2  -5   8   10.60    7.70
  -3   5  -8    7.50    6.50
  -3   5  -8   -0.40    5.30
   3  -5   8   -2.80    4.90
   3  -5   8   10.50    9.00
   5   4  -8   24.70   13.00
  -5  -4   8   34.70   13.00
  -5  -4   8   47.30   15.70
   4   4  -8   49.50   14.40
   4   4  -8   38.90   11.00
  -4  -4   8   20.70    9.00
  -4  -4   8   25.80   12.00
  -4  -4   8   20.90   12.20
  -4  -4   8   23.50    9.50
   3   4  -8    3.60    5.80
   3   4  -8    7.00    7.80
   3   4  -8    2.90    4.70
  -3  -4   8   14.30    7.90
  -3  -4   8    5.70    7.00
  -3  -4   8   12.20    9.50
   2   4  -8    2.60    6.90
   2   4  -8   12.50    7.10
   2   4  -8   -0.60    3.60
   2   4  -8   -2.70    5.00
  -2  -4   8    2.30    5.40
  -2  -4   8   -4.30    3.70
  -2  -4   8    0.10    4.80
  -2  -4   8   -1.10    4.50
   1   4  -8   40.90   10.40
   1   4  -8   48.60   10.40
   1   4  -8   50.49   12.40
  -1  -4   8   29.40    8.50
  -1  -4   8   29.50   12.00
  -1  -4   8   47.70    8.90
  -1  -4   8   47.90   10.50
   0   4  -8    0.20    4.80
   0   4  -8    2.40    5.20
   0   4  -8   13.70    6.60
   0  -4   8    5.90    4.60
   0  -4   8    5.50    5.80
   0  -4   8    5.40    4.10
   0  -4   8    5.70    6.80
  -1   4  -8    9.90    4.70
  -1   4  -8   -2.00    5.40
  -1   4  -8   -2.50    4.50
   1  -4   8   11.90    3.80
   1  -4   8    0.00    4.50
   1  -4   8    5.90    6.50
   1  -4   8   11.00    7.50
  -2   4  -8   -1.80    4.00
  -2   4  -8    0.00    5.60
   2  -4   8   -2.00    4.30
   2  -4   8   -2.30    5.10
   2  -4   8   10.70    7.70
  -3   4  -8   22.40   10.90
  -3   4  -8   36.40    9.50
   3  -4   8   18.90   10.00
   3  -4   8   23.30   11.00
   3  -4   8   38.90   11.80
  -4   4  -8    3.20    5.20
  -4   4  -8    7.70    8.90
   4  -4   8    6.50    8.60
   6   3  -8   -0.70    8.60
  -6  -3   8    9.00   11.70
   5   3  -8   33.00   11.20
  -5  -3   8   12.00   11.20
  -5  -3   8   -4.20    6.70
   4   3  -8   -2.70    5.00
   4   3  -8   -1.00    3.80
   4   3  -8    0.40    4.20
   4   3  -8   15.00   10.00
  -4  -3   8   -1.60    5.30
  -4  -3   8    0.70    6.00
  -4  -3   8   -3.70    5.10
  -4  -3   8   35.50   13.20
   3   3  -8    0.00    4.60
   3   3  -8    2.90    6.80
   3   3  -8    4.10    4.90
   3   3  -8   -0.30    5.10
  -3  -3   8    5.10    6.20
  -3  -3   8    2.00    7.30
  -3  -3   8    6.70    6.30
   2   3  -8    4.90    5.90
   2   3  -8    3.70    4.40
   2   3  -8   -3.40    3.10
   2   3  -8    0.10    5.50
  -2  -3   8   -2.90    3.70
  -2  -3   8    0.30    4.60
  -2  -3   8    0.20    4.70
  -2  -3   8    2.00    5.70
   1   3  -8   38.90    9.10
   1   3  -8    8.70    7.30
   1   3  -8   23.50    8.10
  -1  -3   8   27.60    7.10
  -1  -3   8   11.50    6.80
  -1  -3   8   12.50    7.30
  -1  -3   8   23.40    8.80
   0   3  -8   55.69    9.70
   0   3  -8   45.50   10.30
   0   3  -8   50.49   11.50
   0  -3   8   57.99    9.10
   0  -3   8   66.79   12.70
   0  -3   8   43.90   10.20
   0  -3   8   53.99   11.80
  -1   3  -8    5.00    4.60
  -1   3  -8    1.40    5.50
  -1   3  -8   13.40    8.10
   1  -3   8    5.50    5.10
   1  -3   8   13.90    8.10
   1  -3   8   13.60    4.30
   1  -3   8   15.50    8.00
  -2   3  -8    4.90    3.80
  -2   3  -8    7.50    6.60
  -2   3  -8    6.40    7.70
   2  -3   8    4.60    6.10
   2  -3   8    5.80    6.60
   2  -3   8    8.60    7.50
  -3   3  -8   -0.20    6.00
  -3   3  -8   -2.20    4.50
   3  -3   8    4.50    6.60
   3  -3   8    3.60    7.60
  -4   3  -8   -2.40    6.70
   4  -3   8   -1.20    5.90
   6   2  -8   11.50   12.00
  -6  -2   8   39.90   15.90
  -6  -2   8    5.30   10.20
   5   2  -8   40.10   16.10
   5   2  -8   32.80   14.30
  -5  -2   8   67.89   16.00
  -5  -2   8   22.60    9.90
   4   2  -8   60.29   15.00
   4   2  -8   40.20   11.70
  -4  -2   8   56.09   12.70
  -4  -2   8   59.09   16.00
   3   2  -8  467.95   28.60
   3   2  -8  391.76   26.70
   3   2  -8  417.46   27.70
   3   2  -8  429.46   35.90
  -3  -2   8  454.45   26.50
  -3  -2   8  492.85   31.10
  -3  -2   8  460.95   34.20
  -3  -2   8  438.16   34.70
   2   2  -8   13.70    7.10
   2   2  -8    8.30    4.70
   2   2  -8    9.10    5.70
   2   2  -8   33.50   10.40
  -2  -2   8   22.40    7.50
  -2  -2   8    1.60    5.30
  -2  -2   8   13.70    7.10
  -2  -2   8   11.90    6.50
   1   2  -8  110.49   14.50
   1   2  -8  131.79   17.60
   1   2  -8  112.09   16.60
  -1  -2   8   93.49   11.80
  -1  -2   8   93.49   14.70
  -1  -2   8  110.09   16.00
  -1  -2   8  164.08   22.10
   0   2  -8    0.80    4.70
   0   2  -8   -1.30    4.10
   0   2  -8   -2.30    3.70
   0  -2   8   -1.90    2.60
   0  -2   8   -6.90    2.90
   0  -2   8    0.30    3.70
   0  -2   8   -1.90    3.40
  -1   2  -8   25.90    9.00
  -1   2  -8   35.20    7.60
  -1   2  -8   30.50    9.30
   1  -2   8   35.50    6.00
   1  -2   8   29.00    8.80
   1  -2   8   15.60    8.00
   1  -2   8   31.40    9.80
  -2   2  -8   51.69    8.00
  -2   2  -8   42.10   10.60
  -2   2  -8   53.19   12.80
   2  -2   8   46.10   12.60
   2  -2   8   40.30   12.30
   2  -2   8   27.40    9.20
  -3   2  -8   15.00    8.00
  -3   2  -8   27.10   10.90
   3  -2   8    1.10    5.70
   3  -2   8   14.20    9.50
  -4   2  -8    3.20    7.80
  -4   2  -8    5.20    6.40
   4  -2   8    3.70    6.70
   4  -2   8   15.90   10.50
  -5   2  -8   63.89   13.60
  -5   2  -8   69.09   17.40
   6   1  -8   16.60   16.00
  -6  -1   8   17.80   12.10
   5   1  -8   56.79   12.40
   5   1  -8   40.20   10.80
   5   1  -8   40.70   15.10
   5   1  -8   53.79   14.10
  -5  -1   8   68.19   14.00
  -5  -1   8   96.29   15.90
  -5  -1   8   52.49   15.10
  -5  -1   8   76.09   18.30
   4   1  -8   -1.80    6.40
   4   1  -8   11.80    6.90
   4   1  -8   12.20    8.40
  -4  -1   8    4.80    7.50
  -4  -1   8    6.70    7.40
   3   1  -8  229.48   18.60
   3   1  -8  173.98   21.10
   3   1  -8  222.48   26.40
  -3  -1   8  199.78   17.30
  -3  -1   8  279.77   21.70
  -3  -1   8  219.98   26.30
  -3  -1   8  247.38   23.20
   2   1  -8   46.50    8.90
   2   1  -8   63.69   14.10
   2   1  -8   53.79   10.80
   2   1  -8   63.99   12.40
  -2  -1   8   58.69   12.20
  -2  -1   8   37.60   10.40
  -2  -1   8   70.49   13.40
  -2  -1   8   41.20    8.80
   1   1  -8  167.18   19.70
   1   1  -8  126.59   17.00
   1   1  -8  118.89   14.00
  -1  -1   8  110.99   15.50
  -1  -1   8  130.99   11.60
  -1  -1   8  140.69   18.00
  -1  -1   8   94.89   14.00
   0   1  -8   63.99   12.40
   0   1  -8   85.09   11.50
   0   1  -8  118.99   16.90
   0  -1   8   76.99    9.70
   0  -1   8   86.49   13.30
   0  -1   8   92.19   13.60
   0  -1   8   71.99   12.50
  -1   1  -8    0.80    5.10
  -1   1  -8    7.40    4.90
  -1   1  -8   -4.80    3.50
   1  -1   8    1.50    2.80
   1  -1   8    3.50    4.40
   1  -1   8    3.50    5.30
   1  -1   8   -1.10    3.00
  -2   1  -8  194.78   21.70
  -2   1  -8  198.18   12.70
  -2   1  -8  179.38   23.70
   2  -1   8  168.08   21.40
   2  -1   8  194.98   25.30
  -3   1  -8  249.08   20.80
  -3   1  -8  203.68   26.60
   3  -1   8  206.48   25.80
   3  -1   8  235.58   28.10
  -4   1  -8    8.30    7.30
   4  -1   8    9.00    8.30
   4  -1   8    4.70    9.10
  -5   1  -8   16.00   11.70
  -5   1  -8   10.40    8.40
   5  -1   8   11.40   10.90
   6   0  -8   26.00   11.00
   5   0  -8    8.80    7.50
   5   0  -8   17.20   10.90
   5   0  -8    1.20    4.80
   5   0  -8   14.30    9.30
  -5   0   8    9.50    7.00
  -5   0   8   22.90   11.60
  -5   0   8   11.50    7.80
  -5   0   8   -1.30    6.60
   4   0  -8   18.60    9.90
   4   0  -8    9.10    7.80
   4   0  -8    5.50    5.20
   4   0  -8    7.50    6.00
  -4   0   8   -3.80    4.70
  -4   0   8    7.80    7.20
  -4   0   8   15.50    9.80
   3   0  -8  144.89   20.50
   3   0  -8  176.18   19.30
   3   0  -8  207.58   16.90
   3   0  -8  136.59   17.30
  -3   0   8  245.68   27.30
  -3   0   8  174.68   20.40
  -3   0   8  186.78   19.70
  -3   0   8  162.88   20.90
   2   0  -8   28.80    8.20
   2   0  -8   23.40    6.00
   2   0  -8   52.89   11.20
   2   0  -8   31.50    9.60
  -2   0   8   32.70    8.90
  -2   0   8   28.30    7.50
  -2   0   8   25.30    8.70
   1   0  -8   22.40    6.90
   1   0  -8   14.90    6.10
   1   0  -8   20.40    7.20
  -1   0   8   22.60    7.60
  -1   0   8   13.70    6.50
  -1   0   8   24.20    8.00
  -1   0   8   11.10    5.20
   0   0  -8    0.40    3.60
   0   0  -8   -0.70    2.90
   0   0  -8    1.10    4.10
   0   0   8    3.00    3.70
   0   0   8   -1.60    2.10
   0   0   8    0.20    3.70
   0   0   8    1.40    4.00
  -1   0  -8   39.50   10.30
  -1   0  -8   42.30    8.00
   1   0   8   59.09   11.30
   1   0   8   36.80    8.70
   1   0   8   44.40    7.10
   1   0   8   45.90   10.70
  -2   0  -8    0.70    3.40
  -2   0  -8    0.90    6.30
  -2   0  -8   14.30    7.60
   2   0   8    9.10    6.70
   2   0   8    2.40    5.60
  -3   0  -8   12.60    4.50
  -3   0  -8   11.50    7.30
  -3   0  -8   14.90   10.40
   3   0   8   18.70   13.80
   3   0   8   16.60    9.50
  -4   0  -8   32.00    6.00
  -4   0  -8    9.60    8.10
   4   0   8   20.10   11.20
   4   0   8   31.90   11.90
  -5   0  -8   -2.80    7.50
  -5   0  -8    3.70    7.30
  -5   0  -8    3.80    3.40
   5   0   8    1.00    7.50
   6  -1  -8   -1.70    6.20
   6  -1  -8   12.60   10.00
   6  -1  -8    2.50    7.50
  -6   1   8    8.80    8.10
  -6   1   8   -2.80    5.80
   5  -1  -8   14.90    8.30
   5  -1  -8   14.20    8.00
   5  -1  -8   16.40    8.60
   5  -1  -8   13.30   10.10
  -5   1   8    6.60    8.10
  -5   1   8   10.30    7.00
   4  -1  -8   21.80   10.40
   4  -1  -8   19.00    8.70
   4  -1  -8   29.90    8.90
   4  -1  -8   34.40   10.60
  -4   1   8   17.90    8.90
  -4   1   8   29.40    8.70
  -4   1   8   42.00   13.00
   3  -1  -8   48.10   10.50
   3  -1  -8   59.79   10.90
   3  -1  -8   72.19   12.10
   3  -1  -8   68.09   13.70
  -3   1   8   47.80   12.20
  -3   1   8   66.99   12.50
  -3   1   8   58.39   10.00
  -3   1   8   48.90   10.20
   2  -1  -8  123.79   16.60
   2  -1  -8  137.69   18.00
   2  -1  -8  140.49   16.30
   2  -1  -8  130.69   11.40
  -2   1   8  142.39   16.70
  -2   1   8  193.18   22.10
  -2   1   8  144.79   12.80
  -2   1   8  173.18   20.20
   1  -1  -8  187.58   15.80
   1  -1  -8  214.08   17.90
   1  -1  -8  240.78   16.90
  -1   1   8  270.87   36.60
  -1   1   8  209.98   15.20
  -1   1   8  228.38   17.50
   0  -1  -8   -1.60    3.60
   0  -1  -8    5.20    4.70
   0  -1  -8    0.90    3.40
   0   1   8   -1.10    2.50
   0   1   8    5.90    4.40
   0   1   8    2.50    2.90
  -1  -1  -8   41.60    7.90
  -1  -1  -8   37.20   10.10
  -1  -1  -8   31.10    8.60
   1   1   8   53.69    9.20
   1   1   8   44.20    6.80
   1   1   8   46.40   10.70
   1   1   8   38.50    9.30
  -2  -1  -8   69.99   14.70
  -2  -1  -8   57.79   11.90
  -2  -1  -8   61.59    8.50
   2   1   8   78.69   14.20
   2   1   8   68.99   13.70
  -3  -1  -8   78.09   15.70
  -3  -1  -8   64.89    8.80
  -3  -1  -8   60.99   12.90
   3   1   8   61.89   15.40
   3   1   8   82.29   15.00
  -4  -1  -8  201.38   12.80
  -4  -1  -8  221.48   25.90
   4   1   8  168.08   23.70
  -5  -1  -8   -0.80    2.80
  -5  -1  -8    8.50    9.70
  -5  -1  -8    9.50    9.00
   5   1   8    4.30    7.60
   5   1   8   -0.30    7.20
  -6  -1  -8   47.20   14.00
  -6  -1  -8   39.80    7.20
  -6  -1  -8   61.09    8.20
   6   1   8   38.20   17.30
   6  -2  -8    4.10    6.30
   6  -2  -8   18.70   14.90
   6  -2  -8   -5.20    4.30
  -6   2   8   -1.10    7.40
   5  -2  -8    8.50    8.30
   5  -2  -8   14.70    9.10
   5  -2  -8    9.70    9.20
   5  -2  -8    6.30    7.10
  -5   2   8    3.90    5.50
  -5   2   8    4.90    7.80
  -5   2   8    3.80    5.60
   4  -2  -8    4.50    7.00
   4  -2  -8   -0.60    4.20
   4  -2  -8   -2.50    5.30
   4  -2  -8    9.40    6.50
  -4   2   8   -1.70    4.30
  -4   2   8    8.90    5.60
  -4   2   8    2.90    6.40
   3  -2  -8    3.60    4.60
   3  -2  -8    6.00    5.40
   3  -2  -8    1.20    5.10
   3  -2  -8    3.80    5.60
  -3   2   8   -2.50    4.10
  -3   2   8    5.50    6.60
  -3   2   8    8.00    5.40
  -3   2   8    4.70    4.80
   2  -2  -8   50.39    8.30
   2  -2  -8   49.80   10.40
   2  -2  -8   28.90    7.50
   2  -2  -8   46.50   10.90
  -2   2   8   58.69   13.20
  -2   2   8   44.60    9.10
  -2   2   8   45.80   10.00
  -2   2   8   41.30    8.70
   1  -2  -8   37.00    7.60
   1  -2  -8   37.30    8.80
  -1   2   8   46.60    9.20
  -1   2   8   34.10    6.60
  -1   2   8   46.10    9.50
  -1   2   8   38.10    7.50
   0  -2  -8   41.50    8.20
   0  -2  -8   23.40    7.10
   0  -2  -8   28.30    7.80
   0   2   8   36.00    7.30
   0   2   8   23.80    5.50
   0   2   8   13.20    6.10
   0   2   8   30.90    7.50
  -1  -2  -8   93.69   12.10
  -1  -2  -8  109.59   15.70
  -1  -2  -8   81.19   13.30
   1   2   8   91.39   10.80
   1   2   8  111.49   18.30
   1   2   8   88.59   13.30
  -2  -2  -8   24.20    5.80
  -2  -2  -8   30.50    9.80
  -2  -2  -8   10.70    7.30
   2   2   8   10.60    6.50
   2   2   8   26.80    8.80
  -3  -2  -8   25.20    9.40
  -3  -2  -8   41.30   12.60
  -3  -2  -8   30.20    6.00
   3   2   8   24.70   11.20
   3   2   8   12.70    7.60
  -4  -2  -8   -2.40    2.80
  -4  -2  -8    2.10    7.00
  -4  -2  -8   -1.60    6.50
   4   2   8   -2.00    5.20
  -5  -2  -8   -4.00    5.20
  -5  -2  -8    5.40    7.30
  -5  -2  -8   -3.90    2.50
   5   2   8   -2.40    6.20
   5   2   8    3.70    8.10
   5   2   8   -4.80    5.30
  -6  -2  -8    7.90    8.70
  -6  -2  -8    3.50    3.80
   6   2   8  -13.90    7.90
   6  -3  -8   11.90    9.40
   6  -3  -8    8.50    7.20
   6  -3  -8   -1.00    7.60
  -6   3   8   10.10    8.30
  -6   3   8    5.80    6.30
   5  -3  -8   42.30   16.00
   5  -3  -8   13.60    7.90
   5  -3  -8   54.79   13.00
   5  -3  -8   24.80   10.80
  -5   3   8   25.20    8.60
  -5   3   8   23.80    9.10
  -5   3   8   18.60    9.40
   4  -3  -8   24.90   12.30
   4  -3  -8   22.80    8.10
   4  -3  -8   18.10    8.00
   4  -3  -8   33.80    9.70
  -4   3   8   17.50    7.30
  -4   3   8   24.60    8.60
   3  -3  -8  130.59   18.80
   3  -3  -8  100.39   13.40
   3  -3  -8   81.79   12.60
   3  -3  -8  121.59   15.50
  -3   3   8  104.79   13.40
  -3   3   8  124.29   16.50
  -3   3   8  101.79   13.30
   2  -3  -8   40.40    9.30
   2  -3  -8   33.70    6.20
   2  -3  -8   21.60    6.60
  -2   3   8   30.80    7.90
  -2   3   8   39.80    8.70
  -2   3   8   31.90    7.20
  -2   3   8   25.80    7.10
   1  -3  -8  101.29   13.40
   1  -3  -8   67.99   11.30
   1  -3  -8  102.79   14.00
  -1   3   8   95.29   11.40
  -1   3   8   98.39    8.80
  -1   3   8   98.89   13.00
  -1   3   8  112.99   13.60
   0  -3  -8    6.80    4.90
   0  -3  -8    3.80    4.10
   0  -3  -8    3.70    4.40
   0   3   8    7.50    3.30
   0   3   8    5.80    3.60
   0   3   8    7.10    4.20
   0   3   8    0.60    3.80
  -1  -3  -8  210.68   14.00
  -1  -3  -8  205.68   21.40
   1   3   8  193.28   12.80
   1   3   8  181.78   15.10
   1   3   8  223.38   18.20
  -2  -3  -8   13.40    7.40
  -2  -3  -8   26.70    6.60
  -2  -3  -8   10.70    6.80
   2   3   8   30.70    9.40
   2   3   8   20.50    7.70
  -3  -3  -8   56.19   12.40
  -3  -3  -8   43.70   10.90
  -3  -3  -8   40.60    7.10
   3   3   8   48.70   12.50
  -4  -3  -8   63.79   14.00
  -4  -3  -8   64.79   15.30
  -4  -3  -8   59.99    8.70
   4   3   8   70.29   15.90
   4   3   8   56.89   14.20
   4   3   8   63.19   16.20
  -5  -3  -8   66.39   14.60
  -5  -3  -8   20.40   12.10
  -5  -3  -8   43.90    8.10
   5   3   8   50.49   14.60
   5   3   8   48.90   15.30
  -6  -3  -8    5.80    4.50
  -6  -3  -8    2.20    8.00
   6   3   8    8.60    9.80
   6  -4  -8    7.10    8.10
   6  -4  -8   18.70   15.60
   6  -4  -8    5.40    7.20
  -6   4   8    5.20    6.30
  -6   4   8   -2.40    4.20
   5  -4  -8    2.50    6.40
   5  -4  -8    2.70    5.90
   5  -4  -8   -7.80    5.10
   5  -4  -8    1.10    5.70
  -5   4   8    0.10    5.50
  -5   4   8   -1.00    3.70
   4  -4  -8   54.19   13.20
   4  -4  -8   48.10   15.80
   4  -4  -8   41.60   10.60
  -4   4   8   45.60   10.30
  -4   4   8   33.70    8.90
  -4   4   8   42.70    8.40
   3  -4  -8   59.99   12.20
   3  -4  -8   36.20    9.20
   3  -4  -8   37.10    9.20
   3  -4  -8   39.60    8.60
  -3   4   8   38.20    9.50
  -3   4   8   38.20    7.70
  -3   4   8   37.80    8.30
   2  -4  -8   35.90    6.20
   2  -4  -8   19.40    6.80
   2  -4  -8   26.50    7.90
  -2   4   8   24.70    6.20
  -2   4   8   32.20    7.00
  -2   4   8   48.20    9.10
   1  -4  -8   17.50    5.40
   1  -4  -8   25.10    7.50
   1  -4  -8   25.10    6.60
  -1   4   8   21.90    6.40
  -1   4   8   19.50    5.50
  -1   4   8   13.00    4.30
   0  -4  -8   88.29   12.10
   0  -4  -8   82.89   12.00
   0  -4  -8   84.19   12.00
   0   4   8   76.69   10.30
   0   4   8   77.79   11.70
  -1  -4  -8   90.19   13.20
  -1  -4  -8   75.99    9.90
  -1  -4  -8   56.09   11.00
   1   4   8   72.99   11.80
   1   4   8   62.59    9.60
   1   4   8   64.69    9.30
  -2  -4  -8   -1.80    4.60
  -2  -4  -8    1.90    2.80
  -2  -4  -8   -4.80    3.10
   2   4   8   -4.10    3.20
   2   4   8   -1.50    4.90
   2   4   8    1.70    4.50
  -3  -4  -8  251.57   28.70
  -3  -4  -8  224.18   14.70
  -3  -4  -8  188.68   23.40
   3   4   8  263.87   21.10
   3   4   8  233.58   20.60
   3   4   8  223.58   26.80
  -4  -4  -8   -6.80    4.20
  -4  -4  -8    2.00    3.50
   4   4   8    4.60    6.40
   4   4   8    5.30    6.00
   4   4   8    3.90    6.30
  -5  -4  -8   -0.40    6.50
  -5  -4  -8   -0.50    6.10
  -5  -4  -8   -0.20    3.00
   5   4   8    8.20    9.50
   5   4   8   12.60    8.90
  -6  -4  -8    0.30    4.00
  -6  -4  -8   -5.80    4.70
   6   4   8   -5.00    4.90
   5  -5  -8   23.10    9.70
   5  -5  -8   42.60   11.90
   5  -5  -8   34.10   13.70
   5  -5  -8   20.50   10.20
  -5   5   8    9.80    6.60
  -5   5   8   24.40    5.50
  -5   5   8   38.30    8.80
   4  -5  -8   22.80   10.10
   4  -5  -8   27.10    9.60
   4  -5  -8   14.20    7.70
  -4   5   8   11.60    5.40
  -4   5   8   11.10    6.30
  -4   5   8    9.60    4.40
   3  -5  -8  131.19   17.80
   3  -5  -8  131.09   15.70
   3  -5  -8  119.99   15.50
   3  -5  -8  109.79   14.10
  -3   5   8  141.19   11.40
  -3   5   8  133.39   10.10
  -3   5   8  101.89   12.30
   2  -5  -8   -6.50    3.10
   2  -5  -8    0.70    2.30
   2  -5  -8   -1.20    3.20
   2  -5  -8   -1.10    3.00
  -2   5   8   -0.50    2.60
  -2   5   8    2.70    3.70
  -2   5   8    0.90    3.20
   1  -5  -8  107.79   12.20
   1  -5  -8  104.49   12.70
   1  -5  -8   95.69   12.60
  -1   5   8  115.39   10.20
  -1   5   8  106.49   11.40
  -1   5   8  101.49   11.40
   0  -5  -8  225.98   16.20
   0  -5  -8  227.18   15.60
   0  -5  -8  234.28   16.80
   0   5   8  235.78   14.80
  -1  -5  -8   54.39    9.90
  -1  -5  -8   55.29   10.60
  -1  -5  -8   42.30    6.60
   1   5   8   67.79   11.00
   1   5   8   70.89    9.80
  -2  -5  -8   57.09   11.50
  -2  -5  -8   71.09   13.10
  -2  -5  -8   56.79    9.00
   2   5   8   66.99   11.10
   2   5   8   76.09   11.80
   2   5   8   73.49   13.80
  -3  -5  -8    2.80    6.00
  -3  -5  -8    4.50    4.20
  -3  -5  -8    2.50    6.10
   3   5   8    2.40    5.00
   3   5   8    7.60    7.40
   3   5   8   13.30    8.10
  -4  -5  -8    9.40    7.40
  -4  -5  -8    3.00    4.00
   4   5   8   -1.10    4.50
   4   5   8    2.80    6.70
   4   5   8   -0.10    5.80
  -5  -5  -8   29.90   12.60
  -5  -5  -8   39.90    7.80
   5   5   8   17.60   10.20
   5   5   8   48.80   15.70
   5   5   8   52.49   14.80
  -6  -5  -8   -5.00    3.00
  -6  -5  -8  -10.80    4.40
   6   5   8    3.50    8.10
   6   5   8   -2.30    6.90
   5  -6  -8    3.60    7.50
   5  -6  -8    4.30    7.00
   5  -6  -8    5.50    7.50
   5  -6  -8    4.20    7.90
  -5   6   8   -1.10    3.80
   4  -6  -8   27.00   10.50
   4  -6  -8   16.80    8.10
   4  -6  -8   34.60   11.10
   3  -6  -8    4.00    5.30
   3  -6  -8    5.00    5.10
   3  -6  -8    1.70    5.20
   3  -6  -8    6.00    5.00
   2  -6  -8   30.30    7.40
   2  -6  -8   40.30    8.50
   2  -6  -8   10.70    7.00
  -2   6   8   20.70    5.70
   1  -6  -8  159.78   13.50
   1  -6  -8  162.38   12.50
   1  -6  -8  147.49   12.80
  -1   6   8  163.98   12.70
   0  -6  -8    1.30    3.60
   0  -6  -8    8.40    5.40
   0  -6  -8    5.90    4.20
   0   6   8    4.00    2.90
   0   6   8    6.10    3.60
   0   6   8    3.60    3.40
  -1  -6  -8    8.90    5.70
  -1  -6  -8    6.20    3.20
   1   6   8   12.40    5.90
   1   6   8   13.30    6.90
  -2  -6  -8   86.89   13.60
  -2  -6  -8   84.49   14.50
  -2  -6  -8   77.79   10.70
   2   6   8   83.89   11.40
   2   6   8   72.69   12.40
   2   6   8   90.89   11.80
  -3  -6  -8   22.20   10.10
  -3  -6  -8   27.60   10.10
   3   6   8   30.20    9.10
   3   6   8   38.50    9.00
   3   6   8   15.40    8.30
  -4  -6  -8  198.48   27.80
  -4  -6  -8  193.48   14.80
   4   6   8  164.98   20.70
   4   6   8  162.98   23.70
   4   6   8  184.78   24.50
  -5  -6  -8   11.70    9.90
  -5  -6  -8   -7.30    4.40
  -5  -6  -8    0.00    3.90
   5   6   8   -3.60    5.40
   5   6   8   -3.30    4.90
   5   6   8    5.90    7.10
  -6  -6  -8   -0.70    7.40
  -6  -6  -8    0.90    4.50
   6   6   8   -5.80    3.90
   6   6   8    0.80    8.20
   5  -7  -8    4.20    6.40
   5  -7  -8   -6.10    4.90
   5  -7  -8    6.90    8.70
   5  -7  -8   12.70    9.60
  -5   7   8    7.60    5.60
   4  -7  -8   12.40    9.70
   4  -7  -8   18.70    7.90
   4  -7  -8   21.50    9.20
   4  -7  -8   10.00    7.70
   3  -7  -8   47.60    9.50
   3  -7  -8   43.30   10.80
   3  -7  -8   45.00   10.20
   3  -7  -8   36.60   10.00
  -3   7   8   40.30    8.30
   2  -7  -8    0.70    4.80
   2  -7  -8   11.60    6.00
   2  -7  -8    0.50    3.10
  -2   7   8    1.80    3.80
   1  -7  -8  230.18   15.90
   1  -7  -8  219.18   14.30
   1  -7  -8  207.68   15.90
  -1   7   8  205.38   14.90
   0  -7  -8   36.20    7.30
   0  -7  -8   23.70    5.70
   0  -7  -8   43.30    8.40
  -1  -7  -8  183.38   15.40
  -1  -7  -8  174.68   13.20
  -1  -7  -8  174.58   14.80
   1   7   8  177.48   11.50
   1   7   8  169.48   10.00
  -2  -7  -8    6.00    6.60
  -2  -7  -8   24.50    6.60
   2   7   8   11.40    4.60
   2   7   8   11.70    5.00
   2   7   8   24.90    7.20
  -3  -7  -8   11.70    5.80
  -3  -7  -8   12.20    8.30
  -3  -7  -8    3.90    6.20
   3   7   8   10.70    6.60
   3   7   8   11.60    7.10
   3   7   8    1.80    4.40
  -4  -7  -8    3.30    7.40
  -4  -7  -8   -7.20    4.50
   4   7   8   -6.40    3.50
   4   7   8   -1.60    4.50
   4   7   8    3.30    6.90
  -5  -7  -8   15.30   10.20
  -5  -7  -8    5.20    8.30
  -5  -7  -8    8.40    5.70
   5   7   8   12.20    8.30
   5   7   8    6.60    7.80
  -6  -7  -8   32.60   14.60
   6   7   8   45.90   16.50
   6   7   8   14.50   10.30
   4  -8  -8   -0.50    5.40
   4  -8  -8    5.60    6.20
   4  -8  -8   -0.10    4.80
   4  -8  -8    4.80    7.30
   3  -8  -8   -1.00    4.70
   3  -8  -8    2.00    4.90
   3  -8  -8    4.30    6.50
   3  -8  -8   -1.70    3.30
  -3   8   8   -2.70    2.60
   2  -8  -8   -0.40    4.00
   2  -8  -8    2.80    3.40
   2  -8  -8    8.40    5.00
  -2   8   8    5.30    3.90
   1  -8  -8  160.48   12.00
   1  -8  -8  134.59   14.90
   1  -8  -8  180.78   13.30
  -1   8   8  166.18   13.30
   0  -8  -8  220.58   15.90
   0  -8  -8  206.28   14.70
   0  -8  -8  208.18   14.40
  -1  -8  -8   53.59    9.90
  -1  -8  -8   30.30    7.50
  -1  -8  -8   51.29   10.00
  -2  -8  -8   68.79   16.90
  -2  -8  -8   40.30    7.50
  -2  -8  -8   60.29   12.30
   2   8   8   60.99    7.30
   2   8   8   67.69    8.70
   2   8   8   64.09    8.70
  -3  -8  -8    8.20    4.70
  -3  -8  -8    4.00    6.40
  -3  -8  -8    3.60    6.20
   3   8   8    2.90    5.50
   3   8   8   11.40    6.30
   3   8   8    4.90    4.00
  -4  -8  -8   39.30   12.80
  -4  -8  -8   28.20    8.20
  -4  -8  -8   34.80   11.60
   4   8   8   34.30   10.50
   4   8   8   12.20    6.70
   4   8   8   27.80    9.70
  -5  -8  -8    7.30    9.60
  -5  -8  -8   22.70   11.40
   5   8   8    6.20    7.30
   5   8   8    9.00    8.30
   5   8   8    3.00    7.20
  -6  -8  -8   22.90   13.60
   6   8   8    6.70    7.90
   6   8   8    6.50    9.50
   6   8   8   10.00    9.00
   4  -9  -8   26.50    8.80
   4  -9  -8   41.40    9.90
   4  -9  -8   40.70   13.10
   3  -9  -8   75.59   14.00
   3  -9  -8   93.79   15.60
   3  -9  -8   72.19   12.10
   3  -9  -8   81.99   13.70
  -3   9   8   94.99   13.70
   2  -9  -8   19.80    4.50
   2  -9  -8    8.30    5.50
   2  -9  -8   23.00    7.40
   2  -9  -8    8.00    5.20
   2  -9  -8   23.50    6.20
   1  -9  -8   99.69   12.60
   1  -9  -8  103.99   11.00
   1  -9  -8   73.09   10.00
   0  -9  -8    6.50    5.30
   0  -9  -8    0.30    2.90
   0  -9  -8    1.40    3.70
  -1  -9  -8   45.80    9.10
  -1  -9  -8   33.10    7.10
  -1  -9  -8   61.39   10.90
  -2  -9  -8  128.89   16.00
  -2  -9  -8   88.19   13.90
  -2  -9  -8   90.39   21.80
   2   9   8   93.09    8.00
  -3  -9  -8   98.49   16.70
  -3  -9  -8   83.99   12.00
  -3  -9  -8  108.99   18.00
   3   9   8   84.69   10.90
   3   9   8   89.79   12.70
   3   9   8   99.09   12.60
  -4  -9  -8   81.59   16.10
  -4  -9  -8   84.19   19.10
   4   9   8   60.79   12.00
   4   9   8   55.69    9.90
   4   9   8   72.89   12.80
  -5  -9  -8   -4.90    5.80
  -5  -9  -8    4.20    7.70
   5   9   8   16.00   10.90
   5   9   8    4.70    6.20
   5   9   8    2.70    6.10
   6   9   8    9.40    9.40
   6   9   8    5.90    7.50
   6   9   8   10.40    8.80
   3 -10  -8   57.89    9.60
   3 -10  -8   70.89   14.40
   3 -10  -8   42.20   10.50
   3 -10  -8   76.29   11.90
   3 -10  -8   51.39    9.80
   2 -10  -8   -5.20    3.30
   2 -10  -8   -1.50    3.30
   2 -10  -8   -1.70    3.20
   2 -10  -8    1.60    3.50
   2 -10  -8   -1.00    2.20
   1 -10  -8   50.49   10.90
   1 -10  -8   60.39    8.10
   1 -10  -8   64.09    8.90
   0 -10  -8  174.28   19.50
   0 -10  -8  138.79   11.50
   0 -10  -8  153.48   12.00
  -1 -10  -8  124.29   14.70
  -1 -10  -8  146.79   16.60
  -2 -10  -8  105.39   12.40
  -2 -10  -8  141.89   20.10
  -2 -10  -8  146.19   18.40
  -2 -10  -8  138.79   15.60
   2  10   8  139.19   10.20
  -3 -10  -8   41.80   10.20
  -3 -10  -8   36.50   11.50
   3  10   8   40.60    8.20
  -4 -10  -8    3.40    4.90
  -4 -10  -8    0.60    7.00
  -4 -10  -8    8.90    9.30
   4  10   8    7.20    6.00
   4  10   8    3.80    3.90
   4  10   8    6.60    4.80
  -5 -10  -8   23.80   16.20
  -5 -10  -8   48.50   15.70
   5  10   8   45.80   11.20
   5  10   8   25.50   11.70
   5  10   8   40.30   10.40
  -6 -10  -8  161.98   27.00
   6  10   8   91.89   15.80
   6  10   8   93.39   17.20
   6  10   8  112.59   21.90
   3 -11  -8    9.20    7.60
   3 -11  -8   -0.50    3.10
   3 -11  -8    2.10    5.50
   3 -11  -8    6.40    6.40
   3 -11  -8    0.40    4.00
   2 -11  -8    4.60    5.30
   2 -11  -8   -0.60    2.90
   2 -11  -8    6.50    4.80
   2 -11  -8   -1.00    4.30
   2 -11  -8   -3.60    2.00
   1 -11  -8    1.70    3.00
   1 -11  -8   -2.70    2.60
   1 -11  -8   -0.60    4.40
   0 -11  -8    2.40    5.00
   0 -11  -8    0.60    3.50
   0 -11  -8   -0.80    3.30
  -1 -11  -8    2.30    4.40
  -1 -11  -8   -1.60    3.40
  -1 -11  -8   -4.60    3.80
  -2 -11  -8   17.20    7.50
  -2 -11  -8   28.20    9.90
  -2 -11  -8   24.20    9.10
  -2 -11  -8   26.90    8.30
  -3 -11  -8   10.60    8.90
  -3 -11  -8    2.00    4.60
  -3 -11  -8    3.80    4.10
  -3 -11  -8    1.80    6.50
   3  11   8    0.40    3.20
  -4 -11  -8   -0.50    6.60
  -4 -11  -8    8.20    8.60
  -4 -11  -8   -3.50    3.50
   4  11   8   -4.10    3.60
   4  11   8    0.00    2.60
   4  11   8    1.50    2.40
  -5 -11  -8    1.90    8.50
   5  11   8    1.50    4.20
   5  11   8   -4.40    3.10
   2 -12  -8    1.40    5.40
   2 -12  -8    3.60    3.50
   2 -12  -8    0.00    4.60
   2 -12  -8    9.60    5.50
   2 -12  -8   10.10    4.90
   1 -12  -8   12.80    4.40
   1 -12  -8    6.20    4.70
   1 -12  -8   27.40    9.00
   1 -12  -8   15.00    4.50
   0 -12  -8    3.90    5.40
   0 -12  -8   -5.20    2.60
   0 -12  -8    0.70    3.60
   0 -12  -8    0.50    3.50
  -1 -12  -8   46.10    9.80
  -1 -12  -8   28.10    9.30
  -1 -12  -8   37.90    8.80
  -2 -12  -8   90.29   14.90
  -2 -12  -8   70.39   12.70
  -2 -12  -8   72.39   13.50
  -2 -12  -8   58.59   11.60
  -3 -12  -8   11.00    7.00
  -3 -12  -8    4.80    6.30
  -3 -12  -8   46.30   14.50
  -3 -12  -8   15.50    9.70
  -4 -12  -8   26.60   11.10
  -4 -12  -8   33.80   13.30
  -4 -12  -8   31.40   20.50
  -4 -12  -8   49.70    9.20
   4  12   8   54.09   12.10
  -5 -12  -8    4.10    9.20
   5  12   8    2.00    3.50
   1 -13  -8   -0.20    3.30
   1 -13  -8    1.10    4.70
   1 -13  -8    1.00    2.90
   0 -13  -8    7.90    5.20
   0 -13  -8    4.10    4.00
   0 -13  -8   -0.70    4.10
   0 -13  -8    6.30    4.90
  -1 -13  -8    1.40    5.30
  -1 -13  -8   -2.70    3.00
  -1 -13  -8   -5.10    2.60
  -1 -13  -8   -3.40    3.70
  -2 -13  -8   13.30    9.30
  -2 -13  -8   16.00    7.50
  -2 -13  -8    1.50    5.40
  -2 -13  -8    1.70    4.80
  -3 -13  -8    4.90    5.50
  -3 -13  -8    1.60    7.80
  -3 -13  -8   -2.70    5.20
  -3 -13  -8   -9.80    5.90
   3  13   8   -4.50    3.30
  -4 -13  -8    1.10    8.50
  -4 -13  -8   -3.00    5.30
  -4 -13  -8   -1.80    5.50
  -4 -13  -8    4.00    9.50
   4  13   8    8.30    6.60
   0 -14  -8    5.20    5.60
   0 -14  -8   17.50    5.40
   0 -14  -8    9.50    6.20
   0 -14  -8   10.20    5.40
  -1 -14  -8    8.00    7.20
  -1 -14  -8    6.30    6.00
  -1 -14  -8   10.20    7.60
  -1 -14  -8    5.70    6.60
  -2 -14  -8   57.69   13.20
  -2 -14  -8   72.69   11.90
  -2 -14  -8   75.09   14.70
  -2 -14  -8   64.19   12.80
  -3 -14  -8   10.60   10.00
  -3 -14  -8   14.90   10.40
  -3 -14  -8   28.40   12.40
  -3 -14  -8   19.50   10.70
   3   7  -9    2.40    8.30
   3   7  -9    3.80    6.70
  -3  -7   9   13.60   13.80
   2   7  -9   -0.80    6.40
  -2  -7   9   -5.00    4.50
  -2  -7   9    5.10    8.00
  -2  -7   9    0.70    6.20
   1   7  -9    6.50    7.40
   1   7  -9    6.70    7.50
  -1  -7   9    4.00    6.90
  -1  -7   9    3.50    6.10
  -1  -7   9   -1.60    4.80
   0   7  -9    1.20    5.90
   0   7  -9    5.80    6.90
   0  -7   9   -3.90    3.50
   0  -7   9    3.70    5.00
   0  -7   9    4.10    6.60
  -1   7  -9    2.40    6.30
  -1   7  -9    2.60    5.90
   1  -7   9    0.70    7.30
   1  -7   9    0.90    6.50
   4   6  -9   28.30   13.80
  -4  -6   9   17.90   16.10
  -4  -6   9   21.60   12.80
   3   6  -9   -4.60    6.40
   3   6  -9   14.40    8.80
  -3  -6   9    0.40    5.70
  -3  -6   9    8.50    8.20
  -3  -6   9    8.50    9.70
   2   6  -9   65.29   15.20
  -2  -6   9   45.80   12.40
  -2  -6   9   74.79   18.50
  -2  -6   9   74.19   13.20
   1   6  -9    9.10    7.70
   1   6  -9   -0.30    7.00
  -1  -6   9    5.20    6.40
  -1  -6   9   14.90   10.40
  -1  -6   9    0.40    5.90
  -1  -6   9    2.40    5.60
   0   6  -9   72.09   15.60
   0   6  -9   96.29   16.70
   0  -6   9   97.49   19.40
   0  -6   9   88.29   18.40
   0  -6   9   91.69   16.70
   0  -6   9  116.29   10.30
  -1   6  -9  124.89   20.00
  -1   6  -9  132.69   18.50
   1  -6   9  155.68    9.60
   1  -6   9   90.69   17.20
   1  -6   9   90.39   17.70
  -2   6  -9    3.80    6.80
  -2   6  -9   -4.10    4.60
   2  -6   9   -7.20    3.40
   2  -6   9   -4.70    4.70
  -5  -5   9   18.90   16.00
   4   5  -9   15.30   11.00
  -4  -5   9   15.90   12.40
  -4  -5   9   16.80   10.70
   3   5  -9   -7.70    4.70
   3   5  -9    0.90    5.60
   3   5  -9   -0.80    3.30
  -3  -5   9    1.90    5.90
  -3  -5   9    4.70    6.90
  -3  -5   9    0.40    6.40
   2   5  -9   17.20    9.90
  -2  -5   9   25.60   10.00
  -2  -5   9   11.30    8.10
  -2  -5   9   19.10   11.00
  -2  -5   9   39.90    9.70
   1   5  -9    7.50    9.00
   1   5  -9   -0.50    4.50
  -1  -5   9    1.80    5.00
  -1  -5   9    3.10    6.20
  -1  -5   9    2.80    5.10
  -1  -5   9   -6.00    2.90
   0   5  -9   21.10    8.80
   0   5  -9    9.50    7.20
   0  -5   9   20.80    9.00
   0  -5   9   14.30    5.90
   0  -5   9   13.00    8.90
   0  -5   9   11.40    8.90
  -1   5  -9   15.90    8.90
  -1   5  -9    7.00    7.60
   1  -5   9    8.50    7.10
   1  -5   9   20.20   10.00
   1  -5   9   15.10    8.60
  -2   5  -9   61.89   13.10
  -2   5  -9   40.90   12.00
   2  -5   9   41.50   12.20
  -3   5  -9    3.80    6.00
  -3   5  -9   -5.40    5.60
   3  -5   9    5.90    7.40
   5   4  -9   -1.90    7.30
  -5  -4   9    5.30   10.20
   4   4  -9   -0.40    6.10
   4   4  -9    5.90    9.10
  -4  -4   9   -1.30    5.80
  -4  -4   9   10.00    9.10
   3   4  -9    0.10    4.70
   3   4  -9    1.90    4.40
   3   4  -9    9.50    8.50
   3   4  -9   -3.00    6.20
  -3  -4   9    0.20    6.40
  -3  -4   9    2.30    6.10
  -3  -4   9    5.80    9.50
  -3  -4   9    0.70    4.30
   2   4  -9   19.40    9.20
   2   4  -9   11.10    8.40
   2   4  -9    2.50    4.50
  -2  -4   9    9.90    7.90
  -2  -4   9    2.90    6.40
  -2  -4   9    8.20    6.10
  -2  -4   9    8.20    7.80
   1   4  -9    8.90    7.20
   1   4  -9   13.30    8.10
   1   4  -9    7.20    6.40
  -1  -4   9   23.60    7.40
  -1  -4   9   14.50    8.80
  -1  -4   9   12.00    7.70
  -1  -4   9    6.80    6.00
   0   4  -9    8.30    6.40
   0   4  -9   15.60    9.00
   0   4  -9   24.60    9.80
   0  -4   9    9.30    6.90
   0  -4   9   26.70    8.40
   0  -4   9   22.60   10.40
   0  -4   9   26.90    7.00
  -1   4  -9   80.79   15.50
  -1   4  -9   73.89   13.80
  -1   4  -9   67.99   10.10
   1  -4   9   80.89    9.50
   1  -4   9   79.79   16.10
   1  -4   9   76.49   14.10
   1  -4   9   71.69   14.10
  -2   4  -9   -0.80    4.90
  -2   4  -9   -1.50    5.30
   2  -4   9    8.20    8.50
   2  -4   9    6.00    6.70
   2  -4   9    8.30    6.90
  -3   4  -9   -0.70    6.50
   3  -4   9    6.70    7.20
   3  -4   9    7.80    7.60
   5   3  -9   -6.60    5.60
  -5  -3   9    3.30    8.50
  -5  -3   9    4.80    9.60
   4   3  -9    2.10    5.90
   4   3  -9   19.60   12.30
   4   3  -9   -0.80    4.60
   4   3  -9    4.40    7.40
  -4  -3   9   -2.30    4.40
  -4  -3   9    7.90    8.50
  -4  -3   9   -2.70    6.20
  -4  -3   9   -2.20    5.60
   3   3  -9    6.90    6.50
   3   3  -9    6.60    7.30
   3   3  -9   14.20    8.50
   3   3  -9    5.90    5.40
  -3  -3   9    2.10    8.20
  -3  -3   9   14.70    9.10
  -3  -3   9    5.90    5.50
   2   3  -9   26.60    8.90
   2   3  -9   30.90    9.30
   2   3  -9   42.10   11.50
   2   3  -9   29.00    7.30
  -2  -3   9   33.30   10.40
  -2  -3   9   51.19   10.80
  -2  -3   9   32.80   10.10
   1   3  -9   11.70    6.90
   1   3  -9    6.10    7.10
   1   3  -9   12.40    7.80
  -1  -3   9   12.40    7.60
  -1  -3   9   10.70    7.20
  -1  -3   9    8.00    5.40
  -1  -3   9   12.40    6.60
   0   3  -9  124.89   15.20
   0   3  -9  158.88   20.30
   0   3  -9  167.28   21.80
   0  -3   9  160.08   12.40
   0  -3   9  107.39   16.30
   0  -3   9  153.38   20.40
   0  -3   9  130.19   18.10
  -1   3  -9   21.40    8.90
  -1   3  -9   31.10    9.50
  -1   3  -9   24.00    7.50
   1  -3   9   29.20   11.70
   1  -3   9   12.50    4.60
   1  -3   9   43.20   12.60
   1  -3   9   16.10    7.60
  -2   3  -9    4.80    7.30
  -2   3  -9    2.60    5.60
  -2   3  -9    1.50    3.50
   2  -3   9    1.20    5.90
   2  -3   9   -2.40    4.80
   2  -3   9    7.90    8.20
  -3   3  -9   49.00   15.80
  -3   3  -9   48.50   11.80
   3  -3   9   52.79   16.60
  -4   3  -9    9.00    7.40
   4  -3   9    7.10   13.00
   5   2  -9   -0.50    6.10
   5   2  -9   -4.60    6.00
   5   2  -9   -3.60    2.60
  -5  -2   9   10.10   10.20
  -5  -2   9   -1.40    6.40
   4   2  -9    0.60    4.70
   4   2  -9    7.80    7.60
   4   2  -9   -1.60    6.40
   4   2  -9    8.50    7.50
  -4  -2   9   -2.40    4.10
  -4  -2   9   -3.20    5.40
  -4  -2   9   -4.30    5.00
  -4  -2   9   -2.60    6.00
   3   2  -9   12.70    7.00
   3   2  -9    9.50    6.30
   3   2  -9    6.90    8.40
  -3  -2   9   19.70   12.00
  -3  -2   9   11.70    8.20
  -3  -2   9    2.20    5.60
   2   2  -9    0.10    3.50
   2   2  -9   -0.20    4.40
   2   2  -9    1.20    5.80
   2   2  -9    3.20    6.80
  -2  -2   9    0.00    4.60
  -2  -2   9    1.00    5.10
  -2  -2   9   -2.20    4.70
   1   2  -9   42.00   10.30
   1   2  -9   61.99   12.60
   1   2  -9   51.39   10.80
  -1  -2   9   65.59   13.50
  -1  -2   9   55.29   11.70
  -1  -2   9   34.30    7.60
   0   2  -9   23.50    8.00
   0   2  -9   11.10    7.30
   0   2  -9   25.90    9.10
   0  -2   9   31.10    8.70
   0  -2   9   18.90    7.90
   0  -2   9   20.40    6.50
   0  -2   9   36.80    9.70
  -1   2  -9   32.10   10.10
  -1   2  -9   50.49   11.90
  -1   2  -9   55.39    9.40
   1  -2   9   62.09   14.00
   1  -2   9   49.90   12.10
   1  -2   9   76.39   14.90
   1  -2   9   53.99    7.80
  -2   2  -9    9.00    7.30
  -2   2  -9    9.50    4.80
   2  -2   9    6.30    6.60
   2  -2   9   -3.40    4.50
   2  -2   9    7.40    7.30
  -3   2  -9    3.00    8.20
  -3   2  -9   -3.00    5.00
  -3   2  -9    5.30    3.70
   3  -2   9    1.20    6.00
   3  -2   9    0.50    6.70
  -4   2  -9    3.70    8.50
  -4   2  -9   16.00    9.10
   4  -2   9    0.00    7.60
  -6  -1   9    2.60   10.10
  -6  -1   9    3.40    8.40
   5   1  -9   -2.80    6.10
   5   1  -9    2.40    6.40
   5   1  -9    1.00    8.70
  -5  -1   9   -1.20    7.10
  -5  -1   9    2.70    6.10
  -5  -1   9    8.40   10.80
   4   1  -9   32.90    9.20
   4   1  -9   66.49   15.40
   4   1  -9   56.59   14.50
  -4  -1   9   52.89   14.90
  -4  -1   9   42.40   12.80
   3   1  -9  147.59   22.40
   3   1  -9  199.98   23.40
  -3  -1   9  204.28   26.20
  -3  -1   9  181.78   22.40
  -3  -1   9  166.18   22.20
  -3  -1   9  167.98   19.00
   2   1  -9   42.20    8.40
   2   1  -9   51.29   11.80
   2   1  -9   57.39   11.30
   2   1  -9   63.49   13.60
  -2  -1   9   68.29   12.80
  -2  -1   9   51.89   10.20
  -2  -1   9   48.20   12.70
  -2  -1   9   61.09   13.00
   1   1  -9    0.50    5.40
   1   1  -9    0.30    4.20
   1   1  -9   -1.80    4.40
  -1  -1   9   -3.20    3.10
  -1  -1   9   -4.30    3.70
  -1  -1   9   -3.10    3.20
  -1  -1   9    0.70    4.30
   0   1  -9  170.08   15.10
   0   1  -9  189.78   22.70
   0   1  -9  206.48   23.00
   0  -1   9  222.18   14.40
   0  -1   9  224.28   18.70
   0  -1   9  227.18   19.10
  -1   1  -9   81.69   14.60
  -1   1  -9   59.09   13.50
  -1   1  -9   85.59   11.60
   1  -1   9   71.69   13.40
   1  -1   9   89.29   10.20
   1  -1   9   96.39   14.70
   1  -1   9  119.99   17.80
  -2   1  -9   60.09   13.70
  -2   1  -9   45.80   11.50
   2  -1   9   37.40   11.60
   2  -1   9   76.19   15.70
   2  -1   9   44.90   10.80
  -3   1  -9   15.60    9.30
  -3   1  -9   38.50    6.80
  -3   1  -9   25.10   12.80
   3  -1   9   38.80   11.70
   3  -1   9   34.20   13.00
  -4   1  -9  130.19   23.40
  -4   1  -9  161.28   21.50
   4  -1   9   81.69   17.40
  -5   1  -9   -1.50    6.10
   5  -1   9    9.40    6.20
   6   0  -9    1.10   10.00
   6   0  -9    4.50    7.50
  -6   0   9    9.30   10.30
   5   0  -9    7.20    8.80
   5   0  -9   13.60   12.10
   5   0  -9    5.30    6.60
  -5   0   9    4.20    9.20
  -5   0   9   12.60    7.80
   4   0  -9    2.60    6.60
   4   0  -9   11.40    6.80
   4   0  -9    3.20    4.10
   4   0  -9    5.00    6.90
  -4   0   9    5.20    7.50
  -4   0   9   -2.80    5.60
   3   0  -9    7.90    5.80
   3   0  -9    4.70    6.70
   3   0  -9   12.40    6.60
  -3   0   9    2.10    5.80
  -3   0   9    6.70    6.70
  -3   0   9   18.00    9.30
   2   0  -9    6.80    6.40
   2   0  -9    3.90    4.40
   2   0  -9    0.80    5.50
   2   0  -9   14.20    5.60
  -2   0   9   12.60    7.10
  -2   0   9   15.60    7.90
  -2   0   9    1.80    5.30
  -2   0   9    2.50    4.20
   1   0  -9   32.10    9.80
   1   0  -9    5.00    5.30
   1   0  -9   11.50    6.70
  -1   0   9   14.80    6.20
  -1   0   9   21.20    7.70
  -1   0   9   10.60    4.50
  -1   0   9    8.10    5.70
   0   0  -9  124.29   17.20
   0   0  -9  116.29   16.60
   0   0  -9   97.19   12.70
   0   0   9   80.59   12.80
   0   0   9  137.29   18.50
   0   0   9   92.69   10.30
   0   0   9  124.19   16.20
  -1   0  -9   90.39   16.40
  -1   0  -9   95.49   11.90
  -1   0  -9  108.79   16.50
   1   0   9   95.39   16.40
   1   0   9   73.39   13.10
   1   0   9   79.69   10.00
   1   0   9   89.79   13.90
  -2   0  -9   30.30    7.20
  -2   0  -9   32.40   10.80
  -2   0  -9   15.20    9.00
   2   0   9   11.70    6.00
  -3   0  -9   28.60    6.80
  -3   0  -9   16.50    9.90
  -3   0  -9   21.90   10.20
   3   0   9   18.10    9.40
  -4   0  -9   46.40    7.20
  -4   0  -9   36.60   11.60
  -4   0  -9   22.50   13.60
   4   0   9   26.00   10.60
   4   0   9   33.30   14.40
  -5   0  -9   14.60    9.60
  -5   0  -9    9.70    4.60
   5   0   9   13.10   10.40
   6  -1  -9    0.50    4.90
   6  -1  -9   14.90   12.30
   6  -1  -9    8.80    8.00
  -6   1   9    8.30    9.30
   5  -1  -9    2.90    6.00
   5  -1  -9   -2.80    6.90
   5  -1  -9    1.20    6.00
  -5   1   9   -0.70    6.70
   4  -1  -9  104.99   19.70
   4  -1  -9   98.09   15.30
   4  -1  -9   91.29   23.90
   4  -1  -9   87.19   17.60
  -4   1   9   77.59   14.00
  -4   1   9   89.39   17.30
  -4   1   9   78.09   13.20
   3  -1  -9   -8.20    3.20
   3  -1  -9   -1.00    3.30
   3  -1  -9    5.70    5.60
  -3   1   9   -3.20    4.50
  -3   1   9   -2.10    3.60
  -3   1   9   -1.50    5.70
   2  -1  -9  146.59   16.50
   2  -1  -9  184.98   21.10
   2  -1  -9  183.58   13.60
   2  -1  -9  169.98   21.10
  -2   1   9  132.29   17.30
  -2   1   9  161.58   14.40
  -2   1   9  185.68   17.40
  -2   1   9  190.58   21.20
   1  -1  -9   13.30    7.00
   1  -1  -9   16.70    8.00
   1  -1  -9    9.90    5.90
  -1   1   9    9.00    5.80
  -1   1   9   12.50    6.30
  -1   1   9    7.80    5.00
  -1   1   9    4.20    5.30
   0  -1  -9   47.90   11.80
   0  -1  -9   41.20    8.40
   0  -1  -9   58.29   11.50
   0   1   9   54.19   10.10
   0   1   9   49.10    7.40
   0   1   9   55.99   11.40
   0   1   9   56.59   11.80
  -1  -1  -9   90.59   11.50
  -1  -1  -9  119.59   16.80
  -1  -1  -9  105.99   16.90
   1   1   9  140.49   16.10
   1   1   9   90.09    9.80
   1   1   9   97.99   15.80
   1   1   9  132.99   17.90
  -2  -1  -9   57.19   13.70
  -2  -1  -9   40.10   10.80
  -2  -1  -9   48.30    8.40
   2   1   9   41.90   10.40
   2   1   9   30.40    9.80
  -3  -1  -9  146.49   22.60
  -3  -1  -9  174.08   12.40
  -3  -1  -9  147.39   29.80
   3   1   9  117.59   18.40
  -4  -1  -9   23.00    6.20
   4   1   9   13.70    9.40
  -5  -1  -9    5.90    8.10
   5   1   9   16.30   10.20
  -6   2   9    5.50    8.10
   5  -2  -9   10.80   10.20
   5  -2  -9   19.10   10.40
   5  -2  -9   18.10   10.20
  -5   2   9    6.10    7.40
   4  -2  -9   12.10    8.00
   4  -2  -9   14.00    7.50
   4  -2  -9   14.50    8.40
   4  -2  -9    2.20    6.30
  -4   2   9    5.60    7.30
  -4   2   9    4.70    5.40
  -4   2   9    1.10    6.30
   3  -2  -9    5.60    4.90
   3  -2  -9    4.40    5.90
   3  -2  -9   -4.50    2.80
  -3   2   9   -1.60    3.70
  -3   2   9    2.20    5.40
  -3   2   9   -2.00    4.80
  -3   2   9    0.30    3.70
   2  -2  -9   10.50    6.60
   2  -2  -9    4.40    5.60
   2  -2  -9    6.00    5.10
   2  -2  -9    3.40    3.20
  -2   2   9   -2.90    3.70
  -2   2   9    4.20    3.50
  -2   2   9    2.20    5.10
  -2   2   9    9.60    6.00
   1  -2  -9    9.00    6.10
   1  -2  -9    0.90    4.80
   1  -2  -9   10.10    5.90
  -1   2   9    7.30    5.50
  -1   2   9   10.50    6.10
  -1   2   9    8.50    5.40
  -1   2   9    7.20    4.50
   0  -2  -9    6.00    5.80
   0  -2  -9    0.90    4.30
   0  -2  -9    8.10    5.10
   0   2   9    6.60    5.60
   0   2   9    5.00    4.70
   0   2   9    6.20    4.40
   0   2   9    7.10    4.10
  -1  -2  -9   14.00    7.20
  -1  -2  -9   14.70    6.80
  -1  -2  -9    6.40    4.90
   1   2   9   10.00    4.80
   1   2   9    8.60    5.90
   1   2   9    8.30    6.10
  -2  -2  -9   15.60    7.80
  -2  -2  -9   25.20    7.10
  -2  -2  -9   22.70    8.40
   2   2   9   12.60    7.70
   2   2   9   16.00    7.50
  -3  -2  -9  282.67   16.80
  -3  -2  -9  219.28   27.80
   3   2   9  254.97   30.20
  -4  -2  -9  144.39   11.70
  -4  -2  -9  134.49   20.30
   4   2   9  159.48   23.40
  -5  -2  -9   14.20    9.50
  -5  -2  -9    4.10    4.10
   5   2   9   17.10   12.50
   5   2   9    0.20    6.90
  -6  -2  -9   -6.70    2.50
   5  -3  -9    6.30    8.90
   5  -3  -9    4.60    7.60
   5  -3  -9   -3.60    3.50
  -5   3   9    0.10    5.60
  -5   3   9   -1.50    3.80
  -5   3   9    7.00    6.20
   4  -3  -9   14.60    7.80
   4  -3  -9   17.80    8.90
   4  -3  -9   20.30    7.90
   4  -3  -9   11.40    7.10
  -4   3   9    6.50    6.00
  -4   3   9    9.70    7.00
   3  -3  -9    0.90    6.10
   3  -3  -9    3.20    3.50
   3  -3  -9   11.40    6.20
  -3   3   9   10.00    6.10
  -3   3   9   -1.70    4.70
  -3   3   9    3.30    4.00
   2  -3  -9  109.39   16.40
   2  -3  -9  139.89   10.00
   2  -3  -9  128.39   16.40
   2  -3  -9  160.78   20.00
  -2   3   9  116.69   15.70
  -2   3   9  116.39   14.50
  -2   3   9  133.19   12.50
   1  -3  -9   51.39    8.80
   1  -3  -9   64.49   12.20
  -1   3   9   52.99    9.30
  -1   3   9   77.69   10.00
  -1   3   9   67.39   11.30
   0  -3  -9   41.20    8.60
   0  -3  -9   60.49   11.70
   0  -3  -9   34.40    9.00
   0   3   9   65.59   11.70
   0   3   9   48.10    9.50
   0   3   9   54.19    7.40
  -1  -3  -9    4.70    5.60
  -1  -3  -9   -1.30    4.20
  -1  -3  -9    3.90    4.30
   1   3   9    3.80    3.20
   1   3   9    2.10    5.70
   1   3   9    4.60    4.60
   1   3   9    1.70    2.90
  -2  -3  -9   82.99   12.10
  -2  -3  -9   83.29   16.50
  -2  -3  -9   72.79   13.90
   2   3   9   84.69   15.00
   2   3   9   64.49   13.00
  -3  -3  -9  146.69   12.10
  -3  -3  -9  147.09   21.10
   3   3   9  120.89   18.30
   3   3   9  186.78   26.20
  -4  -3  -9   -0.30    5.70
  -4  -3  -9    7.90    4.70
  -4  -3  -9   11.60    8.20
   4   3   9   12.80   10.30
   4   3   9    6.00    8.10
   4   3   9   17.40    8.60
  -5  -3  -9   89.69   31.60
  -5  -3  -9   66.49    9.90
  -5  -3  -9   61.29   16.00
   5   3   9   52.89   16.60
   5   3   9   59.99   15.10
  -6  -3  -9   19.60    6.20
   6   3   9    7.00    9.70
   5  -4  -9   -2.30    8.20
   5  -4  -9    8.60    6.30
   5  -4  -9    0.90    5.90
   5  -4  -9   10.00    9.10
  -5   4   9    2.40    5.50
  -5   4   9   -0.90    4.00
  -5   4   9    2.30    5.20
   4  -4  -9   12.20    7.30
   4  -4  -9    8.40    8.00
   4  -4  -9    3.70    5.80
  -4   4   9   12.20    9.70
  -4   4   9    4.40    5.80
   3  -4  -9   27.60    9.00
   3  -4  -9   18.10   12.70
   3  -4  -9   25.60    8.10
   3  -4  -9   25.80    6.80
  -3   4   9   26.50    7.60
  -3   4   9   26.10    7.80
  -3   4   9   32.70    8.10
   2  -4  -9   16.40    7.20
   2  -4  -9   26.10    5.00
   2  -4  -9   14.60    8.00
  -2   4   9   19.20    5.60
  -2   4   9   21.90    6.80
   1  -4  -9  137.19   17.20
   1  -4  -9  129.69   14.10
   1  -4  -9  153.38   18.40
  -1   4   9  145.19   16.20
  -1   4   9  139.39   11.80
  -1   4   9  153.28   13.30
   0  -4  -9    9.30    5.70
   0  -4  -9   12.00    6.10
   0  -4  -9    1.90    3.90
   0   4   9    6.90    4.80
   0   4   9    7.80    5.70
  -1  -4  -9    9.20    6.00
  -1  -4  -9    7.70    5.50
  -1  -4  -9    4.90    4.30
   1   4   9    8.20    3.30
   1   4   9    9.20    5.40
   1   4   9   11.80    7.10
   1   4   9    9.20    5.20
  -2  -4  -9   66.39   10.10
  -2  -4  -9   43.70   11.40
  -2  -4  -9   45.60   12.40
   2   4   9   77.19   13.20
   2   4   9   61.79   13.50
  -3  -4  -9  225.08   27.70
  -3  -4  -9  270.37   23.20
  -3  -4  -9  285.37   17.00
   3   4   9  270.37   22.30
   3   4   9  255.67   29.30
   3   4   9  266.87   22.90
  -4  -4  -9   11.30    8.60
  -4  -4  -9    2.80    3.70
   4   4   9    6.50    7.10
   4   4   9    6.50    7.70
  -5  -4  -9   -4.00    5.80
  -5  -4  -9    3.70    4.20
  -5  -4  -9   12.50   13.10
   5   4   9    0.40    6.70
   5   4   9   -0.70    6.60
  -6  -4  -9    0.30    4.20
   5  -5  -9   -4.60    6.50
   5  -5  -9   -4.80    3.80
   5  -5  -9    0.20    6.20
   5  -5  -9   23.90   11.20
  -5   5   9    0.00    4.70
  -5   5   9   -3.60    2.50
   4  -5  -9    8.50    7.20
   4  -5  -9   15.20    9.10
   4  -5  -9   27.60    9.60
   4  -5  -9   10.10    6.20
  -4   5   9   12.50    5.30
  -4   5   9   31.80    8.10
   3  -5  -9    0.60    4.40
   3  -5  -9    3.10    4.30
   3  -5  -9   13.90    7.90
   3  -5  -9    6.10    6.20
  -3   5   9    0.00    4.50
  -3   5   9    0.10    4.00
  -3   5   9    1.60    3.50
   2  -5  -9  108.69   16.70
   2  -5  -9   93.99   13.60
   2  -5  -9  113.19   16.00
  -2   5   9   96.69   11.80
  -2   5   9   93.99   12.10
  -2   5   9   72.39   11.30
   1  -5  -9   62.09   10.20
   1  -5  -9   80.19   11.70
   1  -5  -9  101.19   14.40
  -1   5   9   83.39   11.10
  -1   5   9   64.59    9.60
  -1   5   9   87.89   11.50
   0  -5  -9   88.19   13.10
   0  -5  -9   85.39   12.90
   0  -5  -9   80.99   20.10
   0   5   9   80.19   12.00
   0   5   9   78.39    9.60
   0   5   9   79.39   10.80
  -1  -5  -9   30.90    8.90
  -1  -5  -9   30.10    6.70
  -1  -5  -9   49.80   11.10
   1   5   9   28.40    6.80
   1   5   9   50.19   10.90
  -2  -5  -9  130.29   19.80
  -2  -5  -9   87.99   10.70
  -2  -5  -9   85.19   14.70
   2   5   9   96.09   14.30
   2   5   9  133.19   18.40
  -3  -5  -9   77.09   16.50
  -3  -5  -9  104.69   12.10
  -3  -5  -9   96.19   15.80
   3   5   9   95.69   15.40
   3   5   9  112.89   17.30
   3   5   9  114.79   18.60
  -4  -5  -9   -2.60    2.70
  -4  -5  -9   -8.30    4.00
   4   5   9    3.30    6.20
   4   5   9   -9.10    3.40
   4   5   9    1.30    6.90
  -5  -5  -9   57.49   19.60
  -5  -5  -9   35.10   13.70
  -5  -5  -9   42.70    8.70
   5   5   9   66.09   15.10
   5   5   9   90.59   19.90
  -6  -5  -9    5.60    4.60
   6   5   9   -6.20    6.00
   5  -6  -9    0.80    8.10
   5  -6  -9    5.90    6.10
   4  -6  -9   43.30   13.20
   4  -6  -9   31.30   11.00
   4  -6  -9   63.49   12.40
  -4   6   9   44.10    8.20
   3  -6  -9   -1.10    2.70
   3  -6  -9    5.90    6.10
   3  -6  -9   -0.70    3.90
   3  -6  -9    2.50    6.00
  -3   6   9    2.20    4.50
   2  -6  -9  165.08   14.30
   2  -6  -9  191.68   21.80
   2  -6  -9  166.18   19.00
  -2   6   9  165.48   13.70
  -2   6   9  185.38   10.60
  -2   6   9  154.18    9.50
   1  -6  -9    9.30    5.50
   1  -6  -9   11.00    6.20
   1  -6  -9    5.70    5.40
  -1   6   9    5.60    4.00
  -1   6   9   13.10    4.40
  -1   6   9    8.20    4.90
   0  -6  -9   79.59   12.50
   0  -6  -9   57.59   10.50
   0  -6  -9   60.09   10.40
   0   6   9   62.19    9.70
   0   6   9   71.99   11.10
  -1  -6  -9  184.48   14.30
  -1  -6  -9  177.38   19.40
   1   6   9  181.58   13.30
   1   6   9  201.48   16.10
  -2  -6  -9   69.89   14.90
  -2  -6  -9   66.29   10.50
  -2  -6  -9   67.59   12.90
   2   6   9   72.09   11.50
   2   6   9   79.19   13.60
   2   6   9   96.79   12.00
  -3  -6  -9  223.28   15.70
  -3  -6  -9  181.78   22.80
  -3  -6  -9  204.98   26.50
   3   6   9  206.68   17.90
   3   6   9  173.18   21.90
   3   6   9  169.08   20.60
  -4  -6  -9    0.20    7.60
  -4  -6  -9    4.30    6.00
  -4  -6  -9    8.90    8.80
   4   6   9   -0.70    5.30
   4   6   9   -1.10    6.20
   4   6   9   18.60   10.20
  -5  -6  -9  165.48   14.70
  -5  -6  -9  149.59   38.70
  -5  -6  -9  196.38   28.10
   5   6   9  180.88   24.30
   5   6   9  148.39   24.20
   5   6   9  167.68   28.10
  -6  -6  -9   -1.40    3.60
   6   6   9   -4.30    7.90
   6   6   9    8.80   10.00
   4  -7  -9   12.60    7.20
   4  -7  -9    4.00    6.50
   4  -7  -9    7.10    7.80
   4  -7  -9    9.80    7.00
  -4   7   9    3.00    4.20
   3  -7  -9    8.60    6.00
   3  -7  -9    6.30    4.20
   3  -7  -9    9.80    7.00
   3  -7  -9    9.30    6.80
   2  -7  -9    0.50    3.90
   2  -7  -9    5.00    5.20
   2  -7  -9   -2.20    3.20
  -2   7   9   -4.30    1.60
   1  -7  -9   -0.40    3.30
   1  -7  -9   -2.20    3.20
   1  -7  -9   -3.40    2.90
  -1   7   9    0.30    3.00
   0  -7  -9   30.60    7.90
   0  -7  -9   24.30    8.20
   0  -7  -9   22.20    6.50
   0   7   9   24.60    4.00
   0   7   9   27.20    6.10
  -1  -7  -9   17.20    4.70
  -1  -7  -9   18.80    7.80
  -1  -7  -9   25.40    8.90
   1   7   9   32.90    7.10
   1   7   9   33.80    6.10
  -2  -7  -9   -2.10    4.70
  -2  -7  -9    3.70    5.30
  -2  -7  -9    2.70    3.80
   2   7   9    5.10    5.50
   2   7   9    6.70    4.30
   2   7   9   16.80    4.90
  -3  -7  -9   93.39   16.60
  -3  -7  -9   89.99   13.60
  -3  -7  -9  108.29   17.70
   3   7   9   92.39   13.90
   3   7   9   99.89   14.00
   3   7   9   86.89   14.70
  -4  -7  -9   23.00    7.20
  -4  -7  -9   27.20   12.20
  -4  -7  -9   14.50    9.20
   4   7   9   16.40    8.40
   4   7   9   34.10    8.70
   4   7   9   12.60    8.80
  -5  -7  -9    3.80    8.50
  -5  -7  -9   22.10    6.50
   5   7   9    2.70    7.80
   5   7   9    8.70    8.20
   5   7   9   13.70   10.50
  -6  -7  -9    5.10   10.20
  -6  -7  -9    6.40    5.80
   6   7   9   -2.50    7.70
   6   7   9    0.10    7.10
   4  -8  -9    2.70    7.30
   4  -8  -9   -5.70    4.20
   4  -8  -9    0.00    6.20
   4  -8  -9    7.00    6.60
  -4   8   9    4.00    4.60
   3  -8  -9   65.69   13.50
   3  -8  -9   50.99    9.20
   3  -8  -9   49.50   10.70
   2  -8  -9   35.60    8.80
   2  -8  -9   22.70    7.50
   2  -8  -9   48.00   10.40
  -2   8   9   32.50    8.10
   1  -8  -9  121.99   14.30
   1  -8  -9  158.68   18.80
   1  -8  -9  124.49   14.20
  -1   8   9  139.19   15.90
   0  -8  -9   49.40    8.80
   0  -8  -9   60.19   10.00
   0  -8  -9   68.69   10.80
  -1  -8  -9   56.99   10.80
  -1  -8  -9   67.99   11.60
  -2  -8  -9    2.40    5.60
  -2  -8  -9    4.20    3.90
  -2  -8  -9   11.10    7.20
   2   8   9   12.80    5.60
   2   8   9   16.70    7.30
  -3  -8  -9   36.10   12.60
  -3  -8  -9   59.39   12.90
  -3  -8  -9   39.60    9.60
   3   8   9   42.20    9.80
   3   8   9   55.19   10.70
   3   8   9   49.40    9.30
  -4  -8  -9    7.60    5.30
  -4  -8  -9    5.50    8.00
  -4  -8  -9   13.70   10.30
   4   8   9   11.70    7.60
   4   8   9    7.10    5.80
   4   8   9    3.70    5.90
  -5  -8  -9  166.48   25.80
  -5  -8  -9  245.68   18.70
   5   8   9  195.08   26.00
   5   8   9  177.58   22.90
  -6  -8  -9   24.10   11.20
  -6  -8  -9    5.30    6.30
   6   8   9   -0.40    7.80
   6   8   9    7.50   11.10
   4  -9  -9    1.20    5.50
   4  -9  -9    3.80    6.80
   4  -9  -9    0.90    5.20
   4  -9  -9    3.50    6.70
  -4   9   9    0.10    4.20
   3  -9  -9    3.50    4.70
   3  -9  -9    1.60    4.60
   3  -9  -9   -1.60    4.30
   3  -9  -9    2.80    5.30
   3  -9  -9    0.40    2.70
   2  -9  -9    0.20    4.50
   2  -9  -9    0.00    3.60
   1  -9  -9    4.60    4.40
   1  -9  -9    4.30    3.90
   1  -9  -9    3.60    4.70
   0  -9  -9    5.70    4.80
   0  -9  -9    5.60    4.60
  -1  -9  -9    0.80    4.50
  -1  -9  -9    0.80    4.40
  -1  -9  -9   -1.20    3.90
  -2  -9  -9    1.40    5.80
  -2  -9  -9   -5.30    4.60
  -2  -9  -9    3.10    4.10
  -3  -9  -9   76.59   15.60
  -3  -9  -9   90.09   17.20
  -3  -9  -9   79.19   13.30
   3   9   9  101.39   12.60
   3   9   9   75.39    9.90
   3   9   9   87.09   12.00
  -4  -9  -9    4.30    6.90
  -4  -9  -9    9.20   11.90
  -4  -9  -9    5.10    5.90
   4   9   9   16.40    6.60
   4   9   9    2.80    5.70
   4   9   9    6.40    6.80
  -5  -9  -9   10.20   10.50
  -5  -9  -9    5.30    5.60
   5   9   9    8.40    6.80
   5   9   9    6.50    8.60
   5   9   9    0.50    6.90
  -6  -9  -9    1.50   10.20
  -6  -9  -9   11.40    8.20
   6   9   9   -3.90    5.50
   6   9   9   -4.80    5.00
   3 -10  -9   -5.00    3.00
   3 -10  -9    2.40    5.00
   3 -10  -9    2.60    3.10
   3 -10  -9    0.50    5.20
   3 -10  -9   -1.20    4.70
   2 -10  -9   16.60    6.60
   2 -10  -9   17.80    7.60
   1 -10  -9   22.70    8.40
   1 -10  -9   13.80    5.60
   1 -10  -9   15.30    4.90
   0 -10  -9  128.29   14.90
   0 -10  -9  147.99   12.90
   0 -10  -9  165.58   13.60
  -1 -10  -9    5.50    5.60
  -1 -10  -9   11.40    6.70
  -1 -10  -9   13.20    5.30
  -2 -10  -9  173.38   19.00
  -2 -10  -9  142.29   18.20
  -2 -10  -9  140.79   19.60
  -3 -10  -9    5.70    7.40
  -3 -10  -9   16.60   11.10
  -3 -10  -9    7.50    6.00
   3  10   9    9.30    3.50
   3  10   9   22.70    6.30
   3  10   9    8.90    3.10
  -4 -10  -9    5.80    7.60
  -4 -10  -9   10.30   14.80
  -4 -10  -9    1.80    5.10
   4  10   9   -0.80    3.80
   4  10   9    0.10    4.10
   4  10   9    5.50    6.60
  -5 -10  -9   27.10   12.60
  -5 -10  -9   49.40   10.40
   5  10   9   52.39   10.60
   5  10   9   38.20   11.90
   5  10   9   56.89   12.00
   3 -11  -9   15.10    8.10
   3 -11  -9    9.80    7.10
   3 -11  -9   17.30    9.10
   3 -11  -9   23.60    7.90
   3 -11  -9   16.40    6.20
   2 -11  -9    1.00    5.40
   2 -11  -9    0.50    4.10
   2 -11  -9    2.20    4.10
   1 -11  -9    0.90    4.50
   1 -11  -9    3.20    4.20
   1 -11  -9   -2.10    2.50
   0 -11  -9    8.90    5.20
   0 -11  -9   33.40    9.70
   0 -11  -9   16.70    6.00
  -1 -11  -9    6.20    5.70
  -1 -11  -9    0.20    4.20
  -1 -11  -9    4.10    5.90
  -2 -11  -9   24.90   10.20
  -2 -11  -9   28.20    9.80
  -3 -11  -9    1.80    7.80
  -3 -11  -9    5.90    6.30
  -3 -11  -9    7.50   11.40
   3  11   9    8.80    4.70
  -4 -11  -9   -5.10    7.30
  -4 -11  -9   -3.20    6.10
  -4 -11  -9   -3.60    3.50
   4  11   9    0.40    4.30
  -5 -11  -9   90.89   20.00
   5  11   9   81.39   13.30
   5  11   9   73.39   16.90
   5  11   9   69.89   11.00
   2 -12  -9   27.40    6.70
   2 -12  -9   38.60    9.40
   2 -12  -9   53.89   10.50
   1 -12  -9   46.70    8.30
   1 -12  -9   41.30    9.90
   0 -12  -9   13.60    5.80
   0 -12  -9   20.40    7.10
   0 -12  -9   31.70    9.00
  -1 -12  -9    6.40    5.50
  -1 -12  -9   -0.80    4.70
  -1 -12  -9   -1.00    3.20
  -2 -12  -9   25.10    7.00
  -2 -12  -9   16.60    9.40
  -2 -12  -9   36.20    9.70
  -3 -12  -9   28.00    7.40
  -3 -12  -9   44.10   14.60
  -3 -12  -9   25.80   11.90
   3  12   9   34.00    8.00
  -4 -12  -9    0.90    5.00
  -4 -12  -9    4.90    9.70
  -4 -12  -9   -2.90    6.20
   4  12   9   -2.80    4.40
  -5 -12  -9   -1.60    7.30
  -5 -12  -9    9.90    7.80
   5  12   9    8.00    4.70
   5  12   9    6.30    4.40
   1 -13  -9    8.60    5.00
   1 -13  -9   21.80    9.40
   1 -13  -9   13.50    4.90
   0 -13  -9   -4.50    3.60
   0 -13  -9   -0.40    4.40
   0 -13  -9    2.40    4.50
  -1 -13  -9   33.90    7.90
  -1 -13  -9   38.60   14.50
  -2 -13  -9   -4.10    3.70
  -2 -13  -9   -2.90    3.60
  -2 -13  -9    2.50    6.80
  -2 -13  -9   -7.50    2.90
  -3 -13  -9   51.69   15.30
  -3 -13  -9   35.50   12.60
   3  13   9   55.89   10.00
  -4 -13  -9   13.60   10.30
  -4 -13  -9    4.80    5.90
  -4 -13  -9   16.10   11.00
   4  13   9    9.20    6.90
  -1 -14  -9    2.50    4.70
  -1 -14  -9    0.30    5.30
  -2 -14  -9   31.10   10.40
  -2 -14  -9   39.50   11.10
  -2 -14  -9   43.50   10.50
  -2 -14  -9   52.49   14.70
  -3 -14  -9   -1.20    8.30
  -3 -14  -9    1.40    5.00
  -3 -14  -9    6.10    6.50
   3   6 -10    7.20   10.40
  -3  -6  10   17.20   11.20
  -3  -6  10   -1.90    7.30
   2   6 -10    9.30    7.60
   2   6 -10   11.20   10.20
  -2  -6  10    0.40    6.30
  -2  -6  10    6.60    7.30
  -2  -6  10   18.70   10.90
   1   6 -10    6.40    8.20
  -1  -6  10    4.10    4.50
  -1  -6  10    0.30    5.00
  -1  -6  10   -2.80    4.60
   0   6 -10   48.80   13.90
   0  -6  10   58.39   10.20
   0  -6  10   57.99   16.90
   0  -6  10   62.49   15.70
  -1   6 -10   -1.90    6.10
   1  -6  10    3.80    6.90
   1  -6  10    2.00    3.80
   4   5 -10   12.00   11.10
  -4  -5  10   10.90   10.20
  -4  -5  10   -3.80    7.30
   3   5 -10    9.50    9.80
  -3  -5  10   27.50   12.40
  -3  -5  10   22.30   12.10
   2   5 -10    0.20    5.20
   2   5 -10   -2.60    5.90
  -2  -5  10   -3.20    5.00
  -2  -5  10   -2.60    4.80
  -2  -5  10   -5.20    5.20
   1   5 -10   11.20   10.10
   1   5 -10   26.60   11.00
  -1  -5  10   45.00    9.40
  -1  -5  10   20.50   11.70
  -1  -5  10   44.60   12.90
   0   5 -10   -6.10    4.60
   0  -5  10   -5.50    4.10
   0  -5  10    0.20    5.70
   0  -5  10    1.00    4.50
  -1   5 -10   69.69   15.50
   1  -5  10  102.79   11.20
   1  -5  10   91.19   19.80
  -2   5 -10    6.40    8.30
   2  -5  10    3.20   15.60
   4   4 -10   -5.80    5.70
  -4  -4  10   -1.70    6.80
  -4  -4  10   -5.70    5.50
   3   4 -10    6.90    7.60
   3   4 -10    5.20    9.10
   3   4 -10   24.10   11.40
   3   4 -10   15.70    8.80
  -3  -4  10   23.30    9.90
  -3  -4  10   15.20   13.50
  -3  -4  10    7.70    8.30
   2   4 -10    1.60    5.10
   2   4 -10    7.30    8.30
   2   4 -10    3.90    7.50
  -2  -4  10    1.50    6.00
  -2  -4  10   -6.10    4.20
  -2  -4  10    3.70    6.60
  -2  -4  10    1.50    7.40
   1   4 -10    9.30    6.90
   1   4 -10   11.00    8.00
  -1  -4  10   -2.40    4.90
  -1  -4  10    0.00    4.40
  -1  -4  10    6.50    8.60
  -1  -4  10   -4.50    3.90
   0   4 -10   10.70    6.30
   0  -4  10   14.40    8.40
   0  -4  10   21.40    6.50
   0  -4  10   18.90   10.00
   0  -4  10   15.30    8.30
  -1   4 -10    4.40    6.20
  -1   4 -10    0.80    4.30
   1  -4  10    1.60    6.90
   1  -4  10   -2.90    4.60
   1  -4  10    6.80    7.50
  -2   4 -10    0.00    5.30
   2  -4  10    0.50    5.70
   2  -4  10   -3.70    3.60
  -3   4 -10   10.50    8.30
   3  -4  10    4.00    7.40
   3  -4  10    9.80    7.90
   5   3 -10   18.00   13.80
  -5  -3  10   -1.30    8.40
  -5  -3  10   -0.40    7.40
   4   3 -10   37.10   15.60
   4   3 -10   18.00    9.40
   4   3 -10   36.80   12.10
  -4  -3  10   33.80   12.80
  -4  -3  10   34.40   14.80
   3   3 -10   14.30   10.00
   3   3 -10    1.00    5.10
   3   3 -10   17.10    8.90
   3   3 -10   14.40    8.50
  -3  -3  10    7.50    6.80
  -3  -3  10    8.10    8.90
  -3  -3  10   17.00   10.90
  -3  -3  10   15.20    9.80
   2   3 -10   21.50   10.80
   2   3 -10    5.00    7.30
  -2  -3  10    6.90    7.20
  -2  -3  10    3.80    5.20
  -2  -3  10   -0.50    5.80
   1   3 -10   40.50   12.00
   1   3 -10   26.40    9.20
  -1  -3  10   54.29   11.40
  -1  -3  10   13.80    7.50
  -1  -3  10   28.70   13.40
  -1  -3  10   55.69   11.00
   0   3 -10    8.90    6.50
   0   3 -10   -1.90    5.50
   0  -3  10    4.90    6.50
   0  -3  10    2.00    5.50
   0  -3  10    9.50    7.20
   0  -3  10    1.10    4.30
  -1   3 -10   30.00    8.90
  -1   3 -10   14.10    6.90
   1  -3  10    8.70    7.40
   1  -3  10   14.10    9.00
   1  -3  10   13.10    8.40
   1  -3  10   24.50    6.80
  -2   3 -10   -2.70    3.70
  -2   3 -10    7.50    7.80
   2  -3  10   -2.50    4.80
   2  -3  10    2.00    6.00
  -3   3 -10    6.90    9.00
  -3   3 -10    4.60    7.30
   3  -3  10   11.80    8.50
   3  -3  10   -0.20    6.40
   5   2 -10    1.60    6.70
   5   2 -10   -0.10    8.60
  -5  -2  10   15.60   12.00
  -5  -2  10   13.40   11.80
   4   2 -10   40.30   11.40
   4   2 -10   76.59   17.70
   4   2 -10   43.60   13.20
  -4  -2  10   47.60   17.70
  -4  -2  10   52.39   14.60
   3   2 -10    2.30    4.20
   3   2 -10   -1.00    4.10
   3   2 -10   -4.10    5.50
   3   2 -10    6.20    7.30
  -3  -2  10    4.60    7.30
  -3  -2  10    4.20    9.70
  -3  -2  10    8.50    6.60
  -3  -2  10   -0.10    6.20
   2   2 -10    0.60    3.80
   2   2 -10    6.20    7.50
   2   2 -10    0.50    6.00
  -2  -2  10    0.70    5.00
  -2  -2  10    9.30    8.40
  -2  -2  10    7.10    5.50
   1   2 -10   17.30    9.40
   1   2 -10   21.20    8.90
  -1  -2  10   35.80    8.90
  -1  -2  10   13.50    8.60
  -1  -2  10    7.80    6.10
   0   2 -10   -6.90    3.20
   0   2 -10   -2.70    4.70
   0   2 -10   -5.50    4.00
   0  -2  10   -2.80    4.10
   0  -2  10   -4.40    2.20
   0  -2  10    1.20    5.30
  -1   2 -10    3.40    5.00
  -1   2 -10    1.70    5.80
  -1   2 -10    2.80    6.10
   1  -2  10    1.80    6.20
   1  -2  10    2.00    5.40
   1  -2  10    0.70    3.10
  -2   2 -10   61.59   13.50
  -2   2 -10   69.59    9.90
   2  -2  10   58.19   13.10
   2  -2  10   41.60   11.40
   2  -2  10   63.29   15.50
  -3   2 -10   35.30    6.40
  -3   2 -10   44.80   12.90
  -3   2 -10   11.20    8.50
   3  -2  10   19.30   10.00
   3  -2  10   29.60   10.30
  -4   2 -10    6.90    9.30
  -4   2 -10   17.10   10.00
   4  -2  10   27.10   10.40
   5   1 -10   18.20   19.90
   5   1 -10    6.10    9.40
   5   1 -10   14.40    8.00
  -5  -1  10   34.40   15.70
  -5  -1  10    4.60    9.50
   4   1 -10    5.30    4.50
   4   1 -10    5.50    8.10
   4   1 -10   -2.50    5.60
  -4  -1  10    5.00    8.20
  -4  -1  10   11.40   11.20
  -4  -1  10    8.90    7.30
   3   1 -10    9.40    8.40
   3   1 -10    5.90    5.70
   3   1 -10    9.50    7.80
   3   1 -10   10.50    7.90
  -3  -1  10   -0.70    4.10
  -3  -1  10    3.60    7.70
  -3  -1  10   16.50    9.10
   2   1 -10    8.70    7.30
   2   1 -10    3.80    6.30
   2   1 -10    2.10    4.20
  -2  -1  10   -1.90    4.70
  -2  -1  10    3.10    5.60
  -2  -1  10    0.30    4.10
   1   1 -10    7.90    6.40
   1   1 -10   -1.90    4.00
   1   1 -10   -1.40    6.40
  -1  -1  10   -2.50    3.70
  -1  -1  10   -1.60    4.80
  -1  -1  10    0.20    3.40
   0   1 -10   -3.30    4.30
   0   1 -10    2.50    5.70
   0   1 -10   -2.70    7.80
   0  -1  10    4.50    5.50
   0  -1  10   -2.00    3.00
   0  -1  10    6.00    6.30
  -1   1 -10   14.50    8.90
  -1   1 -10   16.50    9.60
  -1   1 -10   10.90    6.10
   1  -1  10    9.80    7.30
   1  -1  10   21.70    5.60
   1  -1  10   16.10    7.70
  -2   1 -10    0.40    4.10
  -2   1 -10    0.80    5.90
   2  -1  10   -1.70    7.20
   2  -1  10    8.00    6.30
   2  -1  10   -0.80    3.70
  -3   1 -10   10.80    5.60
  -3   1 -10    2.50    7.20
  -3   1 -10   -1.30    7.20
   3  -1  10   -3.10    4.50
   3  -1  10   -5.10    4.60
  -4   1 -10   -6.00    5.00
  -4   1 -10   -3.70    7.00
   4  -1  10   10.60    6.80
   5   0 -10   25.30   12.80
   5   0 -10   43.80   16.60
  -5   0  10   34.50   12.30
  -5   0  10   61.79   18.20
   4   0 -10    0.70    7.20
   4   0 -10    4.50    4.60
   4   0 -10    2.00    6.70
   4   0 -10    6.20    5.30
  -4   0  10    4.10    6.40
  -4   0  10    4.30    7.30
  -4   0  10   -5.70    5.10
  -4   0  10    6.30    5.40
   3   0 -10   -0.90    5.60
   3   0 -10    2.00    4.60
   3   0 -10    3.10    6.80
  -3   0  10   -4.70    3.80
  -3   0  10    5.90    6.90
   2   0 -10   62.69   15.00
   2   0 -10   46.70   12.00
   2   0 -10   58.49   10.40
  -2   0  10   86.29   16.60
  -2   0  10   59.89   12.50
  -2   0  10   58.89   11.20
   1   0 -10   12.50    8.80
   1   0 -10    7.40    7.50
   1   0 -10   10.00    7.10
  -1   0  10    9.40    6.90
  -1   0  10   15.80    7.60
  -1   0  10   16.50    6.00
  -1   0  10   12.60    7.20
   0   0 -10    4.30    5.40
   0   0 -10    9.10    6.20
   0   0 -10   16.40    6.90
   0   0  10   13.20    8.00
   0   0  10   10.10    5.90
   0   0  10    7.50    4.90
   0   0  10    5.80    5.70
  -1   0 -10   83.19   11.80
  -1   0 -10   81.59   15.10
  -1   0 -10  105.79   18.80
   1   0  10   99.59   15.60
   1   0  10   99.39   18.40
   1   0  10   65.69    9.10
  -2   0 -10   21.20    9.10
  -2   0 -10   32.90   17.30
  -2   0 -10   30.30    7.40
   2   0  10   29.60    9.20
   2   0  10   24.00    8.00
  -3   0 -10   13.20    5.70
  -3   0 -10   20.80   10.20
   3   0  10   11.50    8.70
   3   0  10    0.90    6.60
  -4   0 -10    9.00    5.10
  -4   0 -10   13.70   10.00
  -4   0 -10    1.10    7.80
   4   0  10   -2.80    6.20
  -5   0 -10   -1.20    3.20
  -5   0 -10    4.90    7.70
   5   0  10   -1.70    6.70
   5  -1 -10   -3.80    5.60
   5  -1 -10   -7.80    4.90
   5  -1 -10   -1.20    5.30
  -5   1  10   -7.00    5.00
  -5   1  10    0.90    7.70
  -5   1  10    0.80    6.60
   4  -1 -10    6.00    4.80
   4  -1 -10    7.50    8.50
   4  -1 -10    8.90    6.80
   4  -1 -10    4.00    7.80
  -4   1  10    6.00    8.90
  -4   1  10   21.40    7.00
  -4   1  10    9.70    8.90
   3  -1 -10   -1.30    5.80
   3  -1 -10    5.40    7.30
   3  -1 -10   15.40    7.20
   3  -1 -10    2.80    4.30
  -3   1  10   14.20    8.40
  -3   1  10    4.10    5.60
   2  -1 -10   -2.00    4.00
   2  -1 -10   -8.50    8.00
   2  -1 -10    0.70    3.20
   2  -1 -10    6.50    8.10
  -2   1  10   -5.80    2.50
  -2   1  10    1.00    6.10
  -2   1  10    4.50    5.80
   1  -1 -10   10.20    7.60
   1  -1 -10   10.30    6.20
   1  -1 -10    9.50    6.90
  -1   1  10   10.40    5.40
  -1   1  10   12.60    6.90
  -1   1  10    7.90    5.50
  -1   1  10   11.20    6.70
   0  -1 -10    5.90    5.70
   0  -1 -10   10.00    7.60
   0  -1 -10    6.10    6.10
   0   1  10    2.30    5.10
   0   1  10    2.20    4.70
   0   1  10   13.80    5.80
  -1  -1 -10   12.00    7.30
  -1  -1 -10   16.60    7.00
  -1  -1 -10   15.20    9.10
   1   1  10   35.10    8.30
   1   1  10   14.10    8.30
   1   1  10   24.20    8.20
   1   1  10   23.60    6.40
  -2  -1 -10   51.59   11.70
  -2  -1 -10   39.50   11.20
  -2  -1 -10   43.10    8.90
   2   1  10   51.89   11.80
   2   1  10   46.60   10.90
  -3  -1 -10   23.00    6.40
  -3  -1 -10   10.10    9.60
  -3  -1 -10    9.00    7.20
   3   1  10   16.10    9.00
  -4  -1 -10   -0.20    3.80
  -4  -1 -10    4.80    7.10
  -4  -1 -10    1.50    6.20
   4   1  10    3.60    6.90
  -5  -1 -10   -1.20    7.30
  -5  -1 -10   -2.00    3.50
   5   1  10    7.90    9.50
   5  -2 -10   75.29   15.90
   5  -2 -10   85.39   20.00
  -5   2  10   79.99   17.70
   4  -2 -10    6.00    6.50
   4  -2 -10    4.80    8.10
   4  -2 -10   -5.20    4.80
   4  -2 -10    3.00    4.80
  -4   2  10    3.60    6.30
  -4   2  10    5.50    6.30
  -4   2  10   11.50    7.30
   3  -2 -10  163.08   23.00
   3  -2 -10  114.99   18.20
   3  -2 -10  118.39   14.90
   3  -2 -10  124.89   17.10
  -3   2  10  164.58   19.80
  -3   2  10  131.29   19.90
  -3   2  10  146.79   19.90
   2  -2 -10   24.70   11.50
   2  -2 -10   18.40    8.60
   2  -2 -10   25.20    8.40
   2  -2 -10   31.10    6.30
  -2   2  10   47.90   10.60
  -2   2  10   17.80    6.90
  -2   2  10   31.80    8.90
  -2   2  10   39.30    9.50
   1  -2 -10   33.90    8.90
   1  -2 -10   27.00    9.00
   1  -2 -10   58.69   12.40
  -1   2  10   63.79   10.80
  -1   2  10   37.90    8.40
  -1   2  10   47.00   10.20
  -1   2  10   33.90    9.40
   0  -2 -10   78.09   14.80
   0  -2 -10   72.39   14.50
   0   2  10   86.09   12.20
   0   2  10   82.39   13.50
   0   2  10   79.49   10.90
   0   2  10   84.29   14.20
  -1  -2 -10  111.49   17.20
  -1  -2 -10  126.59   18.10
  -1  -2 -10  119.79   14.00
   1   2  10  110.79   12.00
   1   2  10  124.99   18.90
   1   2  10  119.09   11.20
   1   2  10  104.69   15.40
  -2  -2 -10   77.89   11.10
   2   2  10  128.89   21.40
   2   2  10   83.19   14.80
  -3  -2 -10    6.70    6.90
  -3  -2 -10    1.50    4.30
   3   2  10   -0.10    5.70
  -4  -2 -10   96.59   12.30
  -4  -2 -10   65.09   17.50
  -4  -2 -10   71.49   14.50
   4   2  10   80.19   17.50
   4   2  10   81.29   19.40
  -5  -2 -10   12.60    5.90
  -5  -2 -10    6.40    9.30
   5   2  10   -5.00    6.00
   5  -3 -10   16.50    9.30
   5  -3 -10   23.30   11.90
   5  -3 -10   40.80   14.40
  -5   3  10   17.40    8.30
   4  -3 -10   12.00    8.80
   4  -3 -10    9.50    6.80
   4  -3 -10   14.60    6.80
   4  -3 -10   27.90   10.60
  -4   3  10   24.50    8.80
  -4   3  10    9.80    7.70
  -4   3  10   31.20    8.60
   3  -3 -10    2.30    4.80
   3  -3 -10   -5.10    5.00
   3  -3 -10   -2.60    4.90
   3  -3 -10   -3.20    1.60
  -3   3  10    0.90    6.10
  -3   3  10    4.20    6.30
  -3   3  10    0.80    4.50
   2  -3 -10   -3.40    2.90
   2  -3 -10   -1.20    1.70
   2  -3 -10    4.70    5.40
   2  -3 -10   -8.70    6.80
  -2   3  10    2.30    4.80
  -2   3  10    4.70    5.60
  -2   3  10    0.80    4.50
   1  -3 -10   14.50    7.50
   1  -3 -10   12.60    7.10
   1  -3 -10    3.60    5.10
  -1   3  10    3.50    4.00
  -1   3  10    3.30    4.80
  -1   3  10    4.30    5.70
  -1   3  10   20.20    6.80
   0  -3 -10   24.30    8.40
   0  -3 -10   12.90    7.20
   0  -3 -10   12.20    6.60
   0   3  10   20.70    6.30
   0   3  10   25.10    6.40
   0   3  10   34.00   10.20
   0   3  10   13.10    6.20
  -1  -3 -10   40.20    8.30
  -1  -3 -10   83.69   14.50
  -1  -3 -10   59.79   13.30
   1   3  10   57.49    8.60
   1   3  10   43.80    9.80
   1   3  10   55.39   12.80
  -2  -3 -10   92.39   13.10
  -2  -3 -10   66.19   13.50
   2   3  10   97.29   16.20
   2   3  10   67.69   13.90
  -3  -3 -10   11.80    5.30
  -3  -3 -10    9.10    7.80
   3   3  10    8.40    7.10
  -4  -3 -10    0.90    7.40
  -4  -3 -10    5.70    7.90
  -4  -3 -10    4.20    4.30
   4   3  10    0.60    5.70
   4   3  10    3.90    8.00
   4   3  10   -5.10    6.60
  -5  -3 -10    3.60    4.60
  -5  -3 -10   -4.70    5.30
   5   3  10   -5.00    6.20
   5   3  10   -4.20    6.60
   5  -4 -10   12.50   10.20
   5  -4 -10    7.90    7.30
   5  -4 -10    8.50    7.50
  -5   4  10    6.20    5.40
  -5   4  10   14.70    8.10
   4  -4 -10   -5.10    5.00
   4  -4 -10    1.80    7.00
   4  -4 -10    3.50    5.50
   4  -4 -10    3.40    6.50
  -4   4  10    4.10    5.30
  -4   4  10    2.70    6.10
  -4   4  10    5.30    5.40
   3  -4 -10   32.50    6.50
   3  -4 -10   42.20   11.70
   3  -4 -10   47.20   11.90
   3  -4 -10   53.69   11.50
  -3   4  10   33.90    9.40
  -3   4  10   41.30    8.90
   2  -4 -10   -1.20    3.60
   2  -4 -10   -0.10    5.20
   2  -4 -10   -0.40    1.90
   2  -4 -10    2.10    8.80
  -2   4  10    5.30    5.50
   1  -4 -10   24.50    7.40
   1  -4 -10   16.30    6.20
   1  -4 -10   35.90   10.00
  -1   4  10   21.90    6.10
   0  -4 -10   10.00    5.70
   0  -4 -10   11.50    6.90
   0  -4 -10    8.60    6.80
   0   4  10   28.10    7.70
   0   4  10    2.30    5.50
   0   4  10    7.50    4.60
  -1  -4 -10    2.20    4.00
  -1  -4 -10    7.00    6.80
   1   4  10    7.20    5.40
   1   4  10   -0.20    3.30
   1   4  10   10.80    7.70
   1   4  10    8.30    3.90
  -2  -4 -10    7.60    6.80
  -2  -4 -10    6.80    5.50
  -2  -4 -10    1.70    6.70
   2   4  10    5.50    7.20
   2   4  10   -2.40    4.10
  -3  -4 -10  196.08   15.00
  -3  -4 -10  205.38   24.10
   3   4  10  208.28   26.90
   3   4  10  216.58   30.90
  -4  -4 -10  157.58   24.90
  -4  -4 -10  143.89   12.50
  -4  -4 -10  105.39   17.90
   4   4  10  113.09   20.00
   4   4  10  100.49   17.90
   4   4  10  104.09   20.70
  -5  -4 -10   17.20    7.50
  -5  -4 -10   26.80   12.70
   5   4  10   20.60   10.80
   5   4  10    4.30    9.10
   5  -5 -10   -0.60    4.40
   5  -5 -10    0.60    7.40
   5  -5 -10    3.30    6.60
  -5   5  10    0.30    3.40
  -5   5  10    4.20    5.60
   4  -5 -10    7.50    7.40
   4  -5 -10    7.70    6.40
   4  -5 -10    1.50    7.10
   4  -5 -10   10.10    6.50
  -4   5  10    9.10    6.20
  -4   5  10    7.80    5.90
  -4   5  10    6.40    5.00
   3  -5 -10    0.00    2.50
   3  -5 -10   -0.80    3.80
   3  -5 -10   -0.10    4.80
   3  -5 -10    3.90    7.10
  -3   5  10    4.60    4.80
  -3   5  10   -4.90    3.20
  -3   5  10    6.30    4.50
   2  -5 -10   56.19   11.20
   2  -5 -10   61.89   12.20
   2  -5 -10   56.19   12.00
  -2   5  10   54.89    9.40
  -2   5  10   54.99   10.70
  -2   5  10   78.69   11.60
   1  -5 -10   40.70   10.20
   1  -5 -10   26.70    8.30
   1  -5 -10   45.40    9.40
  -1   5  10   42.30    9.10
  -1   5  10   46.40    8.90
  -1   5  10   51.39    8.90
   0  -5 -10   54.09   10.90
   0  -5 -10   70.29   12.80
   0  -5 -10   74.89   13.20
   0   5  10   75.99   12.90
   0   5  10   58.29   10.20
   0   5  10   64.89   10.50
  -1  -5 -10    5.90    5.80
  -1  -5 -10    4.20    4.10
  -1  -5 -10   10.90    6.60
   1   5  10   11.70    6.30
   1   5  10   10.40    7.90
  -2  -5 -10  112.09   19.70
  -2  -5 -10  100.39   16.30
  -2  -5 -10  138.49   16.90
   2   5  10  102.59   15.80
   2   5  10  114.79   14.80
   2   5  10  110.69   17.50
  -3  -5 -10   35.10   13.20
  -3  -5 -10   34.40   10.60
  -3  -5 -10   24.00    7.40
   3   5  10   27.90    8.90
   3   5  10   26.80   11.30
   3   5  10   22.40    9.60
  -4  -5 -10   45.00   11.20
  -4  -5 -10   43.70   12.70
   4   5  10   47.10   12.50
   4   5  10   23.20   13.00
   4   5  10   44.60   12.10
  -5  -5 -10   -2.60    5.80
  -5  -5 -10    2.30    4.40
   5   5  10    2.80    7.00
   5  -6 -10   44.10   12.00
   4  -6 -10    0.00    6.20
   4  -6 -10    1.70    3.80
   4  -6 -10    4.00    8.20
   4  -6 -10   -3.10    3.80
  -4   6  10   -2.50    2.70
   3  -6 -10   22.30    7.70
   3  -6 -10   44.40   10.40
  -3   6  10   15.00    5.00
  -3   6  10   16.10    4.70
   2  -6 -10    8.60    6.30
   2  -6 -10    9.10    6.10
   2  -6 -10    7.60    5.60
  -2   6  10    8.30    4.30
  -2   6  10   27.60    9.70
  -2   6  10   10.30    5.20
   1  -6 -10   68.89   12.60
   1  -6 -10   65.19   12.40
   1  -6 -10   84.19   12.80
  -1   6  10   96.19   15.00
  -1   6  10   98.59   12.00
  -1   6  10   84.99   11.90
   0  -6 -10   12.90    6.40
   0  -6 -10   10.40    6.30
   0  -6 -10   28.10    8.00
   0   6  10   20.60    7.70
   0   6  10    4.40    3.90
   0   6  10   27.10    6.20
  -1  -6 -10   34.90    9.60
  -1  -6 -10   16.00    8.10
  -1  -6 -10    7.70    5.10
   1   6  10   15.50    6.10
   1   6  10    4.90    5.60
  -2  -6 -10    1.10    6.50
  -2  -6 -10    3.40    5.60
  -2  -6 -10    2.00    3.70
   2   6  10   -2.00    5.00
   2   6  10    3.20    4.00
   2   6  10   -3.60    3.10
  -3  -6 -10  238.58   30.40
  -3  -6 -10  249.88   17.70
  -3  -6 -10  244.88   27.90
   3   6  10  257.67   21.00
   3   6  10  217.28   19.30
   3   6  10  276.77   30.30
  -4  -6 -10   71.09   16.20
  -4  -6 -10   40.90   15.40
  -4  -6 -10   45.80    8.70
   4   6  10   59.79   13.80
   4   6  10   49.20   12.20
  -5  -6 -10    6.60    5.30
  -5  -6 -10   -1.90    5.70
   5   6  10    5.50    8.70
   5   6  10    1.10    6.00
  -6  -6 -10   76.89   11.80
   6   6  10   99.89   27.70
   4  -7 -10   -3.70    4.80
   4  -7 -10    8.50    6.90
   4  -7 -10    1.90    7.20
   4  -7 -10    3.00    4.50
  -4   7  10    1.20    4.20
   3  -7 -10   15.70    7.20
   3  -7 -10   22.20   14.70
   3  -7 -10   30.80   10.30
  -3   7  10   22.70    6.50
   2  -7 -10   52.99   11.10
   2  -7 -10   57.19   12.70
   2  -7 -10   42.40    9.60
   1  -7 -10   -1.80    3.90
   1  -7 -10    8.50    5.90
   1  -7 -10    2.50    4.10
  -1   7  10    2.50    3.70
   0  -7 -10  140.89   17.10
   0  -7 -10  103.49   15.30
   0  -7 -10  138.19   17.10
   0   7  10  106.69    9.20
   0   7  10  131.49   10.60
   0   7  10   93.19   17.90
  -1  -7 -10   -0.20    4.20
  -1  -7 -10    8.30    5.20
  -1  -7 -10   -2.40    4.30
   1   7  10    5.90    4.20
   1   7  10   -1.00    3.60
  -2  -7 -10    3.10    6.10
  -2  -7 -10    3.30    6.60
  -2  -7 -10    3.50    7.60
   2   7  10    7.60    6.80
   2   7  10    8.20    4.50
  -3  -7 -10   20.30    9.70
  -3  -7 -10    8.10    5.10
  -3  -7 -10   17.10   10.40
   3   7  10   14.20    6.20
   3   7  10    3.20    5.70
  -4  -7 -10   68.79   14.90
  -4  -7 -10   46.70   14.50
  -4  -7 -10   47.80    9.80
   4   7  10   63.69   15.20
   4   7  10   67.69   15.60
   4   7  10   65.69   15.40
  -5  -7 -10    3.60    5.00
  -5  -7 -10    8.30    8.60
   5   7  10    5.90    7.30
   5   7  10    9.60    9.10
   5   7  10   13.60    9.50
   4  -8 -10   22.50   11.20
   4  -8 -10   26.50    8.70
   4  -8 -10   25.90    9.80
   4  -8 -10   11.70    6.40
   3  -8 -10   62.79   15.80
   3  -8 -10   36.40    9.50
   3  -8 -10   34.00   10.30
  -3   8  10   45.80    8.50
   2  -8 -10   39.50    8.10
   2  -8 -10   69.99   13.90
   2  -8 -10   42.60    9.60
  -2   8  10   24.40    7.90
   1  -8 -10   18.40    7.40
   1  -8 -10   16.70    8.10
   1  -8 -10    9.50    6.00
   0  -8 -10    4.00    5.20
   0  -8 -10   -0.40    3.90
   0  -8 -10    2.30    4.70
  -1  -8 -10    2.90    4.20
  -1  -8 -10   10.60    6.70
  -1  -8 -10    8.30    6.30
   1   8  10   12.00    4.90
  -2  -8 -10  101.39   15.40
  -2  -8 -10   90.49   16.20
  -2  -8 -10  135.49   16.30
   2   8  10   99.29   13.60
   2   8  10  100.59   11.50
  -3  -8 -10    2.70    7.00
  -3  -8 -10   15.20    8.80
  -3  -8 -10    4.80    5.40
   3   8  10    0.50    4.10
   3   8  10    4.30    5.10
   3   8  10    3.20    5.40
  -4  -8 -10   12.00    9.70
  -4  -8 -10    5.80    8.10
  -4  -8 -10   14.70    6.60
   4   8  10   17.20    8.50
   4   8  10   14.70    8.60
   4   8  10   15.10    8.80
  -5  -8 -10    5.10    5.80
  -5  -8 -10   11.80    9.80
   5   8  10   -1.60    5.50
   5   8  10   -6.20    5.10
   5   8  10   -3.40    6.20
   3  -9 -10   64.69   14.40
   3  -9 -10   45.50    9.60
   3  -9 -10   29.10   11.10
  -3   9  10   34.90    8.70
   2  -9 -10   33.80    8.70
   2  -9 -10   34.20    9.50
   2  -9 -10   50.49    9.70
  -2   9  10   59.49   11.70
   1  -9 -10    9.20    5.60
   1  -9 -10    0.40    3.40
   1  -9 -10    7.70    5.80
   0  -9 -10   38.30    8.60
   0  -9 -10   44.10    8.40
   0  -9 -10   50.69   10.20
  -1  -9 -10   17.70    7.60
  -1  -9 -10   32.20    9.20
  -1  -9 -10   11.90    5.00
  -2  -9 -10   21.00    9.80
  -2  -9 -10   52.89   11.70
  -2  -9 -10   37.00    8.90
   2   9  10   42.60    7.10
   2   9  10   42.40    5.70
  -3  -9 -10   64.49   16.10
  -3  -9 -10   36.40    7.80
  -3  -9 -10   38.00   11.50
   3   9  10   45.50    9.60
   3   9  10   58.99    9.70
   3   9  10   56.49    9.00
  -4  -9 -10   73.49   11.00
  -4  -9 -10   91.19   20.00
  -4  -9 -10   82.19   17.70
   4   9  10   91.59   16.00
   4   9  10   72.89   12.10
   4   9  10   62.79   13.70
  -5  -9 -10   15.40    5.90
  -5  -9 -10   -6.70    6.40
   5   9  10    0.60    6.70
   5   9  10    9.50    7.50
   3 -10 -10    1.30    6.10
   3 -10 -10    6.70    6.80
  -3  10  10    0.70    5.40
   2 -10 -10    1.00    4.10
   2 -10 -10    3.80    6.60
   2 -10 -10   -3.10    3.00
   1 -10 -10    3.30    4.90
   1 -10 -10    0.40    3.70
   1 -10 -10    0.60    3.50
   0 -10 -10    2.00    4.40
   0 -10 -10   16.40    7.40
   0 -10 -10    1.90    4.70
  -1 -10 -10   43.40   10.00
  -1 -10 -10   40.80   10.20
  -1 -10 -10   30.10    9.20
  -2 -10 -10    1.80    3.80
  -2 -10 -10   13.10    7.70
  -2 -10 -10   -1.50    5.10
  -3 -10 -10   23.50   10.80
  -3 -10 -10   28.50   12.60
  -3 -10 -10   31.10    8.50
   3  10  10   15.40    5.60
   3  10  10   16.60    5.30
   3  10  10   10.80    4.70
  -4 -10 -10    3.90    6.40
  -4 -10 -10   14.70   11.50
  -4 -10 -10   12.20   10.00
   4  10  10    2.90    4.50
   4  10  10    2.10    4.60
   4  10  10   -0.30    4.90
  -5 -10 -10    7.90    9.30
  -5 -10 -10   -3.20    4.50
   5  10  10   -1.60    5.40
   5  10  10   -2.60    6.40
   2 -11 -10   29.00    8.30
   2 -11 -10   15.70    7.70
   2 -11 -10    4.70    4.60
   1 -11 -10   49.30    9.60
   1 -11 -10   39.50    9.00
   1 -11 -10   40.40    8.80
   0 -11 -10    2.30    4.10
   0 -11 -10    3.30    5.70
   0 -11 -10    1.80    4.10
  -1 -11 -10    5.10    5.40
  -1 -11 -10   16.00    6.80
  -1 -11 -10   16.20    7.60
  -2 -11 -10   45.00    9.70
  -2 -11 -10   79.29   14.20
  -2 -11 -10   61.09   15.10
  -3 -11 -10    2.80    5.30
  -3 -11 -10   16.40    9.50
  -3 -11 -10    9.40   10.40
   3  11  10    6.70    4.40
  -4 -11 -10   31.70   13.30
  -4 -11 -10   35.10   15.30
   4  11  10   36.80    7.60
   4  11  10   41.80    6.80
   4  11  10   36.20    9.40
  -5 -11 -10    1.60    6.30
  -5 -11 -10   -2.90   11.70
   5  11  10    4.50    6.10
   5  11  10   -1.60    4.80
   5  11  10    1.90    4.80
   2 -12 -10   17.80    8.70
   1 -12 -10   10.20    6.00
   1 -12 -10   -1.20    4.90
   0 -12 -10    3.60    5.60
   0 -12 -10    0.00    4.00
   0 -12 -10    4.20    5.90
  -1 -12 -10    5.10    5.40
  -1 -12 -10   20.90    8.60
  -1 -12 -10   10.80    7.50
  -2 -12 -10   14.30    6.70
  -2 -12 -10   -1.40    5.30
  -2 -12 -10   10.50    8.70
  -3 -12 -10   -4.40    5.40
  -3 -12 -10    5.50    6.30
  -3 -12 -10   -3.70    6.40
   3  12  10    3.90    4.10
  -4 -12 -10    8.80    6.60
  -4 -12 -10   -1.20    7.50
   4  12  10   19.30    7.50
   0 -13 -10    9.00    9.60
   0 -13 -10    8.20    5.90
   0 -13 -10    9.20    5.90
  -1 -13 -10   -3.70    4.30
  -1 -13 -10    4.20    6.20
  -1 -13 -10   -1.10    4.50
  -2 -13 -10   52.19    9.40
  -2 -13 -10   63.89   12.60
  -2 -13 -10   67.09   16.30
  -3 -13 -10   -1.90    6.50
  -3 -13 -10    2.10    6.50
   3   5 -11   13.20   12.60
  -3  -5  11   -1.90    6.40
  -3  -5  11    6.90    9.80
   2   5 -11   -8.90    5.50
  -2  -5  11    4.90    8.30
  -2  -5  11   -1.80    5.30
  -2  -5  11    2.80    9.10
   1   5 -11   12.10    9.00
   1   5 -11    7.50    9.10
  -1  -5  11    1.00    6.80
   0   5 -11   23.90   11.60
   0   5 -11   14.70    9.90
   0  -5  11   23.80   11.50
  -1   5 -11    7.80    8.80
  -1   5 -11   31.10   13.00
   1  -5  11   18.20   17.70
   1  -5  11   22.90    6.60
   1  -5  11   22.20   11.30
   3   4 -11   -3.70    5.90
   3   4 -11    2.30    8.30
  -3  -4  11   -1.40    7.80
   2   4 -11    5.20    7.70
   2   4 -11   26.70   13.00
  -2  -4  11   17.10    7.80
  -2  -4  11    7.90    8.20
  -2  -4  11   27.10   13.10
   1   4 -11   29.30   12.00
   1   4 -11   39.50   10.90
   1   4 -11   43.80   12.50
  -1  -4  11   47.30    9.50
  -1  -4  11   45.00   12.60
   0   4 -11   11.40    8.80
   0   4 -11   -3.30    5.60
   0   4 -11   14.00    8.00
   0  -4  11   -1.60    4.80
   0  -4  11    3.20    5.10
   0  -4  11   -2.20    5.10
  -1   4 -11    0.40    7.20
  -1   4 -11    0.10    5.80
  -1   4 -11    6.20    5.80
   1  -4  11    5.40    8.50
   1  -4  11    5.80    7.60
   1  -4  11    2.70    4.60
  -2   4 -11   -8.00    4.70
  -2   4 -11   14.10    9.40
   2  -4  11   -2.30    6.80
   2  -4  11   -6.60    4.00
   4   3 -11   13.00   11.20
  -4  -3  11    5.40    9.40
  -4  -3  11   15.50   13.40
   3   3 -11   -1.40    3.40
   3   3 -11   -0.80    6.80
   3   3 -11    3.00    7.10
  -3  -3  11    4.70    9.70
  -3  -3  11    9.40    8.10
   2   3 -11    3.30    6.90
   2   3 -11   10.60    7.90
   2   3 -11    5.90    8.40
  -2  -3  11   10.00    8.50
  -2  -3  11    9.60    7.00
  -2  -3  11    0.80    6.30
   1   3 -11    6.40    7.10
   1   3 -11   21.50   11.00
   1   3 -11    2.10    6.50
  -1  -3  11    2.90    6.70
  -1  -3  11    0.90    4.70
  -1  -3  11   11.20    6.80
   0   3 -11    5.70    7.60
   0   3 -11   20.90    7.00
   0   3 -11   17.20    8.20
   0  -3  11    3.30    6.50
   0  -3  11   12.00    6.50
   0  -3  11   11.20    8.00
  -1   3 -11   -2.50    4.50
  -1   3 -11    6.20    8.10
  -1   3 -11   -3.70    5.20
   1  -3  11    5.30    7.40
   1  -3  11   -2.10    3.50
   1  -3  11   -2.10    4.50
  -2   3 -11    1.00    7.90
  -2   3 -11   -0.10    4.90
  -2   3 -11   10.70    8.60
   2  -3  11   -5.70    3.10
   2  -3  11   24.50   12.90
   4   2 -11  157.08   22.70
   4   2 -11  148.59   19.70
   4   2 -11  151.28   25.00
  -4  -2  11  148.59   24.50
  -4  -2  11  235.48   33.90
   3   2 -11    2.30    4.90
   3   2 -11    9.30    8.80
   3   2 -11    4.80    7.80
  -3  -2  11   -0.20    6.50
  -3  -2  11    1.20    6.70
   2   2 -11   39.80   13.20
   2   2 -11   28.20   10.00
  -2  -2  11   49.80   13.00
  -2  -2  11   52.09   12.40
  -2  -2  11   48.90   10.40
  -2  -2  11   67.39   19.90
   1   2 -11   46.60   11.40
   1   2 -11   36.20   12.10
   1   2 -11   43.40   12.10
  -1  -2  11   72.19   17.80
  -1  -2  11   40.40    8.70
  -1  -2  11   57.79   14.50
  -1  -2  11   46.10   11.20
   0   2 -11   15.20   10.00
   0   2 -11    8.30    7.30
   0   2 -11    5.10    7.30
   0  -2  11   12.50    9.20
   0  -2  11    3.60    6.00
   0  -2  11   21.80   10.30
   0  -2  11   22.50    6.30
  -1   2 -11   34.80   11.80
  -1   2 -11   50.79   10.70
  -1   2 -11   30.30   10.70
   1  -2  11   29.00   10.10
   1  -2  11   53.99    8.80
   1  -2  11   54.39   12.30
   1  -2  11   33.00   11.70
  -2   2 -11   19.00   10.80
  -2   2 -11    3.30    5.50
  -2   2 -11   14.80    8.90
   2  -2  11    7.00    7.30
   2  -2  11    8.70    7.30
  -3   2 -11   65.19    8.20
  -3   2 -11   25.90   14.40
  -3   2 -11   90.99   16.70
   3  -2  11   59.89   15.90
   4   1 -11    6.00    5.60
   4   1 -11    2.10    8.60
   4   1 -11   15.10   10.80
  -4  -1  11   13.30   11.00
  -4  -1  11   15.70   10.90
   3   1 -11   -3.20    5.70
   3   1 -11    2.30    4.60
   3   1 -11   -5.30    4.70
  -3  -1  11   -5.70    2.50
  -3  -1  11    2.40    7.10
  -3  -1  11   -3.20    5.70
  -3  -1  11   -0.90    5.80
   2   1 -11    2.80    6.80
   2   1 -11    2.40    7.20
   2   1 -11    6.00    6.20
  -2  -1  11    0.30    6.30
  -2  -1  11    3.20    7.10
  -2  -1  11    2.20    6.30
   1   1 -11   32.70    9.70
   1   1 -11   28.50   11.60
  -1  -1  11   22.00    9.40
  -1  -1  11   42.50    8.90
  -1  -1  11   38.90   10.50
  -1  -1  11   52.59   13.50
   0   1 -11   33.50    9.60
   0   1 -11   10.30    9.50
   0   1 -11   13.00    8.80
   0  -1  11   15.20    7.80
   0  -1  11   38.60   10.50
  -1   1 -11   26.90    8.70
   1  -1  11    7.50    6.70
   1  -1  11   18.30    5.30
  -2   1 -11   53.59   13.30
  -2   1 -11   32.80    8.50
  -2   1 -11   31.00   11.60
   2  -1  11   55.29   13.90
   2  -1  11   41.70   14.60
   2  -1  11   55.09   11.90
  -3   1 -11   13.20    6.10
  -3   1 -11    7.70    7.90
  -3   1 -11   21.30   10.70
   3  -1  11   35.90   11.50
   3  -1  11   10.70    8.50
  -4   1 -11   10.80    9.70
   4  -1  11   -0.90    6.20
   5   0 -11   12.20    8.90
   5   0 -11    3.50    9.10
   5   0 -11   14.00    8.90
  -5   0  11   21.00   12.10
  -5   0  11    8.80   11.20
   4   0 -11   74.89   18.20
   4   0 -11   26.00    9.50
   4   0 -11   50.09   11.10
  -4   0  11   50.39   14.80
  -4   0  11   65.89   21.20
  -4   0  11   23.20   11.50
   3   0 -11   50.59   10.50
   3   0 -11   64.39   14.30
   3   0 -11   79.59   17.60
   3   0 -11   65.69   12.90
  -3   0  11   79.19   17.40
  -3   0  11   62.09   10.90
  -3   0  11   64.79   14.50
  -3   0  11   80.19   15.30
   2   0 -11   29.90   10.40
   2   0 -11   31.20   12.00
  -2   0  11   28.40    9.90
  -2   0  11    7.70    8.50
   1   0 -11   17.70    9.20
   1   0 -11   25.20   10.30
  -1   0  11   30.10    7.70
  -1   0  11   26.20    8.60
  -1   0  11   38.70   10.30
   0   0 -11   27.60    9.10
   0   0  11   55.99   11.00
   0   0  11   33.20    7.70
   0   0  11   17.40    8.40
  -1   0 -11   18.20    7.70
  -1   0 -11   19.60    9.10
   1   0  11   24.70    7.90
   1   0  11    2.10    5.10
   1   0  11   13.60    4.90
  -2   0 -11   -2.60    5.10
  -2   0 -11    3.70    6.90
  -2   0 -11   -1.30    4.60
   2   0  11   -2.80    4.30
   2   0  11   -2.30    4.20
   2   0  11    2.00    5.40
  -3   0 -11   60.19   14.80
  -3   0 -11   50.19    9.50
  -3   0 -11   80.39   19.10
   3   0  11   36.60   11.50
  -4   0 -11    6.10    8.50
  -4   0 -11    2.80    4.90
   4   0  11    3.10    7.90
   5  -1 -11   12.00    9.70
   5  -1 -11   16.00   12.70
  -5   1  11   -2.40    7.40
   4  -1 -11   36.30   13.50
  -4   1  11   42.30   13.20
  -4   1  11   82.69   18.90
  -4   1  11   15.20    9.00
   3  -1 -11   32.60   10.10
   3  -1 -11   10.20    5.40
   3  -1 -11   14.00    9.50
   3  -1 -11   43.70   12.90
  -3   1  11   -2.40    5.60
  -3   1  11    5.60    8.50
  -3   1  11    6.80    5.50
   2  -1 -11    0.50    6.10
   2  -1 -11    1.60    6.60
  -2   1  11    7.30    6.30
   1  -1 -11   18.70    9.50
   1  -1 -11   15.70   12.20
  -1   1  11   22.80    8.10
  -1   1  11   10.20    5.70
  -1   1  11   39.40   10.60
  -1   1  11   13.90    7.90
   0  -1 -11   15.60    8.90
   0  -1 -11    7.20    6.10
   0   1  11    4.10    6.00
   0   1  11   -4.00    3.70
   0   1  11    4.20    4.40
   0   1  11    3.60    5.30
  -1  -1 -11   48.80   12.80
  -1  -1 -11   33.50    8.50
   1   1  11   34.60    9.20
   1   1  11   33.10    7.70
  -2  -1 -11   41.40    9.80
  -2  -1 -11   44.50   12.20
   2   1  11   40.90   11.00
   2   1  11   37.30    9.80
   2   1  11   38.50   13.10
  -3  -1 -11  159.68   22.30
  -3  -1 -11  164.88   14.10
  -3  -1 -11  169.38   26.00
   3   1  11  144.89   21.60
   3   1  11  171.38   26.10
  -4  -1 -11    2.00    6.40
  -4  -1 -11   -5.60    3.70
   4   1  11   -4.00    4.80
   5  -2 -11   -2.60    3.90
   5  -2 -11    1.80    8.00
   5  -2 -11   -0.20    7.10
  -5   2  11   -3.80    3.80
   4  -2 -11    0.40    4.50
   4  -2 -11   -3.80    5.50
   4  -2 -11    1.50    7.50
  -4   2  11    1.80    5.00
  -4   2  11    4.50    7.10
  -4   2  11   -4.80    4.60
   3  -2 -11    3.60    6.30
   3  -2 -11    0.80    6.70
   3  -2 -11    4.40    4.60
   3  -2 -11    7.80    7.80
  -3   2  11    7.20    7.20
  -3   2  11    1.00    7.20
  -3   2  11   -2.30    2.30
  -3   2  11    7.00    6.80
   2  -2 -11   43.00   12.70
   2  -2 -11   39.70   10.30
   2  -2 -11   47.20   11.30
  -2   2  11   66.09   12.80
  -2   2  11   40.60   10.70
  -2   2  11   46.70   12.70
  -2   2  11   50.19    9.80
   1  -2 -11   30.10    9.30
   1  -2 -11   37.00   10.80
   1  -2 -11   43.30   15.90
  -1   2  11   25.60    7.10
  -1   2  11   17.00    8.70
  -1   2  11   36.80   10.70
   0  -2 -11   17.50    8.60
   0  -2 -11   36.60   10.00
   0   2  11   39.60    7.80
   0   2  11   38.30    9.30
   0   2  11   45.40   11.20
  -1  -2 -11   14.20    8.40
  -1  -2 -11    8.30    6.20
   1   2  11   17.90    9.60
   1   2  11   12.00    5.30
   1   2  11   10.00    7.80
   1   2  11   13.20    6.60
  -2  -2 -11    0.70    4.70
  -2  -2 -11   -2.30    5.20
  -2  -2 -11    7.20    7.60
   2   2  11    1.70    4.30
   2   2  11   -0.30    4.80
  -3  -2 -11    7.10    5.70
  -3  -2 -11    0.30    7.40
  -3  -2 -11    1.50    6.90
   3   2  11    4.60    6.50
   3   2  11   -4.90    5.70
  -4  -2 -11    3.70    4.80
  -4  -2 -11    8.20    8.50
   4   2  11   -3.20    5.40
  -5  -2 -11    0.00    8.40
  -5  -2 -11    0.50    4.70
   5   2  11    3.90    9.20
   5  -3 -11   -1.10    4.40
   5  -3 -11    3.90    8.40
   5  -3 -11    0.80    5.70
  -5   3  11    2.90    6.90
  -5   3  11   -2.50    3.70
   4  -3 -11  134.69   23.20
   4  -3 -11   71.29   13.30
   4  -3 -11   68.19   11.60
  -4   3  11   80.59   14.30
   3  -3 -11    5.60    6.40
   3  -3 -11    0.20    5.70
   3  -3 -11   -0.60    2.90
   3  -3 -11   -3.90    4.00
  -3   3  11    3.20    5.90
  -3   3  11    7.90    5.70
  -3   3  11    5.00    5.90
  -3   3  11    2.60    5.30
   2  -3 -11    2.90    6.30
   2  -3 -11    9.20    6.90
   2  -3 -11   -4.00    5.50
  -2   3  11    6.80    5.50
  -2   3  11    6.80    6.30
   1  -3 -11   17.30    7.70
   1  -3 -11   15.40    9.50
   1  -3 -11   17.40    8.70
  -1   3  11   14.60    7.60
  -1   3  11    8.80    6.40
  -1   3  11    9.10    5.40
  -1   3  11    7.80    5.20
   0  -3 -11  107.89   14.80
   0  -3 -11  104.59   17.50
   0   3  11  101.59   16.30
   0   3  11  107.19   15.00
   0   3  11  121.69   15.50
   0   3  11  107.89   15.60
  -1  -3 -11   36.90    9.80
  -1  -3 -11   55.49   11.80
   1   3  11   52.29   10.30
   1   3  11   55.59   11.20
   1   3  11   20.40    9.60
   1   3  11   31.90    7.80
  -2  -3 -11    0.00    5.50
  -2  -3 -11    2.70    4.90
   2   3  11    4.30    8.30
   2   3  11    2.60    5.30
   2   3  11   11.20    6.00
  -3  -3 -11   47.40   10.10
  -3  -3 -11   41.30   13.90
   3   3  11   34.20   12.30
   3   3  11   47.50   11.60
  -4  -3 -11    2.20    4.80
  -4  -3 -11   -0.20    6.10
   4   3  11   -0.60    5.50
   5   3  11   -6.50    4.20
   5  -4 -11    0.70    5.30
   5  -4 -11   -3.90    6.10
   5  -4 -11    6.00    7.50
  -5   4  11    7.30    6.50
  -5   4  11   -4.70    4.50
   4  -4 -11   -3.50    6.30
   4  -4 -11   -1.40    3.20
   4  -4 -11    3.00    7.30
  -4   4  11   11.40    6.10
  -4   4  11   -4.20    4.60
   3  -4 -11    3.90    6.90
   3  -4 -11   15.90    9.60
   3  -4 -11    6.30    4.10
   3  -4 -11   -0.10    5.40
  -3   4  11   -1.30    3.50
  -3   4  11    2.90    5.00
  -3   4  11    9.80    7.10
   2  -4 -11   54.29   10.80
   2  -4 -11   66.99   12.50
   2  -4 -11   66.49   13.70
  -2   4  11   34.20    9.40
  -2   4  11   56.59   11.90
   1  -4 -11   90.09   14.50
   1  -4 -11   51.89    9.90
   1  -4 -11   60.29   13.80
  -1   4  11   61.69   11.90
  -1   4  11   58.09    8.80
   0  -4 -11    2.20    5.50
   0  -4 -11   31.90    9.70
   0  -4 -11   24.40    9.10
   0   4  11    4.80    5.10
   0   4  11   11.60    5.50
   0   4  11    7.40    6.70
  -1  -4 -11   34.80   10.50
  -1  -4 -11   26.20    8.10
   1   4  11   45.30    9.50
   1   4  11   51.99    8.30
   1   4  11   31.40    9.20
   1   4  11   28.90   10.80
  -2  -4 -11   73.99   12.30
  -2  -4 -11   55.79   14.00
  -2  -4 -11   82.19   16.10
   2   4  11   87.89   12.20
   2   4  11   71.99   14.50
   2   4  11   70.19   15.30
  -3  -4 -11   18.50    9.70
  -3  -4 -11   11.40    5.90
   3   4  11    1.70    6.20
  -4  -4 -11    2.70    7.80
   4   4  11   -5.50    3.60
   4   4  11    9.60    8.30
   4   4  11    1.20    7.80
  -5  -4 -11   -0.40    4.40
   5   4  11    8.60    6.00
   5   4  11    6.00   11.00
   4  -5 -11   62.99   15.20
   4  -5 -11   21.90   11.30
   4  -5 -11   41.70    9.50
   3  -5 -11   41.80   16.70
   3  -5 -11   32.30    6.20
   3  -5 -11   27.50   11.50
   3  -5 -11   20.80   10.20
  -3   5  11   50.69   10.60
  -3   5  11   49.20   10.20
   2  -5 -11   49.50   11.60
   2  -5 -11   42.00   10.60
   2  -5 -11   54.89   11.70
  -2   5  11   51.69   11.30
  -2   5  11   59.99   11.10
   1  -5 -11   74.19   13.30
   1  -5 -11   73.89   14.90
   1  -5 -11   82.89   14.20
  -1   5  11   78.59   13.60
  -1   5  11   51.79   10.10
   0  -5 -11   15.80    8.30
   0  -5 -11   18.30    8.40
   0   5  11   15.50    6.70
   0   5  11    8.20    6.20
   0   5  11   11.80    5.80
  -1  -5 -11  104.29   17.00
  -1  -5 -11   89.69   16.40
  -1  -5 -11   83.99   14.70
   1   5  11   92.79   16.20
   1   5  11   90.69   14.40
   1   5  11   77.79   12.40
  -2  -5 -11    5.20    4.70
  -2  -5 -11    3.10    6.10
  -2  -5 -11   -6.00    5.00
   2   5  11    2.50    5.30
   2   5  11    4.90    6.80
   2   5  11    2.30    5.50
  -3  -5 -11    9.30    9.00
  -3  -5 -11   35.10   10.50
  -3  -5 -11   40.00   12.20
   3   5  11   33.90    9.60
   3   5  11   34.30   11.80
  -4  -5 -11    2.10    8.00
  -4  -5 -11   -2.10    3.90
   4   5  11   -4.90    4.60
   4   5  11   -2.10    5.90
   4   5  11    1.60    7.80
  -5  -5 -11   60.89   27.00
  -5  -5 -11   33.20    7.60
   5   5  11   12.70   11.50
   5   5  11   26.00   11.80
   4  -6 -11    8.60    5.50
   4  -6 -11   -1.00    6.40
   4  -6 -11    8.30    6.60
   4  -6 -11    3.50    7.30
  -4   6  11   -1.90    3.00
  -4   6  11   -0.70    2.80
   3  -6 -11    9.70    7.20
   3  -6 -11    9.00    6.10
   3  -6 -11    0.10    5.60
  -3   6  11    1.70    4.50
  -3   6  11    7.20    4.10
   2  -6 -11   -0.10    3.60
   2  -6 -11    5.50    6.60
  -2   6  11    4.80    5.20
  -2   6  11   -0.60    3.60
  -2   6  11    0.90    4.00
   1  -6 -11   -2.20    3.70
   1  -6 -11    0.30    4.90
   1  -6 -11   -1.90    3.20
  -1   6  11   -4.10    3.20
  -1   6  11   -0.70    3.70
   0  -6 -11   10.70    6.50
   0  -6 -11   37.50    9.70
   0  -6 -11    4.40    5.80
   0   6  11   10.90    7.10
   0   6  11   18.90    6.20
  -1  -6 -11    7.20    7.00
  -1  -6 -11   12.00    6.00
  -1  -6 -11    9.30    7.30
   1   6  11    4.70    4.90
   1   6  11    7.30    5.90
  -2  -6 -11   12.70    8.40
  -2  -6 -11   27.70    8.20
  -2  -6 -11   26.20   10.80
   2   6  11   27.90    7.60
   2   6  11   29.10    7.70
   2   6  11   36.40   11.60
  -3  -6 -11   81.29   16.00
  -3  -6 -11   74.09   11.80
  -3  -6 -11   91.69   21.40
   3   6  11   72.49   16.00
   3   6  11   87.49   16.30
   3   6  11   74.89   13.70
  -4  -6 -11    1.50    5.00
  -4  -6 -11    4.60    7.60
   4   6  11    1.50    6.70
   4   6  11   -5.60    5.70
  -5  -6 -11    2.60    4.20
  -5  -6 -11   -3.70    7.00
   5   6  11   -2.60    5.60
   4  -7 -11   -3.40    2.80
   4  -7 -11   -2.80    6.60
   4  -7 -11    1.10    4.20
   4  -7 -11   13.10   10.20
   3  -7 -11    7.90    7.20
   3  -7 -11   13.70    7.90
   3  -7 -11    6.70    6.10
  -3   7  11    0.90    4.40
   2  -7 -11  179.08   20.60
   2  -7 -11  196.28   22.90
   2  -7 -11  174.38   26.10
  -2   7  11  179.48   15.40
   1  -7 -11   95.29   15.10
   1  -7 -11   82.59   14.00
   1  -7 -11   84.69   13.80
  -1   7  11   66.09    8.50
   0  -7 -11   10.20    6.80
   0  -7 -11   12.70    6.80
   0  -7 -11   12.30    7.10
   0   7  11   16.50    5.10
   0   7  11   22.00    6.80
  -1  -7 -11   46.40   11.80
  -1  -7 -11   36.50    8.40
  -1  -7 -11   48.60   11.30
   1   7  11   32.10    7.20
   1   7  11   29.20    8.80
  -2  -7 -11   -3.60    3.40
  -2  -7 -11    0.00    5.40
  -2  -7 -11   -1.40    5.00
   2   7  11    2.00    6.50
   2   7  11   -1.00    3.80
  -3  -7 -11   56.49   13.20
  -3  -7 -11   40.70   10.10
   3   7  11   57.79   11.30
   3   7  11   28.30   10.00
   3   7  11   50.29   10.80
  -4  -7 -11   13.20   10.00
  -4  -7 -11   11.50    6.20
   4   7  11   10.40    7.80
   4   7  11    8.00    7.60
  -5  -7 -11   89.79   29.50
  -5  -7 -11   53.99    9.80
   5   7  11   35.90   11.20
   3  -8 -11   -2.20    5.20
   3  -8 -11   -4.90    3.60
   3  -8 -11   -1.40    3.70
   2  -8 -11    8.80    6.70
   2  -8 -11    7.60    6.30
   2  -8 -11    9.60    5.90
  -2   8  11   26.30    7.30
   1  -8 -11   80.19   14.30
   1  -8 -11   81.49   13.20
   1  -8 -11   77.29   13.30
  -1   8  11   86.49   13.90
   0  -8 -11    0.90    4.50
   0  -8 -11    1.60    6.00
   0  -8 -11    1.20    4.60
  -1  -8 -11    8.90    7.00
  -1  -8 -11    2.70    4.10
  -1  -8 -11    6.10    6.10
   1   8  11    1.40    3.80
   1   8  11    6.80    5.00
  -2  -8 -11   71.79   12.50
  -2  -8 -11   49.80   13.50
  -2  -8 -11   86.19   15.80
   2   8  11   92.59   15.00
   2   8  11   74.99   10.60
  -3  -8 -11   13.90   16.10
  -3  -8 -11    3.00    4.90
  -3  -8 -11    6.20    7.00
   3   8  11   -3.90    3.20
   3   8  11    3.70    5.90
   3   8  11    5.10    4.80
  -4  -8 -11    1.30    7.30
  -4  -8 -11    1.30    5.20
   4   8  11    0.50    4.70
   4   8  11   -5.80    3.90
  -5  -8 -11    9.30    6.10
   5   8  11   -0.10    6.70
   5   8  11   11.40    8.20
   5   8  11    9.70   10.50
   3  -9 -11   -3.10    4.20
   3  -9 -11   -3.50    4.80
   3  -9 -11   -0.60    5.40
   2  -9 -11   57.29   11.20
   2  -9 -11   89.69   16.90
   2  -9 -11   89.79   15.30
  -2   9  11   50.29    9.20
   1  -9 -11   85.09   13.10
   1  -9 -11   90.19   14.10
   1  -9 -11   83.59   13.40
   0  -9 -11   18.10    7.60
   0  -9 -11   39.60   11.00
   0  -9 -11   10.90    6.40
  -1  -9 -11  127.29   17.20
  -1  -9 -11  110.39   16.00
  -1  -9 -11  145.49   19.60
  -2  -9 -11   14.50    9.60
  -2  -9 -11   16.40    8.10
  -2  -9 -11    5.20    4.90
   2   9  11    4.80    4.60
   2   9  11    5.10    3.70
  -3  -9 -11   44.30   13.20
  -3  -9 -11   30.90    8.00
  -3  -9 -11   54.69   22.30
   3   9  11   44.90   10.50
   3   9  11   41.80    7.60
   3   9  11   29.90    7.10
  -4  -9 -11    4.60    6.10
  -4  -9 -11   -3.30    5.60
   4   9  11    2.80    5.40
   4   9  11   -6.00    3.90
   4   9  11   -4.10    4.60
  -5  -9 -11   31.60   14.40
  -5  -9 -11   33.90   10.20
   5   9  11   27.70   12.30
   5   9  11   21.80    9.60
   3 -10 -11    3.70    5.40
   3 -10 -11    9.50    7.60
   2 -10 -11   29.00    8.80
   2 -10 -11   22.10    9.30
   1 -10 -11   46.20    9.30
   1 -10 -11   58.29   10.90
   1 -10 -11   34.70    8.50
   0 -10 -11   23.70    8.10
   0 -10 -11   25.60    9.80
   0 -10 -11   18.60    7.60
  -1 -10 -11   58.09   11.20
  -1 -10 -11   91.69   15.70
  -1 -10 -11   60.59   12.70
  -2 -10 -11   -1.30    3.90
  -2 -10 -11   -3.40    5.00
  -2 -10 -11   -4.50    4.70
  -3 -10 -11   15.40    6.40
  -3 -10 -11   10.10   10.80
  -3 -10 -11   14.00    8.80
   3  10  11   15.00    4.80
   3  10  11   10.80    5.90
  -4 -10 -11   10.00    9.00
  -4 -10 -11    1.80    6.20
   4  10  11    3.30    8.50
   4  10  11    3.90    5.30
   4  10  11    7.10    6.70
  -5 -10 -11  159.48   26.20
  -5 -10 -11  149.99   20.80
   5  10  11  130.19   20.50
   5  10  11  109.39   16.70
   2 -11 -11    1.20    5.40
   2 -11 -11    1.80    5.70
   2 -11 -11    4.70    5.10
   1 -11 -11    9.50    6.30
   1 -11 -11   -0.10    5.40
   1 -11 -11   -2.30    3.50
   0 -11 -11   17.40    8.00
   0 -11 -11   20.60    7.30
   0 -11 -11   19.10    6.60
  -1 -11 -11   15.30    7.80
  -1 -11 -11   18.40    8.80
  -1 -11 -11    8.70    7.50
  -2 -11 -11    3.50    5.60
  -2 -11 -11   16.00    9.60
  -2 -11 -11   -2.60    2.80
  -3 -11 -11    8.00    5.60
  -3 -11 -11   -4.30    6.30
  -3 -11 -11   -3.80    4.70
  -4 -11 -11    4.10    8.20
   4  11  11   -2.10    4.80
   4  11  11    1.90    3.20
   4  11  11    5.70    5.40
   1 -12 -11    1.50    6.10
   1 -12 -11    0.10    4.40
   1 -12 -11   -1.50    4.00
   0 -12 -11   -3.30    3.70
   0 -12 -11   -3.60    3.50
   0 -12 -11   -4.40    3.90
  -1 -12 -11   49.50   10.70
  -1 -12 -11   37.00   11.60
  -1 -12 -11   44.50    9.90
  -2 -12 -11    0.50    4.90
  -2 -12 -11   -0.10    5.80
  -2 -12 -11   13.60    7.90
  -3 -12 -11   53.19   17.20
  -3 -12 -11   57.89   15.00
  -3 -12 -11   49.50   17.10
  -4 -12 -11    3.30    9.50
  -4 -12 -11   14.40    8.50
   4  12  11    9.80    7.50
   0 -13 -11   17.60    8.40
   0 -13 -11   15.50    7.20
   0 -13 -11   11.10    7.70
  -1 -13 -11    6.70    7.80
  -1 -13 -11    3.70    6.00
  -1 -13 -11    8.50    7.50
  -2 -13 -11    2.60    9.40
  -2 -13 -11   11.60    8.20
  -3 -13 -11   10.30    8.00
  -3 -13 -11   17.20   10.30
  -3 -13 -11   26.20   14.00
   2   4 -12    8.10    8.70
   2   4 -12    4.90    9.70
  -2  -4  12    9.50   12.50
  -2  -4  12   15.20   10.80
   1   4 -12   -4.60    5.70
  -1  -4  12    6.70    6.30
  -1  -4  12    4.30    6.90
  -1  -4  12   20.80   12.80
   0   4 -12   47.50   11.50
   0   4 -12   29.50   13.00
   0  -4  12    8.80   10.20
   0  -4  12   25.90    8.80
   0  -4  12    7.90    8.60
   3   3 -12   23.40   11.70
  -3  -3  12   31.70   15.70
   2   3 -12    1.60    7.80
   2   3 -12    6.90    8.80
  -2  -3  12    6.80    8.90
  -2  -3  12    7.30    9.80
   1   3 -12   39.30   14.10
   1   3 -12   51.09   11.60
  -1  -3  12   31.50   11.80
  -1  -3  12   41.60    9.80
  -1  -3  12   42.90   12.10
   0   3 -12    7.60    7.00
   0   3 -12   16.70    9.60
   0  -3  12   22.70    9.90
   0  -3  12   21.40    7.20
   0  -3  12    6.20    8.30
  -1   3 -12   -3.20    5.70
  -1   3 -12    1.70    6.10
   1  -3  12    5.70    5.80
   1  -3  12   -4.70    4.50
   1  -3  12   -1.60    6.10
   3   2 -12   22.20   11.50
   3   2 -12   -3.00    6.60
  -3  -2  12   -7.20    5.60
  -3  -2  12   -0.90    6.40
   2   2 -12    7.90   10.00
   2   2 -12   -1.50    7.40
  -2  -2  12    6.10    8.80
  -2  -2  12   -2.00    3.80
  -2  -2  12    3.40    6.20
   1   2 -12   -8.20    5.10
   1   2 -12   15.90   10.60
  -1  -2  12    5.60    6.10
  -1  -2  12    4.30    6.50
  -1  -2  12    6.40    7.90
   0   2 -12   14.30    9.50
   0   2 -12    7.80    7.10
   0   2 -12    5.80    9.30
   0  -2  12    6.80    7.20
   0  -2  12   21.60    8.40
   0  -2  12    5.30    5.20
  -1   2 -12   23.00   10.80
  -1   2 -12    4.30    6.00
   1  -2  12   10.10    5.90
   1  -2  12   15.20    9.70
   1  -2  12   18.90    9.80
  -2   2 -12    0.10    6.50
  -2   2 -12   -1.90    5.10
   2  -2  12   -2.30    5.40
   2  -2  12    2.10    5.80
   4   1 -12    5.70    9.40
   4   1 -12   -1.50    3.70
   4   1 -12    6.90   10.00
  -4  -1  12   11.80   13.20
  -4  -1  12   -2.30    7.50
   3   1 -12   28.60   12.90
   3   1 -12   -0.30    7.00
   3   1 -12    7.70    5.30
  -3  -1  12   12.40    9.20
  -3  -1  12   12.70   10.20
   2   1 -12   -5.40    4.60
   2   1 -12    5.90    7.40
  -2  -1  12   -2.30    7.20
  -2  -1  12   12.80    5.20
  -2  -1  12    5.40    7.00
   1   1 -12   50.89   11.50
   1   1 -12   40.40   12.20
   1   1 -12   26.50   11.60
  -1  -1  12   65.59   15.50
  -1  -1  12   41.30   11.30
  -1  -1  12   73.99   18.40
  -1  -1  12   77.19   20.60
   0   1 -12  113.59   19.90
   0   1 -12  130.39   22.30
   0   1 -12   85.19   14.40
   0  -1  12   74.39   15.70
  -1   1 -12   13.80    9.50
  -1   1 -12   37.80    9.50
  -1   1 -12   27.70   11.60
   1  -1  12   11.20    7.10
   1  -1  12    8.40    7.40
  -2   1 -12    0.60    5.40
  -2   1 -12   13.70    9.50
   2  -1  12   -0.80    5.00
   2  -1  12    7.20    7.70
  -3   1 -12    5.50    5.80
  -3   1 -12   10.70    8.80
   3  -1  12   13.40   10.30
   3  -1  12   12.40    9.20
   4   0 -12   -5.90    5.00
   4   0 -12    2.20    4.70
   4   0 -12    6.80    8.90
  -4   0  12   -0.40    6.70
  -4   0  12    5.70    9.90
   3   0 -12    4.30    7.80
   3   0 -12    6.50    5.40
   3   0 -12    0.80    7.10
  -3   0  12   -7.90    5.10
  -3   0  12   -1.80    5.70
   2   0 -12    2.70    5.90
   2   0 -12   -2.60    5.70
   2   0 -12    5.90    7.50
  -2   0  12    1.30    4.90
  -2   0  12    1.00    5.00
  -2   0  12    4.40    6.10
  -2   0  12    2.60    7.60
   1   0 -12   -2.10    5.60
   1   0 -12   -5.40    4.20
   1   0 -12   -8.40    5.00
  -1   0  12    2.40    7.00
  -1   0  12   -3.20    3.40
  -1   0  12    5.50    7.00
  -1   0  12   -1.00    4.50
   0   0 -12   -5.60    4.20
   0   0 -12   15.20    7.50
   0   0 -12   -2.90    5.10
   0   0  12    0.00    5.70
   0   0  12   -0.60    4.80
   0   0  12    1.20    4.00
   0   0  12    2.20    6.00
  -1   0 -12    1.60    5.40
  -1   0 -12   -3.20    4.90
  -1   0 -12    9.50    7.90
   1   0  12   -5.70    2.90
   1   0  12    1.70    4.10
   1   0  12    1.10    5.50
   1   0  12   -3.70    5.00
  -2   0 -12   20.40    8.00
  -2   0 -12   -1.10    6.00
   2   0  12   11.00    8.30
   2   0  12   16.70    8.00
  -3   0 -12   -1.60    6.20
  -3   0 -12    7.90    6.10
   3   0  12   -0.40    5.60
   3   0  12   -2.30    5.20
   4  -1 -12   41.00    9.50
  -4   1  12   20.00   15.70
  -4   1  12   32.10   13.10
   3  -1 -12   49.30   14.90
   3  -1 -12   15.10    9.60
   3  -1 -12   29.30    8.40
  -3   1  12   31.50   10.40
  -3   1  12   23.00   11.90
  -3   1  12   32.80   12.00
   2  -1 -12   12.10    9.40
   2  -1 -12    6.10    8.60
   2  -1 -12   13.60    8.30
  -2   1  12   10.00    6.00
  -2   1  12   13.10    6.80
  -2   1  12   11.40    8.50
   1  -1 -12    4.10    7.20
   1  -1 -12    7.30    7.30
  -1   1  12    5.50    7.70
  -1   1  12    5.20    4.80
  -1   1  12   13.90    8.60
  -1   1  12   12.40    8.00
   0  -1 -12   99.29   17.80
   0  -1 -12  113.19   17.20
   0  -1 -12  112.49   18.70
   0   1  12  118.09   17.10
   0   1  12   90.59   17.00
   0   1  12  109.29   16.10
   0   1  12  116.39   14.80
  -1  -1 -12   14.40    7.50
  -1  -1 -12    7.40    7.50
  -1  -1 -12    7.30    7.50
   1   1  12    6.10    4.70
   1   1  12    2.40    5.30
   1   1  12    3.60    6.20
   1   1  12   10.60    8.60
  -2  -1 -12   42.50   12.10
  -2  -1 -12   27.70   12.20
  -2  -1 -12   39.30    9.00
   2   1  12   54.49   16.00
   2   1  12   53.69   12.50
  -3  -1 -12    0.30    5.10
  -3  -1 -12    2.30    7.00
   3   1  12    4.30    8.10
   3   1  12    8.90    8.00
  -4  -1 -12   47.50   20.80
  -4  -1 -12   65.69   10.10
   4   1  12   33.50   13.80
   4  -2 -12   -1.80    4.20
   4  -2 -12    6.10    8.90
   4  -2 -12    0.30    6.70
  -4   2  12   -5.30    5.20
  -4   2  12    3.80    6.80
  -4   2  12   12.40    9.30
   3  -2 -12    1.60    3.20
   3  -2 -12   -5.00    5.50
   3  -2 -12    2.50    6.70
  -3   2  12   -2.80    5.60
  -3   2  12   -0.40    6.80
  -3   2  12   10.00    8.40
   2  -2 -12   -1.90    3.40
   2  -2 -12    2.60    7.80
   2  -2 -12   -0.10    5.60
  -2   2  12   -1.40    5.70
  -2   2  12    2.30    6.00
  -2   2  12    1.40    4.60
   1  -2 -12   -5.90    3.60
   1  -2 -12   12.60    7.30
   1  -2 -12    4.80    6.20
  -1   2  12   -4.70    3.90
  -1   2  12   10.40    7.40
  -1   2  12    2.20    4.30
   0  -2 -12   37.70   11.20
   0  -2 -12   16.10    8.20
   0   2  12   40.60    8.90
   0   2  12   32.00    9.10
   0   2  12   28.40    9.40
  -1  -2 -12   -0.90    5.10
  -1  -2 -12   -7.30    6.20
   1   2  12    4.80    5.30
   1   2  12   -0.90    3.60
   1   2  12    3.70    5.30
  -2  -2 -12   17.30   10.80
  -2  -2 -12   30.90    8.70
  -2  -2 -12   21.90   10.50
   2   2  12    8.50    9.30
   2   2  12   10.40    7.70
  -3  -2 -12    5.20    8.00
  -3  -2 -12   15.40    7.30
   3   2  12   -3.00    4.70
  -4  -2 -12    8.90    8.60
  -4  -2 -12    0.10    5.00
   4   2  12    2.70   13.10
   4  -3 -12   12.60    9.60
   4  -3 -12    8.30    9.10
   4  -3 -12   17.70    6.50
  -4   3  12    7.30    7.60
   3  -3 -12   21.70    5.80
   3  -3 -12   10.60    8.10
   3  -3 -12   25.30   10.60
  -3   3  12   35.30   10.80
  -3   3  12   14.60    7.80
   2  -3 -12   11.00    7.30
   2  -3 -12   14.80    8.90
   2  -3 -12    4.30    7.00
  -2   3  12    9.10    5.80
  -2   3  12    0.80    5.40
  -2   3  12    8.30    6.20
   1  -3 -12    1.40    5.90
   1  -3 -12   -2.20    5.20
  -1   3  12   -3.20    5.10
  -1   3  12   10.90    8.10
  -1   3  12    3.90    5.50
   0  -3 -12   44.10   10.10
   0  -3 -12   32.10   10.60
   0  -3 -12   28.30   11.50
   0   3  12   35.20   11.20
   0   3  12   34.50   10.70
   0   3  12   18.70    6.20
   0   3  12   38.40    8.70
  -1  -3 -12   26.80    8.30
  -1  -3 -12   21.90    9.90
   1   3  12   25.50    6.60
   1   3  12   30.60    9.60
   1   3  12   29.40    8.20
  -2  -3 -12  156.88   21.70
   2   3  12  150.88   24.20
   2   3  12  152.58   20.40
   2   3  12  185.68   15.80
  -3  -3 -12   40.60   12.70
   3   3  12   45.80   11.40
   3   3  12   32.50   13.00
  -4  -3 -12   18.40   10.90
  -4  -3 -12   33.50    8.70
   4   3  12   11.30    8.50
   4   3  12   16.80   20.30
   4  -4 -12   -2.30    3.20
   4  -4 -12    7.80    8.90
   4  -4 -12    5.50    6.80
  -4   4  12    6.00    5.60
  -4   4  12    4.80    8.10
   3  -4 -12   -0.60    2.40
   3  -4 -12   10.10    8.70
   3  -4 -12    0.40    5.40
   3  -4 -12    5.50    7.60
  -3   4  12    3.20    6.70
  -3   4  12   -2.40    3.70
   2  -4 -12   48.40   13.80
   2  -4 -12   47.70   11.80
   2  -4 -12   53.69   12.60
  -2   4  12   37.70   10.20
  -2   4  12   26.60    9.40
   1  -4 -12    4.40    6.50
   1  -4 -12    3.70    5.80
   1  -4 -12    6.30    6.30
  -1   4  12    2.30    7.00
  -1   4  12    1.90    4.80
  -1   4  12    2.20    5.20
   0  -4 -12   33.60   10.00
   0  -4 -12   18.90    7.30
   0  -4 -12   34.00   10.90
   0   4  12   38.50    8.30
   0   4  12   14.60    7.50
   0   4  12   26.20   10.00
  -1  -4 -12   -5.00    5.00
  -1  -4 -12   -7.30    3.80
  -1  -4 -12    2.20    6.50
   1   4  12    2.20    6.20
   1   4  12    2.00    3.30
   1   4  12    0.80    3.30
  -2  -4 -12    7.40    4.70
  -2  -4 -12   -3.80    4.70
  -2  -4 -12    6.00    5.70
   2   4  12    3.70    6.40
   2   4  12    1.80    4.50
  -3  -4 -12   25.70   11.10
  -3  -4 -12   38.80    9.80
   3   4  12   10.60   10.20
   3   4  12   34.20   14.30
   3   4  12   26.00   10.50
  -4  -4 -12   17.30    8.70
  -4  -4 -12   32.40    8.70
   4   4  12   25.20   10.70
   4  -5 -12    1.30    9.40
   4  -5 -12    2.20    4.00
  -4   5  12   -3.10    4.20
  -4   5  12    7.10    6.10
   3  -5 -12   20.00    9.60
   3  -5 -12   51.59   14.00
  -3   5  12   33.10    9.70
   2  -5 -12   35.60   10.90
   2  -5 -12   32.10    9.80
  -2   5  12   26.50    6.80
  -2   5  12   39.30   10.00
  -2   5  12   15.60    7.40
   1  -5 -12   49.30   12.80
   1  -5 -12   58.99   13.20
   1  -5 -12   60.99   13.90
  -1   5  12   41.80   10.20
  -1   5  12   43.10   10.00
   0  -5 -12   41.70   11.10
   0  -5 -12   60.79   12.70
   0  -5 -12   48.40    9.80
   0   5  12   38.50    9.30
   0   5  12   38.50    9.00
   0   5  12   25.10    9.70
  -1  -5 -12   60.99   12.70
  -1  -5 -12   45.70   11.20
  -1  -5 -12   38.70   11.10
   1   5  12   61.29   12.10
   1   5  12   53.69   13.20
   1   5  12   45.10    9.20
  -2  -5 -12  204.78   25.90
  -2  -5 -12  202.98   27.00
  -2  -5 -12  226.88   18.90
   2   5  12  245.98   19.00
   2   5  12  229.38   19.90
   2   5  12  265.87   16.10
   2   5  12  229.18   29.10
  -3  -5 -12   -4.50    5.50
  -3  -5 -12   -6.80    4.00
  -3  -5 -12    6.10    5.50
   3   5  12   -1.50    5.30
   3   5  12   -5.80    5.30
   3   5  12   11.00    7.80
  -4  -5 -12   59.79   15.90
  -4  -5 -12   60.89   12.20
   4   5  12   45.10   13.30
   4  -6 -12    9.20   12.00
   4  -6 -12   -2.50    6.70
  -4   6  12    7.20    4.80
   3  -6 -12   17.10    8.30
   3  -6 -12   13.40   10.40
   3  -6 -12   18.70   10.30
  -3   6  12    1.90    4.60
  -3   6  12   11.50    5.60
   2  -6 -12    3.80    6.30
   2  -6 -12    2.80    5.20
   2  -6 -12   -5.20    3.10
  -2   6  12    0.50    3.80
  -2   6  12    3.80    5.10
  -2   6  12    9.20    5.70
   1  -6 -12    2.50    5.90
   1  -6 -12    0.20    4.60
   1  -6 -12    3.80    4.80
  -1   6  12    3.80    4.50
   0  -6 -12   48.80   10.00
   0  -6 -12   46.80   10.90
   0  -6 -12   46.30   11.40
   0   6  12   53.69   10.80
   0   6  12   70.19   13.50
  -1  -6 -12   16.60    6.60
  -1  -6 -12    1.50    6.00
  -1  -6 -12   17.90    8.80
   1   6  12   19.20    9.40
   1   6  12   17.00    7.10
  -2  -6 -12   89.09   17.60
  -2  -6 -12   55.19    9.80
  -2  -6 -12   48.00   14.70
   2   6  12   74.89   10.60
   2   6  12   80.69    7.50
   2   6  12   64.49   12.10
   2   6  12   41.60   12.70
  -3  -6 -12    9.20    6.00
  -3  -6 -12    6.50    7.90
  -3  -6 -12    2.40    7.30
   3   6  12   -0.20    3.70
   3   6  12    2.40    6.00
  -4  -6 -12  107.19   14.60
  -4  -6 -12   94.49   18.60
   4   6  12  108.99   18.30
   4   6  12   96.19   18.50
   4   6  12  101.79   20.60
  -5  -6 -12    2.20    4.70
  -5  -6 -12    2.40    7.40
   5   6  12    8.00   10.80
   5   6  12    7.60    8.80
   3  -7 -12    7.50    8.00
   3  -7 -12   -1.30    4.70
   3  -7 -12    2.10    7.60
   2  -7 -12   -2.80    4.70
   2  -7 -12    3.80    5.40
   2  -7 -12    5.10    5.50
  -2   7  12    6.20    4.30
  -2   7  12    0.00    5.10
  -2   7  12    6.20    4.10
   1  -7 -12   49.40   11.10
   1  -7 -12   26.40   10.50
   1  -7 -12   31.40    9.40
  -1   7  12   59.79   10.80
  -1   7  12   40.70    8.10
  -1   7  12   51.09    9.40
   0  -7 -12    4.10    6.30
   0  -7 -12    0.10    4.10
   0  -7 -12    8.20    7.20
   0   7  12    4.20    4.30
   0   7  12    4.90    5.50
  -1  -7 -12   -2.30    5.10
  -1  -7 -12    0.50    4.80
  -1  -7 -12    0.10    5.30
   1   7  12    9.40    5.20
   1   7  12    9.80    7.70
  -2  -7 -12   16.10   15.70
  -2  -7 -12   -4.70    5.20
  -2  -7 -12    0.80    4.90
   2   7  12    0.30    4.00
   2   7  12    2.30    5.60
  -3  -7 -12   -2.40    4.20
  -3  -7 -12    9.20    8.60
  -3  -7 -12   -2.70    4.50
   3   7  12   -1.80    4.10
   3   7  12   -5.30    3.10
   3   7  12   -5.20    5.50
  -4  -7 -12   32.80   13.40
  -4  -7 -12   39.50    8.80
   4   7  12   42.70   11.20
   4   7  12   16.60   10.80
   4   7  12   35.00   12.50
  -5  -7 -12   10.30    6.60
   5   7  12    2.80    7.30
   3  -8 -12   -4.20    4.40
   3  -8 -12   -2.90    3.90
   3  -8 -12    0.30    6.50
   2  -8 -12    7.70    6.00
   2  -8 -12   -2.80    4.70
   2  -8 -12    0.60    5.90
   1  -8 -12    1.70    5.80
   1  -8 -12   15.50    8.10
   1  -8 -12   11.70    7.60
  -1   8  12    4.30    4.30
   0  -8 -12    3.70    5.40
   0  -8 -12    0.70    5.30
   0  -8 -12    4.30    4.90
   0   8  12    0.70    3.40
   0   8  12   11.40    4.40
  -1  -8 -12   -0.70    5.00
  -1  -8 -12    2.90    5.40
  -1  -8 -12   -3.80    4.20
   1   8  12   -1.50    2.90
   1   8  12    0.50    4.50
  -2  -8 -12   92.99   13.10
  -2  -8 -12   69.59   14.10
   2   8  12   73.69   11.20
   2   8  12   94.09   14.80
  -3  -8 -12    2.20    6.70
  -3  -8 -12   -3.00    3.80
  -3  -8 -12    0.60    5.60
   3   8  12    2.00    4.50
   3   8  12   -4.00    5.30
   3   8  12    1.20    4.30
  -4  -8 -12   40.10   14.90
  -4  -8 -12   69.89   13.40
   4   8  12   76.59   25.40
   4   8  12   96.29   17.00
   4   8  12   48.60   11.50
   3  -9 -12    3.00    5.40
   3  -9 -12   -1.20    5.70
   3  -9 -12    1.60    9.00
   2  -9 -12    7.90    7.40
   2  -9 -12   -2.10    4.60
   2  -9 -12    0.00    4.70
   1  -9 -12    5.70    6.50
   1  -9 -12   17.80    7.70
   1  -9 -12    2.60    4.90
   0  -9 -12   -0.80    4.80
   0  -9 -12   -2.40    5.10
   0  -9 -12    7.20    6.50
  -1  -9 -12   -5.00    4.00
  -1  -9 -12   -3.20    4.70
  -1  -9 -12   -0.80    4.70
   1   9  12    2.20    3.10
   1   9  12    1.30    2.50
  -2  -9 -12   15.90    9.00
  -2  -9 -12   16.60    8.30
   2   9  12   19.70    5.70
   2   9  12   10.10    5.60
  -3  -9 -12   25.50   10.90
  -3  -9 -12   22.10    6.90
  -3  -9 -12   44.80   14.50
   3   9  12    9.90    7.60
   3   9  12   25.30    7.80
  -4  -9 -12   -0.20    8.20
  -4  -9 -12   -2.40    3.60
   4   9  12   -0.70    8.20
   4   9  12   -2.50    4.60
   2 -10 -12   39.60   10.30
   2 -10 -12   20.10   10.30
   2 -10 -12   21.00    9.50
   1 -10 -12   84.99   14.30
   1 -10 -12   77.79   13.60
   1 -10 -12   87.59   16.50
   0 -10 -12   14.70    7.60
   0 -10 -12    6.20    7.20
   0 -10 -12   10.40    7.60
  -1 -10 -12    4.20    5.70
  -1 -10 -12   -1.60    4.60
  -1 -10 -12    8.70    7.20
  -2 -10 -12   21.90    9.70
  -3 -10 -12   -2.10    4.90
  -3 -10 -12   -3.80    6.00
  -3 -10 -12    9.40   10.80
   3  10  12   -1.50    3.70
   3  10  12    0.50    3.00
  -4 -10 -12   26.40   14.00
  -4 -10 -12   25.80   12.70
   4  10  12   10.00    7.70
   4  10  12    7.40    5.80
   4  10  12   23.60    8.20
   1 -11 -12    6.10    7.50
   1 -11 -12   -2.00    4.00
   1 -11 -12    2.80    5.30
   0 -11 -12   -2.80    4.60
   0 -11 -12    6.80    6.50
  -1 -11 -12   -1.50    4.20
  -1 -11 -12   -3.30    3.90
  -1 -11 -12   10.10    8.20
  -2 -11 -12   -3.60    5.20
  -2 -11 -12    0.90    6.00
  -3 -11 -12    0.20    4.70
  -3 -11 -12    0.20    6.70
  -3 -11 -12   11.10   13.10
  -4 -11 -12   53.39   15.40
  -4 -11 -12   44.40   11.40
   4  11  12   53.29    9.80
   4  11  12   38.40    7.80
   0 -12 -12   25.70   16.00
   0 -12 -12   25.10   10.20
   0 -12 -12   13.40    8.40
  -1 -12 -12    2.70    6.60
  -1 -12 -12    6.30    7.20
  -1 -12 -12   -2.50    5.70
  -2 -12 -12   56.29   16.10
  -2 -12 -12   64.39   14.90
  -2 -12 -12   48.10   13.20
  -3 -12 -12    6.90    5.70
   2   2 -13   -0.60   10.80
   2   2 -13   -5.40    6.10
  -2  -2  13    4.40    7.60
  -2  -2  13    3.00    6.90
   1   2 -13   -1.70    7.00
   1   2 -13   -5.10    6.20
  -1  -2  13   -3.50    5.50
  -1  -2  13    2.60    9.20
   0   2 -13    6.00    9.10
   0   2 -13    1.60    6.30
   0  -2  13   -7.20    3.60
   0  -2  13    0.50    5.10
   0  -2  13   -5.20    4.50
  -1   2 -13    9.50    7.90
  -1   2 -13    9.60   10.00
   1  -2  13   30.40    8.30
   1  -2  13   13.90    9.90
   1  -2  13   28.10   13.40
   3   1 -13   20.40   12.00
   3   1 -13   14.40   12.20
  -3  -1  13   -7.70    7.90
  -3  -1  13    0.50    7.10
   2   1 -13    7.20    8.70
   2   1 -13   -3.20    7.40
  -2  -1  13   17.40   11.80
   1   1 -13   16.60   10.30
   1   1 -13   12.30    8.70
  -1  -1  13   20.50   10.80
  -1  -1  13    5.30    6.50
  -1  -1  13   17.70    8.00
   0   1 -13    6.10    8.30
   0   1 -13    8.00   10.20
   0  -1  13    9.80    8.00
   0  -1  13   10.10    6.90
   0  -1  13   13.80   10.00
  -1   1 -13    3.10    6.70
  -1   1 -13   19.30   10.70
   1  -1  13   17.30   10.00
   1  -1  13   11.90    7.20
  -2   1 -13    4.00    5.90
  -2   1 -13   -2.30    6.50
   2  -1  13    8.00    9.40
   2  -1  13   -2.80    5.70
   3   0 -13   19.10   11.70
  -3   0  13   18.60   11.30
  -3   0  13   25.20   12.20
   2   0 -13    3.10    9.10
   2   0 -13    3.50    8.00
  -2   0  13   -6.90    4.70
   1   0 -13    2.70    7.80
   1   0 -13    1.40    6.00
  -1   0  13    7.30    7.40
  -1   0  13   -3.10    5.00
  -1   0  13    5.00    4.60
   0   0 -13    5.00    6.80
   0   0 -13   10.50    8.60
   0   0  13    2.30    7.00
   0   0  13    6.80    5.60
   0   0  13   16.70    9.60
  -1   0 -13    3.60    6.00
  -1   0 -13   -6.40    6.10
   1   0  13   -0.70    5.90
   1   0  13   -4.80    3.90
   1   0  13    2.90    5.30
  -2   0 -13   15.90    8.30
  -2   0 -13   30.10   12.70
   2   0  13   17.40   10.20
   3  -1 -13   -6.90    5.80
  -3   1  13   14.50    9.90
  -3   1  13    7.30    7.50
   2  -1 -13   -6.30    4.90
   2  -1 -13   18.50   10.10
  -2   1  13   -1.80    6.80
   1  -1 -13   33.90   12.80
   1  -1 -13   20.70    8.80
  -1   1  13   36.70   11.40
  -1   1  13   14.00    8.40
  -1   1  13   19.20   10.10
   0  -1 -13   16.70   10.60
   0  -1 -13   23.50    9.70
   0   1  13   28.60   10.30
   0   1  13   15.10    8.70
   0   1  13   14.00    6.10
   0   1  13   39.60   19.00
  -1  -1 -13   49.30   11.50
   1   1  13   41.90    8.90
   1   1  13   52.69   12.40
   1   1  13   35.50   10.30
  -2  -1 -13   12.20    7.60
  -2  -1 -13    5.30    8.00
   2   1  13    0.40    5.20
   2   1  13    8.50    7.30
  -3  -1 -13    8.50   10.90
   3   1  13   12.10    9.30
   3   1  13    1.10    6.50
   3  -2 -13   14.30   11.40
   3  -2 -13   -1.30    7.20
  -3   2  13    6.10    8.30
  -3   2  13   10.70    8.80
  -3   2  13   -0.20    4.80
   2  -2 -13    1.20    6.40
   2  -2 -13   13.40    8.10
  -2   2  13    7.20    7.00
  -2   2  13   -1.30    5.90
  -2   2  13    6.30    7.40
   1  -2 -13   53.49   13.00
   1  -2 -13   61.79   14.90
  -1   2  13   47.40   12.30
  -1   2  13   77.79   13.90
  -1   2  13   35.50   12.30
  -1   2  13   57.49    9.70
   0  -2 -13   -2.40    6.70
   0  -2 -13   14.80    8.40
   0  -2 -13    8.60    7.00
   0   2  13    2.30    3.70
   0   2  13   11.80    6.10
   0   2  13   16.00    9.00
  -1  -2 -13   23.70    9.90
  -1  -2 -13   44.50   10.60
   1   2  13   19.80    9.40
   1   2  13   21.90    6.50
   1   2  13   38.40   10.10
   1   2  13    8.50    8.50
  -2  -2 -13   -1.60    6.10
  -2  -2 -13    1.20    5.70
   2   2  13    5.20    6.90
   2   2  13   -1.40    5.00
  -3  -2 -13   11.50    6.70
  -3  -2 -13    7.70    8.40
   3   2  13    6.80    8.20
   3   2  13   10.90    8.10
   3  -3 -13   15.30    8.50
   3  -3 -13    5.50    8.90
  -3   3  13    2.50    7.00
  -3   3  13   -4.70    4.20
   2  -3 -13   26.40   11.10
   2  -3 -13   18.30    9.90
  -2   3  13   11.80    8.90
  -2   3  13    2.90    5.50
   1  -3 -13   -0.20    6.00
   1  -3 -13    4.60    5.70
   1  -3 -13   -2.20    4.60
  -1   3  13    1.70    6.70
  -1   3  13    1.40    5.30
  -1   3  13   -0.80    3.70
  -1   3  13   -3.10    4.40
   0  -3 -13    7.10    7.40
   0  -3 -13   13.20    8.00
   0  -3 -13    9.10    7.90
   0   3  13   -1.80    4.40
   0   3  13    9.00    5.20
   0   3  13    4.80    7.60
   0   3  13    6.80    6.80
  -1  -3 -13   13.80    8.80
  -1  -3 -13   25.10    9.80
  -1  -3 -13   39.80   14.30
   1   3  13   38.70   10.70
   1   3  13   26.00    7.90
  -2  -3 -13    7.10    8.80
  -2  -3 -13   15.60    8.60
   2   3  13    3.70    6.90
   2   3  13   19.80    7.40
   2   3  13   11.00    8.30
  -3  -3 -13   -8.10    3.50
  -3  -3 -13  -11.00    4.00
   3   3  13   -4.00    5.60
   3   3  13   13.40   14.30
   3  -4 -13   15.40   10.70
   3  -4 -13   20.60   10.40
  -3   4  13   22.40    9.20
   2  -4 -13    4.80    7.10
   2  -4 -13   -1.40    6.70
  -2   4  13   -2.00    4.30
   1  -4 -13   61.19   14.90
   1  -4 -13   48.30   11.70
   1  -4 -13   24.30    9.20
  -1   4  13   51.49   11.10
  -1   4  13   25.90   11.60
   0  -4 -13   -0.20    5.90
   0  -4 -13    4.90    6.40
   0  -4 -13    4.20    6.00
   0   4  13    1.30    5.70
   0   4  13   -3.30    2.90
  -1  -4 -13   29.70   10.10
  -1  -4 -13   30.70   10.50
  -1  -4 -13   39.60   12.40
   1   4  13   31.70    7.70
   1   4  13   37.00    9.30
  -2  -4 -13   10.80    8.30
  -2  -4 -13   18.00    8.60
   2   4  13   24.30    7.80
   2   4  13   19.30    9.40
   2   4  13    9.60    8.70
  -3  -4 -13   13.30    9.90
  -3  -4 -13    8.30    6.50
   3   4  13   -0.70    4.80
   3   4  13   38.20   14.30
  -4  -4 -13   -0.70    5.00
  -4  -4 -13    8.80   10.30
   4   4  13   10.80   20.00
   4   4  13    7.30   10.60
   3  -5 -13   -4.30    6.50
   3  -5 -13   -4.20    5.40
  -3   5  13   13.30    7.90
  -3   5  13    9.60    7.60
   2  -5 -13   -0.90    6.20
   2  -5 -13    6.10    8.40
   2  -5 -13    4.20    6.00
  -2   5  13    0.10    5.20
  -2   5  13   -3.40    4.10
   1  -5 -13   -1.60    5.20
   1  -5 -13    0.10    6.40
   1  -5 -13   -5.30    3.00
  -1   5  13   -2.60    3.90
  -1   5  13    0.70    5.40
  -1   5  13    1.30    2.70
   0  -5 -13    5.30    6.80
   0  -5 -13    2.30    5.60
   0  -5 -13    6.40    7.30
   0   5  13   -1.60    5.50
   0   5  13    0.70    4.50
   0   5  13    3.30    4.40
  -1  -5 -13   15.00    8.80
  -1  -5 -13   17.40    9.10
  -1  -5 -13   23.10    9.00
   1   5  13   31.10    8.90
  -2  -5 -13  101.89   19.00
  -2  -5 -13   98.49   15.70
   2   5  13   83.09   17.30
   2   5  13  131.69   17.70
   2   5  13  110.09   13.00
   2   5  13   81.09   14.80
  -3  -5 -13    7.20    8.40
  -3  -5 -13   -3.70    4.00
   3   5  13   -1.00    7.30
   3   5  13   -1.80    8.00
   3   5  13    2.60    5.70
  -4  -5 -13    0.30    5.70
  -4  -5 -13    3.30    9.90
   4   5  13    5.10    7.50
   4   5  13    5.80    9.60
   3  -6 -13   86.29   18.80
  -3   6  13   33.70    9.20
   2  -6 -13   -1.80    4.80
   2  -6 -13    2.20    5.60
   2  -6 -13    2.90    6.90
  -2   6  13   -1.60    4.60
  -2   6  13    4.20    6.00
   1  -6 -13   74.29   13.90
   1  -6 -13   83.59   15.60
   1  -6 -13   59.19   12.60
  -1   6  13   66.49   12.70
  -1   6  13   64.99   11.60
   0  -6 -13   -5.40    5.00
   0  -6 -13   -4.80    4.00
   0  -6 -13   -2.50    4.90
   0   6  13    4.20    6.90
   0   6  13    0.40    5.00
   0   6  13   -2.10    3.30
  -1  -6 -13   13.40    9.10
  -1  -6 -13   25.60   11.40
  -1  -6 -13   21.30    8.80
   1   6  13   20.30   10.20
   1   6  13   34.80    9.10
  -2  -6 -13   11.60    8.70
  -2  -6 -13   21.80    8.30
  -2  -6 -13    9.10    9.60
   2   6  13   25.80    8.70
  -3  -6 -13   49.70   12.00
  -3  -6 -13   55.39   14.80
   3   6  13   73.09   13.80
   3   6  13   43.50   12.10
   3   6  13   41.70   15.10
  -4  -6 -13    6.10    9.10
  -4  -6 -13    7.80    6.90
   4   6  13   -0.80    5.70
   4   6  13    6.30    9.80
   3  -7 -13    8.80    8.90
   3  -7 -13   11.00    8.80
   2  -7 -13    7.40    6.50
   2  -7 -13    4.60    6.40
   2  -7 -13   20.80    9.50
  -2   7  13    9.40    5.20
  -2   7  13   11.90    6.30
   1  -7 -13   20.50    9.70
   1  -7 -13   -1.80    6.40
   1  -7 -13    3.20    5.80
  -1   7  13    2.50    5.50
  -1   7  13    2.80    4.50
   0  -7 -13   -3.80    4.70
   0  -7 -13   -1.50    5.50
   0  -7 -13   -1.50    5.30
   0   7  13    1.00    4.10
   0   7  13    1.70    5.30
   0   7  13    4.30    5.90
  -1  -7 -13    5.20    7.10
  -1  -7 -13    1.30    6.60
  -1  -7 -13   12.60    7.90
   1   7  13   -1.20    5.50
   1   7  13    8.40    5.60
  -2  -7 -13    0.50    5.80
  -2  -7 -13    1.80    7.00
  -2  -7 -13   -0.60    4.40
   2   7  13    6.70    5.80
   2   7  13   -3.20    5.10
  -3  -7 -13   -4.60    5.10
  -3  -7 -13    5.90    7.70
   3   7  13    2.60    5.30
   3   7  13    2.80    5.70
   3   7  13    7.70    9.50
  -4  -7 -13    5.00    6.00
  -4  -7 -13   -5.20    6.20
   4   7  13    4.40    7.40
   2  -8 -13    4.10    6.60
   2  -8 -13    1.70    6.80
   2  -8 -13    6.50    7.50
   1  -8 -13   50.39   12.50
   1  -8 -13   66.39   12.90
   0  -8 -13    3.90    5.90
   0  -8 -13    8.70    7.40
   0  -8 -13   13.30    7.30
   0   8  13    6.30    4.70
   0   8  13   14.20    6.90
  -1  -8 -13   44.30   10.60
  -1  -8 -13   43.30   12.10
  -1  -8 -13   43.20   12.40
   1   8  13   48.40    8.60
   1   8  13   63.29   18.10
  -2  -8 -13   10.00    8.40
  -2  -8 -13    7.80    7.20
  -2  -8 -13    0.20    6.70
   2   8  13    0.20    5.80
   2   8  13    1.50    4.50
  -3  -8 -13   60.59   14.90
  -3  -8 -13   88.19   16.00
   3   8  13   68.79   12.50
  -4  -8 -13    2.30    4.80
  -4  -8 -13    2.90    8.20
   4   8  13   -2.30    5.40
   4   8  13   -1.70    5.10
   4   8  13    9.00    8.20
   2  -9 -13    9.00    7.90
   2  -9 -13    1.50    4.90
   2  -9 -13    1.90   10.70
   1  -9 -13   19.20    9.20
   1  -9 -13   24.80    9.80
   1  -9 -13   37.80   11.10
   0  -9 -13    5.40    6.80
   0  -9 -13   16.80   11.30
   0  -9 -13    6.90    6.10
  -1  -9 -13   -0.70    5.90
  -1  -9 -13    3.20    6.60
  -1  -9 -13    6.20    7.00
   1   9  13   -2.00    3.70
  -2  -9 -13    6.70    7.30
  -2  -9 -13    1.20    6.70
  -2  -9 -13   12.90    8.70
   2   9  13    2.20    4.10
   2   9  13   10.80   11.00
  -3  -9 -13   11.40    7.30
  -3  -9 -13   -0.70    7.30
   3   9  13   11.50    6.70
   3   9  13    9.70    7.50
  -4  -9 -13   63.79   12.10
  -4  -9 -13   64.79   17.00
   4   9  13   55.19   12.10
   4   9  13   48.40   14.10
   4   9  13   67.59   16.50
   1 -10 -13    6.40    6.70
   1 -10 -13    2.00    6.00
   1 -10 -13    1.80    9.40
   0 -10 -13    3.60    6.60
   0 -10 -13    9.30    7.00
  -1 -10 -13   -3.10    4.70
  -1 -10 -13    0.50    6.70
  -1 -10 -13   -2.50    4.40
  -2 -10 -13    3.30    6.40
  -2 -10 -13   -4.00    5.70
  -2 -10 -13    2.30    6.90
   2  10  13    0.20    3.30
  -3 -10 -13    1.80    8.20
  -3 -10 -13    5.20    7.20
   3  10  13    4.70    4.30
   3  10  13    7.20    7.00
   0 -11 -13    0.30    6.20
   0 -11 -13   -8.60    5.70
   0 -11 -13   -2.90    4.60
  -1 -11 -13    0.50    7.90
  -1 -11 -13    6.60    7.00
  -1 -11 -13   20.20    9.50
  -2 -11 -13   11.80    8.00
  -2 -11 -13   -1.40    6.90
  -2 -11 -13    6.30    8.20
  -3 -11 -13   60.99   13.50
  -1 -12 -13    3.30    7.80
  -1 -12 -13    7.60    7.90
   2   0 -14   28.30   15.20
  -2   0  14   29.40   15.70
   1   0 -14   -2.10    6.70
   1   0 -14   12.40    9.20
  -1   0  14    1.80    9.10
   0   0 -14   33.40   19.30
   0   0 -14   13.20    8.30
   0   0  14   50.99   14.40
   0   0  14   28.20   13.10
  -1   0 -14    9.70    8.20
  -1   0 -14   -3.80    8.10
   1   0  14   -0.10    6.10
   1   0  14   -5.10    4.70
   1   0  14    8.60    9.00
   2  -1 -14   -6.10    8.20
   2  -1 -14   -3.20    6.50
  -2   1  14   -7.10    5.60
  -2   1  14    4.70    7.40
   1  -1 -14   -6.10    5.60
  -1   1  14    1.50    7.90
  -1   1  14   -0.70    5.10
   0  -1 -14    2.90    7.10
   0  -1 -14   -3.70    6.30
   0   1  14    2.80    5.10
   0   1  14    1.80    7.00
  -1  -1 -14    0.50    6.60
   1   1  14    5.00    7.40
   1   1  14   13.90    7.50
   1   1  14   -2.90    9.40
  -2  -1 -14   24.00    9.80
   2   1  14   42.90   12.70
   2   1  14   42.30   13.30
   2  -2 -14   15.20   10.00
   2  -2 -14   18.80   12.20
  -2   2  14    5.30    7.60
  -2   2  14   17.10   10.50
   1  -2 -14   11.60    8.80
   1  -2 -14    5.80    8.50
  -1   2  14    0.80    6.30
  -1   2  14    8.20    7.20
   0  -2 -14   34.30   13.30
   0  -2 -14   40.90   12.30
   0   2  14   26.40   11.90
   0   2  14   67.79   13.50
  -1  -2 -14   26.80   11.30
  -1  -2 -14    3.30    7.30
   1   2  14   10.20    5.90
   1   2  14   14.10    8.30
   1   2  14   15.90    8.50
  -2  -2 -14    0.90    8.40
  -2  -2 -14   -5.00    5.40
   2   2  14   -0.40    5.70
   3  -3 -14    2.70    9.30
  -3   3  14    8.20    9.30
   2  -3 -14   -5.10    8.00
   2  -3 -14   -3.10    6.60
  -2   3  14   11.50    8.50
  -2   3  14    7.20    7.30
  -2   3  14    0.50    5.90
   1  -3 -14    7.20    8.30
   1  -3 -14    4.40    7.60
  -1   3  14   -4.60    4.40
  -1   3  14    1.40    5.90
  -1   3  14    2.30    5.60
   0  -3 -14    1.20    6.70
   0  -3 -14    5.50    7.60
   0   3  14   12.60    8.90
   0   3  14   -4.30    4.20
   0   3  14    7.00    7.00
  -1  -3 -14    4.20    7.30
  -1  -3 -14    4.20    7.00
   1   3  14    3.90    5.90
   1   3  14    4.30    6.60
  -2  -3 -14    0.50    5.80
   2   3  14    2.80    6.30
   2   3  14   -3.70    3.70
  -3  -3 -14    0.30    6.80
   3  -4 -14    4.00    8.20
  -3   4  14    1.60    5.50
  -3   4  14   -1.40    5.90
   2  -4 -14   48.10   12.30
   2  -4 -14   29.70   12.40
  -2   4  14   44.60   12.80
  -2   4  14   38.70   11.70
   1  -4 -14   14.00    9.90
   1  -4 -14    5.10    7.50
  -1   4  14    4.30    6.50
   0  -4 -14   47.80   13.40
   0  -4 -14   82.49   15.90
   0   4  14   45.40   11.30
   0   4  14   55.59   14.60
  -1  -4 -14   21.80   10.60
  -1  -4 -14   51.89   11.10
   1   4  14   52.99   10.20
   1   4  14   44.40   10.20
   1   4  14   53.19   15.40
  -2  -4 -14   -0.40    6.60
   2   4  14    7.50    6.70
  -3  -4 -14    0.00    5.30
  -3  -4 -14    1.20    7.70
   3   4  14   -1.50    4.60
   3   4  14    6.20    8.70
   3   4  14    9.00   11.10
   2  -5 -14   25.70   10.90
  -2   5  14   17.00    8.30
   1  -5 -14    3.60    7.70
   1  -5 -14   16.20   10.60
  -1   5  14   -2.70    4.20
   0  -5 -14   26.90   11.30
   0  -5 -14   56.19   13.80
   0   5  14   35.40    9.90
   0   5  14    9.40    7.70
  -1  -5 -14    0.60    7.40
  -1  -5 -14    0.50    6.90
   1   5  14   -3.00    4.00
   1   5  14    0.00    6.80
  -2  -5 -14   11.30    7.70
  -2  -5 -14   16.60   10.00
   2   5  14    6.20    7.10
   2   5  14    7.10    7.70
   2   5  14    5.80    8.60
   2   5  14    7.50    5.80
  -3  -5 -14   20.80   11.20
  -3  -5 -14   25.80    9.90
   3   5  14   18.50    9.10
   3   5  14   25.00    9.10
   3   5  14    8.70    9.80
   2  -6 -14   22.30   11.10
   2  -6 -14   13.50    9.70
  -2   6  14   19.90    7.90
  -2   6  14   10.50    7.80
   1  -6 -14   -4.80    7.00
   1  -6 -14   -2.70    6.50
  -1   6  14    4.90    6.60
  -1   6  14   -5.50    3.60
   0  -6 -14    8.90    8.00
   0  -6 -14    5.40    7.50
   0   6  14    4.70    6.90
  -1  -6 -14    9.60    7.50
  -1  -6 -14    3.30    7.10
   1   6  14    1.60    5.10
  -2  -6 -14    3.10    6.20
  -2  -6 -14    3.00    7.30
   2   6  14   -2.80    5.10
   2   6  14   -1.60    4.30
  -3  -6 -14    6.30    7.40
  -3  -6 -14    4.20    9.10
   3   6  14   -1.50    5.80
   3   6  14   14.90    7.10
   3   6  14    2.70   11.20
   2  -7 -14   43.10   12.20
   2  -7 -14   19.70   11.10
  -2   7  14   75.69   12.10
  -2   7  14   50.29    9.60
   1  -7 -14   -4.20    5.20
   1  -7 -14    0.10    6.40
  -1   7  14    2.70    5.70
  -1   7  14   -4.80    3.50
   0  -7 -14   22.90   10.80
   0  -7 -14   45.40   12.70
   0   7  14   63.59   14.50
   0   7  14   31.00    8.40
  -1  -7 -14   11.80    8.10
  -1  -7 -14   12.70    9.40
   1   7  14   -1.50    6.10
   1   7  14   14.00    6.90
  -2  -7 -14   22.70   11.20
   2   7  14    6.10    8.10
   2   7  14   16.10    8.20
  -3  -7 -14   68.99   14.50
   3   7  14   31.80    9.50
   3   7  14   37.20   11.10
   3   7  14   20.60   11.30
   2  -8 -14    4.50    9.70
   1  -8 -14    4.00    7.10
  -1   8  14    1.60    4.20
   0  -8 -14   14.10    8.70
   0  -8 -14    4.30    7.10
   0   8  14    0.70    5.60
   0   8  14    9.60    5.60
  -1  -8 -14    7.70    7.60
  -1  -8 -14   13.50    7.20
   1   8  14   21.10    7.10
   1   8  14    3.70    6.70
  -2  -8 -14   25.90   11.60
  -2  -8 -14   15.90    8.20
   2   8  14   -1.50    6.00
   2   8  14    8.60    6.80
  -3  -8 -14    1.80    6.60
  -3  -8 -14    6.30    8.50
   3   8  14   -1.00    7.30
   3   8  14    0.60    5.30
   1  -9 -14   -2.90    4.90
   1  -9 -14   -3.20    5.90
   0  -9 -14   21.80   13.40
  -1  -9 -14   -1.90    5.40
  -1  -9 -14    5.00    7.80
   1   9  14   -1.00    3.70
   1   9  14    1.40    4.70
  -2  -9 -14   16.20    9.70
   2   9  14   12.90    7.90
   2   9  14   30.60    8.30
  -3  -9 -14    0.70    6.00
  -3  -9 -14    5.20    8.70
   3   9  14    2.50    4.90
   0 -10 -14   -2.10    5.40
   0 -10 -14    0.70    5.40
  -1 -10 -14   -3.50    6.70
  -1 -10 -14    6.60    7.60
  -2 -10 -14   -4.20    4.40
  -2 -10 -14    1.80    7.70
   2  10  14   -2.40    4.00
   0  -2 -15   -0.70    6.90
   0  -2 -15   -1.00    7.40
   0   2  15   -6.60    4.40
   0   2  15    5.20   11.80
   1  -3 -15   19.20   11.20
   1  -3 -15   13.10   10.10
  -1   3  15    4.50    7.30
  -1   3  15    8.50    7.70
   0  -3 -15   -2.10    6.50
   0  -3 -15    2.40    7.90
   0   3  15    4.50    6.70
   0   3  15   16.90   10.20
  -1  -3 -15   67.69   15.60
  -1  -3 -15   60.29   14.60
   1   3  15   48.90   14.50
   1  -4 -15    2.40    8.50
   1  -4 -15    2.00    7.30
   0  -4 -15    3.50    8.40
   0  -4 -15   17.30   10.40
   0   4  15   16.00    9.30
  -1  -4 -15    8.30   10.50
  -1  -4 -15    6.60    7.70
   1   4  15   20.00   10.50
   1   4  15   25.80    8.90
   1  -5 -15   24.60   11.70
   1  -5 -15   42.00   12.30
  -1   5  15    9.30    9.00
  -1   5  15   17.60    8.80
   0  -5 -15   -4.50    5.40
   0  -5 -15   -6.90    6.00
   0   5  15   -2.90    5.20
   0   5  15   -2.40    5.20
  -1  -5 -15   88.69   18.30
  -1  -5 -15  112.49   18.20
   1   5  15  113.29   19.30
  -2  -5 -15   -2.10    6.10
   2   5  15    7.90    7.70
   2   5  15    8.30    8.10
   2   5  15    3.60    5.60
   1  -6 -15    4.20    8.10
   1  -6 -15    4.40    8.20
  -1   6  15   10.20    8.00
   0  -6 -15   -1.90    9.40
   0   6  15   -0.30    7.50
   0   6  15    1.00    5.40
  -1  -6 -15    2.20    7.50
  -1  -6 -15   14.80    9.40
   1   6  15   27.40   11.90
   1   6  15   16.20    8.70
  -2  -6 -15    4.30    8.30
  -2  -6 -15    0.50    7.00
   2   6  15   -2.10    5.50
   1  -7 -15    1.40    6.90
   1  -7 -15   -6.50    8.50
  -1   7  15    2.20    6.80
  -1   7  15    5.50    6.20
   0  -7 -15    8.20    9.40
   0  -7 -15   19.00   15.90
   0   7  15    7.00    8.10
  -1  -7 -15   -2.40   11.30
  -1  -7 -15    4.40    8.20
   1   7  15   -3.00    4.70
  -2  -7 -15    9.60    8.10
   2   7  15   14.20    8.20
   2   7  15    1.70    7.70
   0  -8 -15   -5.70    4.80
   0  -8 -15   -0.60    6.90
   0   8  15    6.20    5.80
   0   8  15    1.30    6.00
  -1  -8 -15   84.99   14.00
   1   8  15   58.29   14.60
   1   8  15   53.09   11.30
   0   0   0    0.00    0.00

_computing_structure_solution     'SHELXT 2018/2 (Sheldrick, 2018)'
;
_shelx_hkl_checksum              48379
_olex2_submission_special_instructions 'No special instructions were received'
loop_
_space_group_symop_operation_xyz
'x, y, z'
'-x, -y, -z'
loop_
_atom_site_label
_atom_site_type_symbol
_atom_site_fract_x
_atom_site_fract_y
_atom_site_fract_z
_atom_site_U_iso_or_equiv
_atom_site_adp_type
_atom_site_occupancy
_atom_site_site_symmetry_order
_atom_site_calc_flag
_atom_site_refinement_flags_posn
_atom_site_refinement_flags_adp
_atom_site_refinement_flags_occupancy
_atom_site_disorder_assembly
_atom_site_disorder_group
S1 S 0.73326(15) 0.27397(8) -0.14157(7) 0.0321(2) Uani 1 1 d . . . . .
O1 O 0.5235(4) 0.3663(2) -0.2214(2) 0.0411(6) Uani 1 1 d . . . . .
C6 C 0.7432(9) 0.1212(4) -0.1533(4) 0.0630(13) Uani 1 1 d . . . . .
H6A H 0.614443 0.086368 -0.110820 0.095 Uiso 1 1 calc R U . . .
H6B H 0.892457 0.060077 -0.117090 0.095 Uiso 1 1 calc R U . . .
H6C H 0.728206 0.133124 -0.238465 0.095 Uiso 1 1 calc R U . . .
C7 C 0.9782(7) 0.3096(5) -0.2258(4) 0.0553(11) Uani 1 1 d . . . . .
H7C H 0.957984 0.306771 -0.305765 0.083 Uiso 1 1 calc R U . . .
H7D H 1.120283 0.245005 -0.183699 0.083 Uiso 1 1 calc R U . . .
H7E H 0.991716 0.396716 -0.234471 0.083 Uiso 1 1 calc R U . . .
N1 N 0.1365(4) 0.3283(2) 0.0216(2) 0.0289(6) Uani 1 1 d . . . . .
N2 N 0.2701(4) 0.4665(2) 0.0877(2) 0.0244(5) Uani 1 1 d . . . . .
N3 N 0.4240(4) 0.3476(2) 0.1221(2) 0.0233(5) Uani 1 1 d . . . . .
N4 N 0.4598(5) 0.1415(2) 0.1022(2) 0.0333(6) Uani 1 1 d . . . . .
N5 N 0.6586(5) 0.1001(2) 0.1675(2) 0.0336(6) Uani 1 1 d . . . . .
N6 N 1.1283(6) 0.0711(3) 0.3377(3) 0.0540(9) Uani 1 1 d . . . . .
N7 N 0.6946(4) 0.3891(2) 0.2303(2) 0.0284(6) Uani 1 1 d . . . . .
H7A H 0.609191 0.469127 0.212361 0.034 Uiso 1 1 calc R U . . .
H7B H 0.825941 0.362766 0.274828 0.034 Uiso 1 1 calc R U . . .
C1 C 0.1032(5) 0.4475(3) 0.0280(3) 0.0245(6) Uani 1 1 d . . . . .
C2 C 0.3419(5) 0.2655(3) 0.0817(3) 0.0260(6) Uani 1 1 d . . . . .
C3 C 0.7393(5) 0.1782(3) 0.2105(3) 0.0285(7) Uani 1 1 d . . . . .
C4 C 0.6263(5) 0.3094(3) 0.1910(2) 0.0232(6) Uani 1 1 d . . . . .
C5 C 0.9562(6) 0.1191(3) 0.2813(3) 0.0364(8) Uani 1 1 d . . . . .
S2 S 0.2689(3) 0.28121(13) 0.43126(15) 0.0347(5) Uani 0.769(6) 1 d . . P A 1
O2 O 0.0084(6) 0.3379(3) 0.4206(4) 0.0470(11) Uani 0.769(6) 1 d . . P A 1
C8 C 0.3214(15) 0.1355(8) 0.5636(6) 0.0453(17) Uani 0.769(6) 1 d . . P A 1
H8A H 0.489301 0.094702 0.576303 0.068 Uiso 0.769(6) 1 calc R U P A 1
H8B H 0.237694 0.074963 0.553429 0.068 Uiso 0.769(6) 1 calc R U P A 1
H8C H 0.265841 0.157112 0.633604 0.068 Uiso 0.769(6) 1 calc R U P A 1
C9 C 0.3960(14) 0.3768(9) 0.4878(7) 0.0483(18) Uani 0.769(6) 1 d . . P A 1
H9A H 0.312822 0.386772 0.557457 0.073 Uiso 0.769(6) 1 calc R U P A 1
H9B H 0.384507 0.462873 0.424712 0.073 Uiso 0.769(6) 1 calc R U P A 1
H9C H 0.560805 0.333462 0.512474 0.073 Uiso 0.769(6) 1 calc R U P A 1
S2A S 0.1634(12) 0.2935(4) 0.4794(6) 0.0395(18) Uani 0.231(6) 1 d . . P A 2
O2A O 0.136(2) 0.3377(10) 0.3463(9) 0.039(3) Uani 0.231(6) 1 d . . P A 2
C8A C 0.393(6) 0.157(3) 0.521(2) 0.055(8) Uani 0.231(6) 1 d . . P A 2
H8AA H 0.357186 0.092881 0.491342 0.082 Uiso 0.231(6) 1 calc R U P A 2
H8AB H 0.417273 0.118678 0.608619 0.082 Uiso 0.231(6) 1 calc R U P A 2
H8AC H 0.535362 0.181184 0.485099 0.082 Uiso 0.231(6) 1 calc R U P A 2
C9A C 0.311(5) 0.401(3) 0.512(2) 0.047(7) Uani 0.231(6) 1 d . . P A 2
H9AA H 0.444921 0.411592 0.461223 0.071 Uiso 0.231(6) 1 calc R U P A 2
H9AB H 0.365845 0.363786 0.596914 0.071 Uiso 0.231(6) 1 calc R U P A 2
H9AC H 0.202331 0.486403 0.494466 0.071 Uiso 0.231(6) 1 calc R U P A 2
loop_
_atom_site_aniso_label
_atom_site_aniso_U_11
_atom_site_aniso_U_22
_atom_site_aniso_U_33
_atom_site_aniso_U_23
_atom_site_aniso_U_13
_atom_site_aniso_U_12
S1 0.0323(5) 0.0294(4) 0.0376(5) -0.0165(3) -0.0016(3) -0.0058(3)
O1 0.0353(14) 0.0330(13) 0.0572(15) -0.0235(12) -0.0114(12) 0.0006(11)
C6 0.080(3) 0.033(2) 0.079(3) -0.029(2) -0.017(3) -0.001(2)
C7 0.040(2) 0.085(3) 0.052(2) -0.039(2) 0.0075(19) -0.016(2)
N1 0.0259(15) 0.0273(14) 0.0338(14) -0.0110(11) -0.0044(11) -0.0067(11)
N2 0.0190(13) 0.0252(13) 0.0268(13) -0.0095(10) -0.0033(10) -0.0010(10)
N3 0.0211(13) 0.0239(13) 0.0250(12) -0.0094(10) -0.0033(10) -0.0046(10)
N4 0.0330(16) 0.0232(14) 0.0424(16) -0.0122(12) -0.0085(13) -0.0026(12)
N5 0.0358(17) 0.0245(14) 0.0374(15) -0.0094(12) -0.0033(13) -0.0040(12)
N6 0.0395(19) 0.055(2) 0.065(2) -0.0328(18) -0.0214(17) 0.0153(16)
N7 0.0228(14) 0.0264(13) 0.0335(14) -0.0107(11) -0.0088(11) -0.0005(11)
C1 0.0200(15) 0.0295(16) 0.0253(14) -0.0096(12) 0.0000(12) -0.0089(12)
C2 0.0243(16) 0.0245(15) 0.0293(16) -0.0090(13) -0.0003(13) -0.0076(13)
C3 0.0254(17) 0.0258(16) 0.0309(16) -0.0082(13) -0.0007(13) -0.0037(13)
C4 0.0175(15) 0.0261(15) 0.0250(14) -0.0083(12) 0.0007(12) -0.0051(12)
C5 0.033(2) 0.0341(18) 0.0395(18) -0.0159(15) -0.0029(16) 0.0013(15)
S2 0.0353(9) 0.0398(7) 0.0296(8) -0.0115(5) -0.0053(7) -0.0114(6)
O2 0.034(2) 0.045(2) 0.059(3) -0.0246(18) -0.025(2) 0.0070(16)
C8 0.052(4) 0.038(3) 0.036(4) -0.006(3) -0.008(3) -0.003(3)
C9 0.053(5) 0.060(5) 0.041(4) -0.022(3) -0.008(3) -0.025(4)
S2A 0.041(4) 0.040(2) 0.039(3) -0.018(2) -0.004(3) -0.009(2)
O2A 0.041(7) 0.036(6) 0.030(6) -0.004(5) -0.018(5) -0.006(5)
C8A 0.09(2) 0.040(13) 0.026(13) -0.010(11) -0.025(11) -0.003(13)
C9A 0.078(19) 0.033(11) 0.044(12) -0.026(9) 0.020(12) -0.023(12)
loop_
_atom_type_symbol
_atom_type_description
_atom_type_scat_dispersion_real
_atom_type_scat_dispersion_imag
_atom_type_scat_source
C C 0.0033 0.0016 'International Tables Vol C Tables 4.2.6.8 and 6.1.1.4'
H H 0.0000 0.0000 'International Tables Vol C Tables 4.2.6.8 and 6.1.1.4'
N N 0.0061 0.0033 'International Tables Vol C Tables 4.2.6.8 and 6.1.1.4'
O O 0.0106 0.0060 'International Tables Vol C Tables 4.2.6.8 and 6.1.1.4'
S S 0.1246 0.1234 'International Tables Vol C Tables 4.2.6.8 and 6.1.1.4'
loop_
_geom_angle_atom_site_label_1
_geom_angle_atom_site_label_2
_geom_angle_atom_site_label_3
_geom_angle
_geom_angle_site_symmetry_1
_geom_angle_site_symmetry_3
_geom_angle_publ_flag
O1 S1 C6 104.65(17) . . ?
O1 S1 C7 105.13(18) . . ?
C7 S1 C6 98.3(2) . . ?
S1 C6 H6A 109.5 . . ?
S1 C6 H6B 109.5 . . ?
S1 C6 H6C 109.5 . . ?
H6A C6 H6B 109.5 . . ?
H6A C6 H6C 109.5 . . ?
H6B C6 H6C 109.5 . . ?
S1 C7 H7C 109.5 . . ?
S1 C7 H7D 109.5 . . ?
S1 C7 H7E 109.5 . . ?
H7C C7 H7D 109.5 . . ?
H7C C7 H7E 109.5 . . ?
H7D C7 H7E 109.5 . . ?
C2 N1 C1 102.6(2) . . ?
C1 N2 N3 100.7(2) . . ?
N2 N3 C2 110.4(2) . . ?
C4 N3 N2 126.4(2) . . ?
C4 N3 C2 123.1(2) . . ?
N5 N4 C2 116.0(3) . . ?
N4 N5 C3 121.6(3) . . ?
H7A N7 H7B 120.0 . . ?
C4 N7 H7A 120.0 . . ?
C4 N7 H7B 120.0 . . ?
N1 C1 C1 122.4(3) . 2_565 ?
N2 C1 N1 117.0(3) . . ?
N2 C1 C1 120.6(3) . 2_565 ?
N1 C2 N3 109.3(3) . . ?
N1 C2 N4 127.5(3) . . ?
N4 C2 N3 123.2(3) . . ?
N5 C3 C4 125.2(3) . . ?
N5 C3 C5 115.2(3) . . ?
C4 C3 C5 119.6(3) . . ?
N3 C4 C3 110.8(3) . . ?
N7 C4 N3 121.2(3) . . ?
N7 C4 C3 128.0(3) . . ?
N6 C5 C3 179.4(4) . . ?
O2 S2 C8 105.6(4) . . ?
O2 S2 C9 106.2(3) . . ?
C9 S2 C8 98.1(4) . . ?
S2 C8 H8A 109.5 . . ?
S2 C8 H8B 109.5 . . ?
S2 C8 H8C 109.5 . . ?
H8A C8 H8B 109.5 . . ?
H8A C8 H8C 109.5 . . ?
H8B C8 H8C 109.5 . . ?
S2 C9 H9A 109.5 . . ?
S2 C9 H9B 109.5 . . ?
S2 C9 H9C 109.5 . . ?
H9A C9 H9B 109.5 . . ?
H9A C9 H9C 109.5 . . ?
H9B C9 H9C 109.5 . . ?
O2A S2A C8A 104.4(11) . . ?
O2A S2A C9A 106.8(10) . . ?
C8A S2A C9A 97.9(14) . . ?
S2A C8A H8AA 109.5 . . ?
S2A C8A H8AB 109.5 . . ?
S2A C8A H8AC 109.5 . . ?
H8AA C8A H8AB 109.5 . . ?
H8AA C8A H8AC 109.5 . . ?
H8AB C8A H8AC 109.5 . . ?
S2A C9A H9AA 109.5 . . ?
S2A C9A H9AB 109.5 . . ?
S2A C9A H9AC 109.5 . . ?
H9AA C9A H9AB 109.5 . . ?
H9AA C9A H9AC 109.5 . . ?
H9AB C9A H9AC 109.5 . . ?
loop_
_geom_bond_atom_site_label_1
_geom_bond_atom_site_label_2
_geom_bond_distance
_geom_bond_site_symmetry_2
_geom_bond_publ_flag
S1 O1 1.507(2) . ?
S1 C6 1.781(4) . ?
S1 C7 1.773(4) . ?
C6 H6A 0.9800 . ?
C6 H6B 0.9800 . ?
C6 H6C 0.9800 . ?
C7 H7C 0.9800 . ?
C7 H7D 0.9800 . ?
C7 H7E 0.9800 . ?
N1 C1 1.353(4) . ?
N1 C2 1.330(4) . ?
N2 N3 1.363(3) . ?
N2 C1 1.337(4) . ?
N3 C2 1.379(4) . ?
N3 C4 1.360(4) . ?
N4 N5 1.318(4) . ?
N4 C2 1.350(4) . ?
N5 C3 1.354(4) . ?
N6 C5 1.139(4) . ?
N7 H7A 0.8800 . ?
N7 H7B 0.8800 . ?
N7 C4 1.306(4) . ?
C1 C1 1.461(6) 2_565 ?
C3 C4 1.417(4) . ?
C3 C5 1.432(5) . ?
S2 O2 1.509(4) . ?
S2 C8 1.791(7) . ?
S2 C9 1.779(8) . ?
C8 H8A 0.9800 . ?
C8 H8B 0.9800 . ?
C8 H8C 0.9800 . ?
C9 H9A 0.9800 . ?
C9 H9B 0.9800 . ?
C9 H9C 0.9800 . ?
S2A O2A 1.483(13) . ?
S2A C8A 1.73(3) . ?
S2A C9A 1.81(3) . ?
C8A H8AA 0.9800 . ?
C8A H8AB 0.9800 . ?
C8A H8AC 0.9800 . ?
C9A H9AA 0.9800 . ?
C9A H9AB 0.9800 . ?
C9A H9AC 0.9800 . ?
loop_
_geom_torsion_atom_site_label_1
_geom_torsion_atom_site_label_2
_geom_torsion_atom_site_label_3
_geom_torsion_atom_site_label_4
_geom_torsion
_geom_torsion_site_symmetry_1
_geom_torsion_site_symmetry_2
_geom_torsion_site_symmetry_3
_geom_torsion_site_symmetry_4
_geom_torsion_publ_flag
N2 N3 C2 N1 -0.1(3) . . . . ?
N2 N3 C2 N4 179.6(3) . . . . ?
N2 N3 C4 N7 -1.1(4) . . . . ?
N2 N3 C4 C3 178.8(3) . . . . ?
N3 N2 C1 N1 0.1(3) . . . . ?
N3 N2 C1 C1 -179.3(3) . . . 2_565 ?
N4 N5 C3 C4 -0.5(5) . . . . ?
N4 N5 C3 C5 179.2(3) . . . . ?
N5 N4 C2 N1 -178.2(3) . . . . ?
N5 N4 C2 N3 2.1(4) . . . . ?
N5 C3 C4 N3 -0.3(4) . . . . ?
N5 C3 C4 N7 179.7(3) . . . . ?
C1 N1 C2 N3 0.2(3) . . . . ?
C1 N1 C2 N4 -179.5(3) . . . . ?
C1 N2 N3 C2 0.0(3) . . . . ?
C1 N2 N3 C4 -177.2(3) . . . . ?
C2 N1 C1 N2 -0.2(3) . . . . ?
C2 N1 C1 C1 179.2(3) . . . 2_565 ?
C2 N3 C4 N7 -178.0(3) . . . . ?
C2 N3 C4 C3 2.0(4) . . . . ?
C2 N4 N5 C3 -0.4(4) . . . . ?
C4 N3 C2 N1 177.2(3) . . . . ?
C4 N3 C2 N4 -3.1(4) . . . . ?
C5 C3 C4 N3 180.0(3) . . . . ?
C5 C3 C4 N7 -0.1(5) . . . . ?
