#------------------------------------------------------------------------------
#$Date: 2022-09-02 01:56:19 +0300 (Fri, 02 Sep 2022) $
#$Revision: 277568 $
#$URL: file:///home/coder/svn-repositories/cod/cif/7/71/11/7711121.cif $
#------------------------------------------------------------------------------
#
# This file is available in the Crystallography Open Database (COD),
# http://www.crystallography.net/
#
# All data on this site have been placed in the public domain by the
# contributors.
#
data_7711121
loop_
_publ_author_name
'Hou, Ying'
'Li, Hongyi'
'Wu, Hongping'
'Yu, Hongwei'
'Hu, Zhanggui'
'Wang, Jiyang'
'Wu, Yicheng'
_publ_section_title
;
 Ba2[WO3F(IO3)][WO3F2]: The First Polar Fluorinated Tungsten Iodate
 Featuring the Direct W-O-I Bond
;
_journal_name_full               'Dalton Transactions'
_journal_paper_doi               10.1039/D2DT02085H
_journal_year                    2022
_chemical_formula_sum            'Ba2 F3 I O9 W2'
_chemical_formula_weight         970.28
_space_group_crystal_system      monoclinic
_space_group_IT_number           9
_space_group_name_Hall           'C -2yc'
_space_group_name_H-M_alt        'C 1 c 1'
_audit_creation_method           SHELXL-2018/3
_audit_update_record
;
2022-08-20 deposited with the CCDC.	2022-09-01 downloaded from the CCDC.
;
_cell_angle_alpha                90
_cell_angle_beta                 120.89(2)
_cell_angle_gamma                90
_cell_formula_units_Z            4
_cell_length_a                   7.691(6)
_cell_length_b                   20.655(13)
_cell_length_c                   7.418(5)
_cell_measurement_reflns_used    3158
_cell_measurement_temperature    273(2)
_cell_measurement_theta_max      27.28
_cell_measurement_theta_min      3.24
_cell_volume                     1011.3(12)
_computing_structure_refinement  'SHELXL-2018/3 (Sheldrick, 2018)'
_computing_structure_solution    'SHELXT 2014/5 (Sheldrick, 2014)'
_diffrn_ambient_temperature      273(2)
_diffrn_measured_fraction_theta_full 1.000
_diffrn_measured_fraction_theta_max 1.000
_diffrn_measurement_device_type  'CCD area detector'
_diffrn_measurement_method       'phi and omega scans'
_diffrn_radiation_type           MoK\a
_diffrn_radiation_wavelength     0.71073
_diffrn_reflns_av_R_equivalents  0.0674
_diffrn_reflns_av_unetI/netI     0.0607
_diffrn_reflns_Laue_measured_fraction_full 1.000
_diffrn_reflns_Laue_measured_fraction_max 1.000
_diffrn_reflns_limit_h_max       9
_diffrn_reflns_limit_h_min       -9
_diffrn_reflns_limit_k_max       25
_diffrn_reflns_limit_k_min       -25
_diffrn_reflns_limit_l_max       9
_diffrn_reflns_limit_l_min       -9
_diffrn_reflns_number            9200
_diffrn_reflns_point_group_measured_fraction_full 0.999
_diffrn_reflns_point_group_measured_fraction_max 0.999
_diffrn_reflns_theta_full        25.242
_diffrn_reflns_theta_max         25.999
_diffrn_reflns_theta_min         1.972
_exptl_absorpt_coefficient_mu    33.492
_exptl_absorpt_correction_type   multi-scan
_exptl_crystal_colour            colorless
_exptl_crystal_density_diffrn    6.373
_exptl_crystal_description       block
_exptl_crystal_F_000             1648
_exptl_crystal_size_max          0.056
_exptl_crystal_size_mid          0.046
_exptl_crystal_size_min          0.027
_exptl_transmission_factor_max   0.0468
_exptl_transmission_factor_min   0.0197
_refine_diff_density_max         1.583
_refine_diff_density_min         -1.238
_refine_diff_density_rms         0.296
_refine_ls_abs_structure_details
;
 Flack x determined using 796 quotients [(I+)-(I-)]/[(I+)+(I-)]
 (Parsons, Flack and Wagner, Acta Cryst. B69 (2013) 249-259).
;
_refine_ls_abs_structure_Flack   0.017(11)
_refine_ls_extinction_method     none
_refine_ls_goodness_of_fit_ref   1.046
_refine_ls_hydrogen_treatment    undef
_refine_ls_matrix_type           full
_refine_ls_number_parameters     154
_refine_ls_number_reflns         1988
_refine_ls_number_restraints     2
_refine_ls_restrained_S_all      1.045
_refine_ls_R_factor_all          0.0412
_refine_ls_R_factor_gt           0.0346
_refine_ls_shift/su_max          0.000
_refine_ls_shift/su_mean         0.000
_refine_ls_structure_factor_coef Fsqd
_refine_ls_weighting_details
'w=1/[\s^2^(Fo^2^)+(0.0105P)^2^+0.2293P] where P=(Fo^2^+2Fc^2^)/3'
_refine_ls_weighting_scheme      calc
_refine_ls_wR_factor_gt          0.0571
_refine_ls_wR_factor_ref         0.0597
_reflns_Friedel_coverage         0.986
_reflns_Friedel_fraction_full    0.998
_reflns_Friedel_fraction_max     0.998
_reflns_number_gt                1818
_reflns_number_total             1988
_reflns_threshold_expression     'I > 2\s(I)'
_cod_data_source_file            d2dt02085h2.cif
_cod_data_source_block           1_a
_cod_original_sg_symbol_H-M      'C c'
_cod_database_code               7711121
_shelx_shelxl_version_number     2018/3
_shelx_space_group_comment
;
The symmetry employed for this shelxl refinement is uniquely defined
by the following loop, which should always be used as a source of
symmetry information in preference to the above space-group names.
They are only intended as comments.
;
_shelx_res_file
;
TITL 1_a.res in Cc
    1_a.res
    created by SHELXL-2018/3 at 12:11:57 on 20-Aug-2022
REM Old TITL 1 in Cc
REM SHELXT solution in Cc
REM R1 0.071,  Rweak 0.038,  Alpha 0.004,  Orientation as input
REM Flack x =  0.060 ( 0.010 ) from Parsons' quotients
REM Formula found by SHELXT:  F3 I3 O9 W2
CELL  0.71073   7.6914  20.6553   7.4182   90.000  120.894   90.000
ZERR    4.000   0.0055   0.0134   0.0050    0.000    0.021    0.000
LATT -7
SYMM X, -Y, 1/2+Z
SFAC BA F I O W
UNIT 8 12 4 36 8
ACTA
TEMP 0
omit -2 52
L.S. 10
BOND $H
LIST 4
FMAP 2
PLAN 20
WGHT    0.010500    0.229300
FVAR       0.14999
W1    5    0.700258    0.511836    0.590681    11.00000    0.02561    0.02701 =
         0.01698   -0.00073    0.01146    0.00107
W2    5    0.289008    0.754802    0.395685    11.00000    0.02547    0.03624 =
         0.02323    0.00126    0.00213    0.00440
BA1   1    0.152681    0.574791    0.120774    11.00000    0.02421    0.02733 =
         0.02272   -0.00239    0.00948    0.00272
BA2   1    0.326180    0.821997    0.946479    11.00000    0.02970    0.04370 =
         0.02355    0.00332    0.01277    0.00213
I1    3    0.385293    0.393322    0.256096    11.00000    0.02847    0.02637 =
         0.03204    0.00109    0.01815    0.00080
F1    2    0.825172    0.421038    0.697390    11.00000    0.04023    0.01650 =
         0.02934   -0.00260    0.01494    0.00369
F2    2    0.176059    0.669772    0.381506    11.00000    0.05427    0.03635 =
         0.04385   -0.01126    0.03194   -0.01028
F3    2    0.387939    0.718587    0.217568    11.00000    0.04493    0.05190 =
         0.04127    0.00351    0.02492    0.00513
O1    4    0.374178    0.834903    0.358975    11.00000    0.01735    0.01582 =
         0.02132   -0.00105    0.00425   -0.00913
O2    4    0.557284    0.580031    0.451277    11.00000    0.02062    0.02033 =
         0.02039   -0.00068    0.00732   -0.00573
O3    4    0.688356    0.523614    0.831123    11.00000    0.02431    0.03111 =
         0.02420    0.00603    0.01329    0.01014
O4    4    0.033330    0.769283    0.124740    11.00000    0.03028    0.04570 =
         0.02046    0.00100   -0.00019    0.01505
O5    4    0.169527    0.784127    0.540345    11.00000    0.03584    0.03190 =
         0.03914   -0.01234    0.02540   -0.00087
O6    4    0.214630    0.343899    0.291208    11.00000    0.02759    0.03235 =
         0.04898    0.00848    0.02140   -0.00937
O7    4    0.229460    0.449365    0.051316    11.00000    0.02343    0.02253 =
         0.01698   -0.00009   -0.00214    0.00133
O8    4    0.441733    0.449547    0.477350    11.00000    0.03371    0.04400 =
         0.02905   -0.01791    0.02072   -0.02144
O9    4    0.945955    0.539414    0.688586    11.00000    0.01356    0.02556 =
         0.03240   -0.01010    0.00782   -0.00156
HKLF 4




REM  1_a.res in Cc
REM wR2 = 0.059686, GooF = S = 1.04597, Restrained GooF = 1.04540 for all data
REM R1 = 0.034580 for 1818 Fo > 4sig(Fo) and 0.041248 for all 1988 data
REM 154 parameters refined using 2 restraints

END

WGHT      0.0092      1.0358

REM Highest difference peak  1.583,  deepest hole -1.238,  1-sigma level  0.296
Q1    1   0.3414  0.3721  0.1443  11.00000  0.05    1.58
Q2    1   0.1378  0.8072  0.8792  11.00000  0.05    1.19
Q3    1   0.6948  0.4716  0.6011  11.00000  0.05    1.13
Q4    1   0.2515  0.6195  0.1340  11.00000  0.05    1.12
Q5    1   0.4575  0.5001  0.3429  11.00000  0.05    1.06
Q6    1   0.2948  0.3366  0.2513  11.00000  0.05    1.06
Q7    1   0.3378  0.7530  0.3483  11.00000  0.05    1.05
Q8    1   0.4140  0.4085  0.6549  11.00000  0.05    1.04
Q9    1   0.2218  0.7668  1.0009  11.00000  0.05    0.99
Q10   1   0.2813  0.7827  0.4309  11.00000  0.05    0.99
Q11   1   0.3181  0.8501  1.0783  11.00000  0.05    0.95
Q12   1   0.3446  0.7442  0.5998  11.00000  0.05    0.95
Q13   1   1.0020  0.5607  0.7688  11.00000  0.05    0.93
Q14   1   0.2304  0.7402  0.4087  11.00000  0.05    0.93
Q15   1   1.1671  0.5299  0.8654  11.00000  0.05    0.91
Q16   1   0.6987  0.5534  0.4263  11.00000  0.05    0.89
Q17   1   0.3745  0.6918  0.0312  11.00000  0.05    0.89
Q18   1   0.5064  0.4233  0.4005  11.00000  0.05    0.89
Q19   1   0.1009  0.8232  0.4502  11.00000  0.05    0.89
Q20   1   0.4406  0.3560  0.5661  11.00000  0.05    0.88
;
_shelx_res_checksum              27340
_shelx_hkl_file
;
   2   0   0 8325.67  412.76
   2   0   0 8451.96  405.56
   2   0   0 8543.15  414.06
   2   0   0 8090.19  402.96
  -2   0   0 8629.74  410.36
  -2   0   0 8253.37  411.96
  -2   0   0 8284.97  401.56
  -2   0   0 8422.26  405.86
  -2   0   0 7820.22  404.26
  -4   0   0  358.86   57.29
  -4   0   0  484.55   65.19
   4   0   0  305.77   67.59
   4   0   0  379.56   66.29
  -4   0   0  366.36   64.89
   4   0   0  279.37   53.29
  -4   0   0  388.16   55.19
   6   0   0  546.75   85.29
  -6   0   0  500.55   74.49
  -6   0   0  570.54   76.29
  -6   0   0  604.64   93.69
   6   0   0  544.75   82.59
  -8   0   0  306.87   64.19
  -8   0   0  298.17   65.19
  -8   0   0  252.57   91.09
   8   0   0  139.39   61.99
   8   0   0  269.77   75.89
  -1  -1   0  398.06   29.80
  -1  -1   0  446.26   32.90
  -1  -1   0  438.16   32.70
   1  -1   0  383.66   34.70
  -1  -1   0  455.75   38.80
   1  -1   0  407.76   34.60
   1  -1   0  402.46   35.40
  -1   1   0  428.06   35.30
   1   1   0  404.86   36.10
  -1   1   0  428.96   39.20
   1   1   0  396.36   31.80
  -1   1   0  424.66   35.60
  -1   1   0  437.26   38.30
   1   1   0  426.56   37.10
   1   1   0  410.26   31.30
   1   1   0  432.56   34.20
   3  -1   0 1223.08   94.79
  -3  -1   0 1050.09   82.29
  -3  -1   0 1023.00   93.29
  -3  -1   0 1107.69   89.49
  -3  -1   0 1057.69  103.69
   3  -1   0 1260.77  101.19
  -3  -1   0 1068.79   86.89
   3  -1   0 1221.28   95.69
   3  -1   0 1166.68  100.79
  -3   1   0 1091.09   95.09
   3   1   0 1234.98  101.49
  -3   1   0 1039.40   87.59
  -3   1   0  979.60   91.29
   3   1   0 1367.96   96.29
   3   1   0 1205.28   90.29
  -3   1   0 1106.49   89.19
   3   1   0 1292.97  102.39
  -3   1   0 1084.19   90.99
  -5  -1   0  116.09   40.30
   5  -1   0  286.27   64.89
   5  -1   0  286.47   64.49
  -5  -1   0  117.99   39.20
  -5  -1   0  184.18   54.59
   5   1   0  215.58   56.09
  -5   1   0  226.08   53.49
  -5   1   0  188.08   50.89
   5   1   0  264.37   61.29
  -5   1   0  193.48   50.09
   7  -1   0  699.13   93.39
  -7  -1   0  609.64  109.69
  -7  -1   0  556.04   76.99
   7  -1   0  624.74   48.50
   7  -1   0  769.32  106.09
  -7   1   0  530.55   81.29
  -7   1   0  657.93  116.19
  -7   1   0  581.44   84.59
   7   1   0  708.23  101.09
   7   1   0  479.55   47.10
   7   1   0  679.13   96.69
   0  -2   0   40.30    9.50
   0  -2   0   56.99   16.50
   0  -2   0   34.20   11.10
   0   2   0   38.20   12.10
   0   2   0   29.90   11.10
  -2  -2   0 3707.63  211.38
   2  -2   0 3697.13  202.58
  -2  -2   0 3627.64  207.28
  -2  -2   0 3639.14  196.28
   2  -2   0 3761.12  209.78
  -2  -2   0 3667.83  189.68
  -2  -2   0 3755.02  194.68
   2  -2   0 3702.73  203.38
   2  -2   0 3748.12  205.88
  -2   2   0 3639.24  203.88
   2   2   0 3789.52  196.88
  -2   2   0 4064.89  213.78
  -2   2   0 3724.03  202.88
   2   2   0 3681.33  207.78
  -2   2   0 3804.92  204.68
   2   2   0 3746.03  196.88
   2   2   0 3654.73  200.98
   2   2   0 3676.23  208.88
  -4  -2   0 4599.94  261.17
  -4  -2   0 5041.20  295.17
  -4  -2   0 4499.25  268.67
  -4  -2   0 4964.40  275.57
   4  -2   0 4733.73  287.37
  -4   2   0 5132.89  284.77
  -4   2   0 4843.72  276.27
   4   2   0 4940.31  240.68
  -4   2   0 4862.91  310.97
   4   2   0 5170.48  283.27
  -6  -2   0 1001.30  100.69
  -6  -2   0 1184.08  110.59
  -6  -2   0 1124.79  128.39
   6  -2   0 1140.39  119.89
   6  -2   0 1067.79  120.39
   6   2   0 1101.79   73.29
   6   2   0 1197.98  120.59
  -6   2   0 1036.50  118.89
  -6   2   0 1195.78  116.09
  -6   2   0 1160.08  113.39
   6   2   0 1391.76  135.99
  -8  -2   0  131.79   73.59
   8  -2   0  124.49   59.19
   8  -2   0   46.70   46.40
  -8  -2   0   89.69   47.90
  -8  -2   0  118.19   43.20
   8   2   0  187.18   62.49
   8   2   0   73.49   55.69
  -8   2   0  181.48   54.79
  -8   2   0  164.88   70.09
  -8   2   0  126.49   47.50
   1  -3   0  612.14   42.60
  -1  -3   0  632.44   50.99
   1  -3   0  596.94   48.40
   1  -3   0  611.04   47.40
  -1  -3   0  656.93   58.49
  -1  -3   0  567.24   49.40
  -1  -3   0  680.73   43.60
   1  -3   0  603.84   49.90
   1  -3   0  587.84   47.30
   1   3   0  627.44   47.10
  -1   3   0  653.03   47.20
   1   3   0  582.44   43.20
  -1   3   0  662.63   50.19
   1   3   0  584.24   35.60
   1   3   0  648.04   52.39
   1   3   0  593.14   37.00
  -1   3   0  663.23   53.39
   1   3   0  699.53   59.89
   3  -3   0 2359.16  161.98
   3  -3   0 2242.48  154.48
   3  -3   0 2262.37  152.88
  -3  -3   0 2180.28  164.88
  -3  -3   0 2286.17  142.89
  -3  -3   0 2345.27  164.38
  -3  -3   0 2598.44  143.99
  -3  -3   0 2180.38  132.29
  -3   3   0 2376.86  153.88
  -3   3   0 2247.98  153.18
   3   3   0 2390.06  161.88
  -3   3   0 2484.65  169.28
  -3   3   0 2475.25  164.38
   3   3   0 2352.66  155.48
   3   3   0 2259.07  123.89
   3   3   0 2090.79  140.99
   3   3   0 2329.17  146.29
  -5  -3   0 1661.83  126.09
  -5  -3   0 1604.44  128.29
   5  -3   0 1635.04  144.09
   5  -3   0 1581.84  139.99
  -5  -3   0 1763.02  152.88
  -5   3   0 1693.93  138.99
  -5   3   0 1657.03  136.49
   5   3   0 1726.83  138.69
   5   3   0 1667.63  148.59
   5   3   0 1732.73   99.69
  -5   3   0 1501.25  140.59
  -7  -3   0  201.18   52.39
   7  -3   0  188.68   53.79
   7  -3   0  288.37   72.09
   7  -3   0  219.38   33.10
  -7  -3   0  231.78   70.59
  -7  -3   0  193.38   53.59
   7   3   0  268.17   67.59
   7   3   0  243.38   67.59
  -7   3   0  221.18   55.49
  -7   3   0  170.28   66.29
  -7   3   0  149.88   50.89
   7   3   0  219.58   34.20
   0  -4   0 1943.61  124.29
   0  -4   0 2123.19  125.39
   0  -4   0 1894.91  116.19
   0  -4   0 2091.09  114.59
   0   4   0 2014.70  123.99
   0   4   0 2034.70  116.79
   0   4   0 1991.20  112.29
   0   4   0 2047.90  117.99
  -2  -4   0 3045.90  179.28
  -2  -4   0 3241.88  153.68
   2  -4   0 2959.00  173.48
   2  -4   0 2921.21  179.48
   2  -4   0 2787.82  154.58
  -2  -4   0 3093.79  150.08
   2  -4   0 2991.20  175.08
  -2  -4   0 3260.57  192.88
   2  -4   0 2752.72  172.88
   2   4   0 2843.82  180.48
   2   4   0 3005.30  156.38
   2   4   0 3047.30  165.08
   2   4   0 2959.10  163.38
  -2   4   0 3210.88  178.68
  -2   4   0 3475.25  191.48
   2   4   0 2858.21  184.88
  -2   4   0 3104.09  173.58
   2   4   0 2710.73  172.08
  -2   4   0 3191.58  178.98
   2   4   0 2878.51  164.78
   4  -4   0 1769.42  143.39
  -4  -4   0 1915.21  126.09
   4  -4   0 1796.22  142.69
  -4  -4   0 2079.89  159.98
  -4  -4   0 1833.02  120.39
  -4  -4   0 1911.31  131.59
  -4   4   0 1987.70  154.78
  -4   4   0 1846.02  130.29
   4   4   0 1883.81  154.18
   4   4   0 1807.42  132.09
  -4   4   0 1883.21  148.79
   4   4   0 1955.00  147.49
   4   4   0 1869.21  109.19
   4   4   0 1877.31  136.39
  -6  -4   0  101.09   32.60
   6  -4   0   82.99   20.90
  -6  -4   0   82.69   33.60
   6  -4   0   68.79   36.40
   6  -4   0   41.60   37.70
  -6  -4   0  129.29   53.69
   6   4   0  119.59   49.50
   6   4   0   68.19   21.90
   6   4   0  133.29   43.50
  -6   4   0  104.19   49.00
  -6   4   0  100.99   41.00
  -6   4   0   81.39   41.40
  -8  -4   0  217.28   59.89
  -8  -4   0  426.46  103.99
  -8  -4   0  208.78   53.99
   8  -4   0  357.16   82.09
   8  -4   0  281.67   77.49
  -8   4   0  203.18   56.79
  -8   4   0  250.77   63.79
   8   4   0  229.58   76.39
  -8   4   0  272.57   81.09
   1  -5   0 8176.38  397.46
   1  -5   0 8137.69  388.96
   1  -5   0 8047.29  390.06
  -1  -5   0 7854.21  412.36
   1  -5   0 7710.73  385.46
  -1  -5   0 7917.11  385.86
  -1  -5   0 8183.98  390.46
   1   5   0 7805.42  384.36
  -1   5   0 7973.70  398.46
  -1   5   0 7733.63  390.76
   1   5   0 8652.93  392.06
   1   5   0 8157.18  398.26
  -1   5   0 8321.07  388.96
   1   5   0 8431.56  416.56
   3  -5   0  189.18   44.80
   3  -5   0  202.18   49.80
  -3  -5   0  213.88   33.40
  -3  -5   0  209.88   26.00
  -3  -5   0  241.58   51.19
   3  -5   0  175.48   43.00
  -3  -5   0  251.87   42.60
   3  -5   0  149.79   27.60
   3  -5   0  158.38   40.10
  -3  -5   0  231.68   55.69
   3   5   0  144.89   36.70
   3   5   0  183.38   48.80
   3   5   0  159.48   35.70
  -3   5   0  228.38   49.30
  -3   5   0  239.38   50.49
   3   5   0  179.28   35.80
  -3   5   0  299.87   59.69
  -3   5   0  201.48   46.10
   3   5   0  155.58   27.60
   3   5   0  172.28   37.50
   5  -5   0  971.60   73.99
   5  -5   0  938.11  102.19
  -5  -5   0 1115.89   97.39
   5  -5   0 1080.29  113.99
  -5  -5   0 1322.27  133.69
  -5  -5   0 1077.49   89.69
  -5  -5   0 1192.68   88.89
  -5   5   0 1322.17  117.69
  -5   5   0 1156.28  102.29
   5   5   0 1066.59   76.39
  -5   5   0 1114.39  116.29
   5   5   0  941.61  101.19
   5   5   0 1018.00  115.89
   7  -5   0  146.89   51.49
  -7  -5   0  101.09   44.10
   7  -5   0  150.08   31.50
  -7  -5   0   90.49   39.10
  -7  -5   0  209.38   78.29
   7  -5   0  133.09   56.99
  -7   5   0  125.79   55.59
   7   5   0  106.29   32.00
  -7   5   0  202.48   56.49
  -7   5   0   89.49   43.60
   7   5   0   92.19   49.40
   7   5   0  146.99   56.79
   0  -6   0  567.94   50.89
   0  -6   0  553.84   61.39
   0  -6   0  481.35   50.79
   0  -6   0  541.65   53.89
   0   6   0  503.15   52.19
   0   6   0  499.65   50.69
   0   6   0  504.15   58.59
   0   6   0  493.85   47.00
   2  -6   0  265.17   46.10
  -2  -6   0  164.58   30.60
  -2  -6   0  163.38   30.60
   2  -6   0  233.98   31.10
  -2  -6   0  156.88   38.70
   2  -6   0  293.97   39.30
  -2  -6   0  170.98   51.89
   2  -6   0  267.07   45.80
   2  -6   0  202.68   40.50
  -2   6   0  192.08   43.40
  -2   6   0  150.38   41.40
   2   6   0  212.78   46.40
   2   6   0  233.38   37.10
   2   6   0  270.57   26.20
   2   6   0  300.27   34.80
   2   6   0  279.87   29.30
  -2   6   0  208.88   43.20
   2   6   0  223.08   29.80
  -2   6   0  163.68   35.00
   4  -6   0  551.94   75.29
  -4  -6   0  470.05   48.50
   4  -6   0  569.14   72.59
  -4  -6   0  538.25   98.79
  -4  -6   0  441.76   47.00
   4  -6   0  512.05   51.09
   4   6   0  710.93   69.39
   4   6   0  716.23   81.79
   4   6   0  675.13   69.19
   4   6   0  601.44   53.49
   4   6   0  647.94   82.29
  -4   6   0  423.56   75.69
  -4   6   0  593.94   82.19
  -6  -6   0  935.01   83.99
  -6  -6   0  930.51  121.79
   6  -6   0  900.71   72.09
  -6  -6   0  938.51   93.59
  -6  -6   0 1004.60   85.19
   6  -6   0  992.50  112.29
   6  -6   0  805.92  103.69
  -6   6   0  894.61  105.09
   6   6   0  865.21  124.69
   6   6   0  958.90  107.39
  -6   6   0  884.41  112.59
  -6   6   0  959.70  103.99
   8  -6   0 1120.49  127.99
  -8  -6   0 1054.79   97.99
  -8   6   0  815.02  120.39
   8   6   0  938.91  121.19
  -8   6   0  860.11  110.99
  -8   6   0  976.90  123.79
  -1  -7   0 1735.73  136.69
   1  -7   0 1844.22  113.69
   1  -7   0 1750.92  117.79
   1  -7   0 1771.92  117.19
  -1  -7   0 1686.03  108.59
  -1  -7   0 1800.92  116.29
   1  -7   0 1767.02  103.69
   1  -7   0 1734.73  103.59
   1   7   0 1912.61  110.39
   1   7   0 1737.53  133.29
   1   7   0 1948.61  120.69
   1   7   0 1732.23  106.49
  -1   7   0 1492.75  108.99
  -1   7   0 1607.54  109.79
   1   7   0 1734.63  116.29
  -1   7   0 1508.45  110.09
  -1   7   0 1581.44  115.79
  -1   7   0 1594.14  108.59
   3  -7   0 1701.73  134.79
   3  -7   0 1924.71  120.69
   3  -7   0 2067.19  141.99
  -3  -7   0 1895.51  144.29
   3  -7   0 1956.60  142.89
  -3  -7   0 2053.69  163.28
   3  -7   0 1749.72  134.29
  -3   7   0 2075.19  140.89
   3   7   0 1994.50  122.49
  -3   7   0 1956.60  145.49
   3   7   0 1999.70  129.19
   3   7   0 1854.91  127.19
   3   7   0 1822.62  123.39
   3   7   0 1715.53  145.39
  -3   7   0 2004.20  145.69
  -3   7   0 2192.58  158.88
   3   7   0 1801.32  118.39
  -5  -7   0  915.91   69.89
  -5  -7   0  901.21   70.59
   5  -7   0  784.32   92.89
  -5  -7   0  819.62  122.19
   5  -7   0  873.11   71.29
   5  -7   0  813.12   97.99
   5   7   0  749.42  103.39
   5   7   0  875.71   91.99
  -5   7   0  822.82  102.79
  -5   7   0  917.71   85.59
  -5   7   0  885.41  101.69
   7  -7   0   98.09   50.49
   7  -7   0   -5.10   32.20
  -7  -7   0  114.99   61.09
   7  -7   0   33.30   28.60
  -7  -7   0   35.10   28.60
   7   7   0   14.70   39.10
   7   7   0   39.00   41.70
  -7   7   0   73.99   49.60
  -7   7   0   75.59   42.00
  -7   7   0   58.09   43.70
   0  -8   0  460.05   62.59
   0  -8   0  505.95   52.99
   0  -8   0  541.45   58.99
   0  -8   0  498.85   56.09
   0   8   0  537.95   65.39
   0   8   0  528.45   53.99
   0   8   0  503.85   55.29
   0   8   0  419.96   54.59
   2  -8   0  936.31   76.89
  -2  -8   0  744.33   68.29
   2  -8   0  873.11   74.89
   2  -8   0  900.51   83.39
   2  -8   0  978.40   76.99
   2  -8   0  842.62   75.99
  -2  -8   0  769.12   92.89
  -2  -8   0  857.31   71.29
  -2   8   0  895.51   85.19
   2   8   0  876.51   84.09
   2   8   0  910.01   75.29
  -2   8   0  822.02   83.89
  -2   8   0  772.32   71.19
   2   8   0  868.41   73.09
  -2   8   0  749.73   77.69
   4  -8   0  632.24   80.49
   4  -8   0  672.53   79.59
  -4  -8   0  814.02  104.49
   4  -8   0  641.44   60.89
   4   8   0  627.14   70.49
   4   8   0  656.03   70.69
   4   8   0  632.64   88.89
   4   8   0  714.23   72.29
   4   8   0  610.04   77.79
  -4   8   0  711.43   86.89
  -4   8   0  624.54   87.79
   6  -8   0  308.67   72.29
  -6  -8   0  428.96   48.30
  -6  -8   0  404.26   96.19
   6  -8   0  215.38   58.19
   6  -8   0  386.46   50.89
  -6   8   0  359.86   87.29
  -6   8   0  411.26   71.79
  -6   8   0  387.06   80.19
   6   8   0  297.37   48.80
   6   8   0  314.07   79.49
   6   8   0  350.16   72.59
   8  -8   0   98.09   46.70
   8  -8   0   81.59   52.09
  -8  -8   0   40.90   59.59
  -8   8   0   14.00   43.50
   8   8   0   18.90   46.70
  -8   8   0    1.30   71.09
  -8   8   0  -13.50   53.99
   8   8   0  -53.79   45.10
   1  -9   0 2206.08  141.49
  -1  -9   0 2471.15  183.38
  -1  -9   0 2147.69  149.09
   1  -9   0 2036.90  148.49
   1  -9   0 2249.57  154.48
  -1  -9   0 2752.92  151.48
   1  -9   0 2217.98  138.09
  -1   9   0 2578.64  149.59
  -1   9   0 2439.76  158.08
  -1   9   0 2449.75  142.79
   1   9   0 2067.09  146.09
  -1   9   0 2240.68  148.59
  -1   9   0 2316.87  142.29
   1   9   0 2118.99  150.38
   1   9   0 2316.97  144.39
   1   9   0 2088.69  139.59
  -1   9   0 2626.04  169.18
   3  -9   0 3386.56  215.98
  -3  -9   0 3575.44  248.68
   3  -9   0 3574.24  216.38
   3  -9   0 3564.04  204.38
  -3  -9   0 3737.63  200.68
   3  -9   0 3478.85  212.88
   3   9   0 3474.65  189.88
  -3   9   0 3882.21  234.58
  -3   9   0 3130.49  228.58
   3   9   0 3436.56  199.68
   3   9   0 3355.76  196.48
  -3   9   0 3636.24  217.28
   3   9   0 3482.25  202.78
   3   9   0 3485.35  231.98
  -5  -9   0  100.79   56.19
   5  -9   0  155.38   50.99
   5  -9   0   99.99   38.10
   5  -9   0  154.08   36.70
  -5   9   0   73.19   38.80
  -5   9   0  197.28   50.69
   5   9   0  144.29   48.00
   5   9   0  175.28   39.30
   5   9   0  185.98   60.49
   7  -9   0  130.19   40.60
  -7  -9   0   87.19   63.29
   7  -9   0  111.39   54.59
   7  -9   0   39.70   39.10
   7   9   0  108.29   56.79
  -7   9   0  -12.30   42.10
  -7   9   0  121.49   49.70
   7   9   0  122.19   62.89
  -7   9   0  104.69   47.50
   0 -10   0  121.89   33.20
   0 -10   0   59.39   29.10
   0 -10   0   97.69   33.60
   0 -10   0   38.50   34.10
   0  10   0   59.69   22.30
   0  10   0  101.29   33.40
   0  10   0   88.69   28.30
   0  10   0   94.99   30.00
   2 -10   0   71.29   29.40
   2 -10   0  109.19   28.50
   2 -10   0  116.29   30.60
  -2 -10   0  143.49   33.00
  -2 -10   0  112.79   32.50
   2 -10   0   76.99   28.60
   2 -10   0   80.99   31.10
  -2 -10   0  115.09   44.60
  -2  10   0  195.08   42.50
   2  10   0   52.39   29.50
  -2  10   0  127.59   40.90
  -2  10   0  118.29   41.10
  -2  10   0  151.98   44.40
   2  10   0  108.29   28.50
   2  10   0   75.09   25.40
   2  10   0   83.49   31.60
  -2  10   0   79.69   31.80
   4 -10   0 1211.88  110.49
   4 -10   0 1194.28  114.69
   4 -10   0 1108.49   96.19
  -4 -10   0 1438.26  146.59
   4  10   0 1051.59   93.69
   4  10   0 1169.18  100.59
  -4  10   0 1425.26  133.49
   4  10   0 1054.19  102.59
  -4  10   0 1427.16  129.39
   4  10   0 1230.08   98.19
   4  10   0 1331.47  128.49
   6 -10   0  972.30   88.29
   6 -10   0  812.22  105.39
   6 -10   0 1002.90  116.59
  -6 -10   0 1095.99  137.09
  -6  10   0  941.81  114.89
  -6  10   0  788.32   90.49
   6  10   0 1101.99  109.59
   6  10   0 1049.89  131.19
  -6  10   0 1231.28  135.19
   1 -11   0  301.07   58.39
  -1 -11   0  282.47   49.80
   1 -11   0  330.77   45.50
  -1 -11   0  262.67   54.39
   1 -11   0  310.97   59.39
  -1 -11   0  285.07   74.19
  -1  11   0  312.67   44.30
  -1  11   0  226.88   45.10
   1  11   0  347.17   56.99
   1  11   0  294.97   54.69
  -1  11   0  245.18   45.40
  -1  11   0  265.17   52.59
   1  11   0  366.66   48.50
  -1  11   0  234.38   57.09
  -1  11   0  218.48   47.00
   1  11   0  305.17   54.99
   3 -11   0  164.48   46.40
   3 -11   0  229.78   49.00
  -3 -11   0  159.38   38.50
  -3 -11   0  106.29   60.29
  -3 -11   0  183.78   39.20
   3 -11   0  281.37   53.29
   3 -11   0  268.67   55.29
  -3  11   0  146.99   44.90
  -3  11   0  129.69   45.90
  -3  11   0  153.28   51.39
   3  11   0  186.98   40.30
  -3  11   0  158.38   39.50
   5 -11   0   11.10   24.30
  -5 -11   0  101.99   55.89
   5 -11   0   46.50   30.70
   5 -11   0   53.39   34.10
  -5  11   0   21.40   32.30
   5  11   0   50.69   35.80
  -5  11   0   26.10   36.80
   5  11   0   52.89   34.30
   7 -11   0  207.38   49.99
   7 -11   0  320.07   78.29
   7 -11   0  294.97   68.79
  -7  11   0  144.89   52.59
   7  11   0  228.18   77.69
  -7  11   0  220.88   64.89
  -7  11   0  221.38   64.69
   0 -12   0 4581.14  291.77
   0 -12   0 5070.39  304.07
   0 -12   0 5008.10  275.97
   0 -12   0 4780.32  278.97
   0  12   0 4723.43  266.37
   0  12   0 4815.92  277.47
   2 -12   0 1848.12  129.79
   2 -12   0 2102.69  139.29
  -2 -12   0 2288.47  148.89
   2 -12   0 2026.60  132.29
  -2 -12   0 2157.88  188.58
  -2 -12   0 2410.16  174.18
  -2  12   0 2159.08  147.99
  -2  12   0 2121.29  156.18
  -2  12   0 2227.38  146.09
   2  12   0 2044.10  139.79
  -2  12   0 2046.20  149.69
   2  12   0 2029.20  155.88
  -2  12   0 2143.89  163.38
   4 -12   0   85.29   40.80
  -4 -12   0   42.20   38.60
   4 -12   0   58.59   37.80
   4 -12   0  111.79   38.60
   4  12   0   65.99   35.40
  -4  12   0   98.09   47.70
   4  12   0   92.69   40.90
   4  12   0   92.79   32.30
   6 -12   0  336.17   74.69
  -6 -12   0  314.77   90.39
   6 -12   0  253.57   59.89
   6 -12   0  391.16   61.59
  -6  12   0  149.99   60.89
   6  12   0  361.66   68.79
  -6  12   0  255.97   50.49
   6  12   0  347.07   87.89
   1 -13   0  355.66   71.49
  -1 -13   0  373.76   65.89
  -1 -13   0  143.99   62.69
   1 -13   0  442.16   71.89
  -1 -13   0  313.27   78.69
  -1  13   0  301.87   51.89
   1  13   0  365.56   63.69
   1  13   0  344.67   51.19
  -1  13   0  255.57   47.00
  -1  13   0  327.27   65.59
  -1  13   0  273.87   49.30
   3 -13   0  339.27   62.79
  -3 -13   0  250.37   52.29
   3 -13   0  331.17   60.89
  -3 -13   0  228.48   78.99
  -3 -13   0  237.38   49.60
   3 -13   0  318.07   54.99
   3 -13   0  318.17   56.69
   3  13   0  262.87   50.59
  -3  13   0  271.87   49.20
   3  13   0  287.97   68.69
   3  13   0  383.06   54.69
  -3  13   0  265.77   65.89
  -3  13   0  252.57   64.19
  -3  13   0  262.87   65.59
   5 -13   0  180.38   44.40
  -5 -13   0  219.28   77.19
   5 -13   0  183.78   52.39
   5  13   0  211.18   48.50
  -5  13   0  217.08   70.59
   5  13   0  114.49   58.79
  -5  13   0  207.08   61.59
  -7 -13   0    5.90   57.89
   7 -13   0  159.98   46.90
   7 -13   0  201.58   70.19
   7 -13   0   42.00   41.10
   7  13   0  173.98   72.39
  -7  13   0   83.99   59.39
  -7  13   0   31.60   52.99
   0 -14   0  545.95   69.49
   0 -14   0  476.35   60.09
   0 -14   0  439.06   86.19
   0 -14   0  368.86   66.99
   0  14   0  494.55   65.39
   0  14   0  394.06   65.69
   2 -14   0 3088.99  170.48
  -2 -14   0 3121.39  195.88
   2 -14   0 3429.86  198.18
  -2 -14   0 2832.42  236.68
   2 -14   0 3103.09  201.28
  -2 -14   0 2524.35  190.78
   2  14   0 3148.78  193.48
  -2  14   0 2717.73  207.48
  -2  14   0 2815.42  185.58
   2  14   0 2876.81  201.68
  -2  14   0 3351.66  208.38
   4 -14   0 1064.99   98.99
   4 -14   0  921.51   94.19
  -4 -14   0  926.31  132.39
  -4  14   0 1045.80  120.29
  -4  14   0  750.62   85.59
  -4  14   0 1028.80  117.09
   4  14   0  923.61   96.49
   4  14   0 1001.70  113.79
   4  14   0 1012.20   81.69
   6 -14   0  -16.50   44.50
  -6 -14   0  110.59   68.29
   6 -14   0   64.79   40.00
   6 -14   0   60.09   34.50
  -6  14   0   78.19   36.70
  -6  14   0  197.68   59.69
   6  14   0  156.08   45.10
  -6  14   0   49.30   46.10
   6  14   0  115.29   57.19
   1 -15   0   86.99   32.20
  -1 -15   0   62.19   31.90
  -1 -15   0   95.49   32.50
   1 -15   0   21.50   24.20
  -1 -15   0  113.99   47.90
  -1  15   0   24.10   26.00
  -1  15   0  140.29   46.60
  -1  15   0    3.40   29.10
   1  15   0   56.39   30.50
   1  15   0   49.70   28.10
  -1  15   0   62.09   31.40
  -3 -15   0   53.59   29.80
   3 -15   0   54.09   30.90
   3 -15   0   41.20   25.10
  -3 -15   0    7.80   43.90
   3 -15   0   57.39   32.00
  -3 -15   0   -6.10   19.70
   3  15   0   -1.10   24.90
   3  15   0   25.70   32.70
  -3  15   0   55.49   36.80
  -3  15   0   55.29   38.30
  -3  15   0   53.49   36.30
  -5 -15   0  486.65  113.99
   5 -15   0  331.27   71.19
   5 -15   0  505.35   71.79
   5 -15   0  327.57   64.69
  -5  15   0  501.05   95.69
   5  15   0  397.46   63.59
  -5  15   0  351.86   84.59
   7 -15   0  231.48   63.79
  -7 -15   0  330.67   91.99
   7 -15   0  205.48   66.39
   7 -15   0  169.48   51.79
  -7  15   0  183.18   70.79
  -7  15   0  100.79   59.89
   0 -16   0  746.83   85.39
   0 -16   0  652.53   79.09
   0 -16   0  822.12  104.29
   0  16   0  828.42   82.29
   0  16   0  730.73   86.79
   2 -16   0  552.94   75.59
  -2 -16   0  691.83  106.89
   2 -16   0  552.04   74.59
  -2 -16   0  600.24   75.99
  -2 -16   0  589.84   76.79
  -2  16   0  676.73   81.89
  -2  16   0  655.23   77.79
   2  16   0  636.44   76.99
  -2  16   0  639.14   89.39
   4 -16   0  116.59   41.00
   4 -16   0  206.88   50.99
  -4 -16   0   90.89   58.59
  -4 -16   0  244.88   51.49
   4 -16   0  139.19   56.79
  -4  16   0  203.98   59.79
   4  16   0  183.48   58.39
   4  16   0  199.68   49.00
  -6 -16   0   10.80   68.69
   6 -16   0  128.39   60.89
   6 -16   0  192.78   53.39
   6 -16   0  144.49   55.59
  -6  16   0  180.88   57.99
   6  16   0  154.98   52.09
   6  16   0  119.79   60.59
  -6  16   0  106.99   59.89
  -1 -17   0  327.37   86.59
   1 -17   0  310.27   63.49
  -1 -17   0  341.87   66.19
  -1 -17   0  320.97   61.49
   1 -17   0  489.25   65.79
  -1  17   0  369.26   69.59
  -1  17   0  300.27   54.89
  -1  17   0  279.07   54.09
   1  17   0  355.06   66.89
   1  17   0  322.17   63.09
  -1  17   0  395.26   60.69
   3 -17   0  169.88   49.20
   3 -17   0  126.49   42.40
   3 -17   0  187.88   42.60
  -3 -17   0  163.68   48.30
  -3 -17   0  150.88   42.20
   3 -17   0  214.28   53.09
  -3 -17   0  174.28   74.79
   3  17   0  139.69   55.79
  -3  17   0  165.38   58.09
   3  17   0  248.78   53.99
  -3  17   0  203.48   64.19
  -3  17   0  246.18   55.89
   5 -17   0   11.10   36.70
  -5 -17   0   68.49   69.39
   5 -17   0  174.38   50.19
   5 -17   0   81.99   48.40
  -5  17   0   39.60   48.60
  -5  17   0   95.29   60.89
   5  17   0   74.39   53.09
   5  17   0   96.89   36.60
   5  17   0   64.99   38.70
   0 -18   0   36.20   28.40
   0 -18   0   14.90   26.10
   0 -18   0   74.59   42.60
   0  18   0    1.90   35.70
   0  18   0    5.50   26.00
   0  18   0   17.20   28.30
   2 -18   0  269.77   56.09
   2 -18   0  199.78   47.20
  -2 -18   0  158.58   42.70
  -2 -18   0  306.27   81.99
  -2 -18   0  191.78   52.19
   2  18   0  221.98   56.39
   2  18   0  229.18   54.69
  -2  18   0  313.17   64.09
  -2  18   0  270.97   65.99
   4 -18   0  185.78   47.60
   4 -18   0  176.08   49.99
  -4 -18   0  241.98   90.99
  -4 -18   0  207.18   52.69
   4 -18   0   54.49   46.70
  -4  18   0  303.07   74.89
   4  18   0   83.09   50.39
   4  18   0  198.28   49.99
  -4  18   0  114.59   57.99
   6 -18   0  258.57   54.79
   6 -18   0  268.57   72.09
   6 -18   0  198.38   61.29
  -6 -18   0  171.38   82.49
   6  18   0  241.88   59.39
   6  18   0  221.48   72.89
   6  18   0  334.07   63.99
  -6  18   0  158.18   66.79
  -6  18   0  132.39   69.89
  -1 -19   0  492.65  124.69
   1 -19   0  520.95   84.69
  -1 -19   0  556.84   79.49
  -1 -19   0  500.65   70.69
   1 -19   0  594.54   74.79
  -1  19   0  626.44   73.69
   1  19   0  454.75   71.09
  -1  19   0  689.33   87.49
   1  19   0  608.14   77.39
  -3 -19   0  675.63   79.89
  -3 -19   0  530.55   97.39
  -3 -19   0  597.24  123.29
   3 -19   0  743.73  104.09
   3  19   0  605.44   85.29
  -3  19   0  840.32   98.99
  -3  19   0  611.64   86.59
  -3  19   0  522.25   95.89
   3  19   0  716.63   97.49
   5 -19   0  304.37   72.69
   5 -19   0   99.69   52.49
  -5 -19   0   27.50   67.49
   5 -19   0   17.60   32.30
   5  19   0   12.00   37.70
  -5  19   0  100.99   53.39
   5  19   0   61.59   54.99
  -5  19   0   60.39   55.99
   0 -20   0  -22.90   21.90
   0  20   0  -34.50   34.10
   0  20   0  -23.60   37.20
   0  20   0   15.90   28.60
   0  20   0   46.60   32.40
   2 -20   0  249.88   54.69
  -2 -20   0  287.17   60.39
   2 -20   0  267.07   61.19
  -2 -20   0  172.08   69.19
  -2 -20   0  225.68   83.19
   2  20   0  264.47   55.09
  -2  20   0  257.27   56.49
  -2  20   0  173.78   54.49
   2  20   0  222.38   59.79
  -2  20   0  186.78   52.09
   4 -20   0   76.39   40.40
   4 -20   0   42.30   43.60
  -4 -20   0   18.00   39.70
  -4 -20   0  106.29   66.99
   4 -20   0  132.49   44.30
  -4  20   0   83.49   58.09
   4  20   0  143.59   47.80
  -4  20   0  121.09   56.89
  -1 -21   0  142.99   61.59
  -1 -21   0  136.79   42.90
  -1 -21   0  155.08   60.69
  -1  21   0  206.78   60.79
   1  21   0  161.08   43.50
   1  21   0   53.39   36.90
  -1  21   0  188.78   51.79
  -1  21   0  149.59   43.20
  -3 -21   0   39.00   28.70
  -3 -21   0   16.80   45.50
   3 -21   0   16.50   28.00
  -3 -21   0   53.59   35.90
   3 -21   0   51.99   33.30
  -3  21   0  -54.69   40.40
   3  21   0   79.69   33.90
  -3  21   0   62.19   48.70
   3  21   0   28.60   42.30
   5 -21   0   65.19   61.19
   5 -21   0   30.50   51.59
   5 -21   0  124.89   47.90
  -5 -21   0  105.19   75.29
   5 -21   0   69.19   46.20
   5  21   0   51.79   51.89
  -5  21   0   77.49   47.20
   5  21   0   37.40   54.19
   0 -22   0  183.08   53.79
   0 -22   0  247.18   56.09
   0  22   0  291.47   54.49
   0  22   0  282.67   45.00
   0  22   0  201.48   54.79
  -2 -22   0  181.98   72.99
   2 -22   0   12.20   32.10
  -2 -22   0   56.19   37.80
  -2 -22   0   63.59   38.20
   2 -22   0   33.70   38.50
   2  22   0   45.90   43.90
  -2  22   0   52.79   39.70
  -2  22   0   88.69   45.80
   2  22   0   62.99   39.70
   4 -22   0   79.19   42.90
  -4 -22   0    2.20   38.90
  -4 -22   0  138.79   68.69
   4 -22   0   42.60   41.30
   4  22   0    7.00   46.60
  -4  22   0   24.00   54.49
   4  22   0   -5.70   44.40
  -4  22   0  -27.10   43.10
  -1 -23   0   37.60   36.60
   1 -23   0   -4.10   32.80
   1 -23   0   21.40   32.40
  -1 -23   0   24.40   34.00
  -1 -23   0   68.19   56.19
  -1  23   0  -13.80   40.40
   1  23   0  -11.90   38.40
  -1  23   0   15.70   41.00
  -1  23   0   64.49   34.20
   1  23   0   19.00   37.10
  -3 -23   0   71.79   42.30
   3 -23   0  120.09   49.99
   3 -23   0  202.48   47.80
  -3 -23   0  127.89   53.59
  -3  23   0  142.29   64.89
   3  23   0  206.78   63.19
   3  23   0   84.79   46.80
  -3  23   0  144.29   56.39
   0 -24   0   -8.90   33.20
   0 -24   0    2.40   31.00
   0  24   0    2.80   38.50
   2 -24   0  -21.80   30.30
  -2 -24   0   10.30   57.29
   2 -24   0   20.30   36.30
  -2 -24   0   62.49   36.90
  -2 -24   0   32.50   34.50
  -2  24   0   43.50   44.00
   2  24   0   99.49   43.50
   2  24   0    4.30   44.20
  -2  24   0   51.79   50.19
  -1 -25   0  -23.30   30.60
   1 -25   0   67.89   40.60
  -1 -25   0  -63.79   36.20
   1 -25   0   80.09   38.30
  -1  25   0   67.59   39.70
  -1  25   0   35.30   50.79
   1  25   0  129.59   46.00
  -1  25   0   31.50   42.20
   1  25   0  -12.10   44.40
   3 -25   0  124.19   56.59
   3 -25   0  147.29   51.39
  -3 -25   0   11.60   69.79
  -3  25   0   11.90   47.60
  -3  25   0  127.89   59.99
   3  25   0   10.60   55.19
   0 -26   0   31.30   36.40
   0 -26   0   22.60   32.50
   0  26   0   82.19   49.30
   2 -26   0    3.70   45.60
  -2 -26   0  191.18   68.99
  -2 -26   0  111.59   66.09
   2 -26   0  124.69   47.80
  -2 -26   0  138.89   49.30
  -2  26   0  145.69   55.09
   2  26   0  124.49   52.99
  -2  26   0   59.39   52.69
   2  26   0  177.18   58.69
  -8   0   1   -2.60   29.00
   8   0  -1   48.30   45.20
   8   0  -1  -29.50   35.60
  -8   0   1   19.70   30.20
  -8   0   1   58.99   61.59
   6   0  -1   22.90   27.00
  -6   0   1   -5.80   21.50
  -6   0   1    6.40   23.40
  -6   0   1  -11.20   35.40
   6   0  -1   -2.90   26.50
  -4   0   1  -21.80   13.90
   4   0  -1   -5.70   19.60
   4   0  -1   31.40   21.10
  -4   0   1   -7.80   17.90
   4   0  -1   13.90   20.50
   4   0  -1    4.70   18.30
  -4   0   1    2.80   13.40
  -4   0   1    6.30   18.90
  -4   0   1   -9.30   20.40
  -2   0   1   -7.90    9.50
   2   0  -1   -1.00    8.30
   2   0  -1   -4.50   10.20
   2   0  -1   -0.90    9.90
  -2   0   1    5.40    7.50
  -2   0   1   -3.00   10.00
  -2   0   1    5.50   17.40
   2   0  -1   -5.10   11.90
   2   0  -1  -16.90   12.10
  -2   0   1   -2.40    6.80
   0   0   1    1.10    5.90
   0   0   1   -2.40    9.20
   0   0  -1   -1.90    5.90
   0   0  -1   -5.20    3.70
   0   0   1    0.20    2.90
   0   0   1   -1.80    3.50
   2   0   1  -10.40   11.00
   2   0   1   -4.50    9.50
   2   0   1   -6.20   11.80
   2   0   1   32.30   20.50
  -2   0  -1    3.60   17.50
  -2   0  -1   14.10   13.70
  -2   0  -1   11.80   15.60
  -2   0  -1   21.50   12.60
  -4   0  -1   21.60   18.90
  -4   0  -1  -19.50   17.00
   4   0   1    9.70   22.30
   4   0   1   11.90   20.10
  -4   0  -1  -24.40   19.40
   6   0   1  -92.29   41.50
  -6   0  -1   -0.70   25.00
   6   0   1   25.60   29.40
  -6   0  -1    4.30   28.50
  -6   0  -1    4.00   40.50
   9  -1  -1  157.28   55.59
   9  -1  -1   66.59   57.49
  -9  -1   1   90.09   40.50
  -9  -1   1  204.58   89.79
  -9  -1   1  101.79   42.10
  -9   1   1  100.19   43.10
   9   1  -1   63.29   57.19
  -9   1   1  136.39   87.29
   9   1  -1  115.69   61.79
  -7  -1   1   31.80   48.30
  -7  -1   1   76.19   44.10
  -7  -1   1   53.49   31.00
   7  -1  -1   96.89   49.70
   7  -1  -1   85.69   47.10
   7   1  -1   92.39   46.80
   7   1  -1  114.39   44.60
  -7   1   1   43.30   58.89
  -7   1   1  118.09   44.30
  -7   1   1   91.39   38.60
   5  -1  -1  306.97   63.69
  -5  -1   1  317.47   70.89
   5  -1  -1  192.88   53.89
  -5  -1   1  294.07   56.49
  -5  -1   1  315.07   61.59
   5   1  -1  142.59   49.50
  -5   1   1  291.97   65.59
  -5   1   1  306.17   58.69
  -5   1   1  277.37   59.89
   5   1  -1  288.07   62.89
   3  -1  -1 1055.09   88.59
   3  -1  -1 1054.19   93.99
  -3  -1   1 1232.78   86.89
   3  -1  -1  961.90   76.89
  -3  -1   1 1257.37   86.09
   3  -1  -1 1107.49   91.09
  -3  -1   1 1285.67   97.49
  -3  -1   1 1303.27  106.59
  -3  -1   1 1306.87   93.29
   3  -1  -1 1012.10   92.19
   3   1  -1 1083.59   90.79
  -3   1   1 1284.97   98.99
   3   1  -1 1020.00   86.29
  -3   1   1 1339.27   96.09
  -3   1   1 1326.67   94.69
  -3   1   1 1249.28   92.69
   3   1  -1  947.91   90.39
   3   1  -1  938.51   84.49
   3   1  -1 1102.79   91.69
  -3   1   1 1299.27   93.59
  -1  -1   1  834.02   54.99
  -1  -1   1  797.12   52.39
   1  -1  -1  734.63   55.89
   1  -1  -1  752.12   54.19
  -1  -1   1  767.42   47.60
   1  -1  -1  707.33   56.29
   1  -1  -1  737.53   48.60
  -1   1   1  773.22   49.00
   1   1  -1  708.43   47.10
   1   1  -1  739.43   56.69
  -1   1   1  728.23   67.09
  -1   1   1  794.92   50.59
   1   1  -1  697.43   54.49
   1   1  -1  695.53   51.19
   1  -1   1  192.58   28.40
  -1  -1  -1  312.77   39.80
   1  -1   1  188.98   31.20
   1  -1   1  206.48   39.20
   1  -1   1  182.18   26.30
   1   1   1  184.18   25.30
  -1   1  -1  277.17   31.20
   1   1   1  149.88   23.70
  -1   1  -1  306.27   39.40
   1   1   1  202.28   38.80
  -1   1  -1  255.37   33.90
   1   1   1  161.08   34.40
  -3  -1  -1  417.46   55.49
  -3  -1  -1  368.96   55.29
  -3  -1  -1  422.16   63.79
   3  -1   1  405.16   79.39
   3  -1   1  369.26   51.09
   3  -1   1  320.97   60.59
  -3  -1  -1  381.06   51.19
  -3   1  -1  456.15   62.69
   3   1   1  363.36   50.79
   3   1   1  237.58   44.50
  -3   1  -1  356.36   48.50
  -3   1  -1  350.96   51.09
   3   1   1  386.56   73.09
  -3   1  -1  456.15   62.69
   3   1   1  378.26   72.69
   5  -1   1  604.04   89.39
  -5  -1  -1  860.01  100.19
  -5  -1  -1  927.91   94.99
  -5  -1  -1  795.32   87.59
   5  -1   1  710.03   89.59
  -5   1  -1  854.31   96.39
  -5   1  -1  909.01   94.39
   5   1   1  755.42   87.19
  -5   1  -1  987.50  102.79
   5   1   1  758.22   98.29
   7  -1   1  526.05   97.19
   7  -1   1  441.56   85.99
  -7  -1  -1  709.03  110.69
  -7  -1  -1  659.03   89.49
  -7  -1  -1  516.95   79.69
  -7   1  -1  625.14  100.99
  -7   1  -1  643.44   89.49
   7   1   1  607.74   91.59
  -7   1  -1  535.25   88.59
   7   1   1  554.84  101.69
  -8  -2   1  303.67   93.49
   8  -2  -1  365.26   76.49
   8  -2  -1  451.85   94.59
  -8  -2   1  298.17   62.39
  -8   2   1  369.56   73.99
  -8   2   1  378.26   78.99
   8   2  -1  351.36   82.69
  -8   2   1  248.68   96.19
   8   2  -1  438.76   89.89
  -6  -2   1  897.31   95.39
  -6  -2   1  995.00  119.39
   6  -2  -1  850.11  103.79
  -6  -2   1  713.13   82.49
   6  -2  -1  813.12  101.49
  -6   2   1  742.63   99.29
   6   2  -1  943.61  104.79
  -6   2   1  895.41   96.39
  -6   2   1  904.31   98.49
   6   2  -1  948.41  108.29
   4  -2  -1  542.65   67.49
   4  -2  -1  558.24   38.80
   4  -2  -1  638.54   74.29
   4  -2  -1  469.45   66.39
  -4  -2   1  540.95   61.89
  -4  -2   1  533.15   56.59
  -4  -2   1  602.04   77.99
  -4  -2   1  483.15   67.29
  -4  -2   1  511.55   57.79
   4  -2  -1  578.74   71.39
  -4   2   1  602.54   67.09
   4   2  -1  609.64   70.89
  -4   2   1  439.56   62.99
   4   2  -1  656.73   71.69
   4   2  -1  436.06   60.69
  -4   2   1  529.95   63.79
  -4   2   1  613.94   73.99
  -4   2   1  501.25   64.59
   4   2  -1  529.95   70.19
   2  -2  -1 2556.64  148.29
  -2  -2   1 2436.06  139.99
   2  -2  -1 2485.25  148.99
  -2  -2   1 2520.95  133.99
   2  -2  -1 2589.14  143.39
   2  -2  -1 2536.15  120.19
   2  -2  -1 2571.14  143.49
   2  -2  -1 2506.75  123.99
  -2  -2   1 2424.96  142.29
  -2  -2   1 2103.29  120.69
  -2   2   1 2502.45  148.59
  -2   2   1 2173.08  122.29
  -2   2   1 2511.25  143.19
   2   2  -1 2360.26  155.58
   2   2  -1 2430.16  139.49
  -2   2   1 2525.25  131.29
   2   2  -1 2400.66  144.19
   2   2  -1 2445.76  134.99
  -2   2   1 2471.35  142.49
  -2   2   1 2439.16  147.29
   0  -2  -1  148.99   21.50
   0  -2   1  131.69   17.80
   0  -2  -1  127.09   16.10
   0  -2   1  183.18   33.50
   0  -2  -1  129.99   15.80
   0   2  -1  130.39   17.50
   0   2   1  133.29   16.60
   0   2  -1  181.18   32.40
   0   2   1  148.09   26.50
   0   2   1  150.48   33.80
  -2  -2  -1  596.24   51.99
   2  -2   1  621.34   58.49
   2  -2   1  624.94   69.39
  -2  -2  -1  579.44   66.79
   2  -2   1  557.64   58.39
  -2  -2  -1  513.45   56.09
  -2  -2  -1  524.45   49.10
   2  -2   1  557.14   57.59
   2   2   1  535.45   64.69
  -2   2  -1  560.24   58.49
   2   2   1  576.74   51.69
  -2   2  -1  579.54   56.39
  -2   2  -1  571.94   60.59
   2   2   1  539.25   63.29
  -2   2  -1  513.05   64.49
   2   2   1  590.34   54.49
   4  -2   1  320.17   60.59
   4  -2   1  263.17   59.79
  -4  -2  -1  282.07   48.20
  -4  -2  -1  307.07   69.39
  -4  -2  -1  288.47   57.49
   4   2   1  270.67   53.79
  -4   2  -1  298.37   57.49
   4   2   1  269.27   63.19
   4   2   1  307.77   58.69
  -4   2  -1  329.97   70.49
  -6  -2  -1  149.19   45.70
   6  -2   1  368.26   77.19
   6  -2   1  233.98   81.99
  -6  -2  -1  258.97   69.69
  -6  -2  -1  152.98   41.90
  -6   2  -1  159.68   69.19
  -6   2  -1  235.68   68.49
   6   2   1  171.28   56.49
   6   2   1  155.88   60.09
   6   2   1  135.49   38.00
  -6   2  -1  185.98   53.09
  -7  -3   1  995.50  134.49
   7  -3  -1  794.12  117.99
  -7  -3   1  907.01   92.89
  -7  -3   1  932.51  100.09
   7  -3  -1  897.51  108.99
  -7   3   1  783.62  109.99
  -7   3   1  727.03  106.89
   7   3  -1  805.52  110.59
   7   3  -1  941.61  112.39
  -5  -3   1  361.06   51.79
   5  -3  -1  406.26   81.89
  -5  -3   1  509.35   96.39
  -5  -3   1  395.56   54.49
   5  -3  -1  368.16   74.79
  -5  -3   1  431.26   62.09
   5  -3  -1  374.36   36.80
   5   3  -1  397.76   78.29
  -5   3   1  492.95   68.59
   5   3  -1  505.05   72.29
  -5   3   1  462.75   64.69
  -5   3   1  533.95   76.19
  -3  -3   1 1600.14  104.39
  -3  -3   1 1714.03  141.49
  -3  -3   1 1643.04  103.79
   3  -3  -1 1855.61  131.19
  -3  -3   1 1541.55  118.99
   3  -3  -1 1662.63  120.79
   3  -3  -1 1572.44   95.49
  -3  -3   1 1641.94  115.09
   3  -3  -1 2131.19  134.19
   3  -3  -1 1636.24  119.59
   3   3  -1 1963.00  132.59
  -3   3   1 1764.92  125.09
  -3   3   1 1672.03  107.29
  -3   3   1 1643.54  122.99
   3   3  -1 1598.64   93.59
  -3   3   1 1757.82  122.79
   3   3  -1 1889.01  119.29
   3   3  -1 2014.90  120.79
  -3   3   1 1514.15  120.19
   3   3  -1 1856.41  119.89
  -1  -3   1  458.85   52.09
  -1  -3   1  456.45   33.90
   1  -3  -1  428.26   33.90
  -1  -3   1  432.06   33.80
  -1  -3   1  435.86   28.80
  -1  -3   1  460.95   30.30
   1  -3  -1  495.05   44.20
   1  -3  -1  510.85   39.00
   1  -3  -1  484.95   51.69
  -1   3   1  420.26   37.20
   1   3  -1  451.55   51.49
  -1   3   1  372.06   40.90
  -1   3   1  443.46   37.40
  -1   3   1  375.76   44.30
   1   3  -1  409.16   34.20
  -1   3   1  401.46   35.20
   1   3  -1  442.96   31.10
   1   3  -1  410.66   37.20
   1   3  -1  482.45   29.50
   1  -3   1 7125.49  351.36
   1  -3   1 7005.50  357.76
  -1  -3  -1 7417.86  352.06
   1  -3   1 7252.87  366.26
  -1  -3  -1 7029.30  344.17
  -1  -3  -1 7349.16  340.87
   1  -3   1 7079.19  344.67
  -1  -3  -1 7128.69  332.67
  -1   3  -1 7441.76  348.97
  -1   3  -1 7168.48  352.76
   1   3   1 6927.01  344.97
   1   3   1 6862.31  354.26
   1   3   1 6870.61  332.27
   1   3   1 7352.66  369.76
  -1   3  -1 7372.86  357.46
  -1   3  -1 7098.79  367.86
  -3  -3  -1 3024.20  171.38
   3  -3   1 2781.32  182.68
  -3  -3  -1 2923.01  209.58
  -3  -3  -1 2793.12  163.98
   3  -3   1 2697.53  178.08
   3  -3   1 2966.10  217.68
  -3  -3  -1 3058.49  177.58
  -3  -3  -1 2741.93  191.78
   3  -3   1 2744.73  180.08
  -3   3  -1 2808.72  179.88
  -3   3  -1 2880.21  188.28
   3   3   1 3013.40  174.48
   3   3   1 2855.01  177.38
   3   3   1 2698.33  166.98
   3   3   1 2866.81  196.28
   3   3   1 2811.22  194.98
  -3   3  -1 2797.72  181.78
  -3   3  -1 2905.01  198.48
  -5  -3  -1    9.40   20.70
   5  -3   1   -3.60   24.70
  -5  -3  -1  -23.80   25.30
   5  -3   1   19.80   28.90
  -5  -3  -1   12.50   38.10
  -5   3  -1   -7.50   26.30
   5   3   1   -6.50   19.50
   5   3   1   30.80   27.20
   5   3   1  -12.70   25.50
  -5   3  -1   51.99   31.70
  -5   3  -1   17.70   26.40
   7  -3   1   86.19   49.80
  -7  -3  -1   68.59   47.70
  -7  -3  -1   49.30   37.00
   7  -3   1  128.79   46.50
  -7  -3  -1   74.19   42.60
   7   3   1   76.09   40.30
  -7   3  -1  -10.80   35.90
   7   3   1  144.79   54.49
  -7   3  -1  -19.80   34.10
  -7   3  -1   82.19   54.29
  -8  -4   1  103.19   73.89
   8  -4  -1   24.40   44.30
   8  -4  -1   71.19   44.50
  -8  -4   1   24.60   35.90
  -8  -4   1   17.90   31.00
  -8   4   1    1.60   32.90
  -8   4   1   50.39   60.49
  -8   4   1   -0.90   36.30
   8   4  -1   51.99   41.50
   8   4  -1   18.70   43.90
  -6  -4   1  393.86   69.29
   6  -4  -1  431.16   84.39
   6  -4  -1  518.95   91.59
   6  -4  -1  369.46   40.30
  -6  -4   1  367.86   56.29
  -6  -4   1  536.65  113.09
  -6   4   1  325.87   72.39
   6   4  -1  323.17   74.79
  -6   4   1  338.47   68.29
   6   4  -1  370.16   76.49
   6   4  -1  334.37   37.10
  -6   4   1  398.56   75.59
  -4  -4   1  476.85   69.79
   4  -4  -1  473.45   49.00
  -4  -4   1  402.96   46.30
  -4  -4   1  486.75   49.70
   4  -4  -1  527.75   66.99
   4  -4  -1  519.85   68.29
  -4  -4   1  469.15   75.59
  -4  -4   1  412.06   54.39
   4  -4  -1  445.96   80.59
  -4   4   1  461.25   63.09
  -4   4   1  461.45   54.39
  -4   4   1  405.96   71.49
   4   4  -1  479.05   69.39
   4   4  -1  440.86   58.79
   4   4  -1  431.66   41.30
  -4   4   1  490.45   67.39
   4   4  -1  522.15   64.49
   4   4  -1  521.05   64.79
   2  -4  -1  433.56   42.70
   2  -4  -1  448.06   50.69
   2  -4  -1  357.16   44.30
  -2  -4   1  423.06   65.59
  -2  -4   1  421.16   31.20
  -2  -4   1  375.96   38.60
   2  -4  -1  429.76   48.50
  -2  -4   1  397.36   30.80
  -2  -4   1  476.85   46.30
   2  -4  -1  372.86   42.60
  -2   4   1  458.15   47.90
  -2   4   1  369.96   39.00
  -2   4   1  382.66   50.29
  -2   4   1  450.35   46.20
   2   4  -1  438.26   37.90
   2   4  -1  379.66   39.40
  -2   4   1  377.36   48.40
   2   4  -1  400.16   45.60
   2   4  -1  373.16   58.79
   2   4  -1  460.05   37.20
   2   4  -1  432.06   36.20
   0  -4  -1  884.51   62.69
   0  -4   1  787.12   71.09
   0  -4  -1  856.71   65.89
   0  -4  -1  809.82   48.90
   0  -4  -1  904.01   53.09
   0  -4   1  909.61   57.99
   0  -4  -1  873.61   60.49
   0  -4  -1  926.41   50.09
   0   4  -1  883.51   58.59
   0   4   1  892.11   63.09
   0   4   1  940.71   48.30
   0   4   1  873.41   53.19
   0   4  -1  892.01   75.09
   0   4   1  935.21   61.19
   0   4   1  925.01   60.39
  -2  -4  -1  945.11   65.69
  -2  -4  -1  999.40   67.79
  -2  -4  -1 1020.60   73.49
  -2  -4  -1  989.30   91.79
   2  -4   1  864.41   88.39
  -2  -4  -1  915.71   90.39
   2  -4   1  864.21   78.59
   2  -4   1  983.00   79.39
   2  -4   1  918.61   82.99
  -2   4  -1  907.01   81.39
   2   4   1  888.61   84.19
   2   4   1  906.01   91.49
   2   4   1 1092.59   78.49
  -2   4  -1 1141.69   85.89
  -2   4  -1 1074.59   88.49
  -2   4  -1  944.21   93.89
   2   4   1  890.91   70.49
   2   4   1 1044.30   72.29
   2   4   1  936.01   66.99
  -4  -4  -1  332.67   48.40
  -4  -4  -1  332.57   75.39
   4  -4   1  309.07   59.49
  -4  -4  -1  416.76   54.79
   4  -4   1  376.56   71.49
  -4  -4  -1  327.37   48.20
  -4   4  -1  421.86   71.19
  -4   4  -1  449.06   84.79
   4   4   1  371.66   75.59
   4   4   1  402.76   57.89
   4   4   1  304.67   45.10
   4   4   1  432.46   59.59
   6  -4   1  704.63   93.49
  -6  -4  -1  533.75   71.89
   6  -4   1  750.52   99.09
  -6  -4  -1  698.33  100.29
  -6  -4  -1  604.64   72.89
  -6   4  -1  565.04   89.49
  -6   4  -1  532.05   92.59
   6   4   1  524.45  102.59
   6   4   1  612.64   84.39
  -6   4  -1  634.54  103.29
  -7  -5   1   70.49   32.00
   7  -5  -1  239.08   69.79
   7  -5  -1  151.58   55.99
   7  -5  -1  147.19   25.70
  -7  -5   1  164.98   50.29
  -7  -5   1  104.09   62.39
   7   5  -1  157.68   58.99
  -7   5   1   53.19   48.70
  -7   5   1   60.59   37.00
   7   5  -1  200.58   67.99
   5  -5  -1  601.14   84.09
  -5  -5   1  755.22   79.09
   5  -5  -1  686.83   58.49
   5  -5  -1  875.41   91.99
  -5  -5   1  692.23   65.89
  -5  -5   1  677.33  103.99
  -5  -5   1  737.13   64.29
  -5   5   1  662.23   81.79
  -5   5   1  780.92   90.79
   5   5  -1  582.64   55.99
   5   5  -1  716.43   87.09
   5   5  -1  771.12   96.69
  -5   5   1  668.53   73.19
  -3  -5   1 4087.69  194.58
   3  -5  -1 3485.65  220.88
  -3  -5   1 4089.89  196.28
  -3  -5   1 3909.11  262.37
  -3  -5   1 3998.00  226.98
   3  -5  -1 3612.54  227.28
  -3  -5   1 3951.80  193.08
   3  -5  -1 3350.76  201.18
   3  -5  -1 3650.53  225.28
   3   5  -1 4006.90  215.58
   3   5  -1 3421.66  212.08
   3   5  -1 3748.62  206.98
   3   5  -1 3426.06  198.98
   3   5  -1 3758.62  208.08
  -3   5   1 4088.99  230.98
  -3   5   1 4149.88  192.18
  -3   5   1 4303.47  237.28
   3   5  -1 3898.11  230.68
  -3   5   1 4265.47  230.68
   1  -5  -1 5718.23  275.77
   1  -5  -1 5886.01  281.07
   1  -5  -1 5798.72  295.87
  -1  -5   1 5474.95  266.97
  -1  -5   1 5791.22  278.07
   1  -5  -1 5513.75  277.17
  -1  -5   1 5724.33  269.27
   1  -5  -1 5784.92  283.37
   1  -5  -1 5639.54  270.17
   1  -5  -1 5914.71  280.07
  -1  -5   1 5884.31  316.07
   1   5  -1 5369.66  269.17
   1   5  -1 5646.03  308.17
  -1   5   1 5662.73  279.37
   1   5  -1 5638.24  268.97
  -1   5   1 5265.17  282.27
  -1   5   1 5503.45  295.97
   1   5  -1 5414.86  284.97
   1   5  -1 5493.65  269.07
  -1   5   1 5594.64  277.57
   1   5  -1 5360.26  261.37
  -1   5   1 5363.66  281.67
   1  -5   1 1079.69   87.09
  -1  -5  -1  990.40   72.59
   1  -5   1  949.60   81.49
   1  -5   1 1039.10   67.19
  -1  -5  -1  997.50   85.79
   1  -5   1 1042.90   75.19
   1   5   1 1024.80   63.29
  -1   5  -1 1033.70   87.29
   1   5   1  997.50   71.09
   1   5   1 1002.60   58.59
  -1   5  -1 1105.59   87.19
  -1   5  -1 1033.20   81.99
  -1   5  -1 1017.10   76.89
   1   5   1  916.81   86.59
   1   5   1 1012.40   72.79
   1   5   1  975.00   72.79
  -3  -5  -1 1385.16  129.39
   3  -5   1 1523.15  118.09
  -3  -5  -1 1435.66   98.49
  -3  -5  -1 1359.16   98.29
  -3  -5  -1 1444.26   94.79
   3  -5   1 1533.35  131.69
  -3   5  -1 1485.35  127.39
  -3   5  -1 1791.42  172.98
  -3   5  -1 1427.76  120.49
   3   5   1 1510.15  125.89
   3   5   1 1435.16  102.09
   3   5   1 1482.45   98.69
   3   5   1 1518.45  108.69
  -5  -5  -1  781.62   81.79
  -5  -5  -1  860.51  110.49
   5  -5   1  983.10  107.99
   5  -5   1 1049.09  104.59
  -5  -5  -1  899.81   84.39
  -5   5  -1  942.61   98.59
   5   5   1 1008.20  113.99
   5   5   1 1003.40  102.79
  -5   5  -1  918.31   99.79
   5   5   1  909.91   74.89
  -5   5  -1  783.92  107.39
  -7  -5  -1  181.58   67.49
   7  -5   1  196.68   38.30
  -7  -5  -1  266.17   77.19
  -7  -5  -1  230.78   53.59
   7  -5   1  316.97   72.59
   7  -5   1  190.48   54.29
  -7   5  -1  217.28   58.39
   7   5   1  166.78   70.29
   7   5   1  104.89   57.39
  -7   5  -1  230.98   63.79
  -7   5  -1  282.87   72.09
  -8  -6   1  160.58   78.29
   8  -6  -1   56.29   52.29
   8  -6  -1   46.50   41.90
  -8  -6   1  162.78   41.60
  -8   6   1  131.59   65.69
   8   6  -1   32.80   47.80
  -8   6   1   89.79   46.50
  -8   6   1   95.89   49.90
   8   6  -1   67.39   49.10
   6  -6  -1  109.89   52.79
   6  -6  -1  147.69   32.90
  -6  -6   1  103.69   32.40
  -6  -6   1  130.89   31.20
   6  -6  -1  116.89   42.00
  -6   6   1   58.19   35.60
  -6   6   1   75.89   38.80
  -6   6   1  116.39   66.49
   6   6  -1  181.08   55.49
   6   6  -1  142.49   51.49
   6   6  -1  166.48   31.10
   4  -6  -1  544.55   73.59
   4  -6  -1  588.64   58.19
  -4  -6   1  539.95   47.60
  -4  -6   1  609.74   91.89
  -4  -6   1  635.24   51.19
  -4   6   1  686.83   87.09
   4   6  -1  602.64   66.69
   4   6  -1  712.03   72.79
   4   6  -1  602.14   57.19
  -4   6   1  606.54   54.19
   4   6  -1  708.83   82.09
  -4   6   1  588.04   76.69
   2  -6  -1  128.49   32.50
   2  -6  -1  116.69   30.80
  -2  -6   1  169.08   26.50
   2  -6  -1  123.09   29.10
  -2  -6   1  170.58   33.20
   2  -6  -1   80.99   25.60
  -2  -6   1  161.38   32.70
   2  -6  -1   80.99   23.40
  -2  -6   1  161.08   53.79
  -2   6   1  137.19   35.20
   2   6  -1   89.29   16.50
   2   6  -1   90.49   25.50
   2   6  -1   78.49   18.70
   2   6  -1   45.30   15.00
  -2   6   1  132.99   30.80
  -2   6   1  197.98   38.80
  -2   6   1  139.49   35.50
   2   6  -1   83.79   21.80
  -2   6   1  132.19   32.30
   0  -6   1  312.97   29.10
   0  -6   1  278.77   34.60
   0  -6  -1  356.46   42.20
   0  -6  -1  340.87   39.70
   0  -6   1  309.77   52.99
   0  -6   1  383.26   42.60
   0  -6   1  314.17   32.20
   0  -6  -1  353.86   33.20
   0  -6  -1  377.36   39.20
   0   6  -1  462.95   54.29
   0   6   1  289.67   30.20
   0   6   1  303.67   26.50
   0   6   1  358.16   40.50
   0   6   1  285.57   30.20
   0   6   1  259.37   34.20
   0   6  -1  354.36   34.10
   0   6  -1  408.36   51.69
   2  -6   1  750.12   66.59
   2  -6   1  718.43   69.09
   2  -6   1  639.14   73.39
   2  -6   1  771.32   80.69
  -2  -6  -1  675.73   80.59
   2   6   1  687.13   60.99
   2   6   1  686.43   79.89
   2   6   1  634.34   68.09
   2   6   1  700.53   54.69
  -2   6  -1  746.13   77.39
  -2   6  -1  716.13   66.89
   2   6   1  712.03   57.79
  -2   6  -1  823.52   77.69
  -2   6  -1  784.22   86.89
   2   6   1  843.02   69.39
   4  -6   1  447.76   65.09
   4  -6   1  468.95   80.39
  -4  -6  -1  426.26   49.90
  -4  -6  -1  309.47   43.40
  -4  -6  -1  273.37   71.89
  -4  -6  -1  281.27   42.20
  -4   6  -1  369.56   80.99
   4   6   1  365.76   53.49
   4   6   1  403.06   48.20
  -4   6  -1  375.46   74.09
   4   6   1  418.26   82.89
   4   6   1  360.16   65.19
  -6  -6  -1   75.69   36.80
   6  -6   1  119.69   51.69
  -6  -6  -1  116.09   57.29
   6  -6   1   66.59   36.50
  -6  -6  -1  181.58   48.30
  -6   6  -1  254.17   68.39
  -6   6  -1  108.29   45.90
   6   6   1   28.20   40.30
   6   6   1   -0.80   31.20
  -6   6  -1   99.19   41.30
  -7  -7   1  806.22   76.89
  -7  -7   1  807.52  154.08
   7  -7  -1  819.82  108.49
   7  -7  -1  807.52  103.49
  -7  -7   1  768.12   73.79
   7  -7  -1  748.23   62.49
   7   7  -1  694.93   58.29
  -7   7   1  725.33  101.69
   7   7  -1  890.91  105.69
  -7   7   1  711.53   90.39
   7   7  -1  824.12  115.39
  -7   7   1  783.12   98.39
   5  -7  -1 1957.60  158.98
   5  -7  -1 1746.53  147.89
  -5  -7   1 1979.70  185.88
   5  -7  -1 1861.11  120.29
  -5  -7   1 1838.92  110.59
  -5  -7   1 1721.23  106.99
   5   7  -1 1748.03  141.79
  -5   7   1 1569.14  117.69
  -5   7   1 1645.34  143.29
  -5   7   1 1692.83  151.88
   5   7  -1 1873.01  117.89
   5   7  -1 1940.31  161.38
   3  -7  -1 2874.11  187.58
   3  -7  -1 2773.42  181.28
   3  -7  -1 2899.31  170.98
   3  -7  -1 3137.79  185.88
   3  -7  -1 2808.12  179.18
  -3  -7   1 2689.93  178.08
  -3  -7   1 2912.51  163.78
  -3  -7   1 2673.53  219.88
  -3   7   1 2875.71  186.58
   3   7  -1 3024.80  190.68
  -3   7   1 3058.99  195.88
  -3   7   1 3007.70  190.78
   3   7  -1 3059.09  171.08
   3   7  -1 2779.52  171.98
   3   7  -1 2750.12  164.68
   3   7  -1 3063.39  163.18
  -3   7   1 2778.42  190.08
  -1  -7   1 4319.47  221.08
   1  -7  -1 4280.47  211.48
  -1  -7   1 4359.86  232.38
  -1  -7   1 3850.81  260.97
   1  -7  -1 4243.18  234.68
   1  -7  -1 3966.60  226.18
   1  -7  -1 4583.04  218.68
   1  -7  -1 4238.18  225.58
   1  -7  -1 4296.57  233.78
  -1   7   1 4355.06  223.28
  -1   7   1 4367.66  226.88
  -1   7   1 4258.77  226.98
   1   7  -1 4256.87  236.38
   1   7  -1 4077.19  260.67
   1   7  -1 4453.55  216.18
  -1   7   1 4250.87  245.48
   1   7  -1 4457.15  230.88
  -1   7   1 4414.86  234.58
   1   7  -1 4491.15  223.38
   1  -7   1 1974.60  127.19
   1  -7   1 1910.61  118.79
   1  -7   1 2168.38  122.99
   1  -7   1 2141.29  144.09
  -1  -7  -1 1613.64  116.19
  -1  -7  -1 1636.14  118.29
   1  -7   1 2129.99  110.59
  -1   7  -1 1652.03  129.39
   1   7   1 1977.70  143.89
   1   7   1 2029.90  102.19
  -1   7  -1 1616.54  132.79
   1   7   1 2143.89  107.49
  -1   7  -1 1714.53  122.49
   1   7   1 1992.80  121.09
   1   7   1 1924.01  120.89
   3  -7   1 1197.28  104.39
  -3  -7  -1 1148.89   72.89
  -3  -7  -1 1246.88  123.69
   3  -7   1 1330.27  106.29
   3   7   1 1202.58  120.39
  -3   7  -1 1395.96  119.39
   3   7   1 1107.29   87.29
   3   7   1 1302.17   92.69
   3   7   1 1037.50  114.29
  -3   7  -1 1290.47  124.59
   3   7   1 1231.08   93.59
  -5  -7  -1  766.52   97.49
   5  -7   1  848.62   99.59
   5  -7   1  882.71   99.79
  -5  -7  -1  757.42   70.69
  -5  -7  -1  823.62  107.99
   5   7   1  939.51  114.09
   5   7   1  654.73   87.49
  -5   7  -1  747.73   94.39
  -5   7  -1  699.43  100.59
  -7  -7  -1  119.09   72.29
   7  -7   1  101.59   54.89
   7  -7   1  145.99   38.60
   7  -7   1  104.39   46.30
  -7  -7  -1  147.79   43.40
  -7   7  -1  191.28   66.49
  -7   7  -1  158.98   55.09
  -7   7  -1   92.69   52.19
   7   7   1  125.79   48.30
   7   7   1  138.29   63.79
   8  -8  -1  153.18   50.39
  -8  -8   1   58.39   34.00
  -8  -8   1  227.88   92.99
   8  -8  -1  122.09   64.09
   8   8  -1  129.29   63.09
   8   8  -1  126.39   61.89
  -8   8   1  114.19   57.09
  -8   8   1  159.78   50.39
  -8   8   1   92.59   51.89
   6  -8  -1  206.68   53.19
   6  -8  -1  153.88   53.99
  -6  -8   1  162.68   75.19
   6  -8  -1   84.59   34.00
  -6  -8   1  160.98   30.50
   6   8  -1  205.48   57.39
  -6   8   1  179.58   43.30
  -6   8   1  201.58   52.99
   6   8  -1  181.58   36.50
   6   8  -1  180.08   66.49
  -6   8   1  177.78   53.49
   4  -8  -1  649.14   77.39
   4  -8  -1  831.82   71.29
  -4  -8   1  643.14   55.79
  -4  -8   1  643.84  100.99
   4  -8  -1  628.34   80.59
  -4   8   1  662.23   79.89
  -4   8   1  668.23   89.69
   4   8  -1  620.94   69.29
   4   8  -1  742.33   73.99
   4   8  -1  653.63   64.99
  -4   8   1  558.74   82.59
   4   8  -1  602.14   69.69
   2  -8  -1  379.06   46.80
  -2  -8   1  340.67   44.40
   2  -8  -1  336.37   46.80
   2  -8  -1  403.86   49.00
  -2  -8   1  416.26   41.20
   2  -8  -1  392.66   52.29
  -2  -8   1  447.26   51.59
  -2  -8   1  406.26   90.49
   2  -8  -1  381.86   43.90
  -2   8   1  398.96   52.59
  -2   8   1  440.16   54.49
  -2   8   1  387.66   49.50
   2   8  -1  300.97   38.30
   2   8  -1  320.17   45.70
  -2   8   1  405.46   55.89
  -2   8   1  353.86   52.19
   2   8  -1  439.76   49.80
  -2   8   1  327.97   33.20
   0  -8   1 1837.92   98.19
   0  -8  -1 1764.92  126.99
   0  -8   1 1883.01  117.09
   0  -8   1 1868.51  135.39
   0  -8   1 1793.22  118.49
   0  -8   1 1880.21  102.99
   0  -8  -1 2004.10  125.79
   0  -8  -1 1750.12  123.49
   0  -8  -1 1682.53  110.79
   0   8  -1 1944.61  121.59
   0   8   1 1588.34  117.69
   0   8   1 1874.01  126.49
   0   8  -1 1916.01  138.09
   0   8   1 1893.21  131.19
   0   8   1 1916.21  121.89
   0   8  -1 1841.52  110.39
   0   8  -1 1718.43  133.79
  -2  -8  -1 2658.13  169.88
  -2  -8  -1 2622.04  194.98
   2  -8   1 2853.31  175.28
   2  -8   1 2793.22  198.18
   2  -8   1 2831.42  188.28
   2  -8   1 2968.60  169.08
   2  -8   1 3037.90  171.58
  -2   8  -1 2992.30  197.08
   2   8   1 2852.21  155.18
   2   8   1 2954.20  155.48
   2   8   1 2994.30  200.38
  -2   8  -1 2977.30  170.28
   2   8   1 2714.83  168.58
   2   8   1 2687.63  170.38
   2   8   1 2939.61  169.18
  -2   8  -1 2474.25  190.68
  -2   8  -1 3212.38  190.68
   4  -8   1  155.18   45.40
  -4  -8  -1  152.38   60.69
   4   8   1  179.78   42.30
  -4   8  -1  118.29   47.70
  -4   8  -1  119.89   48.00
   4   8   1  204.38   47.50
   4   8   1  150.58   58.29
  -6  -8  -1  305.07   85.49
   6  -8   1   74.29   50.49
  -6  -8  -1  146.69   40.10
   6  -8   1   78.19   44.10
   6  -8   1  128.79   33.20
  -6   8  -1  149.29   52.19
  -6   8  -1  182.68   56.49
  -6   8  -1  125.49   55.19
   6   8   1  165.98   51.29
   6   8   1   53.69   48.60
   7  -9  -1  241.48   70.59
  -7  -9   1  206.18   87.29
   7  -9  -1  298.57   48.30
   7  -9  -1  269.17   64.29
   7   9  -1  171.68   62.39
   7   9  -1  251.57   74.09
  -7   9   1  332.47   82.49
  -7   9   1  253.07   66.79
   7   9  -1  212.78   41.50
   5  -9  -1 1816.82  122.99
   5  -9  -1 2032.80  158.98
   5  -9  -1 1643.44  140.49
  -5  -9   1 1580.24  189.68
  -5   9   1 1608.84  143.79
   5   9  -1 1723.43  135.49
  -5   9   1 1659.33  153.88
  -5   9   1 1443.66  102.59
   5   9  -1 1915.81  147.79
   5   9  -1 1723.73  154.38
   3  -9  -1 1926.71  139.99
   3  -9  -1 1877.11  132.59
  -3  -9   1 1533.25  132.29
   3  -9  -1 1950.80  135.59
  -3  -9   1 1592.84  119.19
   3  -9  -1 1821.22  130.89
  -3  -9   1 1669.83  170.18
   3  -9  -1 2044.40  131.19
  -3   9   1 1568.94  117.79
   3   9  -1 2051.09  110.39
  -3   9   1 1687.13  136.29
   3   9  -1 2100.19  144.69
   3   9  -1 1919.01  122.29
   3   9  -1 1751.12  112.29
  -3   9   1 1626.64  138.29
  -3   9   1 1450.75  132.09
   3   9  -1 2029.90  130.49
  -1  -9   1 1401.46  130.99
  -1  -9   1 1291.67   90.29
   1  -9  -1 1076.19   98.09
   1  -9  -1 1284.07  102.39
   1  -9  -1 1102.49   96.99
   1  -9  -1 1241.18   92.49
  -1  -9   1 1267.37  100.99
   1   9  -1 1249.28  102.89
  -1   9   1 1399.76   99.19
  -1   9   1 1170.28  104.89
   1   9  -1 1254.67   82.99
  -1   9   1 1328.67  103.49
  -1   9   1 1278.47   89.79
  -1   9   1 1414.96   92.29
   1   9  -1 1230.58   91.39
   1   9  -1 1193.88   95.49
   1  -9   1 2354.96  128.99
  -1  -9  -1 2370.16  150.78
   1  -9   1 2344.27  146.89
   1  -9   1 2398.76  148.59
  -1  -9  -1 2458.75  152.88
   1  -9   1 2394.06  170.18
  -1  -9  -1 2258.57  167.18
   1  -9   1 2364.46  138.79
   1   9   1 2439.46  150.28
  -1   9  -1 2405.36  170.78
   1   9   1 2433.06  150.08
  -1   9  -1 2502.35  152.98
  -1   9  -1 2258.67  157.48
   1   9   1 2317.37  135.49
   1   9   1 2193.68  165.78
   3  -9   1  647.74   63.79
   3  -9   1  588.34   70.99
   3  -9   1  630.74   73.19
  -3  -9  -1  593.54   86.39
  -3   9  -1  649.43   82.39
   3   9   1  615.14  101.39
   3   9   1  523.65   68.69
   3   9   1  612.84   60.29
   3   9   1  739.03   63.29
   3   9   1  666.13   87.89
  -3   9  -1  595.74   85.49
  -3   9  -1  656.53   83.59
   5  -9   1  220.68   59.99
  -5  -9  -1  289.27   84.69
   5  -9   1  306.27   65.99
   5  -9   1  310.97   50.89
   5   9   1  257.47   56.29
  -5   9  -1  199.48   62.09
  -5   9  -1  251.97   61.39
   5   9   1  257.87   67.29
   7  -9   1  387.86   85.39
   7  -9   1  387.46   57.79
  -7  -9  -1  466.95  103.19
   7  -9   1  282.77   64.59
  -7   9  -1  247.18   70.29
   7   9   1  305.87   86.49
  -7   9  -1  165.88   75.69
   7   9   1  249.78   72.29
  -7   9  -1  244.58   76.09
   8 -10  -1   29.80   39.00
  -8 -10   1   45.70   79.79
   8 -10  -1  101.59   55.69
  -8  10   1   73.19   73.39
   8  10  -1   92.89   58.09
  -8  10   1  113.69   56.49
   8  10  -1   65.19   54.69
  -6 -10   1   18.00   45.10
   6 -10  -1   50.29   36.50
   6 -10  -1  -42.50   25.30
   6 -10  -1  -26.20   24.70
  -6  10   1   29.10   24.90
   6  10  -1  -67.79   32.10
   6  10  -1    9.60   26.90
  -6  10   1   -4.80   46.70
   6  10  -1  -15.00   34.00
   4 -10  -1  768.42   90.19
  -4 -10   1  716.23  135.69
  -4 -10   1  756.02   67.99
   4 -10  -1  727.63   72.89
   4 -10  -1  695.63   79.99
   4  10  -1  652.63   72.59
  -4  10   1  810.32   92.09
   4  10  -1  519.05   65.99
   4  10  -1  646.04   88.69
   4  10  -1  666.83   70.39
  -4  10   1  782.02   94.69
   2 -10  -1 3086.09  192.38
  -2 -10   1 3311.17  237.68
   2 -10  -1 2911.31  176.38
  -2 -10   1 3560.34  196.78
   2 -10  -1 2981.40  172.48
  -2 -10   1 3243.98  180.18
   2 -10  -1 2920.91  190.98
   2 -10  -1 2986.80  189.78
  -2  10   1 3041.90  193.48
   2  10  -1 3038.20  188.48
   2  10  -1 2714.73  189.68
   2  10  -1 3064.59  186.68
  -2  10   1 3391.46  195.88
  -2  10   1 3066.69  198.98
  -2  10   1 2730.53  167.68
  -2  10   1 3362.96  199.48
   2  10  -1 2987.80  188.48
  -2  10   1 3315.37  194.18
   0 -10  -1 2617.74  169.48
   0 -10  -1 2233.38  178.78
   0 -10   1 2849.22  164.18
   0 -10  -1 2525.55  154.48
   0 -10   1 2743.93  167.68
   0 -10  -1 2491.15  166.78
   0 -10   1 2721.93  180.28
   0  10   1 2566.24  167.48
   0  10  -1 2679.63  180.48
   0  10  -1 2380.46  147.19
   0  10   1 2638.04  157.58
   0  10   1 2714.33  167.78
   0  10  -1 2692.33  155.98
  -2 -10  -1  337.57   76.89
   2 -10   1  243.98   41.90
  -2 -10  -1  279.87   48.40
   2 -10   1  186.28   40.90
   2 -10   1  187.08   53.19
   2 -10   1  172.48   37.90
  -2  10  -1  356.36   72.59
  -2  10  -1  275.87   60.89
   2  10   1  225.38   57.39
  -2  10  -1  281.17   40.50
   2  10   1  218.88   38.40
   2  10   1  232.98   47.50
   2  10   1  254.47   30.20
   2  10   1  254.67   32.40
   4 -10   1 1471.95  110.09
  -4 -10  -1 1383.96  151.18
   4 -10   1 1448.76  126.19
  -4  10  -1 1643.94  145.59
  -4  10  -1 1403.36  145.49
   4  10   1 1475.65  110.09
   4  10   1 1458.95  114.29
   4  10   1 1477.85  146.29
   6 -10   1  378.56   58.89
   6 -10   1  304.57   75.79
  -6 -10  -1  414.96  101.59
   6 -10   1  302.97   74.39
   6  10   1  343.37   70.99
  -6  10  -1  309.97   77.09
  -6  10  -1  462.35   73.99
   6  10   1  334.27   81.19
  -6  10  -1  381.16   86.69
   7 -11  -1  205.28   58.59
  -7 -11   1  131.39   78.19
   7 -11  -1  198.68   70.09
  -7  11   1  244.88   67.09
   7  11  -1  229.68   75.99
   7  11  -1  120.49   58.09
  -7  11   1  181.48   61.09
   5 -11  -1  304.87   72.79
   5 -11  -1  260.47   51.29
  -5 -11   1  180.28   76.29
   5 -11  -1  187.18   49.80
  -5  11   1  159.18   56.59
   5  11  -1  241.98   47.70
   5  11  -1  202.68   53.59
  -5  11   1  152.78   52.69
   5  11  -1  112.89   52.49
  -3 -11   1  155.38   34.20
   3 -11  -1  119.49   36.70
  -3 -11   1  159.38   40.60
  -3 -11   1  137.79   38.50
   3 -11  -1   89.09   33.20
   3 -11  -1   90.29   30.00
   3 -11  -1  132.89   44.10
  -3 -11   1  166.38   67.79
   3  11  -1   99.89   37.70
  -3  11   1   78.99   33.90
   3  11  -1   90.59   34.10
  -3  11   1   73.19   35.60
  -3  11   1  135.69   46.40
  -3  11   1  182.88   47.70
   1 -11  -1 1272.07  101.89
   1 -11  -1 1054.09   90.89
  -1 -11   1  876.41  107.99
  -1 -11   1  807.42   76.89
   1 -11  -1 1080.69   94.79
   1 -11  -1 1072.09   95.09
  -1 -11   1  783.02   84.49
  -1  11   1 1058.39   78.19
   1  11  -1 1094.69   98.39
  -1  11   1  909.31   85.59
   1  11  -1 1168.18   86.69
  -1  11   1  790.12   83.79
  -1  11   1  925.91   90.89
   1  11  -1 1110.39   76.49
  -1  11   1  934.61   95.09
   1  11  -1 1037.90   91.09
  -1  11   1  907.11   76.49
  -1 -11  -1 1206.18  114.19
  -1 -11  -1 1184.68   98.39
   1 -11   1 1091.79   93.59
  -1 -11  -1 1196.28   99.59
   1 -11   1 1144.99   85.49
   1 -11   1 1044.20   78.59
   1  11   1 1066.69   84.39
  -1  11  -1 1195.88   80.39
   1  11   1 1008.50  105.29
  -1  11  -1 1161.58  100.39
  -1  11  -1 1216.48  112.89
  -1  11  -1 1015.70  101.09
   3 -11   1 1718.23  128.39
   3 -11   1 1677.23  120.49
   3 -11   1 1550.94  120.59
  -3 -11  -1 1296.67  143.89
  -3  11  -1 1419.06  140.99
   3  11   1 1872.11  127.79
   3  11   1 1774.02  111.09
   3  11   1 1712.43  107.79
   3  11   1 1502.45  142.59
  -3  11  -1 1360.46  135.89
  -3  11  -1 1395.86  121.39
  -5 -11  -1  402.26   96.29
   5 -11   1  447.96   66.99
   5 -11   1  455.45   92.59
   5 -11   1  427.66   81.79
   5  11   1  472.05   95.89
   5  11   1  407.96   70.89
  -5  11  -1  257.97   74.29
  -5  11  -1  356.66   80.29
   7 -11   1  172.48   60.69
   7 -11   1  146.49   44.70
  -7 -11  -1  287.97   81.89
  -7  11  -1  143.69   57.99
   7  11   1  141.59   60.39
  -7  11  -1  228.18   67.59
   7  11   1  158.18   61.79
   8 -12  -1  204.58   64.69
  -8 -12   1  120.09   83.09
   8  12  -1  120.89   58.89
   8  12  -1  153.28   81.79
  -8  12   1  134.19   54.29
  -8  12   1   63.39   52.49
  -6 -12   1  861.21  140.09
   6 -12  -1  903.71   85.09
   6 -12  -1  794.22  109.49
  -6  12   1  818.92  108.19
   6  12  -1 1014.80  102.79
  -6  12   1  824.52  112.99
   4 -12  -1  812.52   93.89
  -4 -12   1  884.71  143.09
  -4 -12   1  860.71   88.99
   4 -12  -1  704.33   82.99
  -4  12   1  928.21  104.89
  -4  12   1  716.03   94.19
   4  12  -1  727.13   72.39
   4  12  -1  810.72   99.39
   4  12  -1  793.62   73.09
  -2 -12   1  893.31  115.49
  -2 -12   1  913.61   77.79
   2 -12  -1  855.21   85.19
   2 -12  -1  816.62   66.69
   2 -12  -1  841.52   85.39
   2 -12  -1  787.92   62.19
  -2 -12   1  847.32   83.79
   2 -12  -1  798.52   83.99
   2 -12  -1  801.12   79.59
   2  12  -1  756.52   80.49
  -2  12   1  616.74   74.99
  -2  12   1  564.24   78.79
   2  12  -1  910.01   76.09
  -2  12   1  738.73   82.59
   2  12  -1  781.32   77.19
  -2  12   1  926.21   90.39
   0 -12   1 3030.40  173.98
   0 -12  -1 2709.93  178.68
   0 -12  -1 2362.46  208.38
   0 -12  -1 2610.84  163.68
   0 -12  -1 2384.16  186.88
   0 -12   1 2965.90  192.98
   0  12  -1 2655.83  141.79
   0  12   1 2870.31  168.98
   0  12  -1 2646.54  158.08
   0  12  -1 2231.88  150.18
   0  12  -1 2592.04  183.68
   2 -12   1  810.62   75.39
  -2 -12  -1  787.72   80.39
   2 -12   1  780.22   78.69
  -2 -12  -1  820.62  102.19
  -2 -12  -1  823.22   80.19
   2 -12   1  807.62   67.79
   2  12   1  756.82   65.29
   2  12   1  786.12   67.49
  -2  12  -1  733.53   94.69
  -2  12  -1  725.93   89.29
   2  12   1  768.62   94.69
  -2  12  -1  758.22   69.49
   4 -12   1  684.83   81.59
  -4 -12  -1  715.23  107.29
   4 -12   1  666.83   72.09
   4  12   1  623.34   69.99
   4  12   1  574.54   69.59
   4  12   1  675.63   98.19
  -4  12  -1  582.94  106.79
  -4  12  -1  664.63  109.79
  -6 -12  -1   65.79   77.89
   6 -12   1   25.60   35.50
   6 -12   1   29.10   33.20
   6 -12   1   13.20   46.30
   6  12   1   -3.70   42.40
  -6  12  -1   -1.90   40.10
   6  12   1   13.50   33.20
  -6  12  -1  -27.60   38.30
  -6  12  -1   17.50   41.70
   7 -13  -1  168.68   51.79
   7 -13  -1  155.98   59.99
   7 -13  -1  129.49   42.30
  -7  13   1   98.29   44.20
  -7  13   1  112.49   51.09
   7  13  -1   75.49   55.29
   7  13  -1  108.29   47.80
  -5 -13   1  764.02   73.99
   5 -13  -1  624.84   92.59
  -5 -13   1  820.22  131.39
   5 -13  -1  660.13   82.59
   5 -13  -1  678.33   75.49
   5  13  -1  694.13   78.09
  -5  13   1  642.64   98.19
   5  13  -1  616.64   96.09
  -5  13   1  803.82  101.79
   3 -13  -1 1145.69  102.79
  -3 -13   1 1129.59  140.79
  -3 -13   1 1129.09  102.29
   3 -13  -1 1128.89   93.59
  -3 -13   1 1253.57   98.49
   3 -13  -1 1174.38  107.59
   3 -13  -1 1038.90   91.19
   3  13  -1  935.71  105.59
  -3  13   1 1030.10  111.79
  -3  13   1 1067.99  113.09
  -3  13   1 1198.28  138.89
   3  13  -1 1214.68  110.59
  -3  13   1 1138.59   79.89
  -1 -13   1  293.27   51.99
  -1 -13   1  261.37   54.69
  -1 -13   1  337.67   83.49
   1 -13  -1  348.97   66.09
   1 -13  -1  322.47   59.99
   1 -13  -1  339.67   62.29
   1  13  -1  328.97   46.80
  -1  13   1  342.17   46.70
  -1  13   1  493.05   60.89
  -1  13   1  399.06   77.19
   1  13  -1  301.77   62.39
   1  13  -1  342.47   43.40
  -1  13   1  260.57   46.20
   1 -13   1  422.46   55.69
  -1 -13  -1  541.95   80.89
  -1 -13  -1  542.25   69.49
   1 -13   1  477.25   47.80
   1 -13   1  420.66   61.79
  -1 -13  -1  464.55   62.59
   1  13   1  374.76   70.29
  -1  13  -1  599.44   48.00
  -1  13  -1  528.05   74.29
   1  13   1  375.16   51.29
  -1  13  -1  408.86   66.29
  -1  13  -1  509.05   65.49
   3 -13   1  318.97   56.99
   3 -13   1  296.17   58.19
  -3 -13  -1  205.18   66.29
  -3 -13  -1  277.27   52.99
   3 -13   1  280.47   53.49
   3  13   1  381.96   48.30
   3  13   1  349.96   46.30
   3  13   1  393.26   54.69
  -3  13  -1  276.97   64.79
  -3  13  -1  289.87   69.79
   3  13   1  345.37   41.60
  -3  13  -1  288.17   54.69
   3  13   1  323.57   73.99
   5 -13   1  133.29   42.30
   5 -13   1  164.08   48.80
   5 -13   1  159.78   52.49
  -5 -13  -1  157.68   68.79
  -5  13  -1  115.29   58.59
  -5  13  -1  267.67   72.79
   5  13   1  110.19   40.10
   5  13   1  137.49   57.49
  -6 -14   1  284.67   81.59
   6 -14  -1  164.98   44.10
   6 -14  -1  248.48   70.89
   6 -14  -1  170.58   51.89
  -6  14   1  237.78   69.79
  -6  14   1  118.19   54.09
   6  14  -1  207.88   58.39
   6  14  -1  178.88   71.49
  -4 -14   1  330.17   89.49
   4 -14  -1  442.46   72.29
   4 -14  -1  479.85   82.19
   4 -14  -1  491.25   64.19
  -4 -14   1  342.27   60.39
   4  14  -1  295.27   50.99
   4  14  -1  474.45   86.19
  -4  14   1  302.37   67.69
  -4  14   1  450.05   84.49
  -2 -14   1  645.14   74.19
   2 -14  -1  562.84   69.89
  -2 -14   1  632.34   66.69
  -2 -14   1  665.13  125.99
   2 -14  -1  591.64   73.19
  -2  14   1  508.75   72.99
   2  14  -1  401.26   62.49
  -2  14   1  547.85   72.09
  -2  14   1  601.54   70.09
  -2  14   1  430.06   77.09
  -2  14   1  713.33   74.99
   0 -14   1  285.07   60.99
   0 -14  -1  308.77   61.09
   0 -14   1  189.98   45.20
   0 -14  -1  318.57   74.99
   0 -14  -1  256.27   51.99
   0 -14  -1  230.68   52.99
   0  14  -1  265.67   45.70
   0  14  -1  292.97   53.89
   0  14  -1  266.87   38.70
   0  14  -1  208.48   49.10
   0  14   1  279.67   51.39
   0  14  -1  317.27   46.30
   0  14   1  232.18   57.99
  -2 -14  -1   19.70   31.40
   2 -14   1   13.70   22.80
   2 -14   1   70.39   31.70
  -2 -14  -1  -16.70   20.90
  -2 -14  -1   -0.30   20.20
   2 -14   1   26.00   21.50
   2  14   1   23.70   28.00
   2  14   1    2.20   19.90
  -2  14  -1   53.39   34.90
  -2  14  -1   33.70   23.30
  -2  14  -1   11.70   28.50
   4 -14   1  116.49   44.80
   4 -14   1   67.89   36.60
  -4 -14  -1   57.09   47.40
   4 -14   1  133.29   46.60
   4  14   1  128.89   38.10
   4  14   1   -3.70   34.40
  -4  14  -1  129.19   62.69
  -4  14  -1   40.80   45.00
   6 -14   1  243.18   55.89
   6 -14   1  199.68   55.69
  -6 -14  -1  293.17   87.09
   6 -14   1  175.28   59.79
   6  14   1  255.07   75.09
  -6  14  -1  109.69   49.10
  -6  14  -1  150.68   57.29
  -6  14  -1  201.58   63.89
   6  14   1  201.58   55.89
  -7 -15   1   96.59   66.39
   7 -15  -1   67.79   44.20
   7 -15  -1   75.29   40.80
   7 -15  -1  -25.90   54.09
  -7  15   1  125.99   63.09
   7  15  -1  159.38   71.09
  -7  15   1   97.29   48.20
   7  15  -1  178.58   56.19
   5 -15  -1  213.38   54.19
   5 -15  -1  342.57   73.59
   5 -15  -1  260.17   57.39
  -5 -15   1  251.87   50.19
  -5 -15   1  204.78   77.09
  -5  15   1  211.08   69.09
   5  15  -1  143.89   58.19
   5  15  -1  261.57   50.69
  -5  15   1  300.67   71.59
  -3 -15   1   56.59   27.40
   3 -15  -1   43.80   32.90
   3 -15  -1   43.50   32.30
  -3 -15   1    7.70   47.40
  -3 -15   1   65.09   37.30
   3 -15  -1   85.09   34.30
   3 -15  -1  126.59   33.50
   3 -15  -1   88.99   32.60
  -3  15   1  118.69   50.39
   3  15  -1  113.29   44.10
  -3  15   1  140.39   44.00
   3  15  -1  129.09   41.20
  -3  15   1   85.09   51.49
  -1 -15   1 1610.84  118.79
   1 -15  -1 1365.36  121.79
  -1 -15   1 1549.05  125.09
  -1 -15   1 1706.83  161.68
   1 -15  -1 1255.27  121.49
   1 -15  -1 1250.67  128.69
   1 -15  -1 1327.47  118.09
   1  15  -1 1244.78   97.29
   1  15  -1 1247.88  119.89
  -1  15   1 1451.95  104.39
  -1  15   1 1449.15  127.49
  -1  15   1 1561.74  109.59
  -1  15   1 1474.35  123.59
  -1 -15  -1  673.13   81.99
  -1 -15  -1  768.32  107.19
   1 -15   1  820.12   89.89
   1 -15   1  697.73   79.79
  -1 -15  -1  697.13   82.29
  -1  15  -1  769.12   91.59
  -1  15  -1  856.61   85.29
  -1  15  -1  747.33   62.89
   1  15   1  824.72   77.09
  -1  15  -1  804.22   85.39
   3 -15   1 1308.07  112.99
  -3 -15  -1 1359.56  115.39
  -3 -15  -1 1499.35  156.28
   3 -15   1 1171.58  101.99
   3 -15   1 1242.78  106.79
   3  15   1 1183.98  124.49
   3  15   1 1285.67   99.89
  -3  15  -1 1142.19  101.99
   3  15   1 1110.49   94.89
  -3  15  -1 1101.59  127.09
  -3  15  -1 1413.06  136.89
  -5 -15  -1  757.92  143.69
   5 -15   1  689.73   84.89
   5 -15   1  706.23   90.49
   5 -15   1  754.52   95.29
  -5  15  -1  654.93  114.59
  -5  15  -1  746.93  109.99
   5  15   1  599.34  114.09
   5  15   1  685.33   83.49
  -6 -16   1  -11.60   57.39
   6 -16  -1  127.29   54.39
   6 -16  -1   97.19   46.90
   6 -16  -1   76.89   39.90
  -6  16   1   71.19   47.90
  -6  16   1   58.69   44.60
   6  16  -1  135.49   61.49
   6  16  -1  101.89   47.40
   4 -16  -1  574.24   96.29
  -4 -16   1  496.85   71.49
   4 -16  -1  586.14   75.39
   4 -16  -1  645.54   85.39
  -4 -16   1  587.04  122.99
   4 -16  -1  721.23   81.79
  -4  16   1  725.73  101.39
  -4  16   1  641.24   91.19
   4  16  -1  640.74  105.89
   4  16  -1  621.24   78.69
   2 -16  -1  106.09   38.80
  -2 -16   1   44.50   47.70
   2 -16  -1   99.79   40.30
  -2 -16   1  169.18   47.80
  -2 -16   1   67.49   30.10
   2  16  -1  100.09   34.10
  -2  16   1  100.39   44.20
   2  16  -1   66.09   35.00
  -2  16   1  131.89   45.60
  -2  16   1  124.59   46.30
   0 -16   1  213.58   54.89
   0 -16  -1  367.06   66.09
   0 -16  -1  389.96   83.09
   0 -16  -1  341.77   66.39
   0  16   1  359.16   60.99
   0  16  -1  357.76   49.50
   0  16  -1  426.46   49.40
   0  16  -1  469.35   82.79
   0  16  -1  379.66   42.60
   0  16  -1  525.15   58.39
   2 -16   1  432.66   50.99
  -2 -16  -1  365.16   64.69
   2 -16   1  279.17   61.29
  -2 -16  -1  352.86   92.69
   2 -16   1  434.16   59.69
  -2 -16  -1  367.76   67.39
  -2  16  -1  383.56   74.69
  -2  16  -1  383.36   78.09
   2  16   1  367.86   78.09
  -2  16  -1  347.07   51.19
   2  16   1  462.95   58.39
  -4 -16  -1  275.67   83.79
   4 -16   1  292.77   65.89
   4 -16   1  338.17   65.59
   4 -16   1  432.66   65.69
  -4  16  -1  235.28   72.89
   4  16   1  338.67   56.49
  -4  16  -1  127.79   70.09
   4  16   1  412.76   62.19
  -6 -16  -1  265.37   88.59
   6 -16   1  211.18   65.09
   6 -16   1  205.48   52.99
   6  16   1  243.78   77.29
   6  16   1  240.48   56.69
  -6  16  -1  211.38   69.09
   7 -17  -1  152.98   61.19
  -7 -17   1   20.10   67.29
   7 -17  -1    9.80   47.20
   7 -17  -1   88.99   47.50
   7  17  -1  183.68   59.19
  -7  17   1   13.40   49.99
  -7  17   1   89.49   58.79
   7  17  -1   19.60   64.39
   5 -17  -1  602.04   79.69
  -5 -17   1  557.14  126.19
   5 -17  -1  500.05   72.09
   5 -17  -1  416.26   83.69
  -5 -17   1  669.73   77.29
  -5  17   1  682.83  114.79
   5  17  -1  395.66   71.79
   5  17  -1  425.76   92.09
  -5  17   1  579.94  108.69
  -3 -17   1  897.41   89.49
   3 -17  -1  858.61   93.99
   3 -17  -1  874.91   94.89
  -3 -17   1 1044.80  135.29
  -3 -17   1 1024.20  100.69
   3  17  -1 1004.70  103.29
  -3  17   1  861.41   85.09
  -3  17   1 1068.89  109.89
  -3  17   1  827.82  107.29
   3  17  -1 1096.69  105.39
   1 -17  -1 2548.25  179.88
  -1 -17   1 2499.65  215.68
  -1 -17   1 2336.37  174.18
   1 -17  -1 2589.34  182.68
  -1 -17   1 2353.56  167.88
   1 -17  -1 2686.93  191.38
  -1  17   1 2612.64  159.68
   1  17  -1 2470.05  153.38
  -1  17   1 2499.85  180.98
  -1  17   1 2388.06  187.48
   1  17  -1 2243.78  152.08
   1  17  -1 2479.45  182.98
  -1 -17  -1  340.77   66.89
  -1 -17  -1  506.55   69.79
  -1 -17  -1  550.94  113.49
   1 -17   1  428.76   71.79
   1 -17   1  510.35   72.59
   1  17   1  532.15   78.69
  -1  17  -1  404.26   48.40
   1  17   1  508.35   64.29
  -1  17  -1  567.74   71.29
  -1  17  -1  542.35   78.19
  -3 -17  -1  420.96   71.99
  -3 -17  -1  511.65  111.79
   3 -17   1  494.55   81.59
   3 -17   1  481.75   65.19
   3 -17   1  506.05   62.69
  -3  17  -1  362.46   76.99
   3  17   1  424.06   61.99
   3  17   1  349.96   57.59
  -3  17  -1  410.26   87.09
   3  17   1  521.45   95.69
  -3  17  -1  473.05   67.79
   5 -17   1  441.66   78.29
   5 -17   1  548.15   78.49
  -5 -17  -1  360.66  102.19
   5 -17   1  564.44   87.19
  -5  17  -1  415.56   89.99
   5  17   1  286.27   79.69
  -5  17  -1  475.45   91.29
   5  17   1  387.06   66.59
   5  17   1  538.65   75.89
  -6 -18   1  197.08   74.79
   6 -18  -1  218.28   65.29
   6 -18  -1  307.87   66.49
   6 -18  -1  294.27   73.19
   6  18  -1  239.58   67.49
   6  18  -1  231.28   80.59
  -6  18   1  279.07   75.59
  -6  18   1  259.87   72.59
   4 -18  -1  513.25   72.19
   4 -18  -1  403.56   68.69
   4 -18  -1  286.07   66.49
  -4 -18   1  419.16  105.29
   4 -18  -1  605.84   77.99
  -4 -18   1  349.37   64.59
   4 -18  -1  531.15   96.89
   4  18  -1  514.55   95.79
   4  18  -1  379.76   72.59
  -4  18   1  340.97   89.39
  -4  18   1  339.17   80.69
  -2 -18   1   99.39   35.70
   2 -18  -1  115.69   39.90
  -2 -18   1   77.89   37.40
  -2 -18   1   67.49   48.80
  -2  18   1   48.50   36.00
  -2  18   1  113.29   36.80
   2  18  -1   34.00   35.40
   2  18  -1  100.79   39.90
   0 -18  -1  295.27   58.19
   0 -18  -1  183.78   45.50
   0 -18   1   87.39   36.30
   0 -18  -1  217.48   62.89
   0  18  -1  247.18   36.30
   0  18  -1  186.88   36.50
   0  18  -1  174.48   43.10
   0  18   1  107.59   35.70
   0  18  -1  177.28   52.49
   0  18  -1  316.77   49.30
  -2 -18  -1  201.88   47.30
  -2 -18  -1  219.08   84.39
   2 -18   1  202.18   55.59
   2 -18   1  168.58   46.00
  -2 -18  -1  200.68   52.49
  -2  18  -1  187.98   40.20
  -2  18  -1  267.07   58.39
  -2  18  -1  225.08   60.59
   2  18   1  263.97   67.69
   2  18   1  223.18   49.30
  -4 -18  -1   28.10   53.79
   4 -18   1   57.19   42.20
   4 -18   1   90.49   39.70
   4 -18   1  114.99   44.30
   4  18   1   57.59   31.30
  -4  18  -1   49.70   47.30
  -4  18  -1  -81.29   42.20
   4  18   1  110.19   57.09
   5 -19  -1  141.49   60.29
   5 -19  -1  103.09   50.99
   5 -19  -1  188.38   55.69
  -5 -19   1  132.19   59.39
  -5 -19   1  273.47  130.09
   5  19  -1  201.68   55.89
  -5  19   1  181.38   63.69
  -5  19   1  245.08   69.69
  -3 -19   1   50.69   29.70
  -3 -19   1   44.70   29.50
   3 -19  -1   50.29   35.00
  -3 -19   1   32.10   53.39
   3 -19  -1   -4.60   28.70
  -3  19   1  -29.70   38.80
  -3  19   1   90.39   39.70
   3  19  -1   11.90   32.40
   3  19  -1    8.50   36.30
  -1 -19   1  516.15   71.79
  -1 -19   1  519.25   66.49
   1 -19  -1  530.25   83.79
   1 -19  -1  532.25   87.59
   1 -19  -1  468.85   66.29
  -1  19   1  393.26   58.79
   1  19  -1  383.16   58.89
  -1  19   1  382.66   71.99
   1  19  -1  358.36   70.39
   1  19  -1  373.36   57.69
  -1  19   1  440.16   64.39
  -1 -19  -1 1491.85  159.28
   1 -19   1 1439.06  123.69
  -1 -19  -1 1502.05  131.49
  -1 -19  -1 1430.56  128.19
   1 -19   1 1537.45  133.69
  -1  19  -1 1522.15  147.19
  -1  19  -1 1361.36  132.49
   1  19   1 1155.08  125.69
   1  19   1 1533.95  133.99
   3 -19   1  724.43   81.09
   3 -19   1  777.92   94.29
   3 -19   1 1034.30  121.19
  -3 -19  -1  763.12  124.89
   3 -19   1  739.93   97.99
  -3 -19  -1  819.12   97.09
  -3  19  -1  769.72  108.49
  -3  19  -1  934.01  109.49
   3  19   1  913.31  111.59
  -3  19  -1  872.51   83.49
   3  19   1  922.51  110.39
   5 -19   1  169.18   51.59
   5 -19   1  -47.70   51.09
   5 -19   1  157.98   52.79
  -5 -19  -1  170.48   84.99
   5  19   1   74.29   43.50
   5  19   1   78.39   51.89
  -5  19  -1  -24.20   46.20
   5  19   1  156.08   51.79
  -5  19  -1   96.29   82.39
   6 -20  -1  186.98   56.39
  -6 -20   1  181.88   76.99
   6 -20  -1  227.18   66.99
  -6  20   1  228.88   68.99
  -6  20   1  183.08   74.29
   6  20  -1  240.08   82.69
   6  20  -1  137.49   59.29
  -4 -20   1  -12.10   28.20
   4 -20  -1   13.00   31.50
  -4 -20   1  -59.69   49.10
  -4  20   1   18.00   49.99
   4  20  -1   32.70   40.50
  -4  20   1   50.19   40.20
   4  20  -1   41.00   46.80
  -2 -20   1  366.26   62.89
  -2 -20   1  300.47   86.79
   2 -20  -1  440.86   71.99
   2 -20  -1  302.17   63.79
  -2 -20   1  321.37   79.69
   2  20  -1  520.15   71.19
  -2  20   1  329.17   73.09
   2  20  -1  338.57   70.09
  -2  20   1  292.97   63.39
   0 -20  -1  276.27   78.19
   0 -20  -1  308.37   63.99
   0 -20   1  341.77   63.89
   0  20  -1  366.26   74.69
   0  20   1  430.96   70.39
   0  20   1  495.55   71.99
   0  20  -1  330.57   55.09
   0  20  -1  270.57   42.40
   0  20  -1  251.57   45.60
   0  20  -1  438.66   62.29
  -2 -20  -1  281.47   91.89
  -2 -20  -1  132.19   44.20
  -2 -20  -1  209.18   52.19
   2 -20   1   68.39   40.90
   2 -20   1   82.79   39.30
  -2  20  -1  122.09   43.70
  -2  20  -1  289.67   67.19
   2  20   1   87.39   40.00
   2  20   1  126.99   50.59
   4 -20   1  266.37   65.69
   4 -20   1  283.07   61.79
  -4 -20  -1  360.36  108.99
   4 -20   1  314.67   67.99
   4  20   1  376.16   83.39
  -4  20  -1  351.66   88.29
   4  20   1  263.17   58.29
   5 -21  -1  504.65   79.39
   5 -21  -1  658.13   90.89
  -5 -21   1  600.34  124.89
   5 -21  -1  619.74   83.19
  -5 -21   1  336.97   70.29
  -5  21   1  404.46   94.49
  -5  21   1  405.76   91.69
   5  21  -1  724.93  110.39
   3 -21  -1  978.50  112.09
  -3 -21   1 1101.39  109.59
   3 -21  -1 1162.68  113.99
  -3 -21   1 1042.00  107.59
  -3 -21   1 1294.77  154.08
  -3  21   1 1050.59  127.39
   3  21  -1 1007.90  111.69
  -3  21   1 1193.88  119.29
   3  21  -1 1189.18  122.09
  -1 -21   1  258.27   58.69
   1 -21  -1  157.38   54.49
  -1 -21   1  279.47   53.69
   1 -21  -1  157.38   48.30
   1  21  -1  264.07   49.40
  -1  21   1  302.17   50.69
   1  21  -1  261.17   47.10
   1  21  -1  158.28   52.79
  -1  21   1  295.17   63.29
   1 -21   1   23.10   25.60
  -1 -21  -1   56.69   33.50
  -1 -21  -1   20.30   27.80
   1 -21   1   35.30   32.00
  -1 -21  -1  -42.30   44.10
  -1  21  -1  -41.10   31.20
   1  21   1  -20.00   27.00
   1  21   1   20.10   36.90
  -1  21  -1   15.70   30.30
   3 -21   1   59.49   36.70
  -3 -21  -1  -74.39   51.49
  -3 -21  -1  -51.69   30.00
   3 -21   1   17.60   31.50
   3  21   1   50.39   46.30
  -3  21  -1    3.70   39.50
   3  21   1   35.90   34.90
   4 -22  -1  123.79   50.49
  -4 -22   1  143.19   48.20
  -4 -22   1  278.77   96.79
   4 -22  -1  161.28   52.29
   4  22  -1  226.38   67.69
  -4  22   1  222.98   61.29
  -4  22   1  102.39   58.89
   4  22  -1  176.68   60.79
  -2 -22   1  809.42   96.99
   2 -22  -1  869.81  100.69
   2 -22  -1  955.70   99.39
  -2 -22   1  791.12   91.29
  -2 -22   1  793.42  123.89
  -2  22   1  897.11   94.09
   2  22  -1  927.51   99.29
  -2  22   1  801.02  112.79
   2  22  -1  726.73   85.79
   0 -22  -1  894.01   98.99
   0 -22   1  759.52   92.69
   0 -22   1  759.32  137.99
   0 -22  -1  787.12   92.79
   0 -22  -1  694.63  107.49
   0  22   1  836.72   98.79
   0  22  -1  803.12   79.99
   0  22   1  833.12   95.49
   0  22  -1  792.02  105.09
  -2 -22  -1   83.39   44.40
   2 -22   1   20.20   34.10
   2 -22   1   54.09   39.40
  -2 -22  -1  153.78   66.09
  -2 -22  -1   71.99   38.70
  -2  22  -1   60.79   47.80
  -2  22  -1   65.99   41.70
   2  22   1  149.09   56.79
   2  22   1  -51.09   36.10
   4 -22   1  343.67   73.19
  -4 -22  -1  437.46  115.59
   4 -22   1  669.93   92.39
  -4  22  -1  245.68   88.49
   4  22   1  365.76   91.59
  -4  22  -1  506.85   96.79
   4  22   1  437.76   77.19
  -3 -23   1   -8.70   33.50
   3 -23  -1  -19.50   34.90
   3 -23  -1   19.50   35.20
  -3 -23   1   23.90   63.89
  -3 -23   1   22.50   40.40
  -3  23   1   81.89   43.20
   3  23  -1   30.20   46.70
  -3  23   1    1.00   49.30
   1 -23  -1  108.19   43.90
  -1 -23   1  154.48   48.10
  -1 -23   1  170.98   46.40
   1 -23  -1  253.17   57.99
   1  23  -1  265.87   47.90
   1  23  -1  307.67   65.59
  -1  23   1  165.18   52.19
  -1  23   1  142.99   43.00
   1 -23   1  281.37   57.79
  -1 -23  -1  206.88   55.99
   1 -23   1  275.67   60.69
  -1 -23  -1  249.08   59.39
  -1 -23  -1  276.27   81.39
  -1  23  -1  119.49   51.09
   1  23   1  273.47   56.69
   1  23   1  245.28   63.59
  -1  23  -1  273.27   58.19
  -3 -23  -1  203.18   84.59
  -3 -23  -1  202.78   60.99
   3 -23   1  249.97   58.59
   3 -23   1  184.48   51.49
  -3  23  -1  116.79   61.59
   3  23   1  293.37   57.69
  -3  23  -1  222.88   66.39
   3  23   1  195.98   67.09
  -4 -24   1   35.30   64.99
   4 -24  -1  164.08   47.10
  -4 -24   1  164.58   47.30
   4 -24  -1   25.60   51.39
   4  24  -1   81.39   48.70
   4  24  -1  106.29   62.59
  -4  24   1  125.89   53.89
  -4  24   1   63.69   64.59
  -2 -24   1   90.29   39.10
   2 -24  -1  102.79   38.60
   2 -24  -1   -9.00   36.10
  -2 -24   1   83.49   39.20
  -2  24   1   69.19   43.30
   2  24  -1   37.80   40.90
  -2  24   1   87.99   49.90
   0 -24  -1  361.06   89.99
   0 -24  -1  594.64   81.19
   0 -24   1  626.94   83.49
   0 -24   1  585.24   75.19
   0 -24  -1  665.13   87.99
   0  24   1  543.45   84.59
   0  24   1  448.16   80.29
   0  24  -1  512.95   89.09
   0  24  -1  822.12   79.89
  -2 -24  -1  919.21  104.09
  -2 -24  -1  941.71  107.09
   2 -24   1  942.31  102.19
  -2 -24  -1  568.44  118.89
   2  24   1  863.41   90.09
  -2  24  -1  782.32  104.99
  -2  24  -1  838.72  113.89
   2  24   1  942.61  141.29
  -3 -25   1   69.19   46.30
  -3 -25   1   25.10   63.69
  -3 -25   1   40.70   40.70
  -3  25   1   70.29   55.69
  -3  25   1  -93.69   67.39
   3  25  -1  143.99   57.39
   3  25  -1   40.00   49.30
   1 -25  -1  128.19   41.40
   1 -25  -1  143.59   48.30
  -1 -25   1   66.79   46.10
  -1 -25   1  124.49   44.40
  -1  25   1  190.48   50.29
   1  25  -1  168.38   56.39
  -1  25   1  113.39   54.39
  -1  25   1   60.09   42.70
   1 -25   1   71.69   58.69
  -1 -25  -1  105.39   45.20
  -1 -25  -1   28.10   67.39
  -1 -25  -1   51.39   45.80
   1 -25   1  122.29   43.00
  -1  25  -1  165.08   52.79
   1  25   1   66.09   51.29
  -1  25  -1  130.49   56.19
   1  25   1  180.28   52.59
   2 -26  -1  293.87   64.59
  -2 -26   1  353.26   64.89
   2 -26  -1  202.28   81.19
   2  26  -1  330.87   66.69
  -2  26   1  254.77   73.69
   0 -26   1   66.59   42.30
   0 -26   1   44.40   36.80
   0 -26  -1   47.10   34.80
   0 -26  -1   -4.00   37.00
   0  26   1   27.90   44.90
   0  26   1   33.90   47.70
   0  26  -1   35.90   48.90
   8   0  -2  734.23  119.49
  -8   0   2  729.13   94.89
   8   0  -2  734.23  106.59
  -8   0   2  687.43  135.49
  -8   0   2  490.45   75.69
  -6   0   2 2371.96  207.18
  -6   0   2 3027.20  198.08
  -6   0   2 2765.62  184.88
   6   0  -2 2375.46  196.98
   6   0  -2 2726.23  205.18
   4   0  -2 2837.12  194.58
   4   0  -2 2563.24  181.08
  -4   0   2 3211.88  206.28
  -4   0   2 3069.99  181.48
  -4   0   2 2909.41  193.18
   4   0  -2 2891.41  181.98
  -4   0   2 3292.97  202.18
   4   0  -2 2881.91  198.08
  -4   0   2 3151.68  189.28
   4   0  -2 2703.53  182.38
   2   0  -2 1782.22  125.29
  -2   0   2 1780.82  120.19
  -2   0   2 1681.53  115.99
   2   0  -2 1835.32  121.99
  -2   0   2 1584.14  104.89
   2   0  -2 1740.13  108.09
   2   0  -2 1793.82  108.79
   0   0   2  544.75   44.50
   0   0  -2  485.65   56.59
   0   0   2  482.05   45.40
   0   0   2  514.65   58.59
   0   0  -2  437.86   45.10
   0   0   2  486.75   35.70
   0   0  -2  431.46   43.60
  -2   0  -2 7965.70  400.86
   2   0   2 7923.51  411.26
   2   0   2 7830.92  421.26
  -2   0  -2 8525.85  433.66
   2   0   2 7990.20  440.76
   2   0   2 7837.92  406.46
  -2   0  -2 7976.60  405.66
  -2   0  -2 8279.27  434.26
   4   0   2 4503.05  285.77
  -4   0  -2 4544.95  283.67
   4   0   2 4865.71  282.47
  -4   0  -2 4439.26  267.17
   6   0   2  254.67   61.19
  -6   0  -2   94.09   43.10
  -6   0  -2  100.49   38.80
  -6   0  -2  160.28   61.69
   6   0   2   96.79   54.89
  -9  -1   2  445.46   78.59
   9  -1  -2  320.27   84.29
   9  -1  -2  484.95  108.59
  -9  -1   2  328.47   63.79
  -9  -1   2  228.98   96.19
   9   1  -2  256.07   75.89
  -9   1   2  314.87   66.29
  -9   1   2  352.86  100.19
  -9   1   2  374.56   78.99
   9   1  -2  312.07   79.59
   7  -1  -2  399.06   87.39
  -7  -1   2  455.15  105.09
  -7  -1   2  347.47   65.09
   7  -1  -2  388.86   89.59
  -7  -1   2  416.66   72.49
  -7   1   2  343.47   76.39
  -7   1   2  392.36   74.19
  -7   1   2  370.96   89.09
   7   1  -2  410.36   94.79
   7   1  -2  424.16   92.19
  -5  -1   2 2255.17  192.08
   5  -1  -2 2549.54  189.28
  -5  -1   2 2403.56  161.88
  -5  -1   2 2471.05  163.78
   5  -1  -2 3017.00  198.18
  -5  -1   2 2498.15  173.48
  -5   1   2 2324.87  172.08
  -5   1   2 2444.66  183.58
   5   1  -2 2498.65  188.08
   5   1  -2 3029.60  202.38
  -5   1   2 2264.57  166.78
   3  -1  -2  316.37   58.49
   3  -1  -2  410.96   56.99
   3  -1  -2  332.47   59.79
  -3  -1   2  470.25   55.59
  -3  -1   2  531.25   54.89
   3  -1  -2  317.77   44.00
  -3  -1   2  418.96   49.00
  -3  -1   2  446.76   46.60
   3  -1  -2  298.67   43.90
  -3  -1   2  465.45   59.49
  -3   1   2  579.94   63.49
   3   1  -2  285.97   65.29
  -3   1   2  489.85   58.89
   3   1  -2  300.87   42.40
   3   1  -2  329.67   50.59
  -3   1   2  413.16   26.80
   3   1  -2  336.07   50.29
  -3   1   2  432.16   48.50
  -3   1   2  411.46   48.80
   3   1  -2  290.87   44.50
   1  -1  -2 1461.85   76.19
   1  -1  -2 1328.77   82.69
   1  -1  -2 1354.46  100.09
  -1  -1   2 1188.88   80.29
   1  -1  -2 1356.16   98.29
  -1  -1   2 1061.89   90.39
  -1  -1   2 1084.89   85.49
  -1   1   2 1106.29   91.69
   1   1  -2 1394.96   61.89
  -1   1   2 1196.98   72.29
   1   1  -2 1277.57   81.69
  -1   1   2 1087.99   90.99
   1   1  -2 1297.57   97.79
  -1   1   2 1124.09   80.59
   1  -1   2  662.23   62.29
   1  -1   2  539.25   70.39
   1  -1   2  544.85   55.99
   1  -1   2  568.04   60.39
  -1  -1  -2  624.74   49.70
  -1  -1  -2  743.83   71.49
  -1  -1  -2  616.04   55.49
  -1   1  -2  776.32   77.29
   1   1   2  602.34   67.09
   1   1   2  499.05   50.49
  -1   1  -2  688.93   58.19
  -1   1  -2  652.83   59.09
   1   1   2  563.34   71.09
   1   1   2  543.25   53.79
   1   1   2  578.94   50.19
   3  -1   2  489.65   63.99
  -3  -1  -2  367.36   53.49
   3  -1   2  569.14   68.09
  -3  -1  -2  462.35   88.69
   3   1   2  600.54   75.09
   3   1   2  561.84   70.19
  -3   1  -2  390.26   64.39
   3   1   2  530.65   64.89
  -3   1  -2  445.66   82.29
   5  -1   2  114.49   40.10
   5  -1   2  183.88   54.19
  -5  -1  -2  169.88   44.90
  -5  -1  -2  144.09   48.60
  -5  -1  -2   49.40   35.20
  -5   1  -2   82.69   44.90
  -5   1  -2   93.19   43.60
   5   1   2  120.99   42.10
   5   1   2   82.09   46.50
  -5   1  -2  148.99   41.90
  -7  -1  -2  261.67   62.99
  -7  -1  -2  281.77   61.49
   7  -1   2  314.77   77.79
  -7  -1  -2  120.09   71.09
  -7   1  -2  202.78   76.29
  -7   1  -2  185.58   63.19
   7   1   2  179.68   58.69
   7   1   2  224.38   69.39
  -7   1  -2  224.68   61.79
   8  -2  -2   98.59   48.00
  -8  -2   2   79.29   43.80
  -8  -2   2   89.59   38.10
   8  -2  -2   69.89   54.59
  -8  -2   2   70.29   77.99
   8   2  -2   73.79   43.40
   8   2  -2  102.09   50.89
  -8   2   2  168.08   70.29
  -8   2   2  169.68   51.89
  -8   2   2   93.59   46.10
  -6  -2   2  197.08   70.99
  -6  -2   2  176.48   49.90
   6  -2  -2  178.98   53.99
   6  -2  -2  176.98   57.49
  -6  -2   2  187.78   44.70
  -6   2   2  121.19   43.40
   6   2  -2  130.59   51.09
  -6   2   2  221.78   62.79
  -6   2   2  157.98   47.70
   6   2  -2  226.18   60.99
  -4  -2   2 1297.07  106.19
  -4  -2   2 1273.77   97.09
   4  -2  -2 1353.36  108.69
  -4  -2   2 1371.76  102.19
   4  -2  -2 1415.76  101.09
   4  -2  -2 1295.37  108.09
  -4  -2   2 1198.08  107.89
   4  -2  -2 1351.36  117.79
   4  -2  -2 1240.38  115.19
  -4   2   2 1278.17  113.09
   4   2  -2 1276.47  105.89
   4   2  -2 1361.06  116.49
  -4   2   2 1336.37  101.79
  -4   2   2 1280.27  106.49
  -4   2   2 1375.36  113.89
  -4   2   2 1409.96  111.09
   4   2  -2 1468.25  120.89
   4   2  -2 1391.86  107.99
  -2  -2   2 9935.31  456.25
  -2  -2   2 9789.12  464.55
   2  -2  -2 9524.75  457.65
  -2  -2   2 9297.87  466.85
   2  -2  -2 9874.21  463.45
   2  -2  -2 9852.11  482.35
   2  -2  -2 9660.53  480.35
   2   2  -2 9586.84  468.95
   2   2  -2 8372.16  471.95
  -2   2   2 9723.53  458.55
   2   2  -2 9208.28  454.95
  -2   2   2 9892.81  479.55
  -2   2   2 8461.15  472.65
  -2   2   2 9987.70  464.35
   2   2  -2 9999.00  482.05
   0  -2  -2 8417.36  401.26
   0  -2   2 8580.94  413.16
   0  -2   2 8426.46  433.86
   0  -2   2 8447.25  421.16
   0  -2  -2 9181.48  396.86
   0  -2  -2 8729.13  410.16
   0  -2  -2 8689.13  429.56
   0   2   2 7687.83  426.46
   0   2  -2 8528.65  413.96
   0   2   2 8735.13  403.36
   0   2   2 8640.24  412.56
   0   2  -2 8246.98  435.66
   0   2  -2 8268.67  425.86
  -2  -2  -2 1398.46  102.89
   2  -2   2 1563.34  115.09
   2  -2   2 1468.95  114.19
  -2  -2  -2 1368.36   97.39
  -2  -2  -2 1452.05  116.29
   2  -2   2 1513.55  133.99
   2  -2   2 1512.15  115.89
   2   2   2 1374.76  127.49
  -2   2  -2 1525.65  124.79
   2   2   2 1560.44  101.69
   2   2   2 1636.54  129.59
  -2   2  -2 1657.53  133.59
   2   2   2 1673.13  108.09
  -2   2  -2 1368.56  107.19
   2   2   2 1515.35  109.99
  -2   2  -2 1381.76  107.69
   4  -2   2  167.38   49.70
  -4  -2  -2  158.58   45.40
  -4  -2  -2   87.29   41.50
  -4  -2  -2  153.58   41.50
   4  -2   2  100.59   40.80
  -4   2  -2  126.59   44.40
   4   2   2   90.59   37.90
   4   2   2  121.99   43.40
  -4   2  -2  173.78   48.80
  -6  -2  -2  508.65   78.69
  -6  -2  -2  331.47   83.69
   6  -2   2  381.66   76.99
   6  -2   2  247.18   69.69
  -6   2  -2  363.86  110.29
  -6   2  -2  442.76   94.29
   6   2   2  401.36   88.49
  -6   2  -2  427.06   82.09
   6   2   2  390.86   74.79
  -9  -3   2  253.87   68.89
   9  -3  -2  237.48   75.19
  -9  -3   2  111.49   88.49
  -9  -3   2  212.38   52.19
  -9   3   2  225.88   59.59
  -9   3   2  172.38   77.29
  -9   3   2  179.38   57.19
   9   3  -2  154.88   68.59
  -7  -3   2  349.17  103.49
   7  -3  -2  193.88   63.69
   7  -3  -2  169.08   58.19
  -7  -3   2  342.27   60.39
  -7  -3   2  338.77   69.59
  -7   3   2  377.36   82.39
   7   3  -2  299.77   68.79
  -7   3   2  290.97   72.19
   7   3  -2  300.07   80.59
  -7   3   2  283.37   62.49
  -5  -3   2   30.20   22.50
   5  -3  -2   79.89   42.80
  -5  -3   2   40.70   23.70
  -5  -3   2   12.30   18.10
  -5  -3   2   -0.30   36.70
   5  -3  -2   84.79   36.20
  -5   3   2   29.40   21.60
   5   3  -2   43.20   33.70
  -5   3   2   34.30   27.30
   5   3  -2   63.59   39.00
   3  -3  -2 2499.95  161.68
   3  -3  -2 2491.85  148.29
  -3  -3   2 2242.88  168.98
   3  -3  -2 2523.85  133.29
  -3  -3   2 2148.29  116.29
   3  -3  -2 2356.16  147.09
  -3  -3   2 2169.98  131.59
  -3  -3   2 2093.29  144.59
  -3  -3   2 2245.08  137.39
   3  -3  -2 2464.65  161.68
   3   3  -2 2156.08  207.28
   3   3  -2 2365.76  145.19
   3   3  -2 2477.05  154.88
  -3   3   2 2009.00  142.09
  -3   3   2 2101.09  141.99
  -3   3   2 2031.00  153.08
  -3   3   2 1850.01  148.09
   3   3  -2 2539.05  140.89
  -3   3   2 2105.79  118.49
   1  -3  -2 4178.78  217.28
   1  -3  -2 4233.38  205.68
   1  -3  -2 3867.01  217.48
   1  -3  -2 4403.06  234.48
  -1  -3   2 4351.86  216.88
  -1  -3   2 4466.35  233.88
   1   3  -2 4098.49  234.88
   1   3  -2 4326.37  220.28
  -1   3   2 4333.87  218.88
  -1   3   2 4335.87  219.88
  -1   3   2 3900.01  232.18
   1   3  -2 4395.96  228.58
   1   3  -2 4090.09  216.38
  -1  -3  -2  870.51   81.79
   1  -3   2 1126.99   84.69
   1  -3   2 1169.58   81.89
   1  -3   2 1166.18   96.09
   1  -3   2 1077.09   97.79
   1   3   2 1110.29   69.79
   1   3   2 1066.69   76.19
   1   3   2 1127.69  101.39
   1   3   2  972.00   93.49
   1   3   2 1156.18   81.09
  -1   3  -2  692.83   85.29
  -3  -3  -2  309.07   71.09
  -3  -3  -2  267.57   46.60
  -3  -3  -2  213.08   40.30
  -3  -3  -2  154.78   44.70
   3  -3   2  138.99   39.80
   3  -3   2  164.78   46.10
   3   3   2  121.39   35.00
   3   3   2  136.59   47.30
  -3   3  -2  308.97   71.99
   3   3   2  151.38   47.50
  -3   3  -2  148.49   43.10
  -5  -3  -2  318.47   62.39
  -5  -3  -2  319.57   76.09
  -5  -3  -2  328.47   60.29
   5  -3   2  280.47   67.99
   5   3   2  393.56   78.29
   5   3   2  325.37   77.89
  -5   3  -2  295.07   62.09
  -5   3  -2  309.37   73.59
  -5   3  -2  237.68   69.89
   7  -3   2  142.59   63.89
   7  -3   2   73.39   47.10
  -7  -3  -2  104.39   48.00
  -7  -3  -2  186.28   74.09
  -7  -3  -2  252.97   59.79
  -7   3  -2   98.59   54.79
  -7   3  -2  101.29   61.29
   7   3   2  135.39   51.89
  -7   3  -2  250.17   68.19
   8  -4  -2  261.47   72.19
  -8  -4   2  532.35   67.99
   8  -4  -2  262.37   76.09
  -8  -4   2  348.27  112.19
   8   4  -2  373.36   86.19
  -8   4   2  349.96   74.89
  -8   4   2  384.36   79.29
   8   4  -2  349.87   81.59
  -8   4   2  411.56   86.99
  -6  -4   2 1333.07  156.48
   6  -4  -2 1568.84  138.29
   6  -4  -2 1397.36  137.29
  -6  -4   2 1233.98  102.49
  -6  -4   2 1169.98  114.19
   6   4  -2 1404.06  134.79
  -6   4   2 1237.18  121.19
  -6   4   2 1275.47  121.59
   6   4  -2 1306.37  135.19
  -6   4   2 1144.99  111.79
   4  -4  -2 2152.98  150.68
   4  -4  -2 2180.48  151.38
   4  -4  -2 2183.08  162.58
   4  -4  -2 2093.29  110.69
  -4  -4   2 1941.61  128.69
  -4  -4   2 1916.11  145.79
  -4  -4   2 1767.92  169.88
  -4  -4   2 2101.29  130.09
  -4  -4   2 2269.77  112.19
   4  -4  -2 2118.49  158.38
  -4   4   2 2173.38  156.88
  -4   4   2 2113.69  148.79
   4   4  -2 2208.78  149.39
  -4   4   2 2236.28  114.09
   4   4  -2 2247.98  145.79
   4   4  -2 2244.78  159.28
  -4   4   2 2154.18  153.58
  -4   4   2 2151.08  159.48
  -4   4   2 2112.59  121.79
   4   4  -2 2042.90  153.08
   2  -4  -2  310.67   39.10
   2  -4  -2  350.36   51.49
  -2  -4   2  445.06   43.30
   2  -4  -2  349.57   39.70
  -2  -4   2  400.26   41.80
   2  -4  -2  331.07   48.80
  -2  -4   2  445.86   38.00
  -2   4   2  417.06   57.39
   2   4  -2  378.16   48.10
   2   4  -2  321.67   35.40
  -2   4   2  391.06   42.80
   2   4  -2  369.26   42.40
   2   4  -2  324.07   28.50
  -2   4   2  406.46   41.30
  -2   4   2  390.26   52.99
  -2   4   2  398.16   36.00
   2   4  -2  268.27   58.29
   0  -4  -2 1449.26   94.99
   0  -4  -2 1464.15   92.29
   0  -4   2 1690.43  101.69
   0  -4   2 1572.54   90.39
   0  -4   2 1666.83  117.09
   0  -4  -2 1563.54  104.19
   0  -4   2 1537.55  114.89
   0   4  -2 1472.85  116.29
   0   4   2 1529.95   97.89
   0   4   2 1589.44  111.29
   0   4  -2 1491.65  116.99
   0   4   2 1497.45   95.09
   0   4  -2 1511.95  100.69
   2  -4   2 1387.76  123.39
   2  -4   2 1329.27  109.49
   2  -4   2 1179.08   98.89
  -2  -4  -2 1066.49   91.99
   2  -4   2 1315.17   98.49
  -2  -4  -2 1179.48   79.19
  -2  -4  -2 1202.38   87.59
   2   4   2 1184.78   82.69
  -2   4  -2 1256.37  112.89
  -2   4  -2 1256.37  118.69
   2   4   2 1265.27  115.59
  -2   4  -2 1207.78  100.79
   2   4   2 1192.48   94.19
   2   4   2 1104.09  109.49
  -2   4  -2 1158.88  103.79
   2   4   2 1229.88   92.49
   4  -4   2  896.21   97.79
  -4  -4  -2  906.61   89.89
  -4  -4  -2  963.90   83.29
   4  -4   2  804.72   90.09
   4   4   2  893.41   92.49
  -4   4  -2 1049.59  102.29
   4   4   2  849.22  106.09
  -4   4  -2  966.50  112.99
   4   4   2  806.92   86.09
  -6  -4  -2 1107.99  104.19
  -6  -4  -2 1150.08  131.89
   6  -4   2 1177.88  124.89
  -6  -4  -2 1169.58  107.49
   6  -4   2  996.40  115.99
   6   4   2  949.60  124.19
  -6   4  -2 1147.59  129.29
  -6   4  -2 1009.70  111.19
   6   4   2 1064.79  116.79
  -6   4  -2 1140.49  123.79
   9  -5  -2   46.10   74.49
   9  -5  -2  164.08   61.49
  -9  -5   2  119.39   80.79
  -9   5   2   63.29   43.40
   9   5  -2   11.00   65.29
  -9   5   2   98.69   58.69
   9   5  -2  105.79   63.99
   7  -5  -2  624.14   93.89
  -7  -5   2  646.74   71.49
   7  -5  -2  626.24  121.39
  -7  -5   2  821.72  131.79
  -7   5   2  781.62   88.79
   7   5  -2  614.04  106.89
   5  -5  -2 1327.07  129.29
  -5  -5   2 1112.99  143.59
  -5  -5   2 1366.56   96.49
  -5  -5   2 1415.06   97.69
   5  -5  -2 1171.28  117.49
  -5   5   2 1410.56   92.39
   5   5  -2 1141.69  119.69
  -5   5   2 1327.47  120.09
   5   5  -2 1124.49  115.69
  -5   5   2 1276.77  115.49
  -3  -5   2  932.11  109.29
   3  -5  -2  880.41   81.89
  -3  -5   2 1070.99   71.39
  -3  -5   2  989.70   83.49
   3  -5  -2 1003.00   94.69
  -3  -5   2 1004.80   69.79
   3  -5  -2  943.51   65.39
   3  -5  -2  867.11   80.89
  -3  -5   2 1014.00   67.79
   3  -5  -2 1052.29   95.19
   3   5  -2  979.00   91.59
  -3   5   2 1064.09   97.99
   3   5  -2  871.01   72.49
   3   5  -2  981.10   68.09
  -3   5   2 1045.60   89.69
   3   5  -2  833.32   81.29
   3   5  -2  985.40   86.99
  -3   5   2  993.50   85.69
  -3   5   2 1070.29   73.29
  -3   5   2 1014.90  107.29
   1  -5  -2 1591.64  108.89
  -1  -5   2 1674.23   97.79
  -1  -5   2 1862.21   86.29
  -1  -5   2 1688.33  108.99
   1  -5  -2 1593.64  110.09
  -1  -5   2 1663.03   90.19
   1  -5  -2 1478.85   97.69
   1  -5  -2 1666.73   92.59
  -1   5   2 1669.43  132.29
  -1   5   2 1794.72   92.59
  -1   5   2 1669.63  109.39
  -1   5   2 1627.94  102.89
   1   5  -2 1515.05  112.89
   1   5  -2 1497.35  112.19
   1   5  -2 1649.54   94.49
  -1   5   2 1670.43  103.89
  -1   5   2 1723.73  115.89
   1   5  -2 1555.44   98.89
   1  -5   2 2154.78  142.59
  -1  -5  -2 2421.56  138.59
   1  -5   2 2035.50  156.18
  -1  -5  -2 2351.56  128.59
  -1  -5  -2 2237.78  137.29
   1  -5   2 2328.87  133.09
   1   5   2 2037.70  132.59
  -1   5  -2 2471.95  160.78
  -1   5  -2 2372.86  168.28
   1   5   2 1979.70  149.19
   1   5   2 2317.87  169.98
  -1   5  -2 2640.84  165.08
   1   5   2 2236.78  137.79
  -3  -5  -2 3723.23  209.78
  -3  -5  -2 3562.24  197.08
   3  -5   2 3704.53  224.48
  -3  -5  -2 3780.22  247.68
  -3  -5  -2 3475.75  210.28
   3  -5   2 3611.14  226.78
  -3   5  -2 3522.95  228.68
   3   5   2 3537.55  245.98
   3   5   2 3534.35  201.58
  -3   5  -2 3872.51  239.18
   3   5   2 3658.23  219.08
  -3   5  -2 3484.55  247.08
  -5  -5  -2  281.27   51.49
   5  -5   2  343.57   72.89
  -5  -5  -2  402.86   90.69
  -5  -5  -2  374.16   64.59
   5  -5   2  366.16   71.29
  -5   5  -2  254.77   69.89
   5   5   2  443.86   88.79
   5   5   2  456.45   80.89
  -5   5  -2  208.68   58.59
   7  -5   2  126.19   56.29
  -7  -5  -2   85.19   47.90
  -7  -5  -2   22.00   53.19
  -7  -5  -2   69.19   46.00
   7  -5   2   33.90   41.60
  -7   5  -2  203.48   58.29
   7   5   2  108.09   47.80
   7   5   2  121.79   57.89
  -7   5  -2  147.39   62.29
  -8  -6   2  -51.99   56.49
   8  -6  -2   23.70   41.80
  -8  -6   2    6.50   27.70
   8  -6  -2   24.30   33.30
  -8   6   2   84.99   41.70
  -8   6   2   82.69   36.60
   8   6  -2    2.50   42.60
  -8   6   2   47.40   39.00
   8   6  -2   77.59   49.30
  -6  -6   2 1253.57  158.88
   6  -6  -2 1209.48  129.09
   6  -6  -2 1413.66  128.79
   6  -6  -2 1249.07   73.39
  -6  -6   2 1223.18   93.99
  -6  -6   2 1282.67   94.79
  -6   6   2 1237.68  122.49
   6   6  -2 1105.99  119.39
  -6   6   2 1265.97  121.49
  -6   6   2 1161.48   92.19
   6   6  -2 1316.27  134.59
   4  -6  -2 1767.42  144.39
  -4  -6   2 1978.70  112.89
  -4  -6   2 1989.30  141.99
   4  -6  -2 1827.32  138.49
  -4  -6   2 2003.40  113.39
  -4  -6   2 2084.59  115.29
  -4  -6   2 1960.40  177.48
   4  -6  -2 1855.41  110.89
   4  -6  -2 1741.33  147.19
   4   6  -2 2014.50  123.39
   4   6  -2 1885.91  147.69
   4   6  -2 1531.65  131.69
  -4   6   2 1853.01  140.29
   4   6  -2 1738.53  134.89
  -4   6   2 2109.09  151.38
  -4   6   2 1892.01  160.88
  -4   6   2 1886.41  113.69
   2  -6  -2  647.04   64.09
   2  -6  -2  536.25   49.99
   2  -6  -2  542.85   52.99
   2  -6  -2  536.45   54.29
   2  -6  -2  600.14   69.79
   2   6  -2  732.03   63.89
   2   6  -2  609.94   49.20
   2   6  -2  610.34   43.50
   2   6  -2  533.65   53.19
   0  -6   2  656.03   69.59
   0  -6   2  742.53   78.99
   0  -6   2  773.32   45.10
   0  -6   2  703.83   59.59
   0   6   2  734.83   64.99
   0   6   2  778.12   65.29
   0   6   2  777.62   69.19
   0   6   2  710.93   56.69
  -2  -6  -2 1862.31  117.79
   2  -6   2 1739.33  130.19
  -2  -6  -2 1781.62  147.49
  -2  -6  -2 1803.72  110.59
   2  -6   2 1804.12  124.49
  -2   6  -2 1815.92  135.09
   2   6   2 1988.80  125.39
  -2   6  -2 1799.62  185.58
  -2   6  -2 1884.61  143.49
   2   6   2 1720.93  142.69
   2   6   2 1858.71  106.59
   2   6   2 1988.60  126.89
   4  -6   2  980.70  101.39
   4  -6   2  908.01   96.89
  -4  -6  -2  874.61  112.09
  -4  -6  -2  952.30   82.39
  -4  -6  -2  897.41   76.59
  -4  -6  -2  987.50   85.79
  -4   6  -2  885.11  102.39
   4   6   2 1079.69  101.69
   4   6   2 1059.29  116.29
  -4   6  -2  985.50  115.69
   4   6   2  894.81   85.19
  -6  -6  -2   40.80   32.10
  -6  -6  -2   37.90   43.90
   6  -6   2    3.90   30.80
   6  -6   2   13.40   39.20
  -6  -6  -2   28.80   33.10
  -6   6  -2   35.60   35.50
  -6   6  -2  -31.30   39.40
  -6   6  -2  -35.60   40.70
   6   6   2   39.30   33.80
   6   6   2  -32.50   37.40
   9  -7  -2   27.60   42.80
  -9  -7   2  -11.40   36.00
  -9   7   2   25.40   38.00
  -9   7   2  -25.60   41.10
   9   7  -2    7.10   51.79
  -7  -7   2   38.40   66.29
   7  -7  -2   -2.80   31.00
  -7  -7   2   27.10   27.60
  -7  -7   2   46.30   31.50
  -7   7   2   54.29   32.60
  -7   7   2   72.09   35.00
   7   7  -2   96.69   47.20
  -7   7   2   11.50   37.00
   7   7  -2   53.59   43.00
  -5  -7   2  259.37   35.60
  -5  -7   2  259.87   30.50
  -5  -7   2  279.67   35.10
   5  -7  -2  209.78   53.89
   5  -7  -2  298.37   68.59
  -5  -7   2  324.27   92.59
   5  -7  -2  235.68   34.90
   5   7  -2  209.28   56.69
  -5   7   2  322.57   67.09
  -5   7   2  316.77   65.49
   5   7  -2  227.38   59.89
  -3  -7   2 1280.87  138.99
   3  -7  -2 1342.07  112.09
  -3  -7   2 1511.15  105.99
   3  -7  -2 1474.55   95.89
   3  -7  -2 1375.06  118.49
  -3  -7   2 1406.36   99.19
   3  -7  -2 1203.98  100.59
  -3   7   2 1545.05  110.79
  -3   7   2 1541.45  116.59
   3   7  -2 1242.28   88.89
   3   7  -2 1252.37   88.09
   3   7  -2 1422.86  104.49
  -3   7   2 1295.97   99.39
  -3   7   2 1430.46  119.09
   3   7  -2 1330.67  107.79
  -3   7   2 1456.25  123.49
  -1  -7   2 2493.45  146.69
   1  -7  -2 2500.45  150.48
  -1  -7   2 2669.33  137.19
   1  -7  -2 2547.15  151.98
   1  -7  -2 2529.75  147.09
   1  -7  -2 2523.75  138.29
   1  -7  -2 2470.15  135.39
  -1  -7   2 2674.23  147.69
   1  -7  -2 2557.44  161.68
  -1   7   2 2632.24  160.08
  -1   7   2 2566.44  147.19
  -1   7   2 2503.75  180.58
  -1   7   2 2607.44  157.38
   1   7  -2 2465.65  156.08
  -1   7   2 2628.84  151.68
   1   7  -2 2542.35  143.59
   1   7  -2 2511.65  168.18
  -1   7   2 2614.34  138.29
  -1  -7  -2 2613.14  152.88
   1  -7   2 2755.82  164.18
   1  -7   2 2463.85  175.38
  -1  -7  -2 2537.05  159.78
   1  -7   2 2466.05  182.68
  -1  -7  -2 2848.31  185.58
   1   7   2 2607.44  151.08
   1   7   2 2738.13  170.68
  -1   7  -2 2902.41  190.58
   1   7   2 2581.94  160.18
   1   7   2 2577.94  160.28
  -1   7  -2 2649.83  186.88
   1   7   2 2741.53  195.18
  -1   7  -2 2780.22  169.78
   3  -7   2 1156.98  103.29
  -3  -7  -2 1191.98   88.69
   3  -7   2 1248.88  108.69
  -3  -7  -2 1214.68   82.49
  -3  -7  -2 1244.98  128.49
   3   7   2 1282.07  102.99
  -3   7  -2 1189.78  117.39
  -3   7  -2 1313.17  117.79
   3   7   2 1195.98   88.09
   3   7   2 1150.38  124.59
  -3   7  -2 1140.09  125.49
  -5  -7  -2  310.77   57.69
  -5  -7  -2  282.37   82.19
  -5  -7  -2  305.37   50.89
   5  -7   2  253.07   64.09
  -5  -7  -2  380.76   51.19
   5  -7   2  268.17   62.79
   5   7   2  364.46   83.99
   5   7   2  329.57   68.59
  -5   7  -2  248.78   77.79
  -5   7  -2  435.06   89.09
   7  -7   2  112.09   39.40
   7  -7   2  132.39   56.59
   7   7   2  169.58   66.59
  -7   7  -2  162.08   59.39
  -8  -8   2  784.22  159.38
   8  -8  -2  986.60  125.69
  -8  -8   2  841.52   75.39
   8  -8  -2  923.61  114.69
   8   8  -2  856.91  117.49
   8   8  -2  792.42  113.89
  -8   8   2  832.32  111.79
  -8   8   2  801.32  106.49
   6  -8  -2  924.31   71.59
  -6  -8   2 1035.00   71.69
  -6  -8   2 1015.40   72.69
  -6  -8   2 1033.30  143.69
   6  -8  -2  887.11  114.39
   6  -8  -2  900.71  104.99
  -6   8   2  896.11  105.69
   6   8  -2 1102.29  122.89
   6   8  -2  891.21  106.19
  -6   8   2  988.80  112.59
   4  -8  -2  200.88   50.39
   4  -8  -2  247.88   41.80
   4  -8  -2  203.28   56.89
   4  -8  -2  187.58   58.09
  -4   8   2   92.09   26.70
   4   8  -2  190.78   40.30
   4   8  -2  175.88   47.10
   4   8  -2  149.88   31.80
  -4   8   2   85.99   35.00
   4   8  -2  191.38   42.60
  -4   8   2   92.09   36.40
   2  -8  -2  353.96   46.50
   2  -8  -2  317.17   51.99
   2  -8  -2  340.27   42.20
   2  -8  -2  268.37   38.90
  -2  -8   2  223.98   63.59
   2  -8  -2  339.47   34.20
   2  -8  -2  338.47   64.49
   2  -8  -2  375.46   41.10
  -2  -8   2  292.27   38.80
  -2  -8   2  302.47   31.00
  -2  -8   2  307.87   34.60
   2   8  -2  295.77   53.99
  -2   8   2  238.38   42.00
  -2   8   2  249.88   46.40
   2   8  -2  275.87   38.20
   2   8  -2  281.17   31.40
  -2   8   2  239.38   44.30
  -2   8   2  193.28   54.49
   2   8  -2  364.16   34.80
  -2   8   2  301.77   56.49
   2   8  -2  356.86   42.90
   0  -8   2  162.48   33.10
   0  -8   2  237.08   46.30
   0  -8  -2  352.26   45.60
   0  -8   2  155.98   45.70
   0  -8  -2  312.37   47.60
   0   8  -2  289.47   54.49
   0   8  -2  343.37   44.70
   0   8   2  244.38   44.90
   0   8   2  252.47   31.50
   0   8  -2  265.47   57.99
   0   8   2  232.28   22.70
   0   8   2  276.57   38.40
   0   8   2  213.88   40.00
   2  -8   2  700.83   66.39
  -2  -8  -2  957.30  100.49
   2  -8   2  687.73   85.29
  -2  -8  -2  817.12   71.79
   2   8   2  597.64   86.09
   2   8   2  609.44   50.39
  -2   8  -2  864.31   95.89
   2   8   2  722.43   64.39
  -2   8  -2  839.52   98.39
   2   8   2  562.84   81.09
  -4  -8  -2  830.12   67.99
  -4  -8  -2  676.33   63.19
  -4  -8  -2  794.92  108.19
   4  -8   2  783.52   89.49
   4  -8   2  651.43   82.79
   4   8   2  877.81   90.09
  -4   8  -2  601.24  101.19
  -4   8  -2  799.12  106.39
   4   8   2  860.61  108.59
   4   8   2  956.50   96.79
  -6  -8  -2  742.13   75.09
   6  -8   2  623.54  104.79
   6  -8   2  648.34   92.09
  -6  -8  -2  413.96  108.89
   6   8   2  822.82  113.79
  -6   8  -2  672.83   97.69
  -6   8  -2  567.14   93.59
   6   8   2  633.54   90.09
  -6   8  -2  605.84  105.79
   7  -9  -2   58.19   55.59
  -7  -9   2   30.50   55.09
   7  -9  -2  -19.20   17.80
   7  -9  -2   38.80   33.00
   7   9  -2   19.80   37.70
   7   9  -2   68.79   48.30
  -7   9   2   43.00   33.70
  -7   9   2  -21.00   31.30
   5  -9  -2  489.95   70.09
   5  -9  -2  474.95   89.09
  -5  -9   2  389.06   44.50
   5  -9  -2  420.66   51.59
  -5  -9   2  511.15  121.99
  -5   9   2  399.56   74.99
   5   9  -2  510.25   78.49
  -5   9   2  327.47   71.29
   5   9  -2  476.25   79.79
   3  -9  -2 1061.59   85.79
  -3  -9   2  927.41   85.59
  -3  -9   2  991.20   85.09
   3  -9  -2  903.71   97.79
   3  -9  -2 1067.09   92.19
  -3  -9   2  980.60  126.69
   3  -9  -2 1105.69   97.09
   3  -9  -2  919.91   85.29
   3   9  -2 1017.60   72.99
  -3   9   2 1061.59  102.79
   3   9  -2  952.80   81.19
  -3   9   2  981.70   91.49
   3   9  -2  941.21   73.49
   3   9  -2 1028.60   90.19
  -3   9   2 1153.78  110.09
  -3   9   2 1113.79   99.09
   1  -9  -2  451.85   44.60
   1  -9  -2  418.26   57.09
   1  -9  -2  509.25   55.39
   1  -9  -2  570.14   56.89
  -1  -9   2  466.85   44.10
  -1  -9   2  462.75   51.79
   1   9  -2  434.56   63.59
  -1   9   2  454.95   51.89
  -1   9   2  418.56   45.00
  -1   9   2  411.66   53.49
   1   9  -2  466.45   52.89
  -1   9   2  417.56   51.59
   1   9  -2  433.86   43.90
  -1   9   2  422.26   46.20
   1  -9   2 2170.88  116.29
   1  -9   2 2171.28  150.58
  -1  -9  -2 2045.10  159.38
   1  -9   2 2020.10  133.69
  -1  -9  -2 2012.50  140.19
   1   9   2 2028.10  166.38
   1   9   2 2042.90  123.19
   1   9   2 2186.48  138.89
  -1   9  -2 1792.82  169.58
  -1   9  -2 2083.19  159.48
  -1   9  -2 2081.29  143.89
   3  -9   2   27.90   25.00
   3  -9   2   19.80   24.20
   3   9   2    8.30   19.90
  -3   9  -2   62.19   37.40
   3   9   2  -22.70   20.00
  -3   9  -2   79.59   38.40
   3   9   2   70.69   38.50
  -3   9  -2   48.60   36.50
   5  -9   2  840.92   97.19
   5  -9   2  813.12   95.79
  -5  -9  -2  761.42  114.79
   5   9   2  714.63   91.89
  -5   9  -2  794.42  103.99
   5   9   2  670.33  105.29
  -5   9  -2  726.83  108.29
   8 -10  -2  -24.50   42.30
   8 -10  -2  -27.10   38.60
  -8 -10   2  -94.79   56.19
   8 -10  -2   49.50   33.80
   8  10  -2  -12.30   46.50
   8  10  -2   79.29   48.90
  -8  10   2   76.19   41.90
  -8  10   2    7.70   32.70
   6 -10  -2   95.59   45.50
  -6 -10   2   16.60   56.69
   6 -10  -2   75.19   41.00
   6 -10  -2   91.99   28.30
   6  10  -2   92.29   46.10
  -6  10   2   77.19   40.00
   6  10  -2  122.19   46.50
  -6  10   2   71.99   37.80
   4 -10  -2  663.73   66.29
   4 -10  -2  628.24   88.99
   4 -10  -2  674.83   87.99
  -4 -10   2  454.75   60.79
  -4 -10   2  617.74   74.79
  -4 -10   2  479.95  109.19
  -4  10   2  541.25   76.49
   4  10  -2  583.24   77.19
  -4  10   2  629.84   78.19
   4  10  -2  611.84   61.19
  -4  10   2  460.15   61.19
   4  10  -2  629.44   65.89
  -2 -10   2 4293.17  237.28
   2 -10  -2 3943.71  222.08
  -2 -10   2 4164.68  218.28
   2 -10  -2 4365.56  240.18
   2 -10  -2 4053.89  217.88
   2 -10  -2 4111.89  226.38
   2 -10  -2 4019.20  228.08
   2 -10  -2 4156.18  244.08
  -2 -10   2 4074.89  213.98
   2  10  -2 4323.57  222.08
  -2  10   2 4111.89  234.38
  -2  10   2 4214.88  238.38
  -2  10   2 3838.62  257.47
   2  10  -2 4102.89  220.68
   2  10  -2 4295.47  222.68
   2  10  -2 4109.79  245.98
  -2  10   2 4114.59  239.78
   2  10  -2 4292.87  212.28
  -2  10   2 3797.12  233.08
   0 -10   2 1889.81  118.79
   0 -10   2 2043.00  132.19
   0 -10   2 1985.00  114.39
   0 -10   2 1994.30  125.89
   0 -10  -2 1663.23  135.39
   0 -10  -2 1691.43  131.49
   0 -10  -2 1829.52  131.09
   0  10  -2 1750.32  135.79
   0  10  -2 1797.02  125.09
   0  10   2 2116.79  108.59
   0  10   2 1989.20  121.59
   0  10  -2 1728.73  148.29
   0  10   2 1835.02  111.79
   0  10   2 1616.44  153.38
   2 -10   2  174.68   42.70
  -2 -10  -2  187.78   60.59
   2 -10   2  268.77   39.20
  -2 -10  -2  204.88   43.10
   2  10   2  123.49   51.49
  -2  10  -2  146.59   37.70
  -2  10  -2  254.07   65.39
   2  10   2  193.68   36.80
   2  10   2  185.68   24.40
  -2  10  -2  190.68   52.99
   2  10   2  155.28   24.00
  -4 -10  -2   48.70   44.30
   4 -10   2  142.79   45.70
   4 -10   2   60.99   39.50
  -4  10  -2   77.49   45.00
   4  10   2   89.39   33.80
   4  10   2   91.89   47.50
  -4  10  -2   52.09   44.10
   4  10   2  128.99   39.70
   6 -10   2   24.10   48.40
  -6 -10  -2  157.58   61.69
   6 -10   2   38.30   37.30
   6 -10   2   83.29   34.90
  -6  10  -2    4.70   45.70
  -6  10  -2   78.29   50.49
   6  10   2   32.30   43.40
   6  10   2   74.39   52.69
   7 -11  -2  191.38   37.70
  -7 -11   2  153.48   66.89
   7 -11  -2  256.77   59.89
   7 -11  -2  181.28   66.09
   7  11  -2  190.68   62.09
  -7  11   2   93.49   45.50
  -7  11   2  168.98   53.49
   7  11  -2  256.97   78.59
   5 -11  -2  499.55   73.79
  -5 -11   2  312.87   87.89
   5 -11  -2  437.76   86.79
  -5 -11   2  536.45   57.49
   5 -11  -2  413.36   55.89
  -5  11   2  497.05   89.89
  -5  11   2  481.45   87.29
   5  11  -2  446.06   67.89
   5  11  -2  420.16   85.59
   3 -11  -2  217.68   47.90
  -3 -11   2  314.77   51.19
   3 -11  -2  307.57   55.89
   3 -11  -2  277.07   53.89
  -3 -11   2  318.07   39.20
   3 -11  -2  247.28   61.99
  -3 -11   2  337.47   91.19
  -3 -11   2  354.56   61.69
   3 -11  -2  230.08   44.20
  -3  11   2  263.07   56.29
  -3  11   2  398.06   66.89
  -3  11   2  432.56   59.69
   3  11  -2  258.87   43.90
   3  11  -2  242.78   37.60
  -3  11   2  149.59   53.49
   3  11  -2  414.46   54.19
   3  11  -2  201.28   37.30
  -1 -11   2  327.87   41.40
   1 -11  -2  415.86   54.69
   1 -11  -2  387.66   48.60
  -1 -11   2  259.27   50.39
   1 -11  -2  451.45   57.59
   1 -11  -2  462.15   60.49
  -1  11   2  365.76   44.70
   1  11  -2  468.15   66.99
   1  11  -2  358.86   42.40
  -1  11   2  276.07   65.29
  -1  11   2  313.27   43.70
   1  11  -2  467.65   51.49
  -1  11   2  236.98   47.60
   1 -11   2  718.23   68.19
   1 -11   2  571.54   75.09
  -1 -11  -2  975.60   99.69
   1 -11   2  782.42   75.09
  -1 -11  -2  847.92   81.79
   1  11   2  685.83   57.09
  -1  11  -2  585.64   85.69
  -1  11  -2  764.22   86.09
   1  11   2  729.73   53.19
   1  11   2  715.83   94.69
   3 -11   2  382.86   64.39
   3 -11   2  414.16   66.89
   3 -11   2  456.45   64.89
  -3 -11  -2  348.97   88.79
   3  11   2  457.15   94.99
  -3  11  -2  339.87   67.49
   3  11   2  304.97   46.30
  -3  11  -2  410.16   82.99
   3  11   2  471.25   56.89
  -3  11  -2  307.57   73.29
   5 -11   2  -14.10   39.70
   5 -11   2    5.70   31.80
   5 -11   2   32.60   30.00
  -5  11  -2    7.50   43.70
   5  11   2   -7.00   42.40
  -5  11  -2   50.59   40.20
   5  11   2   10.50   34.00
   8 -12  -2   21.10   38.30
  -8 -12   2   -8.40   63.49
   8 -12  -2   48.20   38.90
   8 -12  -2  100.99   57.19
  -8  12   2   62.99   43.40
   8  12  -2   95.49   55.79
   8  12  -2  -81.59   43.70
  -8  12   2   35.80   45.60
   6 -12  -2  436.66   89.19
  -6 -12   2  369.16  100.29
   6 -12  -2  564.84   78.29
   6  12  -2  521.45   77.19
  -6  12   2  512.95  124.99
   6  12  -2  476.25   93.99
   4 -12  -2 1654.13  135.79
  -4 -12   2 1723.63  129.19
   4 -12  -2 1786.42  153.88
  -4 -12   2 1958.70  192.58
   4 -12  -2 1607.14  141.09
   4  12  -2 1751.32  147.89
  -4  12   2 1770.62  152.68
  -4  12   2 1801.82  147.69
   4  12  -2 1812.62  124.59
   4  12  -2 1739.83  115.39
   2 -12  -2  804.72   95.89
  -2 -12   2  812.82   71.29
  -2 -12   2  794.62  114.99
   2 -12  -2  954.30   93.39
   2 -12  -2  853.21   81.19
   2 -12  -2  747.23   82.99
  -2  12   2  840.62   99.69
  -2  12   2  834.32   83.29
   2  12  -2  824.72   69.29
   2  12  -2  826.62   95.59
   2  12  -2  799.32   61.89
  -2  12   2  959.10   86.59
  -2  12   2  921.91   85.79
   2  12  -2  983.70   72.99
   2  12  -2  751.82  109.39
   0 -12   2  470.35   52.29
   0 -12  -2  493.35   65.09
   0 -12   2  516.65   63.49
   0 -12  -2  467.75   68.49
   0 -12  -2  598.64   67.29
   0 -12   2  550.44   58.99
   0  12  -2  613.14   63.39
   0  12  -2  607.74   70.39
   0  12  -2  655.03   82.99
   0  12   2  577.54   51.29
   0  12   2  460.25   54.79
   0  12   2  478.15   49.80
   2 -12   2 1843.22  128.99
   2 -12   2 1789.92  129.29
  -2 -12  -2 1546.65  148.99
   2 -12   2 1659.63  108.09
  -2 -12  -2 1628.24  128.59
   2  12   2 1590.34  125.19
   2  12   2 1724.93   96.89
  -2  12  -2 1533.15  109.79
   2  12   2 1513.35  149.69
   2  12   2 1696.53  109.89
  -2  12  -2 1444.56  142.09
  -2  12  -2 1581.94  146.79
   4 -12   2  900.61   86.19
   4 -12   2  771.72   90.99
   4 -12   2  674.63   85.89
  -4 -12  -2  825.42  116.49
   4  12   2  820.32   84.29
  -4  12  -2  793.72  129.59
   4  12   2  630.54  119.09
  -4  12  -2  725.23  104.09
  -6 -12  -2  114.29   60.49
   6 -12   2  115.19   51.79
   6 -12   2   62.29   52.19
   6 -12   2  141.89   46.60
   6  12   2  126.39   47.90
  -6  12  -2  136.59   60.99
   7 -13  -2  572.34  105.79
   7 -13  -2  510.55   91.39
  -7 -13   2  356.46   98.09
   7 -13  -2  410.46   60.59
   7  13  -2  544.35  116.09
   7  13  -2  384.76   79.39
  -7  13   2  328.57   78.89
  -7  13   2  464.25   90.19
   5 -13  -2   91.89   45.30
  -5 -13   2  101.49   61.09
  -5 -13   2    2.50   26.40
   5 -13  -2   79.29   39.20
   5 -13  -2   31.30   30.50
   5  13  -2  103.89   40.30
   5  13  -2   37.20   38.50
  -5  13   2   87.09   42.70
   5  13  -2  225.48   63.29
  -5  13   2   60.99   37.90
   3 -13  -2  836.92   83.79
   3 -13  -2  817.82   77.09
   3 -13  -2  661.53   78.89
  -3 -13   2  880.71  129.79
   3 -13  -2  941.51   78.29
  -3 -13   2  741.03   83.19
  -3 -13   2  832.72   74.39
   3  13  -2  889.51   64.19
   3  13  -2  771.52   87.79
   3  13  -2  749.33   84.09
  -3  13   2  720.83   87.59
  -3  13   2  833.62   91.69
   3  13  -2  939.41   72.69
   1 -13  -2   40.90   32.40
   1 -13  -2   51.19   32.20
  -1 -13   2   46.20   28.70
   1 -13  -2   60.09   28.80
  -1 -13   2   78.49   26.60
   1 -13  -2   76.99   30.80
   1  13  -2   76.99   27.10
  -1  13   2   78.09   29.80
   1  13  -2   51.39   34.50
   1  13  -2   89.89   31.90
  -1  13   2   93.29   31.10
  -1  13   2   92.19   27.70
  -1 -13  -2  272.47   57.09
   1 -13   2  230.08   48.40
   1 -13   2  263.47   45.40
   1 -13   2  226.18   45.60
   1 -13   2  182.68   37.80
  -1 -13  -2  292.67   71.39
  -1  13  -2  292.97   63.49
  -1  13  -2  178.08   56.49
   1  13   2  254.97   33.50
   1  13   2  209.38   37.60
   1  13   2  169.48   31.60
   1  13   2  195.28   60.09
   3 -13   2   89.39   36.00
  -3 -13  -2   64.39   49.60
   3 -13   2   38.30   27.60
   3 -13   2   13.80   28.60
   3  13   2   56.59   26.40
   3  13   2   97.19   40.00
  -3  13  -2   28.70   32.60
   3  13   2   27.80   26.10
  -3  13  -2   68.99   49.00
  -3  13  -2  161.28   54.79
   3  13   2    0.10   20.80
   5 -13   2  260.57   62.99
   5 -13   2  276.27   67.59
   5  13   2  268.47   75.09
   5  13   2  361.76   68.39
  -5  13  -2  239.38   73.29
  -5  13  -2  323.17   74.79
   8 -14  -2  279.87   67.59
  -8 -14   2  198.88   97.99
   8 -14  -2  370.26   89.69
   8  14  -2  399.76   83.69
   8  14  -2  319.37   95.99
  -8  14   2  310.07   74.69
  -8  14   2  300.17   76.39
  -6 -14   2  241.58   87.49
  -6 -14   2  265.67   47.40
   6 -14  -2  234.68   61.99
   6 -14  -2  230.78   59.09
   6 -14  -2  216.38   49.50
  -6  14   2  308.47   70.29
   6  14  -2  246.08   78.49
  -6  14   2  242.78   65.59
   6  14  -2  296.67   60.59
   4 -14  -2  188.18   47.80
   4 -14  -2  324.07   71.69
   4 -14  -2  223.68   52.89
   4 -14  -2  313.57   59.89
  -4 -14   2  374.26   65.19
  -4 -14   2  338.87   90.29
  -4  14   2  309.87   68.79
   4  14  -2  213.38   41.30
  -4  14   2  483.45   81.69
   4  14  -2  274.87   42.30
   2 -14  -2 1737.03  140.09
  -2 -14   2 1752.72  121.29
   2 -14  -2 1332.87  125.59
   2 -14  -2 1842.92  128.69
  -2 -14   2 1657.43  134.59
   2 -14  -2 1659.03  128.49
  -2  14   2 1528.05  124.39
   2  14  -2 1582.84  111.99
  -2  14   2 1910.51  138.49
   2  14  -2 1670.33  142.29
   2  14  -2 1701.63  111.09
   2  14  -2 1623.94  116.89
  -2  14   2 1725.63  128.49
   2  14  -2 1727.83  102.59
   0 -14   2 3312.77  195.28
   0 -14   2 2995.80  202.28
   0 -14  -2 3399.46  212.78
   0 -14  -2 3137.59  218.48
   0 -14  -2 2793.82  202.98
   0  14  -2 3379.36  227.48
   0  14  -2 3601.54  208.38
   0  14   2 3201.18  179.88
   0  14  -2 2906.81  190.18
   0  14   2 3294.97  177.68
   0  14   2 2982.80  181.48
   2 -14   2  852.41   84.49
  -2 -14  -2 1009.70  119.99
  -2 -14  -2  790.32   87.79
   2 -14   2  838.52   88.19
   2 -14   2  905.01   65.19
   2  14   2  843.92   63.69
  -2  14  -2  827.52   68.99
  -2  14  -2  961.40  109.69
   2  14   2  838.72   66.49
   2  14   2 1008.50  115.29
   2  14   2  934.91   72.89
  -2  14  -2  821.02  103.39
   4 -14   2  325.67   61.59
   4 -14   2  349.67   68.29
  -4 -14  -2  273.07   83.19
   4  14   2  510.95   52.59
  -4  14  -2  407.66   92.89
   4  14   2  460.05   63.19
   4  14   2  348.77   52.59
   4  14   2  316.57   81.79
  -4  14  -2  346.87   82.09
   6 -14   2  351.96   83.19
   6 -14   2  335.47   63.39
  -6  14  -2  347.27   85.79
  -6  14  -2  183.08   66.29
   6  14   2  402.66   93.89
   6  14   2  374.16   65.99
   7 -15  -2  125.49   48.60
   7 -15  -2  100.09   57.19
   7 -15  -2  151.78   43.00
  -7 -15   2   39.40   64.09
  -7  15   2  115.89   51.99
   7  15  -2   80.29   60.79
  -7  15   2   98.69   51.39
   7  15  -2  187.18   55.59
   5 -15  -2  148.49   45.50
  -5 -15   2  134.49   72.29
   5 -15  -2   59.69   46.70
  -5 -15   2   69.89   35.10
   5 -15  -2  111.59   39.00
   5  15  -2  128.19   56.19
   5  15  -2  127.59   39.40
  -5  15   2   68.99   39.90
   5  15  -2  104.49   40.80
  -5  15   2  125.09   49.20
   3 -15  -2 1126.59  109.59
   3 -15  -2 1296.07  113.79
  -3 -15   2 1131.49  164.78
  -3 -15   2 1184.68  107.49
  -3 -15   2 1367.56  103.09
   3 -15  -2 1197.08   92.19
   3  15  -2 1184.78  106.49
  -3  15   2  948.71  108.19
   3  15  -2 1311.97  118.19
  -3  15   2 1243.98  120.19
  -1 -15   2  548.55   61.69
  -1 -15   2  459.15   67.49
   1 -15  -2  438.16   72.19
   1 -15  -2  492.55   67.19
   1 -15  -2  475.65   68.09
   1 -15  -2  460.25   73.69
   1  15  -2  414.46   79.29
  -1  15   2  525.05   57.39
  -1  15   2  489.65   61.29
  -1  15   2  376.96   62.79
   1  15  -2  438.96   55.79
  -1 -15  -2  340.97   66.49
  -1 -15  -2  328.27   63.89
   1 -15   2  308.27   55.49
   1 -15   2  426.46   56.99
  -1 -15  -2  298.47   77.29
   1 -15   2  399.06   48.00
   1 -15   2  374.06   67.49
  -1  15  -2  226.88   60.49
   1  15   2  469.35   87.29
   1  15   2  435.26   43.10
  -1  15  -2  256.57   63.29
   1  15   2  384.96   51.49
   1  15   2  371.96   44.30
   3 -15   2   54.49   28.40
   3 -15   2   33.00   28.60
   3 -15   2   19.60   28.40
  -3 -15  -2   47.20   42.90
   3  15   2   63.99   40.10
   3  15   2   62.79   27.50
  -3  15  -2   45.40   37.40
   3  15   2   46.10   27.00
  -3  15  -2   37.00   34.30
   3  15   2   53.79   23.40
  -3  15  -2   71.59   37.30
  -5 -15  -2  -13.20   50.99
   5 -15   2   56.79   39.80
   5 -15   2   33.00   43.70
   5 -15   2   47.00   39.20
  -5  15  -2   -4.90   44.00
   5  15   2   60.29   49.80
   5  15   2   47.80   35.00
   5  15   2   30.50   37.60
  -5  15  -2   71.39   52.69
   6 -16  -2  196.78   53.29
   6 -16  -2  163.58   59.09
   6 -16  -2  206.38   50.99
  -6 -16   2  176.48   78.19
  -6 -16   2  128.89   41.00
   6  16  -2  216.28   77.39
  -6  16   2  174.98   65.89
   6  16  -2  182.58   52.89
  -6  16   2  200.88   65.39
  -4 -16   2  639.24   77.79
   4 -16  -2  628.64  103.19
   4 -16  -2  534.35  100.89
   4 -16  -2  526.25   72.09
   4 -16  -2  654.93   78.09
   4 -16  -2  484.15   78.89
  -4 -16   2  756.02  118.79
   4  16  -2  595.44   79.89
   4  16  -2  556.04   85.39
  -4  16   2  455.45   86.59
  -4  16   2  634.64   90.39
   2 -16  -2  358.36   65.59
   2 -16  -2  375.96   69.49
   2 -16  -2  316.67   58.89
  -2 -16   2  325.47   56.89
  -2 -16   2  334.97   64.89
   2  16  -2  384.66   76.29
  -2  16   2  376.06   65.09
   2  16  -2  297.07   49.10
   2  16  -2  362.66   47.50
  -2  16   2  363.96   83.19
   0 -16   2  393.76   62.39
   0 -16  -2  343.67   65.39
   0 -16  -2  446.46   89.39
   0 -16  -2  332.07   59.79
   0 -16   2  303.77   64.99
   0  16   2  385.76   52.59
   0  16  -2  328.47   68.79
   0  16  -2  451.35   65.79
   0  16   2  378.36   49.00
   2 -16   2  491.75   69.79
  -2 -16  -2  530.35   70.59
   2 -16   2  523.65   79.49
   2 -16   2  709.93   73.49
  -2 -16  -2  496.35  101.49
  -2  16  -2  518.85   90.29
   2  16   2  557.84   56.39
   2  16   2  653.93  109.19
  -2  16  -2  567.94  104.59
   2  16   2  511.85   53.99
   4 -16   2  331.67   73.79
  -4 -16  -2  161.68   65.39
   4 -16   2  261.67   57.39
   4 -16   2  321.07   61.89
  -4  16  -2  316.77   74.09
   4  16   2  248.28   78.19
  -4  16  -2  234.18   68.29
   4  16   2  219.28   50.89
   4  16   2  322.47   47.00
   7 -17  -2  107.69   46.40
  -7 -17   2   70.29   67.29
   7 -17  -2   78.09   57.49
   7 -17  -2   28.00   37.40
  -7  17   2   -5.90   46.20
  -7  17   2   23.70   54.79
   7  17  -2   -0.10   44.30
   7  17  -2  -38.60   56.79
  -5 -17   2  382.66   96.09
   5 -17  -2  415.16   84.59
  -5 -17   2  333.97   60.19
   5 -17  -2  443.56   64.29
   5 -17  -2  522.35   75.59
   5  17  -2  357.96   86.49
   5  17  -2  425.06   63.59
  -5  17   2  407.66   85.99
   5  17  -2  339.07   63.09
   5  17  -2  479.15   81.99
  -5  17   2  420.56   89.39
  -3 -17   2  584.64   66.69
  -3 -17   2  354.36   97.69
   3 -17  -2  534.95   74.79
   3 -17  -2  394.86   72.89
  -3 -17   2  472.95   68.29
   3  17  -2  409.56   69.59
  -3  17   2  529.15   90.19
   3  17  -2  413.66   77.29
  -3  17   2  651.13   82.29
   1 -17  -2  276.47   65.69
   1 -17  -2  190.18   48.70
  -1 -17   2  178.18   46.50
   1 -17  -2  228.38   51.79
   1 -17  -2  192.98   48.00
  -1 -17   2  209.68   54.29
   1  17  -2  237.08   42.70
   1  17  -2  156.18   49.99
  -1  17   2  224.78   43.80
  -1  17   2  283.87   46.80
  -1  17   2  210.28   48.40
   1 -17   2  486.35   71.49
  -1 -17  -2  535.25  104.49
   1 -17   2  481.35   65.89
  -1 -17  -2  459.65   77.09
  -1 -17  -2  561.74   77.19
   1  17   2  623.44   58.79
  -1  17  -2  473.05   85.69
  -1  17  -2  619.84   80.79
   1  17   2  424.36   83.59
   3 -17   2  319.07   66.19
   3 -17   2  324.07   48.90
  -3 -17  -2  227.68   77.99
   3 -17   2  249.97   54.39
  -3 -17  -2  236.68   53.89
  -3  17  -2  230.48   46.90
  -3  17  -2  171.28   58.39
   3  17   2  221.48   62.29
   3  17   2  205.78   42.20
   3  17   2  262.77   47.90
   3  17   2  240.98   38.30
  -5 -17  -2  -19.10   57.79
   5 -17   2   67.39   52.29
   5 -17   2   54.99   42.70
   5 -17   2   15.80   44.30
   5  17   2  -21.40   55.09
   5  17   2   83.99   41.80
  -5  17  -2  -65.09   49.20
  -5  17  -2   20.40   51.99
   6 -18  -2   59.99   37.70
  -6 -18   2   15.70   35.70
  -6 -18   2    4.00   57.89
   6 -18  -2   27.10   43.20
   6  18  -2   59.39   50.19
   6  18  -2   44.10   42.00
  -6  18   2  -30.80   39.10
   6  18  -2  -20.80   45.20
  -6  18   2   10.40   49.99
   4 -18  -2  557.74   89.29
   4 -18  -2  455.05   75.79
  -4 -18   2  498.95   68.39
   4 -18  -2  360.16   56.59
  -4 -18   2  392.46  105.59
   4 -18  -2  414.86   61.09
   4  18  -2  343.37   74.89
  -4  18   2  365.96   77.29
   4  18  -2  412.46   77.99
  -4  18   2  360.96   84.89
   2 -18  -2  465.05   67.69
   2 -18  -2  329.87   69.09
   2 -18  -2  427.86   74.59
  -2 -18   2  472.65   63.59
  -2 -18   2  450.15   77.29
   2  18  -2  311.17   51.39
  -2  18   2  452.35   78.49
   2  18  -2  373.36   74.69
  -2  18   2  365.36   66.49
   0 -18  -2   75.59   36.30
   0 -18   2  124.79   36.20
   0 -18  -2   12.10   49.40
   0 -18   2   52.89   40.60
   0 -18  -2   94.79   39.60
   0  18  -2   90.09   39.20
   0  18   2  120.59   39.50
   0  18  -2  140.99   47.90
  -2 -18  -2   40.80   30.80
   2 -18   2   45.30   33.40
   2 -18   2   15.50   27.00
   2 -18   2   -1.80   27.90
  -2 -18  -2   69.99   53.89
   2  18   2    6.70   24.60
   2  18   2    8.70   37.10
   2  18   2   21.70   29.60
  -2  18  -2   -1.60   36.40
  -2  18  -2   82.39   44.90
   4 -18   2  140.59   48.10
   4 -18   2   57.89   50.39
  -4 -18  -2   96.59   69.59
   4  18   2   37.70   37.90
  -4  18  -2  201.28   60.59
  -4  18  -2   97.79   55.29
   4  18   2  113.09   36.80
   4  18   2  -16.10   48.30
  -5 -19   2   73.19   36.40
   5 -19  -2   64.79   42.80
   5 -19  -2  -31.70   27.70
   5 -19  -2  -81.19   42.10
   5 -19  -2   22.50   41.70
  -5 -19   2   36.40   56.39
   5  19  -2   40.70   48.00
  -5  19   2   98.29   49.10
  -5  19   2   25.40   45.70
  -3 -19   2  138.09   40.30
  -3 -19   2  235.48   55.19
   3 -19  -2   77.19   41.60
   3 -19  -2  143.59   47.20
  -3 -19   2  171.18   71.09
   3  19  -2  158.58   47.00
  -3  19   2  215.98   65.09
  -3  19   2  165.78   50.29
   3  19  -2   97.99   43.40
   1 -19  -2  240.88   57.09
  -1 -19   2  283.87   66.39
   1 -19  -2  270.17   65.99
   1 -19  -2  238.68   66.49
  -1 -19   2  236.78   50.09
   1  19  -2  200.68   43.20
  -1  19   2  218.78   46.70
  -1  19   2  141.39   42.90
  -1  19   2  366.96   62.99
   1  19  -2  313.67   64.49
   1  19  -2  209.08   44.10
   1 -19   2  639.44   75.79
   1 -19   2  574.94   83.29
  -1 -19  -2  628.64   85.99
  -1 -19  -2  552.24   82.09
  -1 -19  -2  629.24  121.29
  -1  19  -2  673.33   92.79
   1  19   2  603.34   66.79
  -1  19  -2  715.63   90.99
   1  19   2  607.94   92.89
   3 -19   2    6.40   33.50
  -3 -19  -2    3.20   54.49
  -3 -19  -2   64.49   35.00
   3 -19   2   15.90   37.90
   3 -19   2  -14.50   35.00
   3  19   2   91.19   55.89
  -3  19  -2   46.50   44.80
  -3  19  -2  -25.90   40.50
   3  19   2   28.10   27.10
  -6 -20   2    0.40   44.00
   6 -20  -2  -22.10   38.30
   6 -20  -2   15.60   47.10
   6 -20  -2  204.18   82.09
  -6 -20   2  101.19   62.99
   6 -20  -2   74.89   57.09
  -6  20   2   -7.30   58.79
  -6  20   2  101.59   54.19
   6  20  -2   39.60   51.59
   6  20  -2  124.29   63.69
   4 -20  -2   47.60   40.30
  -4 -20   2  143.79   45.40
   4 -20  -2   93.69   42.30
  -4 -20   2   60.59   54.39
  -4  20   2   28.50   48.20
   4  20  -2   85.49   52.89
  -4  20   2   76.69   48.80
   4  20  -2  169.08   55.19
   2 -20  -2   39.80   34.40
  -2 -20   2   56.99   29.40
   2 -20  -2   56.89   39.80
  -2 -20   2   -7.70   31.00
   2 -20  -2   33.60   40.80
  -2  20   2  132.29   54.19
   2  20  -2   28.60   29.60
   2  20  -2  109.19   32.50
   2  20  -2   32.90   35.50
   0 -20  -2  387.96   71.69
   0 -20  -2  361.46   83.09
   0 -20   2  232.18   52.19
   0 -20   2  187.18   57.89
   0 -20  -2  301.27   63.29
   0  20  -2  361.76   74.89
   0  20  -2  282.17   68.19
   0  20   2  309.17   55.59
   2 -20   2  197.08   52.59
  -2 -20  -2  280.17   87.99
  -2 -20  -2  195.78   53.59
   2 -20   2  260.47   62.19
   2  20   2  190.08   63.29
  -2  20  -2  228.38   62.99
  -2  20  -2  268.37   66.49
  -4 -20  -2  -53.19   67.89
   4 -20   2  109.79   50.29
   4 -20   2   55.79   45.00
   4  20   2   57.69   64.79
   4  20   2   67.09   55.39
  -4  20  -2   -0.10   52.09
  -4  20  -2   33.60   51.99
   5 -21  -2  108.69   46.40
  -5 -21   2  186.18   49.20
  -5 -21   2   73.29   60.19
   5 -21  -2   82.59   49.80
   5  21  -2   65.09   48.40
  -5  21   2    7.90   46.80
   5  21  -2  176.48   64.89
  -5  21   2  162.98   64.19
   3 -21  -2  151.38   48.20
   3 -21  -2  134.49   47.60
  -3 -21   2  110.49   41.50
  -3 -21   2  146.29   45.60
   3  21  -2  220.38   49.80
   3  21  -2  190.78   99.39
  -3  21   2  135.09   57.39
  -3  21   2  228.98   57.79
   1 -21  -2  104.99   49.60
  -1 -21   2   -0.80   32.10
  -1 -21   2   -8.10   25.90
   1 -21  -2   44.70   32.40
   1 -21  -2   56.19   28.00
   1  21  -2   56.89   40.50
  -1  21   2   40.80   42.80
   1  21  -2   16.70   30.40
  -1  21   2    2.70   31.10
   1 -21   2   10.60   34.50
   1 -21   2   27.70   36.80
  -1 -21  -2   19.00   35.90
  -1 -21  -2   -0.40   49.90
  -1 -21  -2   74.19   45.50
  -1  21  -2   22.70   38.30
   1  21   2   55.09   33.20
   1  21   2   45.50   44.20
  -1  21  -2   80.39   44.10
  -3 -21  -2   81.09   40.00
   3 -21   2  117.29   53.89
   3 -21   2  160.08   51.89
  -3 -21  -2   46.70   70.29
  -3  21  -2   60.59   48.60
   3  21   2  110.99   54.49
  -3  21  -2   51.39   48.00
  -4 -22   2   76.59   35.30
   4 -22  -2   96.69   41.50
  -4 -22   2    3.80   70.39
   4 -22  -2   23.40   40.10
  -4  22   2  128.99   63.39
   4  22  -2   14.70   45.10
   4  22  -2   66.99   46.70
  -2 -22   2   59.49   32.90
   2 -22  -2   66.69   39.20
   2 -22  -2   85.59   37.60
  -2 -22   2  -38.00   31.50
  -2  22   2   56.49   40.10
  -2  22   2  116.99   53.29
   2  22  -2   86.99   47.90
   0 -22  -2   94.89   44.40
   0 -22   2   55.79   40.50
   0 -22  -2   69.79   37.00
   0 -22   2   65.29   33.00
   0 -22  -2   59.79   59.29
   0  22  -2   31.20   38.00
   0  22  -2   78.79   39.00
   0  22   2  111.39   45.00
   0  22   2   52.39   39.10
  -2 -22  -2   60.59   74.89
  -2 -22  -2  107.29   45.90
   2 -22   2   69.89   43.30
   2 -22   2   53.39   43.00
  -2  22  -2  120.69   54.39
   2  22   2  133.29   41.80
   2  22   2   94.09   50.19
   5 -23  -2   35.30   46.50
   5 -23  -2  192.38   51.49
  -5 -23   2   25.70   41.40
  -5 -23   2  184.38   80.69
   5  23  -2  136.19   55.39
  -5  23   2  171.48   61.79
   5  23  -2   36.00   57.29
  -5  23   2   26.60   47.80
   3 -23  -2    8.80   35.00
   3 -23  -2  -19.30   32.50
  -3 -23   2   33.70   37.20
  -3 -23   2  -23.20   31.50
  -3  23   2   51.19   50.69
   3  23  -2   -3.00   39.50
   3  23  -2   53.29   46.10
  -3  23   2   -0.10   39.10
   1 -23  -2   21.30   33.30
  -1 -23   2   46.90   39.90
   1 -23  -2   86.89   53.39
   1 -23  -2   39.40   40.50
  -1  23   2   61.79   46.50
   1  23  -2   61.99   48.10
  -1  23   2   44.50   35.40
   1  23  -2   22.10   37.60
  -1 -23  -2   42.60   59.59
   1 -23   2   99.69   39.20
  -1 -23  -2    8.10   39.50
  -1 -23  -2   11.40   31.70
  -1  23  -2   28.20   40.90
   1  23   2   -3.80   43.20
   1  23   2   50.39   39.10
  -1  23  -2   21.80   41.20
   4 -24  -2   97.59   49.30
  -4 -24   2   43.70   67.19
   4 -24  -2  112.49   49.20
  -4 -24   2   84.19   45.30
  -4  24   2   70.59   57.49
  -4  24   2   79.29   48.70
   4  24  -2  103.29   54.79
   4  24  -2  136.89   54.59
  -2 -24   2  160.38   48.40
   2 -24  -2   70.09   41.80
  -2 -24   2   95.29   50.59
   2 -24  -2   77.39   43.50
  -2  24   2  170.88   49.00
  -2  24   2  232.88   64.59
   2  24  -2  161.28   58.49
   0 -24  -2   40.10   58.79
   0 -24   2   62.19   36.90
   0 -24  -2   47.20   43.80
   0 -24  -2   80.09   39.00
   0 -24   2   30.80   41.50
   0  24   2   93.99   45.50
   0  24  -2   74.79   44.50
   0  24   2  113.69   57.79
   0  24  -2   69.69   45.40
   2 -24   2  -19.90   34.50
  -2 -24  -2   85.89   37.30
   2 -24   2    7.90   41.60
  -2 -24  -2    3.00   65.99
  -2  24  -2  -41.20   41.90
  -2  24  -2  -84.99   45.10
   2  24   2  -36.30   48.70
  -3 -25   2   11.00   40.50
   3 -25  -2  -35.00   34.40
  -3 -25   2   45.80   38.60
   3  25  -2   53.49   45.40
  -3  25   2   23.10   56.59
  -3  25   2   54.99   46.50
  -1 -25   2  104.99   52.29
   1 -25  -2   40.50   36.20
   1 -25  -2   14.10   58.29
  -1 -25   2   -4.50   33.90
   1 -25  -2   48.40   65.89
   1  25  -2   -1.10   52.99
  -1  25   2   24.40   37.00
  -1  25   2   -1.20   46.10
   1  25  -2   16.40   43.90
  -1  25   2   22.10   48.90
  -1 -25  -2  258.87   63.39
  -1 -25  -2  242.08   60.99
   1 -25   2  179.78   54.69
   1 -25   2  213.68   57.59
  -1 -25  -2  316.17   87.39
  -1  25  -2  180.18  105.29
   1  25   2   94.69   65.49
   1  25   2  270.67   73.19
  -1  25  -2  289.17   68.69
  -2 -26   2   96.49   48.40
   2 -26  -2   90.59   46.70
   2 -26  -2  149.69   43.30
  -2 -26   2   65.19   42.80
   2  26  -2   65.59   47.10
  -2  26   2   73.39   60.79
  -2  26   2  -11.20   45.70
   0 -26   2   55.59   47.60
   0 -26  -2   95.39   48.40
   0 -26   2   86.89   41.90
   0 -26  -2   33.40   45.20
   0  26   2  137.39   56.99
   0  26   2  135.09   53.09
   0  26  -2  111.99   70.49
   8   0  -3  -47.20   32.60
   8   0  -3  -26.00   38.10
  -8   0   3   27.10   28.60
  -8   0   3   39.90   48.50
  -6   0   3  -30.20   18.00
  -6   0   3   23.20   19.80
   6   0  -3   32.30   31.60
   6   0  -3   20.00   32.00
  -6   0   3    7.90   32.30
  -4   0   3   11.80   15.70
  -4   0   3    6.40   21.10
   4   0  -3   38.30   21.40
   4   0  -3  -10.00   16.40
  -4   0   3   -2.30   14.00
   4   0  -3    6.70   19.30
   4   0  -3   14.30   22.70
  -4   0   3    7.20   21.20
   4   0  -3    3.20   34.80
  -2   0   3   -2.40   16.80
  -2   0   3   24.30   20.50
  -2   0   3    5.20   10.30
   2   0  -3  -10.80    9.40
   2   0  -3   16.10   17.10
   2   0  -3  -10.30    7.70
   2   0  -3   15.50   18.80
   0   0   3    5.90    7.70
   0   0  -3   14.70   14.40
   0   0  -3  -13.90   15.40
   0   0   3   -7.20   12.40
   0   0   3    4.10   11.10
   0   0  -3  -21.90   12.20
  -2   0  -3    2.70   23.20
   2   0   3  -15.70   23.00
   2   0   3   18.50   17.60
   2   0   3  -16.80   15.10
  -4   0  -3  -13.70   26.20
   4   0   3   48.90   28.20
  -4   0  -3  -26.10   27.10
  -6   0  -3   45.90   39.20
  -6   0  -3   25.30   45.60
  -6   0  -3   46.30   39.50
   6   0   3  -12.20   30.20
   6   0   3   30.40   39.20
  -9  -1   3  101.69   54.19
   9  -1  -3  137.99   51.99
  -9  -1   3  169.08   76.39
   9  -1  -3   58.39   46.40
  -9  -1   3  162.68   45.20
  -9   1   3  143.89   73.29
  -9   1   3  203.68   62.89
  -9   1   3  104.19   44.10
   9   1  -3  138.69   54.99
   9   1  -3   76.99   59.79
   7  -1  -3  117.99   50.39
  -7  -1   3  224.78   59.29
  -7  -1   3  139.69   58.69
   7  -1  -3  122.89   47.80
  -7  -1   3  136.29   38.40
  -7   1   3  131.09   55.59
  -7   1   3  178.48   50.69
  -7   1   3  175.18   48.10
   7   1  -3  105.39   48.40
   7   1  -3  197.68   66.39
   5  -1  -3  186.08   55.49
  -5  -1   3   86.99   36.60
   5  -1  -3  195.38   58.29
  -5  -1   3  120.89   38.60
   5   1  -3  112.49   44.10
  -5   1   3   72.39   31.30
   5   1  -3  139.59   50.89
  -5   1   3   88.79   35.80
  -3  -1   3  394.16   68.59
   3  -1  -3  427.06   64.39
   3  -1  -3  479.35   78.49
  -3  -1   3  348.97   45.70
   3  -1  -3  523.65   61.89
   3  -1  -3  532.85   55.59
  -3  -1   3  339.07   52.39
   3   1  -3  450.15   51.99
  -3   1   3  339.77   45.80
   3   1  -3  452.05   67.09
  -3   1   3  345.27   64.59
   3   1  -3  433.96   65.69
   3   1  -3  477.55   53.99
  -3   1   3  375.36   57.49
   3   1  -3  479.05   61.69
   1  -1  -3  712.53   76.59
   1  -1  -3  554.54   53.79
  -1  -1   3  503.65   38.20
  -1  -1   3  635.14   57.79
  -1  -1   3  418.56   65.89
   1  -1  -3  606.14   44.40
  -1  -1   3  629.94   69.39
   1   1  -3  610.14   57.69
  -1   1   3  685.73   60.49
  -1   1   3  463.15   44.90
   1   1  -3  555.94   72.09
  -1   1   3  612.04   74.59
  -1   1   3  510.45   68.29
   1   1  -3  584.74   56.19
  -1  -1  -3 1834.92  143.19
  -1  -1  -3 1783.42  111.29
  -1  -1  -3 1845.02  125.19
   1  -1   3 1919.51  136.99
   1  -1   3 1861.61  130.49
   1  -1   3 1566.84  127.39
   1  -1   3 1849.91  111.09
   1   1   3 1649.54  123.49
   1   1   3 1767.12  112.39
   1   1   3 1670.33  119.99
   1   1   3 1951.90  146.09
  -1   1  -3 1940.61  123.09
  -1   1  -3 1859.01  151.38
  -1   1  -3 1797.72  124.99
  -3  -1  -3  775.62   93.69
   3  -1   3  792.12   91.29
  -3  -1  -3  742.83   75.89
   3  -1   3  754.62   84.19
  -3   1  -3  879.81   99.29
   3   1   3  730.23   80.99
   3   1   3  665.03   90.29
   3   1   3  594.54   79.09
  -3   1  -3  756.42   97.59
  -5  -1  -3  263.77   63.19
  -5  -1  -3  205.08   53.89
   5  -1   3  115.59   54.69
  -5  -1  -3  355.36   81.99
   5  -1   3  199.78   54.79
  -5   1  -3  202.48   59.89
  -5   1  -3  351.46   61.49
   5   1   3  193.78   63.89
  -5   1  -3  242.58   67.49
   5   1   3  262.57   66.99
   8  -2  -3   91.89   57.69
  -8  -2   3  136.29   42.00
  -8  -2   3  -15.30   58.29
  -8  -2   3  110.99   46.40
   8  -2  -3  195.98   65.19
  -8   2   3  120.89   39.60
   8   2  -3  155.78   60.99
   8   2  -3  192.28   64.79
  -8   2   3  131.39   50.49
  -8   2   3  170.48   53.99
  -6  -2   3  157.28   40.30
  -6  -2   3  237.48   55.89
  -6  -2   3  254.17   70.79
   6  -2  -3  192.28   54.89
   6  -2  -3  192.18   57.99
   6   2  -3  107.49   45.50
  -6   2   3  139.39   44.10
   6   2  -3  126.29   48.00
  -6   2   3  110.69   36.30
  -4  -2   3  786.92   84.99
   4  -2  -3  927.51   85.09
   4  -2  -3  939.21   85.19
   4  -2  -3  839.22   88.29
   4  -2  -3  927.61   98.49
   4  -2  -3  982.10  101.79
  -4  -2   3  865.21   75.69
  -4   2   3  908.41   94.59
  -4   2   3  870.31   92.99
  -4   2   3  820.62   80.39
   4   2  -3  869.91   81.59
   4   2  -3  937.41   86.49
   4   2  -3  848.02   91.89
   4   2  -3  703.13   88.49
  -4   2   3  768.22   53.39
  -4   2   3  866.11   81.19
  -2  -2   3  116.59   34.50
  -2  -2   3   95.09   29.50
   2  -2  -3   98.59   22.60
   2  -2  -3  104.89   35.40
   2  -2  -3  100.59   35.40
  -2  -2   3   64.99   21.70
   2  -2  -3   59.39   21.40
   2  -2  -3   67.79   19.90
  -2   2   3  124.29   39.70
  -2   2   3  120.69   40.00
   2   2  -3  112.89   31.40
   2   2  -3   62.19   21.20
   2   2  -3   37.00   22.30
  -2   2   3   89.09   28.40
   0  -2  -3 2617.04  142.49
   0  -2  -3 2578.84  154.38
   0  -2   3 2604.84  133.19
   0  -2   3 2097.69  171.68
   0  -2  -3 2974.90  184.78
   0  -2   3 2516.75  159.38
   0  -2  -3 2538.25  140.49
   0  -2   3 2589.24  157.88
   0   2  -3 2477.85  164.78
   0   2  -3 2497.55  182.98
   0   2  -3 2381.96  155.08
   0   2   3 2639.84  158.18
   0   2   3 2592.84  143.29
   2  -2   3  371.66   57.19
  -2  -2  -3  407.66   48.40
  -2  -2  -3  602.84  105.09
   2  -2   3  435.56   76.59
   2  -2   3  424.66   72.69
   2   2   3  395.56   54.89
   2   2   3  447.96   67.39
  -2   2  -3  462.75   90.99
   2   2   3  379.36   55.89
  -2   2  -3  433.86   57.59
  -4  -2  -3  460.85   82.39
   4  -2   3  482.15   72.09
  -4  -2  -3  609.64   90.69
  -4  -2  -3  514.85   67.69
   4  -2   3  531.95   78.09
   4   2   3  530.15   98.09
  -4   2  -3  463.85   90.99
  -4   2  -3  520.95   72.09
   4   2   3  595.14   77.79
   6  -2   3   98.09   42.60
   6  -2   3  117.99   51.09
  -6  -2  -3   52.49   41.40
  -6  -2  -3   45.30   45.20
  -6   2  -3   81.69   48.50
  -6   2  -3   59.89   59.29
  -6   2  -3   35.80   42.70
   6   2   3  121.79   49.30
   6   2   3   59.49   38.30
  -9  -3   3   92.19   42.90
  -9  -3   3  146.59   78.59
   9  -3  -3  235.58   70.09
   9  -3  -3  195.38   64.59
   9   3  -3  167.18   69.49
  -9   3   3  173.08   52.19
  -9   3   3  135.79   55.79
   9   3  -3  116.49   61.09
  -9   3   3  155.58   47.00
   7  -3  -3  359.76   83.59
  -7  -3   3  354.06   94.89
  -7  -3   3  322.77   57.39
   7  -3  -3  370.16   85.99
   7   3  -3  308.67   80.19
  -7   3   3  269.77   62.89
   7   3  -3  228.88   74.79
  -7   3   3  308.97   70.09
   5  -3  -3 1565.44  145.19
  -5  -3   3 1827.12  127.09
   5  -3  -3 1608.24  109.79
  -5  -3   3 1804.42  121.59
  -5  -3   3 1737.43  154.58
   5  -3  -3 1360.56  137.89
  -5   3   3 1697.83   87.89
   5   3  -3 1377.96  135.49
  -5   3   3 1679.73  132.99
  -5   3   3 1600.94  127.89
   3  -3  -3 2687.93  190.38
   3  -3  -3 2580.14  188.78
  -3  -3   3 2719.03  173.08
  -3  -3   3 3095.79  167.48
  -3  -3   3 2995.00  178.58
   3  -3  -3 2748.02  167.68
   3   3  -3 2431.86  184.28
  -3   3   3 2604.64  186.48
   3   3  -3 2755.02  181.08
  -3   3   3 2814.52  150.18
  -3   3   3 3174.28  210.18
  -3   3   3 2640.74  163.78
   3   3  -3 2671.13  165.38
  -3   3   3 2978.00  176.18
  -1  -3   3  507.55   67.79
   1  -3  -3  643.14   43.30
  -1  -3   3  469.35   51.59
  -1  -3   3  434.56   53.39
   1  -3  -3  631.04   50.19
   1  -3  -3  653.43   56.99
   1  -3  -3  752.32   78.19
  -1   3   3  451.05   72.19
   1   3  -3  704.43   68.59
   1   3  -3  599.84   56.59
  -1   3   3  498.95   66.99
   1   3  -3  656.13   76.49
  -1   3   3  449.76   49.80
  -1   3   3  416.96   50.09
  -1  -3  -3  588.64   48.20
  -1  -3  -3  666.93   72.39
   1  -3   3  375.86   52.69
   1  -3   3  415.46   53.09
  -1   3  -3  588.74   64.19
   1   3   3  494.35   46.50
   1   3   3  413.76   82.49
  -1   3  -3  538.45   76.19
   1   3   3  408.36   45.50
   1   3   3  483.25   55.99
  -3  -3  -3  614.44   79.29
  -3  -3  -3  575.34   64.19
   3  -3   3  648.64   79.79
   3  -3   3  672.33   77.29
   3   3   3  655.83   76.79
   3   3   3  519.45   82.39
  -3   3  -3  575.44   75.79
  -3   3  -3  500.15   94.09
   5  -3   3 1342.27  134.59
  -5  -3  -3 1381.16  146.19
  -5  -3  -3 1490.75  118.99
   5  -3   3 1512.75  132.89
  -5  -3  -3 1396.86  127.09
   5   3   3 1352.86  131.39
  -5   3  -3 1426.96  128.69
   5   3   3 1187.78  136.19
  -5   3  -3 1258.67  139.49
  -8  -4   3  527.85  116.39
   8  -4  -3  732.43  105.59
  -8  -4   3  749.73   79.09
   8  -4  -3  646.64  122.59
   8   4  -3  521.15   99.19
  -8   4   3  471.75   76.09
   8   4  -3  790.82  117.09
  -8   4   3  709.13   93.29
  -8   4   3  681.43   91.79
  -6  -4   3  164.78   39.20
  -6  -4   3   99.79   57.69
   6  -4  -3  177.68   57.89
   6  -4  -3  111.79   45.30
  -6   4   3  103.09   38.70
   6   4  -3   40.60   37.00
   6   4  -3  178.98   57.79
  -6   4   3  146.59   46.80
   4  -4  -3 1028.20   89.89
  -4  -4   3  931.11   62.39
   4  -4  -3  953.90   89.59
   4  -4  -3  957.20   81.89
   4  -4  -3  858.91   97.69
  -4  -4   3  936.01   84.19
   4  -4  -3 1132.09  108.89
  -4  -4   3  927.11   90.49
  -4  -4   3  994.20   77.79
   4   4  -3  863.51   82.29
  -4   4   3 1063.39   91.29
   4   4  -3  897.11   94.79
  -4   4   3  958.10   65.49
   4   4  -3  971.10  101.69
  -4   4   3  916.11   88.79
   2  -4  -3 3008.60  203.58
  -2  -4   3 2882.11  168.28
  -2  -4   3 2795.72  165.38
   2  -4  -3 2974.40  162.28
   2  -4  -3 2964.90  172.68
   2  -4  -3 2879.01  170.58
   2  -4  -3 2951.30  192.08
  -2  -4   3 3107.39  187.08
  -2   4   3 2736.43  190.48
   2   4  -3 2892.31  190.98
  -2   4   3 2957.70  161.48
  -2   4   3 2891.01  173.18
   2   4  -3 2884.81  170.18
   2   4  -3 2988.80  180.18
   0  -4   3  -16.20   24.90
   0  -4  -3   13.40   10.00
   0  -4   3   36.10   22.20
   0  -4  -3   35.20   22.60
   0  -4   3   14.60   16.40
   0  -4  -3    2.00   13.20
   0  -4   3   16.20   13.70
   0   4  -3   20.90   15.60
   0   4  -3   30.50   23.30
   0   4   3   15.80   13.80
   0   4   3   31.70   40.90
   0   4  -3    6.50   21.50
   0   4   3    9.50   11.80
   2  -4   3  130.89   36.50
   2  -4   3  182.48   48.30
  -2  -4  -3  170.68   47.00
  -2  -4  -3  141.39   28.50
  -2  -4  -3   87.39   28.90
   2   4   3  159.48   35.20
   2   4   3  135.69   36.50
   2   4   3  176.58   59.29
  -2   4  -3  204.88   49.10
  -2   4  -3  110.19   45.50
  -4  -4  -3  111.29   49.20
  -4  -4  -3  171.68   39.20
  -4  -4  -3   66.49   33.00
   4  -4   3  114.79   47.90
  -4   4  -3   64.09   41.80
   4   4   3  108.89   36.40
  -4   4  -3  130.09   46.50
   4   4   3  133.69   50.59
  -6  -4  -3   53.89   45.40
  -6  -4  -3   47.50   35.60
   6  -4   3   58.59   41.10
  -6  -4  -3    6.40   35.60
   6  -4   3   37.50   40.00
  -6   4  -3   54.39   42.00
  -6   4  -3   10.30   49.40
   6   4   3  -16.80   32.00
   6   4   3   85.39   49.90
  -6   4  -3    2.70   37.40
  -9  -5   3  -27.70   64.29
   9  -5  -3   65.59   47.20
  -9  -5   3   56.49   35.40
   9  -5  -3  155.88   59.99
  -9   5   3   57.49   44.50
   9   5  -3   19.60   54.09
   9   5  -3  -49.10   49.00
  -9   5   3   32.70   48.40
  -7  -5   3  256.87  129.09
   7  -5  -3  560.84  107.29
   7  -5  -3  629.94  112.99
  -7  -5   3  670.73   69.89
   7   5  -3  499.25   95.29
   7   5  -3  634.94  115.99
  -7   5   3  589.04   81.99
  -7   5   3  597.64   85.59
   5  -5  -3 1490.15  137.49
  -5  -5   3 1506.95  108.19
   5  -5  -3 1476.65  140.39
   5  -5  -3 1573.04   89.19
  -5  -5   3 1462.65   92.49
  -5   5   3 1718.53  135.79
  -5   5   3 1528.65  126.99
  -5   5   3 1421.16   91.79
   5   5  -3 1556.44  137.79
   5   5  -3 1474.15  135.59
   3  -5  -3  987.00   99.39
  -3  -5   3  862.01   76.69
  -3  -5   3  758.92   73.09
  -3  -5   3  888.91   69.69
   3  -5  -3  914.11   93.79
   3  -5  -3 1003.60   80.09
  -3   5   3  829.52   79.79
   3   5  -3  945.01   75.19
  -3   5   3  847.72   74.69
  -3   5   3  796.92   90.09
   3   5  -3  933.31   85.89
   3   5  -3  932.31   57.89
  -3   5   3  776.72   63.89
  -3   5   3  930.61   99.19
   3   5  -3  937.41   93.49
   1  -5  -3 1883.61   99.29
   1  -5  -3 1778.72  133.09
  -1  -5   3 1944.01  120.79
  -1  -5   3 2027.80  142.29
   1  -5  -3 1693.93  115.99
   1  -5  -3 1807.62  118.49
  -1  -5   3 1933.61  113.99
  -1   5   3 1908.91  126.69
   1   5  -3 1711.63  120.39
  -1   5   3 1838.22  166.58
   1   5  -3 1861.71  139.29
  -1   5   3 1932.11  141.09
  -1   5   3 1949.01  123.59
   1   5  -3 1739.93  141.79
   1  -5   3 2320.47  170.88
  -1  -5  -3 2189.78  141.79
   1  -5   3 2171.88  170.08
   1  -5   3 2198.78  144.69
  -1  -5  -3 2573.04  160.18
   1   5   3 2304.07  145.89
   1   5   3 2530.45  154.38
  -1   5  -3 2530.75  170.98
   3  -5   3  651.93   80.99
  -3  -5  -3  696.73   96.99
   3  -5   3  713.23   83.39
  -3  -5  -3  734.53   63.39
  -3  -5  -3  749.03   81.59
   3   5   3  814.52  102.19
   3   5   3  806.32   84.59
   3   5   3  802.22   76.39
  -3   5  -3  801.22   93.69
  -3   5  -3  710.73  100.89
  -5  -5  -3   25.40   30.50
   5  -5   3   57.09   34.00
  -5  -5  -3   65.39   47.90
  -5  -5  -3   39.60   32.70
  -5   5  -3   43.10   37.00
   5   5   3   80.09   42.70
  -5   5  -3    9.80   36.50
   5   5   3  -19.00   32.20
  -8  -6   3   25.30   62.79
   8  -6  -3  -19.00   38.70
  -8  -6   3   11.60   27.80
   8  -6  -3    8.10   36.60
   8   6  -3  -15.40   41.90
   8   6  -3  -55.39   39.00
  -8   6   3   32.40   32.70
  -8   6   3   17.70   31.50
  -6  -6   3  699.23   68.39
  -6  -6   3  642.04   64.99
  -6  -6   3  560.54  119.69
   6  -6  -3  653.83   91.59
   6  -6  -3  855.21  100.39
  -6   6   3  647.24   83.49
  -6   6   3  563.14   77.99
   6   6  -3  654.73   93.69
   6   6  -3  610.54   95.09
  -4  -6   3  308.67   43.40
  -4  -6   3  418.66   44.30
   4  -6  -3  343.97   66.19
  -4  -6   3  403.56   59.49
  -4  -6   3  437.36   93.09
  -4  -6   3  463.05   44.50
   4  -6  -3  366.06   62.79
   4  -6  -3  487.85   86.39
   4   6  -3  462.45   68.59
  -4   6   3  375.76   42.40
   4   6  -3  336.97   40.20
  -4   6   3  417.76   55.99
   4   6  -3  481.85   65.49
   4   6  -3  458.25   53.59
  -2  -6   3  497.35   49.00
   2  -6  -3  537.55   66.99
   2  -6  -3  563.04   55.19
   2  -6  -3  508.55   59.49
   2  -6  -3  540.45   50.69
  -2  -6   3  584.44   51.79
  -2  -6   3  443.46   58.39
   2   6  -3  545.75   64.89
  -2   6   3  546.45   92.49
  -2   6   3  463.45   45.70
  -2   6   3  555.34   53.19
   2   6  -3  572.54   58.79
  -2   6   3  429.46   80.99
  -2   6   3  500.35   56.49
   2   6  -3  596.54   35.90
   2   6  -3  565.24   53.99
   2   6  -3  593.24   69.79
   0  -6  -3  640.84   53.19
   0  -6   3  515.35   47.20
   0  -6   3  644.24   79.69
   0  -6   3  450.85   55.09
   0  -6  -3  492.05   53.29
   0  -6  -3  524.05   60.09
   0  -6   3  522.55   72.99
   0   6  -3  563.64   94.99
   0   6   3  593.94  102.89
   0   6  -3  565.54   75.19
   0   6   3  506.15   55.39
   0   6   3  550.94   55.49
   0   6  -3  522.65   59.69
  -2  -6  -3   29.00   15.00
  -2  -6  -3   21.30   22.50
  -2  -6  -3   86.69   38.30
  -2  -6  -3  -14.00   20.00
   2  -6   3   34.90   24.60
   2  -6   3   68.79   23.70
   2   6   3   68.79   21.20
  -2   6  -3   -7.90   26.50
   2   6   3   38.70   27.00
  -2   6  -3   13.10   28.80
  -4  -6  -3   13.00   29.30
   4  -6   3   71.49   31.50
  -4  -6  -3   89.79   44.20
   4  -6   3  107.79   36.00
  -4  -6  -3   85.39   26.90
   4   6   3    7.60   36.20
  -4   6  -3  103.09   49.30
   4   6   3   33.90   37.30
  -4   6  -3   59.49   40.00
   4   6   3   65.19   41.30
   6  -6   3   97.99   52.79
  -6  -6  -3   82.39   45.60
  -6  -6  -3  106.59   49.70
   6  -6   3   87.59   44.10
  -6  -6  -3   71.49   52.59
  -6   6  -3   19.40   54.49
  -6   6  -3   81.49   55.49
  -6   6  -3   70.29   46.90
   6   6   3  105.59   51.09
   9  -7  -3   78.19   56.39
  -9  -7   3   62.89   39.20
  -9  -7   3  -12.20   68.99
   9   7  -3  107.79   57.19
   9   7  -3    4.20   51.19
  -9   7   3  138.69   52.99
  -7  -7   3  294.37   89.69
  -7  -7   3  360.46   49.99
  -7  -7   3  341.07   51.89
   7  -7  -3  320.77   83.39
  -7   7   3  348.67   97.29
   7   7  -3  334.07   86.09
   7   7  -3  301.27   79.99
  -7   7   3  356.16   77.99
   5  -7  -3 1619.34  142.19
  -5  -7   3 1353.76  159.38
  -5  -7   3 1503.15  100.09
  -5  -7   3 1350.46   95.89
   5  -7  -3 1703.43  148.29
  -5  -7   3 1452.25   99.59
  -5   7   3 1466.45  126.39
  -5   7   3 1308.07   99.29
  -5   7   3 1741.13  141.49
   5   7  -3 1577.44  138.89
   5   7  -3 1731.53  141.29
   5   7  -3 1602.74  126.49
  -3  -7   3 3947.21  214.98
  -3  -7   3 3823.12  205.98
  -3  -7   3 3482.75  203.38
  -3  -7   3 3825.02  200.18
   3  -7  -3 3857.71  217.58
   3  -7  -3 3987.20  251.97
   3  -7  -3 4226.38  240.58
  -3   7   3 3687.83  238.28
  -3   7   3 3695.13  207.08
   3   7  -3 3992.60  227.18
   3   7  -3 3806.72  192.58
  -3   7   3 3782.22  227.78
  -3   7   3 3876.21  256.07
  -3   7   3 3587.24  214.68
   3   7  -3 3862.41  234.58
   3   7  -3 3727.23  211.18
   1  -7  -3 2747.53  170.68
  -1  -7   3 2731.43  142.79
  -1  -7   3 3109.89  164.48
   1  -7  -3 2700.33  171.38
  -1  -7   3 2762.42  139.19
   1  -7  -3 2699.73  138.19
   1  -7  -3 2470.05  154.78
  -1  -7   3 2983.30  182.38
  -1   7   3 2888.71  167.68
  -1   7   3 3171.18  188.28
  -1   7   3 2893.01  175.88
   1   7  -3 2572.44  184.18
  -1   7   3 2611.04  205.58
   1   7  -3 2484.75  185.88
  -1   7   3 2731.53  166.48
   1   7  -3 2640.84  174.18
  -1  -7  -3 1937.51  117.09
  -1  -7  -3 1939.31  126.19
  -1  -7  -3 1622.84  142.59
   1  -7   3 1968.60  119.99
   1  -7   3 2111.79  143.39
   1   7   3 1997.50  131.39
  -1   7  -3 1747.73  170.48
   1   7   3 1727.83  160.98
   1   7   3 1957.40  152.68
  -1   7  -3 1771.02  158.98
  -3  -7  -3  724.73   68.89
  -3  -7  -3  717.83   73.69
  -3  -7  -3  575.34   91.99
   3  -7   3  655.43   87.79
   3  -7   3  868.61   90.89
  -3   7  -3  590.14  113.69
   3   7   3  904.41  112.59
  -3   7  -3  596.44   86.09
   3   7   3  843.52   85.29
   3   7   3  809.72   69.89
   5  -7   3  104.89   41.70
  -5  -7  -3   55.39   46.60
   5  -7   3  156.58   51.99
  -5  -7  -3  119.49   39.50
  -5   7  -3   89.29   54.29
   5   7   3  201.38   64.69
  -5   7  -3   69.89   42.20
   5   7   3   79.29   46.20
  -8  -8   3  172.08   79.69
   8  -8  -3   44.40   46.70
   8  -8  -3   45.80   43.40
  -8  -8   3  110.29   32.90
  -8   8   3   80.09   44.30
  -8   8   3   73.89   41.90
   8   8  -3  121.39   58.79
   8   8  -3  103.19   63.59
  -6  -8   3  422.76   40.60
   6  -8  -3  409.76   83.79
  -6  -8   3  536.95   50.29
  -6  -8   3  478.05   52.39
   6  -8  -3  560.74  103.79
  -6   8   3  384.26   73.69
   6   8  -3  371.86   85.59
  -6   8   3  360.16   72.89
   6   8  -3  648.04   89.79
  -4  -8   3 1152.38   99.79
  -4  -8   3 1252.67  146.29
   4  -8  -3 1108.59  117.29
  -4  -8   3 1090.49   76.29
  -4  -8   3 1304.77   93.39
  -4  -8   3 1199.18   75.79
  -4   8   3 1153.58   92.09
   4   8  -3 1149.39  107.89
  -4   8   3 1282.37  114.29
  -4   8   3 1159.58  102.39
   4   8  -3 1177.28  108.79
   4   8  -3 1155.68   82.69
   4   8  -3 1077.39   90.89
   2  -8  -3  137.79   39.50
   2  -8  -3  155.88   40.10
  -2  -8   3  189.08   29.00
  -2  -8   3  200.28   28.00
  -2  -8   3  158.88   18.60
   2  -8  -3  103.69   28.40
  -2  -8   3  168.58   36.00
   2  -8  -3  230.28   31.90
  -2   8   3  232.48   36.70
  -2   8   3  112.39   48.80
   2   8  -3  201.88   24.00
   2   8  -3  122.79   38.40
  -2   8   3  243.78   47.20
   2   8  -3  121.19   30.60
  -2   8   3  106.69   30.50
   2   8  -3  173.98   44.70
  -2   8   3  162.48   42.20
   0  -8  -3  547.05   70.89
   0  -8   3  573.84   41.40
   0  -8  -3  563.34   53.39
   0  -8   3  610.04   61.99
   0  -8  -3  626.54   62.89
   0  -8  -3  480.35   46.10
   0   8  -3  636.94   80.39
   0   8  -3  521.25   89.29
   0   8   3  551.94   55.59
   0   8  -3  602.84   69.39
   0   8   3  487.75   60.99
  -2  -8  -3  211.78   35.10
   2  -8   3  241.98   52.79
  -2  -8  -3  255.57   65.89
   2  -8   3  201.58   41.20
  -2  -8  -3  191.78   35.90
  -2   8  -3   93.49   44.80
   2   8   3  198.68   43.00
   2   8   3  141.39   49.99
  -2   8  -3  168.58   52.59
   4  -8   3  583.74   80.29
  -4  -8  -3  456.25   62.19
  -4  -8  -3  621.94  113.79
   4  -8   3  581.74   78.39
   4   8   3  571.34  112.09
   4   8   3  395.06   63.49
  -4   8  -3  615.54  104.09
   4   8   3  545.65   77.09
  -4   8  -3  500.55  107.39
  -6  -8  -3  195.58   78.29
   6  -8   3  111.69   55.29
   6  -8   3  191.88   60.69
  -6  -8  -3  150.68   49.30
  -6   8  -3  158.58   70.99
   6   8   3  102.89   56.59
  -6   8  -3  254.67   76.19
  -6   8  -3  229.58   64.99
   6   8   3  102.89   63.69
   9  -9  -3  557.94  101.39
  -9  -9   3  394.26  129.99
   9  -9  -3  437.46  103.49
   9   9  -3  388.86   85.69
  -9   9   3  410.26   86.29
  -9   9   3  495.45   94.89
   7  -9  -3  577.84  131.99
  -7  -9   3  486.25  123.69
   7  -9  -3  455.75   89.29
  -7   9   3  546.15   94.49
  -7   9   3  337.67   75.29
   7   9  -3  493.45   93.69
   7   9  -3  513.85  104.29
  -5  -9   3  102.09   58.79
   5  -9  -3  171.88   33.40
   5  -9  -3  100.89   39.00
  -5  -9   3  202.88   37.50
   5  -9  -3  126.29   52.79
  -5   9   3  215.28   57.79
   5   9  -3  189.58   52.89
   5   9  -3  119.89   48.00
  -5   9   3  239.88   58.09
   3  -9  -3 2192.98  159.48
   3  -9  -3 2299.07  126.99
  -3  -9   3 2317.37  142.39
  -3  -9   3 2284.17  144.99
   3  -9  -3 2182.68  196.58
   3  -9  -3 2403.36  163.78
   3   9  -3 2399.46  154.98
  -3   9   3 2092.79  192.98
   3   9  -3 2265.67  142.79
  -3   9   3 2379.46  161.98
   3   9  -3 2638.64  162.88
  -3   9   3 2184.08  144.69
  -3   9   3 2325.77  152.18
   3   9  -3 2316.87  130.59
  -1  -9   3 1697.03  113.39
   1  -9  -3 1904.21  134.59
   1  -9  -3 1830.92  116.69
  -1  -9   3 1806.42  125.69
   1  -9  -3 1818.22  109.19
  -1  -9   3 1798.22  104.59
   1  -9  -3 1688.43  130.29
  -1   9   3 1835.52  123.19
   1   9  -3 1878.61  167.38
  -1   9   3 1844.72  136.19
   1   9  -3 1740.23  121.89
  -1   9   3 1944.61  148.29
   1   9  -3 1725.63  139.29
  -1   9   3 1832.42   98.19
   1  -9   3  619.44   54.99
  -1  -9  -3  783.72   91.99
   1  -9   3  640.04   71.09
  -1  -9  -3  675.73   70.29
  -1   9  -3  728.03   94.29
   1   9   3  670.63   65.09
  -1   9  -3  584.54   85.19
   1   9   3  776.72  103.29
   1   9   3  710.73   83.39
  -3  -9  -3  350.56   48.00
  -3  -9  -3  434.06   46.80
   3  -9   3  562.44   72.49
   3  -9   3  524.75   68.99
  -3  -9  -3  374.26   94.19
  -3   9  -3  576.34  108.09
   3   9   3  421.76   48.60
   3   9   3  655.03   75.59
  -3   9  -3  385.96   79.59
   5  -9   3  301.47   67.89
   5  -9   3  294.27   62.39
  -5   9  -3  181.68   66.09
  -5   9  -3  192.98   63.99
   5   9   3  154.28   56.19
   5   9   3  291.87   76.99
   8 -10  -3   70.89   61.79
   8 -10  -3  159.98   56.09
  -8 -10   3  136.99   78.59
  -8  10   3  251.97   67.39
   8  10  -3  171.88   77.79
   8  10  -3  236.08   78.99
  -8  10   3  159.28   60.49
   6 -10  -3  447.06   83.69
  -6 -10   3  517.65   53.89
   6 -10  -3  537.95   53.49
  -6 -10   3  695.23  144.39
   6 -10  -3  500.85  100.19
  -6  10   3  590.74   80.99
  -6  10   3  514.15   96.39
   6  10  -3  592.74   84.39
   6  10  -3  546.15  100.89
   4 -10  -3   -6.50   23.70
   4 -10  -3   68.79   34.00
  -4 -10   3   32.80   24.90
  -4 -10   3   17.40   28.10
  -4 -10   3   52.89   49.99
   4 -10  -3   51.29   24.20
   4  10  -3   64.09   23.80
  -4  10   3   19.50   26.10
   4  10  -3   62.19   29.00
  -4  10   3   64.39   29.50
   4  10  -3   49.00   31.00
  -4  10   3   46.60   26.80
   4  10  -3   46.50   23.70
  -2 -10   3 1306.67  100.89
  -2 -10   3 1338.27   81.79
   2 -10  -3 1280.47  155.28
  -2 -10   3 1357.06   86.19
   2 -10  -3 1311.07   92.69
  -2 -10   3 1338.67   81.79
   2 -10  -3 1282.27  100.29
   2 -10  -3 1339.97   92.19
   2 -10  -3 1338.87   99.29
   2  10  -3 1457.25  112.49
   2  10  -3 1208.38  119.99
  -2  10   3 1377.06  106.79
   2  10  -3 1179.08   85.19
   2  10  -3 1298.67  118.39
  -2  10   3 1464.65  118.89
  -2  10   3 1466.35   96.99
   0 -10  -3 2622.34  177.28
   0 -10   3 2762.52  153.48
   0 -10  -3 2706.63  191.38
   0 -10   3 2767.12  168.38
   0  10  -3 2621.04  194.98
   0  10   3 2763.62  165.68
   0  10   3 3319.77  243.18
   0  10  -3 2694.33  200.68
   2 -10   3  903.71   76.59
   2 -10   3  908.81   90.39
  -2 -10  -3 1072.89  119.49
  -2  10  -3  802.02  104.49
   2  10   3  880.81   82.69
   2  10   3  890.51  113.29
  -2  10  -3  722.93  103.59
   4 -10   3  -21.70   34.00
   4 -10   3   87.59   45.00
  -4 -10  -3  146.49   53.49
   4  10   3   74.09   32.40
  -4  10  -3  170.28   56.69
   4  10   3   26.60   36.30
   4  10   3  129.49   59.39
  -4  10  -3  130.69   55.89
   7 -11  -3  699.63  110.09
  -7 -11   3  617.04  140.79
   7 -11  -3  700.73   97.89
  -7  11   3  917.21  113.69
  -7  11   3  762.62   97.29
   7  11  -3  820.62  105.49
  -5 -11   3 1286.17  171.38
   5 -11  -3 1974.40  167.18
   5 -11  -3 1696.73  146.79
   5 -11  -3 1665.13  118.89
  -5 -11   3 1677.23  122.19
  -5  11   3 1607.84  149.88
  -5  11   3 1500.85  132.39
   5  11  -3 2036.80  144.79
   5  11  -3 1832.52  155.18
  -5  11   3 1673.63  142.89
   3 -11  -3  217.58   47.10
   3 -11  -3  155.38   42.40
  -3 -11   3  108.69   30.00
   3 -11  -3  172.88   37.10
   3 -11  -3  199.08   47.00
   3 -11  -3  187.88   29.90
   3 -11  -3  185.08   53.59
  -3 -11   3  131.79   37.40
  -3  11   3  128.09   38.00
   3  11  -3  190.78   44.20
  -3  11   3  149.59   45.90
   3  11  -3  186.98   32.90
   3  11  -3  228.68   54.19
   3  11  -3  155.78   39.90
  -1 -11   3   34.80   24.40
  -1 -11   3   25.80   24.60
   1 -11  -3   90.39   24.10
  -1 -11   3   49.90   18.70
  -1 -11   3   77.49   21.90
   1 -11  -3  112.49   35.70
   1 -11  -3  167.68   45.40
   1  11  -3  131.09   51.89
  -1  11   3   85.99   26.10
   1  11  -3  154.08   36.70
   1  11  -3  177.48   48.40
  -1 -11  -3  381.86   84.09
  -1 -11  -3  401.96   56.39
   1 -11   3  384.66   55.29
  -1  11  -3  536.85   95.39
   1  11   3  391.66   51.49
  -1  11  -3  535.15   77.79
   1  11   3  388.16   67.99
   1  11   3  354.56   83.79
   3 -11   3  421.86   74.89
  -3 -11  -3  446.86   90.79
   3 -11   3  359.26   62.09
   3  11   3  446.56   71.29
  -3  11  -3  481.85   95.09
  -3  11  -3  498.05   94.19
   5 -11   3  321.37   63.79
  -5 -11  -3  216.18   76.59
   5 -11   3  303.77   67.99
  -5  11  -3  340.37   79.09
   5  11   3  227.98   60.49
  -5  11  -3  207.48   77.79
   5  11   3  308.17   89.79
   8 -12  -3   -3.40   51.99
   8 -12  -3  100.69   49.80
  -8  12   3   73.29   42.60
   8  12  -3  191.28   96.49
  -8  12   3   15.90   38.80
   8  12  -3  -22.00   54.99
  -6 -12   3   95.39   64.59
   6 -12  -3   30.70   34.60
   6 -12  -3   54.39   44.40
  -6 -12   3    8.30   25.00
   6  12  -3   46.80   40.10
  -6  12   3   91.49   45.60
  -6  12   3   58.59   38.50
   6  12  -3   72.39   49.90
   4 -12  -3  915.61   98.89
   4 -12  -3  827.62   87.29
  -4 -12   3  824.02   89.99
   4 -12  -3  967.90  113.89
  -4 -12   3  957.80  153.28
   4 -12  -3 1069.19   90.09
  -4 -12   3  815.52   85.29
   4 -12  -3  844.52   87.89
   4  12  -3 1134.89   81.79
   4  12  -3  971.50  100.49
   4  12  -3  849.52   76.69
  -4  12   3  901.01   97.09
   4  12  -3  964.90   94.69
  -4  12   3  889.11   99.79
   2 -12  -3 2470.25  170.28
   2 -12  -3 2774.92  185.08
   2 -12  -3 2402.26  143.49
   2 -12  -3 2653.23  156.58
  -2 -12   3 2673.23  147.49
   2 -12  -3 2508.45  149.88
  -2 -12   3 2798.92  172.78
   2 -12  -3 2452.15  161.98
   2  12  -3 2456.95  167.48
  -2  12   3 2773.82  161.08
   2  12  -3 2404.76  154.08
  -2  12   3 2435.56  172.68
  -2  12   3 2700.23  171.48
   2  12  -3 2519.55  189.38
   0 -12   3   36.10   23.10
   0 -12   3  137.99   39.80
   0 -12   3   99.09   28.30
   0 -12  -3   45.10   31.70
   0 -12   3   87.19   25.40
   0 -12  -3   58.19   29.50
   0  12   3  101.99   28.70
   0  12  -3   88.89   45.50
   0  12  -3   82.29   40.30
   0  12   3  102.39   35.70
  -2 -12  -3 1298.57  135.99
   2 -12   3 1128.39  103.09
   2 -12   3 1091.09   84.69
  -2 -12  -3 1266.67  106.69
  -2  12  -3 1141.69  128.29
  -2  12  -3 1141.29  128.59
   2  12   3 1198.18  133.29
   2  12   3 1063.09   96.09
   4 -12   3  454.15   75.29
   4 -12   3  634.34   85.39
  -4 -12  -3  552.04  112.09
  -4  12  -3  471.15   92.89
   4  12   3  646.34  119.79
   4  12   3  608.34   81.79
  -4  12  -3  629.04  115.09
  -7 -13   3  102.89   64.39
   7 -13  -3   23.10   48.00
   7 -13  -3   64.79   43.40
  -7  13   3   78.59   44.00
  -7  13   3   22.80   42.30
   7  13  -3   74.39   48.60
   7  13  -3  -17.90   55.19
  -5 -13   3  510.75  119.09
   5 -13  -3  520.75   79.49
   5 -13  -3  449.76   92.29
   5 -13  -3  615.74   69.89
  -5 -13   3  550.84   70.39
   5  13  -3  549.54   85.89
  -5  13   3  422.76   83.69
  -5  13   3  638.84   84.09
   5  13  -3  597.24   75.19
  -3 -13   3   91.69   23.00
  -3 -13   3   78.29   35.80
   3 -13  -3   14.60   26.20
   3 -13  -3   60.19   29.40
   3 -13  -3   36.10   32.60
   3 -13  -3   17.80   23.60
  -3 -13   3   40.80   23.00
   3 -13  -3  123.89   30.70
   3 -13  -3   45.50   28.10
   3  13  -3   40.40   32.30
   3  13  -3   33.30   26.90
  -3  13   3   76.79   32.40
   3  13  -3   52.99   27.20
   3  13  -3   32.90   27.00
   3  13  -3   67.19   25.80
   1 -13  -3 1445.46  122.69
  -1 -13   3 1516.75  118.39
   1 -13  -3 1570.44   97.89
  -1 -13   3 1364.06   97.79
   1 -13  -3 1538.25  126.69
   1  13  -3 1400.86  138.69
   1  13  -3 1260.27  118.99
  -1  13   3 1392.36  110.49
  -1  13   3 1356.06  107.39
  -1  13   3 1407.56   93.49
  -1 -13  -3 1351.56  115.59
  -1 -13  -3 1471.55  138.99
   1 -13   3 1445.06  116.09
   1 -13   3 1251.47  103.19
  -1  13  -3 1431.16  131.19
  -1  13  -3 1311.77  134.89
   1  13   3 1236.08  136.19
   1  13   3 1068.69  108.69
   1  13   3 1131.39   95.99
   3 -13   3  468.35   65.99
  -3 -13  -3  360.76   89.69
   3 -13   3  466.25   78.99
   3 -13   3  426.06   62.39
  -3  13  -3  437.66   93.19
  -3  13  -3  444.06   88.99
   3  13   3  537.75  112.49
   3  13   3  619.34   71.59
  -5 -13  -3  185.48   77.39
   5 -13   3  165.98   61.39
   5 -13   3   84.79   48.00
   5 -13   3  131.99   48.60
  -5  13  -3   36.20   54.89
   5  13   3  145.39   50.59
   8 -14  -3   65.19   49.80
  -8 -14   3  102.79   77.79
   8 -14  -3  117.49   62.39
   8  14  -3  178.18   79.89
   8  14  -3  196.98   83.39
  -8  14   3  311.57  113.69
  -6 -14   3  137.39   39.10
   6 -14  -3   72.19   32.50
   6 -14  -3  137.49   48.40
  -6 -14   3   -7.00   60.39
   6 -14  -3   82.99   51.99
  -6  14   3  104.69   51.59
  -6  14   3  127.09   45.10
   6  14  -3  136.69   47.20
   6  14  -3  261.57   75.29
  -4 -14   3  133.29   42.70
   4 -14  -3  118.29   36.50
  -4 -14   3   76.99   38.80
   4 -14  -3  135.49   41.40
  -4 -14   3  102.39   65.69
   4 -14  -3  141.99   54.29
   4 -14  -3  102.59   37.20
  -4  14   3  141.49   50.29
   4  14  -3  118.69   33.80
  -4  14   3  173.68   52.99
   4  14  -3  166.48   49.40
   4  14  -3   82.19   36.40
   4  14  -3   51.09   41.20
   2 -14  -3  258.57   56.19
  -2 -14   3  194.18   48.40
  -2 -14   3  178.58   36.10
   2 -14  -3  306.57   66.29
   2 -14  -3  227.28   52.79
   2 -14  -3  237.38   48.10
  -2  14   3  178.68   47.00
   2  14  -3  213.08   47.50
   2  14  -3  154.28   50.09
  -2  14   3  160.98   41.80
   2  14  -3  213.08   41.60
   0 -14   3  428.16   60.49
   0 -14   3  383.16   47.80
   0 -14   3  406.36   61.09
   0 -14  -3  551.44   82.09
   0 -14  -3  430.26   73.39
   0 -14   3  443.86   52.69
   0  14   3  426.16   64.89
   0  14   3  369.36   56.89
   0  14  -3  455.05   82.89
   0  14  -3  489.55   72.19
  -2 -14  -3  245.78   77.49
  -2 -14  -3  350.76   65.29
   2 -14   3  366.16   64.19
   2 -14   3  454.15   65.79
  -2  14  -3  279.97   79.89
   2  14   3  335.37   55.39
  -2  14  -3  349.67   79.49
   2  14   3  230.08   73.19
   4 -14   3   60.59   39.70
   4 -14   3   71.49   42.10
   4 -14   3   25.00   44.90
  -4  14  -3   57.89   52.69
  -4  14  -3   -4.50   49.60
   4  14   3  137.09   50.09
   4  14   3   72.19   39.30
  -7 -15   3  207.88   47.90
   7 -15  -3   71.59   43.80
   7 -15  -3  195.88   44.50
   7 -15  -3  120.39   65.19
   7  15  -3   63.49   58.69
   7  15  -3  155.18   55.09
  -7  15   3  149.88   59.09
  -7  15   3  144.99   63.39
   5 -15  -3  145.19   42.60
  -5 -15   3  125.29   41.70
   5 -15  -3   78.59   41.40
  -5 -15   3  120.69   66.99
   5 -15  -3  102.29   47.70
   5  15  -3   43.50   33.90
   5  15  -3  117.79   48.10
  -5  15   3  158.68   51.79
  -5  15   3  178.18   52.09
   3 -15  -3  915.81   96.29
  -3 -15   3  941.01   99.49
   3 -15  -3 1002.20   79.99
  -3 -15   3 1062.39   82.89
   3 -15  -3  973.80   75.49
   3 -15  -3  902.31  100.19
   3 -15  -3 1142.69   87.49
   3  15  -3  826.52   82.89
   3  15  -3  996.00  105.69
   3  15  -3  988.70   89.49
   3  15  -3  995.50   79.49
  -3  15   3 1183.18  106.99
  -3  15   3  875.31   98.39
   1 -15  -3 1192.68  109.89
  -1 -15   3 1088.39  104.79
  -1 -15   3 1067.59   86.79
   1 -15  -3 1109.79  109.39
   1 -15  -3 1258.97   88.79
   1  15  -3  958.80  113.89
  -1  15   3 1083.39  101.69
   1  15  -3 1147.09  105.69
  -1  15   3 1098.79   94.99
  -1  15   3 1300.27   89.79
   1 -15   3  152.88   42.70
  -1 -15  -3  102.79   57.59
   1 -15   3  220.18   43.20
   1 -15   3  153.38   48.00
  -1 -15  -3  102.09   40.40
   1  15   3  164.98   35.40
   1  15   3  145.19   56.89
   1  15   3  174.08   46.30
  -1  15  -3  158.48   53.79
  -1  15  -3  212.28   57.09
  -3 -15  -3  298.87   78.99
   3 -15   3  265.27   47.90
   3 -15   3  266.77   60.99
   3 -15   3  310.07   65.29
   3  15   3  141.49   59.29
  -3  15  -3  255.27   69.39
  -3  15  -3   90.79   58.69
   3  15   3  269.87   51.89
   6 -16  -3  779.62  148.19
  -6 -16   3  480.15  118.89
   6 -16  -3  676.03   93.49
   6 -16  -3  687.53   82.09
  -6 -16   3  893.51   86.29
   6  16  -3  886.41   94.59
  -6  16   3  534.25  101.89
  -6  16   3  638.74  108.79
   6  16  -3  715.63  110.09
  -4 -16   3  343.57   61.49
   4 -16  -3  214.68   58.69
   4 -16  -3  201.38   51.69
   4 -16  -3  292.87   56.19
   4  16  -3  249.48   47.10
  -4  16   3  318.17   69.49
   4  16  -3  301.17   64.59
   4  16  -3  331.57   53.99
  -4  16   3  292.27   72.39
   4  16  -3  263.87   60.39
  -2 -16   3  365.36   57.19
   2 -16  -3  545.35   88.39
   2 -16  -3  547.55   87.79
   2 -16  -3  584.54   76.09
  -2 -16   3  530.05   70.99
   2 -16  -3  587.64   78.99
  -2  16   3  351.66   65.09
   2  16  -3  617.64   90.59
   2  16  -3  662.13   64.89
   2  16  -3  699.63   74.39
  -2  16   3  477.25   67.39
   0 -16   3  200.28   69.39
   0 -16  -3  274.17   72.29
   0 -16  -3  269.47   56.89
   0 -16   3  369.16   66.19
   0  16   3  306.57   55.99
   0  16   3  233.58   44.60
   0  16  -3  331.67   67.79
   0  16   3  334.97   47.50
   0  16  -3  431.46   83.39
  -2 -16  -3  143.49   70.99
  -2 -16  -3  170.28   46.40
   2 -16   3  206.18   48.40
   2 -16   3  158.58   45.30
   2  16   3  149.59   40.80
  -2  16  -3  167.88   55.39
   2  16   3  261.07   68.59
  -2  16  -3  164.98   58.29
   4 -16   3   71.99   43.10
   4 -16   3   65.39   48.20
   4 -16   3   28.70   42.10
  -4 -16  -3  125.49   69.59
  -4  16  -3   56.09   53.49
  -4  16  -3   79.19   56.09
   4  16   3   98.19   49.50
   4  16   3   80.89   46.20
   7 -17  -3  168.08   60.79
   7 -17  -3  216.88   50.49
  -7 -17   3  206.78   82.89
  -7 -17   3  224.58   50.39
   7 -17  -3  158.58   65.39
  -7  17   3  104.29   56.39
   7  17  -3  210.18   75.99
   7  17  -3  160.48   56.39
  -7  17   3  218.68   72.19
  -5 -17   3   39.40   55.29
   5 -17  -3  103.09   41.50
  -5 -17   3   73.29   42.10
   5 -17  -3   15.30   39.60
   5 -17  -3   37.60   39.50
   5 -17  -3   86.09   39.00
   5  17  -3   53.09   37.10
  -5  17   3   82.69   43.60
   5  17  -3    8.50   45.20
   5  17  -3   48.80   61.89
  -5  17   3  128.99   52.99
  -3 -17   3  414.06   74.79
   3 -17  -3  449.16   58.99
  -3 -17   3  523.25   59.59
   3 -17  -3  316.77   64.79
   3 -17  -3  333.27   69.09
   3  17  -3  358.76   54.39
   3  17  -3  357.36   59.99
   3  17  -3  405.16   81.79
   3  17  -3  408.76   56.29
  -3  17   3  506.25   73.59
  -3  17   3  456.95   78.99
   1 -17  -3  595.44   84.89
   1 -17  -3  564.14   76.69
  -1 -17   3  586.54   81.09
   1 -17  -3  528.15   77.29
   1 -17  -3  541.05   67.99
  -1 -17   3  761.62   83.99
  -1  17   3  596.94   70.79
   1  17  -3  509.45   91.69
   1  17  -3  658.73   75.79
  -1  17   3  643.24   68.39
   1 -17   3 1172.88   94.69
   1 -17   3 1197.08  115.19
   1 -17   3 1113.49  100.39
  -1 -17  -3 1187.78  115.19
  -1 -17  -3 1228.68  140.69
   1  17   3 1103.49   91.39
   1  17   3 1419.36  141.69
  -1  17  -3 1141.99  125.29
  -1  17  -3 1280.47  132.79
  -3 -17  -3 1329.47  155.88
   3 -17   3 1021.40  108.19
   3 -17   3 1209.18  114.39
   3  17   3 1033.70   98.29
  -3  17  -3  975.50  125.99
   3  17   3  998.60  132.69
  -3  17  -3 1300.17  139.19
  -6 -18   3  251.67   96.89
   6 -18  -3  515.75   95.69
   6 -18  -3  471.15   81.49
  -6 -18   3  329.67   61.99
   6 -18  -3  363.66   66.59
   6 -18  -3  386.46   75.59
   6  18  -3  376.16   79.79
   6  18  -3  482.25   99.59
  -6  18   3  487.45   89.09
  -6  18   3  343.77   81.49
   4 -18  -3  248.68   58.19
   4 -18  -3  230.18   57.89
  -4  18   3  388.46   78.19
  -4  18   3  304.97   73.29
   4  18  -3  374.36   54.89
   4  18  -3  267.17   61.19
   4  18  -3  315.67   53.99
   4  18  -3  401.56  117.79
   2 -18  -3   92.99   45.10
   2 -18  -3  115.09   50.09
   2 -18  -3  235.58   87.89
  -2 -18   3   65.99   32.80
  -2 -18   3  151.38   46.90
  -2  18   3  113.09   48.70
   2  18  -3  153.88   53.59
   0 -18   3  296.77   64.29
   0 -18  -3  314.67   78.79
   0 -18  -3  407.76   74.79
   0 -18   3  247.48   46.80
   0  18   3  279.17   46.20
   0  18   3  214.38   69.49
   0  18  -3  382.66   69.99
   0  18  -3  372.96   74.89
   0  18   3  411.66   46.20
   2 -18   3   86.59   41.00
   2 -18   3   98.39   37.50
  -2 -18  -3  112.49   62.99
  -2 -18  -3   64.09   41.10
   2 -18   3  156.98   51.09
  -2  18  -3   46.90   46.80
  -2  18  -3  112.39   54.39
   2  18   3  127.19   36.00
   2  18   3  153.58   63.39
   4 -18   3   68.29   52.39
   4 -18   3  129.49   51.39
  -4 -18  -3  143.79   70.09
   4  18   3  183.28   50.79
   4  18   3   53.09   75.39
  -4  18  -3  151.28   61.79
  -4  18  -3  226.78  100.99
   7 -19  -3   35.80   46.30
   7 -19  -3   71.59   58.49
   7 -19  -3    0.40   60.19
   7  19  -3  102.79   55.59
   7  19  -3  213.28   75.89
   7  19  -3   19.80   50.99
   5 -19  -3  557.84   81.69
  -5 -19   3  384.66  109.69
   5 -19  -3  447.86   78.99
   5 -19  -3  418.06   77.49
  -5  19   3  557.14   96.19
   5  19  -3  520.95   94.29
   5  19  -3  365.26   62.59
  -5  19   3  609.64  107.49
   5  19  -3  667.43   95.29
  -3 -19   3  797.32   78.29
   3 -19  -3  677.83   89.29
   3 -19  -3  662.03   95.09
   3  19  -3  678.13   69.79
  -3  19   3  937.61  100.39
   3  19  -3  612.24  123.59
   3  19  -3  762.12   78.89
  -3  19   3  819.72   97.89
  -1 -19   3  112.59   49.20
  -1 -19   3  221.48   47.10
   1 -19  -3  203.38   58.99
   1 -19  -3  146.09   67.69
   1 -19  -3  219.08   53.59
   1  19  -3  187.38   50.99
  -1  19   3  355.26   58.69
   1  19  -3  200.18   50.49
  -1  19   3  199.88   49.40
  -1 -19  -3  187.98   52.19
   1 -19   3  104.69   44.00
   1 -19   3    4.20   30.20
  -1 -19  -3  209.08   71.99
   1  19   3   62.39   46.30
  -1  19  -3  165.58   48.80
  -1  19  -3   77.69   43.70
   1  19   3   85.19   29.70
  -3 -19  -3  241.48   87.99
   3 -19   3  164.78   51.19
   3 -19   3  245.48   53.09
   3 -19   3  228.18   60.09
  -3  19  -3  239.98   67.49
   3  19   3  330.07   80.29
   3  19   3  147.79   45.40
  -3  19  -3  187.08   62.39
  -6 -20   3   40.30   40.60
   6 -20  -3  116.29   68.89
  -6 -20   3   49.99   65.59
   6 -20  -3   69.59   45.90
   6 -20  -3   74.79   51.59
   6  20  -3   12.20   57.09
   6  20  -3  100.99   50.29
  -6  20   3   60.69   52.09
   6  20  -3   66.39   48.60
  -6  20   3  -27.40   50.19
  -4 -20   3  391.96   68.99
   4 -20  -3  319.77   64.69
   4 -20  -3  335.87   67.39
  -4  20   3  311.97   70.69
  -4  20   3  387.06   80.09
   4  20  -3  360.76   83.39
   4  20  -3  367.56   67.89
  -2 -20   3  265.77   64.39
   2 -20  -3  445.56   79.59
   2 -20  -3  335.47   74.49
  -2 -20   3  471.95   62.89
   2 -20  -3  441.06   73.39
  -2  20   3  553.84   71.59
   2  20  -3  352.76   72.49
  -2  20   3  430.96   71.39
   0 -20  -3  -13.00   51.79
   0 -20   3  -16.00   33.20
   0 -20   3   31.50   25.80
   0  20   3  -15.70   29.40
   0  20  -3   38.20   36.40
   0  20  -3   48.90   37.90
   0  20   3   48.60   27.30
   2 -20   3  147.29   45.20
  -2 -20  -3   46.70   67.79
  -2 -20  -3  165.18   43.70
   2 -20   3  113.49   44.40
   2 -20   3  155.58   60.09
  -2  20  -3   90.79   57.59
  -2  20  -3   54.79   51.39
   2  20   3  141.29   55.09
   2  20   3   84.49   38.50
   5 -21  -3   26.20   43.20
  -5 -21   3   -6.90   39.50
   5 -21  -3   83.29   42.50
  -5  21   3   47.20   48.20
   5  21  -3   95.29   55.49
  -5  21   3   63.79   55.09
   5  21  -3   57.79   54.09
   3 -21  -3  230.18   52.89
   3 -21  -3  149.88   49.50
  -3 -21   3  135.39   44.60
  -3 -21   3   48.80   35.20
   3  21  -3  207.78   46.90
  -3  21   3   90.99   52.49
  -3  21   3  236.78   54.29
   3  21  -3   92.69   54.29
  -1 -21   3  841.62   84.69
  -1 -21   3  989.60  111.39
   1 -21  -3 1085.19  111.49
   1 -21  -3 1045.50  106.59
   1 -21  -3  737.33  143.49
  -1  21   3  764.02   87.49
   1  21  -3  835.12  109.09
   1  21  -3 1138.39  103.59
  -1  21   3  762.92   91.49
  -1 -21  -3  849.52   97.29
   1 -21   3  772.52   98.39
  -1 -21  -3  593.84  124.09
   1 -21   3  693.03   82.89
   1  21   3  749.23   72.49
   1  21   3  672.93  116.79
  -1  21  -3  658.93  106.59
   3 -21   3   20.10   58.89
   3 -21   3   33.80   44.20
  -3  21  -3  101.69   57.79
   3  21   3   31.70   64.19
   4 -22  -3   55.69   38.20
  -4 -22   3  -33.70   37.70
   4 -22  -3  -28.20   34.20
  -4  22   3  134.09   58.69
   4  22  -3   25.30   49.20
  -4  22   3   61.09   63.69
   4  22  -3   63.69   45.50
  -2 -22   3  329.47   67.29
   2 -22  -3  345.97   70.99
   2 -22  -3  352.86   70.09
  -2 -22   3  592.44   71.69
   2 -22  -3  408.96   82.19
   2  22  -3  691.53   95.39
  -2  22   3  358.76   67.69
  -2  22   3  439.56   75.09
   2  22  -3  423.86   82.19
   0 -22  -3  422.66   74.09
   0 -22  -3  521.25  109.09
   0 -22   3  483.65   63.29
   0 -22   3  332.57   73.99
   0  22   3  305.67   80.79
   0  22  -3  387.26   73.19
   0  22   3  329.47   54.89
   0  22  -3  275.87   71.39
   0  22   3  381.16   55.39
  -2 -22  -3  612.04  127.79
  -2 -22  -3  563.94   79.99
   2 -22   3  340.37   69.79
   2  22   3  553.34  100.49
  -2  22  -3  590.14   97.09
  -2  22  -3  409.56   86.99
   5 -23  -3  327.27   69.59
   5 -23  -3  333.97   80.59
  -5 -23   3  399.06   66.09
   5  23  -3  456.35   84.09
   5  23  -3  424.66   87.09
  -5  23   3  326.27   80.39
  -3 -23   3   84.89   41.20
   3 -23  -3  234.58   66.69
  -3 -23   3  122.99   46.00
   3 -23  -3  157.38   49.99
  -3  23   3  120.89   53.59
  -3  23   3  134.69   54.79
   3  23  -3  193.88   62.99
   1 -23  -3   25.80   40.20
   1 -23  -3   46.60   53.79
  -1 -23   3  -13.40   29.50
  -1 -23   3   11.80   40.20
   1 -23  -3  -12.70   29.90
   1  23  -3   61.79   39.90
   1  23  -3  -10.90   36.20
  -1  23   3  -39.80   42.90
  -1  23   3   -1.70   35.50
   1 -23   3  -28.50   37.20
  -1 -23  -3   46.10   72.09
  -1  23  -3    0.70   44.60
  -1  23  -3  -43.30   43.50
   1  23   3  -56.69   44.30
   4 -24  -3  402.26   79.49
   4 -24  -3  370.56   76.09
  -4 -24   3  280.37   61.99
   4  24  -3  254.37   71.59
  -4  24   3  366.06   74.09
  -4  24   3  474.65   92.39
  -2 -24   3  331.97   70.79
  -2 -24   3  268.77   66.59
   2 -24  -3  144.99   52.19
   2 -24  -3  148.19   71.69
   2 -24  -3  268.57   67.99
   2  24  -3  188.88   58.49
   2  24  -3  348.17   58.09
  -2  24   3  244.78   56.99
  -2  24   3  260.07   65.59
   0 -24   3   54.69   60.89
   0 -24   3   60.79   38.80
   0 -24  -3  180.38   81.29
   0 -24  -3  123.19   51.39
   0  24  -3   92.49   52.59
   0  24  -3  145.09   55.09
   0  24   3  178.58   68.89
   3 -25  -3  143.89   52.69
  -3 -25   3  160.48   55.29
  -3 -25   3  121.89   49.80
   3 -25  -3  262.47   65.99
  -3  25   3  181.78   67.49
  -3  25   3  191.48   56.59
   3  25  -3  115.79   66.39
   1 -25  -3   43.20   33.40
  -1 -25   3   32.90   40.50
   1 -25  -3   36.10   45.10
  -1 -25   3   16.70   36.90
   1 -25  -3   66.69   62.99
   1  25  -3  -36.10   58.79
  -1  25   3  -44.20   48.40
   8   0  -4  122.39   55.99
  -8   0   4  355.46   76.49
   8   0  -4  211.98   69.69
   6   0  -4  883.61  110.49
   6   0  -4  705.13   97.59
  -6   0   4  555.54   71.39
  -4   0   4 5708.53  310.67
   4   0  -4 5881.31  338.77
   4   0  -4 5163.68  316.77
  -2   0   4 9953.80  457.55
   2   0  -4 9444.05  418.36
  -2   0   4 8534.35  479.35
   2   0  -4 8034.00  477.85
   2   0  -4 8577.74  450.85
   0   0   4 1800.22  130.99
   0   0  -4 1655.13  165.18
   0   0   4 1743.63  106.79
   0   0  -4 1814.32  123.79
  -2   0  -4 1072.29  116.09
   2   0   4  844.92  100.29
  -2   0  -4 1049.40   86.49
   2   0   4  704.23   92.49
   2   0   4  800.32   89.69
  -4   0  -4  384.06   65.99
   4   0   4  386.46   77.69
  -4   0  -4  367.06   79.09
   4   0   4  323.87   69.29
   9  -1  -4  178.48   68.09
   9  -1  -4  109.99   51.19
  -9  -1   4  251.47   54.39
  -9   1   4  304.87   67.39
  -9   1   4  174.78   48.90
   9   1  -4  195.18   73.79
   9   1  -4  138.09   60.09
   7  -1  -4 1042.40  124.69
  -7  -1   4 1059.29   99.79
   7  -1  -4  992.30  119.99
   7   1  -4  980.30  124.79
   7   1  -4  946.21  119.09
  -7   1   4  879.21  102.99
  -7   1   4  961.40   99.69
  -5  -1   4 1914.61  140.39
   5  -1  -4 2213.08  181.98
   5  -1  -4 1865.41  164.68
   5   1  -4 1886.41  171.28
  -5   1   4 1977.50  106.69
   5   1  -4 1898.01  164.18
  -5   1   4 1947.41  143.29
   3  -1  -4 1510.75  139.49
  -3  -1   4 1458.35  132.39
   3  -1  -4 1771.52  143.99
  -3  -1   4 1689.73  139.49
   3  -1  -4 1639.34  113.49
   3  -1  -4 1662.83  100.49
  -3  -1   4 1549.45  115.29
   3  -1  -4 1538.05  117.09
   3   1  -4 1581.94  114.79
   3   1  -4 1780.12  139.79
   3   1  -4 1328.87  133.29
   3   1  -4 1692.63  118.49
  -3   1   4 1356.46  126.69
  -3   1   4 1186.18  126.19
  -3   1   4 1538.95  116.39
   1  -1  -4 1151.58   96.79
   1  -1  -4 1336.67  125.49
   1  -1  -4 1182.18   95.49
   1  -1  -4 1332.97   78.59
  -1  -1   4 1284.97  115.29
  -1  -1   4 1125.99  123.89
  -1  -1   4 1339.07  103.39
  -1  -1   4 1331.67   77.79
   1   1  -4 1194.58  121.79
  -1   1   4 1250.37  100.79
   1   1  -4 1188.08  104.19
  -1   1   4 1120.79   83.29
  -1   1   4 1195.18  123.39
   1   1  -4 1240.08   99.79
  -1   1   4 1281.97  125.99
  -1  -1  -4    3.30   26.50
  -1  -1  -4   49.10   20.30
   1  -1   4   62.59   21.70
   1  -1   4   64.69   36.40
   1  -1   4   36.10   25.20
   1  -1   4   82.69   41.00
   1   1   4   59.29   26.40
  -1   1  -4   34.80   24.60
   1   1   4   30.20   22.90
   1   1   4   83.69   22.90
  -1   1  -4    9.00   24.70
   1   1   4   29.60   29.30
   3  -1   4  174.98   49.60
   3  -1   4  152.88   51.39
  -3  -1  -4  239.38   59.69
   3   1   4  177.68   56.69
  -3   1  -4  265.97   54.69
  -3   1  -4  324.17   69.49
   3   1   4  206.98   52.09
   5  -1   4  182.38   59.39
  -5  -1  -4  258.87   66.39
  -5  -1  -4  274.77   59.89
   5  -1   4  221.28   70.49
  -5   1  -4  286.87   58.89
  -5   1  -4  307.67   92.99
   5   1   4  213.38   59.09
  -5   1  -4  224.88   62.59
   5   1   4  289.77   72.49
   8  -2  -4  473.95  102.89
   8  -2  -4  552.44  107.19
  -8  -2   4  639.64   75.49
  -8   2   4  551.84   76.89
  -8   2   4  577.64   84.29
   8   2  -4  486.75  102.09
   8   2  -4  510.45  101.19
  -6  -2   4 1202.88  100.79
   6  -2  -4 1283.17  135.59
   6  -2  -4  994.20  118.89
   6   2  -4  858.01  117.79
  -6   2   4 1091.49  104.99
  -6   2   4 1125.89  108.29
   6   2  -4 1102.09  122.79
   4  -2  -4 1131.39   96.39
  -4  -2   4  987.70  102.19
   4  -2  -4  953.00  115.59
  -4  -2   4 1181.28  106.29
  -4  -2   4 1092.99   91.89
   4   2  -4  954.60  112.39
   4   2  -4 1136.09  112.99
  -4   2   4 1152.08  106.29
  -2  -2   4   40.70   34.50
   2  -2  -4   23.40   18.60
  -2  -2   4   64.79   30.80
   2  -2  -4   54.09   15.80
  -2  -2   4   77.69   28.10
   2  -2  -4   91.09   38.40
   2  -2  -4   31.60   16.70
  -2   2   4   47.40   20.80
  -2   2   4   62.59   34.30
  -2   2   4   58.89   34.40
   2   2  -4   92.89   41.70
   2   2  -4   33.40   19.20
   0  -2  -4 2044.40  164.98
   0  -2   4 2181.38  158.08
   0  -2   4 2020.80  142.09
   0  -2   4 2002.10  113.99
   0  -2  -4 2104.59  123.89
   0  -2  -4 1801.72  145.89
   0   2  -4 1899.91  167.58
   0   2   4 2325.47  207.68
   0   2   4 1869.91  121.79
   0   2  -4 2001.20  145.19
   2  -2   4 2982.10  209.48
  -2  -2  -4 3035.40  222.98
   2  -2   4 3392.06  219.58
  -2  -2  -4 3309.37  188.28
   2   2   4 3533.35  234.88
   2   2   4 3235.28  211.38
   2   2   4 3455.75  204.28
  -2   2  -4 3198.98  238.38
  -4  -2  -4  890.31  117.39
  -4  -2  -4 1162.78   98.79
   4  -2   4  897.41  105.89
   4   2   4 1213.98  120.09
  -4   2  -4  918.81  114.59
   4   2   4 1075.09  124.39
  -4   2  -4  987.40  100.39
  -9  -3   4  327.87   93.09
   9  -3  -4  342.17   91.59
   9  -3  -4  329.87   87.69
  -9  -3   4  401.86   68.29
   9   3  -4  510.45  101.49
  -9   3   4  400.76   76.19
  -9   3   4  412.86   73.99
   7  -3  -4  662.13  119.29
   7  -3  -4  730.43  108.89
  -7  -3   4  818.32   82.49
   7   3  -4  724.53  129.19
   7   3  -4  602.44  110.09
  -7   3   4  794.32   89.39
  -7   3   4  831.12   92.99
  -5  -3   4  573.04   63.79
   5  -3  -4  424.26   78.59
   5  -3  -4  523.75   96.59
   5  -3  -4  532.25  102.69
  -5   3   4  432.76   62.49
   5   3  -4  567.44   82.79
   5   3  -4  529.55   99.79
  -5   3   4  508.25   43.20
  -5   3   4  475.35   64.19
  -3  -3   4  349.47   62.49
   3  -3  -4  371.46   77.29
   3  -3  -4  388.26   46.10
   3  -3  -4  384.96   81.39
   3  -3  -4  332.57   56.79
  -3  -3   4  356.26   70.09
   3  -3  -4  380.66   47.80
  -3  -3   4  310.67   44.80
  -3   3   4  400.56  113.49
  -3   3   4  457.15   87.69
  -3   3   4  436.46   55.19
   3   3  -4  365.16   49.60
   3   3  -4  306.87   69.99
   3   3  -4  485.55   84.79
  -1  -3   4  870.41   54.89
  -1  -3   4  896.11  103.99
  -1  -3   4  899.11   91.19
  -1  -3   4  978.50   85.99
   1  -3  -4 1129.29  109.49
   1  -3  -4  999.80   84.29
   1  -3  -4 1013.40   75.69
   1  -3  -4 1012.10   70.69
  -1   3   4 1018.40  126.39
  -1   3   4  903.11  109.99
   1   3  -4  847.72  105.69
  -1   3   4  973.80   78.69
   1   3  -4 1089.69  100.29
  -1   3   4  954.80   85.89
  -1  -3  -4 1958.20  150.18
   1  -3   4 1623.44  129.39
   1  -3   4 1682.73  115.49
  -1  -3  -4 1689.83  104.59
   1  -3   4 1681.23  138.69
   1  -3   4 1633.34  129.39
   1   3   4 1835.32  155.78
  -1   3  -4 1820.62  132.99
   1   3   4 1657.03  105.79
  -1   3  -4 1793.22  162.28
   1   3   4 1586.74  127.39
   3  -3   4  707.63  102.29
  -3  -3  -4  505.25   61.39
  -3  -3  -4  497.65   84.49
   3  -3   4  570.14   80.79
   3   3   4  639.24   93.69
   3   3   4  616.74   81.19
  -3   3  -4  717.53   97.89
  -3   3  -4  548.25   76.29
   3   3   4  548.55   76.09
  -5  -3  -4   47.30   37.30
   5  -3   4   -0.10   32.80
   5  -3   4  -46.50   39.40
  -5  -3  -4  -31.40   35.90
  -5  -3  -4  -50.79   42.80
   5   3   4   -6.10   30.00
  -5   3  -4   48.70   46.10
  -5   3  -4   36.70   37.20
   5   3   4    4.20   37.60
  -8  -4   4   14.90   57.09
  -8  -4   4  110.79   35.70
   8  -4  -4  105.09   51.89
   8  -4  -4  108.99   49.40
  -8   4   4   30.70   38.00
   8   4  -4  103.89   56.49
   8   4  -4  108.99   56.09
  -8   4   4  138.69   47.00
   6  -4  -4 1049.49  122.59
   6  -4  -4 1203.28  129.89
  -6  -4   4 1341.37  104.99
   6  -4  -4 1129.39   90.09
  -6   4   4 1194.08  112.09
   6   4  -4 1158.78  128.59
   6   4  -4  912.31  119.39
  -6   4   4 1295.57  115.29
  -6   4   4 1184.48   74.49
   4  -4  -4 1003.40  109.89
  -4  -4   4  952.30   82.69
  -4  -4   4  836.22   91.79
  -4  -4   4  927.21   93.39
   4  -4  -4  967.60   88.69
  -4   4   4  964.50   71.59
  -4   4   4  999.20   88.19
   4   4  -4 1016.80  104.99
  -4   4   4  986.50   93.49
   4   4  -4 1142.29  116.79
  -2  -4   4 3300.77  209.08
  -2  -4   4 3562.14  230.58
   2  -4  -4 3575.74  211.48
  -2  -4   4 3563.24  210.28
   2  -4  -4 3713.83  193.58
   2  -4  -4 3981.30  206.88
   2  -4  -4 3645.54  235.78
  -2   4   4 3381.86  234.58
  -2   4   4 3415.56  244.98
  -2   4   4 3617.04  216.88
   2   4  -4 3911.51  226.28
   2   4  -4 3578.24  212.18
   2   4  -4 3858.51  245.58
   0  -4  -4 2490.45  124.99
   0  -4   4 2447.35  169.28
   0  -4   4 2313.77  126.39
   0  -4   4 2439.36  162.48
   0  -4   4 2422.86  156.78
   0  -4  -4 2380.16  151.58
   0  -4  -4 2278.07  172.18
   0  -4  -4 2257.07  140.29
   0   4   4 2416.06  147.89
   0   4  -4 2384.56  172.08
   0   4  -4 2010.50  183.08
  -2  -4  -4  172.98   30.90
   2  -4   4  137.29   38.80
   2  -4   4  188.98   47.90
  -2  -4  -4  142.09   45.50
   2   4   4  157.18   44.40
   2   4   4  218.98   64.79
  -2   4  -4  129.49   49.60
  -2   4  -4  165.28   46.70
   2   4   4  279.37   45.60
  -4  -4  -4   51.29   35.90
  -4  -4  -4   88.29   48.70
   4  -4   4   35.70   40.50
  -4  -4  -4   89.29   40.30
   4  -4   4  108.69   41.70
  -4   4  -4   40.50   34.10
   4   4   4   93.79   50.49
  -4   4  -4   75.59   52.89
   4   4   4   60.29   37.70
  -9  -5   4  155.28   49.20
   9  -5  -4  150.18   59.29
   9  -5  -4  126.09   60.19
  -9  -5   4  130.69   78.59
   9   5  -4  185.68   64.59
  -9   5   4  155.48   54.09
  -9   5   4  145.09   48.20
   9   5  -4  127.69   61.19
  -7  -5   4   61.39   30.70
   7  -5  -4   10.40   41.90
  -7  -5   4   57.59   56.99
   7  -5  -4   71.09   44.10
  -7   5   4   34.20   30.10
   7   5  -4   74.59   51.59
   7   5  -4   22.50   44.40
  -7   5   4   72.09   35.50
   5  -5  -4  895.21  108.59
   5  -5  -4  822.92  103.89
  -5  -5   4  904.81   78.89
  -5  -5   4  745.03   81.69
  -5  -5   4  709.23   58.69
   5   5  -4  921.31  102.49
  -5   5   4  705.03   80.09
   5   5  -4  948.51  110.19
  -5   5   4  760.72   62.69
  -5   5   4  908.41   92.99
  -3  -5   4 3740.23  201.98
  -3  -5   4 3562.54  218.08
   3  -5  -4 3423.76  202.48
  -3  -5   4 3416.56  203.48
   3  -5  -4 3299.27  226.78
   3  -5  -4 3458.15  195.28
   3  -5  -4 3330.67  205.18
  -3   5   4 3482.55  210.68
   3   5  -4 2997.60  199.78
  -3   5   4 3348.47  191.18
   3   5  -4 3277.87  229.98
   3   5  -4 3493.35  219.58
   1  -5  -4 1018.20   71.49
   1  -5  -4 1051.39   76.69
  -1  -5   4 1301.37   98.09
   1  -5  -4 1045.10   81.99
  -1  -5   4 1346.37  123.19
   1  -5  -4  992.00   86.69
  -1  -5   4 1263.17   93.59
   1   5  -4 1139.79  124.79
  -1   5   4 1175.78   94.79
   1   5  -4 1147.79  110.69
  -1  -5  -4 1024.20   88.59
   1  -5   4  906.41   83.59
  -1  -5  -4  927.81  111.39
   1  -5   4  924.81   91.69
   1   5   4  818.62  107.89
   1   5   4  829.52   87.09
  -1   5  -4 1092.49  103.79
  -1   5  -4 1092.29  122.79
   3  -5   4  494.85   90.69
   3  -5   4  601.74   77.79
  -3  -5  -4  638.94   93.39
  -3  -5  -4  534.15   73.69
  -3  -5  -4  579.84   56.29
   3   5   4  606.74   72.59
  -3   5  -4  402.06  103.59
  -3   5  -4  498.55   83.49
   3   5   4  638.44   80.69
   3   5   4  691.63  141.59
  -5  -5  -4  346.47   57.29
  -5  -5  -4  233.58   77.39
   5  -5   4  264.27   68.39
  -5  -5  -4  208.98   56.29
   5  -5   4  170.08   53.19
  -5   5  -4  246.38   62.69
  -5   5  -4  329.17   87.19
   5   5   4  231.58   71.29
   5   5   4  289.87   65.09
  -8  -6   4  528.55   67.59
   8  -6  -4  549.95  109.19
  -8  -6   4  349.67  100.29
   8  -6  -4  417.96   96.69
   8   6  -4  568.24  120.79
  -8   6   4  584.04   86.49
  -8   6   4  433.76   83.69
   8   6  -4  637.54  113.69
  -6  -6   4 1356.66  104.89
   6  -6  -4 1536.25  146.19
   6  -6  -4 1576.44  148.69
   6  -6  -4 1350.06   81.99
  -6  -6   4 1121.59  107.09
  -6  -6   4 1313.67   85.69
  -6   6   4 1193.58   89.29
   6   6  -4 1835.52  156.38
   6   6  -4 1573.24  145.89
  -6   6   4 1408.46  122.89
  -6   6   4 1317.17  123.89
   4  -6  -4  348.87   78.69
  -4  -6   4  251.27   43.20
   4  -6  -4  251.97   57.69
  -4  -6   4  184.68   44.90
   4  -6  -4  240.68   50.39
   4   6  -4  256.57   59.19
  -4   6   4  212.38   49.50
   4   6  -4  348.27   31.70
   4   6  -4  369.16   75.99
  -4   6   4  290.37   53.19
   2  -6  -4  549.65   61.09
  -2  -6   4  592.54   60.19
   2  -6  -4  486.15   46.50
  -2  -6   4  468.05   71.49
   2  -6  -4  648.64   75.99
   2  -6  -4  443.56   55.59
  -2  -6   4  453.45   52.99
  -2   6   4  556.14   62.89
   2   6  -4  549.74   70.49
   2   6  -4  579.34   79.89
   0  -6  -4  401.86   50.59
   0  -6   4  518.65   61.19
   0  -6  -4  427.76   49.80
   0  -6   4  364.86   48.50
   0  -6  -4  522.35   67.69
   0   6   4  490.35   61.59
   0   6  -4  490.55   94.49
   0   6  -4  526.35  100.69
   2  -6   4  569.84   78.39
  -2  -6  -4  915.81   87.59
  -2   6  -4  744.63  101.89
  -2   6  -4  898.91   99.49
   2   6   4  596.74  110.39
   2   6   4  700.83   81.59
  -4  -6  -4  866.91   96.19
   4  -6   4 1029.90  106.39
  -4  -6  -4 1074.79  130.29
   4  -6   4  693.93   94.79
  -4  -6  -4  958.60   76.69
   4   6   4 1085.79  126.59
   4   6   4  930.91  104.59
  -4   6  -4  795.62  123.19
  -4   6  -4 1126.79  139.99
   9  -7  -4   32.30   45.40
  -9  -7   4   46.00   35.00
  -9  -7   4   82.79   71.89
   9  -7  -4   83.89   50.59
  -9   7   4  -39.90   38.80
   9   7  -4   45.30   57.39
   9   7  -4  -19.60   49.90
  -9   7   4   -7.60   41.30
  -7  -7   4   90.59   59.69
  -7  -7   4  109.49   32.40
  -7   7   4  144.19   46.50
  -7   7   4  126.99   43.80
   7   7  -4   58.89   44.70
   7   7  -4   35.90   47.10
   5  -7  -4  243.48   66.29
   5  -7  -4  336.77   75.09
  -5  -7   4  391.46   46.70
  -5  -7   4  399.36   44.90
  -5   7   4  484.25   81.09
   5   7  -4  251.67   65.59
  -5   7   4  304.57   45.10
   5   7  -4  276.57   37.90
   5   7  -4  336.27   71.19
  -5   7   4  433.56   60.79
  -3  -7   4  763.82   65.39
   3  -7  -4  641.74   83.39
   3  -7  -4  606.34   70.49
   3  -7  -4  668.73   71.69
   3  -7  -4  616.84   63.39
   3  -7  -4  772.02   97.09
  -3  -7   4  800.82   71.19
  -3  -7   4  664.23   75.59
   3   7  -4  600.94   74.79
  -3   7   4  733.23   65.99
  -3   7   4  788.12   98.09
  -3   7   4  702.83   63.49
   3   7  -4  495.35   75.29
  -1  -7   4 1101.29   91.19
   1  -7  -4  992.10   85.39
  -1  -7   4 1221.28   82.39
  -1  -7   4 1021.70  108.39
   1  -7  -4 1024.70   98.29
   1  -7  -4 1085.89   88.59
   1   7  -4 1132.89  138.89
   1   7  -4 1026.90  112.09
  -1   7   4 1037.30   95.79
  -1   7   4 1100.59   92.99
  -1  -7  -4 1249.47   99.19
   1  -7   4 1383.56  103.49
   1  -7   4 1518.25  120.29
  -1  -7  -4 1425.16  113.39
  -1   7  -4 1473.25  145.19
   1   7   4 1268.37  109.39
  -1   7  -4 1463.15  131.69
   1   7   4 1311.27  141.49
   3  -7   4  791.92   94.09
   3  -7   4  934.71   95.99
  -3  -7  -4  901.01   89.29
  -3  -7  -4  992.80  121.19
   3   7   4  836.92  117.59
   3   7   4  892.01   95.69
  -3   7  -4  748.33  112.49
  -3   7  -4  845.62  103.19
   3   7   4  993.70   72.49
  -5  -7  -4  287.97   85.29
  -5  -7  -4  270.07   58.89
   5  -7   4  225.68   66.19
   5   7   4  217.28   63.69
   8  -8  -4  390.76   91.49
   8  -8  -4  427.96   93.09
  -8  -8   4  277.17   96.99
  -8  -8   4  377.86   54.89
  -8   8   4  389.66   78.09
   8   8  -4  403.06   90.79
   8   8  -4  383.16   97.79
  -8   8   4  270.47   64.09
   6  -8  -4  509.55   94.19
   6  -8  -4  295.87   74.29
  -6  -8   4  440.36   49.30
  -6  -8   4  438.46   49.70
   6   8  -4  388.06   82.89
  -6   8   4  419.36   78.99
  -6   8   4  389.76   52.69
  -6   8   4  434.76   78.29
   6   8  -4  454.35   87.79
   4  -8  -4 1850.61  152.38
   4  -8  -4 1958.20  136.39
  -4  -8   4 1852.51  118.69
  -4  -8   4 1991.60  137.49
  -4  -8   4 1736.23  123.79
   4  -8  -4 1797.72  133.09
  -4  -8   4 1862.61  122.19
   4  -8  -4 1784.12  162.88
   4   8  -4 1951.00  108.09
  -4   8   4 1779.52  132.99
   4   8  -4 1942.81  154.38
   4   8  -4 1976.60  150.28
  -4   8   4 1909.81  147.59
  -4   8   4 1804.52  122.59
   2  -8  -4 1100.09  103.19
   2  -8  -4 1076.79   94.99
  -2  -8   4  971.90   74.19
  -2  -8   4  913.31   80.69
   2  -8  -4 1126.49   74.69
   2   8  -4 1173.48  111.79
  -2   8   4  928.11   89.19
   0  -8  -4  716.23   70.39
   0  -8  -4  763.92   67.49
   0  -8   4  622.94   71.49
   0  -8   4  603.94   61.59
   0  -8  -4  807.42   74.59
   0   8  -4  843.22  104.69
   0   8  -4  831.02   97.99
   0   8   4  627.94   70.29
   2  -8   4  382.86   71.79
   2  -8   4  405.66   57.49
  -2  -8  -4  384.86   54.09
  -2  -8  -4  448.16   60.59
  -2  -8  -4  431.16   95.09
  -2   8  -4  474.65   87.19
   2   8   4  409.86   89.89
   2   8   4  563.94   67.69
  -2   8  -4  208.78   63.69
  -4  -8  -4  516.95  112.99
   4  -8   4  300.27   71.19
   4  -8   4  355.16   69.59
  -4  -8  -4  343.67   59.69
   4   8   4  364.96   73.79
   4   8   4  333.07   86.39
  -4   8  -4  220.48   70.19
  -4   8  -4  452.95   87.29
   9  -9  -4   53.99   56.39
  -9  -9   4    3.30   72.59
   9   9  -4   -0.40   64.89
   9   9  -4   10.90   51.99
   7  -9  -4  415.86   90.29
  -7  -9   4  276.57   57.09
  -7  -9   4  407.56   38.30
  -7  -9   4  269.37   89.09
   7  -9  -4  408.66   96.09
  -7  -9   4  390.26   47.30
   7   9  -4  463.15   98.89
  -7   9   4  276.77   71.09
   7   9  -4  352.06   84.99
  -7   9   4  358.16   73.89
   5  -9  -4  609.64   87.99
   5  -9  -4  576.74   87.69
  -5  -9   4  741.23   68.09
  -5  -9   4  572.64   58.59
  -5  -9   4  714.83   56.69
  -5   9   4  688.33   84.79
   5   9  -4  497.15   55.19
   5   9  -4  675.53   87.09
   5   9  -4  586.24   92.29
  -5   9   4  621.04   77.09
  -5   9   4  615.24   68.19
   3  -9  -4  122.09   44.50
   3  -9  -4   95.59   36.30
  -3  -9   4   46.80   27.10
  -3  -9   4   68.39   20.40
   3  -9  -4  129.79   35.00
  -3  -9   4   53.09   24.10
   3  -9  -4   45.00   28.40
  -3   9   4   49.90   21.80
   3   9  -4  140.09   44.20
  -3   9   4   70.49   31.80
   3   9  -4  143.49   37.20
   3   9  -4  161.28   48.30
   1  -9  -4 2261.37  136.29
  -1  -9   4 2119.49  161.28
  -1  -9   4 2154.88  142.59
   1  -9  -4 2113.59  150.38
  -1  -9   4 2209.08  113.39
   1  -9  -4 2218.28  147.99
   1   9  -4 2213.58  179.18
  -1   9   4 1967.70  144.49
  -1  -9  -4 1088.29   87.49
  -1  -9  -4 1004.20   80.19
   1  -9   4 1054.69   99.59
   1  -9   4 1052.99   82.39
  -1  -9  -4 1209.88  142.49
  -1  -9  -4 1104.59   93.99
  -1   9  -4 1046.40  124.59
  -1   9  -4 1078.39  116.89
   1   9   4 1067.49  126.39
   1   9   4 1066.79   95.29
  -3  -9  -4  133.79   48.30
  -3  -9  -4  106.79   35.60
   3  -9   4  108.09   39.30
   3  -9   4  134.69   43.60
   3   9   4   69.49   36.80
   3   9   4   65.69   49.90
  -3   9  -4  142.89   60.19
  -5  -9  -4  155.98   66.19
   5  -9   4  106.09   47.70
   5  -9   4   88.89   57.59
   5   9   4  151.58   56.79
   5   9   4  190.08   64.29
  -5   9  -4   66.39   49.50
  -5   9  -4  172.18   69.29
   8 -10  -4  483.15  101.29
  -8 -10   4  401.66  115.19
   8 -10  -4  586.54  106.99
  -8  10   4  699.93   92.39
   8  10  -4  358.96   93.49
  -8  10   4  437.06   85.19
   8  10  -4  468.15   99.49
   6 -10  -4  108.49   46.10
   6 -10  -4   79.99   38.80
  -6 -10   4   65.99   30.00
   6  10  -4   92.49   55.99
  -6  10   4  117.39   44.70
  -6  10   4  103.59   40.70
   6  10  -4   87.19   48.10
  -6  10   4  101.79   38.40
   4 -10  -4  824.92  104.29
   4 -10  -4  690.73   76.29
   4 -10  -4  656.63   49.80
  -4 -10   4  512.75   47.80
  -4 -10   4  440.06   52.69
   4 -10  -4  620.64   84.29
   4  10  -4  624.64   81.89
   4  10  -4  846.62   91.29
  -4  10   4  616.94   80.09
   4  10  -4  650.53   54.09
  -4  10   4  684.33   72.49
   2 -10  -4  224.18   49.40
  -2 -10   4  164.58   34.80
   2 -10  -4  238.78   50.59
   2 -10  -4  149.99   29.30
  -2 -10   4  176.48   42.50
   2 -10  -4  238.18   42.80
   2 -10  -4  215.58   47.50
   2  10  -4  209.48   57.39
   2  10  -4  249.18   59.69
  -2  10   4  149.99   40.30
  -2  10   4  212.98   29.00
   0 -10   4  871.31   55.69
   0 -10  -4  932.81   73.49
   0 -10  -4  876.71  100.39
   0 -10  -4  772.52   64.29
   0 -10   4  754.62   79.69
   0 -10  -4  892.11   84.19
   0  10  -4  922.21  108.09
   0  10  -4  813.32  104.39
   0  10   4  710.33   80.09
  -2 -10  -4 1129.99   84.39
  -2 -10  -4 1112.99  129.29
   2 -10   4 1242.08  111.29
   2 -10   4 1208.28   94.79
  -2  10  -4  880.11  122.29
   2  10   4 1086.49  105.09
   2  10   4 1441.86  271.47
  -2  10  -4 1218.58  129.59
   4 -10   4  347.07   73.19
  -4 -10  -4  438.56  102.49
   4 -10   4  357.66   65.09
   4  10   4  355.36   71.79
  -4  10  -4  278.27   79.39
   4  10   4  369.46   97.49
  -4  10  -4  281.37   74.19
   9 -11  -4  -14.70   56.89
  -9 -11   4   48.70   71.79
   9 -11  -4   52.19   45.70
   9  11  -4   23.90   56.39
  -9  11   4   69.99   48.70
  -9  11   4   70.69   46.30
   9  11  -4   -9.70   62.99
   7 -11  -4  192.28   63.69
  -7 -11   4   64.69   71.99
  -7 -11   4  160.48   33.80
   7 -11  -4  123.79   64.89
   7  11  -4  294.57   91.49
   7  11  -4  294.77   69.29
  -7  11   4  129.49   49.00
  -7  11   4  182.98   58.09
   5 -11  -4  294.97   74.09
   5 -11  -4  365.16   73.29
   5  11  -4  335.57   79.69
   5  11  -4  400.46   46.80
  -5  11   4  335.97   71.99
  -5  11   4  296.87   62.49
   5  11  -4  384.06   74.39
   3 -11  -4  513.85   67.89
  -3 -11   4  453.85   58.09
  -3 -11   4  420.46   47.50
  -3 -11   4  457.45   49.30
  -3 -11   4  482.75   44.70
   3 -11  -4  437.56   60.39
   3 -11  -4  484.75   67.49
   3 -11  -4  491.95   54.79
   3  11  -4  500.95   72.89
   3  11  -4  621.44   78.69
  -3  11   4  436.66   63.69
  -3  11   4  476.75   55.79
   3  11  -4  580.54   61.59
  -1 -11   4  106.69   38.70
   1 -11  -4   61.79   23.60
   1 -11  -4   45.00   21.80
   1 -11  -4   40.70   34.80
  -1 -11   4   95.29   29.20
  -1 -11   4   74.39   17.80
   1 -11  -4   52.49   30.30
   1  11  -4   34.50   36.10
  -1  11   4   82.69   32.40
   1 -11   4   33.20   26.00
  -1 -11  -4   85.79   31.50
  -1 -11  -4   91.99   43.60
   1 -11   4   75.99   22.70
   1  11   4   17.80   28.00
   1  11   4   95.79   43.50
  -1  11  -4   94.69   40.70
  -1  11  -4   82.69   41.00
  -3 -11  -4  422.36   91.89
   3 -11   4  275.27   54.39
   3 -11   4  292.77   60.89
  -3  11  -4  351.46   87.29
  -3  11  -4  211.18   71.09
   3  11   4  147.29   55.99
   3  11   4  289.57   57.29
   8 -12  -4  105.89   57.49
  -8 -12   4   38.80   78.79
   8 -12  -4   57.99   46.40
  -8  12   4   93.19   44.60
   8  12  -4  166.88   65.89
   8  12  -4  142.89   73.09
  -8  12   4  120.89   59.49
   6 -12  -4   62.99   38.30
  -6 -12   4    1.80   49.30
   6 -12  -4  116.49   53.09
   6  12  -4  215.78   69.99
  -6  12   4   30.00   38.20
   6  12  -4   83.99   47.80
  -6  12   4    2.30   38.00
   4 -12  -4  613.34   77.29
  -4 -12   4  653.33   74.19
   4 -12  -4  617.44   95.39
  -4 -12   4  706.83   77.79
   4 -12  -4  773.22   85.99
  -4  12   4  830.02   91.79
   4  12  -4  549.95   80.49
   4  12  -4  664.53   60.19
   4  12  -4  601.14   83.49
  -4  12   4  815.62   81.69
   4  12  -4  629.44   85.89
   2 -12  -4 1699.33  138.89
   2 -12  -4 1552.34  128.19
  -2 -12   4 1929.11   99.89
   2 -12  -4 1604.84  111.09
  -2 -12   4 1796.72  111.29
   2 -12  -4 1572.94  105.59
  -2 -12   4 1828.12  132.89
  -2  12   4 1909.21  109.49
   2  12  -4 1693.03  152.98
   0 -12  -4 1457.15  137.19
   0 -12  -4 1335.47  116.69
   0 -12   4 1402.76   93.69
   0 -12   4 1552.14  114.19
   0  12  -4 1341.27  135.89
   0  12  -4 1320.57  136.89
   2 -12   4   33.80   28.40
   2 -12   4    9.60   27.20
  -2 -12  -4   49.99   41.70
  -2  12  -4   59.89   47.60
  -2  12  -4   50.99   38.20
   2  12   4   81.69   33.50
   2  12   4  -56.89   42.40
  -4 -12  -4  169.48   65.09
   4 -12   4  231.98   57.19
   4 -12   4  181.78   57.49
   4  12   4  180.98   61.89
   4  12   4  173.38   52.99
  -4  12  -4  252.57   72.79
  -4  12  -4  171.48   66.69
   7 -13  -4   87.69   58.79
  -7 -13   4  102.39   62.69
   7 -13  -4   20.10   36.60
  -7  13   4   47.90   47.50
   7  13  -4   78.79   58.39
   7  13  -4   90.39   51.29
  -7  13   4   67.89   43.10
   5 -13  -4  520.25   71.29
  -5 -13   4  700.13   79.09
   5 -13  -4  600.34  108.49
   5 -13  -4  667.03   84.29
  -5  13   4  582.14   86.29
   5  13  -4  419.76   83.99
   5  13  -4  656.13   87.09
  -5  13   4  611.44   93.39
  -3 -13   4  682.93   76.49
   3 -13  -4  841.72   89.99
   3 -13  -4  656.13   73.09
  -3 -13   4  719.83   55.79
   3 -13  -4  706.03   71.59
   3  13  -4  649.93   83.29
   3  13  -4  756.92   66.59
  -3  13   4  661.33   71.19
   3  13  -4  675.83   87.59
  -3  13   4  716.33   85.09
   1 -13  -4  117.19   51.69
  -1 -13   4   67.99   25.60
   1 -13  -4   84.79   34.60
  -1 -13   4   88.39   21.50
  -1 -13   4  124.99   37.60
  -1 -13   4   57.89   41.20
   1  13  -4   91.49   48.70
  -1  13   4   68.09   28.00
   1  13  -4   55.49   38.50
   1 -13   4   26.10   25.20
  -1 -13  -4   31.30   24.00
  -1 -13  -4   62.49   52.29
   1  13   4  108.39   48.20
  -1  13  -4  115.59   42.40
   1  13   4   57.39   27.10
  -1  13  -4  107.99   40.10
  -3 -13  -4  150.68   59.79
   3 -13   4  146.79   46.20
   3 -13   4  115.89   45.10
   3  13   4  149.49   45.20
   3  13   4   44.30   42.90
  -3  13  -4   98.49   53.19
  -3  13  -4  125.89   53.89
   8 -14  -4  150.98   67.19
   8 -14  -4  155.08   62.09
  -8 -14   4   57.59   69.89
  -8  14   4  175.68   59.39
  -8  14   4   76.09   59.69
   8  14  -4  107.49   56.59
   8  14  -4  165.08   77.99
  -6 -14   4  896.41   87.49
   6 -14  -4  825.42  115.39
   6 -14  -4  726.93   95.39
   6  14  -4  621.84  112.29
  -6  14   4  641.04  113.99
   6  14  -4  802.52  101.09
  -6  14   4  898.81  105.29
  -4 -14   4 1248.58  108.99
  -4 -14   4 1091.09   93.29
   4 -14  -4 1139.49  100.99
   4 -14  -4 1046.10  104.29
   4 -14  -4 1156.08  112.59
  -4  14   4 1330.67  112.29
   4  14  -4 1112.99   88.59
   4  14  -4 1006.80  102.69
   4  14  -4 1061.39  114.29
  -4  14   4 1121.69  115.99
   4  14  -4 1091.09  107.59
   2 -14  -4  159.28   37.30
   2 -14  -4  215.18   52.89
  -2 -14   4  113.89   24.40
  -2 -14   4  164.18   45.40
   2 -14  -4  242.18   51.79
  -2  14   4  217.78   38.10
   2  14  -4  111.89   45.30
   2  14  -4  288.87   63.59
  -2  14   4  256.77   53.29
   0 -14  -4  621.34   78.79
   0 -14   4  906.31   78.09
   0 -14  -4  661.73  106.99
   0 -14   4  655.53   64.69
   0  14   4  660.93  126.39
   0  14  -4  621.84  103.59
   0  14  -4  701.03   98.99
  -2 -14  -4  448.66   96.59
   2 -14   4  479.15   70.69
   2  14   4  379.16   65.79
  -2  14  -4  447.96   94.19
  -2  14  -4  366.76   80.19
   2  14   4  507.35  106.09
   4 -14   4  372.76  108.99
   4 -14   4  544.05   74.29
  -4 -14  -4  393.06   96.39
   4 -14   4  435.86   79.59
   4  14   4  375.56   87.69
  -4  14  -4  395.66   96.79
  -4  14  -4  359.36  113.29
   4  14   4  304.97   71.09
   7 -15  -4  144.29   69.49
  -7 -15   4  101.49   43.00
   7 -15  -4   94.69   51.19
   7  15  -4  120.79   57.99
  -7  15   4  257.67   66.59
  -7  15   4  118.19   51.99
   5 -15  -4   62.59   32.60
   5 -15  -4   83.39   48.80
  -5 -15   4   32.60   35.00
   5 -15  -4   44.70   38.30
   5  15  -4  -16.30   43.70
   5  15  -4  110.29   51.59
  -5  15   4   73.09   43.00
   5  15  -4   78.49   41.60
  -5  15   4   95.39   45.70
  -3 -15   4   41.80   31.90
   3 -15  -4   16.90   26.60
   3 -15  -4  148.19   41.50
   3 -15  -4  134.59   34.70
   3 -15  -4   14.20   32.90
  -3  15   4   41.30   33.90
   3  15  -4   61.69   32.00
  -3  15   4    9.00   34.70
  -1 -15   4  314.47   59.39
  -1 -15   4  310.07   44.60
  -1 -15   4  243.88   39.10
   1 -15  -4  362.96   72.99
   1 -15  -4  339.67   66.89
  -1 -15   4  301.57   48.00
   1  15  -4  311.17   74.09
  -1  15   4  231.48   80.39
   1  15  -4  415.96   74.19
  -1 -15  -4  393.36   69.69
  -1 -15  -4  350.36   84.79
   1 -15   4  276.07   46.80
   1 -15   4  285.67   55.39
   1 -15   4  356.56   67.59
   1  15   4  329.57   57.49
  -1  15  -4  300.27   72.79
  -1  15  -4  294.47   73.99
   1  15   4  182.28   59.39
   3 -15   4  109.89   46.00
  -3 -15  -4  118.09   65.29
   3 -15   4  164.08   50.49
   3 -15   4  205.38   69.09
  -3  15  -4  163.18   57.49
   3  15   4  162.68   65.89
  -3  15  -4  109.29   57.99
   8 -16  -4   35.00   60.09
  -8  16   4   18.50   60.29
   8  16  -4   -3.90   63.29
   6 -16  -4   22.40   54.69
   6 -16  -4  169.38   49.10
  -6 -16   4  180.68   45.30
   6 -16  -4  113.49   43.10
   6  16  -4  141.09   50.19
   6  16  -4  153.08   61.29
  -6  16   4   59.79   54.09
  -6  16   4   39.20   50.69
  -4 -16   4  116.89   44.10
   4 -16  -4  179.38   43.60
   4 -16  -4   97.79   44.50
   4 -16  -4  178.68   57.49
  -4  16   4  241.18   56.39
  -4  16   4  191.28   53.39
   4  16  -4  190.58   45.60
   2 -16  -4  527.15   73.59
   2 -16  -4  398.46   76.99
  -2 -16   4  551.34   53.79
   2 -16  -4  420.96   61.09
  -2 -16   4  585.44   74.69
  -2  16   4  587.84   58.59
   2  16  -4  534.25   86.79
   2  16  -4  550.64   98.99
  -2  16   4  632.24   76.49
   0 -16   4  368.16   66.29
   0 -16   4  543.25   58.99
   0 -16  -4  507.35   81.39
   0 -16  -4  367.76   86.79
   0 -16   4  577.04   74.89
   0  16   4  496.65   65.09
   0  16  -4  472.65   88.09
   0  16  -4  526.55   91.99
   2 -16   4   96.19   36.90
  -2 -16  -4  104.49   63.39
   2 -16   4   88.59   41.40
  -2  16  -4   90.29   48.70
   2  16   4   10.50   41.50
  -2  16  -4   85.39   46.60
   2  16   4  104.29   38.40
  -7 -17   4   53.09   41.00
   7 -17  -4  -30.10   47.50
   7 -17  -4   68.49   52.89
   7  17  -4  -35.40   44.30
  -7  17   4   74.59   49.20
  -7  17   4   48.00   46.00
   7  17  -4   66.29   62.89
   5 -17  -4  130.39   46.70
   5 -17  -4  143.79   48.50
  -5 -17   4   89.79   40.40
  -5  17   4  192.58   63.69
   5  17  -4  106.19   60.19
   5  17  -4   16.30   41.80
  -5  17   4  139.09   50.59
   5  17  -4  140.19   47.70
  -3 -17   4  224.08   39.40
   3 -17  -4  194.28   54.99
  -3 -17   4  140.69   47.30
   3 -17  -4  257.67   53.29
  -3  17   4  130.69   48.10
   3  17  -4  131.29   57.69
   3  17  -4  168.88   49.70
  -1 -17   4  193.68   54.69
   1 -17  -4  327.87   74.19
  -1 -17   4  264.37   43.10
   1 -17  -4  327.17   66.89
   1  17  -4  208.88   56.89
   1  17  -4  289.77   65.59
  -1  17   4  249.88   50.49
   1 -17   4   82.49   32.90
  -1 -17  -4   84.39   34.50
   1 -17   4  107.19   41.20
   1 -17   4   81.89   36.00
  -1 -17  -4  -20.50   43.80
  -1  17  -4   96.89   44.00
   1  17   4  167.18   59.69
  -1  17  -4   41.50   50.29
   1  17   4   41.90   31.40
  -3 -17  -4  -75.19   57.69
   3 -17   4   90.09   46.00
   3 -17   4   78.09   43.50
  -3  17  -4  117.29   61.59
   3  17   4   -0.50   36.00
   6 -18  -4   -5.30   43.30
   6 -18  -4   48.20   53.19
  -6 -18   4   84.09   38.60
   6 -18  -4  -15.90   32.10
   6  18  -4   15.40   44.00
   6  18  -4   65.99   42.80
   6  18  -4  -22.80   48.20
  -6  18   4   46.20   44.80
  -6  18   4    7.40   46.40
   4 -18  -4   46.40   38.30
   4  18  -4  -46.10   37.50
  -4  18   4   84.59   42.70
  -4  18   4   25.50   37.50
   4  18  -4   67.09   36.80
   4  18  -4    9.50   39.10
   2 -18  -4  148.79   44.60
  -2 -18   4  115.39   44.50
  -2 -18   4  109.19   30.70
   2 -18  -4  123.59   49.80
  -2  18   4  128.89   42.30
  -2  18   4  127.79   38.10
   2  18  -4   82.79   44.10
   0 -18  -4  351.06   72.99
   0 -18   4  478.45   57.69
   0 -18   4  434.06   77.69
   0 -18  -4  486.75   98.49
   0  18  -4  402.06   85.69
   0  18   4  550.64   65.99
   0  18  -4  431.56   78.99
   2 -18   4  229.28   58.39
   2 -18   4  182.28   47.00
  -2 -18  -4   92.49   42.20
   2 -18   4  150.68   46.50
  -2  18  -4  166.38   58.39
  -2  18  -4  163.48   59.09
   2  18   4  151.58   58.39
   2  18   4  175.48   47.60
  -7 -19   4   27.10   48.30
   7 -19  -4   48.00   40.50
   7 -19  -4  170.58   72.29
   7  19  -4   39.20   49.60
  -7  19   4  140.79   62.29
   7  19  -4  -19.40   66.59
   5 -19  -4  536.45   90.49
   5 -19  -4  600.04   88.39
  -5 -19   4  609.44   80.59
   5 -19  -4  560.94   80.89
   5  19  -4  677.93   95.89
  -5  19   4  487.35   93.89
   5  19  -4  572.84   85.59
  -5  19   4  510.05   97.79
   3 -19  -4  239.28   57.39
  -3 -19   4  291.27   68.89
   3 -19  -4  408.26   70.09
  -3 -19   4  336.67   50.59
   3  19  -4  288.37   66.99
  -3  19   4  348.67   67.19
   3  19  -4  169.78   59.59
  -3  19   4  453.55   79.79
  -1 -19   4  311.37   75.79
   1 -19  -4  133.59   45.90
   1 -19  -4  181.28   64.79
  -1 -19   4  175.38   37.00
   1  19  -4   19.10   44.20
  -1  19   4  103.89   42.80
   1  19  -4  151.38   49.10
   1 -19   4   64.19   37.40
  -1 -19  -4  -18.90   45.50
  -1 -19  -4   96.89   42.90
   1 -19   4  221.08   55.49
   1 -19   4  208.38   47.00
   1  19   4  193.78   68.19
  -1  19  -4  113.29   54.29
  -1  19  -4  108.69   57.59
   1  19   4  135.79   38.60
  -6 -20   4   95.69   45.40
   6 -20  -4   11.70   48.70
   6 -20  -4   14.30   53.69
  -6  20   4   49.90   46.50
   6  20  -4   84.19   52.09
   6  20  -4   33.30   55.19
  -6  20   4   35.60   58.19
   6  20  -4   87.89   51.69
   4 -20  -4  130.59   50.49
  -4 -20   4  237.98   57.79
  -4  20   4  179.38   55.79
   4  20  -4  242.98   70.09
   4  20  -4  192.28   56.29
  -4  20   4   99.09   47.60
   2 -20  -4   93.69   63.19
   2 -20  -4   72.29   37.90
  -2 -20   4  105.89   42.80
  -2 -20   4   -7.10   27.40
  -2  20   4  119.19   49.10
   2  20  -4   60.49   43.40
   2  20  -4   72.69   48.10
  -2  20   4   91.09   39.20
   0 -20  -4   -8.50   32.70
   0 -20   4  105.89   33.50
   0 -20  -4   35.70   52.39
   0 -20   4   79.79   43.00
   0  20  -4   85.99   49.90
   0  20   4   -6.40   31.20
   0  20   4  -17.40   44.50
   0  20  -4   26.60   41.70
   2 -20   4   68.19   82.59
  -2 -20  -4  187.88   73.99
  -2 -20  -4  119.89   43.70
   2 -20   4  117.09   53.19
   2 -20   4   57.99   48.40
   2  20   4    9.90   50.59
  -2  20  -4  150.68   60.59
  -2  20  -4  300.27   71.79
   2  20   4  147.19   43.90
   5 -21  -4   83.39   42.90
  -5 -21   4    3.80   39.60
   5 -21  -4   13.50   42.30
   5  21  -4   38.60   44.10
   5  21  -4  178.78   54.69
  -5  21   4   12.30   46.10
  -5  21   4  109.99   55.49
  -3 -21   4   28.20   39.60
   3 -21  -4   11.60   28.30
  -3 -21   4   41.40   32.20
   3 -21  -4    6.60   46.30
   3  21  -4   32.20   40.50
  -3  21   4  109.99   48.60
  -3  21   4   33.50   38.10
   1 -21  -4  208.48   54.39
   1 -21  -4  187.18   74.89
  -1 -21   4  171.98   41.00
  -1 -21   4  163.88   57.29
  -1  21   4  266.97   53.09
   1  21  -4  261.57   65.19
   1  21  -4  230.18   61.49
  -1 -21  -4  152.58   99.99
   1 -21   4   97.59   59.99
   1 -21   4   76.19   42.40
  -1  21  -4   21.50   52.19
   1  21   4   89.59   55.29
   1  21   4   31.30   36.80
  -4 -22   4   29.60   38.00
   4 -22  -4   -6.30   33.00
   4  22  -4   38.10   48.90
  -4  22   4  -33.50   44.80
  -4  22   4   31.60   55.29
   4  22  -4   -7.50   46.20
  -2 -22   4   83.89   53.69
  -2 -22   4   32.40   31.70
   2 -22  -4   55.49   33.00
  -2  22   4  114.39   50.69
   2  22  -4   90.99   44.60
   2  22  -4  -48.90   38.90
  -2  22   4  -52.69   39.20
   0 -22   4  118.79   39.50
   0 -22   4  127.89   62.29
   0 -22  -4   76.59   44.60
   0 -22  -4  175.98   71.99
   0  22  -4   39.40   51.19
   0  22   4  127.29   43.40
   0  22   4   28.50   55.79
   0  22  -4   69.09   45.50
  -3 -23   4   35.70   39.60
  -3 -23   4  -19.30   38.40
   3 -23  -4   72.39   60.19
   3 -23  -4  100.89   69.49
   3  23  -4   90.79   47.90
  -3  23   4    3.40   49.40
  -3  23   4   42.90   46.40
  -1 -23   4  113.29   41.50
   1 -23  -4  120.69   82.69
   1  23  -4  100.29   53.89
   1  23  -4  156.68   58.69
  -1  23   4  173.08   47.20
   2 -24  -4   52.39   68.59
  -2 -24   4  -29.50   45.30
   2 -24  -4   -8.40   33.40
   2  24  -4   43.50   47.10
  -2  24   4   55.69   40.10
   2  24  -4  -18.20   44.20
   8   0  -5   61.49   46.10
   8   0  -5   18.60   37.40
  -8   0   5  -27.10   24.90
  -6   0   5  -18.90   18.60
   6   0  -5   40.20   32.30
   6   0  -5  -30.90   26.60
  -4   0   5    9.00   15.60
   4   0  -5   -7.80   32.20
   4   0  -5    3.10   27.30
   2   0  -5   22.70   21.30
   2   0  -5   -4.90    8.80
  -2   0   5  -20.90   13.60
   0   0  -5   -4.20   21.10
   0   0   5    1.60   15.80
   0   0  -5   16.60   30.90
   0   0   5  -18.20   15.70
   2   0   5   54.79   32.70
  -2   0  -5    0.80   31.30
  -2   0  -5  -70.89   40.50
   4   0   5   61.29   33.90
  -4   0  -5    4.90   38.50
  -4   0  -5   -2.30   36.10
   4   0   5  -34.30   36.20
  -9  -1   5   73.29   36.20
   9  -1  -5   44.10   47.30
   9  -1  -5   79.89   53.09
   9   1  -5   89.79   53.39
  -9   1   5  120.29   43.30
   9   1  -5    8.90   49.50
   7  -1  -5    8.40   43.30
   7  -1  -5   14.30   34.30
  -7  -1   5   35.10   28.50
   7   1  -5  -57.89   36.10
   7   1  -5  -13.50   38.50
  -7   1   5   11.40   24.70
   5  -1  -5   74.19   41.70
   5  -1  -5   73.59   40.60
  -5  -1   5  234.78   52.39
   5   1  -5  151.28   52.49
   5   1  -5   81.99   47.20
  -5   1   5  230.68   50.69
   3  -1  -5  200.98   61.49
   3  -1  -5  216.28   43.80
   3  -1  -5  221.38   34.50
  -3  -1   5  253.77   65.59
   3   1  -5  116.39   49.20
  -3   1   5  146.49   40.00
   3   1  -5  227.18   66.99
   3   1  -5  216.88   21.90
  -1  -1   5 1571.64  127.49
  -1  -1   5 1567.74  101.89
   1  -1  -5 1799.42  129.79
   1  -1  -5 1864.41  161.88
  -1   1   5 1617.54  110.69
   1   1  -5 1628.24  157.48
   1   1  -5 1755.62  139.19
  -1   1   5 1748.33  132.99
  -1  -1  -5  700.63   67.19
  -1  -1  -5  782.52   98.49
   1  -1   5  529.75   73.59
   1  -1   5  724.83   90.59
  -1   1  -5  819.72  106.19
   1   1   5  561.14   77.99
  -1   1  -5  770.12   77.89
   1   1   5  622.94   90.89
  -3  -1  -5  782.72  102.39
  -3  -1  -5  703.73   78.09
   3  -1   5  547.95  124.89
   3  -1   5  572.54   83.69
   3   1   5  768.42  102.29
   3   1   5  703.73   88.49
  -3   1  -5  692.73   82.69
  -3   1  -5  587.74  105.89
   8  -2  -5  359.66   87.89
  -8  -2   5  290.97   57.09
   8  -2  -5  287.77   74.29
   8   2  -5  171.48   65.49
   8   2  -5  248.38   70.39
  -8   2   5  199.88   57.49
   6  -2  -5  100.09   50.99
  -6  -2   5  252.97   50.69
   6  -2  -5  296.57   72.99
   6   2  -5  111.69   49.30
   6   2  -5  283.37   73.99
  -6   2   5  226.38   51.29
   4  -2  -5  978.50   80.09
   4  -2  -5  916.91  117.09
  -4  -2   5 1113.89   94.69
   4  -2  -5 1001.20  115.69
   4   2  -5  920.61  117.99
  -4   2   5  978.70   93.89
  -2  -2   5  116.09   43.60
   2  -2  -5  105.79   33.40
   2  -2  -5  142.49   52.79
  -2  -2   5  121.09   35.10
   2  -2  -5  120.59   24.80
   2  -2  -5   76.69   28.00
   2   2  -5  139.39   41.20
  -2   2   5  119.19   37.10
   2   2  -5  213.98   63.09
   0  -2   5   70.19   40.30
   0  -2  -5   45.00   18.90
   0  -2   5   36.00   19.60
   0  -2  -5   37.60   33.00
   0  -2   5   57.59   26.10
   0   2   5   75.49   30.10
   0   2  -5   80.89   33.10
   0   2   5   75.69   27.80
   0   2  -5   65.09   36.50
   2  -2   5  162.58   50.99
  -2  -2  -5  146.19   36.60
  -2  -2  -5  131.49   50.29
   2  -2   5   48.50   33.00
   2   2   5   97.79   40.70
  -2   2  -5  121.49   43.40
   2   2   5  156.88   51.89
   2   2   5  143.19   42.00
  -4  -2  -5  147.59   59.79
   4  -2   5   39.60   38.50
  -4  -2  -5   11.90   42.90
   4  -2   5   54.29   47.50
  -4  -2  -5  178.28   47.60
   4   2   5  101.89   54.39
  -4   2  -5   80.99   44.20
  -4   2  -5   84.69   53.19
   4   2   5  165.68   56.29
   9  -3  -5   58.29   56.39
   9  -3  -5  129.59   49.90
  -9  -3   5   69.59   36.60
  -9   3   5   84.29   45.10
   9   3  -5   66.89   54.19
   9   3  -5   29.90   47.40
  -9   3   5   47.30   47.10
   7  -3  -5   30.30   48.40
   7  -3  -5   72.99   49.50
  -7  -3   5   24.80   26.80
  -7   3   5   -7.60   26.20
   7   3  -5  -21.10   42.40
  -7   3   5   45.40   34.10
   7   3  -5   56.99   51.39
  -5  -3   5 1034.50   96.09
   5  -3  -5 1063.19  125.59
   5  -3  -5 1102.09  126.69
   5   3  -5 1127.49  126.19
  -5   3   5 1018.90  100.59
   5   3  -5 1148.99  121.49
   3  -3  -5  486.25   53.89
  -3  -3   5  464.95   60.09
   3  -3  -5  454.45   64.19
   3  -3  -5  511.85   97.89
  -3  -3   5  428.56   66.29
  -3   3   5  452.75   61.99
   3   3  -5  445.86   88.89
   3   3  -5  487.55   95.59
   1  -3  -5 1600.14  150.38
   1  -3  -5 1736.53  120.59
   1  -3  -5 1792.92  112.19
  -1  -3   5 1858.41  136.69
  -1  -3   5 1937.71  151.38
  -1  -3   5 1750.82   99.79
   1   3  -5 1738.33  148.09
  -1   3   5 1802.82  152.68
  -1   3   5 1989.70  141.29
   1  -3   5  797.52   70.69
  -1  -3  -5  838.22   68.09
   1  -3   5  921.91   95.69
  -1  -3  -5  818.62  100.59
   1  -3   5  930.01   93.29
  -1   3  -5  806.92   88.39
   1   3   5  864.51  110.89
  -1   3  -5  964.70  118.59
   1   3   5  849.32   90.49
   3  -3   5  319.27   70.99
  -3  -3  -5  428.76   61.99
   3  -3   5  554.74   78.59
  -3  -3  -5  438.56   80.79
   3   3   5  284.47   78.39
  -3   3  -5  526.35   74.69
  -3   3  -5  503.05  103.69
   3   3   5  438.96   80.99
  -8  -4   5   77.29   33.10
   8  -4  -5  114.29   58.29
   8  -4  -5  140.59   57.39
   8   4  -5   86.99   60.89
  -8   4   5  111.19   43.80
  -8   4   5  109.99   45.70
   8   4  -5  173.28   65.49
   6  -4  -5  640.84  116.79
  -6  -4   5  552.44   71.09
   6  -4  -5  556.94  107.19
  -6   4   5  731.13   57.79
   6   4  -5  731.53  106.39
  -6   4   5  544.05   74.99
  -6   4   5  622.84   78.69
   6   4  -5  620.94   96.99
   4  -4  -5  378.76   83.39
   4  -4  -5  336.17   54.29
   4  -4  -5  312.87   79.19
  -4  -4   5  234.68   47.60
   4  -4  -5  220.78   53.99
  -4   4   5  282.67   58.99
   4   4  -5  253.97   73.19
   4   4  -5  404.46   84.49
   2  -4  -5  802.22   66.29
   2  -4  -5  888.71  104.59
   2  -4  -5  807.42   63.69
  -2  -4   5  626.34   84.39
  -2  -4   5  733.43   78.39
  -2   4   5  779.42   80.49
   2   4  -5  814.12  106.89
   0  -4   5  971.10   70.29
   0  -4  -5 1201.88  119.09
   0  -4   5 1057.09   99.49
   0  -4   5  979.90   97.29
   0  -4  -5 1195.18   71.09
   0   4  -5 1110.59  128.49
   0   4   5  930.81   95.49
   0   4  -5 1156.08  112.79
   2  -4   5  140.49   45.00
   2  -4   5  151.08   44.70
  -2  -4  -5  153.78   46.90
   2   4   5  110.69   57.09
  -2   4  -5  128.69   40.90
   2   4   5  127.29   43.70
  -2   4  -5   43.40   34.10
  -4  -4  -5   54.79   40.70
   4  -4   5  139.89   49.50
  -4  -4  -5  244.68   79.19
  -4  -4  -5  165.38   51.19
   4  -4   5  164.88   54.29
  -4   4  -5  148.69   46.60
  -4   4  -5  191.18   67.59
   4   4   5  159.78   51.69
   4   4   5   99.19   53.59
  -9  -5   5   87.29   40.10
   9  -5  -5  174.18   72.19
   9  -5  -5   67.69   51.29
  -9   5   5   78.19   47.20
  -9   5   5   -0.70   38.40
   9   5  -5  127.49   61.79
   9   5  -5   68.99   52.99
   7  -5  -5  285.07  104.89
   7  -5  -5  393.06   74.19
  -7  -5   5  215.08   48.00
   7  -5  -5  226.28   99.69
  -7   5   5  285.27   39.90
   7   5  -5  251.77   74.09
  -7   5   5  290.37   60.59
   7   5  -5  271.07   82.09
  -5  -5   5 1331.37  103.79
   5  -5  -5  980.40  121.69
   5  -5  -5 1152.58  129.79
  -5   5   5 1202.98  111.69
  -5   5   5 1247.78   87.49
   5   5  -5 1188.18  126.09
   5   5  -5 1329.17  136.69
   3  -5  -5 1582.94  143.29
   3  -5  -5 1418.46  105.39
   3  -5  -5 1453.25  111.49
  -3  -5   5 1526.45  127.89
  -3  -5   5 1533.85  117.19
  -3   5   5 1591.04  125.29
   3   5  -5 1569.74  147.79
   3   5  -5 1531.75  133.79
   3   5  -5 1523.75  128.29
   1  -5  -5  409.96   78.19
  -1  -5   5  367.36   54.59
   1  -5  -5  373.76   44.90
   1  -5  -5  339.97   41.60
   1  -5  -5  366.06   33.70
   1   5  -5  553.24   79.99
  -1   5   5  297.87   60.39
  -1   5   5  407.56   64.79
   1  -5   5  348.67   64.49
   1  -5   5  275.47   59.99
   1  -5   5  320.47   42.30
  -1  -5  -5  338.07   74.49
   1   5   5  314.67   60.69
   1   5   5  370.56   85.49
  -1   5  -5  222.28   55.19
  -1   5  -5  153.18   60.29
  -3  -5  -5  329.37   66.99
   3  -5   5  505.65   74.59
  -3  -5  -5  346.47   47.60
  -3  -5  -5  239.88   70.29
   3  -5   5  367.36   71.19
   3   5   5  381.26   94.59
  -3   5  -5  269.77   84.19
   3   5   5  435.46   81.09
  -3   5  -5  288.07   63.79
   8  -6  -5  161.28   66.39
   8  -6  -5   73.79   52.09
  -8  -6   5  115.29   34.90
  -8   6   5  148.99   52.29
   8   6  -5   84.49   56.19
   8   6  -5   31.60   43.70
  -8   6   5   80.99   43.30
   6  -6  -5  178.48   58.29
   6  -6  -5   93.99   46.60
  -6  -6   5  276.07   37.00
   6  -6  -5  201.28   54.49
  -6  -6   5  183.78   40.60
   6   6  -5  218.48   65.59
  -6   6   5  193.78   51.99
  -6   6   5  315.07   61.19
   6   6  -5  202.88   67.09
   4  -6  -5  174.78   42.90
  -4  -6   5   88.39   38.90
   4  -6  -5  172.78   55.59
   4  -6  -5  168.68   43.10
   4  -6  -5  209.68   64.49
  -4  -6   5  128.39   34.50
   4   6  -5  206.48   61.29
  -4   6   5   92.79   35.50
   4   6  -5  275.77   66.69
  -2  -6   5  557.54   65.19
   2  -6  -5  768.52   94.49
   2  -6  -5  618.44   62.29
   2  -6  -5  570.24   50.29
  -2  -6   5  563.04   68.59
   2   6  -5  693.63   86.29
   2   6  -5  719.73   98.79
  -2   6   5  502.85   66.69
   0  -6   5  171.88   49.40
   0  -6  -5  132.99   31.90
   0  -6   5  116.59   22.70
   0  -6   5   99.39   35.50
   0  -6   5  117.39   37.90
   0  -6  -5  134.09   47.90
   0   6  -5  102.79   49.50
   0   6   5  141.09   38.70
   0   6  -5   71.59   40.40
   2  -6   5  167.88   46.30
   2  -6   5   86.29   40.40
  -2  -6  -5  138.69   42.70
   2   6   5  131.99   45.00
   2   6   5   81.69   50.79
  -2   6  -5  130.99   62.69
  -2   6  -5  189.38   53.89
   4  -6   5  114.39   52.49
  -4  -6  -5   69.59   47.20
  -4  -6  -5  116.99   60.09
  -4   6  -5   83.89   78.99
   4   6   5   81.39   54.29
  -4   6  -5   57.09   44.70
   4   6   5   48.70   40.20
  -9  -7   5  694.23   77.09
   9  -7  -5  392.16   96.69
   9  -7  -5  550.44  108.29
   9   7  -5  339.07   88.49
  -9   7   5  471.15   90.89
   9   7  -5  517.75  110.29
  -9   7   5  720.73   92.79
  -7  -7   5  297.47   51.59
   7  -7  -5  260.07   70.89
  -7  -7   5  446.06   43.70
   7  -7  -5  312.47   79.99
  -7   7   5  426.76   76.99
  -7   7   5  332.47   70.59
   7   7  -5  193.08   71.29
  -7   7   5  355.66   50.49
   7   7  -5  356.06   81.69
  -5  -7   5  632.54   66.99
   5  -7  -5  493.55   74.19
   5  -7  -5  621.64   92.89
   5  -7  -5  589.14   89.59
   5   7  -5  596.34   49.60
   5   7  -5  640.54  107.99
  -5   7   5  531.75   67.19
   5   7  -5  769.92   99.39
  -5   7   5  604.14   78.79
   3  -7  -5  712.23   76.29
  -3  -7   5  792.72   78.99
  -3  -7   5  807.02   75.59
   3  -7  -5  663.73   65.39
   3  -7  -5  736.43   94.99
   3   7  -5  868.81   90.69
  -3   7   5  714.03   80.69
   3   7  -5  697.43   87.39
   3   7  -5  774.12   98.59
  -1  -7   5  868.91   82.89
  -1  -7   5  969.60   90.59
   1  -7  -5  897.41   78.89
   1  -7  -5  845.92   97.69
  -1   7   5  968.70   92.69
   1   7  -5  851.81  110.99
   1   7  -5  836.82  107.29
  -1  -7  -5  617.84   80.09
   1  -7   5  802.42   86.69
   1  -7   5  701.63   76.59
   1   7   5  767.52   84.09
  -1   7  -5  683.43  102.79
  -1   7  -5  659.93   90.09
   1   7   5  649.14  125.39
  -3  -7  -5  307.07   62.69
   3  -7   5  322.87   65.39
   3  -7   5  309.57   67.79
  -3  -7  -5  326.57   87.89
  -3   7  -5  112.89   54.19
   3   7   5  272.17   66.19
  -3   7  -5  283.77   73.29
   3   7   5  305.67   77.09
   8  -8  -5  156.98   54.89
   8  -8  -5  121.49   57.99
  -8  -8   5   35.90   30.60
  -8   8   5   13.80   36.40
   8   8  -5   75.69   54.79
  -8   8   5   44.60   41.10
   8   8  -5   80.09   55.89
  -6  -8   5  193.18   38.30
   6  -8  -5  100.79   52.09
  -6  -8   5  201.58   38.20
   6  -8  -5   73.89   43.80
   6   8  -5  105.59   28.30
  -6   8   5   68.79   38.20
   6   8  -5   82.59   53.19
  -6   8   5   38.90   35.20
  -6   8   5  133.19   49.40
   6   8  -5  115.89   62.59
   4  -8  -5   62.59   38.30
   4  -8  -5  157.48   40.60
  -4  -8   5   96.39   38.10
  -4  -8   5   17.80   33.60
   4  -8  -5  155.18   60.09
   4  -8  -5   59.59   31.50
  -4   8   5   56.49   25.70
   4   8  -5  155.48   51.99
   4   8  -5   70.09   44.40
  -4   8   5   15.50   23.30
  -2  -8   5 1627.64  111.09
   2  -8  -5 1548.45   94.09
   2  -8  -5 1525.45  119.09
  -2  -8   5 1604.24  121.19
   2  -8  -5 1572.04  137.89
   2   8  -5 1553.64  143.89
   2   8  -5 1758.92  158.18
  -2   8   5 1559.44  127.29
   0  -8  -5  451.25   57.39
   0  -8  -5  466.55   68.29
   0  -8   5  577.54   71.99
   0  -8   5  568.04   71.19
   0  -8   5  599.74   58.39
   0   8  -5  367.16   81.49
   0   8   5  563.34   71.29
   0   8  -5  412.66   86.39
   2  -8   5  104.89   38.70
   2  -8   5   72.89   37.50
  -2  -8  -5  103.69   44.90
  -2  -8  -5  176.58   61.09
   2   8   5  175.38   56.59
   2   8   5  136.19   46.60
  -2   8  -5  161.18   54.89
  -2   8  -5  184.98   67.09
   4  -8   5  245.18   62.39
  -4  -8  -5  191.18   74.69
   4  -8   5  202.08   63.59
  -4  -8  -5  228.28   56.19
   4   8   5  266.27   74.99
   4   8   5  207.48   62.69
  -4   8  -5  233.78   65.19
  -4   8  -5  250.17   69.29
   9  -9  -5   87.59   65.69
  -9  -9   5  113.09   40.80
   9   9  -5   20.10   59.39
  -9   9   5   86.39   56.29
  -9   9   5  120.89   61.99
   9   9  -5  134.69   74.29
  -7  -9   5  864.91   75.69
  -7  -9   5  957.50   79.39
   7  -9  -5 1118.19  132.19
  -7  -9   5  824.72   86.29
   7  -9  -5 1001.40  124.49
   7   9  -5  853.91  122.79
  -7   9   5  998.90   86.19
   7   9  -5 1098.39  130.69
  -7   9   5  973.60  111.99
  -7   9   5  743.63  110.29
  -5  -9   5 1678.03  114.69
   5  -9  -5 1727.93  153.18
   5  -9  -5 1525.55  123.49
  -5  -9   5 1549.74  116.39
   5  -9  -5 1542.05  155.58
  -5  -9   5 1517.55  108.79
   5   9  -5 1792.52  156.68
   5   9  -5 1693.33  161.48
  -5   9   5 1372.26  122.09
   5   9  -5 1627.14   96.79
  -5   9   5 1598.84  140.49
  -3  -9   5  282.47   64.79
   3  -9  -5  338.27   59.59
  -3  -9   5  337.87   52.89
   3  -9  -5  322.77   47.90
  -3  -9   5  434.46   70.59
   3  -9  -5  377.16   73.09
   3   9  -5  263.77   62.09
   3   9  -5  324.87   79.19
  -3   9   5  408.66   61.09
   1  -9  -5  347.37   60.19
  -1  -9   5  431.56   42.80
  -1  -9   5  412.36   57.59
  -1  -9   5  277.17   46.90
   1  -9  -5  266.47   51.39
  -1   9   5  317.47   59.39
   1   9  -5  385.46   85.49
   1   9  -5  312.17   73.49
   1  -9   5  519.95   72.89
  -1  -9  -5  619.54   93.69
  -1  -9  -5  574.84   69.59
  -1  -9  -5  394.16   72.99
   1  -9   5  478.45   59.19
  -1   9  -5  480.85   89.29
   1   9   5  514.65   70.29
   3  -9   5  126.09   39.50
  -3  -9  -5  104.19   46.20
  -3  -9  -5   41.60   37.40
   3  -9   5   50.49   40.50
  -3   9  -5   42.00   45.00
   3   9   5  109.89   47.60
  -3   9  -5    9.40   42.80
   3   9   5   48.60   52.09
   8 -10  -5  142.39   56.19
   8 -10  -5   55.99   52.29
  -8  10   5   26.40   43.00
   8  10  -5  118.09   70.29
   8  10  -5   34.80   57.89
  -8  10   5   45.90   37.80
  -6 -10   5  165.18   33.90
   6 -10  -5  174.68   59.69
  -6  10   5  252.37   61.59
  -6  10   5  176.18   53.59
   6  10  -5  157.78   59.49
   6  10  -5  139.59   39.50
   6  10  -5  193.08   63.29
   4 -10  -5 1048.20  113.09
  -4 -10   5 1044.00   94.29
   4 -10  -5  844.32  102.09
  -4 -10   5 1247.78   87.19
   4 -10  -5 1035.40  105.99
   4  10  -5  986.30  108.19
  -4  10   5 1218.88   95.69
   4  10  -5 1164.48  120.99
  -4  10   5 1187.68  111.99
   4  10  -5 1030.50  112.89
  -2 -10   5  599.54   64.09
  -2 -10   5  571.04   49.80
   2 -10  -5  394.86   66.99
   2 -10  -5  341.27   53.99
  -2  10   5  528.45   68.89
   2  10  -5  517.55   95.79
   2  10  -5  472.65   89.69
   0 -10  -5  327.57   57.79
   0 -10   5  413.96   72.19
   0 -10   5  358.46   43.80
   0 -10   5  341.37   50.99
   0 -10  -5  408.56   92.29
   0 -10  -5  313.57   49.00
   0 -10  -5  319.77   56.49
   0  10   5  419.76   61.29
   0  10  -5  389.96   82.59
   0  10  -5  372.56   79.79
  -2 -10  -5  701.23   74.09
   2 -10   5  847.22   93.09
  -2 -10  -5  763.92  111.09
  -2  10  -5  568.34  109.59
   2  10   5  678.03  125.99
   2  10   5  714.43   88.89
  -2  10  -5  756.22  103.69
   9 -11  -5   69.89   54.19
   9 -11  -5   82.49   52.59
  -9  11   5   18.70   50.29
  -9  11   5   14.90   51.29
   9  11  -5  199.68   70.09
   9  11  -5  117.89   70.99
   7 -11  -5  505.55   90.69
   7 -11  -5  493.25  103.29
  -7 -11   5  439.06   61.99
   7  11  -5  435.66  102.79
   7  11  -5  466.75   92.89
  -7  11   5  402.16   85.69
  -7  11   5  353.76   74.49
  -5 -11   5   26.60   24.40
   5 -11  -5   64.19   40.30
  -5 -11   5   30.20   20.00
   5 -11  -5    3.40   26.80
  -5 -11   5   94.09   27.90
   5 -11  -5   97.59   47.00
  -5  11   5   81.29   35.90
   5  11  -5   35.20   37.10
   5  11  -5   54.89   21.90
  -5  11   5   92.49   39.50
   3 -11  -5 1629.64  131.89
  -3 -11   5 1432.06  103.89
  -3 -11   5 1376.86  116.99
   3 -11  -5 1513.55  127.89
  -3 -11   5 1372.46   95.79
   3 -11  -5 1496.25  103.69
   3  11  -5 1369.96  133.59
  -3  11   5 1530.05  128.69
   3  11  -5 1613.84  142.89
  -1 -11   5 1169.38  101.79
   1 -11  -5 1251.47  109.39
   1 -11  -5 1196.98  122.99
   1 -11  -5 1111.29   97.39
   1  11  -5 1221.28  129.49
  -1  11   5 1181.18  107.29
   1  11  -5 1422.36  137.59
   1 -11   5  107.89   40.30
   1 -11   5  167.98   51.59
  -1 -11  -5  196.48   65.99
  -1 -11  -5  153.08   35.70
   1 -11   5   90.99   30.50
  -1 -11  -5  199.08   41.00
   1  11   5   63.99   49.80
   1  11   5  115.19   42.80
  -1  11  -5  196.28   59.49
  -3 -11  -5  203.88   73.19
   3 -11   5  114.69   50.99
   3 -11   5  119.89   46.30
  -3  11  -5  130.19   60.19
  -3  11  -5  152.48   58.79
   3  11   5  146.09   59.79
   3  11   5   88.39   48.80
  -8 -12   5  189.48   41.10
   8 -12  -5  142.09   55.99
   8 -12  -5  129.39   67.09
  -8  12   5   80.89   49.50
  -8  12   5  189.08   58.79
   8  12  -5   71.79   70.29
   8  12  -5   95.19   59.19
   6 -12  -5  119.99   48.20
  -6 -12   5  120.59   42.40
   6 -12  -5  155.38   55.29
   6 -12  -5  112.69   60.19
  -6  12   5  119.99   47.10
   6  12  -5  131.99   51.89
  -6  12   5   55.59   35.20
   6  12  -5  150.08   60.39
  -4 -12   5  321.47   51.89
  -4 -12   5  255.27   52.09
  -4 -12   5  352.36   60.29
  -4 -12   5  340.37   41.30
   4 -12  -5  319.27   63.49
   4 -12  -5  282.57   65.39
   4  12  -5  291.07   60.69
   4  12  -5  361.46   73.39
  -4  12   5  501.15   71.99
  -4  12   5  340.07   57.49
   4  12  -5  298.87   68.89
  -2 -12   5  320.87   65.99
   2 -12  -5  370.26   68.39
   2 -12  -5  276.67   52.19
  -2 -12   5  507.55   57.39
   2 -12  -5  377.66   72.79
  -2  12   5  374.66   67.49
   2  12  -5  423.66   86.09
   2  12  -5  414.36   83.09
   0 -12   5  781.02   82.69
   0 -12   5  617.44   54.19
   0 -12  -5  738.93   79.59
   0 -12  -5  673.93   99.69
   0  12  -5  535.55   98.89
   0  12  -5  719.53  118.99
   0  12   5  636.24   77.49
  -2 -12  -5  456.35  105.79
   2 -12   5  309.67   51.09
   2 -12   5  451.05   77.49
   2  12   5  462.95   78.39
  -2  12  -5  252.47   68.59
  -2  12  -5  338.37   80.59
   2  12   5  352.66   93.29
   7 -13  -5  411.76   94.99
   7 -13  -5  212.68   55.99
   7  13  -5  206.28   79.59
   7  13  -5  432.56   87.89
  -7  13   5  362.06   79.49
  -7  13   5  304.97   72.59
   5 -13  -5  177.28   51.99
  -5 -13   5  156.78   43.70
   5 -13  -5  274.87   59.59
   5  13  -5  190.08   52.79
  -5  13   5  180.88   48.90
   5  13  -5  190.18   56.89
   5  13  -5  162.98   56.29
  -5  13   5  164.78   50.79
  -3 -13   5  543.05   65.49
  -3 -13   5  470.35   54.49
  -3 -13   5  607.54   72.79
   3 -13  -5  610.14   79.09
   3 -13  -5  611.14   71.79
   3 -13  -5  661.43   65.09
   3 -13  -5  686.33   74.79
   3 -13  -5  372.86   98.69
   3  13  -5  612.04   86.59
  -3  13   5  697.63   84.89
   3  13  -5  778.42   93.89
  -3  13   5  616.84   59.99
   1 -13  -5  438.56   96.69
  -1 -13   5  363.96   58.89
   1 -13  -5  316.77   63.19
  -1 -13   5  339.57   32.40
  -1  13   5  322.67   60.39
   1  13  -5  471.85   86.09
   1  13  -5  316.37   78.29
  -1 -13  -5  196.68   69.99
   1 -13   5  224.38   50.19
  -1 -13  -5  225.48   51.89
   1  13   5  181.58   67.19
   1  13   5   78.39   39.60
  -3 -13  -5  518.95  115.49
   3 -13   5  323.77   71.79
  -3  13  -5  440.86  136.59
   3  13   5  376.46   69.19
  -3  13  -5  337.77   82.69
   3  13   5  376.56  103.79
   8 -14  -5  131.39   68.69
   8 -14  -5  200.18   65.49
  -8  14   5  143.69   53.19
   8  14  -5   24.50   66.39
   8  14  -5  194.28   68.49
   6 -14  -5  287.87   81.89
   6 -14  -5  368.76   70.99
   6 -14  -5  443.26   84.79
  -6 -14   5  422.76   69.69
  -6  14   5  391.36   82.19
   6  14  -5  370.96   83.09
   6  14  -5  297.97   73.39
  -6  14   5  592.84   83.79
  -4 -14   5  489.15   64.89
  -4 -14   5  393.66   53.49
   4 -14  -5  316.47   65.69
   4 -14  -5  357.56   64.29
   4  14  -5  447.46   65.49
   4  14  -5  380.66   83.99
  -4  14   5  423.46   82.89
   4  14  -5  542.95   90.99
  -4  14   5  426.46   61.09
   2 -14  -5  136.99   49.20
  -2 -14   5  164.18   47.70
  -2 -14   5   25.40   41.50
   2 -14  -5  105.29   36.40
  -2 -14   5  181.68   40.00
   2  14  -5  233.48  101.49
  -2  14   5   95.49   40.10
   0 -14  -5   41.50   26.90
   0 -14   5   53.89   29.70
   0 -14   5   26.50   24.90
   0 -14  -5   35.70   46.60
   0  14   5   64.89   36.40
   0  14  -5   91.59   46.40
   0  14  -5   39.60   54.39
  -2 -14  -5  186.28   81.49
   2 -14   5   92.99   42.60
  -2  14  -5  110.79   52.29
   2  14   5  107.19   51.89
  -2  14  -5  108.09   55.79
   7 -15  -5    9.20   32.50
   7 -15  -5   70.29   48.40
   7 -15  -5  -35.00   42.30
  -7  15   5   71.69   48.90
   7  15  -5  -25.60   48.80
  -7  15   5   49.30   42.60
   7  15  -5  -86.09   52.29
   5 -15  -5   66.19   39.90
  -5 -15   5  117.19   45.00
   5 -15  -5   59.99   38.90
  -5 -15   5   75.19   38.90
   5  15  -5   42.20   43.00
  -5  15   5   64.99   41.40
   5  15  -5   47.30   43.20
  -5  15   5   10.90   49.90
   5  15  -5    2.30   30.00
   3 -15  -5   60.29   33.20
   3 -15  -5   49.10   34.40
   3 -15  -5   40.60   35.80
  -3 -15   5   80.49   37.20
  -3  15   5  120.79   46.40
  -3  15   5   48.10   32.90
   3  15  -5   61.39   45.00
   3  15  -5   48.30   47.50
   1 -15  -5  531.35   98.89
  -1 -15   5  300.77   38.60
  -1 -15   5  387.46   57.99
  -1 -15   5  502.85   68.59
   1 -15  -5  457.75   77.19
   1  15  -5  552.94   98.29
  -1  15   5  444.36   71.69
   1  15  -5  508.05   90.29
   1 -15   5 1586.14  127.19
  -1 -15  -5 1583.74  131.39
  -1 -15  -5 1387.26  153.18
   1 -15   5 1325.97  100.99
  -1  15  -5 1591.54  156.48
   1  15   5 1353.56  122.19
   1  15   5 1386.56  156.68
  -1  15  -5 1467.75  153.38
   6 -16  -5  467.45   82.79
   6 -16  -5  369.26   89.59
   6 -16  -5  440.76   80.99
  -6 -16   5  687.13   81.19
   6  16  -5  548.25   97.29
   6  16  -5  453.05   85.69
   6  16  -5  481.45   83.19
  -6  16   5  486.45   92.49
   4 -16  -5  142.49   48.50
   4 -16  -5   99.79   45.40
  -4 -16   5   92.19   40.60
   4 -16  -5  123.79   44.10
   4  16  -5  218.48   62.69
  -4  16   5  127.59   50.29
   4  16  -5  139.79   54.29
  -4  16   5  122.89   42.60
   4  16  -5  142.79   36.80
  -2 -16   5  575.04   48.90
   2 -16  -5  690.73   92.59
  -2 -16   5  759.72   88.39
   2 -16  -5  835.72   91.59
  -2  16   5  631.64   81.69
   2  16  -5  732.73  101.39
   0 -16   5  219.38   53.19
   0 -16  -5  285.97   79.29
   0 -16   5  175.98   36.40
   0 -16  -5  107.59   42.10
   0 -16   5  106.39   38.90
   0  16  -5  176.98   59.79
   0  16   5  130.19   44.30
   0  16  -5  188.48   61.19
   2 -16   5   25.40   38.30
  -2 -16  -5  129.59   66.69
   2 -16   5   24.30   36.40
   2  16   5   25.20   47.60
  -2  16  -5   87.69   56.39
  -2  16  -5  127.19   57.49
   7 -17  -5   -0.50   55.29
   7 -17  -5  -15.50   47.20
  -7 -17   5   -6.90   38.00
   7 -17  -5  -20.30   36.10
  -7  17   5  -35.30   47.50
   7  17  -5  -11.70   42.90
   7  17  -5  -32.90   56.19
   7  17  -5    7.30   45.90
  -7  17   5  -15.70   39.60
   5 -17  -5  349.27   74.39
   5 -17  -5  430.96   69.99
   5  17  -5  603.04   81.59
  -5  17   5  507.85   84.29
  -5  17   5  305.57   76.39
   5  17  -5  455.15   79.49
   5  17  -5  478.65   88.99
  -3 -17   5  815.12   93.09
   3 -17  -5  766.42   89.89
   3 -17  -5  591.14   83.79
   3 -17  -5  726.33   93.69
  -3  17   5  852.31   76.39
  -3  17   5  822.22   96.89
   3  17  -5  659.73   99.09
   3  17  -5  663.83  112.49
   1 -17  -5   59.09   49.60
  -1 -17   5    1.10   37.00
  -1 -17   5    2.00   33.20
   1 -17  -5   12.40   34.20
  -1 -17   5   57.49   26.30
  -1  17   5   22.80   31.60
   1  17  -5   20.20   42.50
   1  17  -5   83.89   47.60
  -1 -17  -5  459.45   98.39
   1 -17   5  311.57   53.79
   1 -17   5  434.76   74.79
  -1 -17  -5  295.77   61.39
   1 -17   5  397.76   69.49
   1  17   5  401.06   69.39
  -1  17  -5  319.47   78.59
  -1  17  -5  324.87   80.29
   1  17   5  430.96   95.59
   6 -18  -5  284.37   63.19
   6 -18  -5  283.57   67.29
  -6 -18   5  253.77   59.59
  -6  18   5  233.28   70.69
   6  18  -5  243.18   62.29
   6  18  -5  203.68   68.49
  -6  18   5  192.68   66.69
   6  18  -5  268.57   73.39
  -4 -18   5  369.96   69.19
   4 -18  -5  539.25   91.29
   4  18  -5  461.35   92.39
   4  18  -5  534.05   83.29
  -4  18   5  389.16   69.29
  -4  18   5  521.45   91.59
  -2 -18   5  523.95   75.79
  -2 -18   5  329.07   44.50
   2 -18  -5  481.65   82.19
   2  18  -5  536.65   87.59
  -2  18   5  323.07   64.89
   2  18  -5  445.36   85.49
   0 -18   5   12.50   37.60
   0 -18  -5  -17.60   44.60
   0 -18  -5  -44.10   30.10
   0 -18   5  -26.70   34.20
   0  18  -5  -11.70   41.00
   0  18  -5   34.50   40.30
   0  18   5  -43.20   45.70
   0  18   5   13.00   35.60
   5 -19  -5   76.59   34.70
  -5 -19   5   21.00   39.10
  -5  19   5    5.20   38.50
   5  19  -5   25.00   45.20
   5  19  -5   85.79   49.10
  -5  19   5  -18.20   47.80
   5  19  -5   72.79   44.20
   3 -19  -5  294.67   71.69
   3 -19  -5  253.87   58.99
  -3 -19   5  292.47   62.09
  -3  19   5  187.48   53.19
   3  19  -5  345.57   75.19
   3  19  -5  287.07   66.79
  -3  19   5  224.68   48.70
  -1 -19   5  498.75   85.59
  -1 -19   5  459.95   55.19
   1 -19  -5  617.04   98.59
   1 -19  -5  471.45   79.69
   1  19  -5  505.05   90.59
   1  19  -5  472.65   87.49
  -1  19   5  510.95   76.79
   1 -19   5  331.37   64.29
   1 -19   5  244.18   54.09
  -1 -19  -5  257.27   94.29
   1 -19   5  308.17   63.49
  -1 -19  -5  335.17   91.89
  -1  19  -5  138.39   66.29
  -1  19  -5  350.86   77.99
   1  19   5  240.98   57.49
   6 -20  -5  178.88   55.89
  -6 -20   5   -2.40   39.60
   6 -20  -5  110.39   59.39
  -6  20   5   76.49   52.59
  -6  20   5   92.39   55.49
   6  20  -5  -79.99   76.09
   6  20  -5   64.49   56.09
  -4 -20   5   99.09   48.80
   4 -20  -5  217.38   56.59
  -4  20   5  273.87   65.29
   4  20  -5  102.49   53.59
   4  20  -5  239.98   59.49
  -4  20   5  227.38   60.69
   2 -20  -5   61.59   54.89
  -2 -20   5   94.49   46.00
   2 -20  -5  129.09   42.70
  -2 -20   5   67.89   29.70
   2  20  -5   78.39   53.79
   2  20  -5  114.89   49.50
  -2  20   5   70.39   36.80
   0 -20  -5  186.58   59.29
   0 -20  -5  455.85   99.99
   0  20   5  396.16   90.09
   0  20   5  278.07   60.69
   0  20  -5  389.36   80.39
   5 -21  -5  111.19   55.09
  -5 -21   5  102.49   52.69
   5  21  -5  326.87   74.69
  -5  21   5  188.68   59.89
  -3 -21   5  107.89   46.80
   3 -21  -5  100.89   40.10
   3 -21  -5  -89.09   61.89
   3  21  -5   81.69   49.60
  -3  21   5   43.70   45.00
  -3  21   5   82.69   41.50
   1 -21  -5   67.29   39.10
   1 -21  -5   64.99   56.59
  -1 -21   5   34.30   33.40
  -1  21   5   63.69   40.80
   1  21  -5   38.30   47.10
   4 -22  -5  340.67   66.49
  -4 -22   5  258.97   70.69
  -4  22   5  369.76   78.19
   4  22  -5  312.87   70.99
   4  22  -5  440.46   87.69
  -4  22   5  291.17   69.39
   2 -22  -5    8.90   41.70
   2 -22  -5  -30.90   70.19
  -2 -22   5   76.19   96.09
   2  22  -5  -27.90   42.00
   2  22  -5   43.50   54.39
  -2  22   5  109.79   45.60
  -8   0   6  124.89   44.30
   8   0  -6  175.18   67.79
   8   0  -6  105.89   51.09
   6   0  -6  154.58   62.29
   6   0  -6  192.68   68.29
  -6   0   6  257.97   52.59
   4   0  -6  352.66   88.39
   4   0  -6  249.68   37.20
   4   0  -6  310.47   83.19
  -4   0   6  352.66   63.09
   2   0  -6  482.35  100.69
  -2   0   6  355.76   64.39
   2   0  -6  551.44   88.59
   0   0   6 2539.75  154.18
   0   0  -6 2272.77  158.08
   0   0   6 2741.83  202.58
   0   0  -6 2473.75  211.88
   0   0   6 2572.84  182.68
   2   0   6 1125.99  115.59
  -2   0  -6 1117.89   99.79
  -2   0  -6 1056.69  129.19
   2   0   6 1229.28  125.99
   9  -1  -6  386.26   94.09
   9  -1  -6  442.06   97.99
  -9  -1   6  385.96   68.89
   9   1  -6  536.25  116.99
  -9   1   6  410.56   75.49
   9   1  -6  251.77   83.29
  -7  -1   6 1164.48  108.49
  -7  -1   6 1125.49   73.29
   7  -1  -6 1033.00  138.79
   7   1  -6 1120.29  136.29
   7   1  -6  980.80  141.19
  -7   1   6 1086.99   73.89
   5  -1  -6  440.26   97.19
  -5  -1   6  324.17   59.49
   5  -1  -6  450.05   52.09
   5  -1  -6  435.56   97.79
   5   1  -6  473.85   98.89
   5   1  -6  274.77   77.49
  -5   1   6  279.47   60.49
   5   1  -6  404.46   46.90
  -3  -1   6 1857.61  141.99
   3  -1  -6 1921.31  105.29
   3  -1  -6 2057.19  177.68
  -3   1   6 1658.33  137.79
   3   1  -6 1517.05  161.98
   3   1  -6 1845.52  144.09
  -1  -1   6  340.67   48.00
   1  -1  -6  392.86   90.99
   1  -1  -6  301.77   59.09
  -1  -1   6  364.26   67.89
   1   1  -6  309.77   63.19
   1   1  -6  319.27   86.19
  -1   1   6  365.26   57.59
  -1   1   6  303.67   59.99
   1  -1   6   98.89   43.80
   1  -1   6   79.89   47.50
  -1  -1  -6  233.98   70.89
  -1  -1  -6  150.88   39.90
  -1   1  -6  156.98   68.69
  -1   1  -6  211.98   45.20
   1   1   6  110.99   39.30
   1   1   6   76.59   48.90
   3  -1   6   34.50   41.80
  -3  -1  -6   64.09   40.60
  -3  -1  -6   33.50   49.30
   3  -1   6   23.50   40.30
  -3   1  -6   -4.90   46.50
  -3   1  -6   98.49   43.90
   3   1   6   85.29   49.90
   3   1   6   31.40   35.50
  -8  -2   6  191.58   51.69
   8  -2  -6  240.38   82.19
   8  -2  -6  330.97   86.79
  -8   2   6  290.67   61.39
   8   2  -6  103.99   66.59
   8   2  -6  124.09   63.69
   6  -2  -6  891.71  123.79
   6  -2  -6  934.91  122.59
  -6  -2   6  914.71   94.79
   6   2  -6  965.40  126.89
   6   2  -6 1028.90  123.69
  -6   2   6  807.32   71.09
  -6   2   6  915.01   97.29
   4  -2  -6 1260.57   93.19
   4  -2  -6 1054.09  130.09
  -4  -2   6 1504.35  118.69
  -4   2   6 1381.56  117.09
   4   2  -6 1117.79  136.69
   4   2  -6 1189.98  136.69
   2  -2  -6 1138.89  105.39
   2  -2  -6 1174.08   80.79
  -2  -2   6 1407.06  115.69
   2  -2  -6 1220.58  138.39
   2   2  -6 1164.48  135.19
  -2   2   6 1301.67  113.99
   2   2  -6 1276.87  122.09
   0  -2   6  426.66   80.19
   0  -2   6  399.26   70.99
   0  -2  -6  366.96   81.79
   0  -2   6  445.26   50.19
   0  -2  -6  365.66   54.19
   0   2  -6  427.56   91.19
   0   2   6  431.16   76.49
   0   2  -6  402.66   67.69
   0   2   6  408.96   88.29
   2  -2   6   11.90   27.70
  -2  -2  -6   90.99   46.40
  -2  -2  -6   29.70   33.20
  -2   2  -6   21.80   35.40
   2   2   6   -7.90   28.70
  -2   2  -6   80.29   44.70
   2   2   6   79.29   45.70
   9  -3  -6  -31.00   43.70
  -9  -3   6   65.19   33.20
   9  -3  -6   16.40   45.80
   9   3  -6   28.60   48.00
   9   3  -6   58.39   52.49
  -9   3   6   35.20   34.30
  -7  -3   6  469.85   66.69
   7  -3  -6  736.83  131.09
   7  -3  -6  645.94  115.89
  -7   3   6  440.36   48.70
   7   3  -6  426.16  105.99
  -7   3   6  552.44   76.69
   7   3  -6  642.74  119.79
  -5  -3   6 1685.43  130.69
   5  -3  -6 1634.84  165.08
   5  -3  -6 1695.33  164.78
   5  -3  -6 1804.22  124.99
   5   3  -6 1408.36  157.98
  -5   3   6 1585.34  133.79
   5   3  -6 1571.14  157.58
   3  -3  -6  608.14  110.69
   3  -3  -6  634.14   56.49
  -3  -3   6  740.23   80.09
   3  -3  -6  641.54   65.89
   3   3  -6  514.95  103.99
  -3   3   6  552.74   71.99
   3   3  -6  649.93   83.19
   1  -3  -6  137.09   34.80
  -1  -3   6   46.50   27.80
  -1  -3   6   97.29   23.70
   1  -3  -6  160.38   55.99
   1   3  -6  163.48   56.09
  -1   3   6   56.49   29.10
  -1   3   6  120.69   39.20
   1   3  -6  155.58   50.99
  -1  -3  -6  438.76   49.70
   1  -3   6  290.27   65.19
  -1  -3  -6  394.56   82.59
   1  -3   6  308.17   69.69
  -1   3  -6  355.86   83.69
  -1   3  -6  340.17   66.59
   1   3   6  295.97   63.79
  -3  -3  -6  211.08   65.19
   3  -3   6  123.19   54.09
  -3   3  -6  142.29   53.99
   3   3   6  267.17   72.29
   3   3   6  209.78   55.09
  -3   3  -6   97.29   49.40
   8  -4  -6  664.33  117.59
   8  -4  -6  593.14  116.89
   8   4  -6  811.12  121.79
   8   4  -6  678.33  122.19
  -8   4   6  710.33   88.69
  -6  -4   6  397.06   65.89
   6  -4  -6  430.46  101.09
   6  -4  -6  309.57   81.39
   6   4  -6  327.67   83.99
   6   4  -6  202.88   71.19
  -6   4   6  297.27   63.49
  -6   4   6  325.07   65.39
   4  -4  -6  154.88   41.10
   4  -4  -6  200.88   59.69
  -4  -4   6  167.88   43.00
   4   4  -6  224.18   69.49
  -4   4   6  213.08   50.99
   4   4  -6  243.48   75.19
   2  -4  -6  341.17   48.20
  -2  -4   6  310.67   59.59
   2  -4  -6  295.47   40.00
   2  -4  -6  361.16   57.79
   2   4  -6  385.96   81.49
   2   4  -6  345.47   87.59
  -2   4   6  361.96   66.69
   0  -4  -6  655.13   52.49
   0  -4   6  570.84   53.99
   0  -4   6  547.15   74.49
   0  -4   6  561.64   85.79
   0  -4  -6  629.24   92.49
   0   4   6  646.14  119.29
   0   4  -6  643.94   88.29
   0   4   6  493.75   74.99
   2  -4   6  887.81  107.69
   2  -4   6  876.31  104.49
  -2  -4  -6 1006.80  115.89
  -2  -4  -6 1010.40   77.19
   2   4   6 1091.89  113.19
  -2   4  -6 1122.59  111.49
  -2   4  -6  713.03  124.39
   2   4   6 1283.17  135.29
   9  -5  -6  110.39   59.99
  -9  -5   6   40.40   38.00
   9  -5  -6  123.79   58.19
  -9   5   6   99.49   42.40
   9   5  -6  120.39   71.79
   9   5  -6  144.39   68.89
   7  -5  -6   51.59   40.40
  -7  -5   6   13.40   20.40
  -7  -5   6   -8.80   24.50
   7  -5  -6   42.40   43.90
   7   5  -6   41.20   60.49
   7   5  -6   10.80   44.10
  -7   5   6   -3.90   28.90
  -7   5   6    3.80   25.50
   5  -5  -6  194.28   64.59
  -5  -5   6  284.97   54.59
   5  -5  -6   95.89   54.29
   5  -5  -6  210.78   49.00
   5   5  -6  168.38   62.79
   5   5  -6  221.28   22.30
  -5   5   6  257.77   56.29
   5   5  -6  182.08   65.29
  -3  -5   6   32.30   23.20
   3  -5  -6   27.70   18.60
   3  -5  -6  -25.40   23.70
   3  -5  -6   90.49   47.20
   3   5  -6   12.80   27.10
  -3   5   6   36.30   28.10
   3   5  -6   -5.60   34.60
  -1  -5   6 1305.47  115.19
   1  -5  -6 1191.48   74.19
   1  -5  -6 1176.18   77.29
   1  -5  -6 1081.49   85.99
   1  -5  -6 1174.58  127.79
   1   5  -6 1148.49  124.69
   1   5  -6 1092.39  132.99
  -1   5   6 1188.68  110.39
   1  -5   6 1206.48  108.39
   1  -5   6 1204.78  115.49
  -1  -5  -6  820.22  105.69
   1   5   6 1221.48  139.49
   1   5   6 1123.19  111.59
  -1   5  -6  971.00  107.99
  -1   5  -6  860.51  126.49
   3  -5   6  -17.00   31.60
   3  -5   6   18.40   40.10
  -3  -5  -6   90.19   52.09
  -3  -5  -6   24.40   40.90
   3   5   6   -9.50   35.90
  -3   5  -6   -8.30   40.80
   3   5   6   -2.40   42.80
  -8  -6   6  895.11   84.09
   8  -6  -6  616.04  119.09
   8  -6  -6  646.54  119.59
   8   6  -6  663.13  131.29
   8   6  -6  853.71  143.49
  -8   6   6  774.52   99.49
   6  -6  -6  197.78   64.49
   6  -6  -6  237.28   74.09
  -6  -6   6  337.27   57.19
   6   6  -6  236.58   33.50
  -6   6   6  223.18   59.59
   6   6  -6  225.58   69.19
   6   6  -6  244.48   67.59
   4  -6  -6 2114.19  150.08
  -4  -6   6 2015.60  147.79
   4  -6  -6 2396.56  187.28
   4   6  -6 2031.10  185.98
  -4   6   6 1746.73  150.88
   2  -6  -6 2299.97  130.59
   2  -6  -6 2339.47  142.19
  -2  -6   6 2313.17  163.68
   2  -6  -6 2552.64  152.08
  -2  -6   6 2037.80  159.68
   2   6  -6 2631.04  196.18
  -2   6   6 2142.09  166.68
   2   6  -6 2354.66  205.58
   0  -6  -6  169.48   49.10
   0  -6   6  171.58   45.20
   0  -6   6  107.79   26.40
   0   6   6  181.98   45.60
   0   6  -6  142.99   54.59
   0   6  -6  105.09   56.09
   2  -6   6  112.89   48.20
   2  -6   6  146.19   50.19
  -2   6  -6   78.89   48.80
   2   6   6   95.79   58.69
   2   6   6  110.89   42.70
   9  -7  -6   91.69   59.09
  -9  -7   6   -7.20   49.60
   9   7  -6  139.39   68.99
  -9   7   6   39.80   40.90
   9   7  -6  -50.49   56.29
  -9   7   6  103.69   44.30
   7  -7  -6   15.00   39.40
   7  -7  -6   87.19   41.70
  -7  -7   6   67.39   24.80
  -7  -7   6   52.09   26.70
   7   7  -6   90.79   51.89
   7   7  -6  -51.89   50.79
  -7   7   6   42.90   57.59
  -7   7   6   38.90   28.30
  -7   7   6   47.40   33.80
  -5  -7   6   25.40   22.00
   5  -7  -6   47.60   36.40
   5  -7  -6   -1.40   28.40
   5  -7  -6    3.80   34.60
   5   7  -6  -12.90   36.90
   5   7  -6   59.59   42.70
  -5   7   6   81.39   35.40
  -3  -7   6  544.65   66.59
  -3  -7   6  525.65   74.39
   3  -7  -6  390.66   52.59
   3  -7  -6  467.55   58.99
   3  -7  -6  483.65   94.89
   3   7  -6  502.05   88.39
   3   7  -6  313.27   79.19
  -3   7   6  422.16   76.19
  -1  -7   6  670.23   69.99
   1  -7  -6  534.35   61.09
   1  -7  -6  435.76   85.09
  -1  -7   6  659.33   84.59
  -1  -7   6  549.85   73.49
  -1   7   6  648.24   78.59
   1   7  -6  539.95  100.79
   1   7  -6  715.33  106.79
   1  -7   6  326.57   61.49
  -1  -7  -6  360.46   62.79
   1  -7   6  302.67   63.59
   1  -7   6  313.37   54.19
   1   7   6  415.36   74.69
  -1   7  -6  338.27   79.39
   1   7   6  344.47   91.39
  -1   7  -6  269.17   80.79
  -3  -7  -6  324.07   90.69
  -3  -7  -6  223.38   60.59
   3  -7   6  180.48   55.79
   3  -7   6  219.98   60.69
  -3   7  -6  161.38   66.19
  -3   7  -6  255.27   67.59
   3   7   6  211.28   65.39
   3   7   6  189.18   75.09
   8  -8  -6  168.98   72.79
   8  -8  -6  171.78   63.59
  -8  -8   6  202.48   37.80
  -8  -8   6  180.78   43.20
   8   8  -6  192.48   77.89
   8   8  -6  332.27   94.89
  -8   8   6  147.59   52.39
  -8   8   6  167.88   53.29
  -6  -8   6  752.22   77.49
   6  -8  -6  888.61  119.69
   6  -8  -6  870.01  121.59
   6  -8  -6  760.42   85.79
  -6  -8   6  804.22   74.69
   6   8  -6  748.83  111.59
  -6   8   6  815.32   97.09
   6   8  -6  943.21  119.59
   6   8  -6  937.21   62.59
   4  -8  -6  435.16   72.09
  -4  -8   6  414.36   58.39
  -4  -8   6  398.26   70.99
   4  -8  -6  369.46   59.29
   4  -8  -6  476.85   85.89
   4   8  -6  382.56   88.39
   4   8  -6  434.06   81.79
   4   8  -6  556.04   81.19
  -4   8   6  419.76   75.89
   2  -8  -6  282.77   65.09
  -2  -8   6  310.87   59.99
   2  -8  -6  401.56   62.79
  -2   8   6  293.17   59.99
   2   8  -6  432.96   92.19
   2   8  -6  519.85  100.69
   0  -8   6  996.20   88.19
   0  -8  -6 1075.19  106.59
   0  -8   6  910.11   64.69
   0  -8   6  826.32  107.39
   0  -8   6 1035.90  113.99
   0   8  -6 1271.07  144.89
   0   8   6  903.81   97.89
   0   8  -6  897.51  113.99
  -2  -8  -6  489.35  108.29
  -2  -8  -6  271.67   62.39
   2  -8   6  313.07   64.89
   2  -8   6  342.97   69.99
   2   8   6  248.88   79.49
  -2   8  -6  318.37   76.39
  -2   8  -6  289.77   70.39
   2   8   6  377.66   72.79
   9  -9  -6  193.58   74.89
   9  -9  -6  113.79   76.59
  -9  -9   6  111.39   42.30
  -9   9   6   85.19   47.80
   9   9  -6  278.47   82.09
  -9   9   6   36.20   43.20
   9   9  -6  177.68   68.29
  -7  -9   6  161.38   39.30
   7  -9  -6  105.19   56.99
   7  -9  -6  202.28   62.89
   7   9  -6  112.99   64.49
  -7   9   6  109.39   57.29
  -7   9   6  133.79   55.59
   7   9  -6   80.29   63.79
   5  -9  -6   99.19   45.80
  -5  -9   6   25.60   22.90
   5  -9  -6  109.69   43.00
  -5   9   6   55.09   32.50
   5   9  -6   26.40   39.40
   5   9  -6  117.19   53.89
   3  -9  -6  251.97   42.60
   3  -9  -6  370.86   62.89
  -3  -9   6  378.56   53.69
   3  -9  -6  293.77   67.59
  -3  -9   6  327.27   63.69
   3   9  -6  322.07   77.09
   3   9  -6  236.58   64.69
  -3   9   6  323.97   65.19
   1  -9  -6   81.79   28.90
  -1  -9   6  148.49   41.50
  -1  -9   6  105.09   41.80
   1  -9  -6   78.59   40.90
  -1  -9   6   50.59   31.90
   1   9  -6   -5.90   34.50
   1   9  -6   47.60   43.70
  -1   9   6  128.99   38.30
  -1  -9  -6  382.76   67.49
   1  -9   6  354.86   72.59
   1  -9   6  286.87   53.89
  -1  -9  -6  319.67   87.39
   1   9   6  407.06   76.19
  -1   9  -6  202.28   69.79
   1   9   6  274.27   82.09
  -1   9  -6  362.96   78.69
  -8 -10   6   41.10   31.00
  -8 -10   6   93.19   34.70
   8 -10  -6   27.10   48.80
   8 -10  -6   18.70   46.20
   8  10  -6  109.79   58.99
  -8  10   6  -77.49   32.90
  -8  10   6   78.79   45.10
   8  10  -6   26.00   56.29
   6 -10  -6  643.24   79.59
   6 -10  -6  518.45  104.99
   6 -10  -6  548.85  117.79
  -6 -10   6  778.32   73.29
  -6 -10   6  566.64   62.89
  -6  10   6  633.24   88.59
  -6  10   6  674.63   83.09
   6  10  -6  559.14  106.29
   6  10  -6  568.24  105.79
   6  10  -6  578.84   51.19
   4 -10  -6  644.14   86.39
   4 -10  -6  795.82  100.19
  -4 -10   6  755.22   74.79
  -4 -10   6  933.91   85.09
   4 -10  -6  699.63   77.19
   4  10  -6  677.73  101.59
  -4  10   6  711.53   89.99
   4  10  -6  622.34  104.39
  -2 -10   6  187.88   48.20
  -2 -10   6  293.37   47.30
   2 -10  -6  276.67   61.19
   2 -10  -6  308.47   58.29
   2  10  -6  310.87   78.59
  -2  10   6  186.38   50.69
   0 -10  -6  293.37   61.89
   0 -10   6  321.57   39.00
   0 -10   6  384.96   55.39
   0 -10  -6  359.06   59.19
   0 -10   6  453.65   99.29
   0 -10   6  476.65   78.49
   0  10   6  497.95   81.49
   0  10  -6  418.76   92.49
   0  10  -6  431.36   98.09
  -2 -10  -6   66.19   45.90
  -2 -10  -6  181.68   69.39
   2 -10   6   89.89   44.80
   2 -10   6   83.29   45.10
   2  10   6  107.89   43.90
  -2  10  -6   69.59   47.20
   2  10   6  122.79   59.19
  -2  10  -6   99.69   58.69
   7 -11  -6  156.38   69.69
  -7 -11   6  250.87   51.39
   7 -11  -6  153.98   53.29
  -7 -11   6  123.69   32.90
   7 -11  -6   75.39   44.00
  -7  11   6  155.58   51.09
   7  11  -6   37.50   64.69
   7  11  -6  303.27   75.99
  -7  11   6  187.78   55.19
   5 -11  -6  146.29   49.30
  -5 -11   6  106.99   30.70
   5 -11  -6  102.59   50.49
  -5 -11   6  110.09   33.10
   5  11  -6   73.89   48.30
   5  11  -6  155.78   51.39
   3 -11  -6  709.33   60.79
   3 -11  -6  490.65   86.19
  -3 -11   6  545.05   66.79
   3 -11  -6  568.94   75.19
  -3 -11   6  614.74   61.39
   3  11  -6  644.74  113.39
   3  11  -6  692.93   99.49
  -3  11   6  583.24   79.49
  -1 -11   6  417.76   69.19
   1 -11  -6  387.46   63.69
   1 -11  -6  357.16   65.09
  -1 -11   6  353.56   41.80
  -1 -11   6  262.37   44.10
   1  11  -6  448.06   97.59
   1  11  -6  309.47  107.39
  -1  11   6  410.16   73.59
   1 -11   6  -26.20   29.60
  -1 -11  -6   16.40   34.10
   1 -11   6   -3.70   32.40
  -1 -11  -6    8.30   39.80
  -1  11  -6   23.80   37.70
   1  11   6  -13.50   44.50
  -1  11  -6   70.29   41.20
   1  11   6   28.90   33.00
   8 -12  -6  134.49   50.39
   8 -12  -6  101.59   57.19
  -8 -12   6   83.99   48.20
  -8  12   6  120.39   56.99
   8  12  -6  145.79   71.59
   8  12  -6  120.69   73.99
  -8  12   6  106.39   53.19
  -6 -12   6  194.08   36.10
  -6 -12   6  248.88   55.09
   6 -12  -6  220.38   75.69
   6 -12  -6  239.08   57.09
   6  12  -6  240.58   72.99
   6  12  -6  399.56   85.99
  -6  12   6  211.98   54.59
  -6  12   6  356.36   69.99
   6  12  -6  211.28   37.70
  -4 -12   6   76.59   34.40
   4 -12  -6   38.30   32.80
  -4 -12   6   59.69   26.60
   4 -12  -6  117.69   41.00
   4 -12  -6   22.00   26.30
   4 -12  -6   -6.40   37.00
   4  12  -6   31.90   33.40
  -4  12   6  119.39   41.30
   4  12  -6   63.29   51.89
   2 -12  -6   61.69   31.80
   2 -12  -6   67.19   34.40
   2 -12  -6   24.90   40.50
  -2 -12   6  112.39   37.30
  -2  12   6   80.89   38.80
   2  12  -6   41.20   47.60
   0 -12  -6  353.16   66.39
   0 -12  -6  389.26   93.49
   0 -12  -6  426.46   77.39
   0 -12   6  405.56   41.00
   0 -12   6  504.85   73.59
   0  12  -6  441.56   91.29
   0  12   6  573.04  108.09
   0  12  -6  371.66   89.69
  -2 -12  -6  441.06  101.09
   2 -12   6  399.46   76.79
   2  12   6  359.76   77.09
  -2  12  -6  341.27   81.69
  -2  12  -6  358.36   90.69
   2  12   6  248.08   82.09
   7 -13  -6  133.09   49.40
  -7 -13   6  118.59   46.10
   7 -13  -6  143.49   59.39
   7  13  -6  278.57   73.89
   7  13  -6   86.89   66.79
  -7  13   6  172.58   52.99
  -7  13   6  189.08   62.69
  -5 -13   6  423.16   78.19
  -5 -13   6  651.53   74.29
   5 -13  -6  650.03  130.89
   5 -13  -6  621.74   87.69
  -5 -13   6  682.33   59.49
  -5  13   6  711.03   94.79
  -5  13   6  592.24   76.99
   5  13  -6  800.12  102.19
   5  13  -6  664.33  112.19
   5  13  -6  642.84   93.09
  -3 -13   6    8.00   24.50
   3 -13  -6   34.00   34.60
   3 -13  -6  -16.00   26.80
   3 -13  -6   50.79   30.20
   3  13  -6   79.19   42.90
  -3  13   6   -1.00   30.80
   3  13  -6   32.50   43.30
  -1 -13   6  330.97   60.29
   1 -13  -6  411.46   60.49
   1 -13  -6  519.95   79.79
   1 -13  -6  492.45   95.09
   1  13  -6  436.76   90.69
  -1  13   6  423.46   76.79
   1  13  -6  408.76   90.59
  -1 -13  -6  108.09   57.99
   1 -13   6   79.39   42.20
   1  13   6  114.89   45.50
  -1  13  -6   82.59   53.39
  -1  13  -6   98.99   53.29
   1  13   6   61.59   51.39
   8 -14  -6   59.99   51.49
   8 -14  -6  130.39   45.20
  -8 -14   6  100.49   60.89
   8 -14  -6   83.79   60.09
   8  14  -6   31.50   58.49
   8  14  -6   49.99   72.79
  -8  14   6   64.99   51.79
  -8  14   6   44.60   54.79
   6 -14  -6    4.50   29.70
  -6 -14   6  -43.70   32.20
  -6  14   6   -5.40   31.40
   6  14  -6  113.49   51.09
   6  14  -6    0.30   38.10
   6  14  -6    6.00   52.29
  -6  14   6   -4.50   40.60
  -4 -14   6  245.78   42.70
   4 -14  -6  435.06   79.29
   4 -14  -6  453.35   70.49
   4 -14  -6  295.97   63.89
   4 -14  -6  200.88   59.39
  -4 -14   6  489.25  112.69
  -4 -14   6  394.66   48.80
  -4  14   6  425.96  102.79
   4  14  -6  214.88   66.79
   4  14  -6  258.97   72.69
   2 -14  -6  950.40   88.89
  -2 -14   6 1125.19   95.19
   2 -14  -6  874.91  100.79
   2 -14  -6 1068.39  112.59
  -2  14   6 1245.58  114.39
   2  14  -6 1025.30  125.69
   0 -14  -6  185.58   47.00
   0 -14  -6  164.88   63.19
   0 -14   6   93.69   44.00
   0 -14   6  179.58   29.70
   0  14  -6  182.78   59.19
   0  14   6  190.18   68.99
   0  14   6  111.79   55.69
   0  14  -6  151.28   59.29
   7 -15  -6  219.38   69.59
   7 -15  -6  161.08   61.09
  -7 -15   6  171.58   55.79
   7 -15  -6  231.78   58.89
   7  15  -6  124.79   54.69
  -7  15   6  114.69   54.19
   7  15  -6  218.68   78.19
  -7  15   6  221.28   63.79
   7  15  -6  181.88   64.99
   5 -15  -6  759.12   95.99
  -5 -15   6  798.72  108.69
   5 -15  -6  712.93   93.39
   5 -15  -6  613.04   67.49
   5  15  -6  768.82  105.49
  -5  15   6  648.64   95.19
   5  15  -6  582.24  101.09
  -5  15   6  649.54   82.49
   5  15  -6  839.72   90.69
  -3 -15   6  100.39   49.30
   3 -15  -6   26.40   53.09
   3 -15  -6   48.10   36.40
  -3 -15   6   79.29   37.90
   3 -15  -6   88.29   45.30
  -3 -15   6   98.39   68.99
  -3  15   6  -10.60   36.20
   3  15  -6    7.50   46.90
   3  15  -6    2.40   39.70
   1 -15  -6   58.09   44.70
  -1 -15   6  197.08   49.30
   1 -15  -6  316.47   73.39
  -1  15   6  146.39   44.20
   1  15  -6  181.28   57.49
   1  15  -6   33.10   44.50
   1 -15   6  -36.80   33.80
  -1 -15  -6  -26.80   46.10
   1  15   6  -30.00   56.69
   1  15   6  -27.30   36.80
  -1  15  -6  -54.79   40.00
  -1  15  -6   61.29   49.90
  -6 -16   6    1.90   40.70
   6 -16  -6  138.29   46.60
   6 -16  -6  110.89   51.89
   6  16  -6   72.79   57.39
  -6  16   6  145.19   54.69
  -6  16   6  105.99   46.80
   6  16  -6   94.79   49.10
   4 -16  -6   99.89   43.30
   4 -16  -6  109.69   47.50
   4 -16  -6  116.69   43.30
   4  16  -6    0.80   40.40
   4  16  -6  119.89   56.99
  -4  16   6   44.30   45.90
  -2 -16   6   36.40   36.60
  -2 -16   6  138.89   38.90
   2 -16  -6   37.10   48.20
   2 -16  -6   73.09   36.70
  -2  16   6  101.19   42.70
   2  16  -6   74.49   49.90
   2  16  -6   26.70   47.00
   0 -16  -6   78.39   59.39
   0 -16   6   88.69   48.40
   0 -16  -6  156.18   49.00
   0  16   6   92.99   39.60
   0  16   6  154.38   61.79
   0  16  -6   58.39   48.40
   0  16  -6   74.49   52.99
   7 -17  -6   83.89   50.59
  -7 -17   6  137.09   48.30
   7 -17  -6  216.88   66.59
   7  17  -6  231.38   78.49
  -7  17   6  176.28   60.69
   7  17  -6  188.58   61.79
   7  17  -6  226.08   60.89
  -5 -17   6   66.19   38.90
   5 -17  -6  -22.90   35.60
   5 -17  -6  -37.40   44.00
  -5  17   6   72.79   46.30
   5  17  -6  162.88   61.49
   5  17  -6  149.49   57.19
  -5  17   6   54.39   41.80
   5  17  -6   94.89   39.50
  -3 -17   6   54.59   35.00
   3 -17  -6   57.39   33.10
  -3  17   6  -21.50   47.30
   3  17  -6   43.20   47.90
  -1 -17   6   82.59   41.30
   1 -17  -6   88.49   55.49
  -1 -17   6  155.58   42.90
   1 -17  -6   58.49   41.20
   1  17  -6   99.29   55.49
   1  17  -6   76.29   43.40
   6 -18  -6  233.18   64.99
   6 -18  -6  180.48   56.29
  -6 -18   6  155.08   54.19
  -6  18   6  167.98   61.09
  -6  18   6  118.69   58.29
   6  18  -6  192.68   66.69
   6  18  -6  141.79   63.19
   4 -18  -6  132.39   47.10
  -4 -18   6   91.69   45.70
   4 -18  -6  240.58   55.39
  -4  18   6  160.58   56.49
   4  18  -6   55.19   49.90
  -2 -18   6   68.19   40.20
   2 -18  -6  105.89   62.79
   2 -18  -6  -35.50   34.40
   2  18  -6   38.80   43.80
  -2  18   6  128.29   51.99
   2  18  -6   17.10   46.40
   0 -18   6  -67.49   31.60
   0 -18  -6  109.29   59.79
   0 -18  -6   19.70   48.50
   0 -18   6   48.80   44.20
   0  18   6   71.39   56.79
   0  18   6   11.20   34.00
   0  18  -6   65.79   52.79
   0  18  -6   -7.00   44.70
  -5 -19   6   39.20   45.40
   5 -19  -6   48.50   36.00
   5  19  -6   94.49   60.19
   5  19  -6   -5.40   78.79
  -5  19   6   64.39   43.40
  -5  19   6   26.30   43.80
   3 -19  -6  161.18   68.99
  -3 -19   6  285.77   60.89
   3 -19  -6  138.69   48.30
  -3  19   6  256.07   64.69
   3  19  -6  137.69   53.39
  -1 -19   6  356.86   73.49
   1 -19  -6  300.77   78.19
   1 -19  -6  115.69   53.59
   1  19  -6  289.87   75.39
   1  19  -6  172.08   60.99
  -1  19   6  281.57   61.89
   4 -20  -6   46.80   44.90
  -4 -20   6  -51.29   38.90
   4  20  -6   43.20   52.69
  -4  20   6   49.30   46.90
   4  20  -6    5.30   50.59
  -2 -20   6  203.28   56.89
   2 -20  -6  187.28   92.59
   2 -20  -6  331.07   78.09
   2  20  -6  151.58   59.79
  -2  20   6  184.68   54.79
   2  20  -6  284.07   66.89
  -3 -21   6   64.69   49.90
  -8   0   7   -9.80   28.60
   8   0  -7  -22.90   41.80
   8   0  -7  -73.19   39.30
   6   0  -7   45.90   41.10
   6   0  -7    7.30   26.90
   6   0  -7   17.70   43.50
  -6   0   7   14.70   24.20
   4   0  -7  -19.60   36.30
   4   0  -7    7.80   10.20
  -4   0   7    8.70   26.70
   2   0  -7  -16.00   36.10
  -2   0   7   12.50   21.00
   0   0  -7   -0.50   27.70
   0   0  -7    1.70   43.10
   0   0   7  -15.70   23.90
   2   0   7   25.10   42.50
  -2   0  -7   36.20   45.30
  -2   0  -7   79.39   42.00
   2   0   7   26.40   32.80
  -9  -1   7  -46.40   29.60
   9  -1  -7    4.80   57.09
   9  -1  -7   25.80   50.29
   9   1  -7   46.50   51.89
  -9   1   7  -18.30   31.40
   9   1  -7   29.70   49.10
  -7  -1   7  127.79   44.60
   7  -1  -7  142.99   67.79
   7  -1  -7  151.78   62.79
   7   1  -7  219.28   71.19
   7   1  -7  199.78   68.09
  -7   1   7  126.69   43.10
  -5  -1   7  172.48   50.39
   5  -1  -7  218.58   64.39
   5  -1  -7  270.07   42.00
   5   1  -7  380.26  103.09
   5   1  -7  234.58   32.40
  -5   1   7  165.58   52.89
   3  -1  -7   44.10   37.30
  -3  -1   7   55.69   29.00
   3  -1  -7  105.19   62.59
   3   1  -7  147.49   46.80
  -3   1   7   -0.50   24.20
   3   1  -7   30.00   46.90
   1  -1  -7  286.37   75.09
  -1  -1   7  195.18   42.60
   1  -1  -7  383.06   61.39
  -1  -1   7  344.47   68.59
  -1   1   7  216.48   54.59
  -1   1   7  321.27   60.49
   1   1  -7  305.17   60.69
   1   1  -7  312.37   82.89
   1  -1   7  519.15   97.29
  -1  -1  -7  679.43   76.69
  -1  -1  -7  724.13  108.19
   1  -1   7  540.15   80.79
  -1   1  -7  687.13   79.69
   1   1   7  666.73   86.29
   1   1   7  656.03   98.29
  -1   1  -7  423.16  100.99
   8  -2  -7   36.10   50.19
   8  -2  -7  112.49   60.69
  -8  -2   7   74.99   38.90
  -8   2   7   88.19   37.40
   8   2  -7   85.49   51.09
   8   2  -7  138.79   62.59
   6  -2  -7  518.65   74.79
   6  -2  -7  454.55  107.69
   6   2  -7  544.85  109.89
   6   2  -7  596.14  120.39
  -6   2   7  479.35   72.49
   6   2  -7  387.06   51.19
   4  -2  -7   84.49   23.60
  -4  -2   7  100.49   38.20
   4  -2  -7  182.48   62.99
  -4   2   7   26.20   25.60
   4   2  -7   82.99   46.50
   4   2  -7  117.09   59.99
  -2  -2   7  692.03   85.49
   2  -2  -7  858.61  142.79
   2  -2  -7  655.33   82.69
   2  -2  -7  602.24   74.99
   2   2  -7  665.53   95.89
  -2   2   7  635.94   81.39
   2   2  -7  665.23  123.19
   0  -2   7  109.59   39.10
   0  -2  -7  210.68   62.79
   0  -2   7  185.78   59.39
   0  -2  -7  186.28   39.10
   0   2   7  190.98   65.09
   0   2  -7  165.28   57.49
   0   2   7  119.49   41.50
   0   2  -7  156.08   47.20
  -2  -2  -7   93.79   50.29
   2  -2   7   62.29   38.00
   2  -2   7   42.70   49.20
  -2   2  -7    3.80   45.80
  -2   2  -7   37.70   66.19
   2   2   7   78.39   49.30
   2   2   7   75.89   39.20
  -9  -3   7  247.48   53.29
   9  -3  -7  119.39   67.09
   9   3  -7  131.09   66.89
  -9   3   7  136.59   50.99
   9   3  -7  113.29   68.89
  -7  -3   7   -7.60   24.70
   7  -3  -7   17.20   49.80
   7  -3  -7  -38.10   41.60
   7   3  -7   99.39   48.90
   7   3  -7   53.39   52.19
  -7   3   7   19.00   29.00
   5  -3  -7   23.90   25.40
  -5  -3   7   44.00   28.00
   5   3  -7  -32.60   43.80
  -5   3   7   53.89   33.80
   3  -3  -7  812.92  138.19
   3  -3  -7  814.72   88.09
   3  -3  -7  723.13   59.09
  -3  -3   7  673.53   80.19
  -3   3   7  604.74  113.49
   3   3  -7  594.64   89.29
  -1  -3   7  318.07   41.20
   1  -3  -7  390.86   86.39
  -1  -3   7  374.46   77.19
   1  -3  -7  379.96   53.99
  -1  -3   7  418.36   82.69
   1   3  -7  477.75   78.49
   1   3  -7  257.97   72.89
  -1   3   7  427.26   76.49
  -1  -3  -7  103.09   37.90
   1  -3   7  132.29   44.30
   1  -3   7  278.07   75.99
  -1  -3  -7  110.99   50.39
  -1   3  -7  139.69   59.79
  -1   3  -7  166.08   50.09
   1   3   7  145.89   60.09
   1   3   7  365.76   77.49
   8  -4  -7  -43.30   47.20
  -8  -4   7  -19.50   24.10
   8  -4  -7  115.79   49.20
  -8  -4   7    0.70   26.50
  -8   4   7   62.99   31.90
   8   4  -7  -51.39   53.09
   8   4  -7    3.00   47.90
   6  -4  -7  512.85   68.29
   6  -4  -7  450.85  101.39
  -6  -4   7  438.86   64.59
   6  -4  -7  496.15  103.59
   6   4  -7  407.86   99.09
  -6   4   7  316.97   65.99
   6   4  -7  361.36   92.99
   6   4  -7  339.27   42.10
   4  -4  -7  478.15   54.19
   4  -4  -7  490.35  102.79
  -4  -4   7  477.05   68.39
   4   4  -7  504.55   91.29
   4   4  -7  299.67   86.69
  -2  -4   7   86.19   39.40
   2  -4  -7  158.78   42.10
   2  -4  -7  153.78   53.89
   2   4  -7  154.48   62.69
   2   4  -7  167.98   59.99
  -2   4   7  134.89   42.30
   0  -4   7  127.09   42.30
   0  -4   7   88.99   45.20
   0  -4  -7   97.89   46.50
   0  -4  -7   74.59   26.10
   0   4  -7   63.39   46.90
   0   4  -7   89.09   48.50
   0   4   7  124.39   49.00
   0   4   7   32.10   54.89
   2  -4   7  274.47   66.39
   2  -4   7  173.48   53.39
  -2  -4  -7  201.58   59.39
   2   4   7  218.98   66.39
  -2   4  -7  238.48   73.59
   2   4   7  186.48   82.89
  -2   4  -7  305.27   66.69
  -9  -5   7   70.79   38.60
   9  -5  -7   24.50   53.39
   9  -5  -7   96.39   56.09
   9   5  -7    1.60   61.99
   9   5  -7   66.09   59.39
   7  -5  -7  322.97   85.89
   7  -5  -7  186.88   70.89
   7  -5  -7  242.68   50.39
  -7  -5   7  154.28   55.69
   7   5  -7  178.88   71.59
  -7   5   7  151.18   50.39
   7   5  -7  248.18   39.00
  -5  -5   7  178.68   47.20
   5   5  -7  161.68   60.29
   5   5  -7  183.48   72.89
  -5   5   7  145.59   46.70
   3  -5  -7  223.98   48.10
   3  -5  -7  167.88   42.50
  -3  -5   7  348.77   65.89
   3  -5  -7   90.89   58.29
   3  -5  -7  170.88   53.49
   3   5  -7  240.08   66.49
   3   5  -7  230.58   85.09
  -1  -5   7  493.35   76.89
  -1  -5   7  710.33   86.59
   1  -5  -7  484.55   50.09
   1   5  -7  501.65   90.09
  -1   5   7  741.93   86.89
   1   5  -7  318.57   86.19
  -1  -5  -7  170.58   61.39
   1  -5   7  228.48   58.99
   1  -5   7  287.47   63.19
   1   5   7  327.47   84.19
  -1   5  -7  218.08   72.89
  -1   5  -7  217.18   71.99
   1   5   7  205.68   61.69
  -8  -6   7  104.29   35.40
  -8  -6   7  169.08   43.10
   8  -6  -7  144.99   61.09
   8  -6  -7  111.59   59.79
   8   6  -7   60.79   51.69
   8   6  -7  178.18   79.49
  -8   6   7  233.38   58.79
   6  -6  -7    9.60   31.70
   6  -6  -7   49.40   44.30
   6  -6  -7   58.59   42.80
  -6  -6   7   22.40   24.80
   6   6  -7   88.09   46.10
   6   6  -7   32.50   52.89
  -6   6   7   53.69   30.70
   4  -6  -7  336.27   53.79
  -4  -6   7  415.36   69.09
   4  -6  -7  290.27   72.59
  -4   6   7  214.28   53.59
   4   6  -7  263.67   65.79
   2  -6  -7  111.89   28.20
   2  -6  -7   54.19   41.10
   2  -6  -7   93.39   29.60
   2  -6  -7  148.29   34.90
  -2  -6   7   53.59   35.90
   2   6  -7   59.99   55.49
   2   6  -7   83.89   45.10
  -2   6   7  100.09   41.00
   0  -6   7   78.79   43.90
   0  -6  -7  269.97   68.09
   0  -6   7   81.69   35.50
   0   6  -7   63.49   49.30
   0   6   7   21.00   47.20
   0   6  -7  151.28   52.39
   0   6   7  158.88   49.40
  -9  -7   7  108.19   46.90
   9  -7  -7  165.48   64.39
   9  -7  -7  230.18   68.59
   9   7  -7   75.99   65.99
  -9   7   7  111.69   43.00
   9   7  -7  114.59   68.09
  -7  -7   7  834.62   85.29
   7  -7  -7  712.53   87.49
   7  -7  -7  917.91  129.69
   7  -7  -7  588.34  112.79
  -7  -7   7  782.12   73.59
   7   7  -7  618.14  119.29
  -7   7   7  881.91  103.39
   7   7  -7  827.32  126.29
   5  -7  -7  724.53   86.29
  -5  -7   7  820.22   84.69
   5   7  -7  762.22  113.39
   5   7  -7  596.24  119.29
   5   7  -7  755.42  103.99
  -5   7   7  859.61   99.89
   3  -7  -7  208.88   43.30
   3  -7  -7  255.97   46.50
   3  -7  -7  224.38   63.19
   3  -7  -7  207.28   38.80
  -3  -7   7  267.27   58.59
   3   7  -7  151.28   65.29
  -3   7   7  217.98   53.29
   3   7  -7  236.28   66.39
  -1  -7   7  265.37   60.79
   1  -7  -7  213.08   64.39
  -1  -7   7  395.86   67.29
   1   7  -7  213.58   75.29
  -1   7   7  342.17   65.69
   1   7  -7  284.47   75.19
   1  -7   7   90.39   46.20
  -1  -7  -7   31.60   43.20
   1  -7   7   73.39   38.10
   1   7   7   27.30   50.59
  -1   7  -7  -52.79   47.00
   1   7   7   40.10   36.40
  -1   7  -7   47.80   47.40
   8  -8  -7  116.89   60.19
   8  -8  -7  120.59   62.39
  -8  -8   7  107.59   39.70
   8   8  -7   53.69   54.29
   8   8  -7   26.50   64.49
  -8   8   7   81.49   46.20
   6  -8  -7  -40.90   33.40
   6  -8  -7  -19.90   40.40
  -6  -8   7   -5.50   24.70
   6  -8  -7  -24.30   35.00
  -6   8   7   54.49   34.70
   6   8  -7   46.40   56.29
   6   8  -7   44.50   49.20
   4  -8  -7   -4.70   57.89
   4  -8  -7   87.29   50.29
   4  -8  -7   62.39   33.40
  -4  -8   7   22.10   26.40
   4   8  -7   36.20   45.30
  -4   8   7   25.70   29.20
   2  -8  -7   58.89   37.90
   2  -8  -7   55.49   24.40
  -2  -8   7  101.99   40.20
   2   8  -7   76.89   53.29
  -2   8   7   17.20   27.30
   2   8  -7    9.40   40.30
   0  -8   7   40.50   40.70
   0  -8   7   85.19   37.60
   0  -8  -7   83.39   44.80
   0   8  -7  181.78   73.79
   0   8  -7  158.08   55.09
   0   8   7   13.50   50.29
   0   8   7   73.49   43.10
  -7  -9   7   96.89   37.00
   7  -9  -7  -20.00   44.80
  -7  -9   7   79.29   34.10
   7  -9  -7  103.89   43.70
   7  -9  -7   86.19   60.09
  -7   9   7  103.49   44.60
   7   9  -7   40.50   60.89
   7   9  -7   34.80   58.09
  -5  -9   7  602.44   71.89
   5  -9  -7  581.94   80.49
  -5   9   7  605.44   85.49
   5   9  -7  554.84   99.59
   5   9  -7  634.64  115.99
   5   9  -7  648.94   99.79
   3  -9  -7  887.11   89.09
  -3  -9   7 1042.70  100.69
   3  -9  -7  938.91   76.19
   3  -9  -7  945.91   72.79
  -3  -9   7  920.51   93.89
   3   9  -7  910.21  117.89
   3   9  -7  954.20  130.89
  -3   9   7  769.62   96.09
   1  -9  -7  405.36   57.49
  -1  -9   7  397.76   63.39
  -1  -9   7  264.47   62.29
   1  -9  -7  341.17   64.59
   1   9  -7  351.76   88.79
  -1   9   7  337.37   68.19
   1   9  -7  411.36   89.59
   1  -9   7   52.99   41.90
  -1  -9  -7   46.10   54.09
   1   9   7   33.30   34.80
  -1   9  -7   23.30   41.80
  -1   9  -7  -47.80   42.20
  -8 -10   7    8.80   43.50
  -8 -10   7  109.89   39.20
   8 -10  -7   78.39   41.70
   8 -10  -7  105.09   60.59
   8  10  -7   97.19   71.29
   8  10  -7   74.99   63.09
   6 -10  -7   56.29   50.99
  -6 -10   7   20.60   30.60
  -6 -10   7   26.30   29.30
   6 -10  -7   18.00   39.70
   6  10  -7   67.29   49.99
  -6  10   7   66.69   30.80
   6  10  -7   45.50   51.99
   4 -10  -7  100.09   43.90
   4 -10  -7   51.39   39.90
   4 -10  -7   35.20   46.90
  -4 -10   7   80.09   32.20
  -4  10   7  100.69   42.80
   4  10  -7   21.40   43.80
   4  10  -7  175.08   64.99
  -2 -10   7  465.95   58.99
   2 -10  -7  241.78   61.49
  -2 -10   7  503.25   67.39
   2 -10  -7  372.56   60.69
  -2  10   7  392.26   74.19
   2  10  -7  229.48   71.49
   0 -10   7  185.68   53.59
   0 -10  -7  160.38   46.70
   0  10   7  327.67   86.59
   0  10  -7   94.89   57.79
   0  10  -7   66.89   51.89
   0  10   7  258.87   60.19
  -7 -11   7  367.46   58.19
   7 -11  -7  282.57   63.59
   7 -11  -7  245.08   78.89
  -7 -11   7  235.78   45.60
   7 -11  -7  269.97   71.79
   7  11  -7  269.17   77.89
   7  11  -7  240.08   80.69
  -7  11   7  272.57   66.49
  -5 -11   7  434.36   59.89
   5 -11  -7  642.34   82.09
  -5  11   7  408.66   79.79
   5  11  -7  697.13  103.69
   5  11  -7  370.36   79.69
   3 -11  -7  194.78   53.09
  -3 -11   7  422.06   66.59
   3 -11  -7  296.67   67.39
   3  11  -7  451.75   97.89
  -3  11   7  300.17   67.09
   3  11  -7  257.97   73.79
  -1 -11   7  154.58   44.80
  -1 -11   7  155.78   38.80
   1 -11  -7  161.48   49.80
   1 -11  -7  134.39   43.90
   1  11  -7   99.19   58.39
   1  11  -7  163.88   60.79
  -1  11   7  163.28   48.90
   1  11   7  349.37   99.89
   8 -12  -7  198.08   57.79
  -8 -12   7  262.27   57.79
   8 -12  -7  107.39   62.69
   8 -12  -7  257.27   78.79
   8  12  -7  174.18   73.49
  -8  12   7  222.18   64.29
   8  12  -7   81.79   71.59
   6 -12  -7  297.67   76.39
  -6 -12   7  389.76   53.89
   6 -12  -7  320.87   51.39
  -6 -12   7  375.86   62.49
   6 -12  -7  319.77   67.69
   6  12  -7  404.16  100.19
  -6  12   7  353.66   75.89
   6  12  -7  319.57   78.09
   6  12  -7  248.08   66.39
   4 -12  -7  119.89   49.60
   4 -12  -7  120.49   49.60
  -4 -12   7  137.89   39.50
   4  12  -7  106.29   53.29
   4  12  -7   20.60   46.80
  -4  12   7   82.19   45.80
   2 -12  -7  148.89   48.00
  -2 -12   7  137.39   49.90
   2 -12  -7  119.39   47.90
   2  12  -7   39.40   52.39
   2  12  -7  115.39   52.69
  -2  12   7  127.69   43.60
   0 -12  -7  359.16   95.09
   0 -12   7  331.97   67.49
   0 -12  -7  279.57   60.99
   0  12  -7  395.26   88.19
   0  12   7  278.87   65.69
   0  12  -7  357.46   85.99
   7 -13  -7   56.39   47.90
   7 -13  -7   88.89   56.19
   7 -13  -7   48.10   42.90
  -7 -13   7  -11.90   37.00
   7  13  -7   98.79   68.49
  -7  13   7   78.19   44.40
   7  13  -7  122.69   61.39
   7  13  -7  113.09   83.49
   5 -13  -7  118.09   45.40
  -5 -13   7  125.19   35.70
  -5 -13   7   73.49   36.60
   5 -13  -7   90.69   51.59
   5 -13  -7  175.58   49.70
  -5  13   7  168.28   47.70
   5  13  -7  113.39   66.49
   5  13  -7  107.79   51.49
   3 -13  -7  409.16   73.39
  -3 -13   7  485.35   67.89
   3 -13  -7  330.57   68.29
   3 -13  -7  513.15   78.79
  -3  13   7  398.36   75.39
   3  13  -7  490.85   96.89
   1 -13  -7  402.26   65.29
  -1 -13   7  497.65   74.29
   1 -13  -7  503.95   97.39
   1 -13  -7  402.26   70.89
   1  13  -7  351.16   90.49
  -1  13   7  319.97   70.69
   1  13  -7  434.26   86.09
  -6 -14   7  107.39   41.50
   6 -14  -7  115.09   50.79
   6 -14  -7   94.89   53.39
  -6  14   7   68.39   44.90
   6  14  -7  192.28   63.39
   6  14  -7   -2.50   51.19
  -4 -14   7  210.58   44.40
  -4 -14   7  207.98   51.79
   4 -14  -7  268.97   68.29
   4 -14  -7  185.58   53.59
  -4  14   7  166.78   57.19
   4  14  -7   98.09   66.19
   4  14  -7   59.49   51.89
   2 -14  -7  209.98   64.49
   2 -14  -7  199.38   54.19
  -2 -14   7  242.38   64.49
   2 -14  -7  200.58   52.69
   2  14  -7  127.89   61.59
  -2  14   7  234.48   59.39
   2  14  -7  271.77   74.79
   0 -14  -7  117.29   64.09
   0 -14   7  226.18   54.69
   0  14   7  117.69   62.99
   0  14  -7  280.67   79.19
   0  14   7  194.38   58.49
   0  14  -7  123.19   61.79
   7 -15  -7   80.69   47.80
  -7 -15   7   36.40   47.40
   7 -15  -7  142.79   59.59
  -7  15   7  -35.90   43.60
   7  15  -7  120.29   50.09
   7  15  -7  196.18   73.89
   7  15  -7   34.70   62.29
  -7  15   7   85.79   57.29
   5 -15  -7  123.69   54.19
  -5 -15   7  196.98   49.99
   5 -15  -7   98.89   50.09
   5 -15  -7  208.18   55.79
   5  15  -7  134.59   68.19
  -5  15   7  172.38   59.19
   5  15  -7  134.89   53.39
   3 -15  -7  171.38   61.39
   3 -15  -7  109.89   43.60
   3 -15  -7  102.59   46.50
  -3 -15   7  119.59   41.20
  -3  15   7  172.78   50.59
   3  15  -7   59.89   49.10
   1 -15  -7   94.29   43.70
  -1 -15   7   78.49   40.70
   1  15  -7   15.50   51.79
   1  15  -7  -51.29   44.60
  -1  15   7   78.19   38.10
  -6 -16   7  201.08   54.39
   6 -16  -7  152.08   54.19
   6 -16  -7  288.07   68.29
   6  16  -7  204.38   71.29
   6  16  -7  324.77   78.89
  -6  16   7  142.09   57.69
   4 -16  -7  806.12   97.19
   4 -16  -7  751.72   93.69
  -4 -16   7  751.12   95.09
  -4  16   7  985.20  110.69
   4  16  -7  839.32  121.29
   4  16  -7  626.34  113.39
  -2 -16   7   99.39   40.60
   2 -16  -7   71.39   40.80
   2 -16  -7  111.09   65.09
   2  16  -7   97.39   50.29
  -2  16   7  128.19   49.20
   2  16  -7  105.29   52.59
   5 -17  -7   32.70   51.39
   5 -17  -7    8.20   37.90
  -5 -17   7   37.20   42.40
  -5  17   7   14.20   39.80
   5  17  -7   80.89   62.19
  -3 -17   7   63.79   42.70
   3 -17  -7   79.59   40.10
   3 -17  -7   70.59   58.09
  -3 -17   7   27.20   36.20
  -3  17   7   49.30   42.50
   3  17  -7   22.20   53.69
   4 -18  -7  345.47   73.59
   4 -18  -7  272.97   66.29
  -4 -18   7  347.77   67.49
   4  18  -7  277.97   84.49
   4  18  -7  382.26   87.69
  -4  18   7  195.68   59.49
   8   0  -8  959.40  141.49
   8   0  -8  883.31   87.49
  -8   0   8  800.02   97.09
   8   0  -8  860.31  133.99
   6   0  -8  591.24   53.39
  -6   0   8  616.54   80.99
   6   0  -8  490.55  103.19
   4   0  -8  239.38   63.39
  -4   0   8  296.77   64.39
   4   0  -8  181.18   69.69
  -2   0   8  179.78   51.69
   2   0  -8  204.48   55.39
   2   0  -8  274.57   82.89
   0   0  -8   92.09   57.19
   0   0   8  149.69   57.29
   0   0   8  114.49   44.10
   0   0  -8   81.29   42.60
  -9  -1   8  310.87   65.39
   9  -1  -8  181.58   78.39
   9  -1  -8  160.88   65.89
   9   1  -8  140.79   72.69
  -9   1   8  332.37   69.29
   7  -1  -8  435.86   65.49
   7  -1  -8  499.25  112.09
   7  -1  -8  328.37   94.49
  -7  -1   8  543.55   73.19
   7   1  -8  330.27   54.19
  -7   1   8  413.56   74.39
   7   1  -8  502.25  111.29
   7   1  -8  299.37   92.69
   5  -1  -8  907.61  134.79
  -5  -1   8  990.70  105.49
   5  -1  -8  991.20   65.89
   5   1  -8  981.20  158.68
  -5   1   8 1207.38  116.09
  -3  -1   8  299.37   59.29
   3  -1  -8  377.86   83.19
  -3   1   8  386.36   71.59
   3   1  -8  312.07   77.49
  -1  -1   8  362.36   69.69
  -1  -1   8  494.15   92.59
   1  -1  -8  490.75   66.59
   1  -1  -8  476.25   99.39
  -1   1   8  289.67   82.99
   1   1  -8  450.05   70.49
   1   1  -8  314.77   89.49
  -1   1   8  346.17   73.69
   8  -2  -8   62.99   58.89
   8  -2  -8  121.19   44.80
  -8  -2   8  134.29   42.90
   8  -2  -8  103.09   61.39
   8   2  -8  124.39   71.29
  -8   2   8  135.49   47.70
   8   2  -8  134.39   66.39
  -6  -2   8    9.20   30.00
   6  -2  -8   17.50   26.10
   6  -2  -8   51.39   53.19
  -6   2   8   43.10   30.10
   6   2  -8   13.50   43.60
   6   2  -8  -38.70   46.20
   4  -2  -8   97.69   23.20
   4  -2  -8  173.48   69.39
   4  -2  -8  154.28   51.99
  -4  -2   8   67.89   35.30
   4   2  -8  118.29   60.39
   4   2  -8   80.89   43.20
  -4   2   8   93.99   36.10
  -2  -2   8  547.85   77.59
   2  -2  -8  470.85   74.59
   2  -2  -8  393.46   95.59
   2   2  -8  390.26   78.99
  -2   2   8  629.24   82.59
   2   2  -8  520.45  118.39
   0  -2   8  503.75   89.39
   0  -2   8  473.35   82.09
   0  -2  -8  486.55   94.19
   0   2   8  626.84  113.09
   0   2   8  486.35   95.29
   0   2  -8  390.16   72.29
   0   2  -8  531.05  161.88
  -7  -3   8  171.88   47.80
   7  -3  -8  204.28   73.79
   7  -3  -8  109.09   45.90
   7  -3  -8   99.29   63.89
   7   3  -8  139.09   74.49
   7   3  -8  123.89   63.19
  -7   3   8  139.49   46.70
   7   3  -8  100.19   31.60
   5  -3  -8  221.48   74.49
  -5  -3   8  153.08   47.40
   5  -3  -8  203.88   36.10
  -5   3   8  111.89   41.90
   5   3  -8  294.57   79.89
  -3  -3   8  858.61   98.69
   3  -3  -8  885.31  102.49
   3   3  -8 1100.89  122.89
  -3   3   8  861.11   97.99
   1  -3  -8  442.96   57.59
   1  -3  -8  255.47   77.49
  -1  -3   8  435.06   75.89
   1   3  -8  340.97   86.39
  -1   3   8  388.56   77.09
   1   3  -8  378.16   74.49
  -1   3   8  359.56   90.89
   8  -4  -8  -14.50   38.20
   8  -4  -8  103.69   59.99
   8  -4  -8  163.58   73.89
  -8  -4   8  141.69   44.40
   8   4  -8  170.28   73.69
   8   4  -8   32.30   60.99
  -8   4   8   71.49   39.60
   6  -4  -8  593.54  117.29
   6  -4  -8  678.33   76.89
  -6  -4   8  631.44   82.69
   6   4  -8  659.63  148.29
  -6   4   8  596.44   83.19
   6   4  -8  465.75  111.89
   4  -4  -8 1267.17  122.19
   4  -4  -8 1360.66  158.38
   4  -4  -8 1406.36   94.79
  -4  -4   8 1392.76  127.09
   4   4  -8 1492.05  142.79
  -4   4   8 1476.75  134.79
   4   4  -8 1422.86  163.88
  -2  -4   8  134.09   46.80
   2  -4  -8  174.38   64.89
   2  -4  -8  221.98   47.80
   2   4  -8  215.18   66.69
  -2   4   8  245.08   55.49
   2   4  -8  142.39   55.59
   0  -4  -8   -9.40   43.60
   0  -4   8   73.19   47.80
   0  -4   8  -48.90   34.80
   0   4   8  -65.49   41.80
   0   4   8  -75.59   33.00
   0   4  -8  -21.60   44.70
   7  -5  -8  403.76   94.29
  -7  -5   8  562.14   74.09
   7  -5  -8  402.96   98.69
   7  -5  -8  479.75   77.29
  -7   5   8  451.55   86.49
   7   5  -8  370.56   98.29
   7   5  -8  375.36  106.69
  -5  -5   8  204.78   51.99
   5  -5  -8  141.29   35.20
   5  -5  -8  205.38   69.59
   5   5  -8  211.98   71.19
  -5   5   8  256.37   58.09
   5   5  -8  184.98   59.19
   3  -5  -8   97.79   46.70
   3  -5  -8   42.00   51.39
   3  -5  -8   43.80   25.00
  -3  -5   8   59.69   34.20
   3   5  -8   98.89   58.39
  -3   5   8   59.39   35.90
   1  -5  -8  191.98   64.79
  -1  -5   8  307.27   64.59
  -1  -5   8  286.17   64.79
  -1   5   8  207.28   56.59
   1   5  -8  231.98   79.49
   8  -6  -8  263.47   62.49
  -8  -6   8  289.17   57.59
  -8  -6   8  290.97   50.89
   8  -6  -8  430.26  154.68
  -8   6   8  167.28   71.99
   8   6  -8  180.38   84.89
   8   6  -8  257.77   86.09
   6  -6  -8  298.97   82.09
  -6  -6   8  388.06   66.39
   6  -6  -8  304.17   61.19
   6   6  -8  310.67   85.69
  -6   6   8  317.47   72.49
   6   6  -8  302.27   90.49
   4  -6  -8  209.28   71.39
  -4  -6   8  185.28   48.40
   4  -6  -8  218.48   45.70
   4  -6  -8  196.38   54.29
  -4   6   8  296.97   64.29
   4   6  -8  207.58   78.79
   4   6  -8  195.78   66.79
  -2  -6   8  455.75   78.49
  -2  -6   8  337.47   70.49
   2  -6  -8  450.25   89.19
   2   6  -8  464.15  106.49
   2   6  -8  586.44   96.39
  -2   6   8  362.46   70.99
   0  -6  -8  913.71  114.89
   0  -6   8  790.32  113.89
   0  -6   8  867.01  103.09
   0   6   8  950.50  110.89
   0   6  -8  983.20  117.79
   0   6  -8  996.00  140.39
   7  -7  -8   13.10   42.90
   7  -7  -8   69.59   54.79
   7  -7  -8    4.90   39.60
  -7  -7   8   34.90   32.40
  -7   7   8   87.09   44.80
   7   7  -8   20.10   55.39
   7   7  -8   26.80   64.79
   5  -7  -8   50.29   31.70
  -5  -7   8   32.70   31.90
   5  -7  -8   -9.90   43.40
   5   7  -8   65.59   47.00
   5   7  -8  101.49   51.79
  -5   7   8    2.00   31.80
   3  -7  -8   49.99   42.10
  -3  -7   8   48.50   33.80
   3  -7  -8  -37.90   36.00
   3  -7  -8   13.30   23.10
   3   7  -8  111.19   61.39
  -3   7   8   74.09   33.30
   1  -7  -8  157.98   63.19
  -1  -7   8  248.08   58.39
  -1  -7   8  279.77   64.39
   1   7  -8  212.18   75.39
  -1   7   8  266.67   62.09
   1   7  -8  188.18   68.49
  -8  -8   8  187.18   47.00
   8  -8  -8  155.28   71.59
  -8  -8   8  235.38   52.69
   8  -8  -8  120.89   51.49
   8   8  -8  216.68   80.99
  -8   8   8  123.59   47.70
   8   8  -8  132.19   69.19
  -6  -8   8  521.45   69.59
   6  -8  -8  465.15   95.69
   6  -8  -8  335.87   66.09
   6   8  -8  444.06   86.69
   6   8  -8  544.65  112.99
  -6   8   8  474.25   82.39
   4  -8  -8 1090.49   89.59
  -4  -8   8  798.52   90.39
   4  -8  -8  924.41  120.69
   4  -8  -8  730.33   89.19
  -4   8   8  761.02   95.09
   4   8  -8  972.90  135.79
   4   8  -8 1033.40  127.99
  -2  -8   8  599.54   86.49
   2  -8  -8  549.54   99.19
  -2  -8   8  751.32   90.09
   2   8  -8  768.12  110.79
  -2   8   8  730.33   92.99
   2   8  -8  671.83  127.69
  -7  -9   8   41.00   32.60
  -7  -9   8   -8.90   34.00
   7  -9  -8   16.60   38.60
   7  -9  -8   58.99   49.20
   7   9  -8   18.20   53.39
  -7   9   8  -14.50   35.40
  -5  -9   8  308.77   56.99
   5  -9  -8  382.96   82.59
   5  -9  -8  218.48   58.99
  -5   9   8  291.97   65.29
   5   9  -8  331.27   74.39
   5   9  -8  498.55  103.89
   3  -9  -8  267.67   51.79
   3  -9  -8  322.77   71.89
  -3  -9   8  247.38   58.09
  -3   9   8  291.37   67.99
   3   9  -8  340.07   85.99
   1  -9  -8   34.10   47.60
  -1  -9   8   -6.50   32.10
  -1  -9   8    7.70   41.80
   1   9  -8   36.40   50.19
  -1   9   8   40.60   34.80
   1   9  -8   55.19   55.19
   6 -10  -8  125.29   61.39
   6 -10  -8  186.48   63.59
  -6 -10   8  160.88   42.30
   6  10  -8  172.68   66.29
   6  10  -8  181.58   59.19
  -6  10   8  212.08   57.89
  -4 -10   8   54.89   36.40
   4 -10  -8   58.49   38.20
   4 -10  -8   -5.00   31.30
   4  10  -8  147.19   57.79
   4  10  -8  -35.10   53.89
  -4  10   8   -7.00   30.40
  -2 -10   8  415.86   71.49
   2 -10  -8  493.65   62.19
   2 -10  -8  317.47   75.29
  -2  10   8  406.56   73.79
   2  10  -8  403.56   99.99
   2  10  -8  264.87   67.69
  -7 -11   8  104.29   45.40
  -7 -11   8   58.49   44.00
   7 -11  -8  193.88   69.89
   7 -11  -8   77.19   49.00
  -7  11   8  143.89   55.99
   7  11  -8   78.59   68.29
   7  11  -8  137.59   69.59
   7  11  -8  101.59   57.19
  -5 -11   8  229.08   50.69
   5 -11  -8  111.09   62.99
   5 -11  -8  189.38   53.49
   5  11  -8  180.08   60.99
  -5  11   8  199.48   60.59
   5  11  -8  133.69   66.89
  -3 -11   8  -16.20   31.40
   3 -11  -8    7.80   42.50
  -3 -11   8  -75.49   36.80
   3 -11  -8  -18.80   29.60
  -3  11   8   21.60   35.50
   3  11  -8  -37.30   40.60
   3  11  -8  -74.69   42.10
   6 -12  -8   93.09   53.39
  -6 -12   8  104.89   43.80
  -6 -12   8   97.19   41.50
   6 -12  -8   71.19   42.90
  -6  12   8   92.49   41.40
   6  12  -8   74.89   67.09
   6  12  -8  119.79   67.29
   4 -12  -8  161.98   53.69
  -4 -12   8  217.08   48.10
   4 -12  -8   70.09   41.30
  -4  12   8  138.19   50.99
   4  12  -8  120.69   66.69
   4  12  -8  147.59   65.09
  -2 -12   8   58.09   40.40
   2 -12  -8   96.49   34.60
   2  12  -8  -22.90   46.00
  -2  12   8   81.19   44.30
   5 -13  -8   74.99   55.99
   5 -13  -8  155.08   55.59
   5 -13  -8  110.19   51.09
  -5 -13   8  169.88   46.30
   5  13  -8  140.69   69.89
  -5  13   8  167.78   58.29
   5  13  -8  208.48   72.69
   3 -13  -8  223.38   72.19
  -3 -13   8  258.27   56.99
   3 -13  -8  341.87   64.49
   3 -13  -8  345.97   75.49
   3  13  -8  322.57   79.39
   3  13  -8  291.77   75.29
  -3  13   8  306.27   71.19
   4 -14  -8   36.80   44.30
   4 -14  -8    4.00   37.30
  -4 -14   8   42.90   61.69
  -4  14   8   78.99   43.30
   4  14  -8   85.89   59.29
   6   0  -9   17.40   54.79
  -6   0   9   14.90   30.00
   4   0  -9 -111.89   48.70
   4   0  -9   23.30   52.59
  -4   0   9   -4.80   27.90
  -2   0   9  -15.40   30.60
   2   0  -9  -62.19   45.80
   2   0  -9  -22.20   48.90
  -7  -1   9    7.50   31.90
   7  -1  -9   37.70   62.39
   7   1  -9   95.49   67.49
  -5  -1   9   69.49   37.60
   5  -1  -9  218.98   70.79
   5  -1  -9  213.78   80.99
   5   1  -9  304.67   69.39
  -5   1   9  116.69   40.50
   5   1  -9  188.68   69.49
   3  -1  -9  546.85   89.19
  -3  -1   9  307.27   95.49
   3  -1  -9  323.37   91.29
   3   1  -9  359.26  103.89
   3   1  -9  369.06   85.19
  -6  -2   9   82.09   38.30
   6  -2  -9   66.69   60.89
  -6   2   9   73.49   40.60
   6   2  -9   82.39   62.09
   6   2  -9  140.49   67.09
  -4  -2   9  114.19   42.90
   4  -2  -9  165.88   63.99
   4   2  -9  -47.50   58.29
  -4   2   9  101.39   41.00
   4   2  -9   48.50   59.49
  -2  -2   9   49.60   39.60
  -2  -2   9  -52.69   47.30
   2   2  -9    1.60   53.09
   2   2  -9   93.29   57.19
  -2   2   9   24.10   35.80
   7  -3  -9  535.05  118.89
  -7  -3   9  199.68   53.09
   7  -3  -9  279.37   58.09
   7   3  -9  254.47   76.39
  -7   3   9  100.49   50.19
  -5  -3   9   26.30   30.60
   5  -3  -9  -10.50   53.49
   5  -3  -9   83.49   53.09
   5   3  -9    6.10   53.89
  -5   3   9   -5.90   31.70
   5   3  -9   91.69   52.49
   3  -3  -9  -81.79   44.70
   3  -3  -9   12.90   49.10
  -3  -3   9   74.49   44.80
   3   3  -9  -14.70   52.79
  -3   3   9  -65.69   33.90
   6  -4  -9   70.19   53.89
   6  -4  -9   36.50   27.90
  -6  -4   9   -2.30   33.30
   6   4  -9  -23.90   42.20
  -4  -4   9  172.68   52.59
   4  -4  -9  188.38   68.19
   4   4  -9  234.38   87.89
  -4   4   9  163.68   48.30
   4   4  -9  130.99   64.39
  -2  -4   9  409.96   82.59
   7  -5  -9   13.80   37.80
  -7  -5   9  145.59   42.90
   7  -5  -9   49.70   56.19
   7   5  -9   23.10   62.69
  -7   5   9   43.50   35.10
   5  -5  -9   51.39   61.29
   5  -5  -9   79.69   31.20
  -5  -5   9   72.49   40.90
   5  -5  -9  107.69   54.39
  -5   5   9  110.59   54.99
   5   5  -9  122.59   82.09
   5   5  -9   32.50   50.19
   3  -5  -9  -44.70   45.00
  -3  -5   9   34.00   40.30
   3   5  -9  -56.49   46.60
  -3   5   9  -10.60   29.30
   3   5  -9  -37.90   51.09
   6  -6  -9  121.09   66.49
  -6  -6   9  145.79   50.69
   6  -6  -9  196.18   44.00
  -6   6   9  127.29   47.50
   6   6  -9  199.58  103.69
   6   6  -9  117.39   60.59
   4  -6  -9  128.39   62.09
  -4  -6   9  148.59   47.70
   4  -6  -9  114.79   33.40
   4   6  -9  153.78   61.29
   4   6  -9 -105.69  105.79
   5  -7  -9  142.79   70.89
  -5  -7   9  132.89   47.20
   5  -7  -9  230.28   64.39
   5  -7  -9   88.39   36.50
  -5   7   9  127.49   56.99
   5   7  -9   84.39   63.79
   5   7  -9  116.09   82.39
  -3  -7   9  301.87   90.69
   3  -7  -9  346.87   83.39
   3   7  -9  146.19   77.29
   3   7  -9  222.38   66.69
  -3   7   9  245.78   63.19
  -6  -8   9  175.48   48.40
   6  -8  -9  133.89   49.30
   6  -8  -9  206.68   73.99
   6   8  -9  130.19   64.79
  -6   8   9  143.39   48.70
   6   8  -9  110.59   52.59
   4  -8  -9   93.49   48.80
   4  -8  -9   64.79   33.20
  -4   8   9   61.89   46.60
   4   8  -9   11.80   55.49
   5  -9  -9   49.00   58.99
  -5  -9   9   74.39   35.10
   5  -9  -9   31.80   36.20
   5   9  -9    9.20   49.80
  -5   9   9   55.49   39.40
   5   9  -9  124.39   66.99
   0   0   0    0.00    0.00

_computing_structure_solution     'SHELXT 2014/5 (Sheldrick, 2014)'
;
_shelx_hkl_checksum              38421
loop_
_space_group_symop_operation_xyz
'x, y, z'
'x, -y, z+1/2'
'x+1/2, y+1/2, z'
'x+1/2, -y+1/2, z+1/2'
loop_
_atom_site_label
_atom_site_type_symbol
_atom_site_fract_x
_atom_site_fract_y
_atom_site_fract_z
_atom_site_U_iso_or_equiv
_atom_site_adp_type
_atom_site_occupancy
_atom_site_site_symmetry_order
_atom_site_calc_flag
_atom_site_refinement_flags_posn
_atom_site_refinement_flags_adp
_atom_site_refinement_flags_occupancy
_atom_site_disorder_assembly
_atom_site_disorder_group
W1 W 0.70026(15) 0.51184(5) 0.59068(15) 0.0230(2) Uani 1 1 d . . . . .
W2 W 0.28901(17) 0.75480(6) 0.39568(17) 0.0331(3) Uani 1 1 d . . . . .
Ba1 Ba 0.1527(2) 0.57479(7) 0.1208(2) 0.0259(4) Uani 1 1 d . . . . .
Ba2 Ba 0.3262(2) 0.82200(8) 0.9465(2) 0.0327(4) Uani 1 1 d . . . . .
I1 I 0.3853(3) 0.39332(8) 0.2561(3) 0.0277(4) Uani 1 1 d . . . . .
F1 F 0.825(2) 0.4210(6) 0.697(2) 0.030(4) Uani 1 1 d . . . . .
F2 F 0.176(3) 0.6698(7) 0.382(3) 0.042(4) Uani 1 1 d . . . . .
F3 F 0.388(2) 0.7186(8) 0.218(3) 0.045(4) Uani 1 1 d . . . . .
O1 O 0.374(2) 0.8349(7) 0.359(2) 0.021(4) Uani 1 1 d . . . . .
O2 O 0.557(2) 0.5800(7) 0.451(3) 0.022(4) Uani 1 1 d . . . . .
O3 O 0.688(3) 0.5236(7) 0.831(3) 0.026(4) Uani 1 1 d . . . . .
O4 O 0.033(3) 0.7693(8) 0.125(3) 0.038(5) Uani 1 1 d . . . . .
O5 O 0.170(3) 0.7841(8) 0.540(3) 0.033(5) Uani 1 1 d . . . . .
O6 O 0.215(3) 0.3439(8) 0.291(3) 0.035(5) Uani 1 1 d . . . . .
O7 O 0.229(3) 0.4494(7) 0.051(3) 0.027(4) Uani 1 1 d . . . . .
O8 O 0.442(3) 0.4495(8) 0.477(3) 0.033(5) Uani 1 1 d . . . . .
O9 O 0.946(2) 0.5394(8) 0.689(3) 0.026(4) Uani 1 1 d . . . . .
loop_
_atom_site_aniso_label
_atom_site_aniso_U_11
_atom_site_aniso_U_22
_atom_site_aniso_U_33
_atom_site_aniso_U_23
_atom_site_aniso_U_13
_atom_site_aniso_U_12
W1 0.0256(6) 0.0270(5) 0.0170(5) -0.0007(5) 0.0115(4) 0.0011(5)
W2 0.0255(6) 0.0362(7) 0.0232(6) 0.0013(6) 0.0021(5) 0.0044(6)
Ba1 0.0242(9) 0.0273(9) 0.0227(9) -0.0024(7) 0.0095(7) 0.0027(7)
Ba2 0.0297(10) 0.0437(10) 0.0235(9) 0.0033(8) 0.0128(8) 0.0021(8)
I1 0.0285(10) 0.0264(9) 0.0320(10) 0.0011(8) 0.0181(8) 0.0008(8)
F1 0.040(9) 0.017(7) 0.029(9) -0.003(6) 0.015(8) 0.004(6)
F2 0.054(11) 0.036(10) 0.044(12) -0.011(8) 0.032(10) -0.010(8)
F3 0.045(11) 0.052(11) 0.041(11) 0.004(8) 0.025(9) 0.005(9)
O1 0.017(8) 0.016(9) 0.021(9) -0.001(7) 0.004(7) -0.009(7)
O2 0.021(9) 0.020(9) 0.020(9) -0.001(7) 0.007(8) -0.006(7)
O3 0.024(9) 0.031(11) 0.024(10) 0.006(8) 0.013(8) 0.010(8)
O4 0.030(10) 0.046(13) 0.020(10) 0.001(9) 0.000(8) 0.015(10)
O5 0.036(11) 0.032(10) 0.039(13) -0.012(9) 0.025(11) -0.001(9)
O6 0.028(10) 0.032(11) 0.049(14) 0.008(9) 0.021(10) -0.009(8)
O7 0.023(9) 0.023(9) 0.017(10) 0.000(8) -0.002(8) 0.001(8)
O8 0.034(11) 0.044(12) 0.029(12) -0.018(9) 0.021(10) -0.021(9)
O9 0.014(9) 0.026(9) 0.032(11) -0.010(8) 0.008(8) -0.002(7)
loop_
_atom_type_symbol
_atom_type_description
_atom_type_scat_dispersion_real
_atom_type_scat_dispersion_imag
_atom_type_scat_source
Ba Ba -0.3244 2.2819 'International Tables Vol C Tables 4.2.6.8 and 6.1.1.4'
F F 0.0171 0.0103 'International Tables Vol C Tables 4.2.6.8 and 6.1.1.4'
I I -0.4742 1.8119 'International Tables Vol C Tables 4.2.6.8 and 6.1.1.4'
O O 0.0106 0.0060 'International Tables Vol C Tables 4.2.6.8 and 6.1.1.4'
W W -0.8490 6.8722 'International Tables Vol C Tables 4.2.6.8 and 6.1.1.4'
loop_
_geom_angle_atom_site_label_1
_geom_angle_atom_site_label_2
_geom_angle_atom_site_label_3
_geom_angle
_geom_angle_site_symmetry_1
_geom_angle_site_symmetry_3
_geom_angle_publ_flag
O9 W1 O2 101.6(8) . . ?
O9 W1 O3 97.8(8) . . ?
O2 W1 O3 97.8(7) . . ?
O9 W1 O3 91.4(7) . 2_564 ?
O2 W1 O3 91.2(7) . 2_564 ?
O3 W1 O3 165.5(4) . 2_564 ?
O9 W1 F1 86.9(7) . . ?
O2 W1 F1 167.8(7) . . ?
O3 W1 F1 89.6(6) . . ?
O3 W1 F1 79.7(6) 2_564 . ?
O9 W1 O8 162.2(7) . . ?
O2 W1 O8 94.4(7) . . ?
O3 W1 O8 87.8(7) . . ?
O3 W1 O8 80.2(7) 2_564 . ?
F1 W1 O8 76.2(7) . . ?
O9 W1 Ba1 50.6(5) . 2_665 ?
O2 W1 Ba1 133.3(5) . 2_665 ?
O3 W1 Ba1 120.0(5) . 2_665 ?
O3 W1 Ba1 58.6(5) 2_564 2_665 ?
F1 W1 Ba1 47.4(4) . 2_665 ?
O8 W1 Ba1 112.1(5) . 2_665 ?
O9 W1 Ba2 56.7(6) . 4_564 ?
O2 W1 Ba2 45.2(5) . 4_564 ?
O3 W1 Ba2 107.1(5) . 4_564 ?
O3 W1 Ba2 87.3(5) 2_564 4_564 ?
F1 W1 Ba2 141.0(4) . 4_564 ?
O8 W1 Ba2 137.6(5) . 4_564 ?
Ba1 W1 Ba2 94.71(6) 2_665 4_564 ?
O9 W1 Ba1 41.6(6) . 1_656 ?
O2 W1 Ba1 106.9(5) . 1_656 ?
O3 W1 Ba1 56.2(5) . 1_656 ?
O3 W1 Ba1 131.5(5) 2_564 1_656 ?
F1 W1 Ba1 85.3(4) . 1_656 ?
O8 W1 Ba1 139.7(5) . 1_656 ?
Ba1 W1 Ba1 77.45(6) 2_665 1_656 ?
Ba2 W1 Ba1 76.25(5) 4_564 1_656 ?
O5 W2 O4 97.5(9) . 4_565 ?
O5 W2 O1 96.4(7) . . ?
O4 W2 O1 96.1(7) 4_565 . ?
O5 W2 F2 89.2(7) . . ?
O4 W2 F2 91.3(7) 4_565 . ?
O1 W2 F2 170.0(7) . . ?
O5 W2 F3 173.5(8) . . ?
O4 W2 F3 87.4(8) 4_565 . ?
O1 W2 F3 87.3(7) . . ?
F2 W2 F3 86.4(7) . . ?
O5 W2 O4 90.5(8) . . ?
O4 W2 O4 170.8(8) 4_565 . ?
O1 W2 O4 87.6(7) . . ?
F2 W2 O4 84.2(7) . . ?
F3 W2 O4 84.3(8) . . ?
O5 W2 Ba2 133.3(6) . 1_554 ?
O4 W2 Ba2 114.4(6) 4_565 1_554 ?
O1 W2 Ba2 49.1(5) . 1_554 ?
F2 W2 Ba2 121.5(5) . 1_554 ?
F3 W2 Ba2 46.9(5) . 1_554 ?
O4 W2 Ba2 62.1(6) . 1_554 ?
F2 Ba1 O1 75.8(5) . 4_464 ?
F2 Ba1 O7 150.9(5) . . ?
O1 Ba1 O7 131.9(5) 4_464 . ?
F2 Ba1 O2 73.1(5) . . ?
O1 Ba1 O2 134.7(4) 4_464 . ?
O7 Ba1 O2 87.2(5) . . ?
F2 Ba1 O9 142.0(5) . 1_454 ?
O1 Ba1 O9 66.2(5) 4_464 1_454 ?
O7 Ba1 O9 66.3(5) . 1_454 ?
O2 Ba1 O9 136.2(5) . 1_454 ?
F2 Ba1 F1 64.9(4) . 2_464 ?
O1 Ba1 F1 70.9(4) 4_464 2_464 ?
O7 Ba1 F1 111.1(5) . 2_464 ?
O2 Ba1 F1 121.4(5) . 2_464 ?
O9 Ba1 F1 101.1(4) 1_454 2_464 ?
F2 Ba1 O8 126.6(5) . 2_564 ?
O1 Ba1 O8 108.5(5) 4_464 2_564 ?
O7 Ba1 O8 60.1(5) . 2_564 ?
O2 Ba1 O8 67.7(5) . 2_564 ?
O9 Ba1 O8 68.9(5) 1_454 2_564 ?
F1 Ba1 O8 168.4(5) 2_464 2_564 ?
F2 Ba1 O7 56.5(5) . 2_565 ?
O1 Ba1 O7 121.6(5) 4_464 2_565 ?
O7 Ba1 O7 95.7(4) . 2_565 ?
O2 Ba1 O7 63.2(5) . 2_565 ?
O9 Ba1 O7 148.6(4) 1_454 2_565 ?
F1 Ba1 O7 60.0(4) 2_464 2_565 ?
O8 Ba1 O7 125.8(5) 2_564 2_565 ?
F2 Ba1 O9 107.2(5) . 2_464 ?
O1 Ba1 O9 111.1(4) 4_464 2_464 ?
O7 Ba1 O9 58.8(5) . 2_464 ?
O2 Ba1 O9 109.0(4) . 2_464 ?
O9 Ba1 O9 87.1(3) 1_454 2_464 ?
F1 Ba1 O9 53.0(4) 2_464 2_464 ?
O8 Ba1 O9 118.9(5) 2_564 2_464 ?
O7 Ba1 O9 61.5(4) 2_565 2_464 ?
F2 Ba1 O6 100.7(4) . 2_564 ?
O1 Ba1 O6 58.1(5) 4_464 2_564 ?
O7 Ba1 O6 102.7(5) . 2_564 ?
O2 Ba1 O6 96.5(5) . 2_564 ?
O9 Ba1 O6 59.3(5) 1_454 2_564 ?
F1 Ba1 O6 129.0(4) 2_464 2_564 ?
O8 Ba1 O6 51.7(5) 2_564 2_564 ?
O7 Ba1 O6 152.0(5) 2_565 2_564 ?
O9 Ba1 O6 146.5(5) 2_464 2_564 ?
F2 Ba1 O3 110.9(5) . 1_454 ?
O1 Ba1 O3 64.0(4) 4_464 1_454 ?
O7 Ba1 O3 80.8(5) . 1_454 ?
O2 Ba1 O3 159.6(4) . 1_454 ?
O9 Ba1 O3 52.0(4) 1_454 1_454 ?
F1 Ba1 O3 50.2(4) 2_464 1_454 ?
O8 Ba1 O3 118.6(5) 2_564 1_454 ?
O7 Ba1 O3 101.5(5) 2_565 1_454 ?
O9 Ba1 O3 50.6(4) 2_464 1_454 ?
O6 Ba1 O3 102.1(5) 2_564 1_454 ?
F2 Ba1 W1 96.1(4) . 2_464 ?
O1 Ba1 W1 85.4(3) 4_464 2_464 ?
O7 Ba1 W1 79.9(4) . 2_464 ?
O2 Ba1 W1 129.7(3) . 2_464 ?
O9 Ba1 W1 81.3(3) 1_454 2_464 ?
F1 Ba1 W1 32.3(3) 2_464 2_464 ?
O8 Ba1 W1 136.9(4) 2_564 2_464 ?
O7 Ba1 W1 69.9(3) 2_565 2_464 ?
O9 Ba1 W1 26.3(3) 2_464 2_464 ?
O6 Ba1 W1 133.7(4) 2_564 2_464 ?
O3 Ba1 W1 31.9(3) 1_454 2_464 ?
O5 Ba2 F1 67.9(5) . 3_455 ?
O5 Ba2 O6 135.7(6) . 3_556 ?
F1 Ba2 O6 97.3(5) 3_455 3_556 ?
O5 Ba2 F3 113.0(5) . 1_556 ?
F1 Ba2 F3 171.4(5) 3_455 1_556 ?
O6 Ba2 F3 76.1(5) 3_556 1_556 ?
O5 Ba2 O1 159.8(5) . 1_556 ?
F1 Ba2 O1 126.5(4) 3_455 1_556 ?
O6 Ba2 O1 61.5(5) 3_556 1_556 ?
F3 Ba2 O1 55.2(4) 1_556 1_556 ?
O5 Ba2 O2 107.5(5) . 4_465 ?
F1 Ba2 O2 74.6(4) 3_455 4_465 ?
O6 Ba2 O2 108.0(5) 3_556 4_465 ?
F3 Ba2 O2 112.4(5) 1_556 4_465 ?
O1 Ba2 O2 68.2(4) 1_556 4_465 ?
O5 Ba2 F2 76.1(5) . 4_565 ?
F1 Ba2 F2 62.6(4) 3_455 4_565 ?
O6 Ba2 F2 60.5(5) 3_556 4_565 ?
F3 Ba2 F2 109.0(5) 1_556 4_565 ?
O1 Ba2 F2 122.0(5) 1_556 4_565 ?
O2 Ba2 F2 132.2(4) 4_465 4_565 ?
O5 Ba2 F3 64.2(5) . 4_465 ?
F1 Ba2 F3 102.2(4) 3_455 4_465 ?
O6 Ba2 F3 157.1(5) 3_556 4_465 ?
F3 Ba2 F3 85.5(4) 1_556 4_465 ?
O1 Ba2 F3 96.9(4) 1_556 4_465 ?
O2 Ba2 F3 66.6(5) 4_465 4_465 ?
F2 Ba2 F3 140.3(4) 4_565 4_465 ?
O5 Ba2 O5 83.8(4) . 4_565 ?
F1 Ba2 O5 111.7(4) 3_455 4_565 ?
O6 Ba2 O5 62.6(5) 3_556 4_565 ?
F3 Ba2 O5 60.5(4) 1_556 4_565 ?
O1 Ba2 O5 100.9(4) 1_556 4_565 ?
O2 Ba2 O5 168.7(5) 4_465 4_565 ?
F2 Ba2 O5 50.5(4) 4_565 4_565 ?
F3 Ba2 O5 119.2(5) 4_465 4_565 ?
O5 Ba2 O9 134.7(5) . 4_465 ?
F1 Ba2 O9 67.6(4) 3_455 4_465 ?
O6 Ba2 O9 59.1(5) 3_556 4_465 ?
F3 Ba2 O9 112.3(5) 1_556 4_465 ?
O1 Ba2 O9 59.3(4) 1_556 4_465 ?
O2 Ba2 O9 51.8(4) 4_465 4_465 ?
F2 Ba2 O9 90.9(4) 4_565 4_465 ?
F3 Ba2 O9 118.3(4) 4_465 4_465 ?
O5 Ba2 O9 120.8(4) 4_565 4_465 ?
O5 Ba2 O4 109.9(5) . 1_556 ?
F1 Ba2 O4 137.8(4) 3_455 1_556 ?
O6 Ba2 O4 108.2(5) 3_556 1_556 ?
F3 Ba2 O4 50.6(4) 1_556 1_556 ?
O1 Ba2 O4 49.9(4) 1_556 1_556 ?
O2 Ba2 O4 65.9(4) 4_465 1_556 ?
F2 Ba2 O4 159.6(4) 4_565 1_556 ?
F3 Ba2 O4 48.9(4) 4_465 1_556 ?
O5 Ba2 O4 109.8(4) 4_565 1_556 ?
O9 Ba2 O4 97.3(4) 4_465 1_556 ?
O5 Ba2 W2 133.2(4) . 1_556 ?
F1 Ba2 W2 153.5(3) 3_455 1_556 ?
O6 Ba2 W2 77.3(4) 3_556 1_556 ?
F3 Ba2 W2 31.0(3) 1_556 1_556 ?
O1 Ba2 W2 28.8(3) 1_556 1_556 ?
O2 Ba2 W2 82.4(3) 4_465 1_556 ?
F2 Ba2 W2 130.8(3) 4_565 1_556 ?
F3 Ba2 W2 79.9(3) 4_465 1_556 ?
O5 Ba2 W2 89.1(3) 4_565 1_556 ?
O9 Ba2 W2 88.0(3) 4_465 1_556 ?
O4 Ba2 W2 31.8(3) 1_556 1_556 ?
O6 I1 O7 105.7(8) . . ?
O6 I1 O8 94.8(8) . . ?
O7 I1 O8 95.5(8) . . ?
O6 I1 Ba2 38.1(6) . 3_444 ?
O7 I1 Ba2 72.3(5) . 3_444 ?
O8 I1 Ba2 115.6(6) . 3_444 ?
O6 I1 Ba1 51.4(6) . 2_565 ?
O7 I1 Ba1 97.5(6) . 2_565 ?
O8 I1 Ba1 44.4(5) . 2_565 ?
Ba2 I1 Ba1 73.99(7) 3_444 2_565 ?
W1 F1 Ba2 140.4(7) . 3_545 ?
W1 F1 Ba1 100.4(5) . 2_665 ?
Ba2 F1 Ba1 117.2(5) 3_545 2_665 ?
W2 F2 Ba1 124.2(7) . . ?
W2 F2 Ba2 110.9(6) . 4_464 ?
Ba1 F2 Ba2 115.2(5) . 4_464 ?
W2 F3 Ba2 102.1(6) . 1_554 ?
W2 F3 Ba2 115.6(7) . 4_564 ?
Ba2 F3 Ba2 110.2(5) 1_554 4_564 ?
W2 O1 Ba1 135.1(7) . 4_565 ?
W2 O1 Ba2 102.1(6) . 1_554 ?
Ba1 O1 Ba2 116.0(5) 4_565 1_554 ?
W1 O2 Ba1 124.1(7) . . ?
W1 O2 Ba2 109.3(7) . 4_564 ?
Ba1 O2 Ba2 119.5(5) . 4_564 ?
W1 O3 W1 150.8(9) . 2_565 ?
W1 O3 Ba1 95.7(6) . 1_656 ?
W1 O3 Ba1 89.5(6) 2_565 1_656 ?
W2 O4 W2 154.9(10) 4_464 . ?
W2 O4 Ba2 107.5(8) 4_464 1_554 ?
W2 O4 Ba2 86.0(7) . 1_554 ?
W2 O5 Ba2 132.2(9) . . ?
W2 O5 Ba2 104.5(6) . 4_464 ?
Ba2 O5 Ba2 106.4(6) . 4_464 ?
I1 O6 Ba2 118.7(9) . 3_444 ?
I1 O6 Ba1 102.8(7) . 2_565 ?
Ba2 O6 Ba1 106.0(6) 3_444 2_565 ?
I1 O7 Ba1 124.1(8) . . ?
I1 O7 Ba1 118.6(7) . 2_564 ?
Ba1 O7 Ba1 114.4(5) . 2_564 ?
I1 O8 W1 117.8(9) . . ?
I1 O8 Ba1 109.3(7) . 2_565 ?
W1 O8 Ba1 132.6(7) . 2_565 ?
W1 O9 Ba1 114.4(8) . 1_656 ?
W1 O9 Ba1 103.1(6) . 2_665 ?
Ba1 O9 Ba1 110.5(5) 1_656 2_665 ?
W1 O9 Ba2 96.8(6) . 4_564 ?
Ba1 O9 Ba2 103.4(5) 1_656 4_564 ?
Ba1 O9 Ba2 128.2(6) 2_665 4_564 ?
loop_
_geom_bond_atom_site_label_1
_geom_bond_atom_site_label_2
_geom_bond_distance
_geom_bond_site_symmetry_2
_geom_bond_publ_flag
W1 O9 1.736(15) . ?
W1 O2 1.759(15) . ?
W1 O3 1.848(18) . ?
W1 O3 2.018(17) 2_564 ?
W1 F1 2.070(13) . ?
W1 O8 2.145(16) . ?
W1 Ba1 3.816(3) 2_665 ?
W1 Ba2 3.863(3) 4_564 ?
W1 Ba1 3.900(3) 1_656 ?
W2 O5 1.837(17) . ?
W2 O4 1.840(18) 4_565 ?
W2 O1 1.850(15) . ?
W2 F2 1.938(15) . ?
W2 F3 1.979(17) . ?
W2 O4 1.984(17) . ?
W2 Ba2 3.754(3) 1_554 ?
Ba1 F2 2.695(15) . ?
Ba1 O1 2.751(15) 4_464 ?
Ba1 O7 2.764(16) . ?
Ba1 O2 2.806(15) . ?
Ba1 O9 2.847(17) 1_454 ?
Ba1 F1 2.854(15) 2_464 ?
Ba1 O8 2.959(18) 2_564 ?
Ba1 O7 2.977(17) 2_565 ?
Ba1 O9 3.028(15) 2_464 ?
Ba1 O6 3.197(19) 2_564 ?
Ba1 O3 3.257(17) 1_454 ?
Ba2 O5 2.723(18) . ?
Ba2 F1 2.754(14) 3_455 ?
Ba2 O6 2.80(2) 3_556 ?
Ba2 F3 2.802(16) 1_556 ?
Ba2 O1 2.900(17) 1_556 ?
Ba2 O2 2.907(15) 4_465 ?
Ba2 F2 2.972(17) 4_565 ?
Ba2 F3 3.012(17) 4_465 ?
Ba2 O5 3.221(18) 4_565 ?
Ba2 O9 3.251(17) 4_465 ?
Ba2 O4 3.33(2) 1_556 ?
I1 O6 1.784(17) . ?
I1 O7 1.793(16) . ?
I1 O8 1.871(17) . ?
