#------------------------------------------------------------------------------
#$Date: 2022-09-07 01:54:13 +0300 (Wed, 07 Sep 2022) $
#$Revision: 277698 $
#$URL: file:///home/coder/svn-repositories/cod/cif/7/71/11/7711192.cif $
#------------------------------------------------------------------------------
#
# This file is available in the Crystallography Open Database (COD),
# http://www.crystallography.net/
#
# All data on this site have been placed in the public domain by the
# contributors.
#
data_7711192
loop_
_publ_author_name
'Shekhovtsov, Nikita'
'Nikolaenkova, Elena B.'
'Berezin, Alexey Sergeevich'
'Plyusnin, Victor F.'
'Vinogradova, Katerina A.'
'Naumov, Dmitry Y.'
'Pervukhina, Natalie V.'
'Tikhonov, Alexsei Ya.'
'Bushuev, Mark B.'
_publ_section_title
;
 Tuning ESIPT-coupled luminescence by expanding \p-conjugation of a proton
 acceptor moiety in ESIPT-capable zinc(II) complexes with
 1-hydroxy-1H-imidazole-based ligands
;
_journal_name_full               'Dalton Transactions'
_journal_paper_doi               10.1039/D2DT02460H
_journal_year                    2022
_chemical_formula_sum            'C18 H14 Br2 N4 O Zn'
_chemical_formula_weight         527.52
_space_group_crystal_system      triclinic
_space_group_IT_number           2
_space_group_name_Hall           '-P 1'
_space_group_name_H-M_alt        'P -1'
_atom_sites_solution_hydrogens   mixed
_audit_creation_method           SHELXL-2017/1
_audit_update_record
;
2022-06-21 deposited with the CCDC.	2022-09-05 downloaded from the CCDC.
;
_cell_angle_alpha                100.5130(10)
_cell_angle_beta                 95.7590(10)
_cell_angle_gamma                116.9750(10)
_cell_formula_units_Z            2
_cell_length_a                   8.61310(10)
_cell_length_b                   8.8588(2)
_cell_length_c                   13.9114(3)
_cell_measurement_reflns_used    6202
_cell_measurement_temperature    296(2)
_cell_measurement_theta_max      26.33
_cell_measurement_theta_min      2.71
_cell_volume                     909.57(3)
_computing_cell_refinement       'SAINT (Bruker, 2004)'
_computing_data_collection       'APEX2 (Bruker, 2004)'
_computing_data_reduction        'SAINT (Bruker, 2004)'
_computing_molecular_graphics    'SHELXTL (Bruker, 2004)'
_computing_publication_material  'SHELXTL (Bruker, 2004)'
_computing_structure_refinement  'SHELXL-2017/1 (Sheldrick, 2017)'
_computing_structure_solution    'SHELXTL (Bruker, 2004)'
_diffrn_ambient_temperature      296(2)
_diffrn_measured_fraction_theta_full 0.996
_diffrn_measured_fraction_theta_max 0.987
_diffrn_measurement_device_type  'Bruker Nonius X8Apex CCD area-detector'
_diffrn_measurement_method       '\f scans'
_diffrn_radiation_type           MoK\a
_diffrn_radiation_wavelength     0.71073
_diffrn_reflns_av_R_equivalents  0.0274
_diffrn_reflns_av_unetI/netI     0.0319
_diffrn_reflns_Laue_measured_fraction_full 0.996
_diffrn_reflns_Laue_measured_fraction_max 0.987
_diffrn_reflns_limit_h_max       10
_diffrn_reflns_limit_h_min       -10
_diffrn_reflns_limit_k_max       10
_diffrn_reflns_limit_k_min       -10
_diffrn_reflns_limit_l_max       17
_diffrn_reflns_limit_l_min       -17
_diffrn_reflns_number            8945
_diffrn_reflns_point_group_measured_fraction_full 0.996
_diffrn_reflns_point_group_measured_fraction_max 0.987
_diffrn_reflns_theta_full        25.250
_diffrn_reflns_theta_max         26.333
_diffrn_reflns_theta_min         2.670
_exptl_absorpt_coefficient_mu    5.758
_exptl_absorpt_correction_type   multi-scan
_exptl_absorpt_process_details   'Bruker SADABS'
_exptl_crystal_colour            orange
_exptl_crystal_density_diffrn    1.926
_exptl_crystal_description       prism
_exptl_crystal_F_000             516
_exptl_crystal_size_max          0.240
_exptl_crystal_size_mid          0.080
_exptl_crystal_size_min          0.050
_exptl_transmission_factor_max   0.7454
_exptl_transmission_factor_min   0.5150
_refine_diff_density_max         0.411
_refine_diff_density_min         -0.345
_refine_diff_density_rms         0.068
_refine_ls_extinction_method     none
_refine_ls_goodness_of_fit_ref   0.899
_refine_ls_hydrogen_treatment    mixed
_refine_ls_matrix_type           full
_refine_ls_number_parameters     239
_refine_ls_number_reflns         3650
_refine_ls_number_restraints     0
_refine_ls_restrained_S_all      0.899
_refine_ls_R_factor_all          0.0217
_refine_ls_R_factor_gt           0.0191
_refine_ls_shift/su_max          0.001
_refine_ls_shift/su_mean         0.000
_refine_ls_structure_factor_coef Fsqd
_refine_ls_weighting_details
'w=1/[\s^2^(Fo^2^)+(0.0462P)^2^+0.0055P] where P=(Fo^2^+2Fc^2^)/3'
_refine_ls_weighting_scheme      calc
_refine_ls_wR_factor_gt          0.0580
_refine_ls_wR_factor_ref         0.0596
_reflns_Friedel_coverage         0.000
_reflns_number_gt                3353
_reflns_number_total             3650
_reflns_threshold_expression     'I > 2\s(I)'
_cod_data_source_file            d2dt02460h2.cif
_cod_data_source_block           mbb_253
_cod_database_code               7711192
_shelx_shelxl_version_number     2017/1
_shelx_space_group_comment
;
The symmetry employed for this shelxl refinement is uniquely defined
by the following loop, which should always be used as a source of
symmetry information in preference to the above space-group names.
They are only intended as comments.
;
_shelx_estimated_absorpt_t_min   0.339
_shelx_estimated_absorpt_t_max   0.762
_shelx_res_file
;
TITL mbb_253_0m in P-1
    mbb_253.res
    created by SHELXL-2017/1 at 12:19:09 on 01-Jun-2022
CELL 0.71073 8.6131 8.8588 13.9114 100.513 95.759 116.975
ZERR 2.00 0.0001 0.0002 0.0003 0.001 0.001 0.001
LATT 1
SFAC C H N O ZN BR
UNIT 36 28 8 2 2 4
TEMP 23.000
SIZE 0.050 0.080 0.240
ACTA 50.5
L.S. 12
OMIT 0 180
OMIT -1 1 0
OMIT 0 0 1
OMIT -1 1 1
FMAP 2
PLAN 5
HTAB
BOND $H
CONF
WGHT    0.046200    0.005500
FVAR       0.19735
ZN1   5    0.320543    0.249573    0.335083    11.00000    0.01383    0.01504 =
         0.01972    0.00813    0.00317    0.00317
BR1   6    0.311321    0.508522    0.401762    11.00000    0.02433    0.01607 =
         0.02674    0.00717    0.00527    0.00667
BR2   6    0.571979    0.267924    0.274262    11.00000    0.01737    0.02843 =
         0.02980    0.01487    0.00924    0.00870
N1    3   -0.196256   -0.051719    0.150933    11.00000    0.01241    0.01745 =
         0.01766    0.00466    0.00155    0.00450
N2    3    0.075376    0.084777    0.238748    11.00000    0.01518    0.01422 =
         0.01692    0.00614    0.00462    0.00516
N3    3   -0.110343    0.145367    0.012485    11.00000    0.01851    0.01640 =
         0.01729    0.00499    0.00362    0.00822
N4    3    0.221848    0.055712    0.409140    11.00000    0.01557    0.01494 =
         0.01822    0.00562    0.00481    0.00628
O1    4   -0.341345   -0.099042    0.077541    11.00000    0.01557    0.02718 =
         0.02308    0.00989   -0.00175    0.00507
H1    2   -0.293111   -0.019860    0.034605    11.00000   -1.50000
C1    1   -0.203547   -0.131405    0.225989    11.00000    0.01597    0.01422 =
         0.01655    0.00457    0.00340    0.00575
C2    1   -0.030751   -0.044943    0.280796    11.00000    0.01718    0.01293 =
         0.01734    0.00608    0.00631    0.00620
C3    1   -0.026789    0.078928    0.158846    11.00000    0.01435    0.01353 =
         0.01847    0.00455    0.00384    0.00545
C4    1    0.021417    0.183817    0.086785    11.00000    0.01917    0.01567 =
         0.01670    0.00398    0.00462    0.00895
C5    1    0.198601    0.316440    0.096552    11.00000    0.01703    0.02076 =
         0.01727    0.00642    0.00207    0.00661
AFIX  43
H5    2    0.288641    0.337545    0.148475    11.00000   -1.20000
AFIX   0
C6    1    0.233407    0.412594    0.027353    11.00000    0.01944    0.01902 =
         0.02092    0.00636    0.00693    0.00608
AFIX  43
H6    2    0.348666    0.500996    0.032296    11.00000   -1.20000
AFIX   0
C7    1    0.097195    0.379328   -0.050959    11.00000    0.02272    0.01749 =
         0.01735    0.00613    0.00813    0.01148
C8    1   -0.076713    0.239528   -0.057445    11.00000    0.02119    0.01650 =
         0.01664    0.00439    0.00394    0.01162
C9    1    0.124083    0.476829   -0.123954    11.00000    0.02623    0.02213 =
         0.02119    0.00921    0.01007    0.01305
AFIX  43
H9    2    0.236087    0.570055   -0.119847    11.00000   -1.20000
AFIX   0
C10   1   -0.013041    0.434854   -0.200048    11.00000    0.03743    0.02710 =
         0.02263    0.01433    0.01475    0.02103
AFIX  43
H10   2    0.005865    0.499561   -0.247457    11.00000   -1.20000
AFIX   0
C11   1   -0.183673    0.293404   -0.207061    11.00000    0.03019    0.03163 =
         0.01810    0.00826    0.00363    0.02122
AFIX  43
H11   2   -0.275593    0.264362   -0.260029    11.00000   -1.20000
AFIX   0
C12   1   -0.215725    0.198615   -0.137219    11.00000    0.02153    0.02056 =
         0.02254    0.00447    0.00333    0.01049
AFIX  43
H12   2   -0.329266    0.107063   -0.142281    11.00000   -1.20000
AFIX   0
C13   1    0.051186   -0.069380    0.369423    11.00000    0.01555    0.01548 =
         0.01668    0.00465    0.00555    0.00731
C14   1   -0.032082   -0.212348    0.410162    11.00000    0.01700    0.01758 =
         0.02152    0.00719    0.00615    0.00507
AFIX  43
H14   2   -0.149989   -0.297120    0.383193    11.00000   -1.20000
AFIX   0
C15   1    0.063262   -0.225554    0.490786    11.00000    0.02820    0.02179 =
         0.02413    0.01391    0.01345    0.01262
AFIX  43
H15   2    0.010135   -0.320097    0.518491    11.00000   -1.20000
AFIX   0
C16   1    0.238649   -0.097608    0.530589    11.00000    0.02689    0.02770 =
         0.02096    0.01214    0.00707    0.01552
AFIX  43
H16   2    0.304939   -0.105025    0.584807    11.00000   -1.20000
AFIX   0
C17   1    0.311957    0.040485    0.487799    11.00000    0.01626    0.02080 =
         0.02079    0.00679    0.00240    0.00753
AFIX  43
H17   2    0.429212    0.127131    0.514608    11.00000   -1.20000
AFIX   0
C18   1   -0.373633   -0.278295    0.235616    11.00000    0.01532    0.02216 =
         0.02454    0.01010    0.00527    0.00325
AFIX 137
H18A  2   -0.382518   -0.263380    0.304588    11.00000   -1.50000
H18B  2   -0.375199   -0.387719    0.211352    11.00000   -1.50000
H18C  2   -0.472501   -0.278197    0.197094    11.00000   -1.50000

AFIX   0
HKLF 4 1 1 0 0 0 1 0 0 0 1




REM  mbb_253_0m in P-1
REM R1 =  0.0191 for    3353 Fo > 4sig(Fo)  and  0.0217 for all    3650 data
REM    239 parameters refined using      0 restraints

END

WGHT      0.0210      0.1460

REM Instructions for potential hydrogen bonds
HTAB O1 N3
EQIV $1 -x, -y, -z
HTAB C12 Br2_$1
EQIV $2 -x+1, -y, -z+1
HTAB C16 Br2_$2
EQIV $3 -x+1, -y+1, -z+1
HTAB C17 Br1_$3
EQIV $4 x-1, y-1, z
HTAB C18 Br1_$4

REM Highest difference peak  0.411,  deepest hole -0.345,  1-sigma level  0.068
Q1    1   0.5208  0.2562  0.2123  11.00000  0.05    0.41
Q2    1   0.0030 -0.0694  0.3205  11.00000  0.05    0.39
Q3    1   0.3608  0.5143  0.4641  11.00000  0.05    0.34
Q4    1   0.0910  0.2587  0.0989  11.00000  0.05    0.32
Q5    1  -0.2686 -0.1970  0.2269  11.00000  0.05    0.32
;
_shelx_res_checksum              69898
_shelx_hkl_file
;
  -1   0   0    6.49    0.27
  -1   0   0    6.29    0.31
  -1   0   0    6.69    0.31
   1   0   0    6.21    0.31
   1   0   0    6.59    0.31
  -2   0   0   77.00    3.44
  -2   0   0   85.23    3.09
  -2   0   0   84.31    3.45
   2   0   0   81.60    3.45
   2   0   0   74.28    3.44
  -3   0   0  387.22   16.78
  -3   0   0  395.20   15.06
   3   0   0  390.28   16.75
  -4   0   0    0.14    0.20
  -4   0   0    0.05    0.13
   4   0   0   -0.06    0.18
  -5   0   0   15.21    0.84
  -5   0   0   15.57    0.70
   5   0   0   14.79    0.83
  -6   0   0   11.11    0.75
  -6   0   0   11.44    0.59
   6   0   0   11.62    0.74
  -7   0   0   13.09    0.69
  -7   0   0   13.70    0.87
   7   0   0   14.64    0.90
  -8   0   0  155.33    6.40
  -8   0   0  169.68    7.24
   8   0   0  170.83    7.22
  -9   0   0   57.08    2.80
   9   0   0   58.14    2.78
   9  -1   0    0.09    0.45
  -9   1   0    0.32    0.45
  -9   1   0    0.52    0.28
   8  -1   0    3.29    0.50
  -8   1   0    2.55    0.33
  -8   1   0    2.55    0.46
   7  -1   0    0.10    0.33
  -7   1   0    0.86    0.34
  -7   1   0    0.75    0.24
   6  -1   0    1.16    0.30
  -6   1   0    1.28    0.23
  -6   1   0    1.23    0.30
   5  -1   0   17.78    0.93
  -5   1   0   18.52    0.81
  -5   1   0   18.42    0.93
   4  -1   0  364.95   15.33
  -4   1   0  356.45   15.04
  -4   1   0  343.24   13.74
   3  -1   0  311.64   13.74
   3  -1   0  305.46   13.66
  -3   1   0  334.50   12.49
  -3   1   0  333.80   13.84
   2  -1   0    8.45    0.41
   2  -1   0    8.08    0.41
  -2   1   0    7.99    0.38
  -2   1   0    8.20    0.41
  -2   1   0    8.13    0.41
   1  -1   0   -0.49    0.01
   0  -1   0    1.29    0.08
   0   1   0    1.31    0.08
   0   1   0    1.35    0.08
  -1  -1   0    9.89    0.38
  -1  -1   0    9.62    0.46
  -1  -1   0    9.43    0.46
   1   1   0    8.94    0.46
   1   1   0    9.74    0.46
   1   1   0   10.54    0.38
  -2  -1   0   73.14    2.76
  -2  -1   0   71.83    3.08
  -2  -1   0   67.33    3.08
   2   1   0   73.81    3.08
  -3  -1   0   40.81    1.56
  -3  -1   0   37.99    1.79
   3   1   0   41.43    1.79
  -4  -1   0  134.95    6.00
  -4  -1   0  142.84    5.35
   4   1   0  140.74    6.00
  -5  -1   0  295.65   12.46
   5   1   0  288.23   12.44
  -6  -1   0   18.77    1.06
  -6  -1   0   18.52    0.81
   6   1   0   18.03    1.03
  -7  -1   0   88.78    3.58
  -7  -1   0   92.93    4.14
   7   1   0   94.02    4.11
  -8  -1   0   35.59    1.90
   8   1   0   36.16    1.85
  10  -2   0    8.00    0.81
 -10   2   0    6.36    0.58
 -10   2   0    9.27    0.90
   9  -2   0   22.95    1.32
  -9   2   0   23.02    1.30
  -9   2   0   21.19    1.11
   8  -2   0   30.72    1.57
  -8   2   0   29.91    1.37
  -8   2   0   30.92    1.56
   7  -2   0    1.24    0.32
  -7   2   0    1.18    0.34
  -7   2   0    1.16    0.27
   6  -2   0   43.14    1.96
  -6   2   0   40.92    1.75
  -6   2   0   43.41    1.95
   5  -2   0   55.03    2.39
  -5   2   0   53.01    2.15
  -5   2   0   53.28    2.38
   4  -2   0   24.53    1.14
   4  -2   0   22.54    1.13
  -4   2   0   24.84    1.04
  -4   2   0   24.58    1.13
   3  -2   0   23.29    1.07
   3  -2   0   23.31    1.07
  -3   2   0   23.83    1.07
  -3   2   0   24.33    0.99
   2  -2   0  328.77   13.89
  -2   2   0  321.76   13.88
  -2   2   0  327.30   13.87
   0  -2   0   64.93    2.78
   0  -2   0   65.08    2.75
   0   2   0   62.25    2.74
   0   2   0   63.27    2.76
  -1  -2   0   74.00    3.19
  -1  -2   0   74.64    3.19
   1   2   0   74.78    3.19
  -2  -2   0   12.69    0.66
  -2  -2   0   12.85    0.66
   2   2   0   13.95    0.65
  -3  -2   0    6.28    0.27
  -3  -2   0    6.21    0.45
   3   2   0    6.10    0.43
  -4  -2   0   29.90    1.15
  -4  -2   0   28.52    1.40
   4   2   0   28.91    1.38
  -5  -2   0   30.95    1.49
  -5  -2   0   29.64    1.18
   5   2   0   28.74    1.44
  -6  -2   0   16.93    1.03
  -6  -2   0   16.09    0.69
   6   2   0   16.51    0.97
  -7  -2   0   25.19    1.41
   7   2   0   23.60    1.33
  -8  -2   0    8.50    0.88
   8   2   0    8.48    0.78
  10  -3   0    4.96    0.64
 -10   3   0    5.59    0.64
 -10   3   0    4.66    0.51
   9  -3   0   24.42    1.35
  -9   3   0   24.78    1.31
  -9   3   0   21.49    1.16
   8  -3   0    3.06    0.46
  -8   3   0    3.35    0.39
  -8   3   0    2.95    0.41
   7  -3   0   50.84    2.46
  -7   3   0   56.56    2.23
  -7   3   0   55.07    2.46
   6  -3   0   19.70    0.99
  -6   3   0   18.97    0.90
  -6   3   0   18.85    0.97
   5  -3   0  413.07   17.62
   5  -3   0  386.31   17.25
  -5   3   0  405.37   17.36
  -5   3   0  426.09   15.77
   4  -3   0  329.71   14.41
   4  -3   0  340.35   14.61
  -4   3   0  348.59   14.68
  -4   3   0  344.14   13.18
   3  -3   0    0.30    0.10
   3  -3   0    0.14    0.08
  -3   3   0    0.26    0.10
  -3   3   0    0.13    0.15
   2  -3   0  130.98    5.42
   2  -3   0  123.37    5.41
   0  -3   0   71.21    2.99
   0  -3   0   69.11    2.99
   0   3   0   69.81    2.98
  -1  -3   0   10.94    0.55
  -1  -3   0   10.34    0.54
   1   3   0   11.45    0.53
  -2  -3   0    2.25    0.23
  -2  -3   0    2.43    0.26
   2   3   0    2.81    0.25
  -3  -3   0  261.45   10.74
  -3  -3   0  231.43   10.73
   3   3   0  262.90   10.73
  -4  -3   0  161.97    6.90
   4   3   0  157.51    6.87
  -5  -3   0    0.14    0.34
   5   3   0   -0.06    0.25
  -6  -3   0   26.31    1.45
   6   3   0   25.57    1.36
  -7  -3   0   13.35    1.07
  10  -4   0   -0.20    0.44
 -10   4   0    0.11    0.35
   9  -4   0   10.84    0.80
  -9   4   0    8.73    0.69
  -9   4   0    8.10    0.73
   8  -4   0  312.68   13.37
  -8   4   0  311.90   13.36
  -8   4   0  314.23   12.07
   7  -4   0   98.16    4.28
  -7   4   0   96.07    4.26
  -7   4   0   98.59    3.88
   6  -4   0   36.52    1.81
   6  -4   0   39.46    1.84
  -6   4   0   42.63    1.83
  -6   4   0   42.49    1.70
   5  -4   0  137.59    5.77
   5  -4   0  130.91    5.76
  -5   4   0  132.58    5.23
  -5   4   0  137.33    5.76
   4  -4   0    2.25    0.22
   4  -4   0    2.43    0.25
  -4   4   0    3.07    0.29
  -4   4   0    2.44    0.21
   3  -4   0   98.36    4.29
   3  -4   0  103.97    4.29
  -3   4   0  100.42    3.92
  -2   4   0    9.13    0.45
   1  -4   0   78.91    3.45
   1  -4   0   85.66    3.45
  -1   4   0   79.52    3.15
   0  -4   0  532.78   23.14
   0  -4   0  570.70   23.21
   0   4   0  517.01   23.02
   0   4   0  555.52   20.87
  -1  -4   0  285.21   11.77
   1   4   0  265.61   11.70
  -2  -4   0   27.72    1.35
  -2  -4   0   30.54    1.37
   2   4   0   29.18    1.32
  -3  -4   0  179.62    8.53
  -3  -4   0  205.30    8.55
   3   4   0  212.90    8.52
  -4  -4   0   26.17    1.33
   4   4   0   25.31    1.26
  -5  -4   0    5.44    0.59
   5   4   0    4.62    0.46
  -6  -4   0    5.10    0.63
  10  -5   0    0.88    0.44
 -10   5   0    0.94    0.39
   9  -5   0    0.19    0.36
  -9   5   0    0.34    0.34
   8  -5   0    7.47    0.61
  -8   5   0    7.03    0.61
  -8   5   0    6.66    0.55
   7  -5   0    1.10    0.26
   7  -5   0    1.05    0.22
  -7   5   0    1.62    0.25
  -7   5   0    1.18    0.30
   6  -5   0    7.09    0.48
   6  -5   0    6.35    0.43
  -6   5   0    6.64    0.42
  -6   5   0    7.49    0.52
   5  -5   0   41.45    1.77
   5  -5   0   38.78    1.75
  -5   5   0   39.12    1.73
  -5   5   0   39.02    1.65
   4  -5   0  173.57    7.26
   4  -5   0  166.07    7.25
  -4   5   0  173.64    6.62
   3  -5   0  191.75    8.27
   3  -5   0  207.95    8.29
  -3   5   0  186.93    7.52
  -2   5   0   36.13    1.46
   1  -5   0  148.71    6.26
   1  -5   0  147.97    6.26
  -1   5   0  146.18    5.67
   0  -5   0  191.90    8.50
   0  -5   0  203.35    8.50
   0   5   0  205.55    7.69
  -1  -5   0   10.49    0.60
   1   5   0   10.39    0.52
  -2  -5   0   13.69    0.77
  -2  -5   0   15.68    0.81
   2   5   0   15.26    0.74
  -3  -5   0    2.96    0.38
   3   5   0    3.22    0.33
  -4  -5   0   20.62    1.17
  -5  -5   0   55.47    2.65
  10  -6   0   56.66    2.64
 -10   6   0   54.65    2.41
   9  -6   0   33.96    1.69
  -9   6   0   34.22    1.59
   8  -6   0   35.49    1.72
  -8   6   0   36.92    1.63
   7  -6   0    9.93    0.62
  -7   6   0    9.59    0.55
  -7   6   0   10.01    0.68
   6  -6   0    2.98    0.28
   6  -6   0    2.79    0.28
  -6   6   0    2.72    0.34
   5  -6   0    0.65    0.14
   5  -6   0    0.75    0.16
  -5   6   0    0.94    0.26
   4  -6   0    0.03    0.09
   4  -6   0    0.07    0.10
  -4   6   0    0.30    0.20
  -3   6   0    0.61    0.18
   2  -6   0   76.18    3.13
  -2   6   0   71.07    2.89
   1  -6   0   64.78    2.71
   1  -6   0   60.64    2.70
  -1   6   0   63.61    2.47
   0  -6   0   63.47    2.89
   0  -6   0   68.50    2.90
   0   6   0   68.14    2.59
  -1  -6   0    2.50    0.30
  -1  -6   0    2.39    0.25
  -2  -6   0    1.03    0.30
  -3  -6   0    7.15    0.65
  -4  -6   0    1.13    0.41
  10  -7   0    1.71    0.42
   9  -7   0    5.72    0.55
  -9   7   0    7.56    0.63
   8  -7   0   47.58    2.18
  -8   7   0   47.13    2.06
   7  -7   0    1.95    0.29
  -7   7   0    1.90    0.38
   6  -7   0    6.64    0.43
   6  -7   0    6.00    0.39
  -6   7   0    5.99    0.50
   5  -7   0  282.95   12.23
   5  -7   0  297.93   12.29
  -5   7   0  286.42   11.14
   4  -7   0  189.71    7.72
   4  -7   0  176.28    7.71
  -4   7   0  181.94    7.08
  -3   7   0    9.12    0.53
   2  -7   0   88.11    3.62
   2  -7   0   81.27    3.61
  -2   7   0   85.77    3.34
   1  -7   0   67.23    2.85
   1  -7   0   64.53    2.84
  -1   7   0   66.25    2.59
   0  -7   0   21.63    1.04
   0  -7   0   21.06    1.01
   0   7   0   21.36    0.87
  -1  -7   0    0.48    0.26
  -2  -7   0    0.20    0.30
  -3  -7   0   77.94    3.54
  10  -8   0    0.78    0.40
   9  -8   0   29.98    1.47
  -9   8   0   27.90    1.43
   8  -8   0   83.15    3.60
  -8   8   0   79.93    3.35
   7  -8   0   39.77    1.78
  -7   8   0   37.78    1.73
   6  -8   0   18.21    0.91
   6  -8   0   20.94    0.94
  -6   8   0   19.88    1.03
   5  -8   0  131.28    5.35
   5  -8   0  119.62    5.34
  -5   8   0  126.75    4.96
  -4   8   0    0.20    0.24
  -3   8   0    3.09    0.32
   2  -8   0   17.33    0.80
   2  -8   0   18.20    0.82
  -2   8   0   18.22    0.83
   1  -8   0   32.27    1.52
   1  -8   0   35.89    1.55
  -1   8   0   34.76    1.40
   0  -8   0   74.73    3.18
   0   8   0   69.90    2.78
  -1  -8   0   62.29    2.81
  -2  -8   0   17.29    1.05
   9  -9   0    2.19    0.38
   8  -9   0   16.45    0.90
  -8   9   0   16.64    1.00
   7  -9   0    2.55    0.29
  -7   9   0    2.89    0.43
   6  -9   0    1.46    0.17
   6  -9   0    1.75    0.20
  -6   9   0    1.52    0.36
  -5   9   0    3.85    0.43
  -4   9   0   11.22    0.67
  -3   9   0   31.06    1.35
   2  -9   0    2.62    0.22
   2  -9   0    2.52    0.22
  -2   9   0    1.96    0.27
   1  -9   0   22.65    1.09
   0  -9   0   53.00    2.40
   8 -10   0   11.43    0.69
   7 -10   0    8.74    0.52
  -7  10   0    9.48    0.77
  -6  10   0    0.91    0.36
  -5  10   0    0.75    0.31
  -4  10   0   -0.15    0.26
  -3  10   0    0.01    0.24
   2 -10   0   28.16    1.26
   1 -10   1    3.72    0.36
   2 -10   1    7.39    0.44
  -3  10  -1    1.62    0.31
  -4  10  -1    0.30    0.28
  -5  10  -1   11.30    0.75
  -6  10  -1   27.97    1.36
  -7  10  -1   17.57    1.09
   7 -10   1   20.24    0.96
   8 -10   1    0.22    0.27
  -1  -9   1   25.81    1.34
   0  -9   1   27.79    1.35
  -1   9  -1   43.69    1.81
   1  -9   1   46.06    2.00
  -2   9  -1    7.65    0.51
   2  -9   1    7.48    0.41
   2  -9   1    7.96    0.43
  -3   9  -1   -0.11    0.24
  -4   9  -1    8.62    0.60
  -5   9  -1   32.19    1.46
  -6   9  -1    4.49    0.49
   6  -9   1    4.06    0.30
   6  -9   1    4.44    0.36
  -7   9  -1   25.44    1.28
   7  -9   1   25.37    1.22
  -8   9  -1   38.64    1.80
   8  -9   1   39.30    1.82
   9  -9   1   12.43    0.82
  -2  -8   1    0.14    0.34
  -1  -8   1   21.19    1.11
   0   8  -1    6.71    0.36
   0   8  -1    7.17    0.35
   0  -8   1    6.41    0.51
  -1   8  -1   48.02    1.88
   1  -8   1   48.16    2.06
   1  -8   1   44.15    2.04
  -2   8  -1  106.91    4.21
   2  -8   1  103.99    4.58
   2  -8   1  112.21    4.59
  -3   8  -1    0.22    0.22
  -4   8  -1  263.04   10.14
  -5   8  -1  112.04    4.39
   5  -8   1  113.91    4.73
   5  -8   1  106.87    4.72
  -6   8  -1    6.24    0.52
   6  -8   1    5.29    0.40
   6  -8   1    4.11    0.33
  -7   8  -1   22.19    1.15
   7  -8   1   22.47    1.10
  -8   8  -1   14.39    0.92
   8  -8   1   15.17    0.87
  -9   8  -1    7.71    0.68
   9  -8   1    8.21    0.69
  10  -8   1   15.18    1.00
  -3  -7   1    0.83    0.38
  -2  -7   1   12.80    0.81
  -1  -7   1    9.71    0.63
   0   7  -1   15.40    0.63
   0  -7   1   14.75    0.76
   0  -7   1   13.18    0.72
  -1   7  -1  146.42    5.69
   1  -7   1  154.37    6.28
   1  -7   1  141.69    6.27
  -2   7  -1  126.76    4.84
   2  -7   1  128.26    5.29
   2  -7   1  119.16    5.28
  -3   7  -1    4.33    0.38
  -4   7  -1   47.09    1.98
   4  -7   1   50.94    2.07
   4  -7   1   45.46    2.05
  -5   7  -1    7.35    0.58
   5  -7   1    7.66    0.43
   5  -7   1    8.21    0.45
  -6   7  -1   16.81    0.86
   6  -7   1   15.82    0.80
   6  -7   1   14.63    0.77
  -7   7  -1    1.29    0.33
   7  -7   1    1.36    0.27
  -8   7  -1   18.73    1.03
   8  -7   1   18.77    1.02
  -9   7  -1   93.34    3.85
   9  -7   1   95.02    4.19
  10  -7   1   14.55    0.99
  -5  -6   1    4.99    0.64
  -4  -6   1   17.00    1.05
  -3  -6   1    0.00    0.30
  -2  -6   1   53.85    2.44
   1   6  -1   44.31    1.69
   1   6  -1   44.32    1.69
  -1  -6   1   46.06    1.98
  -1  -6   1   40.51    1.95
   0   6  -1    7.21    0.37
   0  -6   1    7.52    0.44
   0  -6   1    6.76    0.41
  -1   6  -1    2.15    0.21
   1  -6   1    1.92    0.18
   1  -6   1    1.83    0.17
   2  -6   1   37.66    1.57
   2  -6   1   35.43    1.56
  -3   6  -1    4.83    0.37
   3  -6   1    4.55    0.25
   3  -6   1    5.06    0.26
  -4   6  -1   37.79    1.60
   4  -6   1   39.41    1.67
   4  -6   1   37.44    1.66
  -5   6  -1   15.98    0.82
   5  -6   1   16.32    0.78
   5  -6   1   16.70    0.80
  -6   6  -1   24.68    1.16
   6  -6   1   25.55    1.20
  -7   6  -1   19.41    0.96
  -7   6  -1   20.51    1.01
   7  -6   1   19.20    1.01
  -8   6  -1   -0.04    0.31
   8  -6   1    0.12    0.27
  -9   6  -1    5.89    0.55
   9  -6   1    4.82    0.52
 -10   6  -1   14.60    0.96
  10  -6   1   13.99    1.01
  -6  -5   1    0.22    0.50
  -5  -5   1    4.81    0.58
  -4  -5   1   14.61    0.93
   3   5  -1   48.18    2.18
  -3  -5   1   49.30    2.25
   2   5  -1   56.05    2.44
  -2  -5   1   59.13    2.49
  -2  -5   1   51.56    2.46
   1   5  -1  112.06    4.29
   1   5  -1  106.61    4.79
   1   5  -1  114.29    4.29
  -1  -5   1  116.41    4.83
   0  -5   1  244.30   10.02
   0  -5   1  225.33    9.94
   1  -5   1  155.29    6.75
   1  -5   1  163.91    6.82
   2  -5   1    7.26    0.34
   2  -5   1    7.60    0.34
   3  -5   1   12.09    0.57
   3  -5   1   13.06    0.58
   4  -5   1   22.76    1.06
   4  -5   1   24.13    1.06
  -5   5  -1   49.54    2.20
  -5   5  -1   51.17    2.06
   5  -5   1   50.32    2.22
  -6   5  -1   25.17    1.12
  -6   5  -1   24.84    1.14
   6  -5   1   22.59    1.15
   6  -5   1   24.70    1.17
  -7   5  -1   39.86    1.71
  -7   5  -1   38.96    1.81
   7  -5   1   39.04    1.83
  -8   5  -1   78.55    3.17
  -8   5  -1   75.57    3.45
   8  -5   1   79.06    3.48
  -9   5  -1   28.97    1.43
   9  -5   1   31.37    1.56
 -10   5  -1    1.82    0.43
  10  -5   1    1.86    0.51
  -6  -4   1   75.25    3.48
   5   4  -1    0.53    0.29
  -5  -4   1    0.65    0.39
   4   4  -1  226.79    9.89
  -4  -4   1  235.88    9.93
   3   4  -1  406.74   16.57
  -3  -4   1  412.30   16.47
  -3  -4   1  344.16   16.45
   2   4  -1   14.70    0.72
  -2  -4   1   15.55    0.78
  -2  -4   1   13.58    0.74
   1   4  -1  121.95    4.56
   1   4  -1  117.51    5.08
  -1  -4   1  118.24    5.10
   0   4  -1  111.99    4.85
   0  -4   1  115.92    4.88
   0  -4   1  116.03    4.88
   1  -4   1   52.74    2.19
   1  -4   1   49.88    2.19
   2  -4   1  168.42    6.95
   2  -4   1  158.31    6.93
  -3   4  -1    8.96    0.41
   3  -4   1    9.45    0.45
   3  -4   1    8.81    0.44
  -4   4  -1  281.86   12.26
   4  -4   1  291.60   12.33
  -5   4  -1  422.29   18.13
  -5   4  -1  444.47   16.53
   5  -4   1  406.12   17.94
   5  -4   1  423.69   18.27
  -6   4  -1   31.94    1.45
  -6   4  -1   32.57    1.36
   6  -4   1   28.07    1.44
   6  -4   1   31.90    1.47
  -7   4  -1   65.29    2.72
  -7   4  -1   67.07    2.98
   7  -4   1   68.05    2.99
  -8   4  -1   65.38    2.75
  -8   4  -1   67.74    3.03
   8  -4   1   67.56    3.04
  -9   4  -1    0.20    0.32
  -9   4  -1    0.06    0.35
   9  -4   1    0.30    0.39
 -10   4  -1    8.99    0.75
  10  -4   1   10.28    0.94
   7   3  -1   57.07    2.86
  -7  -3   1   66.33    2.96
   6   3  -1   19.21    1.10
  -6  -3   1   19.29    1.15
   5   3  -1    2.55    0.36
  -5  -3   1    2.20    0.39
   4   3  -1   20.59    1.09
  -4  -3   1   23.07    1.14
   3   3  -1    0.35    0.18
  -3  -3   1    0.43    0.23
  -3  -3   1    0.10    0.17
   2   3  -1   10.43    0.53
  -2  -3   1    9.42    0.53
  -2  -3   1    9.62    0.54
   1   3  -1   34.69    1.30
   1   3  -1   33.56    1.47
  -1  -3   1   31.72    1.48
  -1  -3   1   34.11    1.49
   0   3  -1  155.01    6.57
   0  -3   1  155.63    6.60
   0  -3   1  153.58    6.56
   1  -3   1  525.50   22.23
  -2   3  -1  350.83   15.26
  -2   3  -1  375.89   15.26
   2  -3   1  373.40   15.36
   2  -3   1  342.98   15.35
   3  -3   1    4.13    0.27
  -4   3  -1  219.92    9.04
   4  -3   1  204.71    9.04
   4  -3   1  213.67    9.15
  -5   3  -1   41.81    1.83
  -5   3  -1   40.22    1.66
   5  -3   1   37.01    1.81
   5  -3   1   42.81    1.83
  -6   3  -1    3.06    0.31
  -6   3  -1    3.22    0.33
   6  -3   1    3.50    0.35
  -7   3  -1    0.68    0.28
  -7   3  -1    0.69    0.26
   7  -3   1    0.66    0.31
  -8   3  -1    8.09    0.68
  -8   3  -1    8.76    0.62
   8  -3   1    8.29    0.71
  -9   3  -1   85.59    3.69
  -9   3  -1   93.67    4.13
   9  -3   1   95.23    4.14
 -10   3  -1   18.28    1.21
 -10   3  -1   16.58    1.00
  10  -3   1   19.25    1.21
   8   2  -1   23.24    1.37
  -8  -2   1   23.62    1.44
   7   2  -1   12.09    0.89
  -7  -2   1   13.56    0.98
   6   2  -1   14.67    0.92
  -6  -2   1   15.41    0.68
  -6  -2   1   15.78    0.97
   5   2  -1   62.80    2.96
  -5  -2   1   69.43    3.00
  -5  -2   1   66.93    2.58
   4   2  -1   99.58    4.31
  -4  -2   1   98.95    3.81
  -4  -2   1   98.94    4.32
   3   2  -1  108.32    4.57
   3   2  -1  104.49    4.06
  -3  -2   1  110.07    4.06
  -3  -2   1  100.74    4.57
   2   2  -1    5.14    0.24
   2   2  -1    5.38    0.34
  -2  -2   1    5.21    0.35
  -2  -2   1    4.62    0.34
  -2  -2   1    5.19    0.23
   1   2  -1   69.55    2.54
   1   2  -1   67.17    2.85
  -1  -2   1   61.82    2.85
  -1  -2   1   66.18    2.85
   0   2  -1   29.23    1.26
   0   2  -1   28.20    1.26
   0  -2   1   29.60    1.27
   0  -2   1   29.51    1.27
  -1   2  -1    1.28    0.10
  -1   2  -1    1.77    0.10
   1  -2   1    1.42    0.12
   1  -2   1    1.49    0.12
  -2   2  -1  325.07   13.60
  -2   2  -1  309.46   13.62
   2  -2   1  320.00   13.59
  -3   2  -1  152.71    6.33
   3  -2   1  151.97    6.32
   3  -2   1  140.94    6.32
  -4   2  -1   33.96    1.50
   4  -2   1   30.80    1.49
   4  -2   1   34.52    1.50
  -5   2  -1   74.44    2.99
  -5   2  -1   76.47    3.32
   5  -2   1   76.62    3.32
  -6   2  -1   22.08    1.16
  -6   2  -1   23.77    1.04
   6  -2   1   23.96    1.18
  -7   2  -1   18.47    0.90
  -7   2  -1   17.62    1.00
   7  -2   1   18.64    1.03
  -8   2  -1    0.05    0.34
  -8   2  -1    0.30    0.28
   8  -2   1    0.01    0.34
  -9   2  -1   10.02    0.72
  -9   2  -1   11.31    0.91
   9  -2   1   12.95    0.95
  10  -2   1   14.60    1.11
   8   1  -1  125.91    5.65
  -8  -1   1  129.02    5.68
   7   1  -1   34.32    1.72
  -7  -1   1   36.32    1.76
  -7  -1   1   32.92    1.42
   6   1  -1    2.87    0.41
  -6  -1   1    1.84    0.37
  -6  -1   1    2.93    0.25
   5   1  -1   50.40    2.29
  -5  -1   1   51.43    1.99
  -5  -1   1   49.25    2.30
   4   1  -1   13.69    0.74
  -4  -1   1   14.34    0.60
  -4  -1   1   13.26    0.75
   3   1  -1  306.59   13.53
   3   1  -1  320.32   11.97
  -3  -1   1  316.07   12.03
  -3  -1   1  303.96   13.44
   2   1  -1    9.99    0.42
   2   1  -1    9.94    0.50
  -2  -1   1    9.32    0.50
  -2  -1   1   10.03    0.42
   1   1  -1  682.88   28.08
   1   1  -1  635.23   28.02
  -1  -1   1  648.96   28.05
  -1  -1   1  675.54   28.07
   0   1  -1  291.50   12.24
   0   1  -1  279.95   12.24
   0  -1   1  292.33   12.25
  -1   1  -1  234.32   10.19
  -1   1  -1  242.31   10.16
   1  -1   1  249.03   10.16
   1  -1   1  225.15   10.12
  -2   1  -1   12.34    0.60
  -2   1  -1   13.75    0.61
   2  -1   1   12.34    0.61
   2  -1   1   12.93    0.60
  -3   1  -1   77.99    3.29
   3  -1   1   71.95    3.28
   3  -1   1   78.38    3.28
  -4   1  -1   28.35    1.19
  -4   1  -1   29.94    1.35
   4  -1   1   29.28    1.35
  -5   1  -1   40.62    1.89
  -5   1  -1   42.80    1.68
   5  -1   1   40.50    1.89
  -6   1  -1   17.42    0.96
  -6   1  -1   16.79    0.80
   6  -1   1   17.52    0.95
  -7   1  -1  137.28    5.35
  -7   1  -1  138.66    6.00
   7  -1   1  135.94    5.99
  -8   1  -1   83.55    3.51
  -8   1  -1   89.07    3.99
   8  -1   1   92.46    3.99
  -9   1  -1   26.53    1.48
  -9   1  -1   23.18    1.15
   9  -1   1   24.65    1.43
   9   0  -1    7.85    0.78
  -9   0   1    7.07    0.76
   8   0  -1    8.36    0.73
  -8   0   1    7.38    0.70
  -8   0   1    7.54    0.53
   7   0  -1   10.68    0.78
  -7   0   1   10.76    0.77
  -7   0   1   10.72    0.59
   6   0  -1   48.92    2.25
  -6   0   1   49.26    1.97
  -6   0   1   48.37    2.25
   5   0  -1    1.09    0.25
  -5   0   1    1.24    0.27
  -5   0   1    1.29    0.19
   4   0  -1  334.87   14.61
  -4   0   1  341.61   14.64
  -4   0   1  347.70   13.16
   3   0  -1  973.87   42.13
   3   0  -1  994.68   37.84
  -3   0   1 1000.00   37.88
  -3   0   1  985.09   42.17
   2   0  -1   76.33    3.51
   2   0  -1   82.53    3.52
   2   0  -1   81.26    3.15
  -2   0   1   82.02    3.51
  -2   0   1   89.47    3.16
  -2   0   1   79.01    3.51
   1   0  -1  453.04   20.19
   1   0  -1  493.43   20.24
  -1   0   1  468.48   20.21
  -1   0   1  489.00   20.23
   0   0  -1   -0.14    0.02
   0   0  -1   -0.10    0.02
   0   0  -1   -0.09    0.02
   0   0   1   -0.13    0.03
   0   0   1   -0.10    0.01
   0   0   1   -0.10    0.02
  -1   0  -1   12.72    0.60
   1   0   1   12.12    0.60
   1   0   1   12.53    0.59
  -2   0  -1   37.46    1.63
  -2   0  -1   35.00    1.62
   2   0   1   38.95    1.63
   2   0   1   34.46    1.62
  -3   0  -1    1.23    0.21
  -3   0  -1    1.03    0.14
   3   0   1    1.58    0.21
  -4   0  -1  490.22   21.90
  -4   0  -1  526.62   19.67
   4   0   1  513.99   21.99
  -5   0  -1  252.21    9.64
  -5   0  -1  249.81   10.64
   5   0   1  244.90   10.63
  -6   0  -1    3.79    0.31
  -6   0  -1    4.13    0.47
   6   0   1    4.32    0.45
  -7   0  -1  101.36    3.96
  -7   0  -1  102.88    4.51
   7   0   1   98.91    4.48
  -8   0  -1  105.78    4.61
  -8   0  -1   96.86    4.01
   8   0   1  104.58    4.58
  -9   0  -1    1.82    0.58
   9   0   1    1.37    0.52
   9  -1  -1    5.99    0.67
  -9   1   1    6.39    0.51
  -9   1   1    6.63    0.71
   8  -1  -1   18.04    1.06
  -8   1   1   15.74    0.85
  -8   1   1   16.72    1.04
   7  -1  -1  148.65    6.43
  -7   1   1  148.32    6.43
  -7   1   1  146.76    5.75
   6  -1  -1  112.96    5.12
  -6   1   1  116.86    4.59
  -6   1   1  123.56    5.13
   5  -1  -1    4.38    0.40
  -5   1   1    4.10    0.33
  -5   1   1    4.13    0.39
   4  -1  -1   93.08    4.02
  -4   1   1   91.32    4.01
  -4   1   1   94.14    3.61
   3  -1  -1  122.15    4.66
   3  -1  -1  120.90    5.17
   3  -1  -1  114.01    5.17
  -3   1   1  127.77    4.67
   2  -1  -1    0.95    0.12
   2  -1  -1    0.97    0.12
   2  -1  -1    1.00    0.12
  -2   1   1    1.26    0.13
  -2   1   1    0.96    0.13
  -2   1   1    0.63    0.11
   1  -1  -1    0.60    0.06
   1  -1  -1    0.73    0.09
  -1   1   1    0.69    0.06
  -1   1   1    0.39    0.08
  -1   1   1    0.69    0.06
   0  -1  -1   83.86    3.23
   0   1   1   86.67    3.24
   0   1   1   78.72    3.59
   0   1   1   84.15    3.58
  -1  -1  -1  282.22   12.28
  -1  -1  -1  307.62   10.89
  -1  -1  -1  281.21   12.18
   1   1   1  289.92   12.28
   1   1   1  264.63   12.11
  -2  -1  -1  119.20    5.35
  -2  -1  -1  131.06    5.36
  -2  -1  -1  123.87    4.83
   2   1   1  127.49    5.35
  -3  -1  -1   16.95    0.87
  -3  -1  -1   18.26    0.71
   3   1   1   17.26    0.86
  -4  -1  -1   72.54    3.24
  -4  -1  -1   74.02    2.84
   4   1   1   73.72    3.22
  -5  -1  -1   67.07    2.59
  -5  -1  -1   64.54    2.98
   5   1   1   67.14    2.97
  -6  -1  -1   17.98    1.05
  -6  -1  -1   18.01    0.79
   6   1   1   17.91    1.01
  -7  -1  -1    3.46    0.28
  -7  -1  -1    3.09    0.50
   7   1   1    3.15    0.48
  -8  -1  -1    9.42    0.84
   8   1   1    7.38    0.71
  10  -2  -1    5.37    0.70
 -10   2   1    3.36    0.46
 -10   2   1    5.17    0.66
   9  -2  -1    1.26    0.48
  -9   2   1    0.81    0.33
  -9   2   1    0.30    0.42
   8  -2  -1   18.83    1.08
  -8   2   1   17.93    0.94
  -8   2   1   18.90    1.07
   7  -2  -1    3.91    0.43
  -7   2   1    4.41    0.39
  -7   2   1    5.19    0.47
   6  -2  -1   13.37    0.76
  -6   2   1   12.56    0.68
  -6   2   1   13.26    0.74
   5  -2  -1  223.67    9.60
  -5   2   1  229.99    8.66
  -5   2   1  222.11    9.59
   4  -2  -1  105.48    4.66
   4  -2  -1  104.49    4.65
  -4   2   1  111.31    4.21
  -4   2   1  113.07    4.65
   3  -2  -1   26.38    1.22
   3  -2  -1   27.33    1.22
  -3   2   1   27.57    1.22
  -3   2   1   28.30    1.13
   2  -2  -1  110.92    4.68
   2  -2  -1  109.09    4.22
  -2   2   1  114.35    4.22
  -2   2   1  107.51    4.67
  -2   2   1  105.30    4.69
   1  -2  -1   69.21    3.02
   1  -2  -1   73.29    3.04
   1  -2  -1   70.84    2.74
  -1   2   1   71.24    2.74
   0  -2  -1    9.11    0.43
   0  -2  -1    8.98    0.42
   0  -2  -1    8.69    0.37
   0   2   1    9.23    0.37
   0   2   1    9.26    0.41
   0   2   1    8.48    0.41
  -1  -2  -1    0.37    0.13
  -1  -2  -1    0.25    0.11
  -2  -2  -1  215.92    8.92
  -2  -2  -1  192.70    8.76
   2   2   1  209.46    8.76
  -3  -2  -1  138.90    6.06
   3   2   1  143.13    6.05
  -4  -2  -1   25.73    1.01
  -4  -2  -1   25.58    1.27
   4   2   1   25.94    1.24
  -5  -2  -1    0.79    0.11
  -5  -2  -1    0.90    0.32
   5   2   1    0.65    0.28
  -6  -2  -1    0.19    0.36
  -6  -2  -1    0.56    0.12
   6   2   1   -0.02    0.32
  -7  -2  -1    2.84    0.57
   7   2   1    2.36    0.47
  -8  -2  -1   12.55    1.10
   8   2   1   11.10    0.96
  10  -3  -1    1.03    0.50
 -10   3   1    1.10    0.37
 -10   3   1    0.69    0.43
   9  -3  -1   48.56    2.23
  -9   3   1   44.57    2.21
  -9   3   1   44.89    1.98
   8  -3  -1  316.73   13.32
  -8   3   1  310.21   13.31
  -8   3   1  307.42   12.01
   7  -3  -1   68.22    3.02
  -7   3   1   66.67    2.73
  -7   3   1   67.08    3.00
   6  -3  -1   52.73    2.32
  -6   3   1   51.24    2.30
  -6   3   1   50.53    2.10
   5  -3  -1   88.69    3.74
   5  -3  -1   78.38    3.72
  -5   3   1   88.49    3.73
  -5   3   1   89.23    3.39
   4  -3  -1    1.27    0.19
   4  -3  -1    1.83    0.19
  -4   3   1    1.45    0.23
  -4   3   1    1.74    0.18
   3  -3  -1   51.00    2.28
   3  -3  -1   54.92    2.29
  -3   3   1   54.16    2.10
  -3   3   1   52.40    2.28
   2  -3  -1    1.23    0.11
   2  -3  -1    1.16    0.11
  -2   3   1    1.19    0.16
   1  -3  -1  147.41    6.13
   1  -3  -1  138.93    6.13
  -1   3   1  145.84    5.57
   0  -3  -1  433.38   19.38
   0  -3  -1  451.18   19.42
   0   3   1  484.38   17.45
   0   3   1  450.60   19.30
  -1  -3  -1  260.57   11.24
  -1  -3  -1  264.73   11.16
   1   3   1  257.99   11.16
  -2  -3  -1   89.99    3.81
  -2  -3  -1   85.18    3.80
   2   3   1   88.24    3.79
  -3  -3  -1  181.03    7.49
   3   3   1  168.02    7.45
  -4  -3  -1   12.80    0.79
   4   3   1   12.90    0.74
  -5  -3  -1    0.99    0.37
   5   3   1    1.58    0.33
  -6  -3  -1    3.41    0.56
   6   3   1    2.59    0.41
  -7  -3  -1   23.83    1.47
  10  -4  -1    8.61    0.85
 -10   4   1   10.67    0.77
   9  -4  -1   69.17    3.05
  -9   4   1   63.92    3.01
  -9   4   1   65.46    2.76
   8  -4  -1   11.73    0.79
  -8   4   1   11.00    0.72
  -8   4   1   11.45    0.73
   7  -4  -1    3.14    0.37
  -7   4   1    4.49    0.41
  -7   4   1    4.52    0.41
   6  -4  -1    7.31    0.53
   6  -4  -1    7.73    0.49
  -6   4   1    9.49    0.56
  -6   4   1    8.61    0.50
   5  -4  -1    3.13    0.30
   5  -4  -1    3.05    0.28
  -5   4   1    3.09    0.26
  -5   4   1    2.29    0.27
   4  -4  -1  243.24    9.98
   4  -4  -1  228.52    9.90
  -4   4   1  227.16    9.93
  -4   4   1  236.29    8.98
   3  -4  -1  611.20   25.20
   3  -4  -1  580.25   25.17
  -3   4   1  589.20   23.09
  -2   4   1    6.89    0.38
   1  -4  -1  202.44    8.91
   1  -4  -1  213.22    8.92
  -1   4   1  212.64    8.06
   0  -4  -1  406.78   17.79
   0  -4  -1  439.89   17.87
   0   4   1  430.49   16.02
   0   4   1  392.28   17.66
  -1  -4  -1    4.08    0.33
  -1  -4  -1    3.58    0.29
   1   4   1    4.21    0.27
  -2  -4  -1   28.53    1.34
  -2  -4  -1   26.64    1.32
   2   4   1   29.55    1.29
  -3  -4  -1    0.56    0.20
  -3  -4  -1    0.04    0.24
   3   4   1    0.36    0.20
  -4  -4  -1   78.17    3.50
   4   4   1   77.78    3.45
  -5  -4  -1  129.15    5.70
  -6  -4  -1    0.51    0.47
  10  -5  -1    9.58    0.81
 -10   5   1    7.57    0.66
   9  -5  -1    1.85    0.40
  -9   5   1    2.06    0.40
   8  -5  -1   37.05    1.73
  -8   5   1   34.88    1.69
  -8   5   1   36.06    1.61
   7  -5  -1   51.02    2.55
   7  -5  -1   58.53    2.58
  -7   5   1   60.87    2.39
  -7   5   1   60.05    2.56
   6  -5  -1    9.01    0.53
   6  -5  -1    9.83    0.57
  -6   5   1    9.28    0.60
  -6   5   1    9.73    0.53
   5  -5  -1    1.66    0.21
   5  -5  -1    1.58    0.19
  -5   5   1    1.90    0.17
  -5   5   1    2.22    0.30
   4  -5  -1   40.53    1.81
   4  -5  -1   43.69    1.82
  -4   5   1   41.14    1.72
   3  -5  -1   96.91    3.99
   3  -5  -1   92.07    3.99
  -3   5   1   93.08    3.68
   2  -5  -1   14.69    0.63
   2  -5  -1   14.00    0.62
  -2   5   1   14.24    0.65
   1  -5  -1   11.80    0.57
   1  -5  -1   12.98    0.58
  -1   5   1   12.12    0.55
   0  -5  -1    2.55    0.24
   0  -5  -1    2.47    0.23
   0   5   1    2.18    0.19
  -1  -5  -1   80.41    3.48
   1   5   1   79.41    3.43
  -2  -5  -1   10.12    0.63
  -2  -5  -1   11.72    0.69
   2   5   1   11.32    0.60
  -3  -5  -1    9.73    0.70
   3   5   1   10.65    0.64
  -4  -5  -1  101.88    4.54
  -5  -5  -1   18.42    1.18
  10  -6  -1    5.55    0.61
 -10   6   1    6.07    0.63
   9  -6  -1    0.55    0.33
  -9   6   1    0.51    0.38
   8  -6  -1    5.66    0.55
  -8   6   1    6.44    0.55
   7  -6  -1    1.05    0.26
  -7   6   1    1.23    0.21
  -7   6   1    1.08    0.33
   6  -6  -1   55.97    2.53
   6  -6  -1   59.15    2.54
  -6   6   1   58.29    2.38
   5  -6  -1  111.86    4.66
   5  -6  -1  105.75    4.65
  -5   6   1  108.87    4.28
   4  -6  -1   72.37    3.19
   4  -6  -1   76.78    3.19
  -4   6   1   75.24    2.97
  -3   6   1    0.43    0.18
   2  -6  -1   35.18    1.58
   2  -6  -1   38.24    1.59
  -2   6   1   37.30    1.50
   1  -6  -1    7.04    0.38
   1  -6  -1    6.92    0.40
  -1   6   1    6.73    0.38
   0  -6  -1    1.17    0.18
   0  -6  -1    1.00    0.21
   0   6   1    1.18    0.14
  -1  -6  -1    3.12    0.33
  -1  -6  -1    2.81    0.28
  -2  -6  -1   29.99    1.47
  -3  -6  -1   46.55    2.21
  -4  -6  -1   18.84    1.15
  10  -7  -1    0.02    0.36
   9  -7  -1   48.95    2.27
  -9   7   1   48.02    2.14
   8  -7  -1   67.99    3.06
  -8   7   1   69.59    2.86
   7  -7  -1   65.21    2.88
  -7   7   1   65.14    2.70
   6  -7  -1   21.53    1.00
   6  -7  -1   20.35    0.98
  -6   7   1   21.46    1.04
   5  -7  -1  129.50    5.39
   5  -7  -1  120.69    5.38
  -5   7   1  129.63    4.97
   4  -7  -1   22.32    0.96
  -4   7   1   21.35    1.00
  -3   7   1   35.80    1.50
   2  -7  -1    1.21    0.14
   2  -7  -1    1.22    0.13
  -2   7   1    1.15    0.21
   1  -7  -1   52.22    2.24
   1  -7  -1   49.37    2.22
  -1   7   1   51.80    2.02
   0  -7  -1  191.25    8.40
   0  -7  -1  202.50    8.41
   0   7   1  197.29    7.52
  -1  -7  -1    1.96    0.33
  -2  -7  -1   37.10    1.80
  -3  -7  -1   64.18    2.97
  10  -8  -1    0.99    0.39
   9  -8  -1   21.66    1.17
  -9   8   1   21.71    1.18
   8  -8  -1   50.66    2.27
  -8   8   1   49.17    2.18
   7  -8  -1    4.48    0.41
  -7   8   1    4.29    0.47
   6  -8  -1   16.09    0.79
   6  -8  -1   17.06    0.81
  -6   8   1   17.12    0.92
   5  -8  -1    0.96    0.13
   5  -8  -1    1.02    0.14
  -5   8   1    0.86    0.29
  -4   8   1   39.67    1.68
  -3   8   1   92.43    3.65
   2  -8  -1    0.51    0.12
   2  -8  -1    0.55    0.14
  -2   8   1    0.75    0.21
   1  -8  -1   51.58    2.33
   1  -8  -1   53.59    2.35
  -1   8   1   55.00    2.11
   0  -8  -1   68.34    3.02
  -1  -8  -1   21.52    1.15
  -2  -8  -1   24.15    1.33
   9  -9  -1    3.02    0.41
   8  -9  -1    4.32    0.39
  -8   9   1    3.81    0.51
   7  -9  -1    6.94    0.48
  -7   9   1    7.54    0.68
   6  -9  -1    1.70    0.17
   6  -9  -1    2.02    0.20
  -6   9   1    1.65    0.38
  -5   9   1    0.42    0.29
  -4   9   1   23.54    1.10
  -3   9   1   36.86    1.56
   2  -9  -1    6.90    0.39
   2  -9  -1    7.29    0.41
  -2   9   1    7.02    0.46
   1  -9  -1    0.50    0.24
   0  -9  -1    0.46    0.29
   8 -10  -1    0.19    0.24
   7 -10  -1    0.29    0.17
  -7  10   1    0.23    0.37
  -6  10   1    0.15    0.32
  -5  10   1   56.28    2.36
  -4  10   1   18.53    0.94
  -3  10   1    2.91    0.33
   2 -10  -1   23.14    1.06
   1 -10   2   13.80    0.77
   2 -10   2    2.34    0.24
  -3  10  -2    7.92    0.60
  -4  10  -2   20.38    1.03
  -5  10  -2    0.74    0.33
  -6  10  -2    8.98    0.74
   6 -10   2    9.17    0.47
   6 -10   2    9.21    0.50
  -7  10  -2    2.13    0.44
   7 -10   2    2.33    0.30
   8 -10   2    0.36    0.28
  -1  -9   2   16.52    0.97
   0  -9   2    1.38    0.31
  -1   9  -2   88.79    3.57
   1  -9   2   93.79    3.95
  -2   9  -2    7.29    0.51
   2  -9   2    7.02    0.41
   2  -9   2    6.44    0.38
  -3   9  -2    4.93    0.41
  -4   9  -2   80.92    3.26
  -5   9  -2   68.04    2.65
   5  -9   2   61.82    2.74
   5  -9   2   63.05    2.75
  -6   9  -2   20.83    1.04
   6  -9   2   17.82    0.88
   6  -9   2   18.98    0.92
  -7   9  -2   19.90    1.14
   7  -9   2   23.04    1.10
  -8   9  -2    3.10    0.49
   8  -9   2    3.75    0.41
   9  -9   2    0.14    0.33
  -2  -8   2   45.11    2.14
  -1  -8   2   23.56    1.21
   0   8  -2   24.32    1.00
   0   8  -2   23.49    1.01
   0  -8   2   24.49    1.17
  -1   8  -2  273.87   10.27
   1  -8   2  251.29   11.35
   1  -8   2  278.28   11.36
  -2   8  -2   61.97    2.45
   2  -8   2   58.28    2.61
   2  -8   2   62.35    2.62
  -3   8  -2   10.30    0.59
   3  -8   2   10.36    0.47
   3  -8   2    9.17    0.46
  -4   8  -2   44.59    1.84
   4  -8   2   42.06    1.88
   4  -8   2   44.22    1.88
  -5   8  -2   16.15    0.85
   5  -8   2   15.66    0.76
   5  -8   2   14.98    0.73
  -6   8  -2   43.12    1.82
   6  -8   2   39.12    1.85
   6  -8   2   43.06    1.88
  -7   8  -2   10.58    0.76
   7  -8   2   11.21    0.69
  -8   8  -2   24.60    1.25
   8  -8   2   23.55    1.23
  -9   8  -2   82.88    3.49
   9  -8   2   85.54    3.77
  10  -8   2   24.34    1.35
  -4  -7   2    1.29    0.44
  -3  -7   2   43.38    2.09
  -2  -7   2   52.95    2.43
   1   7  -2   31.03    1.21
   1   7  -2   30.11    1.21
  -1  -7   2   31.22    1.47
   0   7  -2    3.45    0.29
   0  -7   2    3.10    0.30
   0  -7   2    3.41    0.30
   1  -7   2   25.09    1.16
   1  -7   2   26.76    1.18
   2  -7   2    7.90    0.40
   2  -7   2    7.03    0.38
   3  -7   2   14.34    0.63
   3  -7   2   12.78    0.62
   4  -7   2    0.28    0.11
   4  -7   2    0.24    0.14
  -5   7  -2  103.18    4.04
   5  -7   2   98.15    4.37
   5  -7   2  104.63    4.38
  -6   7  -2  103.03    3.99
   6  -7   2  102.70    4.33
   6  -7   2   94.22    4.30
  -7   7  -2   17.90    0.95
   7  -7   2   17.61    0.94
  -8   7  -2   17.13    1.00
   8  -7   2   19.81    1.03
  -9   7  -2   26.23    1.35
   9  -7   2   26.75    1.39
  10  -7   2   11.57    0.89
  -5  -6   2    2.70    0.54
  -4  -6   2   14.74    0.97
  -3  -6   2   45.76    2.16
  -2  -6   2   22.71    1.15
   1   6  -2   24.19    0.92
  -1  -6   2   20.35    1.07
  -1  -6   2   24.42    1.12
   0  -6   2   91.27    4.07
   0  -6   2   98.54    4.09
   1  -6   2   13.61    0.64
   1  -6   2   13.19    0.63
   2  -6   2   94.47    3.90
   2  -6   2   88.83    3.89
   3  -6   2    5.13    0.29
   3  -6   2    4.45    0.27
   4  -6   2    1.26    0.17
   4  -6   2    1.13    0.15
   5  -6   2    0.64    0.16
   5  -6   2    0.48    0.18
  -6   6  -2   21.15    1.01
  -6   6  -2   21.87    1.03
   6  -6   2   21.25    1.05
  -7   6  -2   20.61    1.01
  -7   6  -2   20.94    1.02
   7  -6   2   19.01    1.04
  -8   6  -2   23.99    1.21
   8  -6   2   24.87    1.27
  -9   6  -2    3.83    0.49
   9  -6   2    3.69    0.50
 -10   6  -2    5.48    0.58
  10  -6   2    5.71    0.63
  -6  -5   2   21.79    1.37
  -5  -5   2    1.94    0.46
  -4  -5   2  227.58    9.79
   3   5  -2   85.77    3.74
  -3  -5   2   85.66    3.79
   2   5  -2   37.66    1.66
   2   5  -2   38.86    1.42
  -2  -5   2   37.12    1.70
  -2  -5   2   33.34    1.67
   1   5  -2  113.45    5.02
   1   5  -2  118.41    4.51
  -1  -5   2  121.56    5.06
   0  -5   2   14.63    0.69
   0  -5   2   13.57    0.68
   1  -5   2   13.61    0.62
   1  -5   2   12.81    0.61
   2  -5   2  151.94    6.63
   2  -5   2  160.40    6.68
   3  -5   2    2.49    0.20
   3  -5   2    3.12    0.23
  -4   5  -2  389.55   17.56
   4  -5   2  440.54   17.69
   4  -5   2  411.03   17.71
  -5   5  -2  135.04    5.82
   5  -5   2  128.43    5.82
   5  -5   2  144.58    5.83
  -6   5  -2   64.11    2.75
  -6   5  -2   63.55    2.54
   6  -5   2   57.01    2.74
   6  -5   2   64.52    2.77
  -7   5  -2   64.64    2.62
  -7   5  -2   63.38    2.84
   7  -5   2   63.10    2.86
  -8   5  -2   10.74    0.75
  -8   5  -2   11.40    0.73
   8  -5   2   11.91    0.81
  -9   5  -2   19.13    1.06
   9  -5   2   19.69    1.17
 -10   5  -2    2.23    0.43
  10  -5   2    3.36    0.56
  -6  -4   2   82.52    3.78
   5   4  -2    6.69    0.60
  -5  -4   2    7.32    0.70
   4   4  -2   37.10    1.76
  -4  -4   2   38.48    1.81
   3   4  -2   21.79    0.98
  -3  -4   2   20.10    1.01
  -3  -4   2   16.94    0.97
   2   4  -2  133.86    5.68
   2   4  -2  140.55    5.07
  -2  -4   2  133.17    5.70
  -2  -4   2  122.99    5.69
   1   4  -2    9.50    0.48
   1   4  -2    9.46    0.40
  -1  -4   2    8.50    0.48
  -1  -4   2    9.13    0.51
   0   4  -2  194.49    8.30
   0  -4   2  196.75    8.32
   0  -4   2  193.68    8.31
   1  -4   2  914.35   37.74
   1  -4   2  866.36   37.71
   2  -4   2  181.48    7.54
   2  -4   2  171.56    7.51
  -3   4  -2   48.59    2.17
   3  -4   2   48.62    2.18
   3  -4   2   53.98    2.19
  -4   4  -2  209.94    8.71
   4  -4   2  210.79    8.83
   4  -4   2  194.11    8.70
  -5   4  -2  159.53    6.51
   5  -4   2  144.77    6.50
   5  -4   2  151.64    6.51
  -6   4  -2   55.44    2.23
  -6   4  -2   55.51    2.44
   6  -4   2   52.62    2.45
  -7   4  -2   12.54    0.71
  -7   4  -2   12.37    0.75
   7  -4   2   12.17    0.77
  -8   4  -2    3.78    0.43
  -8   4  -2    4.98    0.48
   8  -4   2    4.14    0.48
  -9   4  -2  153.94    6.24
  -9   4  -2  156.24    6.91
   9  -4   2  165.07    6.93
 -10   4  -2   26.46    1.39
  10  -4   2   30.84    1.63
   7   3  -2    2.71    0.49
  -7  -3   2    2.16    0.55
   6   3  -2   10.50    0.76
  -6  -3   2    9.69    0.80
   5   3  -2    0.37    0.28
  -5  -3   2    0.53    0.11
  -5  -3   2    0.45    0.34
  -4  -3   2   23.53    1.24
  -4  -3   2   25.68    0.99
   3   3  -2   86.74    3.71
   3   3  -2   86.61    3.28
  -3  -3   2   82.70    3.72
   2   3  -2  102.72    3.77
   2   3  -2   96.52    4.23
  -2  -3   2   91.14    4.24
  -2  -3   2  103.41    4.25
   1   3  -2   29.50    1.30
   1   3  -2   30.78    1.16
  -1  -3   2   29.58    1.31
  -1  -3   2   27.90    1.31
   0   3  -2    0.12    0.09
   0  -3   2   -0.13    0.08
   0  -3   2   -0.07    0.09
  -1   3  -2  145.41    6.06
   1  -3   2  142.19    6.12
   1  -3   2  140.36    6.10
  -2   3  -2   21.70    0.95
   2  -3   2   20.72    0.96
   2  -3   2   22.01    0.96
  -3   3  -2    0.35    0.12
   3  -3   2    0.32    0.12
   3  -3   2    0.25    0.12
  -4   3  -2   74.85    3.21
   4  -3   2   75.99    3.21
   4  -3   2   70.95    3.21
  -5   3  -2   62.03    2.79
   5  -3   2   64.45    2.79
  -6   3  -2  109.04    4.44
  -6   3  -2  114.76    4.93
   6  -3   2  116.36    4.93
  -7   3  -2    5.44    0.44
  -7   3  -2    4.82    0.47
   7  -3   2    4.40    0.47
  -8   3  -2   60.49    2.74
  -8   3  -2   57.12    2.44
   8  -3   2   59.70    2.74
  -9   3  -2   51.58    2.24
  -9   3  -2   53.97    2.54
   9  -3   2   53.14    2.53
 -10   3  -2    6.53    0.59
 -10   3  -2    6.97    0.74
  10  -3   2    8.36    0.79
   8   2  -2   51.50    2.51
  -8  -2   2   52.43    2.57
   7   2  -2   21.02    1.24
  -7  -2   2   22.25    1.28
   6   2  -2    2.40    0.41
  -6  -2   2    1.98    0.40
  -6  -2   2    2.74    0.25
   5   2  -2    0.33    0.25
  -5  -2   2    0.66    0.31
  -5  -2   2    0.79    0.17
   4   2  -2   17.31    0.91
   4   2  -2   17.76    0.74
  -4  -2   2   18.65    0.75
  -4  -2   2   17.33    0.93
   3   2  -2   49.16    2.18
   3   2  -2   48.76    1.91
  -3  -2   2   49.82    1.92
  -3  -2   2   48.63    2.19
   2   2  -2   58.81    2.64
   2   2  -2   64.03    2.34
  -2  -2   2   56.80    2.64
  -2  -2   2   60.08    2.64
  -2  -2   2   63.53    2.34
   1   2  -2  464.32   19.21
   1   2  -2  458.29   17.22
  -1  -2   2  455.05   19.21
  -1  -2   2  417.69   19.11
   0   2  -2  280.07   11.87
   0   2  -2  273.75   11.86
   0  -2   2  279.15   11.90
  -1   2  -2  133.01    5.57
  -1   2  -2  129.43    5.56
   1  -2   2  128.29    5.57
  -2   2  -2    1.48    0.16
   2  -2   2    1.28    0.15
   2  -2   2    1.49    0.15
  -3   2  -2   18.39    0.87
   3  -2   2   18.73    0.86
   3  -2   2   17.14    0.86
  -4   2  -2   14.70    0.75
   4  -2   2   14.30    0.74
  -5   2  -2    0.27    0.21
   5  -2   2    0.12    0.21
  -6   2  -2    5.45    0.43
  -6   2  -2    5.27    0.50
   6  -2   2    5.41    0.50
  -7   2  -2  129.92    5.25
  -7   2  -2  134.92    5.87
   7  -2   2  138.38    5.87
  -8   2  -2    9.10    0.63
  -8   2  -2    9.43    0.79
   8  -2   2    8.97    0.78
  -9   2  -2    6.09    0.53
  -9   2  -2    7.36    0.71
   9  -2   2    6.67    0.70
   9   1  -2   13.86    1.10
   8   1  -2    8.51    0.83
  -8  -1   2    8.97    0.86
   7   1  -2   16.95    1.01
  -7  -1   2   15.83    1.02
  -7  -1   2   15.84    0.76
   6   1  -2   59.92    2.73
  -6  -1   2   59.14    2.73
  -6  -1   2   60.75    2.38
   5   1  -2   18.90    1.00
  -5  -1   2   19.97    0.84
  -5  -1   2   19.20    1.01
   4   1  -2  624.54   27.25
   4   1  -2  622.32   24.37
  -4  -1   2  649.55   24.41
  -4  -1   2  642.99   27.27
   3   1  -2  163.76    6.91
   3   1  -2  158.89    6.19
  -3  -1   2  156.45    6.90
  -3  -1   2  167.70    6.25
   2   1  -2   90.34    3.36
   2   1  -2   87.06    3.75
  -2  -1   2   82.28    3.75
  -2  -1   2   88.80    3.36
   1   1  -2  207.27    7.63
   1   1  -2  195.36    8.44
   1   1  -2  187.05    8.41
  -1  -1   2  191.16    8.43
  -1  -1   2  201.51    7.60
  -1  -1   2  196.51    8.42
   0   1  -2  259.36   11.02
   0   1  -2  270.54    9.94
   0   1  -2  250.76   10.99
   0  -1   2  248.90   10.99
   0  -1   2  254.12   11.02
  -1   1  -2    0.02    0.09
  -1   1  -2    0.01    0.06
   1  -1   2    0.15    0.09
   1  -1   2    0.02    0.08
  -2   1  -2  105.89    4.53
  -2   1  -2  105.31    4.51
   2  -1   2   99.90    4.52
   2  -1   2  110.05    4.52
  -3   1  -2    9.85    0.52
   3  -1   2    8.88    0.50
  -4   1  -2  403.75   17.37
   4  -1   2  399.31   17.32
  -5   1  -2  246.57    9.51
  -5   1  -2  248.59   10.59
   5  -1   2  248.64   10.58
  -6   1  -2    6.67    0.57
  -6   1  -2    7.21    0.47
   6  -1   2    7.07    0.58
  -7   1  -2    7.85    0.53
   7  -1   2    7.73    0.67
  -8   1  -2   78.69    3.48
  -8   1  -2   70.70    3.03
   8  -1   2   77.31    3.46
  -9   1  -2    5.25    0.70
   9  -1   2    4.39    0.64
   9   0  -2    6.34    0.72
  -9   0   2    5.68    0.69
   8   0  -2   65.20    2.96
  -8   0   2   60.24    2.56
  -8   0   2   65.32    2.97
   7   0  -2  192.62    8.22
  -7   0   2  189.09    7.34
  -7   0   2  188.52    8.21
   6   0  -2   89.31    3.93
  -6   0   2   87.68    3.49
  -6   0   2   90.40    3.94
   5   0  -2    1.45    0.27
   5   0  -2    1.53    0.19
  -5   0   2    1.98    0.30
  -5   0   2    1.61    0.21
   4   0  -2  267.87   10.42
   4   0  -2  262.75   11.42
  -4   0   2  272.22   10.37
  -4   0   2  271.31   11.41
   3   0  -2   71.85    3.09
   3   0  -2   71.52    2.76
  -3   0   2   69.95    3.08
  -3   0   2   70.93    2.76
   2   0  -2    2.65    0.24
  -2   0   2    2.39    0.23
  -2   0   2    2.92    0.23
  -2   0   2    3.24    0.21
   1   0  -2   66.72    3.00
   1   0  -2   70.55    3.06
  -1   0   2   68.56    3.00
  -1   0   2   72.30    2.70
  -1   0   2   70.76    3.00
   0   0  -2   70.93    3.17
   0   0  -2   75.60    3.21
   0   0  -2   74.89    2.88
   0   0   2   73.00    3.20
   0   0   2   77.21    2.89
   0   0   2   70.49    3.14
  -1   0  -2  882.56   37.10
   1   0   2  862.69   37.09
  -2   0  -2  438.57   18.20
  -2   0  -2  413.77   18.10
   2   0   2  414.88   18.06
  -3   0  -2   30.54    1.43
   3   0   2   31.45    1.42
  -4   0  -2  360.39   15.66
   4   0   2  368.25   15.61
  -5   0  -2  274.04   10.61
  -5   0  -2  279.22   11.72
   5   0   2  269.92   11.70
  -6   0  -2   13.38    0.66
  -6   0  -2   14.23    0.87
   6   0   2   13.91    0.84
  -7   0  -2   10.32    0.58
  -7   0  -2   11.13    0.83
   7   0   2   10.60    0.80
  -8   0  -2    3.25    0.56
   8   0   2    3.68    0.56
   9   0   2   23.90    1.43
   9  -1  -2    0.11    0.43
  -9   1   2    0.63    0.30
  -9   1   2    0.35    0.44
   8  -1  -2    1.70    0.44
  -8   1   2    2.17    0.45
  -8   1   2    2.05    0.32
   7  -1  -2    8.30    0.66
  -7   1   2    8.64    0.55
  -7   1   2    7.81    0.64
   6  -1  -2   61.22    2.83
  -6   1   2   63.35    2.52
  -6   1   2   64.73    2.82
   5  -1  -2    3.91    0.33
   5  -1  -2    4.09    0.39
  -5   1   2    4.30    0.34
  -5   1   2    4.17    0.38
   4  -1  -2  101.53    4.50
   4  -1  -2  103.49    4.04
  -4   1   2  106.19    4.05
  -4   1   2  106.39    4.49
   3  -1  -2   67.99    2.98
  -3   1   2   69.78    2.69
   2  -1  -2  439.20   17.07
   2  -1  -2  428.65   18.81
   2  -1  -2  454.34   18.89
  -2   1   2  436.03   18.87
  -2   1   2  442.05   18.86
  -2   1   2  449.81   17.07
   1  -1  -2   97.35    4.36
   1  -1  -2  100.18    3.96
   1  -1  -2  102.76    4.42
  -1   1   2  106.08    3.92
  -1   1   2  105.47    4.39
  -1   1   2  101.68    4.39
   0  -1  -2  142.72    6.37
   0  -1  -2  142.87    6.35
   0  -1  -2  153.92    5.67
   0   1   2  149.11    6.32
   0   1   2  159.34    5.71
   0   1   2  134.40    6.23
  -1  -1  -2  277.90   12.66
  -1  -1  -2  292.45   12.67
  -1  -1  -2  296.26   11.30
   1   1   2  311.16   12.66
  -2  -1  -2   25.80    1.20
  -2  -1  -2   25.13    1.19
   2   1   2   26.19    1.19
  -3  -1  -2    1.94    0.27
   3   1   2    2.10    0.24
  -4  -1  -2    0.48    0.12
  -4  -1  -2    0.59    0.26
   4   1   2    0.29    0.21
  -5  -1  -2   28.98    1.16
  -5  -1  -2   28.09    1.42
   5   1   2   27.89    1.39
  -6  -1  -2   67.15    2.96
  -6  -1  -2   63.60    2.52
   6   1   2   61.83    2.91
  -7  -1  -2    0.26    0.41
  -7  -1  -2    0.19    0.16
   7   1   2   -0.17    0.35
  -8  -1  -2   35.82    1.90
   8   1   2   34.64    1.83
  10  -2  -2    0.16    0.48
 -10   2   2    0.20    0.33
 -10   2   2   -0.12    0.48
   9  -2  -2  103.10    4.53
  -9   2   2  102.41    4.51
  -9   2   2   97.03    4.04
   8  -2  -2   92.37    3.95
  -8   2   2   83.12    3.51
  -8   2   2   88.39    3.92
   7  -2  -2   20.24    1.10
  -7   2   2   21.12    0.97
  -7   2   2   20.39    1.08
   6  -2  -2    0.11    0.24
  -6   2   2    0.14    0.21
  -6   2   2    0.18    0.21
   5  -2  -2   71.70    3.13
  -5   2   2   72.49    2.83
  -5   2   2   70.19    3.12
   4  -2  -2    1.71    0.21
   4  -2  -2    1.27    0.18
   4  -2  -2    1.91    0.22
  -4   2   2    1.22    0.18
  -4   2   2    1.61    0.22
   3  -2  -2   15.88    0.82
   3  -2  -2   17.07    0.77
   3  -2  -2   16.93    0.83
  -3   2   2   21.80    0.83
   0  -2  -2  333.41   12.98
   0  -2  -2  340.78   14.45
   0   2   2  337.10   12.97
   0   2   2  339.27   14.39
  -1  -2  -2   92.27    3.49
  -1  -2  -2   89.96    3.91
  -1  -2  -2   90.20    3.91
   1   2   2   91.94    3.90
  -2  -2  -2   63.69    2.66
  -2  -2  -2   57.67    2.64
   2   2   2   59.92    2.63
  -3  -2  -2   20.31    1.00
   3   2   2   19.16    0.96
  -4  -2  -2   41.70    1.94
  -4  -2  -2   42.98    1.60
  -4  -2  -2   41.14    1.60
   4   2   2   39.60    1.89
  -5  -2  -2   27.48    1.41
  -5  -2  -2   27.16    1.07
   5   2   2   26.96    1.35
  -6  -2  -2    0.31    0.10
  -6  -2  -2    0.48    0.40
   6   2   2    0.28    0.32
  -7  -2  -2    4.42    0.64
   7   2   2    6.33    0.63
  10  -3  -2    0.16    0.47
 -10   3   2   -0.27    0.32
 -10   3   2    0.62    0.43
   9  -3  -2   15.86    1.00
  -9   3   2   13.25    0.85
  -9   3   2   15.04    0.95
   8  -3  -2   25.56    1.37
  -8   3   2   25.71    1.23
  -8   3   2   27.07    1.34
   7  -3  -2    0.59    0.30
  -7   3   2    1.17    0.28
  -7   3   2    0.65    0.27
   6  -3  -2   47.66    2.16
  -6   3   2   47.61    2.14
  -6   3   2   47.84    1.97
   5  -3  -2   35.62    1.76
   5  -3  -2   40.85    1.78
  -5   3   2   42.22    1.64
  -5   3   2   39.70    1.76
   4  -3  -2  559.51   23.06
   4  -3  -2  542.06   20.80
   4  -3  -2  505.11   22.87
  -4   3   2  534.80   22.84
  -4   3   2  542.70   20.82
   3  -3  -2  434.86   19.00
   3  -3  -2  427.31   17.11
   3  -3  -2  475.02   19.11
  -3   3   2  462.17   17.33
  -3   3   2  434.95   18.96
   2  -3  -2   81.11    3.20
   2  -3  -2   83.05    3.51
   2  -3  -2   84.02    3.51
  -2   3   2   81.15    3.20
   1  -3  -2  284.93   12.32
   1  -3  -2  287.51   12.36
   1  -3  -2  295.56   11.22
  -1   3   2  287.43   11.12
   0  -3  -2  290.51   10.95
   0  -3  -2  283.60   12.25
   0  -3  -2  278.04   12.16
   0   3   2  284.81   12.16
   0   3   2  288.42   10.96
  -1  -3  -2    2.60    0.25
  -1  -3  -2    2.41    0.24
   1   3   2    3.33    0.24
  -2  -3  -2   20.70    1.02
  -2  -3  -2   21.64    1.05
   2   3   2   21.87    1.01
  -3  -3  -2    1.84    0.31
   3   3   2    1.71    0.24
  -4  -3  -2  128.09    5.46
   4   3   2  121.53    5.40
  -5  -3  -2  145.14    6.21
   5   3   2  138.09    6.15
  -6  -3  -2    4.26    0.60
   6   3   2    3.15    0.46
  -7  -3  -2   48.46    2.46
  10  -4  -2   -0.03    0.42
 -10   4   2   -0.04    0.34
   9  -4  -2    5.08    0.57
  -9   4   2    4.82    0.51
  -9   4   2    5.40    0.53
   8  -4  -2    7.04    0.62
  -8   4   2    7.78    0.58
  -8   4   2    6.66    0.59
   7  -4  -2  134.90    5.69
  -7   4   2  128.76    5.15
  -7   4   2  129.82    5.66
   6  -4  -2   70.36    3.32
   6  -4  -2   78.99    3.34
  -6   4   2   77.14    3.05
  -6   4   2   78.20    3.32
   5  -4  -2   12.21    0.63
   5  -4  -2   12.49    0.65
  -5   4   2   12.39    0.65
  -5   4   2   12.20    0.61
   4  -4  -2  170.95    7.49
   4  -4  -2  187.54    7.50
  -4   4   2  176.71    6.81
  -4   4   2  170.42    7.47
   3  -4  -2  191.69    8.04
   3  -4  -2  187.21    8.07
  -3   4   2  191.25    7.31
   2  -4  -2    0.04    0.07
  -2   4   2    0.06    0.13
   1  -4  -2   28.50    1.21
   1  -4  -2   27.05    1.20
  -1   4   2   26.50    1.10
   0  -4  -2   35.63    1.52
   0  -4  -2   32.56    1.50
   0   4   2   32.85    1.47
   0   4   2   35.02    1.33
  -1  -4  -2  157.18    6.61
  -1  -4  -2  146.75    6.60
   1   4   2  159.29    6.57
  -2  -4  -2   78.56    3.70
  -2  -4  -2   88.80    3.72
   2   4   2   87.23    3.68
  -3  -4  -2   37.05    1.76
   3   4   2   36.89    1.70
  -4  -4  -2  168.77    7.21
   4   4   2  162.98    7.14
  -5  -4  -2   47.01    2.29
  -6  -4  -2   -0.29    0.44
  10  -5  -2   42.11    1.99
 -10   5   2   37.14    1.81
   9  -5  -2    3.45    0.48
  -9   5   2    3.98    0.50
   8  -5  -2    5.60    0.55
  -8   5   2    7.18    0.56
  -8   5   2    5.68    0.48
   7  -5  -2   16.96    0.87
   7  -5  -2   14.18    0.83
  -7   5   2   15.88    0.81
  -7   5   2   17.24    0.86
   6  -5  -2   42.94    1.84
   6  -5  -2   38.04    1.82
  -6   5   2   41.80    1.73
  -6   5   2   40.08    1.80
   5  -5  -2   41.90    1.95
   5  -5  -2   46.54    1.97
  -5   5   2   45.21    1.84
   4  -5  -2   14.62    0.67
   4  -5  -2   14.08    0.66
  -4   5   2   13.86    0.70
   3  -5  -2    0.33    0.09
   3  -5  -2    0.36    0.09
  -3   5   2    0.37    0.17
   2  -5  -2   15.87    0.68
   2  -5  -2   14.32    0.68
  -2   5   2   15.05    0.68
   1  -5  -2   18.43    0.83
   1  -5  -2   17.51    0.82
  -1   5   2   17.80    0.76
   0  -5  -2  126.92    5.25
   0  -5  -2  114.95    5.24
   0   5   2  125.47    4.69
  -1  -5  -2   77.47    3.40
   1   5   2   77.93    3.34
  -2  -5  -2   28.00    1.37
   2   5   2   28.20    1.30
  -3  -5  -2    2.72    0.41
  -4  -5  -2    1.61    0.43
  -5  -5  -2   -0.10    0.42
  10  -6  -2    9.94    0.82
 -10   6   2    9.08    0.80
   9  -6  -2   52.97    2.45
  -9   6   2   51.65    2.26
   8  -6  -2  135.62    5.93
  -8   6   2  138.14    5.42
   7  -6  -2   20.65    1.04
  -7   6   2   20.23    1.03
   6  -6  -2   33.67    1.53
   6  -6  -2   32.45    1.51
  -6   6   2   34.83    1.48
   5  -6  -2   66.74    2.86
   5  -6  -2   65.15    2.85
  -5   6   2   66.28    2.67
   4  -6  -2    6.31    0.33
   4  -6  -2    6.16    0.34
  -4   6   2    5.59    0.45
   3  -6  -2    1.25    0.12
   3  -6  -2    1.30    0.12
  -3   6   2    0.98    0.20
   2  -6  -2    0.31    0.10
   2  -6  -2    0.16    0.11
  -2   6   2    0.01    0.15
   1  -6  -2   27.46    1.22
   1  -6  -2   25.13    1.20
  -1   6   2   27.77    1.10
   0  -6  -2   80.70    3.63
   0  -6  -2   84.66    3.64
   0   6   2   85.97    3.22
  -1  -6  -2   23.01    1.15
  -2  -6  -2   24.39    1.26
  -3  -6  -2   27.03    1.43
  -4  -6  -2   14.54    1.02
  10  -7  -2    0.18    0.36
   9  -7  -2   51.33    2.37
  -9   7   2   50.39    2.22
   8  -7  -2   60.76    2.76
  -8   7   2   62.16    2.59
   7  -7  -2    3.19    0.34
  -7   7   2    3.70    0.46
   6  -7  -2   23.48    1.09
   6  -7  -2   22.28    1.07
  -6   7   2   23.79    1.12
   5  -7  -2    0.70    0.14
   5  -7  -2    0.77    0.16
  -5   7   2    0.62    0.28
   4  -7  -2  126.03    5.23
   4  -7  -2  118.85    5.23
  -4   7   2  125.71    4.83
   3  -7  -2  207.41    8.45
   3  -7  -2  190.66    8.45
  -3   7   2  201.79    7.71
   2  -7  -2   -0.05    0.13
   2  -7  -2    0.03    0.11
  -2   7   2    0.17    0.17
   1  -7  -2  203.43    8.40
   1  -7  -2  192.68    8.39
  -1   7   2  196.11    7.57
   0  -7  -2  154.64    6.56
   0   7   2  150.98    5.83
  -1  -7  -2    0.12    0.28
  -2  -7  -2   12.65    0.86
  -3  -7  -2    8.95    0.82
  10  -8  -2   -0.07    0.35
   9  -8  -2    4.93    0.48
  -9   8   2    4.47    0.56
   8  -8  -2    0.78    0.29
  -8   8   2    0.57    0.38
   7  -8  -2   41.60    1.89
  -7   8   2   42.47    1.86
   6  -8  -2   16.46    0.83
   6  -8  -2   18.51    0.82
  -6   8   2   16.05    0.92
   5  -8  -2   33.90    1.55
   5  -8  -2   36.99    1.56
  -5   8   2   36.50    1.56
  -4   8   2   86.56    3.44
  -3   8   2   51.95    2.11
   2  -8  -2   10.14    0.55
   2  -8  -2   10.90    0.54
  -2   8   2   10.82    0.57
   1  -8  -2    2.82    0.30
  -1   8   2    2.52    0.23
   0  -8  -2    1.28    0.30
  -1  -8  -2   39.18    1.87
   9  -9  -2    2.42    0.38
   8  -9  -2    6.67    0.52
  -8   9   2    5.98    0.59
   7  -9  -2    1.44    0.24
  -7   9   2    1.53    0.40
   6  -9  -2   20.45    0.89
   6  -9  -2   18.68    0.88
  -6   9   2   18.58    1.01
  -5   9   2   22.18    1.08
  -4   9   2    0.26    0.25
  -3   9   2   -0.10    0.22
   2  -9  -2    6.62    0.42
  -2   9   2    6.26    0.44
   1  -9  -2    0.44    0.24
   0  -9  -2   18.38    1.01
   7 -10  -2    6.12    0.38
  -7  10   2    5.01    0.54
  -6  10   2   41.00    1.83
  -5  10   2   17.22    0.92
  -4  10   2    7.93    0.58
   1 -10   3    3.84    0.38
  -2  10  -3    0.61    0.26
   2 -10   3    0.67    0.21
  -3  10  -3    8.72    0.62
   3 -10   3    9.40    0.46
   3 -10   3    8.28    0.44
  -4  10  -3   12.03    0.75
  -5  10  -3   22.35    1.10
   5 -10   3   21.00    0.94
   5 -10   3   19.77    0.92
  -6  10  -3    0.34    0.37
   6 -10   3    0.29    0.20
  -7  10  -3    1.02    0.40
   7 -10   3    1.66    0.30
   8 -10   3    2.27    0.37
  -1  -9   3   10.96    0.78
   0  -9   3   41.40    1.91
  -1   9  -3   77.25    3.08
   1  -9   3   78.78    3.40
  -2   9  -3   99.39    3.84
   2  -9   3   93.23    4.16
   2  -9   3   99.13    4.17
  -3   9  -3    2.58    0.34
   3  -9   3    2.46    0.21
   3  -9   3    2.09    0.19
  -4   9  -3   48.44    1.97
   4  -9   3   47.24    2.01
   4  -9   3   43.83    2.00
  -5   9  -3    0.56    0.32
   5  -9   3    0.37    0.19
   5  -9   3    0.37    0.14
  -6   9  -3    1.60    0.39
   6  -9   3    1.86    0.29
  -7   9  -3    4.69    0.55
   7  -9   3    5.71    0.51
  -8   9  -3   19.00    1.12
   8  -9   3   21.71    1.13
   9  -9   3   33.07    1.65
  -2  -8   3  109.91    4.85
  -1  -8   3   30.10    1.47
   0   8  -3  118.27    4.68
   0   8  -3  122.99    4.68
   0  -8   3  122.00    5.22
   1  -8   3   25.56    1.22
   1  -8   3   27.69    1.24
   2  -8   3    0.49    0.14
   2  -8   3    0.55    0.16
   3  -8   3   47.87    1.98
   3  -8   3   43.28    1.98
   4  -8   3    2.79    0.25
   4  -8   3    3.00    0.25
   5  -8   3   80.44    3.36
   5  -8   3   74.13    3.33
  -6   8  -3  170.01    6.75
   6  -8   3  179.57    7.40
   6  -8   3  168.11    7.40
  -7   8  -3   25.53    1.28
   7  -8   3   26.91    1.30
  -8   8  -3   37.73    1.74
   8  -8   3   37.92    1.81
  -9   8  -3   77.76    3.30
   9  -8   3   77.99    3.51
  -4  -7   3    0.60    0.43
  -3  -7   3    0.89    0.39
  -2  -7   3   12.63    0.81
   1   7  -3    5.91    0.32
  -1  -7   3    5.56    0.49
   0  -7   3   28.57    1.26
   0  -7   3   24.67    1.22
   1  -7   3   17.99    0.82
   1  -7   3   15.96    0.80
   2  -7   3   94.49    3.85
   2  -7   3   85.38    3.84
   3  -7   3   46.98    2.17
   3  -7   3   53.53    2.18
   4  -7   3    0.94    0.19
   4  -7   3    0.66    0.14
   5  -7   3   41.26    1.92
   5  -7   3   45.47    1.94
   6  -7   3   43.93    2.06
   6  -7   3   48.73    2.09
  -7   7  -3    3.23    0.41
   7  -7   3    2.63    0.36
  -8   7  -3    0.70    0.34
   8  -7   3    0.63    0.32
  -9   7  -3    8.90    0.77
   9  -7   3    9.97    0.77
  10  -7   3   14.93    1.05
  -5  -6   3   11.65    0.95
  -4  -6   3   71.61    3.28
  -3  -6   3   72.64    3.27
   2   6  -3    4.75    0.26
  -2  -6   3    5.32    0.48
   1   6  -3    6.11    0.32
   1   6  -3    5.87    0.36
  -1  -6   3    6.28    0.47
   0  -6   3    3.95    0.32
   0  -6   3    5.03    0.37
   1  -6   3   12.97    0.63
   1  -6   3   12.70    0.62
   2  -6   3   23.15    1.00
   2  -6   3   21.16    0.99
   3  -6   3  128.41    5.23
   3  -6   3  116.97    5.22
   4  -6   3  110.45    4.44
   4  -6   3   96.27    4.42
   5  -6   3   65.41    2.96
   5  -6   3   70.73    2.98
  -6   6  -3    7.41    0.46
   6  -6   3    5.71    0.44
   6  -6   3    6.80    0.51
  -7   6  -3    6.47    0.57
  -7   6  -3    6.64    0.49
   7  -6   3    5.91    0.53
  -8   6  -3    9.35    0.70
   8  -6   3    9.48    0.70
  -9   6  -3    0.28    0.35
   9  -6   3    0.11    0.36
 -10   6  -3    2.43    0.45
  10  -6   3    2.71    0.52
  -5  -5   3    8.51    0.81
   4   5  -3   36.29    1.77
  -4  -5   3   38.53    1.82
   3   5  -3    1.11    0.11
   3   5  -3    0.99    0.25
  -3  -5   3    0.72    0.29
   2   5  -3   35.59    1.37
   2   5  -3   36.28    1.58
  -2  -5   3   31.30    1.59
  -2  -5   3   35.77    1.62
   1   5  -3   16.16    0.77
   1   5  -3   16.92    0.69
  -1  -5   3   15.75    0.80
  -1  -5   3   16.35    0.82
   0   5  -3  104.26    4.42
   0  -5   3  100.66    4.45
   0  -5   3  106.88    4.45
   1  -5   3  349.27   15.21
   1  -5   3  365.60   15.26
   2  -5   3  237.66   10.24
   3  -5   3   24.78    1.17
   3  -5   3   27.66    1.19
  -5   5  -3   10.86    0.59
   5  -5   3    9.84    0.58
   5  -5   3   11.27    0.62
  -6   5  -3    3.95    0.37
   6  -5   3    3.24    0.35
   6  -5   3    3.09    0.31
  -7   5  -3    4.06    0.41
  -7   5  -3    5.74    0.48
   7  -5   3    5.36    0.53
  -8   5  -3   66.00    3.07
  -8   5  -3   66.65    2.80
   8  -5   3   71.42    3.10
  -9   5  -3   41.26    1.84
   9  -5   3   41.21    2.03
 -10   5  -3   18.42    1.09
  10  -5   3   21.59    1.28
  -7  -4   3   10.23    0.98
  -6  -4   3    0.87    0.45
   5   4  -3    1.29    0.34
  -5  -4   3    0.79    0.38
   4   4  -3    5.98    0.51
   4   4  -3    6.03    0.30
  -4  -4   3    6.00    0.56
   3   4  -3  190.61    7.16
   3   4  -3  183.66    8.02
  -3  -4   3  188.40    8.05
   2   4  -3  436.66   18.66
   2   4  -3  460.43   16.73
  -2  -4   3  434.11   18.78
  -2  -4   3  408.92   18.41
   1   4  -3   64.84    2.79
   1   4  -3   66.84    2.50
  -1  -4   3   60.14    2.80
  -1  -4   3   66.17    2.81
   0   4  -3  151.35    6.40
   0  -4   3  150.12    6.41
  -1   4  -3  573.12   23.83
   1  -4   3  573.81   23.97
   1  -4   3  538.30   23.90
  -2   4  -3   10.10    0.48
   2  -4   3   10.72    0.51
   2  -4   3    9.96    0.50
  -4   4  -3    1.50    0.21
   4  -4   3    1.86    0.21
   4  -4   3    1.55    0.22
  -5   4  -3   75.20    3.19
   5  -4   3   66.76    3.17
   5  -4   3   75.99    3.19
  -6   4  -3  156.89    6.64
   6  -4   3  151.35    6.64
  -7   4  -3    9.64    0.66
  -7   4  -3   10.40    0.64
   7  -4   3    9.44    0.69
  -8   4  -3   36.59    1.64
  -8   4  -3   37.75    1.83
   8  -4   3   37.69    1.84
  -9   4  -3  106.06    4.32
  -9   4  -3  105.12    4.79
   9  -4   3  111.96    4.81
 -10   4  -3    4.00    0.49
  10  -4   3    4.63    0.63
   7   3  -3   28.33    1.55
  -7  -3   3   30.63    1.62
   6   3  -3   36.24    1.78
  -6  -3   3   34.79    1.45
  -6  -3   3   38.52    1.84
   5   3  -3   26.12    1.36
  -5  -3   3   28.67    1.40
  -5  -3   3   27.18    1.11
   4   3  -3   17.43    0.75
   4   3  -3   17.84    0.94
  -4  -3   3   18.96    0.76
  -4  -3   3   17.88    0.96
   3   3  -3   18.85    0.95
   3   3  -3   20.25    0.80
  -3  -3   3   18.92    0.98
   2   3  -3   92.11    3.40
   2   3  -3   89.05    3.81
  -2  -3   3   82.11    3.81
  -2  -3   3   89.82    3.82
   1   3  -3    2.69    0.20
   1   3  -3    2.76    0.24
  -1  -3   3    2.64    0.24
  -1  -3   3    2.82    0.26
   0   3  -3   28.44    1.18
   0  -3   3   26.11    1.18
   0  -3   3   25.68    1.18
  -1   3  -3   28.63    1.25
   1  -3   3   28.09    1.25
  -2   3  -3   76.02    3.19
   2  -3   3   77.30    3.18
   2  -3   3   69.03    3.18
  -3   3  -3   80.55    3.53
   3  -3   3   78.33    3.52
   3  -3   3   85.73    3.52
  -4   3  -3   18.59    0.89
   4  -3   3   16.91    0.88
   4  -3   3   18.61    0.88
  -5   3  -3  251.38   10.74
   5  -3   3  252.07   10.73
  -6   3  -3  139.50    5.86
   6  -3   3  130.70    5.85
  -7   3  -3    8.73    0.67
  -7   3  -3    9.10    0.58
   7  -3   3    9.11    0.69
  -8   3  -3    1.71    0.34
  -8   3  -3    2.03    0.41
   8  -3   3    1.91    0.43
  -9   3  -3    6.47    0.55
  -9   3  -3    8.01    0.76
   9  -3   3    7.11    0.70
  10  -3   3    7.07    0.79
   8   2  -3    4.97    0.63
  -8  -2   3    4.39    0.64
   7   2  -3   12.86    0.91
  -7  -2   3   11.46    0.61
  -7  -2   3   14.98    0.97
   6   2  -3   26.28    1.32
  -6  -2   3   24.91    1.33
  -6  -2   3   24.50    1.07
   5   2  -3   14.26    0.83
   5   2  -3   13.85    0.64
  -5  -2   3   14.98    0.67
  -5  -2   3   14.28    0.84
   4   2  -3  291.98   11.50
   4   2  -3  302.56   12.72
  -4  -2   3  292.93   12.72
  -4  -2   3  307.83   11.54
   3   2  -3  377.47   16.44
   3   2  -3  389.69   14.73
  -3  -2   3  389.57   14.74
  -3  -2   3  370.44   16.44
   2   2  -3   36.14    1.39
   2   2  -3   36.72    1.58
  -2  -2   3   35.58    1.58
  -2  -2   3   32.63    1.57
  -2  -2   3   35.42    1.39
   1   2  -3  113.14    4.35
   1   2  -3  118.39    4.84
  -1  -2   3  110.28    4.84
  -1  -2   3  112.06    4.84
   0   2  -3  148.77    6.21
   0  -2   3  139.33    6.08
   0  -2   3  142.27    6.08
  -1   2  -3    1.27    0.15
   1  -2   3    1.20    0.13
   1  -2   3    1.16    0.14
  -2   2  -3   13.89    0.69
   2  -2   3   14.26    0.67
   2  -2   3   13.82    0.67
  -3   2  -3   37.54    1.57
   3  -2   3   31.49    1.55
   3  -2   3   34.46    1.55
  -4   2  -3   98.76    4.30
   4  -2   3   99.60    4.29
  -5   2  -3  108.22    4.67
   5  -2   3  106.43    4.66
  -6   2  -3    3.62    0.40
   6  -2   3    2.96    0.37
  -7   2  -3   27.29    1.24
  -7   2  -3   27.84    1.44
   7  -2   3   28.70    1.44
  -8   2  -3   28.85    1.55
  -8   2  -3   28.94    1.33
   8  -2   3   30.23    1.55
  -9   2  -3    4.83    0.47
  -9   2  -3    5.09    0.64
   9  -2   3    3.90    0.58
   9   1  -3    0.65    0.51
  -9  -1   3    0.87    0.54
   8   1  -3   87.15    3.86
  -8  -1   3   76.87    3.34
  -8  -1   3   91.51    3.89
   7   1  -3  181.51    7.96
  -7  -1   3  193.24    7.98
  -7  -1   3  176.52    7.08
   6   1  -3  109.43    4.81
  -6  -1   3  108.01    4.26
  -6  -1   3  111.64    4.82
   5   1  -3   66.75    2.56
   5   1  -3   65.64    2.91
  -5  -1   3   63.51    2.90
  -5  -1   3   64.47    2.56
   4   1  -3  273.64   10.88
   4   1  -3  290.00   11.97
  -4  -1   3  287.54   10.82
  -4  -1   3  273.77   11.96
   3   1  -3   83.39    3.23
   3   1  -3   82.27    3.62
  -3  -1   3   82.76    3.61
  -3  -1   3   85.53    3.24
   2   1  -3  149.22    6.28
   2   1  -3  147.00    5.71
  -2  -1   3  139.04    6.27
  -2  -1   3  146.69    6.27
  -2  -1   3  154.13    5.65
   1   1  -3   62.62    2.46
   1   1  -3   62.52    2.73
   1   1  -3   61.27    2.73
  -1  -1   3   66.06    2.46
  -1  -1   3   60.61    2.73
  -1  -1   3   64.04    2.73
   0   1  -3  240.91   10.04
   0   1  -3  217.20    9.84
   0   1  -3  240.36    9.00
   0  -1   3  231.26    9.91
  -1   1  -3  903.52   37.88
  -1   1  -3  887.95   37.77
   1  -1   3  851.98   37.85
   1  -1   3  913.70   37.80
  -2   1  -3  298.66   13.12
   2  -1   3  323.20   13.26
   2  -1   3  299.36   13.10
  -3   1  -3  152.93    6.63
   3  -1   3  156.64    6.62
  -4   1  -3  404.24   17.10
   4  -1   3  401.39   17.24
  -5   1  -3   64.14    2.85
   5  -1   3   62.84    2.83
  -6   1  -3    1.10    0.33
  -6   1  -3    0.82    0.22
   6  -1   3    1.01    0.33
  -7   1  -3   24.81    1.09
  -7   1  -3   23.79    1.32
   7  -1   3   23.18    1.28
  -8   1  -3   13.46    0.78
  -8   1  -3   16.44    1.07
   8  -1   3   15.30    1.00
  -9   1  -3   35.11    1.89
   9  -1   3   35.20    1.86
   9   0  -3    4.62    0.62
  -9   0   3    4.54    0.63
  -9   0   3    4.76    0.47
   8   0  -3   13.28    0.95
  -8   0   3   12.79    0.71
  -8   0   3   12.49    0.93
   7   0  -3   74.82    3.33
  -7   0   3   74.81    3.32
  -7   0   3   71.11    2.93
   6   0  -3    4.43    0.32
   6   0  -3    3.52    0.41
  -6   0   3    3.82    0.32
  -6   0   3    3.70    0.41
   5   0  -3   11.33    0.57
   5   0  -3   12.17    0.68
  -5   0   3   11.06    0.68
  -5   0   3   12.43    0.59
   4   0  -3   67.21    2.64
   4   0  -3   64.77    2.96
  -4   0   3   68.69    2.96
  -4   0   3   69.10    2.65
   3   0  -3  156.63    6.04
   3   0  -3  155.48    6.72
  -3   0   3  158.09    6.04
  -3   0   3  159.84    6.71
   2   0  -3  340.22   14.36
   2   0  -3  360.55   13.00
   2   0  -3  327.44   14.30
  -2   0   3  327.40   14.37
  -2   0   3  308.38   14.36
  -2   0   3  355.30   13.04
   1   0  -3   31.48    1.38
   1   0  -3   30.74    1.37
  -1   0   3   29.70    1.38
  -1   0   3   32.15    1.38
  -1   0   3   32.52    1.24
   0   0  -3  105.12    4.55
   0   0  -3  102.85    3.99
   0   0  -3   98.25    4.48
   0   0   3  106.03    4.04
   0   0   3  106.51    4.50
   0   0   3  105.78    4.44
  -1   0  -3  734.60   32.74
  -1   0  -3  815.86   29.50
   1   0   3  758.86   32.78
  -2   0  -3  167.00    7.14
  -2   0  -3  160.67    7.13
   2   0   3  175.22    7.25
  -3   0  -3   73.06    3.24
   3   0   3   75.08    3.23
  -4   0  -3    8.12    0.56
   4   0   3    7.20    0.51
  -5   0  -3  143.74    5.49
  -5   0  -3  140.27    6.17
   5   0   3  142.85    6.15
  -6   0  -3   22.20    0.99
  -6   0  -3   22.44    1.22
   6   0   3   22.39    1.18
  -7   0  -3    1.11    0.42
  -7   0  -3    1.18    0.24
   7   0   3    1.95    0.43
  -8   0  -3   46.96    2.30
   8   0   3   44.00    2.23
   9  -1  -3   24.72    1.38
  -9   1   3   23.01    1.15
  -9   1   3   23.44    1.38
   8  -1  -3   27.43    1.44
  -8   1   3   27.46    1.43
  -8   1   3   25.95    1.22
   7  -1  -3   48.23    2.24
  -7   1   3   47.24    1.97
  -7   1   3   47.87    2.22
   6  -1  -3    5.25    0.49
   6  -1  -3    5.44    0.40
  -6   1   3    5.37    0.47
  -6   1   3    5.82    0.44
   5  -1  -3    1.38    0.27
   5  -1  -3    1.35    0.21
  -5   1   3    2.03    0.27
  -5   1   3    1.54    0.24
   4  -1  -3   11.78    0.63
   4  -1  -3   11.45    0.55
  -4   1   3   11.40    0.61
  -4   1   3   11.40    0.57
   3  -1  -3   46.12    2.05
   3  -1  -3   43.80    2.04
  -3   1   3   48.30    2.05
  -3   1   3   49.01    1.86
   2  -1  -3  799.78   34.65
   2  -1  -3  798.68   34.56
  -2   1   3  833.17   31.28
  -2   1   3  826.02   34.60
   1  -1  -3   25.30    1.13
   1  -1  -3   26.19    1.13
  -1   1   3   25.19    1.12
  -1   1   3   23.66    1.13
  -1   1   3   25.87    1.02
   0  -1  -3    3.27    0.23
   0  -1  -3    3.06    0.21
   0  -1  -3    3.35    0.27
   0   1   3    3.68    0.21
   0   1   3    3.07    0.23
  -1  -1  -3    0.76    0.13
  -1  -1  -3    0.73    0.10
   1   1   3    0.53    0.13
  -2  -1  -3   48.29    1.79
  -2  -1  -3   46.57    2.06
  -2  -1  -3   42.96    2.03
   2   1   3   46.60    2.04
  -3  -1  -3    9.56    0.58
   3   1   3    9.22    0.55
  -4  -1  -3   47.57    2.15
   4   1   3   45.74    2.11
  -5  -1  -3    6.56    0.37
  -5  -1  -3    7.38    0.62
   5   1   3    6.35    0.55
  -6  -1  -3   83.45    3.30
  -6  -1  -3   89.26    3.84
   6   1   3   82.08    3.78
  -7  -1  -3    7.91    0.76
   7   1   3    6.88    0.65
  -8  -1  -3   -0.13    0.49
   8   1   3    0.00    0.43
  10  -2  -3    2.73    0.57
 -10   2   3    2.60    0.55
 -10   2   3    2.28    0.42
   9  -2  -3   22.00    1.26
  -9   2   3   21.22    1.23
  -9   2   3   19.83    1.05
   8  -2  -3   29.59    1.50
  -8   2   3   28.59    1.32
  -8   2   3   28.43    1.47
   7  -2  -3    0.15    0.30
  -7   2   3    0.05    0.25
  -7   2   3    0.58    0.25
   6  -2  -3    4.99    0.40
   6  -2  -3    4.78    0.45
  -6   2   3    5.78    0.44
  -6   2   3    4.56    0.42
   5  -2  -3    8.12    0.51
   5  -2  -3    7.96    0.46
  -5   2   3    7.51    0.48
   4  -2  -3  286.88   12.59
   4  -2  -3  305.22   12.84
   4  -2  -3  305.31   11.47
  -4   2   3  291.32   11.49
  -4   2   3  297.09   12.68
   3  -2  -3  362.62   15.61
   3  -2  -3  364.61   15.59
  -3   2   3  367.43   14.29
  -3   2   3  368.74   15.66
   2  -2  -3   12.77    0.63
   2  -2  -3   13.79    0.60
   2  -2  -3   12.89    0.62
  -2   2   3   13.84    0.62
  -2   2   3   14.06    0.60
   1  -2  -3   72.75    2.85
   1  -2  -3   73.89    3.16
  -1   2   3   72.81    2.85
  -1   2   3   74.95    3.14
   0  -2  -3  134.30    5.92
   0  -2  -3  141.14    5.38
   0  -2  -3  140.05    5.94
   0   2   3  142.28    5.41
   0   2   3  139.28    5.97
  -1  -2  -3   29.56    1.33
  -1  -2  -3   25.87    1.31
  -1  -2  -3   31.31    1.15
   1   2   3   30.16    1.31
  -2  -2  -3   19.20    0.71
  -2  -2  -3   15.83    0.86
   2   2   3   18.08    0.87
  -3  -2  -3   60.93    2.25
  -3  -2  -3   56.89    2.62
   3   2   3   57.40    2.59
  -4  -2  -3   76.17    2.92
  -4  -2  -3   77.62    2.92
  -4  -2  -3   73.45    3.39
   4   2   3   77.07    3.36
  -5  -2  -3   32.04    1.57
  -5  -2  -3   30.12    1.20
  -5  -2  -3   30.74    1.20
   5   2   3   29.82    1.50
  -6  -2  -3    0.24    0.40
   6   2   3    0.29    0.33
  -7  -2  -3   67.48    3.11
   7   2   3   62.51    3.00
  10  -3  -3    2.28    0.52
 -10   3   3    1.45    0.46
 -10   3   3    1.61    0.40
   9  -3  -3   14.42    0.96
  -9   3   3   13.72    0.92
  -9   3   3   13.29    0.82
   8  -3  -3   57.02    2.59
  -8   3   3   54.08    2.32
  -8   3   3   56.26    2.55
   7  -3  -3  318.95   13.15
  -7   3   3  296.25   11.86
  -7   3   3  309.31   13.12
   6  -3  -3   99.47    4.36
  -6   3   3  101.16    3.95
  -6   3   3   99.83    4.34
   5  -3  -3   66.65    2.57
   5  -3  -3   66.63    2.83
   5  -3  -3   59.24    2.81
  -5   3   3   64.41    2.57
  -5   3   3   64.79    2.80
   4  -3  -3  496.50   22.30
   4  -3  -3  520.15   22.37
   4  -3  -3  540.63   20.29
  -4   3   3  528.35   20.21
  -4   3   3  526.90   22.21
   3  -3  -3  169.38    6.65
   3  -3  -3  174.69    7.34
  -3   3   3  173.34    7.32
  -3   3   3  173.63    6.65
   2  -3  -3   18.82    0.84
   2  -3  -3   18.60    0.84
   2  -3  -3   18.73    0.80
  -2   3   3   18.25    0.82
  -2   3   3   19.42    0.80
   1  -3  -3   74.01    3.06
   1  -3  -3   70.27    2.76
   1  -3  -3   67.15    3.04
  -1   3   3   72.63    2.76
  -1   3   3   71.55    3.03
   0  -3  -3   47.58    1.86
   0  -3  -3   48.34    2.09
   0   3   3   46.10    2.06
   0   3   3   48.24    1.85
  -1  -3  -3  271.82   10.23
  -1  -3  -3  260.83   11.34
  -1  -3  -3  272.95   11.52
   1   3   3  263.57   11.32
  -2  -3  -3   34.20    1.54
  -2  -3  -3   29.68    1.50
   2   3   3   34.78    1.50
  -3  -3  -3   48.40    2.22
   3   3   3   48.07    2.17
  -4  -3  -3  154.05    6.49
   4   3   3  144.22    6.43
  -5  -3  -3   95.73    4.22
   5   3   3   91.91    4.14
  -6  -3  -3    2.44    0.57
  10  -4  -3   12.02    0.98
 -10   4   3   11.65    0.83
   9  -4  -3    0.07    0.33
  -9   4   3    0.40    0.34
  -9   4   3    0.14    0.30
   8  -4  -3   49.36    2.26
  -8   4   3   47.96    2.23
  -8   4   3   47.93    2.06
   7  -4  -3   78.33    3.53
  -7   4   3   82.30    3.23
  -7   4   3   79.34    3.50
   6  -4  -3   36.51    1.78
   6  -4  -3   41.64    1.81
  -6   4   3   40.20    1.78
  -6   4   3   39.73    1.67
   5  -4  -3    5.57    0.38
   5  -4  -3    5.89    0.44
   5  -4  -3    5.95    0.41
  -5   4   3    6.08    0.45
  -5   4   3    5.71    0.36
   4  -4  -3   31.29    1.40
   4  -4  -3   31.61    1.32
   4  -4  -3   33.37    1.41
  -4   4   3   31.22    1.32
  -4   4   3   30.10    1.37
   3  -4  -3  290.10   12.06
   3  -4  -3  287.58   10.82
   3  -4  -3  271.12   12.00
  -3   4   3  280.87   10.81
   2  -4  -3   74.05    2.99
   2  -4  -3   71.02    3.27
  -2   4   3   85.52    3.00
   1  -4  -3    0.18    0.12
   1  -4  -3    0.17    0.10
   1  -4  -3    0.13    0.13
  -1   4   3    0.06    0.11
   0  -4  -3   93.19    4.18
   0  -4  -3  101.47    4.20
   0   4   3  100.58    3.74
   0   4   3   94.43    4.15
  -1  -4  -3  287.59   11.74
  -1  -4  -3  260.40   11.72
   1   4   3  279.49   11.69
  -2  -4  -3   74.21    3.25
  -2  -4  -3   68.40    3.23
   2   4   3   77.58    3.20
  -3  -4  -3    8.90    0.68
   3   4   3   10.04    0.60
  -4  -4  -3   27.48    1.43
   4   4   3   26.31    1.33
  -5  -4  -3    2.33    0.52
  -6  -4  -3   25.02    1.50
  10  -5  -3    1.17    0.47
 -10   5   3    0.99    0.41
   9  -5  -3   47.90    2.18
  -9   5   3   42.94    1.98
   8  -5  -3   41.71    2.05
  -8   5   3   46.02    2.03
  -8   5   3   44.28    1.92
   7  -5  -3    3.33    0.36
  -7   5   3    4.06    0.36
  -7   5   3    4.79    0.45
   6  -5  -3    0.30    0.20
   6  -5  -3    0.11    0.16
  -6   5   3    0.20    0.26
  -6   5   3    0.15    0.14
   5  -5  -3    6.40    0.39
   5  -5  -3    6.11    0.41
  -5   5   3    5.78    0.47
   4  -5  -3   19.87    0.91
   4  -5  -3   20.59    0.92
  -4   5   3   19.46    0.91
   3  -5  -3   43.58    1.93
   3  -5  -3   46.09    1.94
  -3   5   3   44.86    1.81
   2  -5  -3   60.31    2.63
   2  -5  -3   61.85    2.64
  -2   5   3   61.73    2.42
   1  -5  -3    8.55    0.46
   1  -5  -3    8.61    0.47
  -1   5   3    8.19    0.42
   0  -5  -3   24.62    1.20
   0  -5  -3   27.53    1.23
   0   5   3   26.22    1.04
  -1  -5  -3    2.10    0.26
  -1  -5  -3    2.75    0.32
   1   5   3    2.64    0.23
  -2  -5  -3    4.79    0.46
   2   5   3    4.90    0.37
  -3  -5  -3    0.02    0.32
  -4  -5  -3   15.20    1.04
  -5  -5  -3   10.98    0.96
  10  -6  -3    5.77    0.60
 -10   6   3    4.67    0.56
   9  -6  -3   43.40    2.07
  -9   6   3   43.37    1.94
   8  -6  -3   30.95    1.49
  -8   6   3   29.89    1.42
   7  -6  -3    1.67    0.28
  -7   6   3    2.06    0.37
   6  -6  -3    6.69    0.46
   6  -6  -3    6.57    0.43
  -6   6   3    6.96    0.56
   5  -6  -3    0.70    0.16
   5  -6  -3    0.54    0.17
  -5   6   3    0.76    0.26
   4  -6  -3  135.69    5.99
   4  -6  -3  145.40    5.99
  -4   6   3  141.97    5.49
   3  -6  -3   79.06    3.27
   3  -6  -3   74.66    3.27
  -3   6   3   75.44    3.01
   2  -6  -3    0.12    0.12
   2  -6  -3    0.08    0.13
  -2   6   3    0.16    0.16
   1  -6  -3  185.00    8.22
   1  -6  -3  200.57    8.23
  -1   6   3  193.88    7.40
   0  -6  -3   57.77    2.50
   0  -6  -3   52.52    2.48
   0   6   3   58.15    2.18
  -1  -6  -3    4.70    0.43
  -2  -6  -3    4.76    0.49
  -3  -6  -3    1.55    0.43
  -4  -6  -3   17.01    1.14
  10  -7  -3    3.96    0.52
   9  -7  -3    8.13    0.68
  -9   7   3    6.76    0.63
   8  -7  -3   23.66    1.22
  -8   7   3   24.70    1.23
   7  -7  -3   78.11    3.45
  -7   7   3   79.63    3.22
   6  -7  -3   22.10    1.05
   6  -7  -3   21.35    1.03
  -6   7   3   23.06    1.09
   5  -7  -3   30.34    1.35
   5  -7  -3   30.01    1.36
  -5   7   3   30.90    1.35
   4  -7  -3  202.96    9.00
   4  -7  -3  223.30    9.00
  -4   7   3  211.71    8.21
   3  -7  -3   59.29    2.45
   3  -7  -3   52.91    2.46
  -3   7   3   58.99    2.30
   2  -7  -3    0.16    0.15
   2  -7  -3    0.24    0.14
  -2   7   3    0.14    0.18
   1  -7  -3   67.76    2.80
   1  -7  -3   60.27    2.78
  -1   7   3   62.99    2.49
   0  -7  -3    3.19    0.36
   0   7   3    2.98    0.19
  -1  -7  -3   43.95    2.06
  -2  -7  -3   26.06    1.39
   9  -8  -3    0.53    0.33
   8  -8  -3   15.64    0.88
  -8   8   3   15.80    0.96
   7  -8  -3   69.34    2.96
  -7   8   3   64.70    2.79
   6  -8  -3   17.95    0.84
   6  -8  -3   16.34    0.82
  -6   8   3   17.92    0.94
   5  -8  -3    2.83    0.25
   5  -8  -3    2.62    0.23
  -5   8   3    2.88    0.38
   4  -8  -3    4.98    0.28
   4  -8  -3    4.08    0.28
  -4   8   3    5.14    0.45
   3  -8  -3    0.23    0.12
   3  -8  -3    0.09    0.13
  -3   8   3   -0.05    0.21
   2  -8  -3   21.89    1.01
   2  -8  -3   20.91    0.99
  -2   8   3   21.65    0.95
   1  -8  -3    3.05    0.33
  -1   8   3    2.59    0.23
   0  -8  -3   16.83    0.94
  -1  -8  -3   44.47    2.11
   9  -9  -3    1.86    0.36
   8  -9  -3   10.89    0.68
  -8   9   3   10.39    0.79
   7  -9  -3    1.08    0.23
  -7   9   3    1.31    0.39
   6  -9  -3    5.51    0.36
   6  -9  -3    4.99    0.33
  -6   9   3    5.54    0.50
  -5   9   3   15.83    0.86
  -4   9   3    1.65    0.31
   3  -9  -3    3.05    0.25
   3  -9  -3    3.30    0.24
  -3   9   3    2.86    0.32
   2  -9  -3    2.13    0.25
   1  -9  -3   24.87    1.23
   7 -10  -3    0.06    0.18
  -7  10   3   -0.22    0.34
  -6  10   3    5.12    0.51
  -5  10   3    0.50    0.32
  -4  10   3   16.33    0.87
   1 -10   4   52.37    2.35
  -2  10  -4   23.91    1.14
   2 -10   4   24.73    1.15
  -3  10  -4    9.38    0.66
   3 -10   4    9.14    0.51
  -4  10  -4    0.85    0.32
   4 -10   4    1.01    0.19
  -5  10  -4    2.53    0.42
   5 -10   4    2.53    0.27
  -6  10  -4   12.81    0.84
   6 -10   4   10.22    0.65
  -7  10  -4    3.92    0.52
   7 -10   4    6.60    0.55
   8 -10   4    6.14    0.61
  -1  -9   4   10.93    0.78
   0  -9   4   29.96    1.44
   1  -9   4   52.44    2.34
   2  -9   4   19.13    0.93
   3  -9   4    9.72    0.54
   3  -9   4   11.14    0.56
   4  -9   4   -0.10    0.13
   4  -9   4    0.15    0.18
   5  -9   4  100.00    4.33
   5  -9   4  101.59    4.36
   6  -9   4   88.03    3.85
  -7   9  -4    1.09    0.41
   7  -9   4    0.75    0.31
  -8   9  -4   15.35    1.02
   8  -9   4   18.67    1.02
   9  -9   4   37.04    1.85
  -2  -8   4   12.86    0.88
  -1  -8   4    4.95    0.45
   0   8  -4    0.62    0.17
   0  -8   4    0.49    0.26
   1  -8   4    2.95    0.27
   1  -8   4    3.18    0.31
   2  -8   4   78.71    3.54
   2  -8   4   85.82    3.55
   3  -8   4  112.64    4.64
   3  -8   4  103.77    4.63
   4  -8   4   -0.03    0.13
   4  -8   4    0.04    0.18
   5  -8   4  142.37    5.87
   5  -8   4  130.73    5.84
   6  -8   4   73.45    3.25
   7  -8   4    8.52    0.65
  -8   8  -4    7.07    0.62
   8  -8   4    7.64    0.66
   9  -8   4   12.20    0.86
  -4  -7   4    3.06    0.54
  -3  -7   4   16.19    1.00
   2   7  -4   16.83    0.71
  -2  -7   4   17.61    0.97
   1   7  -4    0.82    0.16
  -1  -7   4    0.82    0.28
   0   7  -4   62.14    2.34
   0  -7   4   54.81    2.58
   0  -7   4   60.07    2.61
   1  -7   4    9.05    0.51
   1  -7   4    8.34    0.48
   2  -7   4   64.71    2.93
   2  -7   4   71.25    2.94
   3  -7   4   38.35    1.79
   3  -7   4   43.07    1.81
   4  -7   4    1.73    0.24
   4  -7   4    1.64    0.19
   5  -7   4   23.50    1.08
   5  -7   4   20.41    1.03
   6  -7   4    5.76    0.51
   7  -7   4   14.95    0.86
  -8   7  -4    4.28    0.50
   8  -7   4    3.59    0.45
  -9   7  -4    2.58    0.45
   9  -7   4    2.23    0.44
  10  -7   4   38.44    1.96
  -5  -6   4    0.91    0.48
  -4  -6   4   25.75    1.40
   3   6  -4    2.08    0.16
  -3  -6   4    1.55    0.35
   2   6  -4    9.68    0.57
   2   6  -4    8.91    0.44
  -2  -6   4    9.51    0.64
   1   6  -4    6.89    0.37
   1   6  -4    7.01    0.42
  -1  -6   4    6.09    0.44
  -1  -6   4    7.64    0.50
   0  -6   4  164.04    6.70
   0  -6   4  149.24    6.68
   1  -6   4  198.37    8.26
   1  -6   4  190.11    8.25
   2  -6   4   32.11    1.38
   2  -6   4   29.17    1.36
   3  -6   4    1.39    0.20
   3  -6   4    1.21    0.17
   4  -6   4   77.68    3.18
   4  -6   4   68.47    3.16
  -5   6  -4   14.12    0.72
   5  -6   4   14.87    0.78
  -6   6  -4    0.02    0.17
   6  -6   4   -0.09    0.16
   6  -6   4   -0.19    0.22
  -7   6  -4    3.25    0.35
   7  -6   4    2.65    0.37
  -8   6  -4   20.69    1.12
   8  -6   4   22.87    1.21
  -9   6  -4   20.40    1.16
   9  -6   4   24.93    1.32
  10  -6   4    3.56    0.60
  -6  -5   4    4.12    0.64
  -5  -5   4   43.03    2.12
   4   5  -4    9.71    0.43
   4   5  -4    9.90    0.66
  -4  -5   4    9.24    0.73
   3   5  -4  154.74    5.81
   3   5  -4  149.96    6.53
  -3  -5   4  150.35    6.56
   2   5  -4  293.84   12.20
   2   5  -4  299.88   11.00
  -2  -5   4  295.03   12.22
  -2  -5   4  259.35   12.20
   1   5  -4   12.27    0.53
   1   5  -4   10.91    0.59
  -1  -5   4   11.01    0.61
  -1  -5   4   12.22    0.64
   0   5  -4  137.84    5.87
   0  -5   4  138.24    5.89
  -1   5  -4  300.44   12.95
   1  -5   4  291.97   13.01
   1  -5   4  321.35   13.03
  -2   5  -4    6.52    0.34
   2  -5   4    7.38    0.40
   2  -5   4    6.34    0.38
  -3   5  -4   80.84    3.50
   3  -5   4   76.53    3.52
   3  -5   4   88.08    3.54
   4  -5   4    0.35    0.15
   4  -5   4    0.61    0.20
  -5   5  -4  138.84    5.73
   5  -5   4  122.27    5.70
   5  -5   4  137.29    5.72
  -6   5  -4  176.31    7.12
   6  -5   4  144.59    7.08
   6  -5   4  174.76    7.12
  -7   5  -4    1.77    0.31
   7  -5   4    1.36    0.34
  -8   5  -4   51.82    2.28
  -8   5  -4   52.77    2.50
   8  -5   4   57.28    2.54
  -9   5  -4   74.24    3.29
   9  -5   4   86.89    3.69
  10  -5   4    8.22    0.79
  -7  -4   4    6.64    0.76
   6   4  -4   61.90    2.99
  -6  -4   4   68.01    3.04
   5   4  -4   28.35    1.17
   5   4  -4   28.65    1.46
  -5  -4   4   30.55    1.51
   4   4  -4   11.17    0.69
   4   4  -4   11.55    0.52
  -4  -4   4   11.12    0.74
   3   4  -4  231.50    8.81
   3   4  -4  227.65    9.84
  -3  -4   4  232.62    9.86
   2   4  -4   98.07    3.55
   2   4  -4   94.46    3.97
  -2  -4   4   81.23    3.97
  -2  -4   4   93.03    3.98
   1   4  -4   16.57    0.79
   1   4  -4   17.06    0.70
  -1  -4   4   16.25    0.81
  -1  -4   4   16.11    0.80
   0   4  -4  139.06    5.79
   0  -4   4  135.79    5.80
   0  -4   4  132.94    5.80
  -1   4  -4  182.84    8.02
   1  -4   4  193.54    8.09
  -2   4  -4  216.02    9.32
   2  -4   4  224.14    9.44
   3  -4   4   55.30    2.64
   3  -4   4   66.23    2.66
  -4   4  -4   14.17    0.71
   4  -4   4   12.06    0.69
   4  -4   4   13.49    0.70
  -5   4  -4  313.59   12.36
   5  -4   4  299.19   12.34
   5  -4   4  257.35   12.33
  -6   4  -4  113.47    4.98
   6  -4   4  114.91    4.98
  -7   4  -4    6.42    0.58
   7  -4   4    7.35    0.63
  -8   4  -4   21.74    1.18
  -8   4  -4   19.83    1.05
   8  -4   4   21.73    1.20
  -9   4  -4    1.43    0.42
  -9   4  -4    1.46    0.37
   9  -4   4    0.87    0.47
  10  -4   4   11.10    1.03
   7   3  -4    1.00    0.40
  -7  -3   4    0.52    0.47
   6   3  -4    1.48    0.37
  -6  -3   4    1.34    0.45
  -6  -3   4    1.51    0.20
   5   3  -4   98.15    4.35
   5   3  -4   95.70    3.83
  -5  -3   4  101.24    4.37
  -5  -3   4  100.51    3.83
   4   3  -4   14.76    0.64
   4   3  -4   15.01    0.81
  -4  -3   4   13.56    0.82
  -4  -3   4   14.66    0.65
   3   3  -4   98.06    3.79
   3   3  -4   98.53    4.26
  -3  -3   4   95.29    4.26
  -3  -3   4  100.38    3.79
   2   3  -4    3.81    0.31
   2   3  -4    3.83    0.25
  -2  -3   4    3.55    0.34
  -2  -3   4    3.32    0.30
   1   3  -4   18.39    0.87
   1   3  -4   18.25    0.77
  -1  -3   4   18.30    0.87
  -1  -3   4   17.83    0.87
   0   3  -4   47.57    2.05
   0  -3   4   47.56    2.05
   0  -3   4   46.18    2.05
  -1   3  -4   44.84    1.83
   1  -3   4   38.87    1.83
   1  -3   4   42.02    1.83
  -2   3  -4   19.05    0.88
   2  -3   4   17.27    0.87
   2  -3   4   19.41    0.88
  -3   3  -4  225.01    9.41
   3  -3   4  205.39    9.39
   3  -3   4  232.73    9.56
  -4   3  -4    1.06    0.22
   4  -3   4    0.70    0.17
   4  -3   4    0.87    0.21
  -5   3  -4   42.65    1.95
   5  -3   4   42.17    1.95
  -6   3  -4    0.29    0.25
   6  -3   4    0.04    0.26
  -7   3  -4   25.21    1.33
   7  -3   4   25.45    1.33
  -8   3  -4   17.78    0.95
  -8   3  -4   19.87    1.14
   8  -3   4   18.38    1.14
  -9   3  -4   26.13    1.31
  -9   3  -4   29.52    1.54
   9  -3   4   27.08    1.53
   8   2  -4   27.05    1.53
  -8  -2   4   28.16    1.58
   7   2  -4  165.75    7.22
  -7  -2   4  178.52    7.26
  -7  -2   4  153.70    6.39
   6   2  -4   36.13    1.56
   6   2  -4   39.66    1.86
  -6  -2   4   38.43    1.87
  -6  -2   4   39.92    1.59
   5   2  -4    4.93    0.33
   5   2  -4    4.90    0.48
  -5  -2   4    4.12    0.43
  -5  -2   4    4.66    0.37
   4   2  -4  194.67    7.34
   4   2  -4  182.98    8.20
  -4  -2   4  189.07    8.20
  -4  -2   4  198.86    7.35
   3   2  -4    6.70    0.35
   3   2  -4    6.29    0.44
  -3  -2   4    6.46    0.45
  -3  -2   4    6.25    0.36
   2   2  -4   19.58    0.78
   2   2  -4   18.85    0.89
  -2  -2   4   16.95    0.88
  -2  -2   4   18.18    0.79
  -2  -2   4   19.60    0.90
   1   2  -4    0.45    0.15
   1   2  -4    0.18    0.11
  -1  -2   4    0.36    0.14
  -1  -2   4    0.65    0.14
  -1  -2   4    0.45    0.12
   0   2  -4  430.85   16.18
   0   2  -4  431.30   17.94
   0  -2   4  389.84   17.84
   0  -2   4  419.27   17.93
  -1   2  -4  523.61   21.42
   1  -2   4  460.43   21.31
   1  -2   4  510.65   21.37
   2  -2   4   42.79    1.75
   2  -2   4   36.01    1.75
  -3   2  -4   22.57    1.10
   3  -2   4   23.85    1.13
   3  -2   4   22.98    1.09
  -4   2  -4  381.71   16.17
   4  -2   4  370.42   16.12
  -5   2  -4   52.94    2.44
   5  -2   4   54.87    2.44
  -6   2  -4    5.33    0.54
   6  -2   4    5.29    0.53
  -7   2  -4   14.63    0.94
  -7   2  -4   14.42    0.77
   7  -2   4   15.49    0.94
  -8   2  -4   10.95    0.86
  -8   2  -4   10.26    0.69
   8  -2   4   10.68    0.87
  -9   2  -4   13.57    0.83
  -9   2  -4   14.46    1.09
   9  -2   4   16.19    1.10
   9   1  -4    3.88    0.63
  -9  -1   4    3.34    0.63
   8   1  -4   34.78    1.77
  -8  -1   4   35.92    1.79
  -8  -1   4   31.94    1.45
   7   1  -4  133.65    5.80
  -7  -1   4  128.88    5.15
  -7  -1   4  134.26    5.81
   6   1  -4    2.60    0.39
   6   1  -4    3.16    0.27
  -6  -1   4    1.97    0.36
  -6  -1   4    2.74    0.28
   5   1  -4   24.10    1.04
   5   1  -4   23.86    1.23
  -5  -1   4   24.54    1.05
  -5  -1   4   25.96    1.23
   4   1  -4    3.08    0.24
   4   1  -4    2.86    0.32
  -4  -1   4    2.71    0.31
  -4  -1   4    2.46    0.23
   3   1  -4  259.15   10.09
   3   1  -4  263.88   11.07
  -3  -1   4  260.38   10.12
  -3  -1   4  258.18   11.06
   2   1  -4  288.12   12.51
   2   1  -4  288.88   11.10
  -2  -1   4  287.59   11.08
   1   1  -4   18.63    0.81
  -1  -1   4   19.73    0.81
  -1  -1   4   18.70    0.90
   0   1  -4  661.94   24.95
   0   1  -4  680.76   27.76
   0   1  -4  613.77   27.58
   0  -1   4  606.89   27.69
   0  -1   4  678.32   27.69
  -1   1  -4  528.67   21.79
   1  -1   4  471.73   21.58
   1  -1   4  518.61   21.62
  -2   1  -4    0.67    0.20
   2  -1   4    0.66    0.17
  -3   1  -4    9.61    0.58
  -4   1  -4   13.94    0.78
   4  -1   4   13.45    0.75
  -5   1  -4   82.85    3.78
   5  -1   4   88.35    3.78
  -6   1  -4  127.73    5.59
   6  -1   4  127.50    5.57
  -7   1  -4   -0.14    0.21
  -7   1  -4   -0.12    0.33
   7  -1   4   -0.49    0.34
  -8   1  -4   99.89    4.28
  -8   1  -4   85.06    3.71
   8  -1   4   96.90    4.24
  -9   1  -4   75.41    3.57
   9  -1   4   75.97    3.53
   9   0  -4    3.49    0.60
  -9   0   4    3.75    0.40
  -9   0   4    3.72    0.60
   8   0  -4    0.16    0.38
  -8   0   4    0.09    0.26
  -8   0   4   -0.15    0.38
   7   0  -4   17.89    1.06
  -7   0   4   18.99    0.90
  -7   0   4   18.33    1.06
   6   0  -4   92.22    4.01
   6   0  -4   87.63    3.56
  -6   0   4   91.37    3.57
  -6   0   4   92.20    4.00
   5   0  -4   42.27    1.72
   5   0  -4   42.00    1.96
  -5   0   4   43.22    1.74
  -5   0   4   43.11    1.95
   4   0  -4    1.61    0.25
   4   0  -4    1.51    0.19
  -4   0   4    1.69    0.21
  -4   0   4    1.33    0.22
   3   0  -4  293.71   11.45
   3   0  -4  289.69   12.83
  -3   0   4  315.85   11.53
  -3   0   4  300.01   12.83
   2   0  -4  427.72   16.30
   2   0  -4  402.97   17.96
   2   0  -4  412.62   18.08
  -2   0   4  431.61   18.09
  -2   0   4  430.73   16.36
   1   0  -4   30.44    1.23
   1   0  -4   32.00    1.37
   1   0  -4   29.82    1.36
  -1   0   4   31.51    1.36
  -1   0   4   30.48    1.23
   0   0  -4    3.48    0.25
   0   0  -4    3.70    0.30
   0   0  -4    3.67    0.24
   0   0   4    3.70    0.24
   0   0   4    3.87    0.29
   0   0   4    4.41    0.27
  -1   0  -4    0.69    0.18
  -1   0  -4    0.86    0.13
  -1   0  -4    0.77    0.14
   1   0   4    0.86    0.16
  -2   0  -4  108.92    4.75
   2   0   4  111.54    4.73
  -3   0  -4   24.89    1.21
   3   0   4   24.97    1.18
  -4   0  -4   38.89    1.87
   4   0   4   41.34    1.85
  -5   0  -4  103.26    4.49
   5   0   4  100.44    4.46
  -6   0  -4  204.00    8.38
  -6   0  -4  184.86    7.44
   6   0   4  191.08    8.33
  -7   0  -4   -0.15    0.42
  -7   0  -4    0.22    0.20
   7   0   4   -0.28    0.34
  -8   0  -4   10.49    0.96
   8   0   4   11.14    0.90
   9  -1  -4    2.45    0.52
  -9   1   4    2.17    0.49
  -9   1   4    2.08    0.38
   8  -1  -4   10.43    0.80
  -8   1   4    9.66    0.64
  -8   1   4   10.10    0.77
   7  -1  -4    2.44    0.38
   7  -1  -4    3.98    0.35
  -7   1   4    3.06    0.40
  -7   1   4    3.56    0.36
   6  -1  -4    2.39    0.33
   6  -1  -4    3.01    0.28
  -6   1   4    2.63    0.30
  -6   1   4    2.91    0.33
   5  -1  -4  216.09    8.32
   5  -1  -4  216.59    9.25
  -5   1   4  220.53    8.33
  -5   1   4  212.53    9.23
   4  -1  -4   21.47    1.04
   4  -1  -4   21.75    0.93
  -4   1   4   21.69    1.03
  -4   1   4   21.61    0.94
   3  -1  -4   50.55    1.93
   3  -1  -4   48.90    2.13
   3  -1  -4   45.59    2.12
  -3   1   4   49.87    1.93
  -3   1   4   47.75    2.12
   2  -1  -4    0.08    0.13
   2  -1  -4    0.26    0.12
   2  -1  -4    0.28    0.13
  -2   1   4    0.43    0.14
  -2   1   4    0.23    0.12
   1  -1  -4    4.52    0.30
   1  -1  -4    5.23    0.33
  -1   1   4    5.00    0.30
  -1   1   4    4.88    0.31
   0  -1  -4   76.25    3.02
   0  -1  -4   72.84    3.35
   0   1   4   78.28    3.02
   0   1   4   85.64    3.36
  -1  -1  -4   72.70    3.15
  -1  -1  -4   63.03    3.11
  -1  -1  -4   76.26    2.79
   1   1   4   76.75    3.13
  -2  -1  -4   56.22    2.56
  -2  -1  -4   59.21    2.25
   2   1   4   58.05    2.54
  -3  -1  -4   58.54    2.20
  -3  -1  -4   54.74    2.53
   3   1   4   55.60    2.51
  -4  -1  -4   35.11    1.71
   4   1   4   36.42    1.67
  -5  -1  -4   29.77    1.24
  -5  -1  -4   31.62    1.54
   5   1   4   29.50    1.48
  -6  -1  -4    1.39    0.42
  -6  -1  -4    1.33    0.19
   6   1   4    0.64    0.34
  -7  -1  -4    1.27    0.49
   7   1   4    1.25    0.40
   8   1   4    2.59    0.54
  10  -2  -4   11.31    0.98
 -10   2   4    8.20    0.74
 -10   2   4   11.37    0.93
   9  -2  -4   -0.48    0.37
  -9   2   4   -0.25    0.39
  -9   2   4    0.13    0.30
   8  -2  -4   68.62    3.06
  -8   2   4   65.48    3.03
  -8   2   4   66.49    2.73
   7  -2  -4  147.15    6.06
   7  -2  -4  134.30    5.43
  -7   2   4  139.45    5.45
  -7   2   4  136.32    6.03
   6  -2  -4   89.69    3.55
   6  -2  -4   90.81    3.95
  -6   2   4   89.55    3.93
  -6   2   4   89.90    3.56
   5  -2  -4   94.77    4.21
   5  -2  -4   98.00    3.80
  -5   2   4   98.25    3.81
  -5   2   4   97.27    4.20
   4  -2  -4  250.92    9.22
   4  -2  -4  246.46   10.36
   4  -2  -4  221.17   10.20
  -4   2   4  237.93   10.20
  -4   2   4  245.57    9.23
   3  -2  -4  202.44    8.62
   3  -2  -4  193.33    8.48
  -3   2   4  203.35    7.67
  -3   2   4  200.66    8.48
   2  -2  -4    2.83    0.26
   2  -2  -4    3.26    0.25
   2  -2  -4    2.98    0.23
  -2   2   4    3.30    0.23
  -2   2   4    2.95    0.26
   1  -2  -4   41.44    1.79
   1  -2  -4   40.43    1.61
   1  -2  -4   39.12    1.77
  -1   2   4   41.50    1.76
  -1   2   4   40.51    1.60
   0  -2  -4   33.20    1.60
   0  -2  -4   37.51    1.44
   0  -2  -4   36.29    1.63
   0   2   4   37.41    1.44
   0   2   4   37.62    1.60
  -1  -2  -4  230.24    8.73
  -1  -2  -4  234.37    9.87
  -1  -2  -4  216.01    9.67
   1   2   4  229.95    9.66
  -2  -2  -4   68.70    2.53
  -2  -2  -4   67.64    2.91
  -2  -2  -4   57.49    2.87
   2   2   4   68.39    2.87
  -3  -2  -4   21.53    0.85
  -3  -2  -4   20.70    1.10
   3   2   4   21.31    1.05
  -4  -2  -4  294.38   11.58
  -4  -2  -4  304.20   11.55
  -4  -2  -4  312.53   12.95
   4   2   4  299.88   12.90
  -5  -2  -4   40.86    1.61
  -5  -2  -4   40.57    1.61
  -5  -2  -4   43.37    2.03
   5   2   4   40.78    1.95
  -6  -2  -4    0.48    0.42
   6   2   4    0.48    0.35
  -7  -2  -4    0.35    0.52
   7   2   4    0.53    0.42
  10  -3  -4   27.75    1.48
 -10   3   4   22.67    1.24
   9  -3  -4    1.72    0.47
  -9   3   4    1.05    0.39
  -9   3   4    1.08    0.37
   8  -3  -4   67.07    2.96
  -8   3   4   66.50    2.92
  -8   3   4   60.27    2.66
   7  -3  -4  235.36   10.13
  -7   3   4  238.89   10.11
  -7   3   4  235.18    9.15
   6  -3  -4    2.06    0.28
   6  -3  -4    2.20    0.31
  -6   3   4    1.99    0.26
  -6   3   4    2.29    0.31
   5  -3  -4   13.09    0.71
   5  -3  -4   14.52    0.74
   5  -3  -4   14.65    0.70
  -5   3   4   14.26    0.71
  -5   3   4   13.91    0.71
   4  -3  -4   42.85    1.87
   4  -3  -4   41.84    1.72
   4  -3  -4   40.23    1.86
  -4   3   4   42.57    1.85
  -4   3   4   43.67    1.73
   3  -3  -4  401.01   15.25
   3  -3  -4  393.09   16.84
  -3   3   4  387.38   16.78
  -3   3   4  395.73   15.27
   2  -3  -4  189.58    8.25
   2  -3  -4  198.06    7.38
  -2   3   4  188.47    8.14
  -2   3   4  193.07    7.38
   1  -3  -4    0.22    0.13
  -1   3   4    0.22    0.10
  -1   3   4    0.56    0.13
   0  -3  -4  548.90   19.93
   0  -3  -4  471.09   22.10
   0  -3  -4  524.39   22.36
   0   3   4  531.33   19.94
   0   3   4  515.25   22.09
  -1  -3  -4  364.73   16.43
  -1  -3  -4  397.49   14.87
  -1  -3  -4  392.83   16.65
   1   3   4  397.33   16.58
  -2  -3  -4   25.84    1.36
  -2  -3  -4   31.55    1.41
  -2  -3  -4   30.01    1.13
   2   3   4   28.98    1.35
  -3  -3  -4   75.50    3.34
   3   3   4   73.98    3.29
  -4  -3  -4   50.25    2.35
   4   3   4   49.22    2.28
  -5  -3  -4   17.41    1.12
   5   3   4   17.81    1.03
  -6  -3  -4   39.29    2.05
  10  -4  -4   46.21    2.14
 -10   4   4   39.24    1.90
   9  -4  -4   12.48    0.89
  -9   4   4   12.97    0.86
  -9   4   4   12.15    0.81
   8  -4  -4    0.80    0.31
  -8   4   4    1.60    0.34
  -8   4   4    1.16    0.30
   7  -4  -4    9.93    0.67
  -7   4   4   10.14    0.61
  -7   4   4    9.52    0.65
   6  -4  -4   17.55    0.91
   6  -4  -4   16.97    0.85
   6  -4  -4   15.52    0.87
  -6   4   4   20.41    0.89
  -6   4   4   18.62    0.87
   5  -4  -4   18.24    0.84
   5  -4  -4   17.84    0.88
   5  -4  -4   17.52    0.86
  -5   4   4   17.51    0.84
  -5   4   4   17.68    0.84
   4  -4  -4  396.99   16.82
   4  -4  -4  404.40   15.14
  -4   4   4  382.14   16.67
  -4   4   4  386.66   15.16
   3  -4  -4   38.12    1.60
   3  -4  -4   37.35    1.50
   3  -4  -4   35.84    1.60
  -3   4   4   34.66    1.57
  -3   4   4   35.97    1.50
   2  -4  -4  315.30   11.66
   2  -4  -4  308.61   12.99
   2  -4  -4  291.11   12.92
  -2   4   4  290.49   12.76
  -2   4   4  304.44   11.63
   1  -4  -4   11.14    0.53
   1  -4  -4   10.54    0.56
   1  -4  -4   11.40    0.59
  -1   4   4   11.78    0.52
  -1   4   4   10.90    0.52
   0  -4  -4    4.71    0.40
   0  -4  -4    4.76    0.30
   0   4   4    5.76    0.29
   0   4   4    5.17    0.31
  -1  -4  -4   22.40    1.09
  -1  -4  -4   21.95    0.88
  -1  -4  -4   20.33    1.06
   1   4   4   23.22    1.03
  -2  -4  -4   24.95    1.17
  -2  -4  -4   20.25    1.11
   2   4   4   22.68    1.08
  -3  -4  -4   14.55    0.89
   3   4   4   13.58    0.77
  -4  -4  -4   47.99    2.30
  -5  -4  -4   74.96    3.48
  10  -5  -4    0.07    0.41
 -10   5   4   -0.01    0.37
   9  -5  -4    9.12    0.74
  -9   5   4    8.11    0.66
   8  -5  -4   25.03    1.31
  -8   5   4   26.24    1.24
   7  -5  -4    1.73    0.30
  -7   5   4    1.35    0.30
  -7   5   4    1.66    0.24
   6  -5  -4    4.20    0.38
  -6   5   4    1.72    0.31
  -6   5   4    2.43    0.24
   5  -5  -4   49.14    2.21
   5  -5  -4   52.40    2.23
   5  -5  -4   50.66    2.06
  -5   5   4   48.91    2.06
   4  -5  -4  116.85    5.17
   4  -5  -4  126.71    5.18
   4  -5  -4  122.32    4.72
  -4   5   4  118.34    4.72
   3  -5  -4    1.00    0.21
   3  -5  -4    0.90    0.13
   3  -5  -4    0.86    0.15
  -3   5   4    0.79    0.21
   2  -5  -4   16.07    0.76
   2  -5  -4   15.76    0.73
   2  -5  -4   15.59    0.75
  -2   5   4   16.22    0.72
   1  -5  -4   57.92    2.75
   1  -5  -4   67.54    2.77
  -1   5   4   64.75    2.48
   0  -5  -4   22.34    1.06
   0  -5  -4   20.02    1.02
   0   5   4   21.71    0.87
  -1  -5  -4   18.49    0.97
  -1  -5  -4   16.79    0.93
   1   5   4   19.66    0.88
  -2  -5  -4    1.82    0.35
  -3  -5  -4    1.05    0.37
  -4  -5  -4   11.81    0.95
  10  -6  -4    1.60    0.45
   9  -6  -4    3.74    0.47
  -9   6   4    4.16    0.49
   8  -6  -4   12.85    0.80
  -8   6   4   12.75    0.81
   7  -6  -4   70.67    3.10
  -7   6   4   69.26    2.87
   6  -6  -4   15.37    0.78
   6  -6  -4   13.91    0.75
  -6   6   4   15.27    0.81
   5  -6  -4   39.03    1.79
   5  -6  -4   41.63    1.80
  -5   6   4   40.72    1.71
   4  -6  -4  209.77    8.60
   4  -6  -4  196.75    8.59
  -4   6   4  200.97    7.82
   3  -6  -4   59.63    2.75
   3  -6  -4   66.89    2.75
  -3   6   4   64.56    2.54
   2  -6  -4   11.37    0.61
   2  -6  -4   11.85    0.61
  -2   6   4   12.31    0.59
   1  -6  -4   14.67    0.74
   1  -6  -4   13.28    0.71
  -1   6   4   13.53    0.63
   0  -6  -4    1.47    0.23
   0  -6  -4    2.02    0.30
   0   6   4    2.01    0.16
  -1  -6  -4   44.20    2.06
  -2  -6  -4    5.00    0.52
  -3  -6  -4   26.33    1.44
  10  -7  -4   19.46    1.16
   9  -7  -4    0.23    0.34
  -9   7   4    0.21    0.32
   8  -7  -4   62.12    2.78
  -8   7   4   61.42    2.60
   7  -7  -4   95.93    4.18
  -7   7   4   96.24    3.87
   6  -7  -4   13.99    0.72
   6  -7  -4   12.65    0.69
  -6   7   4   14.23    0.80
   5  -7  -4    8.78    0.48
   5  -7  -4    7.44    0.45
  -5   7   4    8.43    0.59
   4  -7  -4   38.99    1.72
   4  -7  -4   38.31    1.72
  -4   7   4   40.22    1.66
   3  -7  -4    2.43    0.23
   3  -7  -4    2.65    0.23
  -3   7   4    2.98    0.31
   2  -7  -4   98.59    4.51
   2  -7  -4  108.20    4.52
  -2   7   4  108.44    4.09
   1  -7  -4    0.04    0.22
  -1   7   4   -0.18    0.14
   0  -7  -4  101.69    4.36
   0   7   4   97.77    3.82
  -1  -7  -4  101.07    4.46
  -2  -7  -4   10.76    0.84
   9  -8  -4    8.14    0.68
   8  -8  -4    0.34    0.27
  -8   8   4    0.39    0.35
   7  -8  -4    2.63    0.31
  -7   8   4    2.49    0.40
   6  -8  -4   -0.05    0.18
  -6   8   4   -0.08    0.30
   5  -8  -4    3.60    0.29
   5  -8  -4    3.77    0.31
  -5   8   4    3.44    0.40
   4  -8  -4   13.76    0.76
   4  -8  -4   17.19    0.76
  -4   8   4   17.87    0.83
   3  -8  -4   56.06    2.52
   3  -8  -4   59.68    2.52
  -3   8   4   58.40    2.35
   2  -8  -4   24.42    1.14
  -2   8   4   23.86    1.05
   1  -8  -4    1.45    0.30
   0  -8  -4    7.13    0.63
  -1  -8  -4   10.03    0.79
   8  -9  -4   11.36    0.70
  -8   9   4   10.53    0.84
   7  -9  -4    0.47    0.22
  -7   9   4    0.70    0.34
   6  -9  -4    0.60    0.19
  -6   9   4    0.39    0.34
   5  -9  -4    0.14    0.13
   5  -9  -4    0.19    0.14
  -5   9   4    0.71    0.31
   4  -9  -4   12.80    0.60
   4  -9  -4   12.48    0.60
  -4   9   4   11.78    0.71
   3  -9  -4    9.63    0.52
  -3   9   4    8.96    0.56
   2  -9  -4    4.72    0.41
   1  -9  -4   36.49    1.72
   1 -10   5   10.39    0.68
   2 -10   5   -0.17    0.23
   3 -10   5    7.17    0.48
   4 -10   5    3.33    0.31
   5 -10   5   34.99    1.61
   6 -10   5   51.27    2.32
   7 -10   5    0.68    0.32
  -1  -9   5    5.58    0.52
   0  -9   5   37.04    1.75
  -1   9  -5   14.66    0.76
   1  -9   5   16.29    0.84
   2  -9   5  158.15    6.76
   3  -9   5   80.72    3.50
   4  -9   5   27.23    1.28
   5  -9   5   81.18    3.56
   6  -9   5    2.36    0.35
   7  -9   5   30.96    1.53
   8  -9   5   18.14    1.06
  -2  -8   5   30.02    1.52
  -1  -8   5   91.82    4.05
   0   8  -5    9.85    0.54
   0  -8   5    9.98    0.64
   1  -8   5   42.69    1.93
   2  -8   5  145.58    6.03
   2  -8   5  136.16    6.02
   3  -8   5   17.55    0.83
   3  -8   5   15.22    0.79
   4  -8   5    0.00    0.20
   4  -8   5   -0.10    0.14
   5  -8   5   13.27    0.76
   6  -8   5    6.36    0.55
   7  -8   5   50.28    2.33
   8  -8   5   14.48    0.94
   9  -8   5   19.66    1.18
  -4  -7   5    1.42    0.47
  -3  -7   5    0.22    0.34
   2   7  -5    1.41    0.18
  -2  -7   5    1.24    0.34
   1   7  -5   39.51    1.59
  -1  -7   5   39.42    1.84
   0   7  -5    4.01    0.34
   0  -7   5    4.01    0.34
   0  -7   5    4.48    0.42
   1  -7   5   37.97    1.76
   1  -7   5   40.72    1.77
   2  -7   5   23.23    1.05
   2  -7   5   20.94    1.03
   3  -7   5    1.08    0.21
   3  -7   5    1.06    0.18
   4  -7   5    4.23    0.40
   4  -7   5    3.96    0.33
   5  -7   5   20.36    0.97
   5  -7   5   17.03    0.91
   6  -7   5   37.11    1.75
   7  -7   5   50.81    2.36
   8  -7   5    5.41    0.55
  -9   7  -5    0.23    0.36
   9  -7   5   -0.03    0.38
  -5  -6   5   15.88    1.09
  -4  -6   5    5.70    0.58
   3   6  -5  100.34    3.84
  -3  -6   5   98.58    4.39
   2   6  -5  319.73   12.08
   2   6  -5  315.50   13.44
  -2  -6   5  313.69   13.48
   1   6  -5    8.60    0.44
   1   6  -5    8.53    0.48
  -1  -6   5    7.99    0.51
  -1  -6   5    8.65    0.56
   0   6  -5   92.30    3.49
   0   6  -5   86.19    3.83
   0  -6   5   89.74    3.87
   1  -6   5  143.95    5.87
   1  -6   5  130.28    5.86
   2  -6   5    9.17    0.52
   3  -6   5    9.23    0.53
   3  -6   5    8.20    0.48
  -4   6  -5    0.16    0.13
   4  -6   5    0.58    0.22
  -5   6  -5   43.96    1.94
   5  -6   5   45.59    1.98
   5  -6   5   39.72    1.94
  -6   6  -5  105.19    4.63
   6  -6   5  107.42    4.65
  -7   6  -5    6.32    0.53
   7  -6   5    5.59    0.52
   8  -6   5   74.26    3.37
  -9   6  -5   21.39    1.19
   9  -6   5   25.14    1.35
  -6  -5   5   93.78    4.28
  -5  -5   5   51.00    2.43
   4   5  -5   17.87    0.78
   4   5  -5   18.47    0.99
  -4  -5   5   18.64    1.06
   3   5  -5  264.11   11.52
   3   5  -5  271.34   10.33
  -3  -5   5  275.62   11.56
   2   5  -5   16.59    0.68
   2   5  -5   15.46    0.78
  -2  -5   5   14.93    0.83
  -2  -5   5   13.73    0.79
   1   5  -5    1.60    0.18
   1   5  -5    2.02    0.22
  -1  -5   5    1.73    0.23
  -1  -5   5    1.69    0.26
   0   5  -5   35.65    1.55
   0   5  -5   37.55    1.43
   0  -5   5   32.13    1.56
   0  -5   5   34.18    1.57
  -1   5  -5   33.43    1.50
   1  -5   5   34.88    1.53
  -2   5  -5  282.72   12.52
   2  -5   5  305.17   12.71
  -3   5  -5  131.79    5.72
   3  -5   5  143.38    5.75
   3  -5   5  126.50    5.73
  -4   5  -5   43.28    1.96
   4  -5   5   47.85    1.98
   4  -5   5   40.00    1.95
  -5   5  -5  340.94   13.89
   5  -5   5  289.47   13.86
   5  -5   5  349.06   13.90
  -6   5  -5  142.19    6.12
   6  -5   5  140.24    6.12
  -7   5  -5    5.57    0.55
   7  -5   5    5.78    0.57
  -8   5  -5   11.01    0.77
   8  -5   5   10.46    0.80
  -9   5  -5    0.32    0.34
   9  -5   5    0.48    0.43
  -7  -4   5    7.63    0.82
   6   4  -5   46.76    2.30
  -6  -4   5   50.38    2.37
   5   4  -5   23.66    1.00
   5   4  -5   23.31    1.24
  -5  -4   5   24.44    1.29
   4   4  -5    5.00    0.48
   4   4  -5    5.73    0.34
  -4  -4   5    4.82    0.48
   3   4  -5    1.35    0.24
   3   4  -5    0.60    0.15
  -3  -4   5    0.90    0.29
   2   4  -5   53.54    1.98
   2   4  -5   51.00    2.23
  -2  -4   5   43.73    2.22
  -2  -4   5   51.85    2.24
   1   4  -5   51.21    2.24
   1   4  -5   53.11    2.01
  -1  -4   5   51.09    2.24
  -1  -4   5   47.54    2.24
   0   4  -5    0.39    0.13
   0   4  -5    0.36    0.15
   0  -4   5    0.45    0.14
   0  -4   5    0.57    0.16
  -1   4  -5   21.35    0.96
   1  -4   5   20.44    0.97
   1  -4   5   21.11    0.98
  -2   4  -5  453.22   19.23
   2  -4   5  481.78   19.31
   2  -4   5  412.93   19.05
  -3   4  -5   76.42    3.35
   3  -4   5   73.05    3.33
   3  -4   5   80.89    3.34
  -4   4  -5    0.99    0.23
   4  -4   5    0.52    0.17
   4  -4   5    0.75    0.21
  -5   4  -5    7.29    0.53
   5  -4   5    6.68    0.53
  -6   4  -5    6.46    0.53
   6  -4   5    5.92    0.53
  -7   4  -5    3.30    0.42
   7  -4   5    3.03    0.43
  -8   4  -5    0.69    0.36
   8  -4   5    0.76    0.39
  -9   4  -5   23.83    1.29
  -9   4  -5   27.98    1.50
   9  -4   5   28.80    1.51
   7   3  -5   45.62    2.30
  -7  -3   5   49.85    2.36
   6   3  -5    8.08    0.46
   6   3  -5    8.13    0.70
  -6  -3   5    7.96    0.47
  -6  -3   5    8.50    0.74
   5   3  -5    0.39    0.27
   5   3  -5    0.66    0.17
  -5  -3   5    0.54    0.18
  -5  -3   5    0.23    0.32
   4   3  -5    7.56    0.56
   4   3  -5    8.21    0.43
  -4  -3   5    7.85    0.45
  -4  -3   5    7.99    0.59
   3   3  -5   20.71    0.85
   3   3  -5   20.57    1.00
  -3  -3   5   19.02    1.00
  -3  -3   5   19.65    0.86
   2   3  -5   33.58    1.52
   2   3  -5   34.82    1.34
  -2  -3   5   31.33    1.51
  -2  -3   5   33.23    1.52
   1   3  -5   88.35    3.88
   1   3  -5   91.87    3.49
  -1  -3   5   87.82    3.89
  -1  -3   5   92.48    3.89
   0   3  -5   33.75    1.35
   0   3  -5   34.94    1.49
   0  -3   5   33.73    1.49
   0  -3   5   29.90    1.48
  -1   3  -5   66.87    2.83
   1  -3   5   63.25    2.82
  -2   3  -5   13.18    0.69
   2  -3   5   13.78    0.68
   2  -3   5   13.07    0.67
  -3   3  -5   50.00    2.21
   3  -3   5   52.06    2.19
   3  -3   5   45.43    2.18
  -4   3  -5    5.92    0.47
   4  -3   5    6.12    0.47
  -5   3  -5   29.64    1.43
   5  -3   5   28.68    1.40
  -6   3  -5    7.27    0.59
   6  -3   5    6.88    0.58
  -7   3  -5   80.55    3.56
   7  -3   5   76.59    3.53
  -8   3  -5    3.28    0.40
  -8   3  -5    4.51    0.54
   8  -3   5    3.39    0.50
  -9   3  -5    1.29    0.37
  -9   3  -5    2.09    0.49
   9  -3   5    2.74    0.56
   8   2  -5   51.26    2.53
  -8  -2   5   53.02    2.57
   7   2  -5   30.48    1.30
   7   2  -5   32.17    1.60
  -7  -2   5   32.64    1.64
  -7  -2   5   28.64    1.31
   6   2  -5   22.45    1.24
   6   2  -5   22.59    1.01
  -6  -2   5   24.14    1.06
  -6  -2   5   24.09    1.26
   5   2  -5   34.38    1.68
   5   2  -5   34.94    1.44
  -5  -2   5   35.85    1.69
  -5  -2   5   35.49    1.45
   4   2  -5    0.54    0.25
   4   2  -5    0.29    0.15
  -4  -2   5    0.56    0.17
  -4  -2   5    0.11    0.24
   3   2  -5  238.79    9.05
   3   2  -5  230.98    9.97
  -3  -2   5  225.65    9.97
  -3  -2   5  240.84    8.97
   2   2  -5  404.27   17.69
   2   2  -5  423.39   16.10
  -2  -2   5  420.12   16.04
  -2  -2   5  414.99   18.00
   1   2  -5   56.46    2.37
   1   2  -5   52.17    2.12
  -1  -2   5   51.31    2.36
  -1  -2   5   56.49    2.13
   0   2  -5  569.97   21.47
   0   2  -5  574.32   23.94
   0  -2   5  512.72   23.77
   0  -2   5  571.62   23.92
  -1   2  -5  354.56   14.65
   1  -2   5  327.98   14.54
   1  -2   5  334.29   14.42
  -2   2  -5   79.02    3.39
   2  -2   5   80.36    3.36
   2  -2   5   73.07    3.36
  -3   2  -5    1.69    0.27
   3  -2   5    1.31    0.23
  -4   2  -5    0.47    0.23
   4  -2   5    0.43    0.24
  -5   2  -5   21.92    1.17
   5  -2   5   23.37    1.16
  -6   2  -5   21.40    1.15
   6  -2   5   20.71    1.12
  -7   2  -5    0.53    0.36
   7  -2   5    0.65    0.35
  -8   2  -5   57.36    2.50
  -8   2  -5   64.31    2.90
   8  -2   5   60.65    2.85
  -9   2  -5   36.77    1.93
   9  -2   5   34.20    1.87
   9   1  -5    1.17    0.53
   8   1  -5    4.71    0.59
  -8  -1   5    3.49    0.38
  -8  -1   5    3.33    0.58
   7   1  -5   24.97    1.35
   7   1  -5   23.31    1.10
  -7  -1   5   25.63    1.13
  -7  -1   5   26.74    1.37
   6   1  -5  238.98    9.20
   6   1  -5  231.06   10.27
  -6  -1   5  246.81   10.27
  -6  -1   5  240.34    9.21
   5   1  -5   60.33    2.69
   5   1  -5   58.12    2.36
  -5  -1   5   60.41    2.38
  -5  -1   5   59.28    2.68
   4   1  -5   69.20    3.11
   4   1  -5   69.80    2.77
  -4  -1   5   72.39    2.78
  -4  -1   5   70.78    3.11
   3   1  -5  765.21   33.83
   3   1  -5  793.43   30.59
  -3  -1   5  812.37   30.56
  -3  -1   5  801.24   34.05
   2   1  -5  274.76   10.65
   2   1  -5  274.90   12.05
  -2  -1   5  287.95   10.65
  -2  -1   5  276.54   12.04
   1   1  -5    5.90    0.37
   1   1  -5    5.34    0.32
  -1  -1   5    5.24    0.32
   0   1  -5  174.50    7.20
   0   1  -5  166.94    6.33
   0  -1   5  161.21    7.13
   0  -1   5  157.18    7.03
  -1   1  -5    8.33    0.42
  -1   1  -5    7.96    0.50
   1  -1   5    7.77    0.46
  -2   1  -5  100.95    4.36
   2  -1   5  100.01    4.33
  -3   1  -5  378.56   16.21
   3  -1   5  365.86   15.95
  -4   1  -5   46.76    2.16
   4  -1   5   47.13    2.14
  -5   1  -5  395.15   16.49
   5  -1   5  378.51   16.45
  -6   1  -5  169.89    7.30
   6  -1   5  165.66    7.26
  -7   1  -5    4.82    0.60
  -7   1  -5    4.20    0.38
   7  -1   5    4.00    0.51
  -8   1  -5   19.86    1.04
  -8   1  -5   22.92    1.37
   8  -1   5   23.56    1.31
   9   0  -5    1.75    0.50
  -9   0   5    1.79    0.34
  -9   0   5    2.12    0.53
   8   0  -5    2.78    0.50
  -8   0   5    2.80    0.36
  -8   0   5    3.37    0.52
   7   0  -5   33.09    1.67
   7   0  -5   33.34    1.43
  -7   0   5   33.88    1.46
  -7   0   5   34.03    1.67
   6   0  -5   82.44    3.59
   6   0  -5   79.09    3.18
  -6   0   5   81.28    3.20
  -6   0   5   80.00    3.58
   5   0  -5   27.51    1.17
   5   0  -5   27.16    1.34
  -5   0   5   27.50    1.33
  -5   0   5   28.51    1.19
   4   0  -5    8.41    0.46
   4   0  -5    8.10    0.53
  -4   0   5    8.09    0.47
  -4   0   5    8.28    0.52
   3   0  -5    3.35    0.32
   3   0  -5    2.51    0.23
  -3   0   5    3.75    0.31
  -3   0   5    3.30    0.31
   2   0  -5   50.92    2.27
   2   0  -5   53.46    2.05
  -2   0   5   50.41    2.05
  -2   0   5   52.84    2.27
   1   0  -5   18.30    0.80
   1   0  -5   20.35    0.91
   1   0  -5   17.28    0.88
  -1   0   5   19.75    0.81
  -1   0   5   19.32    0.89
   0   0  -5   -0.06    0.12
   0   0  -5   -0.03    0.10
   0   0   5    0.01    0.12
   0   0   5    0.10    0.12
  -1   0  -5  269.81   10.51
  -1   0  -5  278.53   11.64
   1   0   5  273.01   11.81
  -2   0  -5  424.78   18.96
  -2   0  -5  466.96   17.13
   2   0   5  436.80   18.95
  -3   0  -5   39.03    1.85
   3   0   5   40.87    1.82
  -4   0  -5   11.58    0.74
   4   0   5   11.89    0.72
  -5   0  -5   24.97    1.33
   5   0   5   26.16    1.30
  -6   0  -5    0.29    0.38
   6   0   5    0.21    0.32
  -7   0  -5    1.33    0.25
  -7   0  -5    1.20    0.44
   7   0   5    0.68    0.41
  -8   0  -5   -0.13    0.50
   8   0   5    0.34    0.47
   9  -1  -5   13.69    0.99
  -9   1   5   12.83    0.82
  -9   1   5   13.20    0.96
   8  -1  -5   32.52    1.66
  -8   1   5   33.67    1.65
  -8   1   5   31.30    1.45
   7  -1  -5  116.60    5.01
   7  -1  -5  110.41    4.47
  -7   1   5  112.26    4.48
  -7   1   5  116.59    5.00
   6  -1  -5   15.83    0.88
   6  -1  -5   14.92    0.76
   5  -1  -5   42.03    1.76
   5  -1  -5   44.18    1.98
  -5   1   5   42.93    1.77
  -5   1   5   43.87    1.96
   4  -1  -5  198.05    8.50
   4  -1  -5  203.15    7.66
  -4   1   5  199.04    8.49
  -4   1   5  196.35    7.66
   3  -1  -5   44.54    2.06
   3  -1  -5   47.13    2.08
   3  -1  -5   47.66    1.87
  -3   1   5   47.80    2.07
  -3   1   5   46.80    1.88
   2  -1  -5    1.35    0.17
  -2   1   5    1.63    0.20
  -2   1   5    1.86    0.20
   1  -1  -5   16.02    0.80
   1  -1  -5   16.97    0.74
   1  -1  -5   17.73    0.83
  -1   1   5   18.16    0.74
  -1   1   5   17.67    0.81
   0  -1  -5   64.76    2.57
   0  -1  -5   56.57    2.27
   0  -1  -5   51.45    2.52
   0   1   5   61.06    2.53
   0   1   5   57.86    2.28
  -1  -1  -5   86.27    4.17
  -1  -1  -5  102.89    3.75
  -1  -1  -5  100.03    4.21
   1   1   5   98.27    4.18
  -2  -1  -5    1.81    0.27
   2   1   5    0.23    0.18
  -3  -1  -5   68.25    2.62
  -3  -1  -5   64.69    3.00
   3   1   5   68.56    2.97
  -4  -1  -5   22.91    0.96
  -4  -1  -5   23.27    1.22
   4   1   5   23.10    1.17
  -5  -1  -5   59.68    2.35
  -5  -1  -5   59.30    2.77
   5   1   5   60.02    2.73
  -6  -1  -5    2.24    0.24
  -6  -1  -5    2.05    0.46
   6   1   5    1.87    0.44
  -7  -1  -5    3.43    0.60
   7   1   5    4.84    0.61
  10  -2  -5   42.68    2.03
 -10   2   5   38.74    1.98
 -10   2   5   34.25    1.73
   9  -2  -5    0.75    0.45
  -9   2   5    0.51    0.33
  -9   2   5    0.38    0.39
   8  -2  -5  132.49    5.69
  -8   2   5  127.62    5.10
  -8   2   5  128.18    5.66
   7  -2  -5  140.72    6.16
   7  -2  -5  140.57    5.54
  -7   2   5  141.90    5.55
  -7   2   5  144.07    6.15
   6  -2  -5    0.42    0.27
   6  -2  -5    0.72    0.23
  -6   2   5    0.18    0.22
  -6   2   5    0.45    0.22
   5  -2  -5    6.32    0.46
   5  -2  -5    5.58    0.42
  -5   2   5    5.99    0.42
  -5   2   5    5.96    0.42
   4  -2  -5    2.02    0.23
   4  -2  -5    1.69    0.22
   4  -2  -5    1.52    0.23
  -4   2   5    1.80    0.24
  -4   2   5    1.72    0.21
   3  -2  -5   85.14    3.35
   3  -2  -5   83.56    3.70
   3  -2  -5   85.26    3.70
  -3   2   5   89.14    3.36
  -3   2   5   86.25    3.69
   2  -2  -5  116.63    5.14
   2  -2  -5  119.61    5.15
   2  -2  -5  121.56    4.65
  -2   2   5  123.37    4.65
  -2   2   5  120.66    5.13
   1  -2  -5    2.83    0.25
   1  -2  -5    4.13    0.28
  -1   2   5    3.21    0.26
  -1   2   5    3.16    0.26
   0  -2  -5  285.08   10.77
   0  -2  -5  283.25   11.85
   0  -2  -5  251.82   11.82
   0   2   5  285.56   11.90
   0   2   5  289.24   10.72
  -1  -2  -5  498.83   20.83
  -1  -2  -5  511.76   18.52
  -1  -2  -5  419.57   20.42
   1   2   5  494.49   20.46
  -2  -2  -5   11.85    0.72
  -2  -2  -5   12.74    0.55
   2   2   5   12.41    0.66
  -3  -2  -5   87.63    3.34
  -3  -2  -5   85.37    3.83
   3   2   5   86.51    3.79
  -4  -2  -5    3.29    0.45
  -4  -2  -5    2.77    0.23
   4   2   5    2.00    0.33
  -5  -2  -5    1.58    0.44
  -5  -2  -5    1.67    0.16
   5   2   5    2.31    0.40
  -6  -2  -5    9.77    0.90
   6   2   5    9.10    0.79
  -7  -2  -5    1.19    0.58
  10  -3  -5   37.82    1.90
 -10   3   5   34.08    1.66
   9  -3  -5    0.27    0.40
  -9   3   5    0.53    0.36
  -9   3   5    0.32    0.32
   8  -3  -5    2.16    0.40
  -8   3   5    2.68    0.39
  -8   3   5    2.24    0.37
   7  -3  -5    4.06    0.45
   7  -3  -5    5.58    0.46
  -7   3   5    5.35    0.46
  -7   3   5    5.25    0.47
   6  -3  -5   30.66    1.44
   6  -3  -5   29.17    1.30
  -6   3   5   28.95    1.40
  -6   3   5   31.38    1.33
   5  -3  -5   62.78    2.90
   5  -3  -5   66.94    2.65
   5  -3  -5   69.00    2.93
  -5   3   5   67.55    2.90
  -5   3   5   65.56    2.66
   4  -3  -5    0.75    0.19
   4  -3  -5    0.68    0.17
   4  -3  -5    0.66    0.20
  -4   3   5    0.56    0.19
  -4   3   5    0.69    0.16
   3  -3  -5  811.87   36.53
   3  -3  -5  874.69   36.65
   3  -3  -5  887.40   33.11
  -3   3   5  858.04   36.42
  -3   3   5  857.42   33.03
   2  -3  -5  335.99   14.00
   2  -3  -5  330.37   12.47
   2  -3  -5  302.16   13.92
  -2   3   5  323.51   13.93
  -2   3   5  338.05   12.47
   1  -3  -5    1.94    0.19
   1  -3  -5    1.34    0.17
   1  -3  -5    1.52    0.21
  -1   3   5    2.13    0.19
  -1   3   5    1.83    0.18
   0  -3  -5  204.49    7.66
   0  -3  -5  186.07    8.52
   0  -3  -5  206.79    8.55
   0   3   5  201.29    7.73
   0   3   5  202.16    8.50
  -1  -3  -5    0.37    0.12
  -1  -3  -5    0.04    0.21
  -1  -3  -5    0.26    0.16
   1   3   5    0.39    0.16
  -2  -3  -5   40.17    1.58
  -2  -3  -5   42.28    1.90
   2   3   5   39.25    1.83
  -3  -3  -5    0.56    0.31
   3   3   5    0.77    0.25
  -4  -3  -5    0.24    0.36
   4   3   5    0.65    0.29
  -5  -3  -5  128.81    5.59
   5   3   5  122.30    5.50
  -6  -3  -5   39.98    2.11
  10  -4  -5    1.83    0.52
 -10   4   5    1.29    0.39
   9  -4  -5   -0.12    0.36
  -9   4   5   -0.09    0.34
   8  -4  -5    7.74    0.64
  -8   4   5    6.68    0.60
  -8   4   5    6.65    0.55
   7  -4  -5   62.96    2.58
   7  -4  -5   66.20    2.84
  -7   4   5   60.86    2.80
  -7   4   5   62.68    2.60
   6  -4  -5   66.25    3.21
   6  -4  -5   76.41    3.24
   6  -4  -5   75.58    2.95
  -6   4   5   74.16    2.96
  -6   4   5   74.93    3.20
   5  -4  -5   23.70    1.12
   5  -4  -5   23.08    1.11
   5  -4  -5   25.25    1.07
  -5   4   5   22.27    1.08
  -5   4   5   23.62    1.07
   4  -4  -5    2.88    0.27
   4  -4  -5    3.51    0.31
  -4   4   5    2.64    0.23
  -4   4   5    2.75    0.29
   3  -4  -5   40.48    1.84
   3  -4  -5   43.44    1.72
   3  -4  -5   44.41    1.86
  -3   4   5   38.94    1.81
  -3   4   5   42.82    1.71
   2  -4  -5    0.92    0.19
   2  -4  -5    0.44    0.17
   2  -4  -5    0.24    0.12
  -2   4   5    0.45    0.10
  -2   4   5    0.20    0.16
   1  -4  -5    5.41    0.41
   1  -4  -5    5.70    0.35
  -1   4   5    5.22    0.31
  -1   4   5    5.64    0.34
   0  -4  -5   12.08    0.54
   0  -4  -5   11.03    0.63
   0  -4  -5   12.13    0.67
   0   4   5   12.38    0.53
   0   4   5   11.26    0.59
  -1  -4  -5   18.24    0.74
  -1  -4  -5   18.66    0.95
  -1  -4  -5   15.98    0.89
   1   4   5   17.84    0.86
  -2  -4  -5  109.30    4.81
   2   4   5  109.88    4.74
  -3  -4  -5   27.04    1.37
   3   4   5   24.69    1.26
  -4  -4  -5    6.79    0.66
  10  -5  -5    1.28    0.48
 -10   5   5    1.32    0.42
   9  -5  -5    0.56    0.34
  -9   5   5    0.41    0.37
   8  -5  -5   23.00    1.23
  -8   5   5   24.70    1.20
   7  -5  -5   47.64    2.18
  -7   5   5   48.50    2.03
  -7   5   5   46.80    2.13
   6  -5  -5    9.53    0.57
   6  -5  -5    9.91    0.61
   6  -5  -5    9.97    0.61
  -6   5   5    9.53    0.53
  -6   5   5   10.19    0.64
   5  -5  -5   53.52    2.27
   5  -5  -5   54.67    2.11
  -5   5   5   49.12    2.11
  -5   5   5   47.75    2.21
   4  -5  -5  142.34    6.10
   4  -5  -5  152.93    5.57
   4  -5  -5  132.92    6.09
  -4   5   5  143.73    5.56
   3  -5  -5   63.06    2.46
   3  -5  -5   62.72    2.67
   3  -5  -5   57.83    2.66
  -3   5   5   61.86    2.45
   2  -5  -5    0.24    0.16
   2  -5  -5    0.09    0.13
  -2   5   5    0.02    0.16
   1  -5  -5    0.13    0.15
   1  -5  -5    0.12    0.15
   1  -5  -5    0.01    0.20
  -1   5   5    0.28    0.15
   0  -5  -5   10.84    0.52
   0  -5  -5   11.01    0.67
   0   5   5   10.82    0.56
   0   5   5   11.28    0.50
  -1  -5  -5    1.47    0.32
  -2  -5  -5    5.45    0.53
  -3  -5  -5    5.81    0.60
  -4  -5  -5   27.45    1.54
  10  -6  -5   22.83    1.30
   9  -6  -5    2.10    0.39
  -9   6   5    1.40    0.43
   8  -6  -5   85.56    3.81
  -8   6   5   86.16    3.51
   7  -6  -5  143.64    6.21
  -7   6   5  144.31    5.67
   6  -6  -5   21.36    1.05
   6  -6  -5   20.08    1.02
  -6   6   5   23.19    1.05
   5  -6  -5  141.72    6.53
   5  -6  -5  154.68    6.54
  -5   6   5  163.08    5.99
   4  -6  -5    0.31    0.14
   4  -6  -5    0.37    0.17
   4  -6  -5    0.36    0.24
  -4   6   5    0.14    0.24
   3  -6  -5   27.98    1.21
   3  -6  -5   24.30    1.19
  -3   6   5   26.38    1.14
   2  -6  -5   31.76    1.57
   2  -6  -5   36.30    1.58
  -2   6   5   36.24    1.44
   1  -6  -5    0.08    0.22
   1  -6  -5    0.21    0.17
  -1   6   5    0.05    0.15
   0  -6  -5   81.07    3.56
   0   6   5   79.93    3.11
  -1  -6  -5  122.42    5.36
  -2  -6  -5   11.07    0.84
  -3  -6  -5   24.31    1.39
  10  -7  -5   26.23    1.44
   9  -7  -5    0.57    0.34
  -9   7   5    0.26    0.39
   8  -7  -5   16.63    0.94
  -8   7   5   16.17    0.96
   7  -7  -5    1.71    0.30
  -7   7   5    1.50    0.38
   6  -7  -5   19.17    0.98
  -6   7   5   20.73    1.04
   5  -7  -5    8.73    0.51
   5  -7  -5    9.61    0.55
  -5   7   5   10.16    0.65
   4  -7  -5   13.92    0.74
   4  -7  -5   15.85    0.76
  -4   7   5   15.76    0.79
   3  -7  -5  169.48    6.95
   3  -7  -5  147.68    6.95
  -3   7   5  172.09    6.32
   2  -7  -5   37.24    1.86
   2  -7  -5   43.82    1.87
  -2   7   5   43.28    1.70
   1  -7  -5    0.14    0.25
  -1   7   5    0.63    0.16
   0  -7  -5   57.39    2.61
  -1  -7  -5   25.06    1.34
  -2  -7  -5    8.15    0.80
   9  -8  -5    0.78    0.35
   8  -8  -5    5.24    0.53
  -8   8   5    4.74    0.53
   7  -8  -5   15.34    0.81
  -7   8   5   13.57    0.90
   6  -8  -5   10.32    0.61
  -6   8   5   10.88    0.73
   5  -8  -5   12.09    0.65
  -5   8   5   12.34    0.74
   4  -8  -5    1.53    0.22
   4  -8  -5    1.22    0.21
  -4   8   5    1.62    0.30
   3  -8  -5    3.45    0.34
  -3   8   5    3.01    0.32
   2  -8  -5   19.42    0.97
  -2   8   5   18.92    0.87
   1  -8  -5    0.27    0.27
   0  -8  -5    0.58    0.34
   8  -9  -5    3.19    0.38
   7  -9  -5    6.21    0.49
  -7   9   5    5.73    0.56
   6  -9  -5    0.99    0.23
  -6   9   5    0.97    0.37
   5  -9  -5   26.51    1.17
  -5   9   5   24.25    1.21
   4  -9  -5   20.47    0.95
  -4   9   5   19.53    0.97
   3  -9  -5   25.41    1.16
  -3   9   5   24.01    1.12
   1 -10   6   15.95    0.90
   2 -10   6   64.57    2.86
   3 -10   6   17.40    0.90
   4 -10   6    0.23    0.24
   5 -10   6   64.92    2.89
   6 -10   6   19.36    1.06
   7 -10   6    0.33    0.33
  -1  -9   6   90.31    4.02
   0  -9   6   10.60    0.73
  -1   9  -6   92.45    3.71
   1  -9   6   95.21    4.10
   2  -9   6   74.59    3.27
   3  -9   6   19.56    0.99
   4  -9   6   23.51    1.17
   5  -9   6    0.38    0.28
   6  -9   6    2.65    0.39
   7  -9   6  140.25    6.12
   8  -9   6    0.99    0.37
  -2  -8   6   44.45    2.13
  -1  -8   6   36.66    1.76
   0   8  -6    6.91    0.45
   0  -8   6    6.36    0.54
   1  -8   6    3.26    0.35
   2  -8   6    2.11    0.28
   3  -8   6   30.19    1.50
   3  -8   6   36.18    1.55
   4  -8   6    0.67    0.25
   5  -8   6    0.27    0.26
   6  -8   6   97.14    4.29
   7  -8   6   34.57    1.70
   8  -8   6    9.44    0.79
   9  -8   6    6.53    0.66
  -4  -7   6   20.40    1.24
  -3  -7   6   22.23    1.24
   2   7  -6   24.69    1.05
  -2  -7   6   24.89    1.29
   1   7  -6    3.18    0.27
  -1  -7   6    3.16    0.38
   0   7  -6   38.13    1.58
   0  -7   6   38.46    1.77
   1  -7   6    1.10    0.20
   1  -7   6    1.26    0.25
   2  -7   6   13.97    0.75
   3  -7   6    4.92    0.42
   3  -7   6    4.93    0.37
   4  -7   6   32.19    1.59
   4  -7   6   38.09    1.65
   5  -7   6   54.16    2.46
   6  -7   6    0.27    0.28
   7  -7   6    0.29    0.33
   8  -7   6    3.90    0.52
   9  -7   6   16.61    1.12
  -5  -6   6   52.97    2.56
  -4  -6   6   16.56    1.04
   3   6  -6  114.34    4.43
  -3  -6   6  114.88    5.03
   2   6  -6   25.74    1.28
   2   6  -6   28.12    1.13
  -2  -6   6   27.26    1.34
   1   6  -6    3.21    0.27
   1   6  -6    3.81    0.33
  -1  -6   6    3.12    0.31
  -1  -6   6    3.85    0.36
   0   6  -6    4.25    0.35
   0   6  -6    3.77    0.31
   0  -6   6    4.51    0.40
   0  -6   6    4.23    0.35
  -1   6  -6    6.74    0.38
   1  -6   6    6.18    0.46
  -2   6  -6  130.83    5.71
   2  -6   6  137.29    5.76
  -3   6  -6   92.32    4.13
   3  -6   6  100.32    4.18
  -4   6  -6   45.71    2.00
   4  -6   6   48.94    2.06
   4  -6   6   40.59    2.01
  -5   6  -6  219.21    8.84
   5  -6   6  178.48    8.82
   5  -6   6  222.27    8.86
  -6   6  -6   52.32    2.39
   6  -6   6   52.49    2.41
   7  -6   6    3.13    0.44
   8  -6   6    0.03    0.37
  -9   6  -6    0.05    0.35
   9  -6   6   -0.03    0.44
  -6  -5   6   86.48    3.98
  -5  -5   6    8.02    0.75
   4   5  -6   15.39    0.89
   4   5  -6   15.57    0.72
  -4  -5   6   17.30    1.00
   3   5  -6    0.10    0.16
   3   5  -6    0.00    0.20
  -3  -5   6    0.42    0.31
   2   5  -6    3.65    0.34
   2   5  -6    3.63    0.31
  -2  -5   6    3.65    0.37
  -2  -5   6    3.89    0.35
   1   5  -6  282.77   10.58
   1   5  -6  278.53   11.74
  -1  -5   6  280.50   11.76
  -1  -5   6  263.45   11.75
   0   5  -6   33.20    1.30
   0   5  -6   30.56    1.41
   0  -5   6   29.38    1.42
   0  -5   6   31.77    1.44
  -1   5  -6  254.94   10.76
   1  -5   6  240.98   10.78
   1  -5   6  265.87   10.95
  -2   5  -6  468.24   19.51
   2  -5   6  472.65   19.67
   2  -5   6  428.51   19.29
  -3   5  -6   31.43    1.41
   3  -5   6   32.84    1.44
   3  -5   6   27.91    1.41
  -4   5  -6   10.52    0.61
   4  -5   6    9.22    0.58
   4  -5   6   11.00    0.63
  -5   5  -6   38.78    1.71
   5  -5   6   38.36    1.71
   5  -5   6   31.36    1.66
  -6   5  -6   19.45    1.10
   6  -5   6   21.87    1.12
  -7   5  -6   17.65    1.00
   7  -5   6   15.94    1.03
  -8   5  -6    8.34    0.74
   8  -5   6    7.96    0.73
   9  -5   6   55.95    2.69
  -7  -4   6    7.05    0.76
   6   4  -6   12.17    0.90
  -6  -4   6   15.16    1.00
   5   4  -6   14.61    0.70
   5   4  -6   14.53    0.90
  -5  -4   6   15.96    0.97
   4   4  -6    3.45    0.38
   4   4  -6    3.45    0.28
  -4  -4   6    2.22    0.38
   3   4  -6   42.23    1.74
   3   4  -6   43.26    1.98
  -3  -4   6   44.86    2.01
   2   4  -6   69.01    3.06
   2   4  -6   70.03    2.74
  -2  -4   6   70.28    3.07
   1   4  -6  218.94    8.97
   1   4  -6  218.42    8.08
  -1  -4   6  195.75    8.97
  -1  -4   6  209.18    8.98
   0   4  -6   63.69    2.38
   0   4  -6   59.33    2.62
   0  -4   6   59.98    2.63
   0  -4   6   56.70    2.62
  -1   4  -6   27.29    1.23
   1  -4   6   25.81    1.23
   1  -4   6   27.38    1.25
  -2   4  -6    2.97    0.27
   2  -4   6    1.94    0.24
   2  -4   6    1.94    0.22
  -3   4  -6    5.83    0.43
   3  -4   6    6.15    0.44
   3  -4   6    5.36    0.40
  -4   4  -6    4.10    0.41
   4  -4   6    4.24    0.42
  -5   4  -6   16.56    0.90
   5  -4   6   15.37    0.89
  -6   4  -6  126.39    5.57
   6  -4   6  128.38    5.57
  -7   4  -6   62.97    2.95
   7  -4   6   65.23    2.95
  -8   4  -6    4.18    0.55
   8  -4   6    3.07    0.50
  -9   4  -6   14.32    1.07
   9  -4   6   16.46    1.12
   7   3  -6   37.90    1.97
  -7  -3   6   41.25    2.03
   6   3  -6    0.47    0.20
   6   3  -6    0.19    0.32
  -6  -3   6    0.25    0.38
  -6  -3   6    0.46    0.20
   5   3  -6    4.88    0.38
   5   3  -6    5.80    0.54
  -5  -3   6    4.70    0.40
  -5  -3   6    4.98    0.51
   4   3  -6   13.98    0.81
   4   3  -6   14.14    0.66
  -4  -3   6   14.06    0.83
  -4  -3   6   13.46    0.67
   3   3  -6  120.83    4.63
   3   3  -6  121.15    5.18
  -3  -3   6  121.79    4.64
  -3  -3   6  114.69    5.17
   2   3  -6   39.12    1.76
   2   3  -6   37.66    1.56
  -2  -3   6   39.72    1.77
   1   3  -6    0.57    0.18
   1   3  -6    0.63    0.15
  -1  -3   6    0.78    0.18
  -1  -3   6    0.71    0.17
   0   3  -6  136.33    4.94
   0   3  -6  130.69    5.47
   0  -3   6  115.10    5.46
   0  -3   6  128.21    5.47
  -1   3  -6  205.20    8.32
   1  -3   6  181.87    8.30
   1  -3   6  197.86    8.30
  -2   3  -6   18.47    0.92
   2  -3   6   16.67    0.88
   2  -3   6   19.13    0.90
  -3   3  -6    6.74    0.50
   3  -3   6    7.22    0.48
  -4   3  -6    6.73    0.53
   4  -3   6    7.15    0.53
  -5   3  -6   20.63    1.13
   5  -3   6   22.18    1.13
  -6   3  -6    0.94    0.32
   6  -3   6    0.64    0.34
  -7   3  -6    4.96    0.58
   7  -3   6    6.07    0.61
  -8   3  -6   15.63    1.06
   8  -3   6   15.76    1.06
  -9   3  -6   10.86    0.95
   9  -3   6    9.79    0.96
   8   2  -6    3.51    0.58
  -8  -2   6    3.41    0.62
   7   2  -6   28.27    1.48
   7   2  -6   25.54    1.20
  -7  -2   6   30.53    1.52
  -7  -2   6   27.66    1.23
   6   2  -6   49.23    2.30
   6   2  -6   46.70    1.98
  -6  -2   6   50.20    2.01
  -6  -2   6   49.82    2.31
   5   2  -6  160.10    6.17
   5   2  -6  160.02    6.91
  -5  -2   6  160.07    6.18
  -5  -2   6  159.11    6.91
   4   2  -6  103.37    4.45
   4   2  -6  100.61    3.97
  -4  -2   6  100.21    4.45
  -4  -2   6  103.81    3.98
   3   2  -6  336.07   14.39
   3   2  -6  345.73   12.78
  -3  -2   6  330.20   12.89
  -3  -2   6  324.63   14.19
   2   2  -6  489.39   18.46
   2   2  -6  471.76   20.50
  -2  -2   6  471.92   20.60
  -2  -2   6  481.02   18.43
   1   2  -6  148.56    5.70
   1   2  -6  148.97    6.33
  -1  -2   6  149.17    5.70
  -1  -2   6  145.28    6.32
   0   2  -6   16.41    0.79
   0   2  -6   15.51    0.69
   0  -2   6   15.57    0.77
   0  -2   6   14.74    0.77
  -1   2  -6   50.93    2.06
  -1   2  -6   54.05    2.32
   1  -2   6   50.93    2.29
  -2   2  -6  106.53    4.71
   2  -2   6  110.87    4.69
  -3   2  -6   75.46    3.39
   3  -2   6   77.92    3.36
  -4   2  -6  127.59    5.52
   4  -2   6  126.12    5.49
  -5   2  -6  211.46    9.01
   5  -2   6  206.74    8.98
  -6   2  -6  140.82    6.20
   6  -2   6  142.21    6.18
  -7   2  -6    0.00    0.35
   7  -2   6    0.17    0.38
  -8   2  -6   18.92    1.22
   8  -2   6   17.90    1.19
   9   1  -6   35.04    1.87
   8   1  -6   -0.32    0.38
   8   1  -6    0.16    0.23
  -8  -1   6    0.36    0.27
  -8  -1   6   -0.36    0.42
   7   1  -6   41.49    1.95
   7   1  -6   36.92    1.65
  -7  -1   6   41.33    1.95
  -7  -1   6   39.16    1.68
   6   1  -6  333.78   14.35
   6   1  -6  324.93   12.88
  -6  -1   6  339.26   12.90
  -6  -1   6  346.65   14.35
   5   1  -6   28.22    1.23
   5   1  -6   29.27    1.43
  -5  -1   6   29.21    1.43
  -5  -1   6   30.38    1.26
   4   1  -6    4.70    0.43
   4   1  -6    4.68    0.35
  -4  -1   6    4.85    0.37
  -4  -1   6    3.02    0.34
   3   1  -6   71.03    2.74
   3   1  -6   68.22    3.06
  -3  -1   6   69.15    3.05
  -3  -1   6   70.57    2.75
   2   1  -6   74.41    3.30
   2   1  -6   79.30    2.97
  -2  -1   6   75.00    2.97
  -2  -1   6   74.40    3.29
   1   1  -6  103.38    4.01
   1   1  -6  105.41    4.46
  -1  -1   6  100.14    4.01
  -1  -1   6  105.16    4.45
   0   1  -6   10.46    0.50
   0   1  -6   11.00    0.60
   0  -1   6   10.37    0.56
  -1   1  -6  161.93    6.93
  -1   1  -6  167.10    6.22
   1  -1   6  155.89    6.90
  -2   1  -6  740.15   32.81
   2  -1   6  799.81   33.13
  -3   1  -6   13.58    0.77
   3  -1   6   12.19    0.72
  -4   1  -6   18.71    1.01
   4  -1   6   17.71    0.95
  -5   1  -6  146.86    6.45
   5  -1   6  149.03    6.42
  -6   1  -6   11.66    0.85
   6  -1   6   13.05    0.87
  -7   1  -6   19.72    1.29
   7  -1   6   23.00    1.27
  -8   1  -6    0.32    0.46
   8  -1   6    0.03    0.48
   9   0  -6   11.25    0.94
  -9   0   6   10.77    0.93
  -9   0   6    9.58    0.70
   8   0  -6   27.36    1.47
   8   0  -6   26.79    1.23
  -8   0   6   25.49    1.25
  -8   0   6   28.99    1.47
   7   0  -6    0.16    0.32
   7   0  -6    0.17    0.23
  -7   0   6    0.74    0.29
  -7   0   6    0.32    0.34
   6   0  -6    3.16    0.30
   6   0  -6    3.54    0.41
  -6   0   6    3.30    0.33
  -6   0   6    3.29    0.39
   5   0  -6    2.69    0.34
   5   0  -6    2.77    0.28
  -5   0   6    2.83    0.33
  -5   0   6    3.19    0.31
   4   0  -6    1.38    0.21
   4   0  -6    1.18    0.25
  -4   0   6    1.30    0.25
  -4   0   6    1.20    0.22
   3   0  -6   31.70    1.31
   3   0  -6   31.80    1.47
  -3   0   6   31.07    1.46
  -3   0   6   32.04    1.32
   2   0  -6   99.28    4.00
   2   0  -6  106.01    4.46
  -2   0   6  102.27    4.01
  -2   0   6  105.89    4.44
   1   0  -6  194.27    7.58
   1   0  -6  201.90    8.62
  -1   0   6  198.09    8.41
  -1   0   6  196.87    7.58
   0   0  -6   69.04    2.96
   0   0  -6   64.46    2.63
   0   0   6   67.59    2.64
   0   0   6   68.71    2.93
  -1   0  -6   32.44    1.49
  -1   0  -6   30.83    1.30
   1   0   6   31.72    1.45
  -2   0  -6    3.85    0.28
  -2   0  -6    4.27    0.40
   2   0   6    3.79    0.36
  -3   0  -6   18.21    0.80
  -3   0  -6   18.08    0.99
   3   0   6   18.34    0.95
  -4   0  -6    0.60    0.30
   4   0   6    0.89    0.28
  -5   0  -6   51.34    2.43
   5   0   6   51.11    2.38
  -6   0  -6   35.24    1.80
   6   0   6   33.89    1.73
  -7   0  -6   20.17    1.28
   7   0   6   18.79    1.21
   8   0   6    0.45    0.50
   9  -1  -6    1.36    0.49
  -9   1   6    1.88    0.38
  -9   1   6    1.56    0.46
   8  -1  -6   66.47    3.08
  -8   1   6   64.46    2.74
  -8   1   6   69.30    3.07
   7  -1  -6   92.98    3.71
   7  -1  -6   93.98    4.16
  -7   1   6   93.20    4.14
  -7   1   6   94.36    3.73
   6  -1  -6   18.21    0.90
   6  -1  -6   19.17    1.04
  -6   1   6   19.55    1.03
  -6   1   6   20.95    0.94
   5  -1  -6    0.18    0.23
   5  -1  -6    0.01    0.18
  -5   1   6    0.33    0.22
  -5   1   6   -0.04    0.20
   4  -1  -6   15.75    0.72
   4  -1  -6   15.46    0.80
  -4   1   6   14.72    0.72
  -4   1   6   15.30    0.78
   3  -1  -6   42.41    1.75
   3  -1  -6   42.60    1.94
  -3   1   6   43.82    1.76
  -3   1   6   44.72    1.93
   2  -1  -6   67.69    3.14
   2  -1  -6   74.87    2.85
   2  -1  -6   75.00    3.16
  -2   1   6   74.56    3.14
  -2   1   6   70.75    2.84
   1  -1  -6   57.51    2.66
   1  -1  -6   62.89    2.70
   1  -1  -6   61.86    2.41
  -1   1   6   62.73    2.41
  -1   1   6   61.98    2.67
   0  -1  -6  273.23   12.72
   0  -1  -6  299.26   12.94
   0  -1  -6  315.15   11.47
   0   1   6  308.87   11.55
   0   1   6  304.96   12.92
  -1  -1  -6   56.93    2.19
  -1  -1  -6   55.44    2.49
   1   1   6   54.17    2.44
  -2  -1  -6   44.42    1.72
  -2  -1  -6   41.38    1.99
   2   1   6   43.56    1.95
  -3  -1  -6    0.65    0.27
  -3  -1  -6    0.90    0.17
   3   1   6    0.93    0.27
  -4  -1  -6    1.00    0.18
  -4  -1  -6    0.86    0.35
   4   1   6    0.97    0.30
  -5  -1  -6    3.05    0.26
  -5  -1  -6    2.46    0.49
   5   1   6    2.79    0.43
  -6  -1  -6    3.87    0.60
   6   1   6    4.17    0.54
  -7  -1  -6    6.64    0.74
   7   1   6    6.75    0.69
  10  -2  -6   44.65    2.17
 -10   2   6   43.00    2.13
 -10   2   6   38.96    1.89
   9  -2  -6    0.89    0.44
  -9   2   6    0.72    0.35
  -9   2   6    1.08    0.40
   8  -2  -6   23.13    1.26
  -8   2   6   21.25    1.10
  -8   2   6   22.65    1.21
   7  -2  -6    6.60    0.61
   7  -2  -6    5.56    0.52
  -7   2   6    6.82    0.56
  -7   2   6    6.30    0.54
   6  -2  -6   77.85    3.05
   6  -2  -6   75.55    3.39
  -6   2   6   75.39    3.06
  -6   2   6   76.89    3.37
   5  -2  -6   70.81    3.11
   5  -2  -6   71.76    2.81
  -5   2   6   69.91    3.09
  -5   2   6   69.44    2.81
   4  -2  -6   93.23    4.06
   4  -2  -6   87.25    4.05
   4  -2  -6   95.17    3.67
  -4   2   6   94.86    3.67
  -4   2   6   97.84    4.05
   3  -2  -6  463.61   19.90
   3  -2  -6  429.65   19.54
   3  -2  -6  460.76   17.82
  -3   2   6  473.96   19.76
  -3   2   6  482.47   17.74
   2  -2  -6  231.46    9.65
   2  -2  -6  210.23    9.46
   2  -2  -6  227.41    8.55
  -2   2   6  221.33    9.46
  -2   2   6  224.10    8.55
   1  -2  -6    2.22    0.21
   1  -2  -6    2.35    0.22
  -1   2   6    1.80    0.20
  -1   2   6    1.96    0.21
   0  -2  -6  118.36    4.93
   0  -2  -6   97.58    4.88
   0  -2  -6  117.17    4.40
   0   2   6  119.18    4.40
   0   2   6  116.84    4.88
  -1  -2  -6    5.18    0.39
  -1  -2  -6    6.08    0.35
  -1  -2  -6    6.47    0.49
   1   2   6    6.01    0.41
  -2  -2  -6   38.82    1.52
  -2  -2  -6   36.43    1.79
   2   2   6   38.43    1.74
  -3  -2  -6    7.56    0.63
  -3  -2  -6    7.07    0.38
   3   2   6    6.78    0.52
  -4  -2  -6    6.71    0.41
  -4  -2  -6    7.57    0.70
   4   2   6    8.23    0.61
  -5  -2  -6  170.96    7.31
   5   2   6  162.50    7.23
  -6  -2  -6   40.12    2.04
   6   2   6   37.23    1.93
  10  -3  -6    5.73    0.67
 -10   3   6    4.69    0.55
   9  -3  -6    9.38    0.81
  -9   3   6    9.52    0.76
  -9   3   6    9.53    0.71
   8  -3  -6    3.10    0.46
  -8   3   6    2.92    0.40
  -8   3   6    2.62    0.38
   7  -3  -6   40.73    1.94
   7  -3  -6   40.47    1.74
  -7   3   6   40.53    1.90
  -7   3   6   41.67    1.76
   6  -3  -6  354.40   14.81
   6  -3  -6  359.58   13.37
  -6   3   6  333.86   13.37
  -6   3   6  344.35   14.78
   5  -3  -6   33.88    1.69
   5  -3  -6   40.07    1.72
   5  -3  -6   36.96    1.57
  -5   3   6   38.19    1.58
  -5   3   6   38.01    1.69
   4  -3  -6   29.34    1.38
   4  -3  -6   30.30    1.29
   4  -3  -6   30.92    1.40
  -4   3   6   30.15    1.37
  -4   3   6   30.65    1.29
   3  -3  -6  114.17    4.16
   3  -3  -6  103.86    4.58
   3  -3  -6  104.72    4.58
  -3   3   6  106.07    4.56
  -3   3   6  104.21    4.15
   2  -3  -6    0.64    0.19
   2  -3  -6    0.86    0.18
   2  -3  -6    0.90    0.16
  -2   3   6    1.12    0.16
  -2   3   6    1.15    0.20
   1  -3  -6   50.33    2.14
   1  -3  -6   43.11    2.10
   1  -3  -6   47.11    1.90
  -1   3   6   49.94    1.91
  -1   3   6   48.32    2.09
   0  -3  -6    0.23    0.14
   0  -3  -6    0.40    0.23
   0  -3  -6    0.41    0.16
   0   3   6    0.41    0.15
   0   3   6    0.54    0.15
  -1  -3  -6  135.84    5.59
  -1  -3  -6  135.82    4.95
  -1  -3  -6  110.86    5.53
   1   3   6  132.05    5.53
  -2  -3  -6  176.29    6.85
  -2  -3  -6  182.86    7.73
   2   3   6  177.99    7.67
  -3  -3  -6   78.07    3.17
  -3  -3  -6   87.66    3.72
   3   3   6   82.39    3.63
  -4  -3  -6   75.04    3.42
   4   3   6   73.48    3.32
  -5  -3  -6   55.43    2.69
  10  -4  -6    9.83    0.86
 -10   4   6    8.13    0.71
   9  -4  -6   22.11    1.24
  -9   4   6   21.35    1.13
   8  -4  -6    3.84    0.48
  -8   4   6    3.61    0.40
  -8   4   6    3.18    0.45
   7  -4  -6    6.02    0.57
  -7   4   6    6.59    0.53
  -7   4   6    5.49    0.47
   6  -4  -6   12.22    0.73
   6  -4  -6   14.20    0.75
   6  -4  -6   14.46    0.77
  -6   4   6   13.54    0.75
  -6   4   6   14.41    0.72
   5  -4  -6    2.16    0.28
   5  -4  -6    1.56    0.26
   5  -4  -6    1.74    0.23
  -5   4   6    1.88    0.29
  -5   4   6    2.13    0.23
   4  -4  -6   24.52    1.09
   4  -4  -6   23.19    1.14
   4  -4  -6   26.16    1.17
  -4   4   6   24.53    1.12
  -4   4   6   25.18    1.10
   3  -4  -6   39.70    1.58
   3  -4  -6   37.74    1.72
  -3   4   6   36.96    1.67
  -3   4   6   38.64    1.58
   2  -4  -6   58.03    2.49
   2  -4  -6   56.51    2.25
  -2   4   6   57.26    2.24
  -2   4   6   53.51    2.43
   1  -4  -6   19.98    1.07
   1  -4  -6   24.88    1.12
   1  -4  -6   23.85    0.98
  -1   4   6   22.37    1.04
  -1   4   6   23.49    0.97
   0  -4  -6    0.26    0.14
   0  -4  -6    0.23    0.16
   0  -4  -6    0.82    0.26
   0   4   6    0.30    0.14
   0   4   6    0.33    0.15
  -1  -4  -6   18.63    0.78
  -1  -4  -6   15.85    0.93
  -1  -4  -6   20.24    1.02
   1   4   6   18.95    0.91
  -2  -4  -6    1.05    0.12
  -2  -4  -6    0.65    0.31
   2   4   6    1.05    0.25
  -3  -4  -6   22.62    1.28
  -4  -4  -6   -0.25    0.42
  -5  -4  -6    1.27    0.54
  10  -5  -6   10.83    0.91
   9  -5  -6    0.20    0.35
  -9   5   6   -0.05    0.33
   8  -5  -6  111.34    4.75
  -8   5   6  104.36    4.32
   7  -5  -6   58.70    2.62
  -7   5   6   57.00    2.42
   6  -5  -6   19.14    0.99
  -6   5   6   20.05    0.97
  -6   5   6   18.56    0.92
   5  -5  -6   50.22    1.94
   5  -5  -6   45.42    2.07
  -5   5   6   47.45    1.93
  -5   5   6   42.61    2.01
   4  -5  -6    0.96    0.25
   4  -5  -6    1.02    0.22
   4  -5  -6    0.93    0.18
  -4   5   6    1.10    0.25
   3  -5  -6   10.63    0.60
   3  -5  -6   11.77    0.63
   3  -5  -6   12.34    0.63
  -3   5   6   11.97    0.61
   2  -5  -6   39.69    1.60
   2  -5  -6   40.54    1.76
   2  -5  -6   35.58    1.74
  -2   5   6   39.67    1.59
   1  -5  -6   24.13    1.17
   1  -5  -6   23.05    1.01
  -1   5   6   23.65    1.00
   0  -5  -6  108.45    4.59
   0  -5  -6  104.11    4.07
   0   5   6  106.78    4.06
   0   5   6  100.97    4.50
  -1  -5  -6   88.80    3.94
  -2  -5  -6    2.03    0.40
  -3  -5  -6   16.85    1.10
  -4  -5  -6    6.27    0.70
  10  -6  -6   46.02    2.24
   9  -6  -6    3.84    0.47
  -9   6   6    3.43    0.49
   8  -6  -6   23.09    1.22
  -8   6   6   23.37    1.18
   7  -6  -6    2.13    0.34
  -7   6   6    2.22    0.38
   6  -6  -6  113.21    4.91
  -6   6   6  113.69    4.50
   5  -6  -6   38.19    1.81
   5  -6  -6   41.75    1.83
   5  -6  -6   40.81    1.72
  -5   6   6   40.87    1.73
   4  -6  -6    0.76    0.17
   4  -6  -6    0.66    0.26
   4  -6  -6    0.83    0.22
  -4   6   6    0.71    0.27
   3  -6  -6  165.35    7.97
   3  -6  -6  188.30    7.98
   3  -6  -6  204.43    7.26
  -3   6   6  191.33    7.24
   2  -6  -6   56.48    2.84
   2  -6  -6   69.02    2.59
  -2   6   6   68.89    2.58
   1  -6  -6    3.31    0.37
  -1   6   6    3.65    0.32
   0  -6  -6   98.13    4.26
   0   6   6   95.39    3.74
  -1  -6  -6   12.12    0.84
  -2  -6  -6   29.39    1.56
   9  -7  -6    0.65    0.35
   8  -7  -6    0.21    0.29
  -8   7   6   -0.03    0.37
   7  -7  -6   20.21    1.06
  -7   7   6   20.25    1.07
   6  -7  -6   58.36    2.58
  -6   7   6   57.43    2.42
   5  -7  -6   36.65    1.68
  -5   7   6   37.44    1.62
   4  -7  -6   12.98    0.70
   4  -7  -6   14.18    0.72
  -4   7   6   13.57    0.73
   3  -7  -6   47.83    2.14
  -3   7   6   48.34    1.98
  -2   7   6   10.67    0.58
   1  -7  -6    9.11    0.65
  -1   7   6    8.39    0.47
   0  -7  -6    0.15    0.32
  -1  -7  -6   15.88    1.03
   9  -8  -6    1.38    0.38
   8  -8  -6    1.05    0.33
  -8   8   6    0.81    0.40
   7  -8  -6    0.76    0.28
  -7   8   6    1.02    0.38
   6  -8  -6    4.12    0.37
  -6   8   6    3.69    0.45
   5  -8  -6   13.78    0.72
  -5   8   6   12.60    0.78
   4  -8  -6   10.88    0.61
  -4   8   6   10.06    0.64
   3  -8  -6    0.25    0.22
  -3   8   6    0.64    0.25
  -2   8   6    3.35    0.30
   1  -8  -6    1.37    0.34
   7  -9  -6   23.75    1.14
  -7   9   6   21.39    1.20
   6  -9  -6    4.94    0.44
  -6   9   6    4.58    0.49
   5  -9  -6   11.31    0.62
  -5   9   6   10.21    0.70
   4  -9  -6   22.44    1.07
  -4   9   6   21.76    1.07
   3  -9  -6    3.61    0.35
   1 -10   7   37.74    1.79
   2 -10   7   59.92    2.69
   3 -10   7   16.32    0.90
   4 -10   7   34.78    1.65
   5 -10   7    0.06    0.31
   6 -10   7   13.98    0.90
   7 -10   7   29.93    1.56
  -1  -9   7   47.56    2.25
   0  -9   7    1.53    0.36
  -1   9  -7   24.89    1.13
   1  -9   7   24.41    1.24
   2  -9   7   -0.05    0.25
   3  -9   7   37.88    1.77
   4  -9   7   62.17    2.80
   5  -9   7   15.53    0.91
   6  -9   7  121.00    5.31
   7  -9   7   49.60    2.35
   8  -9   7    0.54    0.40
  -2  -8   7    1.90    0.42
   1   8  -7    1.66    0.25
  -1  -8   7    2.23    0.39
   0   8  -7    8.41    0.52
   0  -8   7    8.47    0.64
  -1   8  -7    1.50    0.26
   1  -8   7    1.39    0.30
   2  -8   7   27.83    1.35
   3  -8   7   83.05    3.65
   4  -8   7   15.32    0.87
   5  -8   7    7.59    0.63
   6  -8   7    9.25    0.73
   7  -8   7    5.56    0.55
   8  -8   7    1.64    0.44
  -4  -7   7   -0.03    0.41
  -3  -7   7   39.67    1.95
   2   7  -7   45.94    1.89
  -2  -7   7   47.89    2.20
   1   7  -7    0.02    0.18
  -1  -7   7    0.27    0.28
   0   7  -7    1.52    0.24
   0  -7   7    1.23    0.29
   1  -7   7   23.94    1.18
   3  -7   7    0.32    0.23
   4  -7   7   68.45    3.06
   5  -7   7    3.51    0.42
   6  -7   7   86.00    3.83
   7  -7   7   10.66    0.81
   8  -7   7    2.27    0.48
   9  -7   7    0.39    0.46
  -5  -6   7   17.90    1.16
  -4  -6   7   18.04    1.12
   3   6  -7    6.40    0.43
  -3  -6   7    7.68    0.68
   2   6  -7   76.22    3.43
   2   6  -7   78.92    3.07
  -2  -6   7   78.65    3.46
   1   6  -7  153.71    6.69
   1   6  -7  159.32    6.04
  -1  -6   7  155.06    6.72
   0   6  -7    4.00    0.33
   0   6  -7    3.01    0.30
   0  -6   7    3.05    0.30
   0  -6   7    3.83    0.36
  -1   6  -7  237.04    9.92
   1  -6   7  222.73    9.94
   1  -6   7  240.44    9.96
  -2   6  -7  217.64    9.07
   2  -6   7  193.87    9.09
   2  -6   7  228.60    9.12
  -3   6  -7   75.38    3.20
   3  -6   7   78.54    3.25
   3  -6   7   66.61    3.21
  -4   6  -7   17.07    0.88
   4  -6   7   20.70    0.96
   4  -6   7   14.92    0.87
  -5   6  -7   34.75    1.65
   5  -6   7   35.41    1.68
  -6   6  -7    0.24    0.26
   6  -6   7    0.13    0.30
   7  -6   7   34.84    1.75
   8  -6   7    2.79    0.51
   9  -6   7   41.56    2.13
  -6  -5   7    1.28    0.50
  -5  -5   7   18.35    1.14
   4   5  -7   35.47    1.71
   4   5  -7   35.45    1.47
  -4  -5   7   35.69    1.77
   3   5  -7   10.20    0.54
   3   5  -7    9.98    0.66
  -3  -5   7   10.86    0.72
   2   5  -7  391.57   14.72
   2   5  -7  381.38   16.34
  -2  -5   7  381.78   16.36
   1   5  -7  120.35    5.07
   1   5  -7  126.15    4.57
  -1  -5   7  105.22    5.07
  -1  -5   7  118.27    5.09
   0   5  -7    0.26    0.18
   0   5  -7    0.07    0.15
   0  -5   7    0.29    0.21
   0  -5   7    0.48    0.17
  -1   5  -7   59.14    2.59
   1  -5   7   61.77    2.62
   1  -5   7   56.52    2.61
  -2   5  -7   25.30    1.18
   2  -5   7   22.87    1.17
   2  -5   7   26.81    1.20
  -3   5  -7   72.50    3.17
   3  -5   7   76.28    3.18
   3  -5   7   67.02    3.15
  -4   5  -7   51.88    2.25
   4  -5   7   54.87    2.26
   4  -5   7   41.54    2.20
  -5   5  -7   13.80    0.83
   5  -5   7   14.56    0.84
  -6   5  -7  238.56    9.99
   6  -5   7  225.52    9.97
  -7   5  -7  117.43    5.20
   7  -5   7  117.78    5.19
  -8   5  -7    0.63    0.40
   8  -5   7    0.25    0.41
   9  -5   7   21.49    1.34
   6   4  -7   13.50    0.93
  -6  -4   7   14.76    1.02
   5   4  -7   36.71    1.83
   5   4  -7   37.38    1.56
  -5  -4   7   39.61    1.89
   4   4  -7    3.45    0.41
   4   4  -7    3.56    0.30
  -4  -4   7    3.44    0.43
   3   4  -7  107.46    4.69
   3   4  -7  110.27    4.19
  -3  -4   7  104.87    4.69
   2   4  -7    2.38    0.25
   2   4  -7    2.89    0.31
  -2  -4   7    1.98    0.30
   1   4  -7    2.28    0.24
   1   4  -7    2.04    0.25
  -1  -4   7    1.72    0.27
  -1  -4   7    2.26    0.27
   0   4  -7    4.87    0.36
   0   4  -7    4.32    0.36
   0  -4   7    4.74    0.38
   0  -4   7    4.10    0.34
  -1   4  -7   22.39    1.08
   1  -4   7   22.91    1.09
  -2   4  -7  111.86    4.82
   2  -4   7  102.42    4.80
   2  -4   7  119.34    4.82
  -3   4  -7  141.13    6.23
   3  -4   7  147.57    6.22
  -4   4  -7    4.87    0.45
   4  -4   7    3.82    0.38
  -5   4  -7    5.84    0.56
   5  -4   7    5.36    0.54
  -6   4  -7    2.95    0.44
   6  -4   7    1.97    0.39
  -7   4  -7   21.51    1.25
   7  -4   7   22.13    1.26
  -8   4  -7    0.32    0.40
   8  -4   7    0.22    0.44
  -9   4  -7    0.64    0.51
  -9   4  -7    0.67    0.33
   9  -4   7    1.48    0.54
   7   3  -7   15.16    1.04
  -7  -3   7   15.93    1.10
   6   3  -7   80.37    3.72
  -6  -3   7   87.70    3.76
  -6  -3   7   80.35    3.28
   5   3  -7   21.11    1.12
   5   3  -7   20.95    0.93
  -5  -3   7   21.13    1.15
  -5  -3   7   18.87    0.95
   4   3  -7  164.88    7.12
   4   3  -7  162.95    6.37
  -4  -3   7  167.25    6.38
  -4  -3   7  164.58    7.12
   3   3  -7  119.99    4.64
   3   3  -7  117.32    5.18
  -3  -3   7  119.94    5.19
  -3  -3   7  120.83    4.65
   2   3  -7   78.04    3.38
   2   3  -7   77.08    3.03
  -2  -3   7   76.21    3.38
   1   3  -7    1.31    0.19
   1   3  -7    1.70    0.24
  -1  -3   7    1.26    0.22
   0   3  -7    3.42    0.34
   0   3  -7    3.40    0.28
   0  -3   7    3.20    0.30
  -1   3  -7    6.89    0.46
  -1   3  -7    6.60    0.41
   1  -3   7    6.40    0.45
  -2   3  -7   74.63    3.36
   2  -3   7   77.61    3.34
  -3   3  -7    9.00    0.61
   3  -3   7    9.48    0.60
  -4   3  -7   67.23    2.98
   4  -3   7   64.61    2.94
  -5   3  -7  192.10    8.31
   5  -3   7  192.21    8.28
  -6   3  -7   24.84    1.32
   6  -3   7   23.35    1.29
  -7   3  -7    0.94    0.40
   7  -3   7    1.64    0.47
  -8   3  -7    1.49    0.50
   8  -3   7    0.89    0.47
   8   2  -7    1.30    0.49
  -8  -2   7    1.64    0.56
   7   2  -7  105.37    4.63
  -7  -2   7  107.28    4.64
  -7  -2   7   98.59    4.08
   6   2  -7  148.26    6.05
   6   2  -7  158.42    6.80
  -6  -2   7  155.92    6.07
  -6  -2   7  162.67    6.81
   5   2  -7   41.98    2.01
   5   2  -7   43.71    1.75
  -5  -2   7   42.93    1.77
  -5  -2   7   41.84    2.01
   4   2  -7   38.41    1.80
   4   2  -7   38.44    1.57
  -4  -2   7   37.38    1.79
  -4  -2   7   39.09    1.59
   3   2  -7    9.84    0.54
   3   2  -7   11.16    0.64
  -3  -2   7   10.47    0.55
  -3  -2   7   10.29    0.63
   2   2  -7   25.95    1.28
   2   2  -7   27.27    1.14
  -2  -2   7   27.36    1.28
  -2  -2   7   27.49    1.15
   1   2  -7   51.54    2.05
   1   2  -7   51.30    2.29
  -1  -2   7   51.69    2.06
  -1  -2   7   51.48    2.28
   0   2  -7   41.03    1.74
   0   2  -7   45.71    1.96
  -1   2  -7  427.56   18.69
  -1   2  -7  448.65   16.70
   1  -2   7  428.65   18.92
  -2   2  -7  418.56   18.13
   2  -2   7  421.97   18.16
  -3   2  -7   42.25    2.05
   3  -2   7   46.12    2.03
  -4   2  -7   54.40    2.47
   4  -2   7   52.49    2.43
  -5   2  -7   18.70    1.05
   5  -2   7   16.90    1.00
  -6   2  -7    5.61    0.58
   6  -2   7    6.78    0.61
  -7   2  -7   10.76    0.89
   7  -2   7    9.22    0.84
  -8   2  -7   -0.05    0.48
   8  -2   7   -0.18    0.46
   8   1  -7    8.36    0.83
  -8  -1   7    8.22    0.64
  -8  -1   7    8.62    0.85
   7   1  -7   11.69    0.85
   7   1  -7   11.10    0.66
  -7  -1   7   11.46    0.69
  -7  -1   7   12.20    0.87
   6   1  -7    6.38    0.58
   6   1  -7    5.60    0.44
  -6  -1   7    6.04    0.49
  -6  -1   7    5.07    0.51
   5   1  -7   24.27    1.08
   5   1  -7   24.19    1.26
  -5  -1   7   24.26    1.25
  -5  -1   7   26.22    1.13
   4   1  -7   33.54    1.39
   4   1  -7   33.38    1.56
  -4  -1   7   33.79    1.40
  -4  -1   7   32.02    1.56
   3   1  -7   40.05    1.82
   3   1  -7   39.68    1.61
  -3  -1   7   39.01    1.81
  -3  -1   7   40.04    1.63
   2   1  -7  616.77   25.96
   2   1  -7  586.23   23.11
  -2  -1   7  609.81   26.00
  -2  -1   7  600.46   23.31
   1   1  -7  317.35   13.32
   1   1  -7  299.67   11.80
  -1  -1   7  299.11   13.21
  -1  -1   7  307.33   11.82
   0   1  -7    0.26    0.21
   0   1  -7   -0.12    0.15
   0  -1   7    1.09    0.21
  -1   1  -7   81.01    3.61
  -1   1  -7   83.74    3.22
   1  -1   7   82.34    3.58
  -2   1  -7  168.12    6.51
  -2   1  -7  171.53    7.28
   2  -1   7  167.16    7.24
  -3   1  -7    4.05    0.43
   3  -1   7    2.98    0.34
  -4   1  -7    7.66    0.64
   4  -1   7    7.16    0.58
  -5   1  -7    5.15    0.56
   5  -1   7    4.08    0.49
  -6   1  -7  148.65    6.42
   6  -1   7  142.82    6.37
  -7   1  -7   52.02    2.53
   7  -1   7   50.81    2.48
  -8   1  -7    3.50    0.65
   8  -1   7    3.87    0.64
   9   0  -7    5.33    0.67
  -9   0   7    5.94    0.68
  -9   0   7    5.27    0.51
   8   0  -7    0.71    0.41
  -8   0   7    1.35    0.33
  -8   0   7    1.51    0.44
   7   0  -7   55.39    2.50
   7   0  -7   51.26    2.17
  -7   0   7   51.22    2.19
  -7   0   7   54.30    2.48
   6   0  -7   50.53    2.27
   6   0  -7   47.35    1.99
  -6   0   7   48.29    2.01
  -6   0   7   48.14    2.25
   5   0  -7   28.96    1.25
   5   0  -7   27.67    1.41
  -5   0   7   29.28    1.41
  -5   0   7   30.23    1.27
   4   0  -7    9.68    0.60
   4   0  -7    9.21    0.53
  -4   0   7    9.66    0.59
  -4   0   7    9.26    0.54
   3   0  -7    0.51    0.20
   3   0  -7    0.94    0.19
  -3   0   7    1.66    0.24
  -3   0   7    0.66    0.21
   2   0  -7    8.13    0.45
   2   0  -7    7.97    0.51
  -2   0   7    7.97    0.47
  -2   0   7    8.21    0.49
   1   0  -7   44.84    1.78
   1   0  -7   46.58    2.00
  -1   0   7   43.89    1.96
  -1   0   7   41.49    1.78
   0   0  -7    8.43    0.45
   0   0  -7    9.75    0.56
   0   0   7    8.58    0.50
   0   0   7    7.44    0.45
  -1   0  -7   25.11    1.20
   1   0   7   23.12    1.14
  -2   0  -7   71.25    3.10
  -2   0  -7   68.71    2.72
   2   0   7   67.89    3.05
  -3   0  -7   88.50    3.98
  -3   0  -7   92.10    3.51
   3   0   7   88.25    3.93
  -4   0  -7   15.33    0.72
  -4   0  -7   15.00    0.95
   4   0   7   15.25    0.89
  -5   0  -7   22.21    1.23
  -5   0  -7   20.37    0.95
   5   0   7   20.78    1.16
  -6   0  -7   21.28    0.96
  -6   0  -7   21.83    1.30
   6   0   7   20.29    1.21
  -7   0  -7   18.26    1.25
   7   0   7   18.36    1.19
   9  -1  -7    0.60    0.44
  -9   1   7    0.49    0.34
  -9   1   7    0.71    0.43
   8  -1  -7    8.35    0.76
  -8   1   7    9.61    0.66
  -8   1   7    8.98    0.76
   7  -1  -7   17.79    0.90
   7  -1  -7   17.81    1.05
  -7   1   7   17.64    0.94
  -7   1   7   18.13    1.02
   6  -1  -7   69.57    2.86
   6  -1  -7   74.12    3.21
  -6   1   7   70.88    2.88
  -6   1   7   71.47    3.19
   5  -1  -7   29.24    1.42
   5  -1  -7   28.59    1.26
  -5   1   7   29.61    1.28
  -5   1   7   30.00    1.40
   4  -1  -7  148.50    5.81
   4  -1  -7  148.12    6.45
  -4   1   7  151.42    5.82
  -4   1   7  152.36    6.44
   3  -1  -7  431.16   18.31
   3  -1  -7  416.98   16.11
  -3   1   7  405.58   16.00
  -3   1   7  422.84   17.96
   2  -1  -7  203.09    8.37
   2  -1  -7  189.43    7.53
  -2   1   7  196.46    7.54
  -2   1   7  195.10    8.35
   1  -1  -7    0.38    0.16
   1  -1  -7    0.08    0.18
  -1   1   7    0.13    0.16
  -1   1   7    0.49    0.17
   0  -1  -7   35.27    1.38
   0  -1  -7   31.15    1.56
   0   1   7   34.29    1.37
   0   1   7   33.60    1.53
  -1  -1  -7   86.70    3.41
  -1  -1  -7   86.66    3.84
   1   1   7   88.75    3.80
  -2  -1  -7   39.60    1.59
  -2  -1  -7   40.67    1.87
   2   1   7   38.08    1.80
  -3  -1  -7   10.46    0.74
  -3  -1  -7   10.52    0.55
   3   1   7   10.99    0.68
  -4  -1  -7   28.40    1.52
  -4  -1  -7   29.39    1.22
   4   1   7   29.01    1.45
  -5  -1  -7  105.67    4.18
  -5  -1  -7  110.17    4.82
   5   1   7  106.59    4.74
  -6  -1  -7   19.45    1.25
   6   1   7   17.98    1.13
  -7  -1  -7    2.06    0.60
   7   1   7    2.26    0.55
   9  -2  -7   17.75    1.13
  -9   2   7   16.76    1.08
  -9   2   7   16.59    0.98
   8  -2  -7    1.28    0.43
  -8   2   7    0.87    0.34
  -8   2   7    1.28    0.34
   7  -2  -7  191.34    8.00
  -7   2   7  181.54    7.20
  -7   2   7  181.72    7.96
   6  -2  -7  190.81    7.63
   6  -2  -7  203.85    8.48
  -6   2   7  196.06    8.45
  -6   2   7  198.05    7.65
   5  -2  -7   22.13    1.00
   5  -2  -7   22.52    1.11
  -5   2   7   21.06    1.00
  -5   2   7   21.93    1.08
   4  -2  -7  107.07    4.13
   4  -2  -7  104.11    4.57
  -4   2   7  102.56    4.13
  -4   2   7  107.92    4.55
   3  -2  -7   48.97    2.01
   3  -2  -7   49.60    2.23
   3  -2  -7   46.56    2.21
  -3   2   7   51.09    2.02
  -3   2   7   53.46    2.21
   2  -2  -7    1.43    0.23
   2  -2  -7    1.66    0.21
   2  -2  -7    1.42    0.22
  -2   2   7    1.45    0.21
  -2   2   7    1.55    0.22
   1  -2  -7  101.37    4.82
   1  -2  -7  118.18    4.86
   1  -2  -7  112.54    4.35
  -1   2   7  116.70    4.82
   0  -2  -7    2.86    0.28
   0  -2  -7    3.04    0.34
   0  -2  -7    2.65    0.25
   0   2   7    3.07    0.28
   0   2   7    3.08    0.25
  -1  -2  -7  287.23   12.18
  -1  -2  -7  285.18   10.91
   1   2   7  283.25   12.13
  -2  -2  -7  263.76   11.39
  -2  -2  -7  267.07   10.18
   2   2   7  266.82   11.34
  -3  -2  -7   18.54    1.09
  -3  -2  -7   17.91    0.80
   3   2   7   18.68    1.00
  -4  -2  -7   62.51    2.51
  -4  -2  -7   65.44    2.99
   4   2   7   64.50    2.90
  -5  -2  -7   51.98    2.46
   5   2   7   47.89    2.34
  -6  -2  -7    3.88    0.67
  10  -3  -7   56.44    2.59
 -10   3   7   48.96    2.30
   9  -3  -7   25.87    1.37
  -9   3   7   23.69    1.30
  -9   3   7   22.57    1.23
   8  -3  -7    5.87    0.58
  -8   3   7    5.97    0.58
  -8   3   7    5.84    0.55
   7  -3  -7   10.27    0.74
  -7   3   7   10.18    0.67
  -7   3   7   10.08    0.68
   6  -3  -7   10.96    0.66
   6  -3  -7   11.62    0.70
  -6   3   7   10.18    0.66
  -6   3   7   10.86    0.65
   5  -3  -7    5.42    0.47
   5  -3  -7    4.93    0.43
  -5   3   7    4.97    0.41
  -5   3   7    5.02    0.41
   4  -3  -7    0.21    0.20
   4  -3  -7    0.29    0.17
   4  -3  -7    0.41    0.21
  -4   3   7    0.37    0.23
  -4   3   7    0.26    0.17
   3  -3  -7   16.64    0.79
   3  -3  -7   17.29    0.87
   3  -3  -7   15.76    0.83
  -3   3   7   17.38    0.80
  -3   3   7   17.49    0.82
   2  -3  -7  149.89    6.92
   2  -3  -7  161.62    6.94
   2  -3  -7  166.97    6.26
  -2   3   7  167.10    6.26
  -2   3   7  164.82    6.91
   1  -3  -7   96.88    3.61
   1  -3  -7   93.50    4.03
   1  -3  -7   83.11    3.99
  -1   3   7   95.22    3.60
  -1   3   7   92.75    3.98
   0  -3  -7    1.16    0.21
   0  -3  -7    1.19    0.28
   0  -3  -7    1.39    0.20
   0   3   7    1.21    0.18
   0   3   7    1.18    0.20
  -1  -3  -7   77.03    3.04
  -1  -3  -7   79.06    3.47
   1   3   7   77.78    3.41
  -2  -3  -7  103.66    4.20
  -2  -3  -7  115.76    4.81
   2   3   7  107.80    4.73
  -3  -3  -7    3.43    0.50
  -3  -3  -7    3.11    0.25
   3   3   7    3.84    0.41
  -4  -3  -7    0.90    0.45
   4   3   7    1.23    0.35
  -5  -3  -7    0.32    0.50
  10  -4  -7    2.82    0.52
   9  -4  -7   13.15    0.92
  -9   4   7   11.39    0.82
   8  -4  -7   41.61    1.96
  -8   4   7   38.99    1.79
   7  -4  -7   15.10    0.90
  -7   4   7   15.04    0.82
  -7   4   7   14.63    0.84
   6  -4  -7    8.33    0.59
   6  -4  -7    8.95    0.61
  -6   4   7    8.41    0.53
  -6   4   7    7.22    0.58
   5  -4  -7   27.01    1.15
   5  -4  -7   25.53    1.21
   5  -4  -7   22.25    1.18
  -5   4   7   24.68    1.13
  -5   4   7   25.53    1.17
   4  -4  -7    3.63    0.36
   4  -4  -7    3.63    0.33
   4  -4  -7    3.05    0.30
  -4   4   7    3.03    0.32
  -4   4   7    3.48    0.29
   3  -4  -7    3.11    0.30
   3  -4  -7    2.55    0.25
   3  -4  -7    3.18    0.31
  -3   4   7    3.07    0.27
  -3   4   7    3.22    0.31
   2  -4  -7   13.10    0.68
   2  -4  -7   10.85    0.62
   2  -4  -7   11.53    0.61
  -2   4   7   11.89    0.60
  -2   4   7   11.88    0.61
   1  -4  -7   10.38    0.62
   1  -4  -7    8.35    0.55
   1  -4  -7   10.13    0.52
  -1   4   7    9.60    0.53
  -1   4   7   10.10    0.52
   0  -4  -7   43.76    2.06
   0  -4  -7   44.54    1.79
   0   4   7   44.56    1.98
   0   4   7   45.17    1.78
  -1  -4  -7   25.07    1.04
  -1  -4  -7   25.81    1.31
   1   4   7   24.27    1.19
  -2  -4  -7    6.39    0.59
  -2  -4  -7    5.84    0.33
  -3  -4  -7   21.36    1.26
  -4  -4  -7    0.45    0.46
  10  -5  -7   16.69    1.11
   9  -5  -7    0.55    0.39
  -9   5   7    0.81    0.38
   8  -5  -7    4.58    0.50
  -8   5   7    5.32    0.51
   7  -5  -7    5.47    0.54
  -7   5   7    5.84    0.51
   6  -5  -7    1.68    0.30
  -6   5   7    1.62    0.33
   5  -5  -7   65.18    3.03
   5  -5  -7   71.48    3.05
   5  -5  -7   73.73    2.81
  -5   5   7   64.61    2.99
  -5   5   7   71.61    2.80
   4  -5  -7   65.08    2.93
   4  -5  -7   70.18    2.70
  -4   5   7   64.96    2.69
   3  -5  -7  215.61    7.90
   3  -5  -7  197.33    8.72
  -3   5   7  199.98    7.88
   2  -5  -7   92.13    4.10
   2  -5  -7   94.59    3.70
  -2   5   7   95.55    3.69
   1  -5  -7   30.27    1.24
   1  -5  -7   29.23    1.41
  -1   5   7   29.24    1.22
  -1   5   7   27.63    1.32
   0  -5  -7   35.01    1.69
   0  -5  -7   34.13    1.43
   0   5   7   35.61    1.42
  -1  -5  -7   -0.03    0.33
  -2  -5  -7    8.68    0.78
  -3  -5  -7    6.86    0.72
   9  -6  -7   14.32    0.95
   8  -6  -7    0.42    0.32
  -8   6   7    0.13    0.33
   7  -6  -7   89.63    3.96
  -7   6   7   90.36    3.64
   6  -6  -7  109.24    4.75
  -6   6   7  109.45    4.35
   5  -6  -7   20.25    1.00
  -5   6   7   19.44    0.98
   4  -6  -7   88.66    3.83
   4  -6  -7   84.63    3.50
  -4   6   7   90.65    3.51
   3  -6  -7   89.09    3.62
   3  -6  -7   94.90    3.99
  -3   6   7   90.54    3.62
   2  -6  -7    0.11    0.23
   2  -6  -7    0.02    0.20
  -2   6   7    0.02    0.20
   1  -6  -7   11.48    0.60
   1  -6  -7   11.13    0.74
  -1   6   7   12.07    0.59
   0  -6  -7   13.18    0.87
   0   6   7   13.29    0.61
  -1  -6  -7   33.24    1.69
  -2  -6  -7   70.37    3.27
   9  -7  -7    9.45    0.78
   8  -7  -7   -0.09    0.31
  -8   7   7    0.16    0.39
   7  -7  -7   12.56    0.77
  -7   7   7   11.17    0.78
   6  -7  -7   13.60    0.79
  -6   7   7   13.66    0.81
   5  -7  -7    0.72    0.25
  -5   7   7    1.02    0.32
   4  -7  -7    0.21    0.21
  -4   7   7    0.35    0.27
   3  -7  -7    2.12    0.30
  -3   7   7    2.12    0.30
   2  -7  -7   23.90    1.19
  -2   7   7   23.45    1.06
   1  -7  -7   34.14    1.61
  -1   7   7   31.73    1.35
   0  -7  -7   -0.10    0.34
  -1  -7  -7   47.46    2.31
   8  -8  -7   13.29    0.84
   7  -8  -7   57.76    2.52
  -7   8   7   53.03    2.37
   6  -8  -7    9.68    0.62
  -6   8   7    7.86    0.68
   5  -8  -7    0.18    0.23
  -5   8   7    0.18    0.30
   4  -8  -7   -0.01    0.22
  -4   8   7   -0.06    0.26
   3  -8  -7    0.12    0.25
  -3   8   7    0.52    0.25
   2  -8  -7    5.21    0.48
   1  -8  -7    2.62    0.40
   6  -9  -7    2.98    0.35
   5  -9  -7    7.57    0.54
  -5   9   7    6.78    0.58
   4  -9  -7   19.06    0.97
   2 -10   8   -0.10    0.30
   3 -10   8   25.26    1.29
   4 -10   8   19.33    1.08
   5 -10   8    4.93    0.53
   6 -10   8   51.54    2.43
  -1  -9   8    4.94    0.55
   0  -9   8   35.17    1.72
   1  -9   8    5.35    0.50
   2  -9   8   28.87    1.43
   3  -9   8  184.93    7.96
   4  -9   8   34.35    1.68
   5  -9   8    8.57    0.70
   6  -9   8   34.66    1.74
   7  -9   8    0.44    0.38
  -2  -8   8   12.96    0.91
   1   8  -8   16.10    0.79
  -1  -8   8   15.95    0.97
   0   8  -8   32.47    1.41
   0  -8   8   32.99    1.60
  -1   8  -8   16.37    0.82
   1  -8   8   14.86    0.89
   2  -8   8    9.45    0.67
   3  -8   8    1.06    0.31
   4  -8   8    1.11    0.32
   5  -8   8    5.15    0.52
   6  -8   8   12.72    0.88
   7  -8   8   18.52    1.13
   8  -8   8   10.99    0.89
  -3  -7   8    0.09    0.36
   2   7  -8   29.14    1.27
  -2  -7   8   30.85    1.53
   1   7  -8   67.81    2.69
  -1  -7   8   66.37    3.02
   0   7  -8   12.07    0.63
   0  -7   8   10.48    0.71
  -1   7  -8   67.63    2.68
   1  -7   8   64.56    2.95
   2  -7   8  155.40    6.70
   3  -7   8    2.72    0.36
   4  -7   8    2.51    0.37
   5  -7   8   37.09    1.80
   6  -7   8   37.72    1.86
   7  -7   8    1.65    0.42
   8  -7   8    5.48    0.64
  -5  -6   8   43.67    2.21
  -4  -6   8   37.63    1.91
   3   6  -8   29.30    1.31
  -3  -6   8   33.42    1.59
   2   6  -8  200.37    7.68
  -2  -6   8  197.83    8.57
   1   6  -8  107.55    4.64
   1   6  -8  109.85    4.19
  -1  -6   8  103.21    4.67
   0   6  -8    5.36    0.43
   0   6  -8    5.41    0.40
   0  -6   8    5.28    0.48
  -1   6  -8   93.95    3.41
  -1   6  -8   84.51    3.71
   1  -6   8   75.65    3.73
   1  -6   8   88.36    3.76
  -2   6  -8    0.46    0.18
   2  -6   8    0.02    0.23
   2  -6   8    0.27    0.17
  -3   6  -8    6.79    0.46
   3  -6   8    5.40    0.44
   3  -6   8    6.52    0.53
  -4   6  -8   39.84    1.90
   4  -6   8   42.51    1.94
  -5   6  -8   48.60    2.33
   5  -6   8   52.94    2.37
  -6   6  -8  101.25    4.47
   6  -6   8  100.68    4.48
   7  -6   8   85.50    3.87
   8  -6   8   -0.31    0.42
  -6  -5   8   21.94    1.35
  -5  -5   8  140.18    6.17
   4   5  -8   46.55    2.22
   4   5  -8   46.55    1.93
  -4  -5   8   49.61    2.28
   3   5  -8   11.22    0.62
   3   5  -8   12.80    0.76
  -3  -5   8   12.50    0.79
   2   5  -8   20.02    0.92
   2   5  -8   19.92    1.04
  -2  -5   8   21.67    1.09
   1   5  -8   19.69    1.01
   1   5  -8   20.45    0.92
  -1  -5   8   20.89    1.05
   0   5  -8   41.42    1.60
   0   5  -8   39.81    1.74
   0  -5   8   36.71    1.76
   0  -5   8   34.64    1.74
  -1   5  -8    0.23    0.17
  -1   5  -8    0.17    0.21
   1  -5   8    0.18    0.22
  -2   5  -8   62.74    2.66
   2  -5   8   54.93    2.65
   2  -5   8   61.74    2.67
  -3   5  -8  143.63    6.27
   3  -5   8  165.45    6.29
   3  -5   8  126.79    6.24
  -4   5  -8  133.45    6.22
   4  -5   8  153.58    6.23
  -5   5  -8   27.65    1.42
   5  -5   8   27.97    1.42
  -6   5  -8   72.28    3.32
   6  -5   8   73.67    3.31
  -7   5  -8    3.82    0.51
   7  -5   8    5.04    0.57
   8  -5   8    2.64    0.54
   6   4  -8    8.77    0.78
  -6  -4   8    9.42    0.85
   5   4  -8    0.17    0.31
   5   4  -8   -0.15    0.19
  -5  -4   8   -0.14    0.38
   4   4  -8   13.00    0.83
   4   4  -8   13.27    0.67
  -4  -4   8   13.46    0.85
   3   4  -8    4.31    0.37
   3   4  -8    4.61    0.45
  -3  -4   8    3.17    0.39
   2   4  -8   51.52    2.34
   2   4  -8   52.08    2.09
  -2  -4   8   51.83    2.35
   1   4  -8  106.84    4.67
   1   4  -8  108.87    4.20
  -1  -4   8  107.39    4.67
   0   4  -8   34.86    1.47
   0   4  -8   35.72    1.63
   0  -4   8   35.18    1.63
  -1   4  -8    0.56    0.20
  -1   4  -8    0.93    0.22
   1  -4   8    0.79    0.24
  -2   4  -8    0.33    0.21
   2  -4   8    0.02    0.21
  -3   4  -8   25.00    1.33
   3  -4   8   28.76    1.33
  -4   4  -8   45.27    2.21
   4  -4   8   49.79    2.21
  -5   4  -8   23.52    1.23
   5  -4   8   21.77    1.20
  -6   4  -8    0.27    0.33
   6  -4   8    0.95    0.38
  -7   4  -8   29.83    1.59
   7  -4   8   29.12    1.57
  -8   4  -8    3.73    0.59
   8  -4   8    5.18    0.66
   7   3  -8   85.25    4.07
  -7  -3   8   94.70    4.11
   6   3  -8  144.84    6.19
   6   3  -8  130.48    5.48
  -6  -3   8  149.62    6.21
  -6  -3   8  139.88    5.50
   5   3  -8    9.18    0.55
   5   3  -8    8.80    0.72
  -5  -3   8    9.51    0.58
  -5  -3   8    9.25    0.74
   4   3  -8    0.73    0.28
   4   3  -8    0.93    0.22
  -4  -3   8    0.50    0.23
  -4  -3   8    1.24    0.33
   3   3  -8   78.19    3.10
   3   3  -8   79.63    3.48
  -3  -3   8   77.23    3.11
  -3  -3   8   79.87    3.48
   2   3  -8   16.87    0.77
   2   3  -8   17.21    0.89
  -2  -3   8   15.72    0.87
   1   3  -8  110.98    4.62
   1   3  -8  105.20    4.15
  -1  -3   8  103.05    4.61
   0   3  -8    4.30    0.40
   0   3  -8    4.26    0.35
   0  -3   8    4.34    0.39
  -1   3  -8  269.22   11.47
  -1   3  -8  271.30   10.33
   1  -3   8  266.29   11.45
  -2   3  -8  196.28    8.54
   2  -3   8  201.33    8.51
  -3   3  -8   44.74    2.12
   3  -3   8   46.27    2.09
  -4   3  -8   20.18    1.11
   4  -3   8   20.00    1.08
  -5   3  -8    7.73    0.69
   5  -3   8    7.56    0.65
  -6   3  -8    8.36    0.75
   6  -3   8    7.75    0.72
  -7   3  -8    5.39    0.62
   7  -3   8    4.94    0.61
  -8   3  -8    1.99    0.57
   8  -3   8    1.99    0.54
   8   2  -8    1.45    0.48
  -8  -2   8    1.69    0.50
   7   2  -8   22.26    1.30
  -7  -2   8   23.21    1.31
  -7  -2   8   21.57    1.06
   6   2  -8    0.30    0.37
   6   2  -8    0.22    0.23
  -6  -2   8    1.00    0.40
  -6  -2   8    0.24    0.25
   5   2  -8   66.09    2.84
   5   2  -8   72.85    3.23
  -5  -2   8   74.99    3.23
  -5  -2   8   72.95    2.87
   4   2  -8   10.47    0.55
   4   2  -8    9.01    0.64
  -4  -2   8    8.43    0.58
  -4  -2   8    8.71    0.63
   3   2  -8   28.15    1.18
   3   2  -8   26.55    1.33
  -3  -2   8   26.36    1.32
  -3  -2   8   28.57    1.19
   2   2  -8  432.91   17.98
   2   2  -8  404.20   15.93
  -2  -2   8  408.48   17.57
  -2  -2   8  412.81   16.09
   1   2  -8  430.79   16.33
   1   2  -8  423.60   17.90
  -1  -2   8  424.86   18.17
  -1  -2   8  407.90   16.23
   0   2  -8    5.13    0.44
   0   2  -8    5.37    0.37
   0  -2   8    4.90    0.41
  -1   2  -8  244.18    9.24
  -1   2  -8  246.96   10.29
   1  -2   8  230.38   10.25
  -2   2  -8   69.99    3.14
  -2   2  -8   70.13    2.78
   2  -2   8   69.84    3.10
  -3   2  -8   11.57    0.77
   3  -2   8   11.48    0.72
  -4   2  -8   46.19    2.25
   4  -2   8   49.03    2.22
  -5   2  -8   31.92    1.62
   5  -2   8   30.54    1.57
  -6   2  -8  111.22    4.96
   6  -2   8  110.29    4.91
  -7   2  -8   64.50    3.12
   7  -2   8   67.27    3.10
  -8   2  -8    3.58    0.66
   8  -2   8    3.25    0.61
   8   1  -8    4.58    0.62
  -8  -1   8    4.17    0.59
  -8  -1   8    4.40    0.45
   7   1  -8   -0.03    0.38
   7   1  -8    0.07    0.26
  -7  -1   8    0.00    0.26
  -7  -1   8    0.21    0.39
   6   1  -8   82.54    3.42
   6   1  -8   87.61    3.87
  -6  -1   8   87.67    3.86
  -6  -1   8   87.71    3.45
   5   1  -8  114.62    4.63
   5   1  -8  117.97    5.18
  -5  -1   8  118.00    5.17
  -5  -1   8  123.26    4.65
   4   1  -8   90.89    4.00
   4   1  -8   91.17    3.58
  -4  -1   8   94.48    3.59
  -4  -1   8   87.48    3.99
   3   1  -8   34.34    1.57
   3   1  -8   32.02    1.38
  -3  -1   8   33.27    1.55
  -3  -1   8   33.61    1.40
   2   1  -8   98.40    4.13
   2   1  -8   95.64    3.70
  -2  -1   8   94.26    3.71
  -2  -1   8   90.56    4.10
   1   1  -8   17.04    0.78
   1   1  -8   17.86    0.89
  -1  -1   8   16.88    0.86
  -1  -1   8   16.18    0.78
   0   1  -8    0.61    0.19
   0   1  -8    0.41    0.23
   0  -1   8    0.66    0.22
  -1   1  -8   -0.20    0.16
   1  -1   8    0.01    0.19
  -2   1  -8   98.38    4.34
  -2   1  -8   99.77    3.86
   2  -1   8   97.78    4.30
  -3   1  -8  127.15    5.61
  -3   1  -8  131.39    4.99
   3  -1   8  125.73    5.56
  -4   1  -8   32.30    1.34
  -4   1  -8   30.73    1.59
   4  -1   8   30.25    1.53
  -5   1  -8   27.91    1.50
   5  -1   8   27.61    1.44
  -6   1  -8   79.18    3.58
   6  -1   8   75.11    3.51
  -7   1  -8   19.46    1.28
   7  -1   8   19.20    1.24
   9   0  -8    4.60    0.65
  -9   0   8    3.79    0.48
  -9   0   8    3.83    0.62
   8   0  -8   21.67    1.27
  -8   0   8   20.79    1.23
  -8   0   8   20.43    1.08
   7   0  -8    5.79    0.58
  -7   0   8    4.49    0.52
  -7   0   8    5.05    0.46
   6   0  -8   18.45    1.07
   6   0  -8   19.30    0.92
  -6   0   8   18.86    0.94
  -6   0   8   18.99    1.04
   5   0  -8   13.35    0.79
   5   0  -8   12.56    0.67
  -5   0   8   12.95    0.71
  -5   0   8   12.61    0.76
   4   0  -8   12.18    0.73
   4   0  -8   12.01    0.64
  -4   0   8   12.23    0.70
  -4   0   8   12.21    0.65
   3   0  -8  289.54   10.94
   3   0  -8  286.75   12.14
  -3   0   8  275.16   10.94
  -3   0   8  288.82   12.13
   2   0  -8    3.52    0.34
   2   0  -8    2.32    0.24
  -2   0   8    3.62    0.35
  -2   0   8    3.19    0.29
   1   0  -8    2.95    0.32
   1   0  -8    2.26    0.24
  -1   0   8    2.56    0.28
  -1   0   8    2.10    0.25
   0   0  -8   23.06    1.12
   0   0  -8   21.79    0.95
   0   0   8   20.73    1.06
   0   0   8   22.07    0.96
  -1   0  -8    0.92    0.21
  -1   0  -8    0.68    0.26
   1   0   8    1.24    0.25
  -2   0  -8    0.33    0.29
  -2   0  -8    0.18    0.17
   2   0   8    0.15    0.23
  -3   0  -8   57.45    2.31
  -3   0  -8   56.80    2.66
   3   0   8   58.63    2.62
  -4   0  -8   14.28    0.97
  -4   0  -8   15.55    0.73
   4   0   8   13.88    0.88
  -5   0  -8   17.50    0.85
  -5   0  -8   17.24    1.12
   5   0   8   17.60    1.04
  -6   0  -8    8.26    0.80
   6   0   8    7.59    0.77
  -7   0  -8   11.94    1.09
   7   0   8   11.38    0.98
   9  -1  -8    9.21    0.90
  -9   1   8    8.72    0.83
  -9   1   8    8.05    0.69
   8  -1  -8    3.14    0.53
  -8   1   8    3.26    0.46
  -8   1   8    2.79    0.41
   7  -1  -8  171.43    7.35
  -7   1   8  171.66    7.33
  -7   1   8  164.08    6.60
   6  -1  -8  170.63    6.67
   6  -1  -8  176.59    7.42
  -6   1   8  165.37    6.68
  -6   1   8  173.61    7.40
   5  -1  -8   46.86    2.15
   5  -1  -8   46.66    1.93
  -5   1   8   48.25    2.14
  -5   1   8   45.13    1.94
   4  -1  -8   67.57    3.03
   4  -1  -8   67.81    2.73
  -4   1   8   68.15    3.01
  -4   1   8   69.84    2.74
   3  -1  -8   37.08    1.55
   3  -1  -8   37.01    1.73
  -3   1   8   38.63    1.71
  -3   1   8   37.52    1.57
   2  -1  -8    5.33    0.44
   2  -1  -8    5.59    0.39
  -2   1   8    5.63    0.41
  -2   1   8    4.96    0.40
   1  -1  -8    4.19    0.39
   1  -1  -8    3.67    0.30
  -1   1   8    3.94    0.31
  -1   1   8    3.85    0.36
   0  -1  -8    0.51    0.27
   0  -1  -8    0.85    0.20
   0   1   8    0.97    0.22
   0   1   8    0.79    0.19
  -1  -1  -8  280.34   10.72
  -1  -1  -8  279.27   11.95
   1   1   8  279.30   11.91
  -2  -1  -8  108.77    4.81
  -2  -1  -8  111.10    4.25
   2   1   8  107.22    4.74
  -3  -1  -8   30.74    1.52
  -3  -1  -8   29.80    1.24
   3   1   8   26.96    1.42
  -4  -1  -8   86.16    3.43
  -4  -1  -8   88.44    3.97
   4   1   8   87.67    3.90
  -5  -1  -8   31.46    1.64
   5   1   8   27.93    1.52
  -6  -1  -8    1.22    0.54
   6   1   8    1.24    0.45
   9  -2  -8   87.70    3.82
  -9   2   8   81.67    3.76
  -9   2   8   79.82    3.41
   8  -2  -8    2.75    0.46
  -8   2   8    2.31    0.39
  -8   2   8    2.34    0.40
   7  -2  -8   59.72    2.74
  -7   2   8   60.76    2.71
  -7   2   8   57.86    2.47
   6  -2  -8   40.73    1.90
   6  -2  -8   38.18    1.69
  -6   2   8   41.38    1.86
  -6   2   8   39.31    1.71
   5  -2  -8    9.07    0.63
   5  -2  -8    8.95    0.57
  -5   2   8    8.79    0.57
  -5   2   8    9.35    0.59
   4  -2  -8   26.35    1.14
   4  -2  -8   23.67    1.25
  -4   2   8   27.08    1.23
  -4   2   8   26.61    1.15
   3  -2  -8   25.04    1.12
  -3   2   8   25.35    1.20
  -3   2   8   26.37    1.12
   2  -2  -8  247.01   10.23
   2  -2  -8  250.07    9.21
   2  -2  -8  221.94   10.22
  -2   2   8  227.64   10.19
  -2   2   8  251.68    9.22
   1  -2  -8  234.47    8.99
   1  -2  -8  242.13   10.01
  -1   2   8  230.52    9.96
  -1   2   8  229.42    8.99
   0  -2  -8   17.14    0.93
   0  -2  -8   17.85    0.79
   0   2   8   16.39    0.78
   0   2   8   17.09    0.87
  -1  -2  -8  133.22    5.74
  -1  -2  -8  131.15    5.09
   1   2   8  130.49    5.68
  -2  -2  -8   83.47    3.34
  -2  -2  -8   88.70    3.84
   2   2   8   84.19    3.75
  -3  -2  -8    5.74    0.62
  -3  -2  -8    6.84    0.44
   3   2   8    5.62    0.55
  -4  -2  -8    7.09    0.71
   4   2   8    7.68    0.69
  -5  -2  -8    4.70    0.69
   5   2   8    4.34    0.53
   9  -3  -8    2.19    0.51
  -9   3   8    2.14    0.45
   8  -3  -8    1.88    0.45
  -8   3   8    1.62    0.38
  -8   3   8    1.81    0.37
   7  -3  -8    4.36    0.48
  -7   3   8    5.40    0.51
  -7   3   8    4.87    0.46
   6  -3  -8   41.32    1.94
  -6   3   8   40.98    1.89
  -6   3   8   41.24    1.77
   5  -3  -8   83.61    3.71
  -5   3   8   85.72    3.37
  -5   3   8   83.85    3.68
   4  -3  -8   11.78    0.69
   4  -3  -8   13.26    0.68
   4  -3  -8   13.56    0.74
  -4   3   8   13.06    0.69
  -4   3   8   13.29    0.69
   3  -3  -8    6.09    0.44
   3  -3  -8    5.46    0.41
   3  -3  -8    6.63    0.48
  -3   3   8    6.25    0.42
  -3   3   8    7.01    0.47
   2  -3  -8   96.36    4.05
   2  -3  -8   80.50    4.01
   2  -3  -8  100.41    3.65
  -2   3   8   93.29    4.01
  -2   3   8   93.91    3.65
   1  -3  -8  112.71    4.24
   1  -3  -8   92.71    4.69
  -1   3   8  112.75    4.69
  -1   3   8  116.85    4.24
   0  -3  -8    5.87    0.39
   0  -3  -8    4.40    0.40
   0  -3  -8    5.25    0.50
   0   3   8    5.34    0.41
   0   3   8    5.56    0.38
  -1  -3  -8    1.26    0.36
  -1  -3  -8    1.60    0.22
   1   3   8    1.30    0.26
  -2  -3  -8   15.97    0.98
  -2  -3  -8   13.82    0.66
   2   3   8   13.66    0.82
  -3  -3  -8   29.98    1.57
   3   3   8   28.09    1.45
  -4  -3  -8    1.10    0.49
  -5  -3  -8    7.24    0.80
   9  -4  -8   -0.19    0.40
  -9   4   8   -0.23    0.35
   8  -4  -8    1.14    0.39
  -8   4   8    1.02    0.35
   7  -4  -8    1.26    0.34
  -7   4   8    1.42    0.37
  -7   4   8    1.62    0.29
   6  -4  -8    2.37    0.35
  -6   4   8    3.37    0.41
  -6   4   8    3.07    0.31
   5  -4  -8   11.26    0.70
  -5   4   8   11.52    0.63
  -5   4   8   11.12    0.68
   4  -4  -8   44.21    1.75
   4  -4  -8   41.13    1.89
   4  -4  -8   37.35    1.86
  -4   4   8   42.81    1.74
  -4   4   8   41.36    1.84
   3  -4  -8   46.77    2.09
   3  -4  -8   49.77    1.91
   3  -4  -8   41.16    2.05
  -3   4   8   45.51    2.03
  -3   4   8   47.44    1.90
   2  -4  -8   12.20    0.75
   2  -4  -8   15.85    0.82
   2  -4  -8   15.74    0.74
  -2   4   8   14.72    0.72
  -2   4   8   15.15    0.73
   1  -4  -8    0.11    0.17
   1  -4  -8    0.05    0.25
   1  -4  -8    0.38    0.19
  -1   4   8    0.17    0.17
  -1   4   8    0.36    0.19
   0  -4  -8    2.52    0.39
   0  -4  -8    3.13    0.28
   0   4   8    3.66    0.32
   0   4   8    3.54    0.29
  -1  -4  -8    1.96    0.40
  -1  -4  -8    1.61    0.21
   1   4   8    1.69    0.27
  -2  -4  -8   12.50    0.92
  -3  -4  -8    0.90    0.47
  -4  -4  -8   12.78    1.09
   9  -5  -8    2.47    0.48
  -9   5   8    1.66    0.44
   8  -5  -8    2.15    0.42
  -8   5   8    2.70    0.47
   7  -5  -8   96.40    4.27
  -7   5   8   97.17    3.90
   6  -5  -8  118.99    5.14
  -6   5   8  117.17    4.68
   5  -5  -8   11.48    0.69
  -5   5   8   10.22    0.69
   4  -5  -8   63.37    2.62
   4  -5  -8   62.48    2.86
  -4   5   8   68.24    2.63
   3  -5  -8   68.02    3.07
   3  -5  -8   69.10    2.79
  -3   5   8   71.19    2.79
   2  -5  -8    0.78    0.22
   2  -5  -8    0.85    0.28
  -2   5   8    0.54    0.22
   1  -5  -8   18.01    0.86
   1  -5  -8   18.79    1.01
  -1   5   8   18.94    0.85
   0  -5  -8    0.10    0.17
   0  -5  -8    0.07    0.31
   0   5   8    0.26    0.17
  -1  -5  -8   19.12    1.14
  -2  -5  -8   88.87    4.04
  -3  -5  -8    0.47    0.49
   9  -6  -8   17.68    1.08
   8  -6  -8    0.10    0.32
  -8   6   8   -0.22    0.35
   7  -6  -8   82.92    3.60
  -7   6   8   78.23    3.30
   6  -6  -8   25.86    1.31
  -6   6   8   26.63    1.26
   5  -6  -8    0.41    0.27
  -5   6   8    0.59    0.30
   4  -6  -8   18.51    0.94
   4  -6  -8   16.66    0.89
  -4   6   8   18.22    0.91
   3  -6  -8    5.79    0.51
   3  -6  -8    5.91    0.50
  -3   6   8    5.83    0.49
   2  -6  -8   83.13    3.54
   2  -6  -8   78.99    3.18
  -2   6   8   77.36    3.16
   1  -6  -8   40.69    1.93
  -1   6   8   40.66    1.67
   0  -6  -8   23.95    1.30
  -1  -6  -8   31.81    1.67
   9  -7  -8   15.48    1.00
   8  -7  -8    0.45    0.32
   7  -7  -8    5.34    0.49
  -7   7   8    4.07    0.50
   6  -7  -8    0.18    0.28
  -6   7   8    0.08    0.32
   5  -7  -8   15.60    0.88
  -5   7   8   16.52    0.89
   4  -7  -8    0.31    0.24
  -4   7   8   -0.30    0.26
   3  -7  -8    1.82    0.32
   3  -7  -8    1.32    0.29
  -3   7   8    1.95    0.30
   2  -7  -8   27.33    1.35
  -2   7   8   25.48    1.16
   1  -7  -8   11.60    0.81
   0  -7  -8    1.35    0.42
   7  -8  -8   17.50    0.95
  -7   8   8   14.62    0.97
   6  -8  -8   17.57    0.94
  -6   8   8   15.79    0.96
   5  -8  -8    0.15    0.27
  -5   8   8    0.10    0.32
   4  -8  -8   12.78    0.75
  -4   8   8   12.24    0.76
   3  -8  -8   13.39    0.80
  -3   8   8   12.66    0.73
   2  -8  -8    3.18    0.43
   2 -10   9   49.70    2.32
   3 -10   9   94.52    4.19
   4 -10   9   20.45    1.17
   5 -10   9   16.35    1.04
   0  -9   9   55.95    2.60
   1  -9   9    6.84    0.64
   2  -9   9   25.46    1.33
   3  -9   9    8.30    0.70
   4  -9   9    0.43    0.35
   5  -9   9    3.98    0.50
   6  -9   9    3.29    0.50
   7  -9   9   37.99    1.93
  -2  -8   9   10.55    0.85
   1   8  -9   -0.21    0.22
  -1  -8   9    0.36    0.35
   0  -8   9    4.79    0.50
   1  -8   9    9.57    0.71
   2  -8   9   48.70    2.27
   3  -8   9    4.91    0.50
   4  -8   9    8.28    0.67
   5  -8   9    3.27    0.46
   6  -8   9    0.12    0.36
   7  -8   9    9.33    0.82
   8  -8   9    4.61    0.62
  -3  -7   9   15.26    1.02
   2   7  -9   90.24    3.59
  -2  -7   9   91.42    4.06
   1   7  -9   95.48    3.74
  -1  -7   9   93.61    4.19
   0   7  -9    1.57    0.26
   0  -7   9    0.90    0.32
  -1   7  -9   18.21    0.88
   1  -7   9   16.29    0.96
   2  -7   9   11.55    0.75
   3  -7   9   44.34    2.08
   4  -7   9    5.11    0.50
   5  -7   9   36.66    1.81
   6  -7   9   82.73    3.74
   7  -7   9   34.24    1.79
   8  -7   9    0.01    0.43
  -4  -6   9   59.28    2.80
   3   6  -9   26.83    1.21
  -3  -6   9   28.86    1.47
   2   6  -9   54.73    2.27
  -2  -6   9   57.47    2.59
   1   6  -9    2.12    0.30
   1   6  -9    1.75    0.27
  -1  -6   9    2.20    0.36
   0   6  -9   41.81    1.76
   0   6  -9   41.06    1.91
   0  -6   9   43.25    1.97
  -1   6  -9    3.61    0.37
  -1   6  -9    3.38    0.33
   1  -6   9    3.38    0.39
  -2   6  -9  155.32    6.94
   2  -6   9  168.19    6.99
  -3   6  -9  143.76    6.36
   3  -6   9  151.10    6.40
  -4   6  -9   51.62    2.49
   4  -6   9   58.04    2.53
  -5   6  -9   20.16    1.13
   5  -6   9   22.26    1.19
   6  -6   9   94.35    4.24
   7  -6   9   11.36    0.92
   8  -6   9    4.31    0.59
  -5  -5   9    2.04    0.52
   4   5  -9    1.95    0.39
   4   5  -9    0.68    0.23
  -4  -5   9    1.68    0.43
   3   5  -9    2.55    0.30
   3   5  -9    3.42    0.40
  -3  -5   9    2.29    0.40
   2   5  -9   31.34    1.33
   2   5  -9   30.43    1.49
  -2  -5   9   31.16    1.53
   1   5  -9   85.18    3.91
   1   5  -9   92.05    3.53
  -1  -5   9   90.87    3.94
   0   5  -9   64.04    2.62
   0   5  -9   64.32    2.89
   0  -5   9   67.39    2.92
  -1   5  -9   28.34    1.23
  -1   5  -9   26.88    1.33
   1  -5   9   28.28    1.36
  -2   5  -9   43.34    2.05
   2  -5   9   45.62    2.05
  -3   5  -9  261.83   12.36
   3  -5   9  317.55   12.39
  -4   5  -9   26.24    1.39
   4  -5   9   28.76    1.40
  -5   5  -9    2.54    0.44
   5  -5   9    2.59    0.44
  -6   5  -9    6.06    0.61
   6  -5   9    5.31    0.58
  -7   5  -9   47.06    2.37
   7  -5   9   50.34    2.37
   8  -5   9   21.12    1.33
   6   4  -9   46.55    2.39
  -6  -4   9   53.29    2.45
   5   4  -9   22.88    1.30
  -5  -4   9   25.84    1.37
   4   4  -9    0.17    0.28
   4   4  -9    0.29    0.22
  -4  -4   9    0.54    0.36
   3   4  -9    1.00    0.30
   3   4  -9    0.75    0.23
  -3  -4   9    1.58    0.33
   2   4  -9    8.46    0.60
   2   4  -9    8.05    0.51
  -2  -4   9    8.43    0.62
   1   4  -9    2.26    0.30
   1   4  -9    1.58    0.24
  -1  -4   9    1.24    0.28
   0   4  -9   48.72    1.97
   0   4  -9   46.36    2.19
   0  -4   9   49.63    2.20
  -1   4  -9   36.34    1.72
  -1   4  -9   37.50    1.54
   1  -4   9   35.59    1.70
  -2   4  -9   75.15    2.90
  -2   4  -9   68.20    3.22
   2  -4   9   73.48    3.22
  -3   4  -9   43.74    2.11
   3  -4   9   46.50    2.10
  -4   4  -9    4.80    0.51
   4  -4   9    6.15    0.58
  -5   4  -9    6.07    0.59
   5  -4   9    8.63    0.70
  -6   4  -9   11.60    0.90
   6  -4   9   12.72    0.88
  -7   4  -9    6.93    0.70
   7  -4   9    5.92    0.65
  -8   4  -9   12.28    1.05
   8  -4   9   14.91    1.10
   7   3  -9    5.35    0.62
  -7  -3   9    6.64    0.71
  -7  -3   9    5.90    0.52
   6   3  -9    6.24    0.52
   6   3  -9    7.58    0.69
  -6  -3   9    6.08    0.53
  -6  -3   9    8.11    0.72
   5   3  -9   25.27    1.31
   5   3  -9   22.37    1.09
  -5  -3   9   24.05    1.12
  -5  -3   9   25.54    1.32
   4   3  -9   45.64    2.10
   4   3  -9   42.88    1.84
  -4  -3   9   47.10    2.11
  -4  -3   9   43.28    1.86
   3   3  -9  141.73    5.63
   3   3  -9  146.94    6.29
  -3  -3   9  146.87    5.65
  -3  -3   9  145.16    6.29
   2   3  -9  328.25   13.84
   2   3  -9  330.01   12.46
  -2  -3   9  316.38   13.83
   1   3  -9  154.69    6.54
   1   3  -9  151.80    5.88
  -1  -3   9  148.43    6.53
   0   3  -9    4.07    0.37
   0   3  -9    3.25    0.36
   0  -3   9    4.33    0.39
  -1   3  -9  171.02    7.34
  -1   3  -9  170.15    6.59
   1  -3   9  169.32    7.31
  -2   3  -9   41.38    1.64
  -2   3  -9   37.73    1.85
   2  -3   9   37.80    1.82
  -3   3  -9    8.74    0.69
   3  -3   9    9.72    0.67
  -4   3  -9   25.24    1.37
   4  -3   9   26.12    1.34
  -5   3  -9   18.97    1.13
   5  -3   9   18.50    1.09
  -6   3  -9  111.08    4.97
   6  -3   9  110.72    4.92
  -7   3  -9   32.93    1.79
   7  -3   9   32.52    1.74
  -8   3  -9   -0.03    0.51
   8  -3   9   -0.03    0.49
   8   2  -9    9.29    0.91
   7   2  -9    0.09    0.41
  -7  -2   9    0.12    0.43
  -7  -2   9   -0.24    0.27
   6   2  -9  128.68    5.43
   6   2  -9  141.69    6.11
  -6  -2   9  148.77    6.11
  -6  -2   9  137.96    5.45
   5   2  -9   68.57    2.77
   5   2  -9   69.78    3.13
  -5  -2   9   68.84    3.12
  -5  -2   9   68.14    2.79
   4   2  -9   97.78    4.32
   4   2  -9   92.81    3.85
  -4  -2   9  100.07    4.32
  -4  -2   9  101.39    3.88
   3   2  -9   49.78    2.07
   3   2  -9   51.99    2.34
  -3  -2   9   49.38    2.32
  -3  -2   9   53.02    2.09
   2   2  -9  152.69    6.06
   2   2  -9  161.56    6.75
  -2  -2   9  155.08    6.73
  -2  -2   9  156.75    6.07
   1   2  -9   12.56    0.62
   1   2  -9   11.67    0.71
  -1  -2   9   11.40    0.69
   0   2  -9   58.55    2.59
   0   2  -9   55.79    2.30
   0  -2   9   57.44    2.56
  -1   2  -9    5.34    0.50
  -1   2  -9    4.95    0.39
   1  -2   9    4.72    0.45
  -2   2  -9  241.33    9.26
   2  -2   9  239.74   10.29
  -3   2  -9  254.73    8.85
  -3   2  -9  214.53    9.85
   3  -2   9  217.77    9.82
  -4   2  -9    3.67    0.37
  -4   2  -9    4.99    0.55
   4  -2   9    4.64    0.49
  -5   2  -9   31.13    1.66
   5  -2   9   32.03    1.61
  -6   2  -9  124.49    5.57
   6  -2   9  125.36    5.52
  -7   2  -9   12.94    1.07
   7  -2   9   13.13    1.02
   8   1  -9   11.43    0.95
  -8  -1   9   10.72    0.76
  -8  -1   9   11.38    0.94
   7   1  -9    7.48    0.70
  -7  -1   9    5.87    0.51
  -7  -1   9    5.73    0.61
   6   1  -9    0.08    0.24
   6   1  -9    0.29    0.36
  -6  -1   9    0.13    0.27
  -6  -1   9    0.39    0.36
   5   1  -9  109.88    4.70
   5   1  -9  105.93    4.19
  -5  -1   9  105.20    4.67
  -5  -1   9  104.99    4.21
   4   1  -9   22.90    1.20
   4   1  -9   23.06    1.05
  -4  -1   9   24.31    1.08
  -4  -1   9   22.88    1.18
   3   1  -9    0.19    0.26
   3   1  -9   -0.10    0.19
  -3  -1   9   -0.04    0.19
  -3  -1   9    0.10    0.22
   2   1  -9   17.66    0.83
   2   1  -9   18.48    0.94
  -2  -1   9   16.72    0.82
  -2  -1   9   18.39    0.93
   1   1  -9  112.61    4.95
   1   1  -9  111.42    4.43
  -1  -1   9  112.36    4.44
  -1  -1   9  118.59    4.93
   0   1  -9   34.37    1.46
   0   1  -9   35.58    1.67
   0  -1   9   35.29    1.63
  -1   1  -9    0.18    0.19
  -1   1  -9    0.37    0.27
   1  -1   9    0.15    0.23
  -2   1  -9   72.71    2.85
  -2   1  -9   71.58    3.23
   2  -1   9   70.30    3.18
  -3   1  -9   53.57    2.50
  -3   1  -9   53.61    2.17
   3  -1   9   52.47    2.44
  -4   1  -9   46.46    1.89
  -4   1  -9   45.30    2.21
   4  -1   9   44.79    2.15
  -5   1  -9    3.07    0.54
  -5   1  -9    2.62    0.33
   5  -1   9    2.19    0.43
  -6   1  -9   -0.06    0.46
  -6   1  -9    0.12    0.25
   6  -1   9   -0.09    0.40
  -7   1  -9    6.38    0.78
   7  -1   9    6.30    0.67
   9   0  -9    2.79    0.56
   8   0  -9   14.92    1.06
  -8   0   9   14.77    0.89
  -8   0   9   14.46    1.02
   7   0  -9   50.68    2.40
  -7   0   9   50.33    2.37
  -7   0   9   49.24    2.13
   6   0  -9   91.50    4.05
   6   0  -9   87.46    3.61
  -6   0   9   91.11    3.64
  -6   0   9   92.67    4.03
   5   0  -9    5.79    0.56
   5   0  -9    4.66    0.44
  -5   0   9    5.61    0.51
  -5   0   9    5.83    0.50
   4   0  -9    0.08    0.25
   4   0  -9   -0.02    0.21
  -4   0   9    0.17    0.22
  -4   0   9    0.12    0.25
   3   0  -9    1.21    0.29
  -3   0   9    1.30    0.25
   2   0  -9   34.92    1.51
   2   0  -9   36.55    1.71
  -2   0   9   37.39    1.53
  -2   0   9   37.18    1.68
   1   0  -9    4.41    0.34
   1   0  -9    3.53    0.37
  -1   0   9    4.30    0.40
  -1   0   9    3.35    0.31
   0   0  -9   52.49    2.37
   0   0  -9   50.93    2.09
   0   0   9   50.54    2.09
   0   0   9   53.07    2.33
  -1   0  -9   71.08    3.09
  -1   0  -9   65.86    2.72
   1   0   9   68.49    3.03
  -2   0  -9   49.65    2.26
  -2   0  -9   47.12    1.94
   2   0   9   46.24    2.18
  -3   0  -9    1.78    0.27
  -3   0  -9    1.96    0.42
   3   0   9    1.72    0.35
  -4   0  -9    4.20    0.58
  -4   0  -9    4.40    0.39
   4   0   9    4.47    0.51
  -5   0  -9    8.06    0.78
  -5   0  -9    7.79    0.54
   5   0   9    7.25    0.74
  -6   0  -9    8.22    0.85
   6   0   9    8.06    0.74
   9  -1  -9   60.00    2.82
  -9   1   9   61.31    2.79
  -9   1   9   54.16    2.49
   8  -1  -9    0.30    0.42
  -8   1   9    0.64    0.40
  -8   1   9    0.51    0.33
   7  -1  -9   65.89    2.97
  -7   1   9   61.45    2.65
  -7   1   9   64.84    2.93
   6  -1  -9   29.07    1.49
  -6   1   9   30.06    1.47
  -6   1   9   29.88    1.35
   5  -1  -9   15.27    0.89
   5  -1  -9   14.57    0.77
  -5   1   9   15.66    0.86
  -5   1   9   14.46    0.80
   4  -1  -9   44.22    1.92
   4  -1  -9   47.80    2.16
  -4   1   9   48.17    2.13
  -4   1   9   46.98    1.94
   3  -1  -9   76.08    3.29
   3  -1  -9   71.35    2.94
  -3   1   9   75.57    3.25
  -3   1   9   72.99    2.95
   2  -1  -9  335.58   14.06
   2  -1  -9  321.08   12.41
  -2   1   9  332.30   13.76
  -2   1   9  307.38   12.41
   1  -1  -9  115.28    4.96
   1  -1  -9  111.47    4.43
  -1   1   9  111.74    4.44
  -1   1   9  116.79    4.92
   0  -1  -9    0.72    0.22
   0  -1  -9    0.11    0.25
   0   1   9    0.32    0.19
   0   1   9    0.61    0.24
  -1  -1  -9  186.57    7.18
  -1  -1  -9  186.06    8.05
   1   1   9  186.11    7.99
  -2  -1  -9   64.15    2.64
  -2  -1  -9   70.35    3.06
   2   1   9   65.08    2.97
  -3  -1  -9   12.71    0.69
  -3  -1  -9   13.53    0.94
   3   1   9   13.45    0.83
  -4  -1  -9   36.91    1.88
  -4  -1  -9   35.90    1.51
   4   1   9   35.33    1.78
  -5  -1  -9    2.61    0.57
   5   1   9    3.16    0.52
  -6  -1  -9   13.55    1.15
   6   1   9   13.23    1.01
   9  -2  -9    0.78    0.50
  -9   2   9    0.16    0.36
  -9   2   9    0.65    0.41
   8  -2  -9    3.09    0.50
  -8   2   9    3.50    0.46
  -8   2   9    3.55    0.47
   7  -2  -9    0.82    0.37
  -7   2   9    1.45    0.35
  -7   2   9    0.88    0.33
   6  -2  -9   86.94    3.91
  -6   2   9   88.28    3.53
  -6   2   9   88.35    3.88
   5  -2  -9  181.27    7.52
   5  -2  -9  161.15    6.77
  -5   2   9  173.15    6.78
  -5   2   9  182.05    7.50
   4  -2  -9    3.06    0.32
   4  -2  -9    2.90    0.36
  -4   2   9    2.31    0.30
  -4   2   9    2.94    0.34
   3  -2  -9   63.23    2.79
   3  -2  -9   62.14    2.51
  -3   2   9   64.07    2.76
  -3   2   9   60.21    2.51
   2  -2  -9  258.49    9.77
   2  -2  -9  254.85   10.86
  -2   2   9  252.68   10.82
  -2   2   9  250.48    9.77
   1  -2  -9   28.38    1.19
   1  -2  -9   26.83    1.36
  -1   2   9   27.52    1.19
  -1   2   9   27.36    1.30
   0  -2  -9   32.73    1.34
   0  -2  -9   31.42    1.54
   0   2   9   30.65    1.32
   0   2   9   30.84    1.48
  -1  -2  -9   26.65    1.34
  -1  -2  -9   24.42    1.09
   1   2   9   24.56    1.23
  -2  -2  -9   36.31    1.80
  -2  -2  -9   35.40    1.49
   2   2   9   35.69    1.71
  -3  -2  -9  122.50    4.98
  -3  -2  -9  136.12    5.70
   3   2   9  127.09    5.60
  -4  -2  -9    7.27    0.73
   4   2   9    6.69    0.68
  -5  -2  -9   30.21    1.74
   9  -3  -9    6.24    0.69
  -9   3   9    6.10    0.60
   8  -3  -9    5.88    0.62
  -8   3   9    4.74    0.51
  -8   3   9    4.38    0.50
   7  -3  -9    0.22    0.32
  -7   3   9    0.32    0.27
  -7   3   9    0.44    0.31
   6  -3  -9    7.65    0.64
  -6   3   9    8.04    0.57
  -6   3   9    7.69    0.58
   5  -3  -9   30.03    1.45
  -5   3   9   28.70    1.32
  -5   3   9   29.68    1.40
   4  -3  -9   23.50    1.13
   4  -3  -9   27.46    1.26
  -4   3   9   25.50    1.15
  -4   3   9   24.74    1.21
   3  -3  -9    7.23    0.51
   3  -3  -9    8.34    0.53
   3  -3  -9    8.41    0.58
  -3   3   9    8.43    0.51
  -3   3   9    8.87    0.54
   2  -3  -9    2.76    0.29
   2  -3  -9    3.33    0.32
   2  -3  -9    3.13    0.36
  -2   3   9    3.57    0.32
  -2   3   9    2.68    0.30
   1  -3  -9   57.93    2.61
   1  -3  -9   57.86    2.32
  -1   3   9   57.05    2.31
  -1   3   9   56.78    2.54
   0  -3  -9    0.51    0.20
   0  -3  -9    0.75    0.32
   0   3   9    0.54    0.23
   0   3   9    0.76    0.20
  -1  -3  -9    5.37    0.56
  -1  -3  -9    6.76    0.45
   1   3   9    6.20    0.51
  -2  -3  -9   40.68    1.93
  -2  -3  -9   34.28    1.55
   2   3   9   40.52    1.82
  -3  -3  -9   22.71    1.37
  -4  -3  -9    7.07    0.80
   9  -4  -9    2.70    0.53
   8  -4  -9   21.89    1.23
  -8   4   9   20.27    1.12
   7  -4  -9   58.79    2.65
  -7   4   9   55.53    2.41
   6  -4  -9   63.60    2.82
  -6   4   9   61.66    2.76
  -6   4   9   61.36    2.57
   5  -4  -9    1.46    0.31
  -5   4   9    1.69    0.32
  -5   4   9    1.66    0.25
   4  -4  -9   17.57    0.92
   4  -4  -9   16.26    0.85
  -4   4   9   17.35    0.87
  -4   4   9   16.58    0.85
   3  -4  -9   31.06    1.50
   3  -4  -9   32.26    1.37
  -3   4   9   31.60    1.36
  -3   4   9   30.39    1.43
   2  -4  -9    1.71    0.28
   2  -4  -9    1.96    0.32
  -2   4   9    1.63    0.23
  -2   4   9    1.85    0.29
   1  -4  -9    3.35    0.32
  -1   4   9    4.09    0.34
  -1   4   9    4.10    0.37
   0  -4  -9   10.68    0.59
   0  -4  -9   12.17    0.79
   0   4   9   10.54    0.58
  -1  -4  -9   27.72    1.47
  -2  -4  -9   22.31    1.32
  -3  -4  -9    1.34    0.53
   9  -5  -9   26.93    1.49
   8  -5  -9    4.89    0.54
  -8   5   9    5.60    0.58
   7  -5  -9   35.47    1.72
  -7   5   9   34.56    1.61
   6  -5  -9   33.31    1.64
  -6   5   9   34.49    1.54
   5  -5  -9    0.61    0.28
  -5   5   9    0.13    0.29
   4  -5  -9   12.77    0.77
  -4   5   9   13.34    0.75
   3  -5  -9   10.02    0.64
   3  -5  -9   10.80    0.69
  -3   5   9   11.08    0.66
   2  -5  -9   62.59    2.75
   2  -5  -9   56.80    2.46
  -2   5   9   62.81    2.46
   1  -5  -9   42.87    2.03
  -1   5   9   42.55    1.76
   0  -5  -9    2.32    0.43
   0   5   9    2.80    0.28
  -1  -5  -9  109.88    4.90
  -2  -5  -9   16.84    1.16
   9  -6  -9   14.81    1.01
   8  -6  -9    0.98    0.38
  -8   6   9    1.07    0.44
   7  -6  -9    8.08    0.68
  -7   6   9    7.99    0.70
   6  -6  -9   19.94    1.08
  -6   6   9   20.41    1.06
   5  -6  -9   55.85    2.51
  -5   6   9   54.89    2.32
   4  -6  -9    5.73    0.52
  -4   6   9    6.14    0.55
   3  -6  -9   56.23    2.52
  -3   6   9   54.50    2.28
   2  -6  -9   61.97    2.86
  -2   6   9   64.30    2.55
   1  -6  -9   13.27    0.89
  -1   6   9   13.48    0.69
   0  -6  -9    0.47    0.38
  -1  -6  -9   43.00    2.15
   8  -7  -9    0.46    0.37
   7  -7  -9   23.91    1.24
  -7   7   9   22.21    1.21
   6  -7  -9    0.48    0.31
  -6   7   9    0.21    0.34
   5  -7  -9    8.57    0.65
  -5   7   9    8.57    0.68
   4  -7  -9    5.30    0.53
  -4   7   9    5.45    0.48
   3  -7  -9    6.60    0.60
  -3   7   9    7.09    0.56
   2  -7  -9    2.48    0.41
  -2   7   9    2.10    0.30
   6  -8  -9   31.15    1.48
  -6   8   9   28.79    1.43
   5  -8  -9    0.43    0.30
  -5   8   9    0.68    0.34
   4  -8  -9   23.38    1.20
  -4   8   9   23.32    1.14
   3  -8  -9   10.31    0.73
   4 -10  10    0.88    0.41
   0  -9  10    2.72    0.47
   1  -9  10    0.28    0.35
   2  -9  10    5.32    0.55
   3  -9  10   21.11    1.22
   4  -9  10   35.31    1.80
   5  -9  10   29.75    1.57
   6  -9  10    5.43    0.62
  -2  -8  10   44.83    2.19
  -1  -8  10   21.67    1.22
   0  -8  10    7.62    0.66
   1  -8  10    0.35    0.33
   2  -8  10   -0.01    0.33
   3  -8  10    2.69    0.45
   4  -8  10    8.32    0.72
   5  -8  10   11.18    0.86
   6  -8  10    7.65    0.72
   7  -8  10    4.98    0.62
  -3  -7  10   23.96    1.36
  -2  -7  10   31.26    1.62
  -1  -7  10   -0.13    0.33
   0  -7  10   21.37    1.18
   1  -7  10   12.84    0.84
   2  -7  10   88.82    3.96
   3  -7  10  180.51    7.82
   4  -7  10   26.23    1.39
   5  -7  10   35.38    1.79
   6  -7  10   35.66    1.84
   7  -7  10    2.98    0.56
  -4  -6  10    4.80    0.59
   3   6 -10    7.08    0.54
  -3  -6  10    8.64    0.73
   2   6 -10    9.01    0.58
  -2  -6  10    9.84    0.76
   1   6 -10  151.42    6.81
   1   6 -10  159.57    6.15
  -1  -6  10  162.90    6.86
   0   6 -10  202.58    9.29
   0   6 -10  220.81    8.41
   0  -6  10  228.51    9.35
  -1   6 -10   21.65    1.11
  -1   6 -10   23.50    1.06
   1  -6  10   20.91    1.17
  -2   6 -10   96.68    4.38
   2  -6  10  103.60    4.43
  -3   6 -10   47.36    2.32
   3  -6  10   53.84    2.36
  -4   6 -10    0.11    0.27
   4  -6  10    0.01    0.32
  -5   6 -10    6.73    0.63
   5  -6  10    6.90    0.69
   6  -6  10    1.96    0.47
   7  -6  10   35.39    1.86
   8  -6  10   40.21    2.09
  -5  -5  10   16.57    1.13
   4   5 -10   29.70    1.55
  -4  -5  10   30.73    1.59
   3   5 -10    6.19    0.59
   3   5 -10    6.23    0.50
  -3  -5  10    7.63    0.66
   2   5 -10    0.45    0.26
   2   5 -10    0.14    0.22
  -2  -5  10    0.66    0.34
   1   5 -10   79.40    3.17
   1   5 -10   73.72    3.52
  -1  -5  10   85.84    3.56
   0   5 -10   18.71    0.91
   0   5 -10   18.40    1.00
   0  -5  10   19.69    1.04
  -1   5 -10   31.07    1.52
  -1   5 -10   32.65    1.39
   1  -5  10   30.94    1.54
  -2   5 -10    2.92    0.36
  -2   5 -10    3.72    0.42
   2  -5  10    4.23    0.45
  -3   5 -10   63.71    3.15
   3  -5  10   76.68    3.18
  -4   5 -10    0.85    0.33
   4  -5  10    0.57    0.36
   5  -5  10   21.15    1.22
  -6   5 -10    7.71    0.70
   6  -5  10    6.79    0.69
  -7   5 -10   50.88    2.55
   7  -5  10   53.54    2.55
   8  -5  10   13.28    1.09
   6   4 -10    0.38    0.40
  -6  -4  10    0.21    0.48
   5   4 -10    7.42    0.66
  -5  -4  10    5.75    0.61
   4   4 -10    1.40    0.36
   4   4 -10    1.02    0.27
  -4  -4  10    1.29    0.40
   3   4 -10   49.30    2.07
   3   4 -10   51.53    2.35
  -3  -4  10   51.05    2.36
   2   4 -10   62.07    2.57
   2   4 -10   64.50    2.88
  -2  -4  10   64.94    2.89
   1   4 -10   81.89    3.68
  -1  -4  10   84.22    3.68
   0   4 -10    4.18    0.42
   0   4 -10    3.56    0.34
   0  -4  10    3.40    0.38
  -1   4 -10    0.08    0.25
  -1   4 -10    0.45    0.25
   1  -4  10    0.08    0.25
  -2   4 -10   17.34    0.88
  -2   4 -10   17.15    0.99
   2  -4  10   17.99    0.98
  -3   4 -10    0.83    0.33
  -3   4 -10    0.12    0.26
   3  -4  10   -0.19    0.30
   4  -4  10   33.19    1.66
  -5   4 -10   15.68    1.01
   5  -4  10   15.18    1.01
  -6   4 -10   23.91    1.38
   6  -4  10   24.18    1.39
  -7   4 -10   11.67    1.01
   7  -4  10   12.33    0.98
   7   3 -10    2.49    0.52
  -7  -3  10    2.40    0.57
  -7  -3  10    1.74    0.36
   6   3 -10   82.32    3.76
  -6  -3  10   85.00    3.76
  -6  -3  10   80.02    3.32
   5   3 -10  230.31    9.11
   5   3 -10  237.33   10.17
  -5  -3  10  244.79   10.17
  -5  -3  10  230.89    9.12
   4   3 -10   21.16    1.16
  -4  -3  10   21.72    1.18
  -4  -3  10   20.86    1.02
   3   3 -10   30.28    1.50
   3   3 -10   29.80    1.32
  -3  -3  10   30.23    1.50
  -3  -3  10   31.31    1.34
   2   3 -10  203.03    8.77
   2   3 -10  200.90    7.88
  -2  -3  10  208.18    8.76
   1   3 -10    8.58    0.52
   1   3 -10    8.45    0.62
  -1  -3  10    8.43    0.62
   0   3 -10    9.85    0.56
   0   3 -10    9.74    0.66
   0  -3  10    9.01    0.62
  -1   3 -10    0.21    0.21
  -1   3 -10    0.76    0.29
   1  -3  10    0.36    0.27
  -2   3 -10   12.03    0.80
  -2   3 -10   11.74    0.67
   2  -3  10   12.63    0.77
  -3   3 -10  237.20    9.12
   3  -3  10  234.84   10.13
  -4   3 -10   18.01    0.90
  -4   3 -10   17.45    1.07
   4  -3  10   17.06    1.03
  -5   3 -10   50.97    2.51
   5  -3  10   53.84    2.50
  -6   3 -10   68.95    3.25
   6  -3  10   68.88    3.21
  -7   3 -10    4.97    0.70
   7  -3  10    4.66    0.66
   7   2 -10   -0.05    0.42
  -7  -2  10    0.75    0.48
  -7  -2  10    0.49    0.30
   6   2 -10   71.43    3.22
  -6  -2  10   66.58    2.84
  -6  -2  10   71.47    3.22
   5   2 -10   93.67    4.21
  -5  -2  10   96.98    4.21
  -5  -2  10   92.88    3.77
   4   2 -10    5.29    0.51
  -4  -2  10    5.38    0.44
  -4  -2  10    4.66    0.49
   3   2 -10   38.63    1.61
   3   2 -10   38.02    1.81
  -3  -2  10   36.70    1.62
  -3  -2  10   39.11    1.81
   2   2 -10   19.58    0.92
   2   2 -10   19.21    1.04
  -2  -2  10   20.28    1.04
  -2  -2  10   20.23    0.94
   1   2 -10  220.72    8.45
   1   2 -10  224.51    9.41
  -1  -2  10  212.10    9.37
   0   2 -10  130.92    5.23
   0   2 -10  133.74    5.85
   0  -2  10  138.78    5.82
  -1   2 -10    0.15    0.21
  -1   2 -10   -0.09    0.27
   1  -2  10   -0.18    0.23
  -2   2 -10  172.85    6.69
  -2   2 -10  168.82    7.48
   2  -2  10  175.92    7.45
  -3   2 -10  172.40    6.64
  -3   2 -10  170.19    7.43
   3  -2  10  169.57    7.39
  -4   2 -10   16.97    1.09
  -4   2 -10   17.67    0.89
   4  -2  10   18.11    1.05
  -5   2 -10   37.32    1.74
  -5   2 -10   44.69    2.11
   5  -2  10   42.55    2.04
  -6   2 -10    0.07    0.46
   6  -2  10    0.41    0.45
  -7   2 -10   22.05    1.46
   7  -2  10   21.51    1.34
   8   1 -10    7.71    0.77
  -8  -1  10    7.29    0.75
  -8  -1  10    7.83    0.62
   7   1 -10   32.58    1.68
  -7  -1  10   33.43    1.67
  -7  -1  10   28.80    1.44
   6   1 -10    3.46    0.51
  -6  -1  10    3.13    0.40
  -6  -1  10    2.89    0.47
   5   1 -10   99.98    4.25
   5   1 -10   86.66    3.77
  -5  -1  10   94.49    3.79
  -5  -1  10  100.24    4.23
   4   1 -10    5.86    0.47
   4   1 -10    6.24    0.55
  -4  -1  10    6.25    0.56
  -4  -1  10    5.64    0.51
   3   1 -10    1.17    0.25
   3   1 -10    0.90    0.29
  -3  -1  10    1.71    0.31
  -3  -1  10    1.39    0.26
   2   1 -10   11.08    0.63
   2   1 -10   11.68    0.72
  -2  -1  10   11.11    0.69
  -2  -1  10   12.27    0.65
   1   1 -10   74.15    3.30
   1   1 -10   73.27    2.94
  -1  -1  10   71.05    2.94
  -1  -1  10   77.20    3.28
   0   1 -10   80.18    3.15
   0   1 -10   78.69    3.54
   0  -1  10   79.10    3.50
  -1   1 -10    4.18    0.35
  -1   1 -10    2.80    0.40
   1  -1  10    2.56    0.34
  -2   1 -10    0.21    0.32
  -2   1 -10    0.06    0.24
   2  -1  10    0.16    0.27
  -3   1 -10    1.20    0.39
  -3   1 -10    0.81    0.25
   3  -1  10    1.33    0.36
  -4   1 -10   21.84    1.07
  -4   1 -10   24.05    1.34
   4  -1  10   23.16    1.26
  -5   1 -10    1.79    0.32
  -5   1 -10    1.94    0.54
   5  -1  10    1.55    0.45
  -6   1 -10   12.37    1.05
   6  -1  10   11.30    0.96
   8   0 -10    1.54    0.49
  -8   0  10    1.68    0.49
  -8   0  10    1.38    0.37
   7   0 -10   37.08    1.87
  -7   0  10   35.97    1.64
  -7   0  10   37.27    1.85
   6   0 -10    0.21    0.34
  -6   0  10    0.28    0.32
  -6   0  10    0.18    0.28
   5   0 -10    1.35    0.35
   5   0 -10    1.34    0.27
  -5   0  10    1.68    0.34
  -5   0  10    1.27    0.29
   4   0 -10   -0.26    0.28
   4   0 -10   -0.16    0.19
  -4   0  10   -0.17    0.24
  -4   0  10    0.10    0.27
   3   0 -10   24.29    1.09
   3   0 -10   24.42    1.24
  -3   0  10   25.83    1.22
  -3   0  10   23.23    1.10
   2   0 -10  163.96    6.95
   2   0 -10  156.12    6.23
  -2   0  10  165.01    6.92
  -2   0  10  158.04    6.24
   1   0 -10   67.66    2.75
   1   0 -10   70.28    3.10
  -1   0  10   70.61    3.06
  -1   0  10   67.37    2.76
   0   0 -10   12.38    0.64
   0   0 -10   10.72    0.76
   0   0  10   11.64    0.71
  -1   0 -10   70.98    2.72
   1   0  10   64.56    3.02
  -2   0 -10   47.51    1.97
  -2   0 -10   48.31    2.29
   2   0  10   47.54    2.22
  -3   0 -10    0.39    0.27
  -3   0 -10    0.86    0.40
   3   0  10    0.74    0.35
  -4   0 -10    5.44    0.49
  -4   0 -10    6.06    0.67
   4   0  10    6.08    0.60
  -5   0 -10    6.19    0.75
   5   0  10    6.32    0.67
  -6   0 -10   15.41    1.24
   6   0  10   15.96    1.13
   9  -1 -10   13.58    1.07
  -9   1  10   13.18    0.93
   8  -1 -10   16.61    1.10
  -8   1  10   15.93    0.96
  -8   1  10   16.87    1.06
   7  -1 -10    2.91    0.51
  -7   1  10    2.36    0.44
  -7   1  10    1.60    0.37
   6  -1 -10   53.37    2.40
  -6   1  10   50.18    2.35
  -6   1  10   49.16    2.15
   5  -1 -10  224.74    9.71
  -5   1  10  229.87    9.69
  -5   1  10  223.01    8.75
   4  -1 -10   14.48    0.77
   4  -1 -10   15.87    0.89
  -4   1  10   14.51    0.80
  -4   1  10   16.15    0.86
   3  -1 -10  112.14    4.89
   3  -1 -10  110.96    4.39
  -3   1  10  112.68    4.86
  -3   1  10  111.63    4.40
   2  -1 -10  157.75    6.91
   2  -1 -10  159.78    6.21
  -2   1  10  164.98    6.88
  -2   1  10  157.59    6.22
   1  -1 -10   32.32    1.61
   1  -1 -10   35.18    1.42
  -1   1  10   32.21    1.42
  -1   1  10   33.69    1.57
   0  -1 -10   25.98    1.35
   0  -1 -10   27.98    1.18
   0   1  10   26.31    1.28
   0   1  10   24.37    1.15
  -1  -1 -10    2.01    0.41
  -1  -1 -10    1.20    0.25
   1   1  10    1.28    0.31
  -2  -1 -10   28.51    1.23
  -2  -1 -10   27.83    1.49
   2   1  10   27.25    1.40
  -3  -1 -10   71.96    2.90
  -3  -1 -10   74.07    3.36
   3   1  10   70.99    3.27
  -4  -1 -10    4.92    0.66
   4   1  10    4.92    0.55
  -5  -1 -10   33.44    1.83
   5   1  10   31.16    1.68
   9  -2 -10   80.94    3.74
   8  -2 -10    9.54    0.85
  -8   2  10    9.29    0.76
  -8   2  10    9.33    0.75
   7  -2 -10    0.40    0.39
  -7   2  10    0.03    0.31
  -7   2  10   -0.12    0.29
   6  -2 -10  125.94    5.50
  -6   2  10  127.79    5.46
  -6   2  10  122.49    4.96
   5  -2 -10   34.49    1.67
  -5   2  10   32.82    1.50
  -5   2  10   35.24    1.64
   4  -2 -10   44.69    2.09
  -4   2  10   45.66    2.05
  -4   2  10   44.18    1.89
   3  -2 -10   19.29    1.01
   3  -2 -10   18.07    0.90
  -3   2  10   18.62    0.92
  -3   2  10   19.31    0.97
   2  -2 -10    6.75    0.57
   2  -2 -10    7.68    0.51
  -2   2  10    6.90    0.52
  -2   2  10    7.49    0.53
   1  -2 -10   60.72    2.75
   1  -2 -10   60.85    2.44
  -1   2  10   58.86    2.43
  -1   2  10   60.71    2.69
   0  -2 -10   38.69    1.54
   0   2  10   34.49    1.52
   0   2  10   35.40    1.69
  -1  -2 -10    0.82    0.25
  -1  -2 -10    0.82    0.39
   1   2  10    0.62    0.28
  -2  -2 -10  133.27    5.32
  -2  -2 -10  143.73    6.05
   2   2  10  133.57    5.94
  -3  -2 -10   71.66    3.25
   3   2  10   66.21    3.13
  -4  -2 -10    1.92    0.56
   9  -3 -10    1.26    0.51
   8  -3 -10   17.09    1.08
  -8   3  10   15.90    0.97
   7  -3 -10   10.59    0.78
  -7   3  10    9.70    0.72
  -7   3  10   10.05    0.70
   6  -3 -10   16.41    0.94
  -6   3  10   15.17    0.87
  -6   3  10   13.89    0.85
   5  -3 -10    1.26    0.33
  -5   3  10    1.65    0.30
  -5   3  10    1.81    0.34
   4  -3 -10    0.38    0.28
   4  -3 -10    0.17    0.25
  -4   3  10    0.09    0.22
  -4   3  10    0.28    0.27
   3  -3 -10    0.59    0.22
   3  -3 -10    0.80    0.29
  -3   3  10    0.96    0.28
  -3   3  10    0.58    0.22
   2  -3 -10   27.71    1.34
   2  -3 -10   33.27    1.53
  -2   3  10   31.43    1.46
  -2   3  10   31.57    1.35
   1  -3 -10   22.62    1.14
   1  -3 -10   19.69    0.96
  -1   3  10   20.43    0.96
  -1   3  10   19.74    1.03
   0  -3 -10   59.76    2.67
   0  -3 -10   56.61    2.32
   0   3  10   55.55    2.31
   0   3  10   57.63    2.58
  -1  -3 -10    0.06    0.21
  -1  -3 -10    0.27    0.38
   1   3  10    0.55    0.27
  -2  -3 -10    2.88    0.54
  -3  -3 -10    4.50    0.65
  -4  -3 -10    0.85    0.57
   9  -4 -10   23.18    1.37
   8  -4 -10    2.78    0.48
  -8   4  10    2.54    0.45
   7  -4 -10   57.84    2.59
  -7   4  10   52.34    2.34
   6  -4 -10   27.45    1.39
  -6   4  10   26.43    1.29
   5  -4 -10    0.38    0.30
  -5   4  10    0.79    0.32
   4  -4 -10    0.42    0.28
  -4   4  10    0.55    0.21
  -4   4  10    0.52    0.27
   3  -4 -10    5.84    0.55
   3  -4 -10    5.67    0.49
  -3   4  10    6.38    0.53
  -3   4  10    5.40    0.43
   2  -4 -10   60.96    2.82
  -2   4  10   63.04    2.53
  -2   4  10   62.78    2.77
   1  -4 -10    6.91    0.64
   1  -4 -10    6.28    0.49
  -1   4  10    7.14    0.50
   0  -4 -10    8.29    0.71
   0   4  10    8.14    0.52
  -1  -4 -10   45.18    2.21
  -2  -4 -10   10.51    0.93
  -3  -4 -10    0.25    0.53
   9  -5 -10    3.83    0.58
   8  -5 -10    7.93    0.75
  -8   5  10    8.21    0.73
   7  -5 -10    1.18    0.38
  -7   5  10    0.96    0.38
   6  -5 -10   25.54    1.33
  -6   5  10   25.93    1.26
   5  -5 -10   48.84    2.28
  -5   5  10   49.74    2.10
   4  -5 -10    7.92    0.62
  -4   5  10    8.50    0.62
   3  -5 -10   28.32    1.43
  -3   5  10   29.00    1.30
   2  -5 -10  166.00    7.11
  -2   5  10  162.03    6.38
   1  -5 -10   12.18    0.84
  -1   5  10   11.95    0.67
   0  -5 -10   16.41    1.05
  -1  -5 -10    6.88    0.69
   8  -6 -10    2.64    0.47
   7  -6 -10    0.19    0.35
  -7   6  10   -0.13    0.35
   6  -6 -10   48.03    2.21
  -6   6  10   46.12    2.05
   5  -6 -10   52.24    2.38
  -5   6  10   50.52    2.18
   4  -6 -10    1.97    0.35
  -4   6  10    2.20    0.35
   3  -6 -10   15.63    0.91
  -3   6  10   14.69    0.83
   2  -6 -10    2.77    0.43
  -2   6  10    3.02    0.34
  -1   6  10    5.71    0.47
   0  -6 -10   14.88    1.03
   7  -7 -10    5.37    0.54
   6  -7 -10    1.99    0.39
  -6   7  10    2.21    0.43
   5  -7 -10    0.29    0.32
  -5   7  10    0.52    0.33
   4  -7 -10    2.33    0.37
  -4   7  10    2.72    0.39
   3  -7 -10    2.55    0.41
  -3   7  10    2.70    0.37
   2  -7 -10    0.95    0.38
   1  -9  11   10.96    0.86
   2  -9  11    2.23    0.47
   3  -9  11   15.27    1.04
   4  -9  11   21.99    1.31
   5  -9  11    1.76    0.47
  -1  -8  11    0.43    0.41
   0  -8  11    1.13    0.40
   1  -8  11    7.27    0.71
   2  -8  11   40.10    1.98
   3  -8  11   44.60    2.17
   4  -8  11    3.90    0.54
   5  -8  11    4.18    0.57
   6  -8  11    9.89    0.91
  -3  -7  11    4.56    0.63
  -2  -7  11    7.71    0.75
  -1  -7  11   98.25    4.39
   0  -7  11   96.99    4.32
   1  -7  11    3.39    0.47
   2  -7  11   69.39    3.17
   3  -7  11   44.44    2.15
   4  -7  11    0.24    0.36
   5  -7  11    6.16    0.63
   6  -7  11    0.97    0.47
   7  -7  11   37.83    1.99
  -4  -6  11   67.81    3.18
  -3  -6  11   48.50    2.34
  -2  -6  11   28.04    1.48
  -1  -6  11  117.30    5.16
   0   6 -11   17.47    1.01
   0  -6  11   20.16    1.09
  -1   6 -11   -0.05    0.23
   1  -6  11    0.34    0.34
  -2   6 -11    6.36    0.56
   2  -6  11    6.87    0.64
  -3   6 -11   14.83    0.92
   3  -6  11   16.13    0.97
  -4   6 -11   66.76    3.24
   4  -6  11   75.83    3.28
   5  -6  11   21.21    1.28
   6  -6  11   34.92    1.84
   7  -6  11   77.93    3.63
  -5  -5  11   10.91    0.96
  -4  -5  11   24.10    1.36
   3   5 -11    9.50    0.74
  -3  -5  11    9.85    0.78
   2   5 -11   21.94    1.20
  -2  -5  11   23.17    1.23
   1   5 -11    3.95    0.39
   1   5 -11    3.77    0.42
  -1  -5  11    3.26    0.42
   0   5 -11   29.70    1.50
   0   5 -11   30.89    1.36
   0  -5  11   31.38    1.54
  -1   5 -11    2.66    0.37
   1  -5  11    1.51    0.35
  -2   5 -11    0.13    0.29
   2  -5  11    0.25    0.33
  -3   5 -11   22.92    1.28
   3  -5  11   24.28    1.28
  -4   5 -11   49.18    2.37
   4  -5  11   50.53    2.38
  -5   5 -11   21.64    1.23
   5  -5  11   20.44    1.24
  -6   5 -11    1.46    0.48
   6  -5  11    1.52    0.49
   7  -5  11    2.53    0.59
  -6  -4  11   29.64    1.65
   5   4 -11  109.48    4.99
  -5  -4  11  114.85    5.01
   4   4 -11   10.78    0.83
  -4  -4  11   11.10    0.85
   3   4 -11   31.66    1.64
   3   4 -11   34.97    1.49
  -3  -4  11   32.38    1.65
   2   4 -11   38.54    1.66
   2   4 -11   40.91    1.89
  -2  -4  11   38.34    1.87
   1   4 -11    5.59    0.48
   1   4 -11    5.25    0.49
  -1  -4  11    5.72    0.56
   0   4 -11    5.17    0.52
   0   4 -11    5.40    0.47
   0  -4  11    4.66    0.47
  -1   4 -11   24.22    1.31
  -1   4 -11   24.82    1.15
   1  -4  11   25.70    1.29
  -2   4 -11   35.19    1.78
  -2   4 -11   36.35    1.58
   2  -4  11   36.95    1.76
  -3   4 -11   52.72    2.51
   3  -4  11   53.69    2.49
  -4   4 -11    6.58    0.64
   4  -4  11    7.00    0.70
  -5   4 -11   14.04    1.00
   5  -4  11   13.24    0.96
  -6   4 -11   30.90    1.72
   6  -4  11   32.09    1.70
  -7   4 -11   14.99    1.16
   7  -4  11   15.11    1.13
   6   3 -11   74.45    3.42
  -6  -3  11   76.28    3.42
  -6  -3  11   70.89    3.01
   5   3 -11   25.84    1.48
  -5  -3  11   26.41    1.28
  -5  -3  11   31.45    1.51
   4   3 -11    0.56    0.33
  -4  -3  11    0.52    0.28
  -4  -3  11    0.83    0.38
   3   3 -11    5.02    0.41
   3   3 -11    4.23    0.47
  -3  -3  11    3.88    0.46
  -3  -3  11    4.77    0.42
   2   3 -11   20.38    1.11
   2   3 -11   19.58    0.96
  -2  -3  11   20.59    1.10
   1   3 -11   91.69    4.02
   1   3 -11   89.33    3.59
  -1  -3  11   90.16    3.99
   0   3 -11  144.29    6.26
   0   3 -11  142.21    5.61
   0  -3  11  144.61    6.23
  -1   3 -11   11.12    0.78
  -1   3 -11   10.75    0.64
   1  -3  11   11.56    0.75
  -2   3 -11  485.20   18.69
  -2   3 -11  487.93   20.78
   2  -3  11  490.96   20.75
  -3   3 -11   75.00    3.09
  -3   3 -11   78.85    3.51
   3  -3  11   76.21    3.46
  -4   3 -11    0.62    0.43
   4  -3  11    0.49    0.37
  -5   3 -11   19.37    1.26
   5  -3  11   21.10    1.23
  -6   3 -11   -0.02    0.47
   6  -3  11   -0.06    0.44
  -7   3 -11   12.93    1.13
   7  -3  11   15.38    1.13
   7   2 -11   -0.20    0.45
  -7  -2  11    0.21    0.45
  -7  -2  11    0.17    0.30
   6   2 -11    3.07    0.50
  -6  -2  11    3.19    0.51
  -6  -2  11    2.71    0.38
   5   2 -11   14.89    0.95
  -5  -2  11   14.28    0.93
  -5  -2  11   13.51    0.80
   4   2 -11   59.62    2.64
  -4  -2  11   54.82    2.35
  -4  -2  11   55.87    2.62
   3   2 -11   15.04    0.80
   3   2 -11   15.78    0.94
  -3  -2  11   15.88    0.83
  -3  -2  11   16.41    0.93
   2   2 -11   33.55    1.66
   2   2 -11   33.69    1.46
  -2  -2  11   32.83    1.47
  -2  -2  11   35.60    1.64
   1   2 -11  233.79   10.02
   1   2 -11  228.23    9.00
  -1  -2  11  237.78   10.00
   0   2 -11   52.71    2.44
   0   2 -11   50.45    2.15
   0  -2  11   54.67    2.41
  -1   2 -11    9.34    0.73
  -1   2 -11    9.12    0.58
   1  -2  11    8.85    0.66
  -2   2 -11   12.88    0.86
  -2   2 -11   11.40    0.67
   2  -2  11   11.41    0.79
  -3   2 -11   18.23    1.09
  -3   2 -11   15.98    0.87
   3  -2  11   17.58    1.03
  -4   2 -11   44.86    2.25
  -4   2 -11   42.72    1.98
   4  -2  11   48.45    2.21
  -5   2 -11    2.73    0.57
   5  -2  11    3.20    0.51
  -6   2 -11   25.44    1.53
   6  -2  11   23.90    1.45
   8   1 -11   11.15    0.97
  -8  -1  11    9.77    0.79
   7   1 -11    1.39    0.49
  -7  -1  11    1.95    0.49
  -7  -1  11    1.14    0.36
   6   1 -11   13.72    0.95
  -6  -1  11   13.02    0.80
  -6  -1  11   13.52    0.92
   5   1 -11    0.30    0.37
  -5  -1  11   -0.05    0.28
  -5  -1  11    0.40    0.32
   4   1 -11   47.11    2.18
  -4  -1  11   46.68    2.15
  -4  -1  11   44.03    1.94
   3   1 -11   56.00    2.32
   3   1 -11   58.32    2.62
  -3  -1  11   56.22    2.58
  -3  -1  11   56.80    2.34
   2   1 -11   24.37    1.15
   2   1 -11   26.10    1.31
  -2  -1  11   25.96    1.17
  -2  -1  11   25.44    1.28
   1   1 -11    6.07    0.49
   1   1 -11    4.98    0.50
  -1  -1  11    5.58    0.47
  -1  -1  11    5.90    0.53
   0   1 -11    0.19    0.30
   0   1 -11    0.39    0.27
   0  -1  11    1.94    0.34
  -1   1 -11    3.92    0.47
  -1   1 -11    4.13    0.38
   1  -1  11    4.15    0.44
  -2   1 -11   20.02    0.98
   2  -1  11   21.27    1.13
  -3   1 -11   25.60    1.36
  -3   1 -11   20.69    1.08
   3  -1  11   24.14    1.27
  -4   1 -11   12.24    0.98
  -4   1 -11   11.56    0.69
   4  -1  11   11.92    0.88
  -5   1 -11    9.55    0.89
   5  -1  11    8.36    0.77
  -6   1 -11    0.59    0.55
   6  -1  11    0.56    0.50
   8   0 -11    5.20    0.66
  -8   0  11    6.06    0.68
  -8   0  11    4.99    0.53
   7   0 -11   29.06    1.56
  -7   0  11   29.29    1.51
  -7   0  11   26.60    1.35
   6   0 -11   18.90    1.13
  -6   0  11   17.77    0.98
  -6   0  11   19.33    1.09
   5   0 -11   94.86    4.10
  -5   0  11   88.77    3.68
  -5   0  11   90.95    4.07
   4   0 -11    5.24    0.51
  -4   0  11    4.30    0.44
  -4   0  11    4.27    0.41
   3   0 -11   64.95    2.78
   3   0 -11   55.69    2.45
  -3   0  11   62.70    2.74
  -3   0  11   59.44    2.48
   2   0 -11  127.62    5.14
   2   0 -11  136.54    5.75
  -2   0  11  126.67    5.15
  -2   0  11  135.77    5.71
   1   0 -11   11.39    0.76
   1   0 -11   11.45    0.66
  -1   0  11   11.88    0.72
  -1   0  11   10.44    0.65
   0   0 -11   19.73    0.95
   0   0 -11   21.43    1.13
   0   0  11   18.06    1.04
  -1   0 -11    3.91    0.38
  -1   0 -11    4.15    0.51
   1   0  11    3.50    0.41
  -2   0 -11   57.79    2.42
  -2   0 -11   61.64    2.80
   2   0  11   59.18    2.72
  -3   0 -11   12.33    0.94
  -3   0 -11   10.94    0.69
   3   0  11   12.52    0.85
  -4   0 -11    0.96    0.49
  -4   0 -11    1.26    0.30
   4   0  11    1.08    0.43
  -5   0 -11   28.66    1.65
   5   0  11   26.10    1.52
   8  -1 -11   25.69    1.45
  -8   1  11   25.61    1.40
  -8   1  11   22.78    1.26
   7  -1 -11    3.98    0.54
  -7   1  11    3.63    0.46
  -7   1  11    2.55    0.46
   6  -1 -11  131.47    5.65
  -6   1  11  130.16    5.61
  -6   1  11  122.69    5.07
   5  -1 -11  141.83    6.08
  -5   1  11  134.84    5.48
  -5   1  11  140.89    6.05
   4  -1 -11    0.05    0.32
  -4   1  11   -0.18    0.27
  -4   1  11   -0.27    0.24
   3  -1 -11   41.83    1.93
  -3   1  11   38.69    1.71
  -3   1  11   40.74    1.88
   2  -1 -11    6.73    0.50
   2  -1 -11    6.74    0.60
  -2   1  11    6.48    0.54
  -2   1  11    7.37    0.53
   1  -1 -11   65.60    2.95
   1  -1 -11   66.76    2.62
  -1   1  11   64.24    2.90
  -1   1  11   62.79    2.62
   0  -1 -11   56.32    2.38
   0  -1 -11   61.66    2.73
   0   1  11   58.27    2.65
  -1  -1 -11   21.55    1.03
  -1  -1 -11   23.31    1.27
   1   1  11   21.52    1.15
  -2  -1 -11   70.54    3.17
  -2  -1 -11   66.13    2.73
   2   1  11   66.46    3.07
  -3  -1 -11  117.71    4.62
  -3  -1 -11  120.15    5.29
   3   1  11  115.17    5.19
  -4  -1 -11    0.88    0.55
   4   1  11    0.16    0.41
  -5  -1 -11   14.85    1.20
   5   1  11   12.75    1.03
   8  -2 -11   19.01    1.21
  -8   2  11   17.65    1.11
  -8   2  11   17.81    1.05
   7  -2 -11    3.01    0.49
  -7   2  11    3.96    0.48
  -7   2  11    3.49    0.46
   6  -2 -11    8.27    0.71
  -6   2  11    8.24    0.66
  -6   2  11    7.94    0.65
   5  -2 -11    2.06    0.40
  -5   2  11    2.08    0.35
  -5   2  11    3.47    0.42
   4  -2 -11   62.87    2.85
  -4   2  11   61.96    2.80
  -4   2  11   62.71    2.57
   3  -2 -11    1.20    0.29
   3  -2 -11    1.17    0.31
  -3   2  11    1.05    0.30
  -3   2  11    0.72    0.25
   2  -2 -11   24.61    1.16
   2  -2 -11   26.10    1.33
  -2   2  11   26.66    1.18
  -2   2  11   25.67    1.27
   1  -2 -11  148.78    6.28
  -1   2  11  140.70    5.61
  -1   2  11  142.11    6.21
   0  -2 -11   46.67    2.19
   0  -2 -11   44.35    1.89
   0   2  11   45.16    2.10
  -1  -2 -11    0.12    0.38
  -1  -2 -11    0.34    0.27
   1   2  11    0.16    0.29
  -2  -2 -11   67.18    3.04
  -2  -2 -11   63.03    2.60
   2   2  11   63.17    2.93
  -3  -2 -11   -0.07    0.47
   3   2  11    0.17    0.38
  -4  -2 -11   12.25    1.11
   8  -3 -11   -0.04    0.42
  -8   3  11    0.02    0.33
   7  -3 -11   12.50    0.88
  -7   3  11   10.86    0.79
   6  -3 -11   19.81    1.11
  -6   3  11   18.53    1.01
  -6   3  11   18.58    1.02
   5  -3 -11    1.94    0.38
  -5   3  11    1.59    0.35
  -5   3  11    1.98    0.33
   4  -3 -11    9.36    0.69
  -4   3  11    8.63    0.63
  -4   3  11    8.89    0.60
   3  -3 -11   25.31    1.26
  -3   3  11   22.83    1.18
  -3   3  11   23.99    1.13
   2  -3 -11    1.21    0.29
   2  -3 -11    3.27    0.43
  -2   3  11    2.48    0.33
  -2   3  11    2.76    0.35
   1  -3 -11    1.83    0.39
   1  -3 -11    0.77    0.27
  -1   3  11    1.40    0.29
  -1   3  11    1.47    0.29
   0   3  11    4.58    0.45
  -1  -3 -11   -0.10    0.22
  -1  -3 -11    0.38    0.41
  -2  -3 -11   33.47    1.80
  -3  -3 -11    5.75    0.74
   8  -4 -11    3.22    0.54
   7  -4 -11   -0.11    0.37
  -7   4  11    0.23    0.35
   6  -4 -11   48.62    2.23
  -6   4  11   44.84    2.02
   5  -4 -11   32.53    1.58
  -5   4  11   30.21    1.44
   4  -4 -11    0.78    0.32
  -4   4  11    1.06    0.31
   3  -4 -11   69.56    3.24
  -3   4  11   74.48    2.93
   2  -4 -11   88.74    3.95
  -2   4  11   88.39    3.53
   1  -4 -11    8.76    0.76
  -1   4  11    9.53    0.60
   0  -4 -11   13.29    0.98
  -1  -4 -11   12.16    0.97
  -2  -4 -11    5.78    0.72
   8  -5 -11   11.31    0.88
   7  -5 -11    5.95    0.59
  -7   5  11    6.51    0.59
   6  -5 -11   55.80    2.60
  -6   5  11   56.42    2.39
   5  -5 -11   47.03    2.23
  -5   5  11   47.64    2.04
   4  -5 -11    0.18    0.30
  -4   5  11    0.29    0.30
   3  -5 -11   39.21    1.85
  -3   5  11   37.07    1.66
   2  -5 -11    1.08    0.37
  -2   5  11    1.02    0.30
   1  -5 -11   10.78    0.85
  -1   5  11   10.97    0.65
   0  -5 -11   16.00    1.09
  -1  -5 -11    7.00    0.73
   7  -6 -11    2.54    0.46
   6  -6 -11    8.04    0.68
  -6   6  11    5.89    0.56
   5  -6 -11    0.54    0.34
  -5   6  11    0.51    0.35
   4  -6 -11    0.59    0.33
  -4   6  11    1.43    0.36
   3  -6 -11   -0.09    0.32
  -3   6  11    0.16    0.28
   2  -6 -11    3.60    0.49
  -2   6  11    4.31    0.41
   1  -6 -11   30.42    1.62
   5  -7 -11    0.30    0.36
  -5   7  11    0.53    0.35
   4  -7 -11    1.67    0.38
  -4   7  11    2.46    0.41
   2  -9  12   10.80    0.91
   3  -9  12    1.79    0.50
   4  -9  12    0.11    0.45
  -1  -8  12   52.41    2.53
   0  -8  12   33.38    1.74
   1  -8  12    0.01    0.38
   2  -8  12   26.03    1.44
   3  -8  12   20.88    1.26
   4  -8  12    2.44    0.51
   5  -8  12    0.05    0.42
   6  -8  12    6.35    0.71
  -2  -7  12   46.41    2.28
  -1  -7  12   91.27    4.12
   0  -7  12   44.87    2.19
   1  -7  12   20.15    1.22
   2  -7  12    6.25    0.63
   3  -7  12    4.40    0.57
   4  -7  12   89.23    4.05
   5  -7  12    9.69    0.91
   6  -7  12   15.38    1.14
  -3  -6  12    8.23    0.82
  -2  -6  12    4.16    0.55
  -1  -6  12    0.83    0.38
   0   6 -12   36.54    1.88
   0  -6  12   41.36    1.93
  -1   6 -12   65.36    3.16
   1  -6  12   75.12    3.23
  -2   6 -12    2.15    0.39
   2  -6  12    3.02    0.47
  -3   6 -12   99.77    4.64
   3  -6  12  109.51    4.67
   4  -6  12  117.39    5.23
   5  -6  12    4.57    0.63
   6  -6  12   17.32    1.18
  -4  -5  12    3.28    0.56
   3   5 -12    0.07    0.34
  -3  -5  12   -0.18    0.37
   2   5 -12    6.65    0.59
  -2  -5  12    5.58    0.57
   1   5 -12   33.08    1.67
  -1  -5  12   34.67    1.70
   0   5 -12    8.61    0.70
   0  -5  12    9.74    0.75
  -1   5 -12    8.41    0.70
   1  -5  12    9.48    0.74
  -2   5 -12   14.25    0.95
   2  -5  12   16.55    0.98
  -3   5 -12    8.90    0.75
   3  -5  12    8.90    0.76
  -4   5 -12    0.66    0.38
   4  -5  12    0.17    0.39
  -5   5 -12    1.04    0.42
   5  -5  12    0.97    0.48
   6  -5  12   -0.04    0.45
   5   4 -12   20.20    1.27
  -5  -4  12   23.36    1.33
   4   4 -12    0.37    0.36
  -4  -4  12    0.47    0.43
   3   4 -12    5.93    0.59
  -3  -4  12    4.84    0.54
   2   4 -12    3.27    0.46
  -2  -4  12    2.58    0.42
   1   4 -12  226.95    9.85
  -1  -4  12  230.22    9.83
   0   4 -12   20.36    1.17
   0  -4  12   22.56    1.19
  -1   4 -12   22.80    1.30
   1  -4  12   24.77    1.29
  -2   4 -12   79.98    3.79
   2  -4  12   87.58    3.77
  -3   4 -12   37.39    1.94
   3  -4  12   40.07    1.93
  -4   4 -12    3.84    0.54
   4  -4  12    3.96    0.54
   5  -4  12   -0.23    0.43
  -6   4 -12    0.42    0.51
   6  -4  12    0.76    0.51
   6   3 -12    1.38    0.50
  -6  -3  12    0.92    0.33
  -6  -3  12    0.57    0.45
   5   3 -12   33.89    1.75
  -5  -3  12   36.17    1.76
  -5  -3  12   31.19    1.52
   4   3 -12   67.74    3.07
  -4  -3  12   67.32    3.06
  -4  -3  12   64.06    2.72
   3   3 -12   36.34    1.85
  -3  -3  12   38.91    1.85
   2   3 -12  118.56    5.20
  -2  -3  12  117.43    5.18
   1   3 -12  140.48    6.23
  -1  -3  12  144.68    6.21
   0   3 -12  111.11    4.91
   0  -3  12  110.75    4.88
  -1   3 -12   39.85    2.01
   1  -3  12   42.25    1.97
  -2   3 -12    0.92    0.39
   2  -3  12    1.20    0.36
  -3   3 -12    2.28    0.49
   3  -3  12    2.32    0.44
   4  -3  12   40.32    2.02
  -5   3 -12    9.59    0.95
   5  -3  12   11.05    0.92
  -6   3 -12   33.55    1.87
   6  -3  12   33.29    1.82
   7   2 -12    7.64    0.76
  -7  -2  12    7.73    0.73
  -7  -2  12    6.70    0.60
   6   2 -12    0.80    0.47
  -6  -2  12    0.81    0.35
  -6  -2  12    0.69    0.44
   5   2 -12   62.61    2.88
  -5  -2  12   64.58    2.87
  -5  -2  12   57.26    2.55
   4   2 -12  120.38    5.25
  -4  -2  12  114.27    4.70
  -4  -2  12  121.62    5.23
   3   2 -12    7.47    0.64
  -3  -2  12    6.29    0.62
  -3  -2  12    5.17    0.47
   2   2 -12    0.36    0.33
  -2  -2  12    0.35    0.30
  -2  -2  12    0.55    0.28
   1   2 -12   24.98    1.30
   1   2 -12   22.30    1.10
  -1  -2  12   25.01    1.26
   0   2 -12   20.10    1.14
   0   2 -12   19.14    0.96
   0  -2  12   19.70    1.09
  -1   2 -12   14.27    0.80
  -1   2 -12   16.02    0.97
   1  -2  12   14.51    0.91
  -2   2 -12    2.08    0.44
   2  -2  12    1.48    0.37
   3  -2  12  112.92    5.00
  -4   2 -12   82.25    3.81
   4  -2  12   82.16    3.75
  -5   2 -12    4.11    0.68
   5  -2  12    4.35    0.61
  -6   2 -12    3.85    0.70
   6  -2  12    3.06    0.61
   7   1 -12    1.09    0.49
  -7  -1  12    1.23    0.38
  -7  -1  12    1.18    0.50
   6   1 -12   43.71    2.12
  -6  -1  12   43.55    2.09
  -6  -1  12   40.23    1.87
   5   1 -12   17.55    1.07
  -5  -1  12   17.06    1.04
  -5  -1  12   16.11    0.93
   4   1 -12    9.00    0.73
  -4  -1  12    7.44    0.64
  -4  -1  12    8.94    0.70
   3   1 -12   19.34    1.10
  -3  -1  12   18.42    0.96
  -3  -1  12   19.15    1.06
   2   1 -12   18.94    1.07
  -2  -1  12   17.57    0.92
  -2  -1  12   19.05    1.03
   1   1 -12   19.72    1.00
   1   1 -12   21.41    1.17
  -1  -1  12   21.22    1.12
   0   1 -12   97.85    4.05
   0   1 -12  106.13    4.57
   0  -1  12  103.07    4.51
  -1   1 -12    0.47    0.26
  -1   1 -12    0.88    0.38
   1  -1  12    0.68    0.32
  -2   1 -12    4.26    0.42
  -2   1 -12    5.57    0.60
   2  -1  12    6.06    0.57
  -3   1 -12    0.42    0.46
   3  -1  12    0.70    0.41
  -4   1 -12    3.50    0.64
   4  -1  12    2.78    0.50
  -5   1 -12    8.60    0.87
   5  -1  12    9.43    0.90
   8   0 -12   32.32    1.78
   7   0 -12    5.94    0.67
  -7   0  12    5.87    0.57
  -7   0  12    8.35    0.72
   6   0 -12  160.83    6.64
  -6   0  12  151.79    6.59
  -6   0  12  140.18    5.94
   5   0 -12   72.38    3.27
  -5   0  12   69.22    2.93
  -5   0  12   72.52    3.24
   4   0 -12    2.44    0.43
  -4   0  12    3.28    0.44
  -4   0  12    2.90    0.42
   3   0 -12   15.93    0.95
  -3   0  12   15.47    0.84
  -3   0  12   15.01    0.90
   2   0 -12    1.58    0.39
   2   0 -12    1.50    0.32
  -2   0  12    1.31    0.35
  -2   0  12    1.92    0.33
   1   0 -12   48.12    2.14
   1   0 -12   42.02    1.87
  -1   0  12   43.88    1.87
  -1   0  12   43.80    2.07
   0   0 -12   42.69    2.06
   0   0 -12   40.65    1.79
   0   0  12   43.65    2.01
  -1   0 -12    4.14    0.43
  -1   0 -12    5.13    0.59
   1   0  12    4.69    0.49
  -2   0 -12   76.98    3.27
  -2   0 -12   86.52    3.76
   2   0  12   81.49    3.67
  -3   0 -12  106.78    4.63
  -3   0 -12   93.27    4.02
   3   0  12  105.31    4.54
  -4   0 -12    0.68    0.54
   4   0  12    0.25    0.43
  -5   0 -12    5.37    0.78
   5   0  12    5.79    0.69
   8  -1 -12   33.69    1.83
   7  -1 -12   27.17    1.48
  -7   1  12   24.86    1.30
  -7   1  12   26.37    1.42
   6  -1 -12    0.41    0.40
  -6   1  12    0.40    0.35
  -6   1  12    0.50    0.34
   5  -1 -12   14.24    0.95
  -5   1  12   14.59    0.89
  -5   1  12   14.60    0.86
   4  -1 -12   39.58    1.90
  -4   1  12   38.14    1.72
  -4   1  12   39.22    1.85
   3  -1 -12    9.64    0.73
  -3   1  12    8.94    0.67
  -3   1  12    9.93    0.65
   2  -1 -12   75.74    3.37
  -2   1  12   75.58    3.32
  -2   1  12   72.03    3.01
   1  -1 -12  220.26    9.45
   1  -1 -12  214.89    8.47
  -1   1  12  221.40    9.40
  -1   1  12  218.78    8.47
   0  -1 -12   46.75    2.19
   0  -1 -12   44.69    1.89
   0   1  12   43.68    2.11
  -1  -1 -12   16.90    0.89
   1   1  12   18.01    1.02
  -2  -1 -12   46.54    2.22
  -2  -1 -12   40.84    1.84
   2   1  12   44.81    2.12
  -3  -1 -12    1.30    0.54
   3   1  12    1.16    0.40
  -4  -1 -12    9.63    0.96
   4   1  12   10.01    0.87
   8  -2 -12    2.06    0.53
   7  -2 -12    7.31    0.69
  -7   2  12    5.78    0.55
  -7   2  12    5.58    0.57
   6  -2 -12    9.27    0.77
  -6   2  12    7.77    0.68
  -6   2  12    8.38    0.67
   5  -2 -12   59.27    2.67
  -5   2  12   54.86    2.40
  -5   2  12   57.30    2.61
   4  -2 -12   42.02    1.96
  -4   2  12   40.19    1.89
  -4   2  12   38.60    1.75
   3  -2 -12    6.34    0.64
  -3   2  12    7.50    0.60
  -3   2  12    6.58    0.56
   2  -2 -12    1.69    0.37
  -2   2  12    1.91    0.34
  -2   2  12    1.80    0.34
   1  -2 -12    8.66    0.74
  -1   2  12    8.95    0.61
  -1   2  12    9.07    0.66
   0  -2 -12   -0.13    0.38
   0  -2 -12    0.07    0.26
   0   2  12   -0.04    0.30
  -1  -2 -12    0.18    0.27
  -1  -2 -12    0.21    0.44
   1   2  12    0.61    0.33
  -2  -2 -12    0.60    0.46
   2   2  12    0.76    0.37
  -3  -2 -12   29.81    1.74
   8  -3 -12    5.48    0.64
   7  -3 -12   -0.58    0.38
  -7   3  12    0.34    0.36
   6  -3 -12   17.28    1.03
  -6   3  12   15.17    0.94
   5  -3 -12    9.92    0.79
  -5   3  12   10.31    0.72
   4  -3 -12    3.03    0.44
  -4   3  12    3.10    0.41
  -4   3  12    3.13    0.37
   3  -3 -12   16.57    1.00
  -3   3  12   16.50    0.89
  -3   3  12   16.48    0.91
   2  -3 -12   31.50    1.67
  -2   3  12   33.29    1.47
  -2   3  12   34.93    1.60
   1  -3 -12    2.29    0.44
  -1   3  12    2.49    0.35
   0  -3 -12    4.59    0.58
  -1  -3 -12    1.34    0.51
  -2  -3 -12    0.69    0.53
   8  -4 -12   24.37    1.42
   7  -4 -12   22.87    1.31
  -7   4  12   23.59    1.28
   6  -4 -12   39.67    1.84
  -6   4  12   34.03    1.67
   5  -4 -12   83.96    3.69
  -5   4  12   79.37    3.33
   4  -4 -12    0.38    0.35
  -4   4  12    0.67    0.34
   3  -4 -12   28.15    1.44
  -3   4  12   26.76    1.28
   2  -4 -12    1.16    0.40
  -2   4  12    1.90    0.34
   1  -4 -12    3.74    0.54
  -1   4  12    3.44    0.38
   0  -4 -12   22.55    1.33
  -1  -4 -12    5.99    0.71
   7  -5 -12    4.27    0.53
   6  -5 -12   13.66    0.94
  -6   5  12   13.73    0.88
   5  -5 -12    0.00    0.35
  -5   5  12    0.28    0.33
   4  -5 -12   26.63    1.40
  -4   5  12   26.52    1.27
   3  -5 -12    1.41    0.39
  -3   5  12    1.55    0.35
   2  -5 -12   11.80    0.87
  -2   5  12   12.06    0.74
   1  -5 -12   85.07    3.74
  -1   5  12   78.13    3.26
   6  -6 -12    1.39    0.42
   5  -6 -12   16.62    1.01
  -5   6  12   15.21    0.95
   4  -6 -12    9.68    0.75
  -4   6  12    7.57    0.68
   3  -6 -12    2.92    0.48
  -3   6  12    3.28    0.41
   2  -6 -12    5.60    0.60
  -2   6  12    5.43    0.47
   0  -8  13    5.64    0.65
   1  -8  13    0.97    0.46
   2  -8  13    0.25    0.44
   3  -8  13    9.28    0.90
   4  -8  13   37.29    1.97
  -2  -7  13    3.15    0.59
  -1  -7  13    0.38    0.45
   0  -7  13   27.16    1.51
   1  -7  13   51.46    2.50
   2  -7  13    2.09    0.51
   3  -7  13  102.80    4.64
   4  -7  13   53.41    2.59
   5  -7  13    1.11    0.51
  -3  -6  13   19.86    1.25
  -2  -6  13    4.00    0.59
  -1  -6  13   13.98    0.99
   0  -6  13   73.07    3.36
   1  -6  13   57.41    2.71
   2  -6  13    1.55    0.46
   3  -6  13    8.43    0.82
   4  -6  13    0.10    0.44
   5  -6  13    5.18    0.65
   6  -6  13    2.16    0.61
  -4  -5  13   13.27    1.02
   3   5 -13    7.83    0.76
  -3  -5  13    9.24    0.83
   2   5 -13   10.89    0.84
  -2  -5  13   12.40    0.90
   1   5 -13   17.74    1.08
  -1  -5  13   18.59    1.11
   0   5 -13    0.85    0.37
   0  -5  13    0.72    0.42
  -1   5 -13    2.42    0.43
   1  -5  13    2.45    0.45
  -2   5 -13   15.67    1.07
   2  -5  13   17.94    1.08
  -3   5 -13   17.47    1.12
   3  -5  13   18.49    1.14
  -4   5 -13   10.69    0.88
   4  -5  13   10.58    0.91
  -5   5 -13    3.27    0.55
   5  -5  13    3.12    0.59
   6  -5  13    1.25    0.56
   5   4 -13    9.40    0.89
  -5  -4  13   10.60    0.92
   4   4 -13   89.61    4.15
  -4  -4  13   93.87    4.16
   3   4 -13    7.66    0.74
  -3  -4  13    8.24    0.77
   2   4 -13   63.93    3.02
  -2  -4  13   67.11    3.03
   1   4 -13  119.65    5.36
  -1  -4  13  122.99    5.35
   0   4 -13   37.23    1.89
   0  -4  13   38.76    1.88
  -1   4 -13    2.22    0.46
   1  -4  13    2.02    0.44
  -2   4 -13   10.12    0.88
   2  -4  13   14.15    0.91
  -3   4 -13    5.10    0.62
   3  -4  13    5.16    0.61
  -4   4 -13   30.03    1.68
   4  -4  13   31.59    1.68
  -5   4 -13    0.65    0.47
   5  -4  13    0.00    0.48
  -6   4 -13   25.12    1.59
   6  -4  13   25.84    1.55
   6   3 -13    3.67    0.62
  -6  -3  13    3.94    0.62
  -6  -3  13    2.69    0.45
   5   3 -13  120.32    5.28
  -5  -3  13  122.42    5.27
  -5  -3  13  111.68    4.71
   4   3 -13   83.73    3.82
  -4  -3  13   86.72    3.81
  -4  -3  13   80.93    3.41
   3   3 -13   11.96    0.87
  -3  -3  13   11.47    0.87
   2   3 -13   46.65    2.26
  -2  -3  13   47.70    2.25
   1   3 -13    0.61    0.36
  -1  -3  13    0.59    0.35
   0   3 -13    6.04    0.63
   0  -3  13    5.33    0.56
  -1   3 -13   37.06    1.90
   1  -3  13   38.43    1.87
  -2   3 -13    3.32    0.53
   2  -3  13    3.39    0.50
  -3   3 -13   86.79    4.09
   3  -3  13   92.12    4.06
  -4   3 -13   87.86    4.14
   4  -3  13   92.31    4.11
  -5   3 -13    9.80    0.91
   5  -3  13    9.66    0.95
   6   2 -13    6.73    0.73
  -6  -2  13    5.41    0.66
  -6  -2  13    6.56    0.58
   5   2 -13    0.08    0.41
  -5  -2  13   -0.01    0.30
  -5  -2  13   -0.07    0.39
   4   2 -13    1.50    0.45
  -4  -2  13    0.94    0.33
  -4  -2  13    1.08    0.43
   3   2 -13    0.71    0.37
  -3  -2  13    0.57    0.37
  -3  -2  13    0.96    0.34
   2   2 -13    2.37    0.43
  -2  -2  13    2.24    0.42
   1   2 -13   10.73    0.82
  -1  -2  13    9.95    0.75
   0   2 -13   97.04    4.37
   0  -2  13   97.62    4.32
  -1   2 -13   40.25    2.02
   1  -2  13   40.73    1.97
  -2   2 -13    0.09    0.40
   2  -2  13    0.41    0.36
  -3   2 -13   17.84    1.20
   3  -2  13   18.95    1.16
  -4   2 -13    4.33    0.70
   4  -2  13    4.78    0.64
  -5   2 -13    1.99    0.61
   5  -2  13    2.15    0.57
   7   1 -13   10.18    0.93
  -7  -1  13    7.74    0.67
  -7  -1  13    8.93    0.89
   6   1 -13   27.16    1.50
  -6  -1  13   24.89    1.29
  -6  -1  13   26.73    1.46
   5   1 -13   16.43    1.07
  -5  -1  13   16.32    1.03
  -5  -1  13   15.53    0.92
   4   1 -13    8.00    0.75
  -4  -1  13    7.42    0.65
  -4  -1  13    9.25    0.74
   3   1 -13   12.36    0.86
  -3  -1  13   10.55    0.72
  -3  -1  13   10.78    0.79
   2   1 -13    0.97    0.39
  -2  -1  13    1.24    0.37
  -2  -1  13    0.14    0.29
   1   1 -13    1.17    0.40
  -1  -1  13    0.81    0.36
   0   1 -13   69.67    3.21
   0  -1  13   68.84    3.15
  -1   1 -13   70.15    3.14
   1  -1  13   63.90    3.06
  -2   1 -13   46.57    2.27
   2  -1  13   44.45    2.19
   3  -1  13   17.35    1.12
  -4   1 -13    3.13    0.66
   4  -1  13    2.59    0.57
  -5   1 -13    1.00    0.60
   5  -1  13    0.67    0.53
   7   0 -13    0.27    0.49
  -7   0  13   -0.25    0.43
  -7   0  13    0.22    0.37
   6   0 -13    5.43    0.65
  -6   0  13    6.53    0.59
  -6   0  13    6.87    0.66
   5   0 -13    4.76    0.57
  -5   0  13    3.79    0.45
  -5   0  13    4.33    0.52
   4   0 -13   39.81    1.90
  -4   0  13   38.66    1.85
  -4   0  13   35.96    1.69
   3   0 -13    4.35    0.53
  -3   0  13    5.53    0.49
  -3   0  13    6.33    0.56
   2   0 -13   85.04    3.82
  -2   0  13   86.18    3.78
  -2   0  13   82.69    3.41
   1   0 -13  175.88    7.56
  -1   0  13  171.20    7.51
   0   0 -13   19.09    1.17
   0   0  13   18.93    1.09
  -1   0 -13   19.91    1.20
   1   0  13   17.99    1.10
   2   0  13   20.62    1.20
  -3   0 -13    0.51    0.54
   3   0  13    0.54    0.43
  -4   0 -13   11.78    1.12
   4   0  13   10.82    0.96
   7  -1 -13    0.94    0.50
  -7   1  13    0.97    0.44
  -7   1  13    0.65    0.37
   6  -1 -13    0.12    0.42
  -6   1  13    0.67    0.37
  -6   1  13    0.14    0.37
   5  -1 -13   81.68    3.51
  -5   1  13   71.59    3.13
  -5   1  13   76.10    3.45
   4  -1 -13  108.21    4.63
  -4   1  13  106.72    4.58
  -4   1  13   96.02    4.14
   3  -1 -13    7.08    0.65
  -3   1  13    6.59    0.61
  -3   1  13    7.38    0.62
   2  -1 -13   27.59    1.45
  -2   1  13   26.62    1.27
  -2   1  13   27.08    1.38
   1  -1 -13   24.53    1.35
  -1   1  13   24.16    1.15
  -1   1  13   23.75    1.27
   0  -1 -13    3.94    0.57
   0   1  13    3.87    0.49
  -1  -1 -13   12.67    0.97
   1   1  13   11.24    0.85
  -2  -1 -13    8.13    0.81
   2   1  13    6.36    0.62
  -3  -1 -13   37.53    2.03
   3   1  13   37.15    1.91
   7  -2 -13    7.21    0.72
   6  -2 -13    0.97    0.43
  -6   2  13    0.40    0.34
  -6   2  13    0.60    0.35
   5  -2 -13    4.32    0.55
  -5   2  13    3.40    0.44
  -5   2  13    3.57    0.46
   4  -2 -13    3.06    0.48
  -4   2  13    2.14    0.38
  -4   2  13    2.44    0.39
   3  -2 -13    5.23    0.56
  -3   2  13    5.10    0.48
  -3   2  13    6.16    0.52
   2  -2 -13    5.06    0.56
  -2   2  13    5.02    0.47
  -2   2  13    4.72    0.47
   1  -2 -13    3.97    0.52
  -1   2  13    2.42    0.40
  -1   2  13    2.14    0.36
   0  -2 -13   13.24    0.99
   0   2  13   12.65    0.85
  -1  -2 -13   31.33    1.72
  -2  -2 -13    2.66    0.61
   7  -3 -13    2.69    0.51
   6  -3 -13   53.72    2.49
  -6   3  13   50.21    2.25
   5  -3 -13   34.20    1.67
  -5   3  13   30.22    1.49
   4  -3 -13    0.71    0.39
  -4   3  13    0.84    0.35
   3  -3 -13   -0.08    0.35
  -3   3  13    0.00    0.31
   2  -3 -13    0.10    0.36
  -2   3  13   -0.07    0.29
   1  -3 -13    8.62    0.79
  -1   3  13    6.48    0.54
   0  -3 -13    6.21    0.70
   7  -4 -13    7.41    0.71
   6  -4 -13   30.33    1.57
  -6   4  13   27.47    1.41
   5  -4 -13    4.98    0.56
  -5   4  13    4.51    0.50
   4  -4 -13    8.65    0.77
  -4   4  13    7.62    0.68
   3  -4 -13    2.79    0.48
  -3   4  13    3.62    0.44
   2  -4 -13   34.99    1.73
  -2   4  13   31.18    1.48
   1  -4 -13   49.91    2.32
  -1   4  13   43.95    1.97
   0  -4 -13   35.85    1.92
   6  -5 -13    1.03    0.43
   5  -5 -13   23.85    1.34
  -5   5  13   24.05    1.23
   4  -5 -13   40.40    1.98
  -4   5  13   39.76    1.79
   3  -5 -13    0.18    0.38
  -3   5  13    0.31    0.32
   2  -5 -13   17.82    1.14
  -2   5  13   17.83    0.96
  -1  -7  14   28.33    1.61
   0  -7  14   90.68    4.15
   1  -7  14   42.49    2.17
   2  -7  14   -0.28    0.43
   3  -7  14   48.27    2.42
   4  -7  14    1.53    0.55
  -2  -6  14   12.62    0.99
  -1  -6  14    0.72    0.47
   0  -6  14    2.31    0.52
   1  -6  14    0.33    0.43
   2  -6  14    1.92    0.52
   3  -6  14    4.16    0.59
   4  -6  14   24.75    1.46
   5  -6  14   26.91    1.59
  -3  -5  14    0.03    0.44
   2   5 -14   14.31    1.01
  -2  -5  14   15.08    1.04
   1   5 -14   72.41    3.42
  -1  -5  14   76.43    3.44
   0   5 -14   16.02    1.08
   0  -5  14   17.83    1.11
  -1   5 -14    5.57    0.63
   1  -5  14    6.02    0.63
  -2   5 -14    3.64    0.53
   2  -5  14    3.39    0.53
  -3   5 -14    1.84    0.48
   3  -5  14    1.63    0.50
  -4   5 -14    0.02    0.41
   4  -5  14    0.74    0.50
   5  -5  14    1.29    0.56
   4   4 -14   83.55    3.97
  -4  -4  14   90.02    3.97
   3   4 -14    0.09    0.38
  -3  -4  14   -0.18    0.40
   2   4 -14   22.24    1.32
  -2  -4  14   23.97    1.33
   1   4 -14   11.91    0.94
  -1  -4  14   13.97    0.94
   0   4 -14   43.07    2.21
   0  -4  14   46.94    2.21
  -1   4 -14   42.02    2.18
   1  -4  14   45.20    2.16
  -2   4 -14    4.32    0.59
   2  -4  14    4.08    0.56
  -3   4 -14  113.75    5.28
   3  -4  14  121.66    5.26
  -4   4 -14   77.68    3.78
   4  -4  14   84.55    3.77
  -5   4 -14    0.41    0.46
   5  -4  14    0.33    0.52
   5   3 -14   11.33    0.94
  -5  -3  14    8.58    0.73
  -5  -3  14    9.92    0.91
   4   3 -14    0.10    0.42
  -4  -3  14   -0.33    0.42
   3   3 -14   28.56    1.58
  -3  -3  14   30.10    1.57
   2   3 -14    0.85    0.43
  -2  -3  14    0.43    0.40
   1   3 -14   60.01    2.84
  -1  -3  14   60.32    2.80
   0   3 -14  102.05    4.69
   0  -3  14  106.72    4.66
  -1   3 -14   30.04    1.65
   1  -3  14   30.89    1.61
  -2   3 -14    2.97    0.56
   2  -3  14    2.56    0.51
  -3   3 -14   42.63    2.17
   3  -3  14   42.15    2.13
  -4   3 -14   12.45    1.07
   4  -3  14   12.69    1.03
   5  -3  14   11.00    1.02
   6   2 -14    2.80    0.57
  -6  -2  14    3.47    0.59
   5   2 -14   13.17    1.04
  -5  -2  14   13.47    0.87
  -5  -2  14   14.16    1.00
   4   2 -14   34.11    1.75
  -4  -2  14   30.36    1.51
  -4  -2  14   34.78    1.72
   3   2 -14    0.54    0.42
  -3  -2  14    0.48    0.33
  -3  -2  14    0.68    0.41
   2   2 -14   47.01    2.26
  -2  -2  14   44.96    2.20
   1   2 -14    0.24    0.40
  -1  -2  14    0.14    0.38
   0   2 -14   21.80    1.32
   0  -2  14   22.78    1.27
  -1   2 -14   13.78    1.03
   1  -2  14   13.37    0.95
  -2   2 -14    0.20    0.44
   2  -2  14   -0.41    0.38
  -3   2 -14    2.77    0.60
   3  -2  14    1.78    0.51
   4  -2  14   26.08    1.52
   6   1 -14    0.07    0.46
  -6  -1  14    0.66    0.37
  -6  -1  14    0.36    0.46
   5   1 -14    1.42    0.50
  -5  -1  14    0.94    0.43
  -5  -1  14    0.97    0.38
   4   1 -14   27.59    1.50
  -4  -1  14   25.47    1.30
  -4  -1  14   27.03    1.44
   3   1 -14    7.94    0.76
  -3  -1  14    5.46    0.51
  -3  -1  14    6.87    0.68
   2   1 -14   22.24    1.25
  -2  -1  14   19.20    1.05
  -2  -1  14   20.71    1.18
   1   1 -14  121.26    5.26
  -1  -1  14  114.54    5.19
   0   1 -14    0.24    0.43
   0  -1  14    0.31    0.38
  -1   1 -14   13.74    1.03
   1  -1  14   13.74    0.96
  -2   1 -14    9.54    0.91
   2  -1  14    7.67    0.78
  -3   1 -14    1.34    0.52
   3  -1  14    1.76    0.52
  -4   1 -14    0.90    0.62
   4  -1  14   -0.05    0.49
   7   0 -14   18.20    1.26
   6   0 -14    4.70    0.62
  -6   0  14    4.04    0.52
  -6   0  14    4.01    0.56
   5   0 -14  130.26    5.67
  -5   0  14  131.50    5.64
  -5   0  14  121.33    5.08
   4   0 -14   83.00    3.60
  -4   0  14   74.57    3.21
  -4   0  14   77.02    3.54
   3   0 -14    7.09    0.69
  -3   0  14    6.96    0.58
  -3   0  14    6.98    0.63
   2   0 -14   63.55    2.83
  -2   0  14   56.15    2.48
  -2   0  14   59.73    2.76
   1   0 -14   24.09    1.38
  -1   0  14   23.25    1.29
   0   0 -14    0.43    0.44
   0   0  14    0.01    0.39
  -1   0 -14   40.52    2.05
   1   0  14   38.31    1.96
  -2   0 -14    1.53    0.57
   2   0  14    1.05    0.43
   3   0  14   53.42    2.59
   7  -1 -14   22.11    1.36
  -7   1  14   20.25    1.27
   6  -1 -14    4.71    0.61
  -6   1  14    4.52    0.52
  -6   1  14    4.33    0.56
   5  -1 -14   11.89    0.94
  -5   1  14   11.47    0.86
  -5   1  14   11.42    0.81
   4  -1 -14    9.88    0.85
  -4   1  14    8.88    0.76
  -4   1  14    9.39    0.72
   3  -1 -14    4.45    0.56
  -3   1  14    5.06    0.52
  -3   1  14    5.71    0.51
   2  -1 -14   29.29    1.54
  -2   1  14   27.90    1.44
  -2   1  14   26.61    1.31
   1  -1 -14   92.06    4.08
  -1   1  14   87.19    4.00
   0  -1 -14   64.34    2.96
   0   1  14   60.09    2.86
  -1  -1 -14   20.81    1.32
   1   1  14   19.86    1.19
   2   1  14    6.99    0.69
   7  -2 -14   13.38    1.05
   6  -2 -14   21.32    1.29
   5  -2 -14    6.66    0.67
  -5   2  14    5.41    0.54
   4  -2 -14    8.72    0.82
  -4   2  14    9.29    0.73
  -4   2  14    9.07    0.73
   3  -2 -14    4.88    0.58
  -3   2  14    4.83    0.50
  -3   2  14    4.47    0.49
   2  -2 -14    0.50    0.43
  -2   2  14    0.16    0.31
  -2   2  14    0.50    0.33
   1  -2 -14    5.59    0.65
   0  -2 -14    5.06    0.66
  -1  -2 -14    0.64    0.51
   6  -3 -14    2.10    0.51
   5  -3 -14   -0.13    0.42
  -5   3  14    0.10    0.35
   4  -3 -14    7.80    0.79
  -4   3  14    8.59    0.73
   3  -3 -14   -0.11    0.39
  -3   3  14    0.43    0.34
   2  -3 -14   30.42    1.61
  -2   3  14   28.63    1.39
   1  -3 -14   52.93    2.56
   0  -3 -14    3.35    0.61
   6  -4 -14    5.41    0.66
   5  -4 -14   49.55    2.41
   4  -4 -14   33.13    1.71
  -4   4  14   31.35    1.52
   3  -4 -14    0.04    0.39
  -3   4  14    0.34    0.34
   2  -4 -14   28.49    1.55
  -2   4  14   27.76    1.34
   1  -4 -14   10.08    0.95
   1  -7  15   -0.26    0.47
   2  -7  15   30.75    1.75
  -1  -6  15    2.71    0.58
   0  -6  15    7.86    0.75
   1  -6  15   23.69    1.44
   2  -6  15    5.91    0.69
   3  -6  15   -0.18    0.49
   4  -6  15    0.60    0.52
  -2  -5  15    0.53    0.46
   1   5 -15    0.06    0.40
  -1  -5  15    0.60    0.44
   0   5 -15    3.73    0.56
   0  -5  15    5.55    0.67
  -1   5 -15    0.97    0.43
   1  -5  15    0.62    0.48
  -2   5 -15   14.07    1.08
   2  -5  15   15.97    1.12
  -3   5 -15   30.90    1.83
   3  -5  15   37.81    1.88
   4  -5  15   16.33    1.20
   4   4 -15    0.46    0.48
   3   4 -15   19.04    1.21
  -3  -4  15   17.47    1.20
   2   4 -15    4.56    0.61
  -2  -4  15    5.98    0.66
   1   4 -15   23.72    1.42
  -1  -4  15   25.61    1.42
   0   4 -15  116.42    5.33
   0  -4  15  121.07    5.30
  -1   4 -15   42.26    2.21
   1  -4  15   44.82    2.19
  -2   4 -15    8.78    0.89
   2  -4  15    8.74    0.87
  -3   4 -15   31.71    1.82
   3  -4  15   34.27    1.79
  -4   4 -15    0.71    0.49
   4  -4  15    1.06    0.56
   4   3 -15   57.92    2.82
  -4  -3  15   59.07    2.80
   3   3 -15   83.51    3.85
  -3  -3  15   83.99    3.83
   2   3 -15    6.94    0.73
  -2  -3  15    5.61    0.64
   1   3 -15   33.94    1.83
  -1  -3  15   35.72    1.81
   0   3 -15   39.10    2.06
   0  -3  15   40.86    2.02
  -1   3 -15    0.29    0.44
   1  -3  15    0.47    0.45
  -2   3 -15    5.07    0.69
   2  -3  15    3.63    0.58
  -3   3 -15    0.43    0.50
   3  -3  15    0.33    0.48
  -4   3 -15   23.25    1.44
   4  -3  15   19.43    1.35
   5   2 -15    0.33    0.50
  -5  -2  15    1.31    0.46
   4   2 -15    0.23    0.44
  -4  -2  15    0.10    0.44
  -4  -2  15    0.32    0.37
   3   2 -15    5.25    0.64
  -3  -2  15    5.68    0.61
   2   2 -15   11.13    0.93
  -2  -2  15   10.85    0.88
   1   2 -15    8.74    0.86
  -1  -2  15    9.24    0.81
   0   2 -15   16.91    1.16
   0  -2  15   17.01    1.11
  -1   2 -15    5.00    0.68
   1  -2  15    6.37    0.67
  -2   2 -15    0.49    0.47
   2  -2  15    1.05    0.49
  -3   2 -15    0.17    0.49
   3  -2  15    0.16    0.47
   5   1 -15   55.30    2.65
  -5  -1  15   52.47    2.58
   4   1 -15   81.21    3.59
  -4  -1  15   79.41    3.54
  -4  -1  15   70.89    3.18
   3   1 -15    3.06    0.54
  -3  -1  15    4.21    0.50
  -3  -1  15    3.12    0.50
   2   1 -15    2.46    0.49
  -2  -1  15    2.17    0.48
   1   1 -15   13.43    1.01
  -1  -1  15   12.03    0.91
   0   1 -15    0.83    0.46
   0  -1  15    0.73    0.43
  -1   1 -15   -0.09    0.44
   1  -1  15    0.00    0.43
  -2   1 -15    2.86    0.59
   2  -1  15    4.18    0.60
  -3   1 -15   18.27    1.34
   3  -1  15   17.68    1.20
   6   0 -15    2.72    0.57
  -6   0  15    3.15    0.56
   5   0 -15   40.61    2.06
  -5   0  15   39.78    2.02
   4   0 -15    3.49    0.57
  -4   0  15    2.96    0.46
  -4   0  15    2.89    0.51
   3   0 -15    2.72    0.52
  -3   0  15    2.28    0.45
  -3   0  15    2.85    0.43
   2   0 -15    7.01    0.69
  -2   0  15    6.47    0.59
  -2   0  15    7.29    0.71
   1   0 -15   23.10    1.37
  -1   0  15   21.42    1.25
   0   0 -15   84.40    3.84
   0   0  15   80.80    3.76
  -1   0 -15   21.04    1.39
   1   0  15   21.54    1.29
  -2   0 -15   14.14    1.15
   2   0  15   11.24    0.97
   6  -1 -15    1.15    0.52
   5  -1 -15   -0.03    0.46
  -5   1  15    0.14    0.39
   4  -1 -15   40.95    2.05
  -4   1  15   41.76    1.99
  -4   1  15   37.66    1.81
   3  -1 -15   48.43    2.29
  -3   1  15   45.32    2.19
  -3   1  15   43.76    2.01
   2  -1 -15   12.82    0.99
  -2   1  15   10.25    0.78
  -2   1  15   11.55    0.85
   1  -1 -15    0.07    0.44
  -1   1  15    0.27    0.36
   0  -1 -15   44.23    2.18
   0   1  15   40.42    2.07
  -1  -1 -15    9.37    0.91
   6  -2 -15    0.42    0.49
   5  -2 -15    0.41    0.46
   4  -2 -15    0.78    0.45
  -4   2  15    0.93    0.41
   3  -2 -15    4.27    0.57
  -3   2  15    5.17    0.53
   2  -2 -15   21.58    1.28
  -2   2  15   17.99    1.04
   1  -2 -15    5.52    0.67
   0  -2 -15    0.44    0.50
   5  -3 -15   34.15    1.82
   4  -3 -15   31.00    1.70
   3  -3 -15   -0.07    0.44
  -3   3  15    0.10    0.35
   2  -3 -15   23.67    1.40
  -2   3  15   21.58    1.16
   1  -3 -15   10.98    0.99
  -1  -5  16   32.00    1.76
   0  -5  16   46.29    2.34
  -1   5 -16   35.04    1.98
   1  -5  16   38.82    1.98
   2  -5  16   13.32    1.11
   3   4 -16   68.95    3.33
  -3  -4  16   71.42    3.32
   2   4 -16    0.54    0.47
  -2  -4  16    0.77    0.52
   1   4 -16   29.23    1.70
  -1  -4  16   31.81    1.69
   0   4 -16   44.77    2.35
   0  -4  16   48.47    2.33
  -1   4 -16    0.21    0.47
   1  -4  16    0.13    0.50
  -2   4 -16    9.14    0.88
   2  -4  16   10.46    0.97
  -3   4 -16    0.29    0.51
   3  -4  16    0.21    0.54
   3   3 -16    6.78    0.74
  -3  -3  16    7.07    0.74
   2   3 -16    0.66    0.47
  -2  -3  16    1.59    0.51
   1   3 -16    1.00    0.49
  -1  -3  16    0.97    0.47
   0   3 -16   24.86    1.50
   0  -3  16   25.44    1.48
  -1   3 -16   24.30    1.47
   1  -3  16   22.81    1.42
  -2   3 -16   11.74    1.07
   2  -3  16   12.53    1.04
  -3   3 -16    7.93    0.85
   3  -3  16    6.66    0.79
   4   2 -16   15.91    1.14
  -4  -2  16   14.00    1.07
   3   2 -16    7.82    0.80
  -3  -2  16    7.09    0.73
   2   2 -16   10.60    0.98
  -2  -2  16   10.31    0.90
   1   2 -16    1.33    0.51
  -1  -2  16    0.95    0.46
   0   2 -16    0.47    0.50
   0  -2  16    0.42    0.48
  -1   2 -16   -0.02    0.50
   1  -2  16    0.35    0.50
  -2   2 -16    6.63    0.76
   2  -2  16    5.85    0.70
   4   1 -16    0.80    0.50
  -4  -1  16   -0.18    0.44
   3   1 -16    4.01    0.63
  -3  -1  16    5.18    0.65
   2   1 -16    0.50    0.46
  -2  -1  16    0.52    0.44
   1   1 -16   33.11    1.82
  -1  -1  16   32.96    1.74
   0   1 -16   39.73    2.11
   0  -1  16   39.89    2.03
  -1   1 -16   11.62    1.06
   1  -1  16   10.61    0.99
  -2   1 -16    5.84    0.81
   2  -1  16    5.70    0.69
   5   0 -16   17.98    1.24
   4   0 -16    5.02    0.69
  -4   0  16    5.37    0.64
   3   0 -16   56.56    2.69
  -3   0  16   53.00    2.60
   2   0 -16    3.23    0.61
  -2   0  16    4.74    0.61
   1   0 -16   36.06    1.94
  -1   0  16   36.19    1.85
   0   0 -16   68.55    3.27
   0   0  16   67.35    3.17
  -1   0 -16    1.17    0.58
   1   0  16    1.46    0.53
   5  -1 -16   -0.09    0.48
   4  -1 -16   33.74    1.84
   3  -1 -16    5.77    0.68
   2  -1 -16   14.95    1.13
   1  -1 -16   18.15    1.25
   0  -1 -16    6.63    0.80
   4  -2 -16   14.59    1.10
   3  -2 -16   -0.17    0.44
   2  -2 -16    2.82    0.59
  -2   2  16    1.90    0.48
   0   4 -17    6.76    0.77
   2   3 -17   11.68    1.07
  -2  -3  17   12.87    1.04
   1   3 -17    0.15    0.48
  -1  -3  17    0.75    0.52
   0   3 -17   13.00    1.11
   0  -3  17   12.55    1.05
  -1   3 -17   33.56    1.91
   1  -3  17   34.71    1.88
   2   2 -17   -0.23    0.49
  -2  -2  17    0.40    0.45
   1   2 -17    6.86    0.79
  -1  -2  17    8.11    0.79
   0   2 -17   16.77    1.25
   0  -2  17   16.28    1.18
   3   1 -17   48.16    2.40
  -3  -1  17   45.45    2.32
   2   1 -17   -0.18    0.50
  -2  -1  17   -0.27    0.45
   1   1 -17   45.03    2.38
  -1  -1  17   47.58    2.32
   0   1 -17   30.40    1.76
   0  -1  17   29.02    1.66
   2   0 -17    3.63    0.67
  -2   0  17    3.01    0.57
   0   0   0    0.00    0.00
;
_shelx_hkl_checksum              85535
loop_
_space_group_symop_operation_xyz
'x, y, z'
'-x, -y, -z'
loop_
_atom_site_label
_atom_site_type_symbol
_atom_site_fract_x
_atom_site_fract_y
_atom_site_fract_z
_atom_site_U_iso_or_equiv
_atom_site_adp_type
_atom_site_occupancy
_atom_site_site_symmetry_order
_atom_site_calc_flag
_atom_site_refinement_flags_posn
_atom_site_refinement_flags_adp
_atom_site_refinement_flags_occupancy
_atom_site_disorder_assembly
_atom_site_disorder_group
Zn1 Zn 0.32054(3) 0.24957(2) 0.33508(2) 0.01722(7) Uani 1 1 d . . . . .
Br1 Br 0.31132(2) 0.50852(2) 0.40176(2) 0.02338(7) Uani 1 1 d . . . . .
Br2 Br 0.57198(2) 0.26792(2) 0.27426(2) 0.02472(7) Uani 1 1 d . . . . .
N1 N -0.19626(19) -0.05172(19) 0.15093(11) 0.0170(3) Uani 1 1 d . . . . .
N2 N 0.07538(19) 0.08478(18) 0.23875(11) 0.0158(3) Uani 1 1 d . . . . .
N3 N -0.11034(19) 0.14537(18) 0.01248(11) 0.0174(3) Uani 1 1 d . . . . .
N4 N 0.22185(19) 0.05571(18) 0.40914(11) 0.0164(3) Uani 1 1 d . . . . .
O1 O -0.34134(16) -0.09904(17) 0.07754(10) 0.0240(3) Uani 1 1 d . . . . .
H1 H -0.293(3) -0.020(3) 0.0346(17) 0.036 Uiso 1 1 d . U . . .
C1 C -0.2035(2) -0.1314(2) 0.22599(13) 0.0161(3) Uani 1 1 d . . . . .
C2 C -0.0308(2) -0.0449(2) 0.28080(13) 0.0157(3) Uani 1 1 d . . . . .
C3 C -0.0268(2) 0.0789(2) 0.15885(13) 0.0159(3) Uani 1 1 d . . . . .
C4 C 0.0214(2) 0.1838(2) 0.08679(13) 0.0169(4) Uani 1 1 d . . . . .
C5 C 0.1986(2) 0.3164(2) 0.09655(13) 0.0193(4) Uani 1 1 d . . . . .
H5 H 0.288641 0.337545 0.148475 0.023 Uiso 1 1 calc R U . . .
C6 C 0.2334(2) 0.4126(2) 0.02735(14) 0.0207(4) Uani 1 1 d . . . . .
H6 H 0.348666 0.500996 0.032296 0.025 Uiso 1 1 calc R U . . .
C7 C 0.0972(2) 0.3793(2) -0.05096(13) 0.0179(4) Uani 1 1 d . . . . .
C8 C -0.0767(2) 0.2395(2) -0.05744(13) 0.0171(4) Uani 1 1 d . . . . .
C9 C 0.1241(3) 0.4768(2) -0.12395(14) 0.0217(4) Uani 1 1 d . . . . .
H9 H 0.236087 0.570055 -0.119847 0.026 Uiso 1 1 calc R U . . .
C10 C -0.0130(3) 0.4349(2) -0.20005(14) 0.0250(4) Uani 1 1 d . . . . .
H10 H 0.005865 0.499561 -0.247457 0.030 Uiso 1 1 calc R U . . .
C11 C -0.1837(3) 0.2934(3) -0.20706(14) 0.0239(4) Uani 1 1 d . . . . .
H11 H -0.275593 0.264362 -0.260029 0.029 Uiso 1 1 calc R U . . .
C12 C -0.2157(2) 0.1986(2) -0.13722(14) 0.0217(4) Uani 1 1 d . . . . .
H12 H -0.329266 0.107063 -0.142281 0.026 Uiso 1 1 calc R U . . .
C13 C 0.0512(2) -0.0694(2) 0.36942(13) 0.0157(3) Uani 1 1 d . . . . .
C14 C -0.0321(2) -0.2123(2) 0.41016(14) 0.0195(4) Uani 1 1 d . . . . .
H14 H -0.149989 -0.297120 0.383193 0.023 Uiso 1 1 calc R U . . .
C15 C 0.0633(3) -0.2256(2) 0.49079(14) 0.0227(4) Uani 1 1 d . . . . .
H15 H 0.010135 -0.320097 0.518491 0.027 Uiso 1 1 calc R U . . .
C16 C 0.2386(3) -0.0976(2) 0.53059(14) 0.0232(4) Uani 1 1 d . . . . .
H16 H 0.304939 -0.105025 0.584807 0.028 Uiso 1 1 calc R U . . .
C17 C 0.3120(2) 0.0405(2) 0.48780(13) 0.0198(4) Uani 1 1 d . . . . .
H17 H 0.429212 0.127131 0.514608 0.024 Uiso 1 1 calc R U . . .
C18 C -0.3736(2) -0.2783(2) 0.23562(15) 0.0223(4) Uani 1 1 d . . . . .
H18A H -0.382518 -0.263380 0.304588 0.033 Uiso 1 1 calc R U . . .
H18B H -0.375199 -0.387719 0.211352 0.033 Uiso 1 1 calc R U . . .
H18C H -0.472501 -0.278197 0.197094 0.033 Uiso 1 1 calc R U . . .
loop_
_atom_site_aniso_label
_atom_site_aniso_U_11
_atom_site_aniso_U_22
_atom_site_aniso_U_33
_atom_site_aniso_U_23
_atom_site_aniso_U_13
_atom_site_aniso_U_12
Zn1 0.01383(12) 0.01504(12) 0.01972(12) 0.00813(9) 0.00317(9) 0.00317(9)
Br1 0.02433(12) 0.01607(11) 0.02674(12) 0.00717(8) 0.00527(8) 0.00667(9)
Br2 0.01737(11) 0.02843(12) 0.02980(12) 0.01487(9) 0.00924(8) 0.00870(9)
N1 0.0124(7) 0.0174(7) 0.0177(7) 0.0047(6) 0.0015(6) 0.0045(6)
N2 0.0152(7) 0.0142(7) 0.0169(7) 0.0061(6) 0.0046(6) 0.0052(6)
N3 0.0185(7) 0.0164(7) 0.0173(7) 0.0050(6) 0.0036(6) 0.0082(6)
N4 0.0156(7) 0.0149(7) 0.0182(7) 0.0056(6) 0.0048(6) 0.0063(6)
O1 0.0156(6) 0.0272(7) 0.0231(7) 0.0099(6) -0.0018(5) 0.0051(6)
C1 0.0160(8) 0.0142(8) 0.0166(8) 0.0046(7) 0.0034(7) 0.0058(7)
C2 0.0172(8) 0.0129(8) 0.0173(9) 0.0061(7) 0.0063(7) 0.0062(7)
C3 0.0143(8) 0.0135(8) 0.0185(9) 0.0045(7) 0.0038(7) 0.0055(7)
C4 0.0192(9) 0.0157(8) 0.0167(9) 0.0040(7) 0.0046(7) 0.0089(7)
C5 0.0170(9) 0.0208(9) 0.0173(9) 0.0064(7) 0.0021(7) 0.0066(8)
C6 0.0194(9) 0.0190(9) 0.0209(9) 0.0064(7) 0.0069(7) 0.0061(8)
C7 0.0227(9) 0.0175(9) 0.0174(9) 0.0061(7) 0.0081(7) 0.0115(8)
C8 0.0212(9) 0.0165(8) 0.0166(9) 0.0044(7) 0.0039(7) 0.0116(7)
C9 0.0262(10) 0.0221(9) 0.0212(9) 0.0092(8) 0.0101(8) 0.0131(8)
C10 0.0374(11) 0.0271(10) 0.0226(10) 0.0143(8) 0.0148(9) 0.0210(9)
C11 0.0302(10) 0.0316(10) 0.0181(9) 0.0083(8) 0.0036(8) 0.0212(9)
C12 0.0215(9) 0.0206(9) 0.0225(10) 0.0045(8) 0.0033(8) 0.0105(8)
C13 0.0156(8) 0.0155(8) 0.0167(8) 0.0047(7) 0.0056(7) 0.0073(7)
C14 0.0170(9) 0.0176(9) 0.0215(9) 0.0072(7) 0.0061(7) 0.0051(7)
C15 0.0282(10) 0.0218(9) 0.0241(10) 0.0139(8) 0.0135(8) 0.0126(8)
C16 0.0269(10) 0.0277(10) 0.0210(9) 0.0121(8) 0.0071(8) 0.0155(9)
C17 0.0163(8) 0.0208(9) 0.0208(9) 0.0068(7) 0.0024(7) 0.0075(7)
C18 0.0153(9) 0.0222(9) 0.0245(10) 0.0101(8) 0.0053(7) 0.0032(8)
loop_
_atom_type_symbol
_atom_type_description
_atom_type_scat_dispersion_real
_atom_type_scat_dispersion_imag
_atom_type_scat_source
C C 0.0033 0.0016 'International Tables Vol C Tables 4.2.6.8 and 6.1.1.4'
H H 0.0000 0.0000 'International Tables Vol C Tables 4.2.6.8 and 6.1.1.4'
N N 0.0061 0.0033 'International Tables Vol C Tables 4.2.6.8 and 6.1.1.4'
O O 0.0106 0.0060 'International Tables Vol C Tables 4.2.6.8 and 6.1.1.4'
Zn Zn 0.2839 1.4301 'International Tables Vol C Tables 4.2.6.8 and 6.1.1.4'
Br Br -0.2901 2.4595 'International Tables Vol C Tables 4.2.6.8 and 6.1.1.4'
loop_
_geom_angle_atom_site_label_1
_geom_angle_atom_site_label_2
_geom_angle_atom_site_label_3
_geom_angle
_geom_angle_site_symmetry_1
_geom_angle_site_symmetry_3
_geom_angle_publ_flag
N4 Zn1 N2 80.94(6) . . ?
N4 Zn1 Br2 112.28(4) . . ?
N2 Zn1 Br2 116.27(4) . . ?
N4 Zn1 Br1 116.35(4) . . ?
N2 Zn1 Br1 105.27(4) . . ?
Br2 Zn1 Br1 119.372(10) . . ?
C1 N1 C3 110.60(15) . . ?
C1 N1 O1 123.59(14) . . ?
C3 N1 O1 125.80(15) . . ?
C3 N2 C2 107.36(14) . . ?
C3 N2 Zn1 140.75(12) . . ?
C2 N2 Zn1 110.34(11) . . ?
C4 N3 C8 119.23(15) . . ?
C17 N4 C13 119.17(15) . . ?
C17 N4 Zn1 126.33(12) . . ?
C13 N4 Zn1 114.44(12) . . ?
N1 O1 H1 104.0(13) . . ?
N1 C1 C2 104.28(14) . . ?
N1 C1 C18 121.72(16) . . ?
C2 C1 C18 134.00(17) . . ?
N2 C2 C1 109.67(16) . . ?
N2 C2 C13 118.42(15) . . ?
C1 C2 C13 131.90(16) . . ?
N2 C3 N1 108.08(15) . . ?
N2 C3 C4 129.24(15) . . ?
N1 C3 C4 122.66(16) . . ?
N3 C4 C5 123.24(16) . . ?
N3 C4 C3 115.60(15) . . ?
C5 C4 C3 121.16(16) . . ?
C6 C5 C4 117.97(17) . . ?
C6 C5 H5 121.0 . . ?
C4 C5 H5 121.0 . . ?
C5 C6 C7 120.66(17) . . ?
C5 C6 H6 119.7 . . ?
C7 C6 H6 119.7 . . ?
C6 C7 C9 123.34(17) . . ?
C6 C7 C8 117.93(16) . . ?
C9 C7 C8 118.73(17) . . ?
N3 C8 C12 119.64(16) . . ?
N3 C8 C7 120.91(16) . . ?
C12 C8 C7 119.45(16) . . ?
C10 C9 C7 120.54(18) . . ?
C10 C9 H9 119.7 . . ?
C7 C9 H9 119.7 . . ?
C9 C10 C11 120.21(17) . . ?
C9 C10 H10 119.9 . . ?
C11 C10 H10 119.9 . . ?
C12 C11 C10 121.01(18) . . ?
C12 C11 H11 119.5 . . ?
C10 C11 H11 119.5 . . ?
C11 C12 C8 120.04(17) . . ?
C11 C12 H12 120.0 . . ?
C8 C12 H12 120.0 . . ?
N4 C13 C14 120.83(16) . . ?
N4 C13 C2 114.56(15) . . ?
C14 C13 C2 124.56(16) . . ?
C15 C14 C13 118.98(17) . . ?
C15 C14 H14 120.5 . . ?
C13 C14 H14 120.5 . . ?
C14 C15 C16 119.87(17) . . ?
C14 C15 H15 120.1 . . ?
C16 C15 H15 120.1 . . ?
C17 C16 C15 118.26(18) . . ?
C17 C16 H16 120.9 . . ?
C15 C16 H16 120.9 . . ?
N4 C17 C16 122.88(17) . . ?
N4 C17 H17 118.6 . . ?
C16 C17 H17 118.6 . . ?
C1 C18 H18A 109.5 . . ?
C1 C18 H18B 109.5 . . ?
H18A C18 H18B 109.5 . . ?
C1 C18 H18C 109.5 . . ?
H18A C18 H18C 109.5 . . ?
H18B C18 H18C 109.5 . . ?
loop_
_geom_bond_atom_site_label_1
_geom_bond_atom_site_label_2
_geom_bond_distance
_geom_bond_site_symmetry_2
_geom_bond_publ_flag
Zn1 N4 2.0568(14) . ?
Zn1 N2 2.0755(15) . ?
Zn1 Br2 2.3518(3) . ?
Zn1 Br1 2.3522(3) . ?
N1 C1 1.354(2) . ?
N1 C3 1.368(2) . ?
N1 O1 1.3756(19) . ?
N2 C3 1.324(2) . ?
N2 C2 1.378(2) . ?
N3 C4 1.326(2) . ?
N3 C8 1.364(2) . ?
N4 C17 1.340(2) . ?
N4 C13 1.353(2) . ?
O1 H1 0.98(2) . ?
C1 C2 1.381(2) . ?
C1 C18 1.494(2) . ?
C2 C13 1.458(2) . ?
C3 C4 1.454(2) . ?
C4 C5 1.415(2) . ?
C5 C6 1.367(3) . ?
C5 H5 0.9300 . ?
C6 C7 1.401(3) . ?
C6 H6 0.9300 . ?
C7 C9 1.420(3) . ?
C7 C8 1.426(3) . ?
C8 C12 1.410(2) . ?
C9 C10 1.364(3) . ?
C9 H9 0.9300 . ?
C10 C11 1.413(3) . ?
C10 H10 0.9300 . ?
C11 C12 1.366(3) . ?
C11 H11 0.9300 . ?
C12 H12 0.9300 . ?
C13 C14 1.400(2) . ?
C14 C15 1.377(3) . ?
C14 H14 0.9300 . ?
C15 C16 1.387(3) . ?
C15 H15 0.9300 . ?
C16 C17 1.375(3) . ?
C16 H16 0.9300 . ?
C17 H17 0.9300 . ?
C18 H18A 0.9600 . ?
C18 H18B 0.9600 . ?
C18 H18C 0.9600 . ?
loop_
_geom_torsion_atom_site_label_1
_geom_torsion_atom_site_label_2
_geom_torsion_atom_site_label_3
_geom_torsion_atom_site_label_4
_geom_torsion
_geom_torsion_site_symmetry_1
_geom_torsion_site_symmetry_2
_geom_torsion_site_symmetry_3
_geom_torsion_site_symmetry_4
_geom_torsion_publ_flag
C3 N1 C1 C2 -0.24(18) . . . . ?
O1 N1 C1 C2 179.45(14) . . . . ?
C3 N1 C1 C18 179.55(15) . . . . ?
O1 N1 C1 C18 -0.8(2) . . . . ?
C3 N2 C2 C1 -0.84(18) . . . . ?
Zn1 N2 C2 C1 168.00(10) . . . . ?
C3 N2 C2 C13 178.55(13) . . . . ?
Zn1 N2 C2 C13 -12.60(18) . . . . ?
N1 C1 C2 N2 0.66(17) . . . . ?
C18 C1 C2 N2 -179.10(18) . . . . ?
N1 C1 C2 C13 -178.63(16) . . . . ?
C18 C1 C2 C13 1.6(3) . . . . ?
C2 N2 C3 N1 0.67(18) . . . . ?
Zn1 N2 C3 N1 -162.67(13) . . . . ?
C2 N2 C3 C4 -177.83(15) . . . . ?
Zn1 N2 C3 C4 18.8(3) . . . . ?
C1 N1 C3 N2 -0.27(19) . . . . ?
O1 N1 C3 N2 -179.96(13) . . . . ?
C1 N1 C3 C4 178.35(14) . . . . ?
O1 N1 C3 C4 -1.3(2) . . . . ?
C8 N3 C4 C5 -1.5(2) . . . . ?
C8 N3 C4 C3 179.01(14) . . . . ?
N2 C3 C4 N3 178.64(15) . . . . ?
N1 C3 C4 N3 0.3(2) . . . . ?
N2 C3 C4 C5 -0.9(3) . . . . ?
N1 C3 C4 C5 -179.15(16) . . . . ?
N3 C4 C5 C6 2.0(3) . . . . ?
C3 C4 C5 C6 -178.50(15) . . . . ?
C4 C5 C6 C7 -0.4(2) . . . . ?
C5 C6 C7 C9 178.70(16) . . . . ?
C5 C6 C7 C8 -1.7(2) . . . . ?
C4 N3 C8 C12 179.48(14) . . . . ?
C4 N3 C8 C7 -0.7(2) . . . . ?
C6 C7 C8 N3 2.2(2) . . . . ?
C9 C7 C8 N3 -178.10(14) . . . . ?
C6 C7 C8 C12 -177.92(14) . . . . ?
C9 C7 C8 C12 1.7(2) . . . . ?
C6 C7 C9 C10 178.18(15) . . . . ?
C8 C7 C9 C10 -1.5(2) . . . . ?
C7 C9 C10 C11 -0.1(3) . . . . ?
C9 C10 C11 C12 1.3(3) . . . . ?
C10 C11 C12 C8 -1.0(3) . . . . ?
N3 C8 C12 C11 179.34(16) . . . . ?
C7 C8 C12 C11 -0.5(2) . . . . ?
C17 N4 C13 C14 0.7(2) . . . . ?
Zn1 N4 C13 C14 178.12(12) . . . . ?
C17 N4 C13 C2 -176.70(14) . . . . ?
Zn1 N4 C13 C2 0.67(17) . . . . ?
N2 C2 C13 N4 8.3(2) . . . . ?
C1 C2 C13 N4 -172.44(16) . . . . ?
N2 C2 C13 C14 -169.01(15) . . . . ?
C1 C2 C13 C14 10.2(3) . . . . ?
N4 C13 C14 C15 -0.9(2) . . . . ?
C2 C13 C14 C15 176.23(15) . . . . ?
C13 C14 C15 C16 0.4(3) . . . . ?
C14 C15 C16 C17 0.3(3) . . . . ?
C13 N4 C17 C16 0.0(3) . . . . ?
Zn1 N4 C17 C16 -177.02(13) . . . . ?
C15 C16 C17 N4 -0.6(3) . . . . ?
