#------------------------------------------------------------------------------
#$Date: 2022-09-07 01:50:44 +0300 (Wed, 07 Sep 2022) $
#$Revision: 277696 $
#$URL: file:///home/coder/svn-repositories/cod/cif/7/71/11/7711176.cif $
#------------------------------------------------------------------------------
#
# This file is available in the Crystallography Open Database (COD),
# http://www.crystallography.net/
#
# All data on this site have been placed in the public domain by the
# contributors.
#
data_7711176
loop_
_publ_author_name
'Fraunhofer, Christina'
'Paul, Theresa'
'Oeckler, Oliver'
_publ_section_title
;
 Temperature-dependent Cu and Ag ion mobility and associated changes of
 transport properties in pavonite-type Cu1.4Ag0.4Bi5.4Se9
;
_journal_name_full               'Dalton Transactions'
_journal_paper_doi               10.1039/D2DT01651F
_journal_year                    2022
_chemical_formula_sum            'Ag0.8 Bi10.8 Cu2.8 Se18'
_chemical_formula_weight         3942.47
_space_group_crystal_system      monoclinic
_space_group_IT_number           12
_space_group_name_Hall           '-C 2y'
_space_group_name_H-M_alt        'C 1 2/m 1'
_atom_sites_solution_primary     direct
_atom_sites_solution_secondary   difmap
_audit_creation_method           SHELXL-2017/1
_audit_update_record
;
2021-06-07 deposited with the CCDC.	2022-09-05 downloaded from the CCDC.
;
_cell_angle_alpha                90
_cell_angle_beta                 99.501(6)
_cell_angle_gamma                90
_cell_formula_units_Z            1
_cell_length_a                   13.6967(10)
_cell_length_b                   4.1815(3)
_cell_length_c                   15.2646(10)
_cell_measurement_reflns_used    12519
_cell_measurement_temperature    323(2)
_cell_measurement_theta_max      29.815
_cell_measurement_theta_min      2.12
_cell_volume                     862.25(11)
_computing_structure_refinement  'SHELXL-2017/1 (Sheldrick, 2017)'
_diffrn_ambient_temperature      323(2)
_diffrn_measured_fraction_theta_full 0.996
_diffrn_measured_fraction_theta_max 0.996
_diffrn_measurement_device_type  'Stoe Stadivari'
_diffrn_radiation_type           AgK\a
_diffrn_radiation_wavelength     0.56083
_diffrn_reflns_av_R_equivalents  0.0251
_diffrn_reflns_av_unetI/netI     0.0189
_diffrn_reflns_Laue_measured_fraction_full 0.996
_diffrn_reflns_Laue_measured_fraction_max 0.996
_diffrn_reflns_limit_h_max       16
_diffrn_reflns_limit_h_min       -13
_diffrn_reflns_limit_k_max       5
_diffrn_reflns_limit_k_min       -5
_diffrn_reflns_limit_l_max       16
_diffrn_reflns_limit_l_min       -19
_diffrn_reflns_number            4931
_diffrn_reflns_point_group_measured_fraction_full 0.996
_diffrn_reflns_point_group_measured_fraction_max 0.996
_diffrn_reflns_theta_full        19.664
_diffrn_reflns_theta_max         20.503
_diffrn_reflns_theta_min         2.379
_exptl_absorpt_coefficient_mu    41.236
_exptl_absorpt_correction_T_max  0.0959
_exptl_absorpt_correction_T_min  0.0282
_exptl_absorpt_correction_type   multi-scan
_exptl_absorpt_process_details   '(Blessing, 1995)'
_exptl_crystal_density_diffrn    7.592
_exptl_crystal_description       'irregular polyhedron'
_exptl_crystal_F_000             1627
_exptl_crystal_size_max          0.080
_exptl_crystal_size_mid          0.078
_exptl_crystal_size_min          0.042
_refine_diff_density_max         3.527
_refine_diff_density_min         -1.970
_refine_diff_density_rms         0.417
_refine_ls_extinction_coef       0.00111(12)
_refine_ls_extinction_expression Fc^*^=kFc[1+0.001xFc^2^\l^3^/sin(2\q)]^-1/4^
_refine_ls_extinction_method     'SHELXL-2017/1 (Sheldrick 2017)'
_refine_ls_goodness_of_fit_ref   1.221
_refine_ls_hydrogen_treatment    undef
_refine_ls_matrix_type           full
_refine_ls_number_parameters     75
_refine_ls_number_reflns         1004
_refine_ls_number_restraints     4
_refine_ls_restrained_S_all      1.218
_refine_ls_R_factor_all          0.0370
_refine_ls_R_factor_gt           0.0306
_refine_ls_shift/su_max          0.000
_refine_ls_shift/su_mean         0.000
_refine_ls_structure_factor_coef Fsqd
_refine_ls_weighting_details
'w=1/[\s^2^(Fo^2^)+(0.0447P)^2^+4.9000P] where P=(Fo^2^+2Fc^2^)/3'
_refine_ls_weighting_scheme      calc
_refine_ls_wR_factor_gt          0.0745
_refine_ls_wR_factor_ref         0.0774
_reflns_Friedel_coverage         0.000
_reflns_number_gt                883
_reflns_number_total             1004
_reflns_threshold_expression     'I > 2\s(I)'
_cod_data_source_file            d2dt01651f2.cif
_cod_data_source_block           CF215A_K3_50
_cod_original_sg_symbol_H-M      'C 2/m'
_cod_original_formula_sum        'Ag0.80 Bi10.80 Cu2.80 Se18'
_cod_database_code               7711176
_shelx_shelxl_version_number     2017/1
_shelx_space_group_comment
;
The symmetry employed for this shelxl refinement is uniquely defined
by the following loop, which should always be used as a source of
symmetry information in preference to the above space-group names.
They are only intended as comments.
;
_shelx_res_file
;
TITL CF215A_K3_50 in C2/m
    CF215A_K3_50.res
    created by SHELXL-2017/1 at 11:10:57 on 22-May-2021
CELL 0.56083  13.6967   4.1815  15.2646  90.0000  99.501  90.0000
ZERR    1.00   0.0010   0.0003   0.0010   0.0000   0.006   0.0000
LATT  7
SYMM -X, Y, -Z
SFAC CU SE AG BI
UNIT 2.8 18 0.8 10.8

L.S. 20
BOND
FMAP 2
PLAN 20

ACTA

SHEL 0.8 10000

OMIT 0 0 2

EXYZ BI2 AG2
EADP BI2 AG2

SUMP 6.8 0.001 4 2 4 4
SUMP 0.8 0.001 4 5
SUMP 2.8 0.001 4 3 4 6 4 7 4 8
SUMP 1 0.001 1 2 1 3

WGHT    0.044700    4.900000
EXTI    0.001111
FVAR       0.03278   0.94282   0.05708   0.75723   0.20002   0.08080   0.23889
FVAR       0.32321
BI1   4    0.451306    0.000000    0.189806    20.50000    0.02600    0.02261 =
         0.02098    0.00000    0.00419    0.00000
CU1   1    0.502446    0.000000    0.235522    30.50000    0.07573
BI2   4    0.151719    0.000000    0.062530    40.50000    0.02253    0.02252 =
         0.02967    0.00000    0.00465    0.00000
AG2   3    0.151719    0.000000    0.062530    50.50000    0.02253    0.02252 =
         0.02967    0.00000    0.00465    0.00000
BI3   4    0.244017    0.000000    0.622230    10.50000    0.04059    0.03546 =
         0.02489    0.00000   -0.00672    0.00000
SE1   2    0.402526    0.000000    0.360385    10.50000    0.02278    0.02177 =
         0.02204    0.00000    0.00888    0.00000
SE2   2    0.793957    0.000000    0.124697    10.50000    0.01923    0.01619 =
         0.04864    0.00000   -0.00221    0.00000
SE3   2    0.138290    0.000000    0.455067    10.50000    0.02077    0.01881 =
         0.01750    0.00000    0.00191    0.00000
SE4   2    0.095048    0.000000    0.229724    10.50000    0.02070    0.01965 =
         0.02850    0.00000   -0.00235    0.00000
SE5   2    0.000000    0.500000    0.000000    10.25000    0.01666    0.01591 =
         0.01762    0.00000    0.00214    0.00000
CU3   1    0.023061    0.000000    0.560039    60.50000    0.02371    0.07864 =
         0.03690    0.00000    0.00656    0.00000
CU4   1    0.464569    0.000000    0.522739    70.50000    0.07035    0.06949 =
         0.05763    0.00000   -0.01344    0.00000
CU5   1    0.000000    0.327753    0.500000    80.50000    0.02198    0.10059 =
         0.03987    0.00000    0.00557    0.00000
HKLF 4




REM  CF215A_K3_50 in C2/m
REM R1 =  0.0306 for     883 Fo > 4sig(Fo)  and  0.0370 for all    1004 data
REM     75 parameters refined using      4 restraints

END

WGHT      0.0447     26.1102

REM Highest difference peak  3.527,  deepest hole -1.970,  1-sigma level  0.417
Q1    1   0.8034  0.0000  0.0711  10.50000  0.05    3.53
Q2    1   0.2397  0.0000  0.6714  10.50000  0.05    1.83
Q3    1   0.1750  0.0000  0.3087  10.50000  0.05    1.68
Q4    1   0.3763  0.0000  0.3154  10.50000  0.05    1.61
Q5    1   0.1798  0.0000  0.0400  10.50000  0.05    1.58
Q6    1   0.4753  0.0000  0.1707  10.50000  0.05    1.55
Q7    1   0.1056  0.0000  0.0267  10.50000  0.05    1.32
Q8    1   0.2743  0.0000  0.2301  10.50000  0.05    1.28
Q9    1   0.3775  0.0000  0.6100  10.50000  0.05    1.20
Q10   1   0.4178  0.0000  0.1514  10.50000  0.05    1.11
Q11   1   0.6495  0.0000  0.2209  10.50000  0.05    1.11
Q12   1  -0.0102  0.0000  0.6178  10.50000  0.05    1.09
Q13   1   0.2833  0.0000  0.6110  10.50000  0.05    1.08
Q14   1   0.3092  0.0000  0.2573  10.50000  0.05    1.05
Q15   1   0.0921  0.0000  0.1905  10.50000  0.05    1.04
Q16   1   0.3757 -0.2719  0.2032  11.00000  0.05    1.04
Q17   1   0.5697  0.0000  0.3328  10.50000  0.05    1.02
Q18   1   0.0588  0.5000  0.0222  10.50000  0.05    1.01
Q19   1   0.0211  0.0000  0.2706  10.50000  0.05    1.01
Q20   1   0.6046  0.0000  0.1534  10.50000  0.05    1.00
;
_shelx_res_checksum              43393
_shelx_hkl_file
;
   9   1 -10   24.90    0.61
   9   1  -9   14.73    0.57
   9   1  -8    1.45    0.50
  10   2   1    4.68    0.67
  11   3   4   16.20    0.91
  12   2  -5    3.99    0.63
  13   3   0   22.51    0.96
  15   3 -11    0.53    0.64
  15   3  -9    5.82    0.69
  15   3  -8    0.38    0.60
   0   2  12   63.89    0.70
   2   0  -3   26.48    0.19
   5   1   3  382.36    1.77
   8   2   5    1.17    0.57
   8   4  11    6.31    0.69
   9   1 -11    2.36    0.33
   9   1  -6   12.66    0.60
  12   2  -4   30.59    0.93
  13   3   1    2.02    0.69
  15   3  -7    0.89    0.66
  15   3  -6    4.67    0.67
   5   3  12   64.50    1.09
   7   3  10   10.01    0.72
   9   1  -5  140.17    1.28
   9   3   8    0.36    0.65
  10   2   2    2.29    0.57
  15   3  -5    1.01    0.67
  15   3  -4    4.27    0.68
   6   2   8   97.33    1.15
  10   2   3    2.67    0.57
  12   2  -2    4.47    0.62
  13   3   2    0.68    0.61
   3   1   6  159.59    1.00
   4   2  10    2.05    0.40
  12   2  -1    0.40    0.59
  13   3   3    1.18    0.65
   7   3  11    0.29    0.53
   9   1  -2    5.32    0.51
  11   3   7    1.81    0.74
  12   2   0    1.11    0.59
  14   2  -9    6.10    0.62
  14   2  -8    5.73    0.68
   6   2   9    3.03    0.47
   8   2   7    0.47    0.50
  12   2   1    5.15    0.64
  13   3   4    8.13    0.71
  14   2  -7   20.82    0.85
  14   2  -6    1.01    0.63
   1   1   8   24.95    0.41
   2   2  12  173.16    1.23
   5   1   5    6.89    0.44
   9   1  -1    5.93    0.58
   9   3  10    5.90    0.70
  13   3   5    2.41    0.62
  14   2  -5    2.28    0.60
  14   2  -4    1.78    0.64
   2   0  -2    8.99    0.15
   3   1   7   41.90    0.64
   4   2  11    4.15    0.45
   7   1   3   31.27    0.73
   7   3  12    2.37    0.57
  11   3   8    4.69    0.66
  12   2   2    4.62    0.72
  -1   1   9   19.53    0.29
   6   2  10   20.16    0.79
  11   1 -11    1.46    0.46
  11   1  -5    1.41    0.57
  14   2  -2  116.59    1.68
   7   1   4   14.75    0.68
   9   1   1    0.08    0.62
  11   1  -4    0.39    0.55
  14   2  -1   50.25    1.24
   7   3  13    0.37    0.60
  14   2   0   -0.64    0.82
   4   0  -6    2.48    0.16
   9   1   2  342.96    2.26
  11   1  -2  322.78    2.28
  14   2   1   -0.22    0.86
  16   2 -10   -0.19    0.69
  16   2  -9    1.46    0.66
  16   2  -8   -0.75    0.71
  16   2  -7   38.58    1.15
  16   2  -6   31.77    1.10
  16   2  -5    7.37    0.80
   3   1   8  117.36    1.03
   6   2  11    0.26    0.54
   7   1   5   10.44    0.72
  11   1  -1    8.04    0.75
  14   2   2    5.63    0.94
  16   2  -3    0.72    0.72
   2   0  -1    7.20    0.16
   8   2  10    0.56    0.60
   9   1   3  125.57    1.46
  11   1   0    6.03    0.75
  12   2   6   17.86    0.99
  14   2   3    0.73    0.72
   9   3  13    2.18    0.72
  11   1   1    8.71    0.64
  13   1  -9    1.07    0.55
  13   1  -6   13.86    0.76
  16   2  -1    0.65    0.78
  16   2   0    3.64    0.71
  -4   4 -11    1.70    0.55
  -3   3  -6   60.59    0.80
  -2   2  -3  115.03    0.73
  -2   4 -14    1.79    0.54
  -1   3  -8   15.57    0.55
   2   2  -7    7.72    0.47
   3   3 -14    1.02    0.61
   8  -2  -7    2.30    0.17
   9   1 -16   13.59    0.70
  10   0 -14   15.32    0.66
  -2   4 -13    2.09    0.59
  -1   1  -1    0.20    0.15
   3   3 -13   21.65    0.85
   6   2 -13    5.82    0.61
   9   1 -15    4.58    0.61
  -5   3  -4    0.55    0.32
  -4   4 -10    0.41    0.49
   4   2  -9   16.54    0.63
   5   1  -7   18.28    0.52
   6   2 -12    7.53    0.61
   7  -1  -6   49.46    0.46
   7   1 -10  150.91    1.28
   8   0  -9   15.73    0.56
   8   2 -17   -0.84    0.58
   9   1 -14  111.40    1.32
   0   4 -14    0.40    0.52
   1   3  -9   10.67    0.57
   2   2  -6   26.52    0.62
   5   3 -16    0.20    0.65
   6   0  -6   29.05    0.44
   8   2 -16    0.30    0.57
   9  -1  -9   15.46    0.42
  12   0 -19    6.52    0.65
  -4   4  -9   22.77    0.71
  -3   3  -5    3.75    0.40
  -2   4 -11   24.52    0.83
   3   3 -11    2.10    0.55
   5   3 -15    0.81    0.56
   6   2 -11   18.42    0.69
   8   2 -15    2.90    0.61
   9   1 -13   15.82    0.68
  12   0 -18    1.19    0.55
   0   4 -13    3.23    0.54
   4   2  -8   73.98    0.89
   7   1  -9  117.52    1.11
  10   0 -12   21.41    0.63
  12   0 -17    0.85    0.51
  -4   2  -1    4.77    0.22
  -2   4 -10    5.29    0.57
  -1   3  -6   84.36    0.94
   0   4 -12   19.80    0.81
   1   3  -8    7.50    0.51
   3   1  -4   75.85    0.63
   3   3 -10   18.08    0.68
   5   3 -13    4.30    0.64
   8   2 -14    2.27    0.58
   9   1 -12    8.32    0.56
  11   1 -17    2.18    0.54
  12   0 -16   -0.45    0.50
  -4   4  -8   17.29    0.61
   2   4 -14    0.72    0.59
   6   2 -10   -0.31    0.47
   8   0  -8   45.26    0.64
   8   2 -13    2.67    0.57
  10   0 -11   29.56    0.66
  11   1 -16    1.42    0.55
  -2   2  -2   66.80    0.56
  -2   4  -9    4.74    0.54
   0   4 -11   17.73    0.78
   2   2  -5  367.13    1.62
   4   2  -7   31.84    0.71
   7   1  -8   88.59    0.94
   9  -1  -8    1.47    0.29
   9   1 -11    1.97    0.44
  11   1 -15    0.33    0.60
  12   0 -15    9.55    0.56
  -6   2   0   17.89    0.19
  -5   3  -3  150.28    0.95
  -3   3  -4   11.68    0.44
   1   1  -2  220.14    0.81
   3   3  -9    7.39    0.56
   6   2  -9   19.65    0.69
   7   3 -15    3.36    0.64
  11  -1 -11    1.56    0.38
  -4   4  -7   55.68    0.90
  -1   3  -5  239.04    1.45
   0   4 -10    1.46    0.56
   2   4 -12    6.44    0.67
   4   0  -3    1.97    0.17
   5   3 -11    8.39    0.66
   7   3 -14    5.22    0.62
  11   1 -14    1.72    0.57
  12   0 -14   18.38    0.66
  -2   4  -8    9.76    0.56
   3   3  -8    4.09    0.50
   8   2 -11    1.67    0.56
  10   0 -10    0.84    0.37
   0   4  -9    3.08    0.57
   2   4 -11    2.00    0.64
   4   2  -6    5.27    0.50
   5   1  -5   95.57    0.82
   6   2  -8   46.79    0.85
   7   3 -13    1.34    0.63
   8   0  -7    9.41    0.41
  11   1 -13   10.24    0.66
   2   2  -4  229.37    1.30
   4   4 -13   -0.58    0.56
   7  -1  -5    9.40    0.25
   7   1  -7   15.53    0.45
   7   3 -12   -0.01    0.62
  13   1 -17    0.31    0.54
  -2   4  -7   -0.57    0.48
   2   4 -10    7.07    0.73
   3   1  -3  132.79    0.78
   4   4 -12    9.61    0.75
   8   2 -10   51.90    0.96
   9   1  -9   14.85    0.58
  10   0  -9   92.85    0.96
  11  -1 -10   22.81    0.47
  11   1 -12   10.25    0.62
  13   1 -16   -0.06    0.51
  -3   3  -3    1.74    0.37
  -1   3  -4    0.89    0.39
   0   4  -8    0.59    0.54
   3   3  -7    3.12    0.49
   5   3  -9   60.85    0.97
   7   3 -11   27.60    0.86
   9   3 -14   53.42    1.14
  12   0 -12    8.31    0.53
   1   3  -5    4.00    0.45
   2   4  -9    8.41    0.63
   4   4 -11    6.82    0.67
   6   2  -7    0.14    0.45
   9  -1  -7   68.35    0.57
  13   1 -15   31.70    0.86
   8   2  -9   15.16    0.52
  -4  -2  -9   74.84    1.15
  -2  -2 -10   10.22    0.73
  -1  -3 -13   31.10    1.20
   4  -2 -11   22.91    0.89
   5  -3 -14    6.07    1.05
   5  -1  -7   19.01    0.78
   6  -2 -11   17.95    0.99
   9  -1  -6   13.98    0.77
  10  -2 -10    1.74    0.81
  13  -3 -12    6.50    0.98
  13  -1  -3    7.47    0.52
  -6  -2  -8  101.69    1.13
  -2  -4 -15    1.37    0.84
   1  -1  -7  161.79    1.40
   3  -3 -14    2.20    0.86
   7  -3 -14    3.32    0.86
   8  -2 -11    2.28    0.83
  11  -3 -13    5.62    0.83
  11  -1  -5    0.82    0.53
  14  -2  -8    6.69    0.75
  15  -3 -11    1.64    0.86
   1  -3 -14    2.10    0.85
   6   0   0   16.48    0.22
  12  -2 -10   -0.05    0.73
  -5  -3 -12   62.77    1.26
  -3  -3 -13    6.50    0.85
  -1  -3 -14   12.07    1.03
   4  -2 -12   31.35    1.09
   5  -3 -15    0.98    0.81
   5  -1  -8    7.62    0.74
   6  -2 -12    6.84    0.89
   7  -3 -15    2.17    0.91
  10  -2 -11   17.58    0.98
  13  -1  -4    5.73    0.56
  -8  -2  -7    0.43    0.44
  -4  -2 -10    2.91    0.68
  -3  -1  -6  170.77    1.17
  -2  -2 -11   63.13    1.21
  -1  -1  -7  126.94    1.19
   3  -1  -8    6.92    0.54
   7  -1  -8   87.79    1.31
  11  -1  -6   18.03    0.70
   1  -3 -15    0.33    0.82
   1  -1  -8   21.40    0.77
  10  -2 -12   12.90    1.04
  12  -2 -11    7.83    0.93
  14  -2 -10    4.80    0.89
  -5  -1  -5    7.18    0.40
  -3  -3 -14    2.75    0.81
  -1  -3 -15    3.24    0.85
   4  -2 -13    0.65    0.84
   4   0  -1   94.49    0.51
   5  -3 -16   -0.43    0.95
   6  -2 -13    6.47    0.88
   8  -2 -13    2.21    0.91
   9  -1  -8    1.50    0.70
  11  -1  -7   22.36    0.89
  13  -1  -5    0.20    0.49
  -7  -1  -3   30.54    0.31
   1  -3 -16    8.09    1.08
   3  -1  -9   25.28    0.94
   5  -1  -9  120.80    1.52
   7  -1  -9  117.77    1.54
  -4  -2 -11    4.65    0.67
   0  -2 -13   11.35    0.96
   2   0  -1    6.88    0.15
  13  -1  -6   13.84    0.70
  14  -2 -11    1.84    0.90
  -3  -3 -15    0.71    0.88
  -3  -1  -7   45.75    0.79
  -1  -3 -16    1.70    0.83
   1  -1  -9   19.75    0.84
   4  -2 -14    1.45    0.89
   6   0  -1    3.53    0.22
   8  -2 -14    2.95    0.92
   9  -1  -9   14.50    0.88
  11  -1  -8   18.12    0.82
  12  -2 -13   63.50    1.54
  -6  -2 -10   20.51    0.78
   1  -3 -17    0.27    0.90
   2  -2 -14    2.23    0.86
   5  -1 -10    9.16    0.80
   7  -1 -10  150.55    1.78
  13  -1  -7  103.29    1.45
  14  -2 -12    0.18    0.83
  -2  -2 -13    9.38    0.92
   0  -2 -14   -0.25    0.89
   4  -2 -15    5.11    1.00
   9  -1 -10   25.04    0.98
  11  -1  -9   16.63    0.85
  -5  -1  -6    7.51    0.48
   8   0   0   28.88    0.32
  12  -2 -14   13.05    1.00
  13  -1  -8   46.41    1.16
  14  -2 -13    2.83    0.91
  -3  -1  -8  113.39    1.25
   3  -1 -11    7.91    0.86
   6   0  -2    8.11    0.33
  11  -1 -10   21.32    0.97
  16  -2 -12    2.58    0.93
   4  -2 -16    5.16    1.12
  10  -2 -16   16.70    1.15
  12  -2 -15    4.73    0.88
  13  -1  -9    2.29    0.72
  14  -2 -14    4.32    0.97
  -4  -2 -13    1.55    0.77
   2   0  -2    9.14    0.28
   4   0  -3    2.01    0.39
   5  -1 -12   30.44    1.16
   7  -1 -12    0.65    0.82
  11  -1 -11    1.64    0.85
  16  -2 -13    1.54    0.88
   3  -1 -12   19.90    1.02
   6  -2 -17   -0.32    0.92
   6   0  -3   35.91    0.54
   8  -2 -17    0.64    1.04
  13  -1 -10   11.83    0.92
   3  -3   6   58.99    1.16
   8  -4  10   -0.07    0.79
  13  -3   5    2.02    1.22
  16   0  -2   -0.13    0.88
  17  -1   0   22.64    1.25
   1  -3   7   63.30    0.98
   2   0  -1    7.60    0.18
   7  -1  -1   41.67    0.96
   8  -4   9    8.87    0.87
  10  -2   1    4.16    0.86
  10   0  -3    1.50    0.66
  11   1  -4    0.17    0.50
  12  -2   1    4.48    0.91
  12   0  -3    3.99    0.64
  15  -1  -1    1.93    0.79
   4  -4  10   -0.10    0.57
   4  -2   2    0.09    0.49
   6  -4   9    1.92    0.80
   9   1  -4    0.49    0.39
  11  -3   4   15.57    1.02
  13   1  -4    5.25    0.55
  14  -2   1   -0.07    0.94
  18   0  -2    0.99    0.81
  -1  -3   8    6.67    0.38
   1  -1   1    0.00    0.23
   7  -3   4    7.76    0.69
  10  -4   8   25.04    1.14
  16  -2   1   19.00    1.09
  17  -1  -1   65.25    1.55
   3  -3   5    3.20    0.57
   4  -4   9   21.58    0.91
   6  -4   8   28.80    1.13
  10  -2   0   49.41    1.16
  11  -3   3   11.35    0.95
  12  -2   0    1.17    0.74
  13  -3   3    0.38    0.75
  13  -1  -2    1.44    0.71
  16   0  -3    0.68    0.72
   1  -3   6   83.81    1.05
   4   0  -2   40.07    0.45
   5  -3   4    0.67    0.56
   5  -1  -1    5.61    0.44
  10  -4   7    2.72    0.78
  15  -1  -2    4.81    0.88
  18   0  -3    5.51    0.91
  16  -2   0    3.97    0.82
  17  -1  -2    4.51    0.96
  -2  -2   5  372.42    1.18
   4  -4   8   17.51    0.86
   6  -4   7   23.24    1.02
   7  -1  -2   16.48    0.72
  10  -4   6    2.64    0.85
  11  -3   2    0.07    0.89
  13  -3   2    0.89    0.83
  14   0  -4    2.80    0.73
   4  -2   1    4.79    0.54
   6  -2   0   17.87    0.80
   7   1  -4    1.70    0.26
   8  -4   6   -0.09    0.83
   9  -3   2  143.92    1.99
  13  -1  -3    6.84    0.84
  13   1  -5    0.34    0.53
  14  -2  -1   49.85    1.50
  16   0  -4    4.55    0.85
  -1  -3   7   62.41    0.80
  -1  -1   2  213.69    0.61
   3  -3   4   11.21    0.68
   5  -3   3  151.03    1.75
   6  -4   6    1.08    0.81
  10  -4   5    7.81    1.03
  11   1  -5    0.69    0.40
  17  -1  -3    4.92    0.98
  18   0  -4    2.44    0.83
   4  -4   7   55.37    1.24
   9  -1  -3   37.70    1.04
  11  -3   1    4.61    0.94
   0  -2   3    0.59    0.31
   1  -3   5  237.93    1.67
  10  -4   4    1.47    0.91
  10  -2  -2   11.15    0.89
  11  -3   0    1.17    0.84
  12   0  -5    8.68    0.76
  13  -3   0   21.56    1.24
  13  -1  -4    6.38    0.88
  14   0  -5    5.14    0.77
  16   0  -5    9.12    0.85
  17  -1  -4    2.27    0.92
   3  -3   3    1.26    0.65
   4  -4   6   50.52    1.21
   5  -3   2   23.43    0.89
   5  -1  -2   81.56    0.94
   8  -4   4   27.74    1.13
   9   1  -5  141.76    1.01
  18   0  -5    6.26    0.91
   2  -4   7   -0.06    0.59
   3  -1  -1  146.06    0.99
   4  -2   0   -0.32    0.53
   6  -2  -1    1.31    0.60
   7  -1  -3    3.22    0.58
   9  -3   0    5.73    0.88
  10  -4   3    1.66    0.84
   6  -4   4    0.59    0.74
   8  -4   3    5.03    0.94
   8  -2  -2   14.32    0.70
  10   0  -5    8.27    0.61
  11  -3  -1    1.07    0.93
  12  -2  -3    5.21    0.66
  13  -3  -1    0.18    0.84
  13   1  -6   12.98    0.61
   4  -4   5   21.05    0.93
   9  -1  -4    0.02    0.70
  10  -4   2    0.65    0.87
  10  -2  -3    3.95    0.80
  13  -1  -5    0.88    0.77
  15  -1  -5    3.36    0.83
  17  -1  -5    3.29    0.94
  -5   1  -2   79.78    0.77
  -5   1   9  120.23    0.84
   4   0  -7   65.18    0.45
  -5   1  -3  391.75    1.73
   0   0   4   41.30    0.16
   1   1 -12    3.95    0.23
   2   0   8   40.53    0.43
   8   0  -9   15.93    0.46
   6   0  -8   61.58    0.59
   6   0  10   19.62    0.54
  10   0  -9   85.38    0.97
  -5   1  -4    2.99    0.43
  -5   1  10    9.79    0.37
   8   0  -8   46.14    0.70
   2   0   7    0.32    0.23
   4   0  -6    2.43    0.23
  -7   1   2   17.11    0.62
  -7   1   3    3.94    0.49
   2   0  -4  386.92    0.73
   4   0   8   93.47    0.84
   6   0   8  115.41    1.14
   8   0  -7   10.00    0.50
  10   0  -7   73.93    1.03
  -5   1  11   16.59    0.42
   0   0   3    3.11    0.06
   8   0   7    0.74    0.55
  -7   1  -1   16.28    0.69
  -7   1   7   16.48    0.60
  -1   1 -11   -0.01    0.29
   4   0   7  158.33    1.10
   6   0  -6   32.58    0.56
   6   0   7   89.53    1.03
   8   0  -6    9.29    0.53
   8   0   6    2.30    0.62
  -7   1  -2    7.07    0.63
   2   0   6   97.53    0.62
   6   0   6    3.98    0.49
  -7   1   9  123.42    1.10
  -5   1  12   32.48    0.49
   4   0   6  207.69    1.19
   8   0   4  118.38    1.27
   8   0  -3  483.19    2.24
   8   0   2   99.42    1.20
   8   0   3   22.54    0.70
  -7   1  10  156.66    1.23
  -5   1  -8    6.11    0.54
   0   0   2    3.45    0.03
   2   0  -3   28.86    0.27
   4   0  -4   28.36    0.41
   6   0  -4  249.98    1.37
   6   0   4    7.59    0.50
   8   0  -2   32.45    0.66
   8   0  -1   44.95    0.86
   8   0   0   30.92    0.78
   8   0   1   70.17    1.02
   4   0   4   77.31    0.74
   6   0  -3   39.10    0.61
   6   0   3    1.42    0.44
  -9   1   6   15.19    0.72
  -9   1   7   65.92    1.09
  -1   1 -12    1.62    0.29
   2   0   4   77.97    0.54
   4   0  -3    1.96    0.27
   6   0  -2    8.15    0.42
   6   0  -1    3.43    0.37
   6   0   0   16.06    0.51
   6   0   1  400.86    1.80
   6   0   2  359.36    1.74
  -7   1  11   59.32    0.79
   4   0   3    7.85    0.35
  -9   1   8    1.43    0.55
   2   0  -2   10.03    0.19
   2   0   3  191.22    0.78
   4   0  -2   37.73    0.49
   4   0  -1   95.67    0.73
   4   0   1    1.18    0.32
   4   0   2    0.16    0.31
  -9   1   9   14.21    0.59
   4   0   0    2.55    0.33
  -7   1  12    0.20    0.31
   2   0  -1    6.79    0.17
   2   0   2   70.96    0.48
   2   0   0    3.31    0.17
   2   0   1   39.53    0.35
   5   1  12  117.08    1.09
   9   1 -11    2.09    0.39
  -7   1  -6  101.75    1.01
  -1   1  -5  526.36    2.02
  -9   1  -8    0.54    0.44
  -5  -1   4  513.88    2.18
   3   1  -7    9.57    0.65
  -7  -1   4    2.36    0.55
   1   1  -6  154.88    1.20
  -5   1  -6    7.91    0.52
  -1  -1   4   13.52    0.52
   8   0  -5    3.90    0.39
 -11  -1   3   97.42    1.05
  -1   1  -6  193.21    1.31
   3   1  -8    7.31    0.65
   6  -2   4    1.89    0.43
   1   1  -7  172.37    1.37
  -9  -1   4    0.26    0.48
  -5   1  -7   42.10    0.75
  -7   1  -9    0.32    0.42
  -1   1  -7  127.29    1.12
   4   0  -2   40.81    0.35
  10   0  -9   95.89    1.11
  -7   1 -10   15.71    0.62
  -5   1  -8    4.44    0.52
  -3  -1   5   54.61    0.75
  -1   1  -8   24.01    0.70
   1   1  -9   18.38    0.77
  -5   1  -9   23.39    0.71
   1   1 -10   69.98    1.11
   4  -2   6  143.35    1.32
  10   0 -10   -0.08    0.47
 -11  -1   4    0.82    0.47
  -5   1 -10   46.06    0.94
  -3   1  -9    1.04    0.57
  -1   1  -9   42.94    0.86
  11  -1  -4    0.46    0.20
  -1  -1   5   19.06    0.45
  -1   1 -10   66.09    1.05
   8   0  -7    8.93    0.47
   2   0  -1    7.29    0.11
  -5  -1   6    0.92    0.44
   8   0  -8   46.54    0.77
  -3  -1   6  217.36    1.43
   4  -2   7  141.30    1.35
 -11  -1   5    1.37    0.47
   1  -1   5  513.36    1.84
   7  -1   1   17.29    0.25
   6  -2   6    0.81    0.43
   8   0 -10   65.31    0.97
   4   0  -3    2.08    0.20
   6   0  -6   31.36    0.58
  11  -1  -5    1.34    0.21
  -6   0   1    3.57    0.18
  -7  -1   7   15.49    0.67
  -3  -1   7    9.59    0.59
   4  -2   8   57.44    0.98
   8  -2   5    0.85    0.39
   6   0  -8   60.11    0.84
  11  -1  -6   17.41    0.40
  -1  -1   7  164.83    1.33
   1  -1   6  196.18    1.27
  -3  -1 -10   58.70    0.96
  -2   2   8   91.68    0.77
   3  -1 -12   19.47    0.47
  -9   1   4    0.77    0.27
  -3  -1  -9    1.84    0.53
  -1  -1  -9   44.83    0.74
   2   2   7   -0.10    0.45
  -1  -1  -8   23.11    0.56
   3  -1 -11    5.84    0.32
   7   1   1   16.21    0.56
   1   1   4    0.26    0.23
   4   0  -2   37.44    0.34
   3   1   3    2.64    0.29
   5   1   2   74.40    0.73
   8   0  -6    8.38    0.28
  11   1  -4   -0.22    0.49
   0   2   7  132.38    0.96
 -13   1   3    5.77    0.43
 -11   1   4    0.22    0.34
  -7   1   5    9.37    0.23
   6   0  -4  253.55    0.89
   9   1  -2    5.31    0.49
  -1   3   9   10.14    0.44
   2   0  -1    7.64    0.12
   2   2   6   55.64    0.75
   4   2   5   72.82    0.89
  11   1  -5    1.10    0.48
  -8   0   1   42.51    0.67
   3  -1  -9   25.30    0.38
   5  -1 -12   32.20    0.38
  -9   1   5  143.70    0.86
   5   1   1    0.38    0.32
 -10   0   1    8.99    0.64
  -3   3   9    6.75    0.40
  -2   2   7    6.91    0.33
  11   1  -6   18.80    0.62
 -11   1   5    0.65    0.36
  -5  -1  -4    3.47    0.36
   0   2   6   -0.17    0.41
   3   1   2    7.90    0.37
  -3  -1  -4   19.50    0.49
  -1  -1  -5  508.37    1.65
  -1   3   8    7.63    0.44
   1   1   3   35.46    0.44
  11   1  -7   22.57    0.65
  -8   0   2   34.06    0.59
   3  -1  -8    7.48    0.27
   6   0  -5  202.61    0.80
   6   2   2  260.71    1.79
   9   1  -4    0.94    0.46
 -10   0   2    9.17    0.53
   5   1   0    1.78    0.34
   8   0  -8   46.76    0.49
  -4   2   7   30.48    0.40
  11   1  -8   16.88    0.56
  -7  -1  -2    7.71    0.51
   4   2   3   10.15    0.53
   9   1  -5  148.42    1.18
  -3  -1  -3    2.98    0.32
  -3   3   8    3.94    0.32
  -1  -1  -4   -0.03    0.32
  -1   3   7   55.43    0.77
   6   2   1  323.15    1.76
  11   1  -9   14.53    0.50
 -10   0   3    1.79    0.38
   3   1   1  710.07    1.78
  -8   0   3  496.40    1.67
   0  -2 -13    8.15    0.44
   5   1  -1    5.55    0.30
  -5  -1   9  124.36    1.83
   0   0   5  152.93    1.25
   2   0   9   23.15    0.95
   4   0  -7   65.77    1.13
   0   0   6    1.20    0.55
   4   0  11    4.02    0.88
   6   0  -8   59.21    1.23
  -3  -1  -6  171.75    1.21
   0   0   7  241.62    1.73
   2   0  -4  384.91    1.64
   2   0  10   18.10    1.00
   4   0  -6    2.16    0.55
  -6  -2  -7   79.35    0.98
   0   0   8   -0.01    0.74
   2   0  11   65.87    1.38
   6   0  -7   -0.28    0.71
   0   0   9   26.27    0.99
   1  -1 -10   71.59    1.40
 -10  -2   4   -0.28    0.61
 -10  -2   5    2.51    0.60
  -1  -1  -8   27.56    0.89
   4   0  -5   47.91    0.81
   0   0  10    1.37    0.59
   2   0  -3   29.07    0.55
 -10  -2   3    4.59    0.51
  -7  -1   5    9.78    0.82
  -7  -1   6   47.37    1.08
  -7  -1   7   15.28    0.91
  -7  -1   8   85.37    1.50
  -4  -2  -9   74.70    1.11
  -3  -1  -5   16.60    0.49
  -7  -1   4    1.56    0.62
   1  -1  -9   20.19    0.88
  10   0  -6    0.56    0.68
  -6  -2  -6    0.33    0.46
  -2   0   6   56.17    0.90
  -2   0   7    5.89    0.67
   3  -1 -10   48.11    1.24
   4   0  -4   27.08    0.60
  12   0  -5    7.77    0.70
  -7  -1   3    2.98    0.52
  -2   0   5  452.25    2.03
  -2   0  10   34.28    1.18
  -2   0   4  393.50    1.69
   8   0  -5    3.55    0.60
  10   0  -5    8.05    0.65
   1  -1  -8   22.38    0.79
   3  -1  -9   24.52    0.97
   2   0  -2   10.93    0.31
  -7  -1   2   17.47    0.50
  -2   0   3   31.89    0.60
   4   0  -3    1.84    0.44
  10   0  -4    3.29    0.51
  -4   0   9   15.80    0.91
  -2  -2  -9   20.48    0.95
   5  -1  -9  122.11    1.65
  12   0  -3    4.50    0.47
  -9  -1   7   67.92    1.34
  -9  -1   8    1.66    0.83
  -4   0   7   64.68    1.09
  -4   0   8  128.76    1.54
   1  -1  -7  167.50    1.45
   3  -1  -8    6.95    0.77
  -6  -2  -5   30.70    0.58
  10   0  -3    1.48    0.53
  -9  -1   6   15.31    0.78
  12   0  -2    9.52    0.55
   5  -1  -8    6.67    0.86
   8   0  -3  478.19    2.00
  -4   0   5   50.14    0.84
  -2  -2  -8   36.75    0.92
   0  -2  -9   12.25    0.85
   1  -1  -6  145.62    1.25
   3  -1  -7    8.93    0.56
  -6   0   9   24.43    0.89
 -12   0 -20    0.36    1.12
 -12   0 -19    4.98    1.04
 -10   0 -23    7.92    1.42
  -8   0 -25    8.56    1.44
  -3   1 -19   -0.65    1.12
  -3   1  -9    2.55    0.76
  -1   1 -20   15.60    1.37
   1   1 -20   -0.01    1.06
   3   1 -11    6.55    0.88
   5   1 -16   -0.51    0.87
   5   1 -15    1.42    0.81
   6   0 -28    1.60    1.30
   8   0 -27    4.59    1.21
 -12   0 -18   14.11    1.28
 -10   0 -22    6.53    1.15
  -8   0 -24    6.30    1.46
  -3   1 -17   44.13    1.46
  -1   1 -19    6.17    1.13
  -1   1 -18    0.16    0.98
  -1   1  -9   43.11    1.06
   1   1 -19    5.90    1.11
   3   1 -15  129.29    1.93
   3   1 -12   19.90    1.02
   4   0 -28    1.11    1.31
   8   0 -26    0.68    1.08
  10   0 -24    0.97    1.05
 -12   0 -17    2.05    1.07
 -12   0 -16    1.66    0.95
 -10   0 -21    7.25    1.16
  -8   0 -23    0.65    1.33
  -6   0 -25    0.18    1.38
  -4   0 -26    0.09    1.31
  -3   1 -13   12.78    1.02
  -3   1 -12    0.00    0.81
  -3   1 -11   51.21    1.25
  -2   0 -27    0.71    1.37
  -1   1 -16    2.92    1.06
  -1   1 -15    4.10    1.00
  -1   1 -12    2.05    0.77
  -1   1 -10   67.92    1.14
   0   0 -27    1.26    1.14
   1   1 -17    0.73    1.09
   1   1 -16   15.22    1.14
   1   1 -14    8.70    0.94
   1   1 -13   36.27    1.15
   1   1 -12    3.63    0.84
   1   1 -11  265.88    2.21
   2   0 -27    0.56    1.10
   4   0 -27    0.28    1.24
   6   0 -26    1.16    1.03
   8   0 -25   -0.28    1.07
  10   0 -22    1.49    0.91
 -12   0 -15    5.46    0.95
 -12   0 -14    1.45    0.97
 -10   0 -20   -0.61    0.99
 -10   0 -19    2.86    1.13
  -8   0 -22   -0.46    1.21
  -4   0 -25    3.49    1.36
  -2   0 -26    3.39    1.25
  -1   1 -14   19.53    0.91
  -1   1 -13   54.41    1.29
   4   0 -26    6.05    1.32
   6   0 -25   -0.17    1.22
   8   0 -24    4.48    1.07
  10   0 -21    4.38    0.87
 -12   0 -13    5.51    0.96
 -12   0 -12    0.16    0.77
 -10   0 -18    0.40    0.92
  -8   0 -21   -0.29    1.23
  -6   0 -23    1.60    1.30
  -4   0 -24    1.06    1.12
  -2   0 -25    5.55    1.24
   0   0 -26    4.36    1.10
   8   0 -23   -0.47    1.01
  10   0 -20    0.84    0.82
 -10   0 -17    8.26    1.13
  -8   0 -20   18.93    1.41
  -2   0 -24    8.03    1.22
   0   0 -25    2.42    1.28
   2   0 -25    7.63    1.23
   6   0 -24    0.53    0.95
   8   0 -22    0.89    0.93
   9  -1 -28    1.53    1.13
  10   0 -18    0.18    0.81
 -11  -1 -23    0.12    1.21
 -10   0 -16   28.33    1.33
  -8   0 -19    2.19    1.03
  -6   0 -21    7.96    1.24
  -4   0 -23   10.11    1.24
   0   0 -24    0.86    1.23
   2   0 -24    6.21    1.23
   4   0 -24   10.29    1.15
   6   0 -23   -0.46    0.98
   8   0 -21    0.01    0.87
  10   0 -17   -0.33    0.67
  10   0 -16   23.01    0.98
  10   0 -11   29.71    0.75
 -10   0 -15   11.56    1.09
 -10   0 -14   10.24    1.02
  -9  -1 -24   -1.41    1.07
  -8   0 -18   10.00    1.12
  -6   0 -20    2.51    1.19
  -4   0 -22   -0.05    1.04
  -2   0 -23    1.57    1.06
   0   0 -23   11.91    1.29
   2   0 -23   -0.45    1.03
   4   0 -23   -0.03    1.03
   6   0 -22   11.05    1.10
   7  -1 -28   -1.10    1.13
   8   0 -20   16.10    1.03
   9  -1 -27    0.51    0.94
  10   0 -15   18.95    0.78
  10   0 -13    0.30    0.48
  10   0 -12   20.95    0.64
 -11  -1 -21    8.49    1.20
 -10   0 -13    2.39    0.84
 -10   0 -12    8.07    0.97
 -10   0  -6   15.54    0.69
  -8   0 -17    4.88    1.04
  -7  -1 -25    0.24    1.23
  -6   0 -19    0.83    0.96
  -4   0 -21   29.81    1.53
   0   0 -22    2.75    1.12
   2   0 -22    8.84    1.12
   4   0 -22    6.43    1.13
   5  -1 -28    4.98    1.26
   6   0 -21    2.82    0.98
   7  -1 -27    2.13    1.02
   8   0 -19   17.66    1.06
   9  -1 -26    0.91    0.95
 -10   0 -11   11.69    0.91
 -10   0 -10   -0.31    0.69
 -10   0  -9   64.69    1.25
 -10   0  -8   78.91    1.25
 -10   0  -7    9.52    0.58
  -9  -1 -23    4.04    1.18
  -8   0 -16    3.48    0.87
  -6   0 -18   23.41    1.27
  -4   0 -20    3.16    1.19
  -2   0 -21    0.64    1.19
  -1  -1 -27   -0.38    0.97
   4   0 -21    9.49    1.13
   5  -1 -27   -0.47    1.06
   8   0 -17    2.10    0.81
 -11  -1 -20   -0.79    1.20
  -9  -1 -22    1.34    1.23
  -8   0 -15    1.35    1.00
  -7  -1 -24    5.49    1.17
  -6   0 -17   29.72    1.27
  -5  -1 -25    2.50    1.24
  -4   0 -19    1.18    1.08
  -3  -1 -26   -1.17    1.31
  -2   0 -20    2.00    1.09
   0   0 -21    7.12    1.12
   1  -1 -27    3.25    1.33
   2   0 -21    3.88    1.06
   4   0 -20    4.44    0.99
   6   0 -19    0.35    0.83
   7  -1 -26    2.79    1.11
   8   0 -16    0.72    0.72
  -9  -1 -21   -0.41    1.26
  -8   0 -14    3.23    0.82
  -8   0 -13  147.72    2.02
  -7  -1 -23    2.66    1.25
  -5  -1 -24    1.54    1.44
  -4   0 -18    1.91    1.04
  -2   0 -19   24.10    1.29
  -1  -1 -26    0.96    1.27
   0   0 -20    1.92    0.99
   1  -1 -26    1.65    1.12
   2   0 -20   30.88    1.37
   4   0 -19    7.60    0.99
   5  -1 -26   -0.28    1.22
   6   0 -18    1.84    0.88
   7  -1 -25    5.22    1.03
   8   0 -15    6.14    0.74
   8   0 -14    2.75    0.77
   9  -1 -24    0.22    0.97
  -8   0 -12    1.02    0.78
  -6   0 -15   -0.08    0.94
  -4   0 -17    2.74    0.95
  -2   0 -18   25.83    1.25
  -1  -1 -25    0.51    1.08
   2   0 -19    0.34    0.92
   4   0 -18    5.25    1.12
   5  -1 -25    3.75    1.01
   6   0 -17   -0.03    0.87
   8   0 -13    2.13    0.61
   8   0 -12   29.73    0.89
   8   0 -11    3.85    0.68
   9  -1 -23   -0.25    1.00
 -11  -1 -17   -1.00    1.04
  -9  -1 -20    7.06    1.27
  -8   0 -11   15.98    0.88
  -8   0 -10    1.55    0.74
  -6   0 -14    0.96    0.89
  -5  -1 -23    4.72    1.38
  -4   0 -16   28.88    1.43
  -3  -1 -24    0.79    1.38
  -2   0 -17   56.85    1.64
   0   0 -18    0.44    1.01
   2   0 -18   -0.76    0.96
   4   0 -17   62.85    1.54
   6   0 -16    6.30    0.87
   7  -1 -24    2.15    1.14
 -12  -2 -21    1.74    1.18
 -10  -2 -23    3.10    1.33
  -9  -1 -19    0.16    1.16
  -8   0  -9   44.57    1.06
  -8   0  -8   47.53    1.05
  -8   0  -7    1.76    0.63
  -6   0 -13   11.33    0.98
  -4   0 -15   14.11    1.21
  -3  -1 -23    1.20    1.25
  -1  -1 -24    6.44    1.39
   0   0 -17    3.92    1.20
   1  -1 -24    1.94    1.13
   2   0 -17    2.46    0.96
   5  -1 -24    0.42    1.23
   6   0 -15  149.43    1.81
   9  -1 -22    1.24    0.96
 -11  -1 -16    0.23    0.94
  -7  -1 -20   13.92    1.31
  -6   0 -12   38.86    1.16
  -4   0 -14   44.83    1.36
  -2   0 -16    5.28    1.06
  -1  -1 -23   12.56    1.37
   0   0 -16  111.11    1.96
   2   0 -16   -0.65    0.91
   5  -1 -23    4.86    1.09
   6   0 -14   31.81    0.99
   6   0 -13    5.58    0.75
   8  -2 -27    2.45    1.19
 -12  -2 -20   -0.02    1.13
 -10  -2 -22    2.98    1.32
  -6   0 -11    0.55    0.74
  -5  -1 -21   -0.66    1.40
  -4   0 -13    3.26    0.90
  -2   0 -15    4.36    0.96
   0   0 -15    7.79    1.00
   2   0 -15    1.83    0.89
   4  -2 -27    1.04    1.09
   6  -2 -27    2.26    1.22
   6   0 -12   14.53    0.82
   7  -1 -22    7.09    1.15
   8  -2 -26    0.26    1.13
 -12  -2 -19    4.96    1.04
 -11  -1 -14   49.66    1.58
 -10  -2 -21    4.55    1.29
  -8  -2 -23    0.77    1.34
  -7  -1 -19    5.64    1.23
  -6  -2 -24   -1.19    1.21
  -6   0 -10   21.31    0.98
  -6   0  -9    6.01    0.78
  -4  -2 -25    3.53    1.22
  -4   0 -12    5.92    0.92
  -3  -1 -21    2.05    1.20
  -2  -2 -26    2.40    1.35
  -2   0 -14    3.63    0.95
  -1  -1 -22    2.16    1.26
   0   0 -14    0.14    0.82
   1  -1 -22    0.80    1.18
   2   0 -14    6.20    0.80
   5  -1 -22   -0.49    1.19
   6   0 -11   33.19    0.90
   6   0 -10    0.98    0.64
   7  -1 -21    0.37    1.01
   9  -1 -20   -0.49    0.87
  -9  -1 -16   -0.09    0.95
  -7  -1 -18    0.95    1.08
  -6   0  -8  110.36    1.39
  -6   0  -7   86.62    1.25
  -4   0 -11    3.73    0.90
   0  -2 -26    2.60    1.40
   2  -2 -26    0.54    1.24
   4  -2 -26    3.86    1.29
   5  -1 -21    4.84    1.21
   8  -2 -25   -0.13    1.10
   9  -1 -19   19.03    1.16
  10  -2 -24    0.81    0.99
 -12  -2 -18   12.28    1.36
 -11  -1 -13   18.27    1.18
 -10  -2 -20   -0.15    1.31
  -8  -2 -22   -1.66    1.18
  -6  -2 -23    1.77    1.49
  -4  -2 -24    0.40    1.36
  -3  -1 -20   -0.44    1.24
  -2  -2 -25    3.43    1.21
   0   0 -13   11.51    0.92
   1  -1 -21    2.86    1.19
   2   0 -13   79.82    1.32
   6  -2 -25    2.22    1.16
   7  -1 -20    0.83    0.94
 -12  -2 -17    0.59    1.12
 -11  -1 -12    0.10    0.91
  -9  -1 -15    0.74    1.05
  -8  -2 -21   -1.38    1.17
  -7  -1 -17    4.69    1.14
  -4   0  -9  111.91    1.46
  -2  -2 -24    6.72    1.41
  -2   0 -11   67.57    1.40
   0  -2 -25    1.36    1.16
   0   0 -12   75.78    1.44
   2   0 -12    8.92    0.89
   4  -2 -25    3.16    1.34
   5  -1 -20   22.76    1.40
   7  -1 -19    0.76    1.02
   8  -2 -24    2.36    1.24
   9  -1 -18    1.22    1.01
 -11  -1 -11   23.39    1.08
 -10  -2 -19    3.15    1.31
  -9  -1 -14    1.51    1.15
  -6  -2 -22    2.47    1.45
  -4  -2 -23    7.98    1.54
  -4   0  -8   87.94    1.30
  -3  -1 -19   -0.60    1.08
  -2   0 -10   18.29    0.92
   1  -1 -20    0.94    1.12
   6  -2 -24   -0.59    1.26
   9  -1 -17    4.40    0.94
 -12  -2 -16    0.13    1.15
 -11  -3 -21   -0.07    1.01
 -11  -1 -10   34.76    1.27
 -10  -2 -18    0.42    1.26
  -8  -2 -20   18.32    1.60
  -3  -1 -18    2.96    1.14
  -2  -2 -23   -0.15    1.28
  -2   0  -9   21.35    0.90
   0   0 -10    0.72    0.77
   1  -1 -19    4.68    1.07
   2  -2 -24    5.24    1.42
   2   0 -10   33.96    1.00
   4  -2 -24    8.75    1.44
   7  -1 -18    4.07    1.10
   8  -2 -23   -0.99    1.14
   9  -3 -26    1.73    1.15
  10  -2 -22    0.54    1.01
  -9  -3 -22    0.06    1.20
  -9  -1 -13    5.77    1.00
  -6  -2 -21    8.76    1.43
  -4  -2 -22   -0.23    1.43
  -2   0  -8   38.48    0.93
  -1  -1 -18    1.60    1.00
   2   0  -9   35.40    0.89
   5  -1 -18    2.61    1.20
   6  -2 -23    1.60    1.26
   7  -3 -26    1.59    1.32
   9  -1 -16   15.07    0.97
 -12  -2 -15    3.34    1.01
 -11  -3 -20    0.56    0.95
 -11  -1  -9    7.02    0.75
 -10  -2 -17   10.02    1.27
  -9  -1 -12   11.97    1.11
  -8  -2 -19    1.23    1.29
  -7  -3 -23    2.88    1.40
  -2  -2 -22    3.00    1.42
   2  -2 -23   -0.23    1.18
   4  -2 -23    0.90    1.14
   5  -3 -26    1.12    1.22
   8  -2 -22    2.57    1.15
   9  -3 -25    0.66    1.11
  10  -2 -21    0.81    0.98
 -12  -2 -14    1.76    1.01
 -11  -1  -8   11.98    0.78
  -9  -3 -21    0.94    1.36
  -4  -2 -21   27.34    1.53
  -1  -3 -25    1.24    1.30
  -1  -1 -17    1.79    1.17
   0  -2 -22    1.68    1.36
   4  -2 -22    6.24    1.34
   5  -1 -17    1.92    1.08
   6  -2 -22   10.86    1.26
   7  -3 -25    2.69    1.32
   7  -1 -16   24.45    1.24
   9  -1 -15    5.70    0.82
  10  -2 -20    0.18    0.91
 -11  -3 -19   -0.39    0.94
 -11  -1  -7   10.05    0.77
 -10  -2 -16   24.20    1.43
  -9  -1 -11   21.74    1.16
  -8  -2 -18    8.18    1.21
  -7  -3 -22    5.38    1.41
  -7  -1 -13   -0.81    1.00
  -6  -2 -19   -0.55    1.10
  -4  -2 -20    3.13    1.21
  -3  -3 -24    1.08    1.43
  -3  -1 -16   34.76    1.59
   1  -3 -25    4.78    1.25
   1  -1 -17   -0.07    1.20
   2  -2 -22    6.28    1.25
   3  -1 -17    3.76    1.14
   5  -3 -25    1.21    1.31
   8  -2 -21    0.76    0.89
   9  -3 -24    0.59    1.05
   9  -1 -14  103.75    1.54
  -9  -3 -20    3.65    1.31
  -9  -1 -10    7.42    0.93
  -8  -2 -17    1.70    1.30
  -1  -3 -24    3.33    1.44
  -1  -1 -16    2.20    1.12
   0  -2 -21    4.68    1.43
   2  -2 -21    5.86    1.35
   5  -1 -16    0.52    0.91
   6  -2 -21    2.92    1.13
   7  -3 -24    0.73    1.21
   7  -1 -15    5.98    0.93
  10  -2 -19   -0.46    0.98
 -11  -3 -18   -0.42    0.96
 -11  -1  -6    6.26    0.56
  -7  -3 -21    1.00    1.46
  -6  -2 -18   19.91    1.41
  -4  -2 -19    1.01    1.13
  -3  -1 -15    0.38    0.74
  -2  -2 -20    1.02    1.33
   1  -3 -24    0.05    1.19
   5  -3 -24   -0.49    1.29
   8  -2 -20   13.50    1.14
   9  -3 -23    0.30    1.06
   9  -1 -13   18.12    0.87
 -12  -2 -12    0.81    0.95
  -9  -3 -19    1.43    1.31
  -9  -1  -9   31.15    1.06
  -8  -2 -16   -0.57    1.04
  -1  -1 -15    4.68    1.04
   0  -2 -20    1.36    1.26
   4  -2 -20    1.86    1.24
   6  -2 -20   12.70    1.18
   7  -3 -23    8.16    1.30
   7  -1 -14    5.82    0.82
  10  -2 -18    0.43    0.98
 -11  -3 -17   -0.51    0.98
 -10  -2 -14    5.63    1.07
  -7  -3 -20    9.15    1.46
  -7  -1 -11    1.46    0.78
  -4  -2 -18    0.49    1.15
  -3  -3 -22   10.73    1.46
   1  -1 -15    2.06    0.89
   3  -1 -15  127.46    1.92
   5  -3 -23    3.82    1.24
   9  -3 -22    1.66    1.11
   9  -1 -12    8.47    0.74
 -10  -4 -20   -0.03    1.06
  -9  -3 -18   18.80    1.55
  -9  -1  -8    0.75    0.66
  -3  -1 -13   14.40    1.09
  -1  -3 -22    1.54    1.42
   0  -2 -19    0.81    1.16
   5  -1 -14   14.93    0.94
   6  -2 -19    0.98    0.99
   7  -3 -22    4.27    1.09
   7  -1 -13    1.69    0.75
 -11  -3 -16    0.06    0.93
 -10  -2 -13    0.62    1.03
  -7  -3 -19    3.08    1.38
  -7  -1 -10   19.90    0.95
  -6  -2 -16    1.64    1.11
  -4  -2 -17    2.11    1.04
  -3  -3 -21    2.35    1.29
  -2  -2 -18   21.50    1.40
   1  -1 -14    7.89    1.01
   2  -2 -19    1.37    1.01
   4  -2 -19    5.95    1.05
   8  -4 -24   -0.02    1.21
   8  -2 -18   11.72    1.11
   9  -3 -21    8.93    1.19
   9  -1 -11    1.73    0.61
  10  -2 -17    1.22    0.90
 -10  -4 -19    0.07    0.98
  -9  -3 -17    2.88    1.20
  -8  -2 -14    1.75    1.12
  -3  -1 -12    0.39    0.79
  -1  -3 -21    9.60    1.54
  -1  -1 -13   59.87    1.41
   0  -2 -18   -0.54    1.06
   5  -1 -13   11.48    0.86
   6  -4 -24    1.36    1.04
   6  -2 -18    0.44    0.90
   7  -1 -12    0.32    0.80
 -10  -2 -12    4.94    1.11
  -8  -4 -20    0.22    0.90
  -7  -3 -18    1.17    1.26
  -6  -4 -21    1.72    1.36
  -6  -2 -15    0.14    0.95
  -4  -4 -22   -0.85    1.36
  -2  -2 -17   42.10    1.63
   0  -4 -23    2.21    1.46
   1  -3 -21    1.30    1.30
   1  -1 -13   35.11    1.21
   2  -2 -18    0.76    1.06
   3  -1 -13   38.64    1.17
   5  -3 -21    3.30    1.23
   7  -3 -21   -0.95    1.02
   8  -4 -23   -0.76    1.20
   8  -2 -17    0.60    0.97
   9  -3 -20    1.17    1.03
  10  -2 -16   16.16    1.05
 -10  -4 -18   -0.29    0.94
  -9  -1  -6   59.96    1.08
  -4  -2 -16   17.67    1.21
  -2  -4 -22   -0.66    1.26
  -1  -3 -20    7.88    1.27
  -1  -1 -12    1.43    0.90
   0  -2 -17    5.95    1.02
   4  -4 -23   -0.25    1.21
   6  -4 -23   -0.17    1.28
   6  -2 -17   -1.41    0.99
   9  -1 -10   23.39    0.72
  10  -4 -22    1.49    0.99
  -8  -4 -19   -1.18    1.03
  -8  -2 -13  123.63    2.14
  -7  -3 -17    2.14    1.25
  -7  -1  -8  233.03    2.08
  -6  -4 -20    0.89    1.32
  -4  -4 -21   11.20    1.48
  -3  -3 -19   -0.61    1.26
  -3  -1 -11   54.95    1.33
  -2  -2 -16    4.18    1.05
   1  -3 -20    0.75    1.15
   1  -1 -12    4.26    0.87
   2  -2 -17    0.09    0.91
   8  -4 -22    0.19    1.13
   8  -2 -16   -0.97    0.95
  10  -2 -15   12.42    1.02
 -10  -4 -17   -0.43    0.96
  -9  -3 -15    0.08    1.16
  -6  -2 -14    1.13    1.08
   2  -4 -22    2.51    1.38
   4  -4 -22    2.35    1.22
   6  -4 -22    3.91    1.24
   9  -3 -19    9.96    1.12
 -10  -2 -10   -0.02    0.94
  -8  -4 -18    0.03    1.07
  -8  -2 -12    0.55    1.09
  -7  -3 -16    1.40    1.09
  -7  -1  -7   47.33    1.18
  -6  -4 -19   -0.91    1.29
  -4  -4 -20    1.88    1.37
  -1  -3 -19    2.90    1.23
  -1  -1 -11    0.39    0.88
   0  -2 -16   79.35    2.02
   2  -2 -16   -0.43    1.17
   6  -2 -16    6.02    1.10
   8  -4 -21    0.99    1.22
 -10  -4 -16    0.46    0.99
  -6  -2 -13    8.22    1.21
  -2  -2 -15    3.84    1.26
   0  -4 -21    2.72    1.17
   1  -3 -19    1.72    1.22
   1  -1 -11  263.01    2.33
   2  -4 -21    2.91    1.24
   3  -1 -11    7.72    0.90
   5  -3 -19    7.88    1.29
   6  -4 -21    0.84    1.20
   8  -2 -15    2.50    0.98
   9  -3 -18    1.98    0.97
  10  -4 -20   -0.62    1.15
  10  -2 -14   10.26    0.93
  -9  -3 -14    0.76    1.26
  -8  -4 -17   -0.06    1.10
  -8  -2 -11   18.49    1.27
  -4  -4 -19    0.37    1.32
  -2  -4 -20   -0.32    1.43
  -1  -3 -18   -1.15    1.41
  -1  -1 -10   74.33    1.48
   4  -4 -21    2.79    1.30
   6  -2 -15  119.90    2.08
  -4  -4 -13    1.18    1.04
  -3  -3 -12    1.36    0.99
  -2  -6 -17    2.90    1.24
  -2  -4 -15    2.03    1.15
  -1  -5 -17    0.64    1.12
  -1  -3 -14   12.16    1.33
   1  -1  -9   19.79    0.93
   3  -5 -20    0.61    1.20
   3  -3 -17   -0.27    1.18
   3  -1 -11    5.78    1.04
   5  -5 -21    0.39    1.23
   5  -3 -18    1.62    1.26
   6  -2 -16    4.99    1.13
   7  -3 -19   -0.89    1.38
   8  -4 -21    0.64    1.36
   9  -1 -14  110.50    1.89
  12  -2 -18    0.77    1.04
  14  -2 -18   14.99    1.31
  17  -3 -20   -0.69    1.13
  -3  -5 -15   -0.54    1.07
  -2  -2 -10   10.63    0.97
   0  -6 -18    0.23    1.23
   0  -2 -12   58.32    1.47
   1  -5 -18   15.11    1.43
   4  -4 -19    2.82    1.20
   5  -1 -12   32.67    1.16
   9  -3 -19    8.76    1.40
  10  -4 -21   -0.19    1.30
  10  -2 -17   -0.83    1.02
  11  -1 -14    1.42    1.00
  13  -3 -20    0.07    1.10
  13  -1 -14    0.03    1.01
  15  -3 -20    5.69    1.12
  -4  -2  -7  142.21    1.55
  -2  -6 -16   -0.38    1.14
   0  -4 -16   30.35    1.56
   1  -3 -15   -0.75    1.01
   2  -2 -13   53.34    1.48
   3  -5 -19    0.97    1.31
   7  -3 -18    1.03    1.15
   8  -4 -20    7.13    1.40
  12  -2 -17    1.02    1.05
  14  -2 -17    9.98    1.02
  17  -3 -19   -0.17    1.05
  -4  -4 -12    1.33    0.99
  -2  -4 -14    0.91    1.01
  -1  -5 -16    0.28    1.16
   0  -6 -17    0.53    1.23
   3  -3 -16   19.80    1.37
   4  -4 -18    2.58    1.15
   4  -2 -14    1.55    1.06
   5  -3 -17    2.47    1.10
   6  -4 -19    1.09    1.30
   6  -2 -15  120.85    2.18
   9  -1 -13   16.22    0.99
  10  -4 -20   -0.51    1.18
  11  -3 -19    6.82    1.17
  13  -3 -19    0.32    1.19
  15  -3 -19    0.78    1.16
   0  -2 -11   52.79    1.32
   1  -1  -8   22.14    0.82
   2  -6 -18   -0.23    1.18
   3  -5 -18   -0.06    1.12
   5  -5 -19    2.34    1.13
   5  -1 -11   16.73    1.04
   7  -5 -20    0.55    1.27
   9  -3 -18    1.18    1.23
  10  -2 -16   16.78    1.10
  11  -1 -13    9.88    0.96
  13  -1 -13    1.55    0.87
  14  -4 -20   -1.24    1.21
  16  -2 -16   -0.61    0.96
  -5  -3  -8    3.12    0.79
  -2  -6 -15    0.05    0.88
  -1  -5 -15   -0.48    0.96
   0  -4 -15    4.76    1.03
   1  -3 -14    1.26    1.14
   2  -2 -12    9.48    0.94
   3  -3 -15   71.53    1.73
   7  -3 -17   11.61    1.31
   8  -4 -19    3.90    1.27
  11  -3 -18   13.08    1.38
  12  -2 -16    1.20    0.93
  14  -2 -16    0.09    1.01
  -4  -4 -11    1.24    0.91
  -1  -3 -12    0.21    0.92
   4  -4 -17   14.15    1.37
   4  -2 -13   -0.09    0.99
   7  -5 -19   -0.56    1.27
   9  -1 -12    7.67    0.85
  10  -4 -19    0.28    1.21
  13  -3 -18    0.76    0.99
  15  -3 -18    0.89    0.97
  -2  -6 -14    0.76    0.94
   0  -4 -14    1.02    0.94
   2  -6 -17    0.79    1.11
   5  -1 -10    9.41    0.86
   8  -4 -18    6.98    1.31
   9  -3 -17    0.56    1.06
  10  -2 -15   11.63    1.16
  11  -1 -12    9.29    0.90
  14  -4 -19    1.30    1.19
  16  -4 -19    1.58    1.04
  16  -2 -15    3.21    0.89
  17  -3 -17   10.63    1.20
  -2  -2  -8   34.83    0.99
  -1  -5 -14    1.97    1.07
   0  -6 -15    1.99    0.97
   1  -3 -13   16.08    1.13
   3  -3 -14    0.25    1.15
   4  -4 -16    1.20    1.08
   5  -3 -15    1.40    0.94
   6  -4 -17    1.08    1.18
   7  -3 -16   15.21    1.23
   9  -5 -19    3.27    1.19
  10  -4 -18   -0.52    1.08
  11  -3 -17    2.01    1.10
  12  -2 -15    4.58    0.88
  13  -3 -17    0.76    1.04
  14  -2 -15    2.17    0.87
  15  -3 -17    1.86    1.13
  18  -4 -18    0.07    1.06
  -5  -3  -7   20.53    0.85
  -4  -4 -10    0.78    0.84
  -3  -5 -12    0.39    0.93
  -2  -4 -12   57.92    1.59
  -1  -3 -11   -0.74    0.86
   2  -6 -16    0.28    1.14
   2  -2 -11    4.11    0.94
   3  -5 -16    6.81    1.31
   4  -6 -17    3.82    1.27
   4  -2 -12   30.61    1.17
   5  -5 -17    0.44    1.09
   6  -2 -13    6.63    0.99
   7  -5 -18   -0.69    1.11
   9  -3 -16    7.66    1.14
  11  -5 -19    1.94    1.18
  14  -4 -18    5.78    1.21
  16  -4 -18    0.13    1.21
  -3  -3  -9    2.18    0.71
  -2  -6 -13   -0.16    1.09
   0  -4 -13    3.71    0.95
   3  -1  -8    5.90    0.72
   8  -4 -17    0.84    1.13
   9  -5 -18    0.19    1.22
  10  -2 -14    9.30    1.19
  11  -3 -16    0.74    1.00
  16  -2 -14    6.46    0.93
  17  -3 -16    0.96    1.06
  -1  -5 -13   11.06    1.13
   0  -6 -14   -1.08    1.07
   0  -2  -9   12.32    0.91
   1  -3 -12    1.33    0.94
   2  -6 -15    1.22    1.16
   3  -3 -13   21.41    1.25
   4  -4 -15    3.66    1.12
   5  -1  -9  120.91    1.52
   6  -4 -16    2.31    1.14
   7  -3 -15    4.39    1.00
  10  -4 -17    0.56    1.21
  11  -5 -18    4.38    1.38
  12  -2 -14   13.04    1.14
  13  -1 -11   -0.80    0.76
  14  -2 -14    4.02    0.99
  15  -3 -16    1.06    1.07
  18  -4 -17    0.75    1.11
  -4  -4  -9   22.57    1.09
  -3  -5 -11    6.42    1.00
  -2  -6 -12   11.97    1.11
   1  -5 -14    0.86    1.03
   2  -2 -10   19.19    1.07
   3  -5 -15   21.02    1.48
   4  -6 -16    0.66    1.04
   5  -5 -16   -0.16    1.34
   8  -4 -16   -0.17    1.07
   9  -3 -15    4.22    1.09
  14  -4 -17    2.88    1.30
  -3  -3  -8   59.40    1.35
  -1  -3 -10   26.38    1.04
   0  -6 -13    0.61    1.15
   4  -2 -11   21.97    1.11
   6  -2 -12    6.69    0.75
   9  -5 -17    1.26    1.13
   9  -1 -10   24.68    0.94
  10  -2 -13    0.29    1.04
  11  -5 -17    0.40    1.19
  11  -3 -15    0.52    1.07
  15  -3 -15    1.82    1.08
  16  -2 -13    0.69    0.89
  17  -3 -15    0.83    1.05
  18  -4 -16    0.08    1.10
  -1  -5 -12   -0.06    0.93
   1  -7 -13    0.58    1.30
   1  -3 -11  139.86    2.01
   4  -6 -15    0.78    1.31
   4  -4 -14    0.84    1.06
   5  -3 -13    3.43    1.12
   6  -4 -15   42.59    1.64
   7  -5 -16    4.40    1.37
   7  -3 -14    3.51    0.97
  10  -4 -16    7.30    1.17
  11  -1 -10   19.76    0.95
  12  -2 -13   58.04    1.51
  13  -3 -15   16.58    1.24
  13  -1 -10   10.71    0.91
  14  -2 -13    2.46    1.00
  16  -4 -16   -1.15    1.19
  -3  -5 -10    4.59    1.04
  -2  -6 -11    6.46    1.14
  -2  -4 -10    5.20    0.98
   0  -2  -8    0.46    0.77
   1  -5 -13    4.60    1.04
   3  -3 -12   10.56    1.06
   5  -5 -15   -0.40    1.10
   5  -1  -8    6.54    0.77
   8  -6 -16   -0.69    1.30
   8  -4 -15   -0.34    1.18
   9  -5 -16    3.18    1.26
   9  -3 -14   51.94    1.61
  -4  -4  -8   17.09    1.01
  -2  -2  -6   55.45    1.05
  -1  -3  -9   15.06    0.98
   0  -6 -12    4.43    1.21
   6  -6 -15   10.41    1.65
   6  -4 -14    9.24    1.19
   6  -2 -11   16.82    1.06
   7  -5 -15    0.89    1.22
  10  -4 -15    5.70    1.14
  10  -2 -12   13.34    1.09
  11  -5 -16    0.04    1.36
  11  -3 -14    0.51    1.05
  13  -3 -14   -0.05    1.10
  15  -3 -14    1.71    1.08
  16  -2 -12    2.15    0.90
  18  -4 -15   -0.35    0.99
  -1  -5 -11    0.70    0.93
   1  -7 -12   -0.14    1.26
   1  -5 -12   -0.14    1.00
   2  -6 -13    4.88    1.14
   4  -6 -14   -0.50    1.20
   4  -4 -13    0.56    0.98
   4  -2 -10  246.60    2.32
   5  -5 -14    1.63    1.19
   7  -3 -13    0.44    1.10
   8  -6 -15    0.27    1.40
   9  -1  -9   15.67    0.91
  12  -2 -12    4.50    0.97
  14  -4 -15    0.89    1.25
  16  -4 -15    2.78    1.07
  -5  -3  -5    1.84    0.54
  -3  -5  -9   -0.56    0.90
  -3  -3  -7   13.57    0.87
  -2  -6 -10    2.81    1.03
   1  -3 -10   36.53    1.23
   5  -3 -12   16.76    1.22
   8  -4 -14    1.73    1.19
   9  -5 -15    1.72    1.22
   9  -3 -13   12.15    1.10
  11  -5 -15   -0.86    1.21
  11  -1  -9   14.36    0.86
  13  -1  -9    0.47    0.68
  17  -3 -13    1.31    1.00
   0  -6 -11    3.30    1.22
   1  -7 -11    7.28    1.32
   2  -6 -12    2.43    1.24
   4  -6 -13    0.59    1.39
   6  -6 -14    2.74    1.32
   6  -4 -13    3.25    1.04
   7  -1  -8   88.11    1.29
  10  -4 -14    4.98    1.26
  11  -3 -13    4.38    1.11
  13  -3 -13    0.40    0.95
  15  -5 -15    0.25    1.10
  15  -3 -13   10.40    1.17
  16  -4 -14    1.33    1.27
  16  -2 -11    5.61    0.94
  -1  -5 -10    6.07    1.00
  -1  -3  -8   15.73    0.94
   3  -7 -12    1.97    1.16
   5  -5 -13    0.00    1.34
   5  -1  -7   18.85    0.77
   6  -2 -10   -0.31    0.84
   7  -3 -12   -0.03    1.14
  10  -2 -11   17.33    1.08
  12  -2 -11    7.02    1.02
  14  -4 -14    3.47    1.29
  -2  -6  -9    1.29    1.16
   1  -3  -9   10.73    0.89
   4  -2  -9   17.04    1.06
   5  -3 -11    7.42    1.12
   6  -6 -13    1.71    1.39
   8  -4 -13    1.12    1.11
   9  -3 -12    3.16    1.02
   9  -1  -8    2.46    0.72
  10  -6 -14    0.87    1.28
  11  -5 -14    1.16    1.37
  17  -3 -12    0.12    1.00
  -3  -3  -6   59.90    1.23
  -2  -4  -8    8.61    0.98
   0  -6 -10    0.73    1.22
   3  -7 -11    1.52    1.27
   6  -4 -12    1.39    1.01
  11  -3 -12    5.12    1.04
  11  -1  -8   16.56    0.90
  13  -3 -12    5.42    1.16
  14  -4 -13    1.07    1.05
  16  -4 -13   -0.15    1.28
  16  -2 -10    1.17    1.00
  -5  -3  -4    0.04    0.57
  -4  -4  -6   47.94    1.28
   0  -4  -9    2.45    1.00
   1  -5 -10   15.10    1.23
   4  -4 -11    5.89    1.04
   5  -5 -12    4.88    1.34
   7  -3 -11   27.64    1.36
   9  -5 -13    5.86    1.40
  10  -6 -13    1.27    1.14
  10  -2 -10    0.77    0.75
  14  -2 -10    3.82    0.98
  15  -5 -13    4.38    1.41
  17  -5 -13   -0.02    1.35
  18  -4 -12    9.44    1.13
  -2  -6  -8    1.22    1.11
  -1  -3  -7   65.10    1.31
   0  -2  -6    0.44    0.66
   4  -6 -11    0.09    1.41
   5  -7 -11    2.99    1.38
   6  -6 -12   -0.38    1.20
   6  -2  -9   20.54    1.05
   7  -1  -7   15.64    0.86
   8  -4 -12    7.89    1.09
  11  -5 -13    2.36    1.25
  12  -6 -13    5.79    1.20
  12  -2 -10    0.72    0.84
  16  -4 -12    1.56    1.25
  17  -3 -11   -0.01    0.96
  -3  -5  -7    1.50    1.00
   0  -6  -9    2.11    1.05
   1  -3  -8    7.31    0.84
   2  -6 -10    1.22    1.27
   2  -2  -7    7.95    0.80
   3  -3  -9    6.85    0.89
   4  -2  -8   72.68    1.40
   5  -3 -10    4.41    1.00
   7  -5 -12   -0.48    1.22
   8  -6 -12    1.60    1.22
   9  -3 -11    0.98    1.18
  10  -4 -12    4.81    1.18
  14  -4 -12    0.54    1.15
  17  -5 -12    1.30    1.37
  -2  -4  -7    0.30    0.80
   5  -7 -10   -0.84    1.44
   6  -6 -11    1.43    1.21
   6  -4 -11    5.60    1.02
   9  -1  -7   65.19    1.15
  10  -6 -12    1.28    1.31
  11  -5 -12    0.81    1.17
  12  -6 -12    2.27    1.43
  13  -3 -11   -0.07    0.86
  16  -2  -9   -0.33    0.92
  -3  -3  -5    3.63    0.73
   0  -6  -8    0.32    1.15
   0  -4  -8    0.88    0.89
   1  -7  -8   -0.08    0.95
   1  -5  -9    2.13    0.94
   3  -7  -9   -0.97    1.32
   4  -6 -10   22.41    1.65
   7  -3 -10   70.95    1.70
   8  -4 -11    2.23    1.07
  10  -2  -9   66.48    1.44
  11  -1  -7   22.17    0.84
  13  -1  -7   96.47    1.36
  14  -2  -9    6.84    0.91
  16  -4 -11    1.33    1.32
  17  -3 -10    3.40    0.99
  -5  -3  -3  151.74    1.51
  -3  -5  -6   13.56    1.11
   6  -2  -8   46.12    1.22
   8  -6 -11   -0.15    1.18
  10  -6 -11    2.55    1.27
  10  -4 -11    4.76    1.26
  12  -2  -9   10.15    0.99
  14  -4 -11    1.22    1.28
  15  -3 -10    5.02    1.01
  17  -5 -11   -0.38    1.22
  19  -5 -10   -0.47    1.38
  -1  -3  -6   83.18    1.42
   5  -5 -10    0.82    1.16
   5  -3  -9   60.24    1.34
   6  -6 -10   -0.68    1.28
   6  -4 -10    0.33    0.93
   9  -5 -11   -0.06    1.14
  11  -5 -11    1.08    1.35
  11  -3 -10   12.69    1.24
  12  -6 -11    1.41    1.26
  13  -3 -10    7.73    0.95
  16  -2  -8   -0.31    0.89
  -2  -6  -6    4.32    1.01
   0  -6  -7    8.00    1.22
   1  -5  -8    2.99    0.96
   1  -3  -7   57.33    1.28
   2  -6  -8    4.45    1.28
   3  -7  -8    0.94    1.06
   3  -3  -8    4.19    0.64
   4  -4  -9    8.10    1.19
   4  -2  -7   31.67    1.02
   7  -5 -10   20.44    1.47
   7  -1  -6   48.25    0.98
   8  -6 -10    5.86    1.40
   8  -4 -10   18.80    1.33
  16  -4 -10   -0.96    1.27
  17  -5 -10    0.14    1.39
  17  -3  -9    0.73    0.94
   0  -4  -7   44.66    1.25
   5  -7  -8    0.82    1.25
   9  -5 -10    1.33    1.18
  10  -4 -10   -0.50    1.10
  12  -6 -10    0.11    1.41
  15  -5 -10    0.78    1.55
  15  -3  -9    5.63    0.94
  -3  -5  -5    0.33    0.88
  -3  -3  -4   11.12    0.75
   1  -7  -6    0.53    0.84
   3  -7  -7   -0.72    1.07
   5  -5  -9   13.81    1.38
   6  -6  -9    0.62    1.24
   6  -4  -9    5.25    1.18
   9  -3  -9    6.20    1.11
   9  -1  -6   14.51    0.77
  11  -3  -9    4.80    1.10
  12  -2  -8   28.58    1.08
  13  -3  -9    1.71    1.00
  13  -1  -6   13.12    0.69
  17  -5  -9    1.08    1.46
  -1  -5  -6   31.50    1.45
   0  -6  -6   -0.04    0.94
   6  -2  -7    0.84    0.81
   7  -5  -9   20.01    1.48
  10  -6  -9    6.24    1.42
  12  -6  -9    0.65    1.43
  16  -4  -9   -0.40    1.24
  17  -3  -8    4.58    1.02
  -2  -4  -5   25.12    1.03
  -1  -3  -5  233.71    2.01
   4  -4  -8   24.16    1.30
   5  -7  -7    1.32    1.45
   6  -6  -8    2.20    1.21
   7  -3  -8   39.35    1.35
   8  -4  -9    6.18    1.09
   9  -5  -9    0.97    1.13
  10  -4  -9   23.81    1.43
  14  -4  -9    3.13    1.20
  18  -4  -8   -0.22    1.20
  -3  -5  -4    1.84    1.01
   1  -7  -5    0.12    0.97
   4  -6  -7    1.56    1.42
   8  -6  -8    0.33    1.39
  11  -5  -9    0.96    1.09
  15  -3  -8    1.84    0.85
  17  -5  -8    1.50    1.51
  -2  -6  -4    1.56    0.89
   0  -6  -5    3.72    1.19
   1  -5  -6    9.64    1.31
   2  -6  -6    3.41    1.22
   6  -4  -8   11.25    1.40
   9  -3  -8    1.25    0.89
  10  -2  -7   59.30    1.27
  11  -3  -8    7.63    1.14
  12  -6  -8    2.14    1.60
  12  -2  -7   19.35    0.99
  13  -3  -8   21.84    1.27
  15  -5  -8   -0.47    1.52
  16  -4  -8   -0.25    1.12
  17  -3  -7    0.06    0.93
  19  -5  -7    0.33    1.39
  -4  -4  -3    1.93    0.68
   1  -7  -4   -0.25    1.06
   2  -2  -5  359.15    2.20
   3  -7  -5    0.59    1.12
   4  -4  -7    9.18    1.34
   5  -3  -7    4.78    0.87
   6  -6  -7    0.27    1.41
   8  -4  -8    6.66    1.22
   9  -5  -8   -0.84    1.21
  11  -5  -8    1.92    1.22
  13  -1  -5    0.61    0.56
  14  -4  -8    1.09    1.16
  17  -5  -7    0.48    1.30
  18  -4  -7   -0.53    1.18
  -3  -3  -3    1.33    0.66
   3  -3  -6   97.73    1.63
   4  -6  -6   -0.75    1.24
   5  -5  -7    0.96    1.08
   6  -2  -6   27.50    1.06
   8  -6  -7   -0.44    1.62
   9  -7  -6   -1.80    1.71
   9  -1  -5  146.77    1.48
  10  -6  -7    5.65    1.48
  11  -1  -5    0.89    0.62
  15  -3  -7    0.29    1.06
  16  -4  -7   17.48    1.53
  19  -5  -6    4.62    1.61
  -3  -5  -3   -0.79    1.00
  -1  -3  -4    1.20    0.70
   0  -4  -5   32.03    1.18
   6  -4  -7    0.16    1.29
   7  -5  -7    1.52    1.25
   7  -3  -7    7.26    0.76
   9  -3  -7   27.21    1.30
  13  -3  -7   56.64    1.79
  15  -5  -7    0.36    1.56
  17  -3  -6    9.09    1.13
  -1  -7  -2    0.20    0.97
  -1  -5  -4   -0.61    1.05
   1  -7  -3   -0.03    1.10
   6  -6  -6    0.73    1.40
   8  -4  -7    1.65    1.14
   9  -7  -5    3.28    1.73
   9  -5  -7    8.33    1.53
  10  -2  -6    2.86    0.83
  11  -5  -7    3.56    1.53
  11  -3  -7   10.95    1.20
  12  -2  -6    1.66    0.79
  14  -4  -7    7.52    1.33
  19  -5  -5    6.00    1.60
   5  -1 -12   30.46    1.44
   6  -2 -14   20.36    1.66
   7  -5 -14    1.62    1.58
   7  -1 -14    7.74    1.26
   7   1 -10  159.76    2.03
   8  -4 -16    0.17    1.49
   8  -2 -16   -0.07    1.33
   9  -3 -17    1.27    1.51
   9  -1 -16   15.79    1.62
  10  -6 -15    2.45    1.51
  11   1 -14    1.61    1.32
  12  -4 -19    0.55    1.92
  12  -2 -19    4.80    1.67
  12   0 -17    2.02    1.21
  13  -1 -19   -0.86    1.49
  14  -4 -20   -1.57    1.81
  14   0 -18   23.39    1.74
  15  -3 -21   -0.22    1.79
  15  -1 -20    8.29    1.76
  17  -1 -21    1.35    1.57
  18   0 -20    3.02    1.43
   3  -3 -10   17.51    1.20
   3  -1  -9   25.69    1.00
   4  -4 -11    6.82    1.54
   7  -3 -15    1.86    1.32
   9   1 -12    8.24    1.05
  10   0 -15   18.48    1.45
  11  -5 -17    1.06    1.69
  14  -2 -20    0.80    1.42
  16   0 -19    2.15    1.23
  19  -1 -21    0.72    1.67
   0  -4  -4    9.11    0.86
   2  -2  -8   86.85    1.73
   4  -2 -11   21.50    1.46
   6  -4 -13    2.57    1.39
   7  -5 -13   -1.00    1.48
   8  -4 -15   -0.55    1.67
   8   0 -13    3.31    1.09
   9  -5 -15    2.52    1.62
  10  -6 -14    0.46    1.45
  10  -2 -17   -0.73    1.39
  12  -4 -18    0.83    1.72
  13  -3 -19    0.39    1.78
  13  -1 -18    0.78    1.54
  13   1 -15   32.18    1.55
  15  -3 -20    5.30    1.96
  18  -2 -21   -1.06    1.50
   6  -2 -13    6.64    1.40
   7  -3 -14    4.61    1.29
   8  -2 -15    3.03    1.41
   9  -1 -15    6.05    1.46
  11  -5 -16    0.12    1.72
  12  -6 -15    0.48    1.54
  12  -2 -18    1.25    1.51
  14  -4 -19    0.46    1.52
  14  -2 -19    0.76    1.64
  14   0 -17    9.80    1.53
  15  -1 -19    3.44    1.53
  18   0 -19    3.96    1.58
   1  -3  -6   44.49    1.29
   2  -4  -7    0.87    1.04
   9  -5 -14   15.16    1.85
  10  -6 -13    1.19    1.43
  10  -2 -16   16.77    1.53
  11  -3 -17    2.83    1.63
  13  -5 -17   -0.29    1.72
  17  -3 -20   -1.28    1.79
  19  -1 -20    0.42    1.54
   3  -3  -9    6.69    1.01
   4  -2 -10  244.04    2.78
   6  -4 -12    0.56    1.31
   8  -4 -14    1.04    1.41
   9  -3 -15    3.88    1.42
  10   0 -14   15.44    1.39
  11  -5 -15    0.11    1.51
  12  -6 -14   -0.08    1.68
  12  -2 -17    0.52    1.40
  14  -4 -18    5.89    1.87
  15  -1 -18    2.23    1.54
  18  -2 -20    0.03    1.70
  21  -1 -20   -2.74    1.67
   6  -2 -12    6.61    1.30
   7  -3 -13    1.90    1.59
   8  -2 -14    2.13    1.36
   8   0 -12   30.59    1.35
   9  -1 -14  102.73    2.34
  13  -5 -16   -1.01    1.79
  14  -2 -18   18.11    1.73
  18   0 -18    0.75    1.21
   4  -4  -9    8.10    1.38
   7  -5 -11    6.69    1.47
   8  -4 -13    0.33    1.41
   9  -5 -13    5.64    1.44
  10  -6 -12    0.96    1.42
  10  -2 -15   12.54    1.45
  12  -4 -16    0.69    1.71
  14  -4 -17    2.21    1.63
  14   0 -16    0.60    1.11
  15  -3 -18    1.71    1.90
  16  -4 -18   -1.13    1.88
  17  -3 -19    1.12    1.56
  19  -1 -19   -0.50    1.33
   1  -3  -5    2.55    0.90
   6  -4 -11    6.43    1.38
   9  -3 -14   54.22    2.10
  10   0 -13    0.99    1.03
  11  -5 -14    0.79    1.68
  11   1 -12    9.66    1.08
  12  -6 -13    5.82    1.69
  12  -2 -16    1.14    1.45
  13  -5 -15    4.83    1.65
  14  -2 -17   10.22    1.65
  15  -1 -17    0.02    1.41
  18   0 -17    1.80    1.38
  21  -1 -19   -0.30    1.55
   4  -2  -9   16.00    1.33
   5  -5  -8    1.54    1.22
   6  -2 -11   18.04    1.33
   7  -3 -12    0.93    1.54
   9  -5 -12    1.36    1.49
  13   1 -13    1.01    0.99
  16   0 -16   -0.09    1.39
  17  -3 -18    2.14    1.68
  19  -1 -18   -1.33    1.36
  20  -2 -19   -1.61    1.55
   6  -4 -10    1.12    1.45
   8  -4 -12    6.14    1.50
   9  -1 -13   16.79    1.10
  10  -2 -14   10.24    1.31
  12  -6 -12    0.76    1.57
  13  -3 -16   -0.21    1.64
  17  -1 -17   19.82    1.77
  21  -1 -18    5.14    1.57
   7  -1 -11   62.09    1.65
   9  -3 -13   10.68    1.49
  10  -4 -13    0.27    1.37
  12  -2 -15    5.43    1.46
  13  -5 -14   -0.16    1.80
  13  -1 -15   30.62    1.63
  14  -2 -16    2.08    1.51
  15  -5 -15   -0.26    1.71
  18   0 -16    2.37    1.35
  19  -3 -18   -0.11    1.41
  20  -2 -18    0.91    1.65
   3  -3  -7    3.58    1.02
   5  -5  -7    1.83    1.16
   8  -2 -12   20.53    1.43
   9  -5 -11   -1.47    1.26
  10   0 -12   22.92    1.31
  11  -3 -14    0.93    1.49
  11   1 -11    2.40    0.88
  12  -6 -11    1.43    1.45
  14  -6 -12   -0.04    1.72
  15  -3 -16    1.06    1.54
  16  -4 -16   -0.91    1.78
  17  -3 -17    9.82    1.60
  19  -1 -17   -0.15    1.51
   4  -2  -8   71.64    1.59
   5  -3  -9   59.50    1.70
   6  -4  -9    5.20    1.45
   8  -4 -11    1.46    1.24
   9  -1 -12    9.19    1.20
  11  -5 -12    1.74    1.71
  12   0 -13   81.90    2.08
  13  -5 -13    0.95    1.67
  13  -3 -15   17.01    1.69
  13   1 -12   10.82    1.17
  14   0 -14    7.35    1.46
  15  -5 -14   -0.35    1.67
  16   0 -15    5.64    1.15
  17  -1 -16    0.50    1.35
  19  -3 -17   -0.14    1.66
  20   0 -16    2.80    1.56
  21  -1 -17   -0.30    1.48
   9  -5 -10    3.28    1.33
   9  -3 -12    2.95    1.39
  10  -4 -12    4.03    1.47
  10  -2 -13    0.85    1.00
  12  -6 -10    1.09    1.46
  12  -2 -14   11.28    1.48
  14  -2 -15    2.23    1.51
  15  -1 -15   -0.74    1.32
  16  -4 -15    1.27    1.51
  17  -3 -16   -0.51    1.73
  20  -2 -17    4.50    1.80
   5  -5  -6    0.39    1.08
   7  -5  -8   13.38    1.40
   7  -1 -10  159.86    2.17
   8  -2 -11    3.01    1.15
  11  -5 -11    1.88    1.60
  11  -3 -13    6.00    1.44
  13  -3 -14   -0.98    1.58
  13  -1 -14    0.04    1.19
  14  -6 -11    0.27    1.65
  14  -4 -14    2.27    1.81
  15  -5 -13    3.92    1.70
  15  -3 -15    1.62    1.59
  18   0 -15    0.44    1.11
  19  -3 -16   -0.78    1.42
  19  -1 -16   -1.73    1.50
   3  -3  -6   95.37    1.76
  11   1 -10   23.10    1.20
  13  -5 -12    1.77    1.56
  16  -2 -15    3.82    1.47
  16   0 -14    8.79    1.26
  17  -1 -15    3.78    1.35
  18  -4 -15    0.05    1.91
  20  -2 -16    3.44    1.65
  20   0 -15    3.82    1.38
  21  -1 -16    1.48    1.47
  23  -1 -16    2.61    1.67
   4  -4  -6    1.09    1.02
   4  -2  -7   30.38    1.14
   6  -2  -9   19.54    1.25
   9  -3 -11    1.15    1.57
   9  -1 -11    1.31    1.04
  12  -6  -9   -0.04    1.34
  12  -2 -13   58.58    1.94
  12   0 -12    8.05    1.22
  13   1 -11    0.30    0.94
  14  -6 -10   -0.65    1.64
  14  -4 -13    0.64    1.50
  14  -2 -14    5.38    1.45
  14   0 -13    1.73    1.32
  15  -1 -14    3.05    1.30
  15   1 -12   44.96    1.55
  16  -4 -14    2.16    1.91
  17  -5 -13   -0.20    1.87
  17  -3 -15    1.56    1.78
  22  -2 -16   -1.10    1.62
   7  -5  -7    1.47    1.25
  11  -5 -10    4.65    1.55
  11  -3 -12    5.22    1.45
  11  -1 -12   11.22    1.27
  13  -5 -11    0.68    1.65
  15  -5 -12    8.02    1.96
  15  -3 -14    2.30    1.38
  18  -4 -14    0.48    1.88
  18   0 -14   -0.70    1.29
  19  -1 -15    0.91    1.62
  21  -1 -15   -1.03    1.57
   2  -4  -3    0.34    0.71
   7  -1  -9  119.35    1.95
   8  -4  -9    7.26    1.41
   8   0  -9   16.95    1.03
  12  -6  -8    1.59    1.50
  14  -6  -9   -0.49    1.59
  16  -4 -13    0.56    1.85
  16  -2 -14    7.54    1.68
  16   0 -13    0.44    1.16
  17  -5 -12    0.57    1.60
  20  -2 -15    2.60    1.84
  20   0 -14   -0.11    1.30
  22  -2 -15   -0.54    1.51
  23  -1 -15    4.12    1.65
   4  -4  -5    9.66    1.02
   5  -3  -7    5.67    1.02
   5  -1  -7   19.34    1.04
   6  -4  -7   -0.44    1.19
   9  -5  -8   -0.55    1.26
  10  -4 -10    0.12    1.29
  10   0 -10    0.52    0.93
  11  -5  -9    2.27    1.50
  14   0 -12   -0.51    1.21
  15  -5 -11    1.65    1.81
  15  -3 -13   11.40    1.62
  19  -3 -14    1.87    1.54
   6  -2  -8   46.65    1.45
   7  -5  -6    3.22    1.28
   9  -3 -10   11.41    1.50
   9  -1 -10   26.02    1.28
  11  -3 -11    1.41    1.23
  11   1  -9   15.89    1.03
  12  -2 -12    5.72    1.00
  12   0 -11    9.44    1.05
  13   1 -10   11.10    1.13
  15  -1 -13   22.61    1.54
  15   1 -11    1.08    1.01
  18   0 -13    1.22    1.28
  19  -1 -14    1.96    1.37
  21  -3 -14    1.55    1.95
  21  -1 -14    2.55    1.60
  23  -1 -14    0.37    1.43
   4  -2  -6    4.89    0.92
   8  -4  -8    6.59    1.38
   9  -5  -7    6.42    1.43
  11  -1 -11    1.41    1.03
  12  -6  -7    1.55    1.37
  16  -4 -12    1.78    1.89
  17  -3 -13    0.75    1.75
  17  -1 -13   -0.18    1.32
  20  -2 -14    1.93    1.33
  20   0 -13    0.39    1.31
  22  -2 -14    0.48    1.59
   2  -4  -2    4.05    0.77
   6  -4  -6    7.87    1.28
   8  -2  -9   15.53    1.27
  11  -5  -8    3.12    1.43
  13  -5  -9    0.21    1.58
  14  -2 -12    1.44    1.33
  15  -5 -10    0.79    1.58
  15  -3 -12   24.61    1.94
  16  -6  -8    0.85    1.71
  16   0 -12    3.45    1.27
  19  -3 -13    3.41    1.73
   4  -4  -4    4.30    0.91
   5  -3  -6    0.80    0.98
   7  -1  -8   88.38    1.63
   8   0  -8   46.85    1.21
   9  -3  -9    5.65    1.36
  10  -2 -10    0.27    1.30
  11  -3 -10   12.03    1.33
  12  -6  -6    0.81    1.58
  12  -2 -11    7.65    1.66
  13  -3 -11    0.12    1.34
  14  -6  -7    2.31    1.55
  16  -4 -11    1.91    1.56
  17  -5 -10   -0.23    1.78
  18   0 -12   32.09    1.63
  19  -1 -13    3.73    1.41
  20  -2 -13    2.96    1.49
  21  -1 -13    2.81    1.57
  22  -2 -13    1.65    1.41
  23  -1 -13    0.24    1.51
   8  -4  -7    0.06    1.28
   9  -5  -6    0.24    1.26
   9  -1  -9   15.69    1.17
  10   0  -9   89.40    1.68
  11  -1 -10   23.19    1.33
  12   0 -10    0.06    0.91
  16  -6  -7    4.67    1.79
  16  -2 -12    2.20    1.39
  20   0 -12    1.67    1.29
   5  -1  -6    0.97    0.74
   9   1  -7   68.76    1.26
  10  -4  -8   33.33    1.60
  11  -5  -7    3.01    1.38
  13  -5  -8    9.08    1.54
  13   1  -9    1.02    0.85
  14  -6  -6    0.96    1.44
  14  -2 -11    2.29    1.26
  16   0 -11    7.26    1.29
  17  -1 -12    1.66    1.31
  19  -3 -12    0.16    1.62
  19  -1 -12    1.09    1.56
  21  -3 -12   -0.38    1.89
   4  -2  -5   40.99    1.19
   6  -4  -5   31.40    1.48
   8  -2  -8   23.87    1.32
  12  -2 -10    0.18    1.42
  13  -3 -10    6.13    1.43
  15  -1 -11    0.25    1.29
  16  -6  -6    3.29    1.75
  16  -4 -10   -0.88    1.80
  17  -3 -11   -0.15    1.63
  21  -1 -12    4.17    1.54
  22  -2 -12    2.60    1.75
  23  -1 -12    0.48    1.34
   4  -4  -3    0.14    0.85
   9  -5  -5   16.54    1.40
   9  -3  -8    1.25    0.81
  10  -2  -9   67.92    1.95
  11  -3  -9    4.66    1.38
  13  -5  -7   19.46    1.88
  17  -5  -8    2.23    1.78
  18   0 -11    6.22    1.28
  19  -3 -11    3.58    1.94
  20  -4 -10   -0.21    2.00
  20   0 -11    0.49    1.28
  22   0 -11   -0.26    1.42
   7  -1  -7   16.29    1.02
   8  -4  -6    3.84    1.25
  10  -4  -7   20.38    1.55
  11  -5  -6    1.05    1.23
  15  -3 -10    5.50    1.76
  16  -6  -5   -0.79    1.70
  17  -1 -11   -0.68    1.43
  18  -2 -11    8.08    1.43
  19  -1 -11    6.50    1.58
  22  -2 -11   -0.67    1.47
  23  -1 -11   -0.18    1.49
   3  -3  -3   40.38    1.17
   6  -2  -6   28.27    1.21
   7  -5  -3   -0.11    1.25
   9  -1  -8    1.16    0.96
  10   0  -8  121.63    1.82
  11  -1  -9   15.78    1.01
  14  -2 -10    4.66    1.19
  15  -5  -7    0.97    1.73
  16   0 -10    0.80    1.25
  17  -3 -10    4.56    1.70
  20  -4  -9    0.83    1.94
  21  -1 -11    9.67    1.45
   6  -4  -4   43.02    1.52
   9  -5  -4    0.30    1.12
  11  -5  -5   -0.08    1.21
  11  -3  -8    8.58    1.60
  12  -2  -9    9.90    1.49
  13  -5  -6    0.55    1.58
  13   1  -8   47.42    1.29
  14  -6  -4   -0.14    1.24
  15  -1 -10   13.97    1.61
  16  -2 -10    0.03    1.24
  17  -5  -7    1.02    1.80
  18   0 -10    9.43    1.28
  19  -5  -7    0.12    1.83
  20   0 -10    2.29    1.25
  21  -3 -10    3.33    1.81
  22   0 -10    0.11    1.41
  25  -1 -10    0.04    1.56
   8  -4  -5    1.82    1.18
  10  -4  -6    0.19    1.30
  10  -2  -8   73.79    1.73
  11   1  -7   21.12    1.06
  15  -5  -6    0.26    1.73
  16  -6  -4   -0.54    1.45
  16  -4  -8    0.14    1.77
  18  -2 -10    6.81    1.59
  21  -1 -10    7.10    1.65
  22  -2 -10    0.02    1.81
  23  -1 -10    0.40    1.48
   2  -4   0    1.47    0.75
   4  -4  -2   10.23    0.92
   4  -2  -4   23.30    0.98
   5  -3  -4  205.61    2.35
  14  -6  -3    0.37    1.42
  14  -2  -9    7.68    1.28
  17  -5  -6    3.47    1.72
  18  -4  -8    0.04    1.65
  19  -5  -6    4.41    1.95
  19  -3  -9    0.30    2.05
  19  -1 -10   -0.75    1.34
  25  -1  -9    1.06    1.49
   7  -5  -2    4.13    1.20
   7  -1  -6   48.96    1.26
   9  -1  -7   64.83    1.51
  11  -5  -4    0.90    1.35
  12   0  -8   49.35    1.46
  15  -1  -9   12.30    1.57
  15   1  -8    1.97    0.97
  16  -2  -9    0.49    1.26
  16   0  -9    2.55    1.29
  18   0  -9    0.72    1.24
  20   0  -9    2.85    1.38
  22  -2  -9    0.22    1.65
  22   0  -9    1.03    1.38
  23  -1  -9    3.06    1.65
  24  -2  -9    3.44    1.69
   6  -4  -3    3.13    1.05
   6  -2  -5  105.20    1.73
  10   0  -7   75.22    1.54
  12  -4  -6    1.24    1.35
  12  -2  -8   29.01    1.30
  14  -6  -2   13.21    1.72
  15  -5  -5    0.97    1.52
  15  -3  -8    1.82    1.56
  16  -4  -7   18.57    1.84
  18  -4  -7   -0.06    1.88
  18  -2  -9    0.09    1.57
  19  -5  -5    5.78    1.75
  20  -4  -7    3.76    1.89
  21  -1  -9    4.74    1.58
   3  -3  -2   21.05    0.99
   8  -4  -4   19.10    1.47
   8  -2  -6   10.89    1.18
  10  -2  -7   57.71    1.49
  13  -5  -4    1.35    1.58
  13   1  -7  106.21    1.75
  14  -2  -8    6.74    1.22
  14   0  -8    7.30    1.16
  16  -6  -2    0.97    1.63
  17  -3  -8    5.20    1.73
  19  -3  -8    2.31    1.96
  19  -1  -9    1.73    1.26
  24  -2  -8   -1.65    1.91
  25  -1  -8    0.04    1.78
   4  -4  -1   11.57    0.97
   7  -5  -1    3.50    1.20
  11  -5  -3   18.64    1.67
  13  -3  -7   58.17    1.89
  15  -5  -4    0.43    1.78
  16  -4  -6   11.47    1.92
  17  -5  -4    1.01    1.90
  18  -4  -6    0.58    1.66
  19  -5  -4   -0.60    1.57
  20  -4  -6    0.88    1.87
  22  -2  -8    0.69    1.99
  22   0  -8    0.60    1.36
  23  -1  -8    0.39    1.68
   5  -3  -3   99.84    1.75
  11  -3  -6    8.53    1.59
  11  -1  -7   23.19    1.37
  12  -4  -5    1.59    1.41
  15  -3  -7    0.43    1.61
  15   1  -7    1.89    0.98
  16  -6  -1    0.10    1.68
  16   0  -8    0.79    1.13
  18  -2  -8    1.14    1.60
  18   0  -8    1.90    1.26
  19  -3  -7    1.77    1.98
  20   0  -8    0.89    1.31
  21  -1  -8   -0.63    1.72
  24  -2  -7   -2.67    1.94
  25  -1  -7   -0.45    1.88
   3  -3   0  170.20    2.09
   5  -5   6   -0.44    1.30
   8  -6   9    3.20    1.49
  10  -6   6    0.55    1.51
  14  -6   2   -0.59    1.78
  18  -4  -8    0.75    1.48
  20  -4  -8    0.33    1.40
  22  -4  -8   -0.38    1.74
  -1  -3   8    7.18    0.85
   2  -4   6   17.77    1.23
   4  -2  -3    0.47    0.80
   6  -4   0    3.58    1.35
   6  -2  -5  106.35    1.71
   7  -5   3    3.00    1.31
   7  -3  -4    0.48    1.08
   8  -6  10   -1.58    1.49
   9  -5   1    0.95    1.48
  11  -3  -7   10.88    1.45
  12  -6   4    3.28    1.74
  13  -5  -2    0.51    1.69
  13  -3  -8   23.08    1.78
  14  -6   3   -1.52    1.81
  14  -4  -6    0.02    1.46
  14  -2 -10    3.01    1.09
  15  -5  -3    1.18    1.88
  16  -4  -7   18.55    1.79
  19  -5  -4   -0.47    1.52
   1  -3   4    1.22    0.83
   4  -4   3    1.85    1.08
   5  -5   7    4.68    1.22
   7  -5   4    2.96    1.43
  10  -6   8    7.89    1.72
  11  -5   0   -0.27    1.57
  12  -6   5    1.33    1.48
  12  -6   6   -0.05    1.85
  12  -2  -9   11.29    1.21
  17  -3  -9    1.01    1.17
  18  -4  -7    0.32    1.73
  20  -4  -7    2.97    1.66
   2  -4   7    0.24    1.01
   3  -3   1  351.78    2.94
   5  -5   8    0.68    1.16
   6  -4   1  110.87    2.41
   9  -5   2   41.09    2.04
  10  -6   9    5.60    1.57
  12  -4  -4    9.87    1.46
  13  -5  -1    0.22    1.56
  14  -6   5    1.96    1.87
  15  -5  -2    0.84    1.79
  15  -3  -8    1.65    1.36
  16  -4  -6   13.16    1.77
  22  -4  -7   -0.28    1.51
  -1  -3   9    9.42    0.71
   2  -4   8    8.66    1.18
   4  -4   4   19.32    1.26
   5  -5   9    1.66    1.18
   5  -3  -1    2.56    1.10
   7  -3  -3    1.05    1.04
   9  -1  -8    1.75    0.73
  11  -5   1    2.40    1.50
  12  -6   8    0.46    1.68
  16  -2 -10    0.68    1.31
  17  -5  -2    0.82    1.77
  18  -4  -6   -0.18    1.69
   1  -3   5  231.67    2.25
   6  -4   2   90.35    2.15
   9  -5   4    0.61    1.43
  10  -4  -2    4.52    1.22
  11  -5   2    0.17    1.51
  11  -1  -9   16.15    0.84
  12  -6   9    0.70    1.69
  12  -6  10    2.05    1.44
  14  -2  -9    6.96    1.16
  20  -4  -6    1.90    1.43
  22  -4  -6    0.72    1.54
   2  -4   9    5.19    1.03
   4  -2  -2   39.50    1.09
   5  -5  11    1.01    1.16
   6  -2  -4  147.68    1.79
   7  -5   7   10.74    1.55
   8  -4   0    3.16    1.42
  12  -6  11    0.00    1.43
  12  -2  -8   30.05    1.39
  15  -3  -7   -0.55    1.15
  21  -3  -8    0.39    1.50
   7  -5   8   32.43    1.82
   9  -5   5   -0.20    1.37
  10  -4  -1    3.08    1.25
  11  -5   3    2.47    1.43
  13  -5   2   -0.38    1.62
  17  -5   0    6.01    1.76
   1  -3   6   80.02    1.46
   4  -4   6   52.69    1.69
   9  -5   6    5.80    1.59
  12  -4  -2    1.16    1.35
  16  -2  -9    1.21    1.22
  17  -5   1    0.48    1.77
  17  -3  -7    1.75    1.31
  20  -4  -4   -0.81    1.43
   4  -4   7   57.45    1.78
   6  -4   4    0.06    1.06
   7  -5  10    0.95    1.21
   9  -3  -3   17.70    1.33
  10  -4   0   15.93    1.42
  10  -2  -6    3.15    1.04
  13  -5   3    0.13    1.43
  14  -2  -8    6.23    1.13
  15  -5   2    1.59    1.50
  17  -5   2   -0.34    1.55
  19  -3  -7    2.56    1.48
  21  -3  -7    0.01    1.40
   4  -2  -1   50.94    1.12
   5  -3   1   -0.35    1.00
   7  -5  12    1.32    1.25
   8  -4   2   20.42    1.65
   9  -1  -7   68.49    1.27
  11  -3  -4    0.96    1.20
  12  -4  -1    0.58    1.30
  12  -2  -7   20.09    1.13
  13  -3  -5   -0.16    1.32
  13  -1  -9    1.49    0.74
  14  -4  -2   50.97    2.18
  15  -5   3    6.42    1.75
   1  -3   7   61.35    1.28
   4  -4   8   17.14    1.33
   6  -4   5    7.67    1.36
   9  -5   9    3.59    1.40
  10  -4   1    1.45    1.11
  11  -1  -8   18.22    0.88
  15  -5   4    7.14    1.78
  16  -2  -8    0.22    1.21
  17  -5   3    1.73    1.47
  19  -3  -6   11.77    1.64
   3  -3   4   10.98    1.04
   9  -5  11    1.44    1.21
   9  -3  -2    2.01    1.11
  11  -5   8    0.72    1.55
  12  -4   0   -0.38    1.28
  15  -5   5    6.07    1.71
  15  -3  -5    2.05    1.20
  17  -5   4    1.62    1.44
  18  -2  -8    0.41    1.31
  20  -4  -2   -0.07    1.61
   1  -3   8   14.13    0.87
   5  -3   2   22.50    1.21
   7  -3   0   16.50    1.21
   9  -5  12    2.30    1.28
   9  -5  13   -0.47    1.32
  10  -2  -5    2.52    1.04
  11  -3  -3   52.63    1.80
  12  -4   1    2.03    1.23
  12  -2  -6    2.46    1.00
  14  -4   0    1.26    1.37
  15  -5   6    0.30    1.57
  17  -5   5   -0.18    1.48
  17  -3  -5    0.91    1.29
  18  -4  -1    2.07    1.63
  19  -3  -5   13.71    1.52
  21  -3  -5   -0.57    1.52
  23  -3  -5   -0.25    1.28
   3  -3   5    3.33    0.89
   4  -4  10   -0.02    0.97
   6  -4   7   24.30    1.47
   6  -2  -2    1.73    0.78
  13  -5   8    1.01    1.44
  13  -5   9    5.07    1.59
  23  -3  -4    1.13    1.54
   1  -3   9   14.89    0.89
   4  -4  11    2.01    1.02
   4  -2   0   -0.11    0.70
  11  -5  12   -0.32    1.43
  11  -5  13    2.55    1.34
  11  -5  14    7.88    1.43
  11  -3  -2  153.05    2.67
  13  -1  -8   45.69    1.24
  15  -5   8   -0.97    1.34
  15  -5   9   -0.40    1.50
  18  -4   0   -0.14    1.64
  18  -2  -7   -0.25    1.22
  19  -3  -4    0.44    1.43
  20  -2  -7    6.95    1.34
  21  -3  -4    1.70    1.56
   4  -4  12    1.87    1.05
   5  -3   3  145.86    2.07
   6  -4   8   29.93    1.57
   8  -4   6    1.12    1.08
   9  -1  -6   12.96    0.85
  11  -1  -7   22.16    0.98
  13  -5  12    0.33    1.47
  13  -5  13   -0.26    1.30
  15  -5  10   -1.62    1.53
  16  -4   1    7.50    1.58
  18  -4   1    2.04    1.57
   1  -3  10   25.21    1.00
   3  -3   6   60.82    1.40
   6  -4   9    1.34    1.11
   8  -2  -3  385.20    2.93
   9  -3   0    6.87    1.19
  13  -5  14    0.00    1.26
  13  -3  -2    1.17    1.12
  17  -3  -3    1.30    1.26
  19  -3  -3   -1.41    1.47
  20  -4   2   -0.36    1.59
  21  -3  -3   -0.09    1.54
   6  -4  10    6.38    1.25
  10  -4   5    7.53    1.34
  11  -3  -1    2.26    1.19
  14  -4   3    0.96    1.49
  15  -1  -8    1.56    0.89
  16  -2  -6   30.35    1.53
  18  -2  -6   -0.22    1.06
  20  -4   3    0.71    1.37
  20  -2  -6    4.66    1.22
  23  -3  -2    1.10    1.54
   1  -3  11   -0.01    0.62
   4  -2   1    5.38    0.66
   6  -4  11    0.50    1.05
   6  -2  -1    1.09    0.79
  12  -4   5    7.10    1.33
  14  -4   4    2.97    1.29
  16  -4   3    1.70    1.31
  17  -3  -2    2.84    1.26
  19  -3  -2    0.33    1.26
  20  -4   4    0.40    1.35
  21  -3  -2    2.89    1.52
   6  -4  12    8.21    1.14
   8  -2  -2   15.50    1.00
  10  -4   7    4.00    1.22
  11  -3   0    1.10    1.19
  12  -2  -4   31.25    1.24
  13  -3  -1   -0.32    1.05
  13  -1  -7  103.96    1.68
  14  -4   5   13.35    1.60
  16  -4   4    1.16    1.48
  18  -4   4    2.65    1.56
  22  -2  -5   13.76    1.53
   3  -3   8   58.69    1.33
   5  -3   5    1.21    0.87
   7  -3   3   15.24    1.10
   8  -4  10    0.73    1.11
  10  -4   8   26.85    1.55
  11  -1  -6   18.26    0.95
  18  -4   5    6.50    1.68
  19  -3  -1    0.64    1.44
   8  -4  11    6.71    1.16
   9  -3   2  145.43    2.29
   9  -1  -5  144.38    1.63
  10  -4   9   19.05    1.46
  13  -3   0   22.20    1.42
  14  -4   6    2.05    1.30
  15  -1  -7    1.30    0.93
  16  -4   6    0.29    1.58
  18  -4   6    3.40    1.62
  21  -3   0    0.98    1.48
  22  -2  -4    6.32    1.40
  24  -2  -3    2.69    1.35
   3  -3   9    2.01    0.75
   5  -3   6    2.35    0.86
   6  -2   0   17.99    0.92
   7  -3   4    7.28    1.02
   8  -4  12   -0.40    0.94
   8  -4  13   41.69    1.66
  15  -3   0    0.51    1.13
  16  -4   7    1.56    1.49
  17  -3   0    9.31    1.73
  17  -1  -7    0.27    0.92
  18  -4   7    0.40    1.31
  18  -2  -4    3.20    1.22
  20  -2  -4   -1.16    1.24
  21  -3   1   -0.49    1.45
   4  -2   2    0.42    0.45
   8  -2  -1   19.39    1.08
   9  -3   3   69.45    1.76
  10  -4  12    0.99    1.08
  11  -3   2   -0.47    1.20
  12  -4   9    0.47    1.15
  12  -4  10    1.90    1.32
  13  -3   1    2.24    1.05
  13  -1  -6   15.13    0.99
  15  -3   1    0.76    1.15
  18  -4   9   -0.36    1.49
  22  -2  -3    0.81    1.32
  24  -2  -2    3.18    1.44
   3  -3  10   25.60    1.04
   5  -3   7   19.92    1.05
  10  -4  13    0.85    1.23
  10  -4  14    3.01    1.20
  10  -4  15    2.55    1.26
  12  -4  11    4.85    1.41
  12  -4  12    0.79    1.14
  14  -4  10    1.16    1.50
  16  -4  11    1.31    1.23
  20  -2  -3   -0.79    1.27
   3  -3  11   28.83    1.05
   5  -3   8    2.93    0.92
   6  -2   1  326.54    2.50
   9  -3   4    1.05    1.04
  11  -3   3   11.49    1.41
  11  -1  -5    0.85    0.74
  12  -4  13    1.21    1.32
  12  -4  14    0.08    1.20
  12  -4  15   -0.50    1.27
  12  -4  16   -0.72    1.05
  12  -4  17    0.32    1.00
  13  -3   2    0.70    1.02
  14  -4  12   -1.22    1.45
  14  -4  13   -0.92    1.36
  14  -4  14    4.30    1.26
  14  -4  15    3.69    1.45
  14  -4  16    0.46    1.36
  15  -3   2    6.57    1.28
  15  -1  -6    8.63    1.02
  16  -4  12   -0.17    1.25
  16  -4  13   -0.74    1.41
  18  -2  -3    1.68    1.11
  19  -3   2    1.98    1.31
  19  -1  -6   19.92    1.38
  21  -3   3   -0.12    1.44
  22  -2  -2   -0.99    1.33
  24  -2  -1   -1.28    1.26
   3  -3  12    0.49    0.82
   4  -2   3    9.58    0.73
   8  -2   0   11.43    0.96
   9  -1  -4    0.67    0.68
  13  -3   3    0.11    1.01
  17  -3   3    2.41    1.23
  19  -3   3    0.53    1.44
  21  -3   4    2.15    1.42
  22  -2  -1    0.22    1.21
  24  -2   0   -0.13    1.47
   5  -3   9    7.96    0.89
   7  -3   7   31.28    1.25
   9  -3   5    1.04    1.06
  11  -3   4   16.53    1.48
  15  -3   3   22.01    1.50
  16  -2  -2   -0.65    1.04
  18  -2  -2    1.85    1.11
  21  -3   5    1.38    1.34
  21  -3   6    6.98    1.57
  24  -2   1    0.41    1.22
   5  -3  10   18.84    1.10
   9  -3   6   30.41    1.44
  11  -3   5   22.73    1.45
  12  -2  -1    0.19    0.93
  13  -3   4    7.98    1.23
  15  -3   4   19.61    1.58
  15  -1  -5    3.32    0.98
  17  -3   4    0.51    1.24
  17  -1  -5    3.53    1.15
  19  -1  -5   27.33    1.45
  20  -2  -1    4.56    1.31
  22  -2   0    0.79    1.38
   5  -3  11    0.47    0.94
   6  -2   2  251.25    2.20
   7  -3   8  107.19    1.95
  10  -2   0   51.09    1.40
  12   0  -7   37.79    0.90
  13  -3   5    2.07    1.13
  16  -2  -1    1.44    1.07
  17  -3   5    0.29    1.29
  18  -2  -1    5.19    1.21
  19  -3   6    0.00    1.41
  20  -2   0   22.37    1.54
  21  -1  -4    3.94    1.22
  22  -2   1    1.25    1.46
  23  -1  -3   -0.80    1.38
   4  -2   4   69.13    1.21
   8  -2   1   34.41    1.05
  11  -3   6    0.98    0.99
  13  -3   6    0.68    1.12
  14   0  -7   28.21    1.03
  15  -3   6   -0.25    1.29
  17  -3   6   14.80    1.65
  18  -2   0    0.22    1.32
  19  -3   8    0.75    1.46
  19  -1  -4   -0.35    1.05
  22  -2   2    3.31    1.59
  25  -1  -1    0.04    1.34
   5  -3  13   46.84    1.41
   7  -3  10   10.73    1.10
   9  -3   8   -0.64    1.19
   9  -1  -3   36.10    1.04
  11  -3   7    2.27    1.01
  12  -2   0    1.51    0.94
  13  -3   7    3.48    1.13
  14  -2   0   -0.17    1.16
  15  -3   7    2.94    1.40
  17  -3   7    0.01    1.22
  17  -3   8    0.08    1.30
  19  -3   9   -0.52    1.53
  19  -3  10    2.11    1.33
  20  -2   1    3.93    1.41
  21  -1  -3    0.97    1.25
  23  -1  -2   -0.38    1.31
   5  -3  14   14.76    1.09
   6  -2   3    3.61    0.77
   7  -3  11    0.22    1.00
   9  -3   9   12.36    1.25
  10  -2   1    4.63    0.90
  15  -3   8   -0.37    1.33
  15  -1  -4    6.74    1.06
  17  -3   9    2.75    1.40
  20  -2   2   -0.44    1.43
  22  -2   3    0.85    1.34
  25  -1   0   -0.50    1.36
   7  -3  12    1.72    1.02
   7  -3  13   -0.51    1.13
   9  -3  10    5.38    1.18
  12  -2   1    5.57    1.03
  13  -3   9   19.12    1.62
  15  -3   9    1.15    1.30
  15  -3  10    0.21    1.20
  19  -1  -3   -0.61    1.03
  21  -1  -2    4.02    1.33
  22  -2   4   -0.05    1.24
  23  -1  -1    0.45    1.29
  25  -1   1    0.06    1.45
   7  -3  14    0.94    0.98
   7  -3  15   29.19    1.42
   7  -3  16    0.06    1.07
   9  -3  12    3.77    1.06
  11  -3  10   16.32    1.35
  11  -3  11    9.78    1.25
  11  -1  -3  101.00    1.62
  12   0  -6    1.62    0.63
  13  -3  11    4.29    1.24
  15  -3  13   -0.34    1.43
  15  -3  17    0.27    1.46
  17  -3  14    0.50    1.31
  17  -1  -3    3.48    1.16
  23  -1   0    4.24    1.50
   2  -2   8   38.07    0.97
   6  -2   4    1.86    0.73
   8  -2   3   10.50    1.02
   9  -3  14   -0.31    1.12
   9  -3  15    0.21    0.93
   9  -3  16    1.06    1.12
   9  -3  17    0.06    1.18
  11  -3  12   -0.28    1.15
  11  -3  13    5.19    1.30
  11  -3  18   -0.37    1.25
  12  -2   2    5.37    1.09
  13  -3  12    0.98    1.21
  13  -3  13   -0.17    1.32
  13  -3  14    0.04    1.14
  13  -3  16    9.35    1.54
  13  -3  17    0.30    1.11
  13  -3  18    0.39    1.23
  13  -3  19   -0.09    1.30
  13  -1  -3    5.72    0.91
  14   0  -6    0.70    0.79
  15  -3  14    5.07    1.36
  15  -3  15    0.60    1.37
  15  -3  16   -0.65    1.30
  15  -1  -3    9.32    1.06
  16   0  -6   46.45    1.41
  18  -2   3   -0.14    1.36
  19  -1  -2    0.12    1.11
  20  -2   5    4.53    1.62
   4  -2   6  139.93    1.70
  11  -3  15    0.73    1.26
  11  -3  17   -0.60    1.25
  16  -2   3    1.35    1.15
  17  -1  -2    4.15    1.14
  23  -1   1   11.59    1.40
   6  -2   5   30.39    1.12
   8  -2   4   94.19    1.73
  10  -2   3    3.51    0.72
  11  -1  -2  323.82    2.76
  12  -2   3  158.93    2.56
  14  -2   3    0.16    1.11
  15  -1  -2    4.13    1.10
  16  -2   4    2.22    1.17
  18  -2   5   18.34    1.62
  20  -2   7    4.40    1.55
  21  -1   0    0.25    1.20
   2   4 -24    1.40    1.16
   2   4 -23   -0.03    1.08
   2   4 -22    3.43    1.00
   4   2  -6    5.00    0.75
   4   4 -24    1.49    1.22
   4   4 -23   -0.28    1.22
   4   4 -22    2.99    1.19
   5   3 -11    7.85    1.02
   6   4 -24    1.15    1.03
   7   3 -12   -0.54    1.07
   9   3 -13   11.82    1.03
  11   3 -15    1.77    0.99
  12   2 -10   -0.14    0.84
  13   1  -7  102.97    1.32
  14   2 -12    1.05    0.85
  15   1  -9   14.10    0.85
  15   3 -22   -0.46    1.15
  15   3 -21    1.44    0.97
  18   2 -18    0.67    1.02
  -3   3 -12    1.41    0.78
   3   3 -11    2.36    0.85
  11   3 -16    1.07    1.06
  16   2 -15    4.41    0.95
  18   2 -19    5.18    0.93
  -3   3 -13    6.33    0.87
   0   2  -6   -0.15    0.66
   5   3 -12   17.05    1.13
   6   2  -7    0.45    0.78
  11   1  -6   18.03    0.73
  11   3 -17    1.63    1.10
  12   2 -11    6.99    1.00
  13   3 -21    1.17    1.08
  14   2 -13    3.12    0.86
  16   2 -16    0.29    0.95
  18   2 -20    1.03    0.94
   1   3 -12    0.73    0.92
   3   3 -12   10.73    1.04
   5   3 -13    3.65    1.10
   7   3 -14    4.18    0.91
   9   1  -5  144.74    1.36
  11   3 -18   14.48    1.32
  13   1  -8   45.76    1.10
  13   3 -23    2.89    1.21
  15   1 -10   12.56    0.90
  16   2 -17   -0.51    1.04
  18   2 -22   -0.50    1.05
  -3   3 -14    1.25    0.83
  -1   3 -13   27.08    1.14
   1   3 -13   14.87    1.11
   3   3 -13   21.65    1.23
   4   2  -7   29.80    0.96
   7   3 -15    4.53    0.99
   9   3 -17    2.56    1.04
  11   3 -20    0.54    1.17
  11   3 -19    8.87    1.09
  12   2 -12    6.27    1.04
  14   2 -14    5.83    0.89
  16   2 -18    1.20    1.03
  -3   3 -15   -0.37    0.83
  -1   3 -14   11.91    1.02
   5   3 -14    5.59    0.80
   6   2  -8   45.59    1.18
   8   2  -9   16.10    0.89
   9   3 -18    1.82    1.14
  11   3 -24    1.05    1.29
  11   3 -23   -0.03    1.18
  11   3 -22   -1.93    1.19
  14   2 -15    2.17    0.92
  16   2 -20   -1.08    1.11
  16   2 -19    1.76    1.04
  -6   2  -9    2.28    0.58
  -3   3 -16   15.76    1.08
  -1   3 -15    1.41    0.98
   1   3 -14    2.67    0.91
   5   3 -15    0.82    0.84
   9   3 -21   10.29    1.25
   9   3 -20   -0.17    1.16
   9   3 -19    9.86    1.17
  11   1  -7   22.96    0.86
  14   2 -16    1.69    0.99
  16   2 -22    3.78    1.02
  16   2 -21    1.80    1.10
  17   1 -14    0.47    0.73
  -3   3 -18    1.24    0.93
  -3   3 -17   22.35    1.10
  -1   3 -16    1.70    0.94
   1   3 -15    0.66    0.98
   5   3 -17    1.58    0.97
   5   3 -16    1.14    0.89
   7   3 -19   -0.31    1.10
   7   3 -18    2.23    1.07
   9   1  -6   15.32    0.73
   9   3 -25    1.66    1.11
   9   3 -24    1.32    1.23
   9   3 -23   -0.71    1.17
   9   3 -22    1.02    1.06
  12   2 -14   13.40    1.04
  14   2 -17    9.66    1.18
  16   2 -23    3.29    0.99
  17   1 -15    4.85    0.76
  -3   3 -20    1.65    0.89
  -3   3 -19    0.30    0.81
  -1   3 -25   -0.90    1.04
  -1   3 -18   -0.20    0.96
  -1   3 -17   -0.14    0.87
   1   3 -17    0.00    0.94
   1   3 -16    7.78    0.93
   5   3 -19    8.07    1.17
   5   3 -18    0.91    1.06
   6   2  -9   20.44    0.94
   7   3 -25    2.92    1.27
   7   3 -24    0.17    1.21
   7   3 -23    8.48    1.30
   7   3 -22    4.23    1.30
   7   3 -20   -0.75    1.04
  14   2 -19    1.26    0.97
  15   1 -12   46.40    1.30
  17   1 -16    2.06    0.92
  -6   2 -10   16.63    0.69
  -1   3 -24    3.87    1.01
  -1   3 -23    5.39    1.16
  -1   3 -22    1.21    1.03
  -1   3 -21   10.41    1.11
  -1   3 -19    1.90    1.03
   1   3 -26    0.85    1.09
   1   3 -25    4.03    1.15
   1   3 -24   -0.27    0.93
   1   3 -23    4.02    1.18
   1   3 -20    0.14    1.07
   1   3 -19    1.95    1.04
   1   3 -18   43.53    1.52
   2   2  -8   86.61    1.33
   3   3 -26    2.39    1.17
   3   3 -25   -0.97    1.18
   3   3 -24    0.00    1.06
   3   3 -19    0.74    1.06
   3   3 -18   -1.23    0.95
   5   3 -25    2.82    1.15
   5   3 -20   12.50    1.28
   8   2 -11    2.67    0.88
  11   1  -8   18.00    0.80
  12   2 -16    1.50    0.91
  13   1 -10   13.02    0.89
  14   2 -22   -0.30    1.27
  14   2 -21    0.56    1.14
  14   2 -20    0.65    1.13
  17   1 -17   20.81    1.24
   1   3 -22   -0.65    1.02
   1   3 -21    0.05    0.98
   3   3 -23    4.71    1.07
   3   3 -22    3.01    1.06
   4   2  -9   15.61    0.97
   6   2 -10   -0.42    0.83
  14   2 -24   -1.04    1.02
  17   1 -18    2.53    0.99
   9   1  -7   69.27    1.15
  10   2 -14   11.24    1.09
  13   1 -11    1.26    0.76
  15   1 -14    2.87    0.93
  17   1 -19    0.41    0.96
  -6   2 -11    0.14    0.50
  -4   2 -10    2.01    0.68
   4   2 -10  250.70    2.24
   6   2 -11   18.18    1.02
   8   2 -13    2.72    0.96
  10   2 -15   12.76    1.04
  11   1  -9   15.56    0.84
  12   2 -25    1.17    1.22
  12   2 -24    0.53    1.08
  12   2 -23    0.36    1.04
  12   2 -21    1.86    1.24
  15   1 -15    0.07    0.83
  17   1 -24    0.95    1.17
  17   1 -23   -0.40    0.92
  17   1 -22    1.93    1.04
  17   1 -21    1.65    0.93
  17   1 -20   -0.62    0.92
   6   2 -12    6.18    0.90
   8   2 -14    1.57    0.96
  10   2 -17    0.29    0.97
  12   0  -6    0.95    0.50
  13   1 -12   11.85    1.01
  15   1 -16    2.03    0.90
  -2   2 -10    8.52    0.80
   0   2 -10    1.75    0.87
   2   2 -10   19.83    0.96
   4   2 -11   23.17    1.00
   8   2 -15    4.00    1.00
   9   1  -8    0.90    0.75
  10   2 -26    1.14    1.20
  10   2 -25    6.11    1.29
  10   2 -24    1.06    1.21
  10   2 -20    0.33    0.99
  10   2 -19    0.51    1.05
  10   2 -18    1.39    1.02
  11   1 -10   22.90    0.94
  15   1 -17    0.89    0.93
  -4   2 -11    3.91    0.62
   2   2 -11    3.92    0.75
   4   2 -12   32.11    1.10
   6   2 -13    6.59    0.96
   8   2 -16    0.21    0.89
  10   2 -22    0.76    1.08
  10   2 -21    2.44    1.03
  13   1 -13    0.64    0.80
  15   1 -19    3.90    1.10
  15   1 -18    3.42    0.99
  -4   2 -12    3.10    0.67
  -2   2 -11   55.10    1.12
   0   2 -11   50.85    1.17
   6   2 -14   21.58    1.19
   8   2 -26    1.31    1.05
   8   2 -25    0.41    1.13
   8   2 -24    2.37    1.08
   8   2 -19   14.30    1.19
   8   2 -17   -0.90    1.00
  13   1 -14    0.63    0.94
  14   0  -9   12.63    0.67
  15   1 -25    0.64    1.00
  15   1 -24    0.96    1.12
  15   1 -23    1.14    1.08
  15   1 -22    0.18    1.07
  15   1 -21    0.69    1.14
  -4   2 -13    2.13    0.72
  -2   2 -12  153.27    1.75
   0   2 -27    0.29    0.95
   2   2 -27    1.36    1.04
   2   2 -12    9.99    0.86
   4   2 -27   -0.10    1.15
   4   2 -13    0.71    0.87
   6   2 -26    1.77    1.13
   6   2 -25    1.65    1.04
   6   2 -16    5.73    0.98
   6   2 -15  120.89    2.07
   8   2 -23    0.53    1.12
   8   2 -22    1.74    1.03
   8   2 -21   -0.94    1.00
   9   1  -9   15.16    0.89
  12   0  -7   36.05    0.79
  -4   2 -14   30.59    1.13
  -2   2 -25    2.14    0.96
   0   2 -12   57.08    1.20
   2   2 -26   -0.41    1.13
   2   2 -13   52.44    1.28
   4   2 -26    4.84    1.05
   4   2 -25    2.33    1.25
   4   2 -15    5.88    0.94
   4   2 -14    0.91    0.83
   6   2 -24    0.28    1.06
   6   2 -23   -0.38    1.21
   6   2 -22    9.38    1.20
   6   2 -21    2.64    1.07
   6   2 -20   12.05    1.21
   6   2 -19    1.47    0.93
   6   2 -18    1.35    0.97
   6   2 -17   -0.03    0.85
  11   1 -12   10.27    0.90
  13   1 -17    0.47    0.89
  13   1 -16    0.57    0.78
  14   0 -10    4.69    0.62
  -4   2 -20    2.09    0.86
  -4   2 -15    9.04    0.81
  -2   2 -24    5.35    1.13
  -2   2 -23    0.05    1.00
  -2   2 -14    3.23    0.77
   0   2 -25    1.06    0.95
   0   2 -24    2.34    1.08
   0   2 -13    7.84    0.82
   4   2 -24    8.13    1.14
   4   2 -17   44.33    1.37
   4   2 -16    4.40    1.12
  11   1 -13   11.50    1.02
  13   1 -24    2.04    1.24
  13   1 -22    6.70    1.10
  13   1 -21   -0.07    0.99
  13   1 -19   -0.04    1.04
  13   1 -18    0.36    0.95
  16   0 -15    4.72    0.94
  -4   2 -19    0.54    0.80
  -4   2 -18   -0.06    0.82
  -4   2 -17    1.16    0.88
  -2   2 -22    2.76    1.06
  -2   2 -21   -0.48    0.83
  -2   2 -20    0.34    0.89
  -2   2 -16    3.47    0.79
  -2   2 -15    4.12    0.86
   0   2 -23    7.00    1.22
   0   2 -22    2.95    1.05
   0   2 -21    5.22    1.06
   0   2 -15    6.31    0.93
   0   2 -14    0.38    0.69
   2   2 -23    0.54    0.96
   2   2 -21    4.23    0.99
   2   2 -20   23.51    1.37
   4   2 -20    1.60    1.06
   4   2 -19    4.88    1.04
   4   2 -18    5.21    0.99
  11   1 -14    1.78    0.94
  12   0  -8   50.55    0.95
  14   0 -11    6.37    0.71
  16   0 -16    0.69    0.78
  -2   2 -19   13.68    1.00
  -2   2 -18   19.68    1.09
  -2   2 -17   38.43    1.30
   0   2 -20    1.01    0.88
   0   2 -19    1.04    0.93
   0   2 -18    0.82    0.75
   0   2 -17    5.84    1.06
   2   2 -19    0.47    0.88
   2   2 -18    0.88    0.83
   5   1  -7   18.96    0.72
  11   1 -26    2.36    1.19
  11   1 -15    0.17    0.95
  16   0 -25    1.38    1.05
  16   0 -18    2.35    0.82
  16   0 -17    0.46    0.76
   7   1  -9  119.23    1.35
   9   1 -27   -0.23    1.05
  11   1 -24    3.09    1.03
  11   1 -23    0.65    1.15
  11   1 -22    0.84    1.07
  11   1 -21    2.03    1.00
  11   1 -17    1.64    1.00
  11   1 -16    0.71    0.80
  14   0 -12   -0.59    0.69
  16   0 -22    5.22    1.07
  16   0 -21    2.27    1.03
  16   0 -20   -0.55    0.91
   5   1  -8    6.71    0.67
   7   1 -10  159.61    1.69
   9   1 -26    2.02    1.15
   9   1 -25   -1.12    1.02
  12   0  -9   20.99    0.73
  14   0 -13    2.61    0.78
   7   1 -27    1.83    1.16
   9   1 -24   -0.31    1.16
   9   1 -23   -0.19    0.99
   9   1 -14  111.62    1.72
  14   0 -25    4.23    1.10
  14   0 -14    5.79    0.85
  -1   1 -28   -0.28    1.08
   1   1 -28    1.36    0.92
   3   1 -28    0.66    1.15
   7   1 -26    2.40    1.05
   7   1 -25    4.76    1.02
   7   1 -11   62.14    1.21
   9   1 -22    0.96    0.96
   9   1 -21   16.30    1.23
   9   1 -20    0.43    0.89
   9   1 -19   18.84    1.09
   9   1 -18   -0.15    0.85
   9   1 -17    4.00    0.83
   9   1 -15    4.95    0.91
  10   0  -7   77.73    1.04
  14   0 -24    0.80    0.95
  14   0 -23    2.41    0.97
  14   0 -16    1.67    0.81
  14   0 -15    2.93    0.79
  -1   1 -27   -0.47    1.03
   1   1 -27    5.37    1.02
   3   1 -27    1.41    1.07
   5   1 -26    0.04    1.07
   7   1 -24    3.79    1.14
   7   1 -23   12.30    1.16
   7   1 -12    0.88    0.71
  14   0 -21    1.66    0.99
  14   0 -20    1.24    0.95
  14   0 -18   21.54    1.14
  17  -1 -24   -0.06    0.96
  -1   1 -26    0.60    0.98
   1   1 -26    2.22    1.06
   3   1 -26    3.94    1.21
   3   1  -8    6.26    0.62
   5   1 -25    2.65    0.99
   5   1 -24    0.75    0.96
   5   1 -10    9.92    0.78
   7   1 -22    8.82    1.16
   7   1 -21   -0.70    0.96
   7   1 -14    6.94    0.80
   7   1 -13    1.14    0.77
  12   0 -11    6.99    0.73
  -3   1 -25    2.74    0.93
   1   1 -25    6.56    1.15
   3   1 -25   -2.13    1.00
   5   1 -23    5.55    1.12
   5   1 -11   16.00    0.81
   7   1 -20    0.77    0.94
   7   1 -19    1.39    0.85
   7   1 -18    2.64    0.89
   7   1 -17   23.70    1.10
   7   1 -16   27.80    1.24
   7   1 -15    6.05    0.95
  10   0  -8  119.71    1.25
  12   0 -24    2.41    1.09
  12   0 -12    8.34    0.79
  -3   1 -24    1.41    0.96
  -1   1 -24    6.31    1.07
   1   1 -24   -0.02    1.12
   3   1  -9   24.94    0.81
   5   1 -22   -0.13    0.91
   5   1 -21    5.28    1.02
   5   1 -12   31.80    0.99
  10   0 -27    0.02    0.98
  10   0 -26    1.34    0.96
  12   0 -23   -0.85    1.06
  12   0 -22   -0.91    1.02
  12   0 -14   17.90    1.01
  12   0 -13   79.22    1.44
  15  -1 -25    0.67    1.02
  -3   1 -23    1.62    0.94
  -1   1 -23   12.13    1.13
   1   1 -23    7.09    1.11
   1   1  -8   21.22    0.66
   3   1 -10   47.00    0.99
   5   1 -20   19.52    1.15
   5   1 -19   13.36    1.06
   5   1 -14   15.28    0.97
  10   0 -25    8.01    1.18
  10   0  -9   94.42    1.22
  12   0 -20   21.52    1.28
  12   0 -19    8.15    0.99
  12   0 -18    2.63    0.87
  12   0 -17    1.47    0.80
  12   0 -16    1.22    0.83
  12   0 -15   10.30    0.96
  15  -1 -24    0.39    0.97
  -5   1 -20    5.20    0.85
  -3   1 -22   12.37    1.05
  -3   1 -21    1.47    0.90
  -1   1 -22    1.98    0.97
   1   1 -22    2.17    0.99
   3   1 -20    4.14    0.98
   3   1 -11    7.48    0.76
   5   1 -17    1.56    1.01
   5   1 -16    0.64    0.79
   5   1 -15    2.25    0.83
   8   0 -27    1.82    1.07
  10   0 -24    1.15    1.07
  15  -1 -23    1.53    0.91
  15  -1 -22    0.68    0.95
  -3   1 -20    0.78    0.74
  -1   1 -21   12.63    1.06
   1   1 -20    0.70    0.90
   3   1 -19    3.51    0.88
   3   1 -18    1.28    0.76
   3   1 -17    0.57    0.98
   6   0 -27    2.60    1.05
   8   0 -26   -0.24    0.97
   8   0 -25    1.09    1.13
  10   0 -23   10.18    1.14
  10   0 -22    1.96    0.97
  10   0 -10    0.52    0.62
  13  -1 -26    0.34    1.14
  15  -1 -21    1.27    0.94
  15  -1 -20    9.45    1.08
  15  -1 -19    3.41    0.94
  15  -1 -18    3.42    0.89
  15  -1 -17    1.37    0.81
  15  -1 -16    0.20    0.81
  15  -1 -15    0.33    0.73
  -7   1 -11    0.27    0.50
  -5   1 -18   11.50    0.96
  -3   1 -19   -0.42    0.84
  -1   1 -19    6.81    0.89
   0   0 -28    1.30    1.17
   1   1 -19    4.28    0.90
   1   1 -18   86.24    1.74
   1   1 -10   69.57    1.14
   2   0 -28    3.77    1.11
   3   1 -16   34.22    1.21
   3   1 -15  131.94    1.83
   3   1 -14    2.23    0.80
   3   1 -13   40.04    0.98
   8   0 -24    5.45    1.10
   8   0  -7    9.66    0.62
  10   0 -21    4.78    1.03
  10   0 -11   29.79    0.93
  13  -1 -25    0.97    1.06
  -5   1 -17    3.77    0.78
  -5   1 -16    8.05    0.80
  -3   1 -18    1.30    0.98
  -3   1 -17   41.46    1.30
  -3   1  -9    1.62    0.58
  -1   1 -18    1.28    0.95
  -1   1 -17    1.50    0.90
   1   1 -13   36.50    1.07
   1   1 -12    3.30    0.78
   1   1 -11  264.19    2.04
   2   0 -27   -0.02    0.98
   4   0 -27    1.11    1.09
   8   0 -23    0.43    1.14
  10   0 -17   -0.41    0.87
  10   0 -13    1.05    0.73
  13  -1 -24    2.91    1.13
  13  -1 -23    3.14    1.13
  13  -1  -9    1.98    0.58
  -5   1 -15    8.89    0.79
  -5   1 -14   32.11    0.98
  -5   1 -13   84.75    1.36
  -5   1 -12  116.20    1.42
  -5   1 -11    0.00    0.51
  -5   1 -10   46.63    0.89
  -3   1 -16   30.55    1.20
  -3   1 -15    0.31    0.86
  -3   1 -10   57.16    1.03
  -2   0 -27    0.41    0.75
  -1   1 -16    2.30    0.85
  -1   1 -15    4.91    0.81
  -1   1 -11    0.47    0.69
  -1   1 -10   65.99    1.09
   0   0 -27   -0.54    1.22
   6   0 -24    0.09    1.04
   8   0 -22   -0.91    1.16
  16  -2 -23    3.16    1.00
  -3   1 -14    8.73    0.78
  -3   1 -13   14.03    0.87
  -3   1 -12    0.69    0.63
  -3   1 -11   54.48    1.09
  -2   0 -26    4.07    1.09
  -1   1 -14   20.20    0.91
  -1   1 -13   60.48    1.23
   0   0 -26    5.06    1.30
   2   0 -26   -0.23    1.20
   4   0 -25    0.86    1.34
   6   0 -23    1.60    1.09
   8   0 -21   -0.40    1.05
   8   0 -20   16.93    1.29
   9  -1 -27   -0.02    1.30
  13  -1 -21   -1.12    1.15
  13  -1 -20    0.58    1.11
  13  -1 -10   13.00    0.72
  -4   0 -25   -0.05    0.82
   0   0 -25    2.67    1.19
   2   0 -25    5.16    1.35
   8   0 -19   20.04    1.37
   8   0  -9   17.93    0.84
  11  -1 -24    2.10    1.33
  13  -1 -19    1.68    1.01
  13  -1 -18    0.29    0.92
  13  -1 -11   -0.07    0.70
   8   0 -18   21.18    1.01
  -2   4   2    5.41    0.64
  -1   5   1    0.85    0.67
   1   7  -3    0.31    0.80
   2   4   1    9.78    0.71
   3   3   1  362.88    2.02
   4   6  -2    2.39    0.84
   5   5  -1    0.90    0.65
   8   6  -4    8.16    0.84
   9   3  -2    2.88    0.61
   9   7  -7    1.22    0.82
  10   4  -3    2.12    0.58
  11   5  -5    0.19    0.77
  15   5  -9    0.71    0.78
  16   4  -9    0.32    0.74
  17   3 -10    3.39    0.62
  17   5 -12    0.19    0.76
  18   4 -12    9.71    0.84
  -1   3   2   96.75    0.96
  -1   7  -3    0.31    0.81
   3   7  -4    0.63    0.89
   4   4   0    0.75    0.57
   5   3   0    2.08    0.61
   6   4  -1    1.21    0.59
   8   4  -2    6.34    0.82
  10   6  -6    1.12    0.76
  14   4  -7    7.83    0.78
  -2   6  -1    1.07    0.68
   1   5   0   -0.34    0.69
   1   7  -4   -0.07    0.72
   2   6  -2    1.40    0.74
   6   6  -4    8.19    0.85
   8   6  -5   -0.10    0.83
   9   5  -4    0.24    0.73
  11   3  -4    0.44    0.65
  12   2  -5    3.03    0.52
  13   3  -6    6.20    0.71
  14   2  -7   23.61    0.76
  15   3  -8    0.85    0.62
  15   5 -10    1.27    0.81
  17   5 -13   -0.35    0.73
  18   4 -13   -0.27    0.64
   0   4   1    3.54    0.64
   3   5  -1   10.49    0.88
   3   7  -5    1.26    0.88
   4   6  -3    1.09    0.75
   5   5  -2    5.84    0.74
   5   7  -6   -0.53    0.89
   7   5  -3   -0.15    0.65
  10   6  -7    5.61    0.81
  11   1  -5    0.98    0.33
  12   6  -9    0.42    0.78
  14   4  -8    1.37    0.70
  17   5 -14    0.39    0.77
  -1   5   0   -0.19    0.66
  -1   7  -4    0.36    0.79
   0   6  -2   -0.11    0.74
   4   2   0    0.35    0.27
   6   2  -1    0.52    0.32
   8   4  -3  129.35    1.67
   9   5  -5   15.52    0.94
  12   6 -10   -0.14    0.70
  15   3  -9    5.17    0.67
  15   5 -11    1.47    0.70
  16   4 -11    1.28    0.74
  -2   4   1    1.87    0.58
   1   5  -1    0.51    0.63
   1   7  -5   -0.03    0.68
   2   6  -3    0.23    0.76
   3   7  -6    2.55    0.91
   4   4  -1   13.50    0.74
   4   6  -4    0.72    0.79
   5   7  -7    0.38    0.76
   6   4  -2    0.89    0.63
   6   6  -5    7.00    0.84
   7   3  -2   11.82    0.64
   7   5  -4   -0.12    0.64
  10   2  -4    0.59    0.47
  10   4  -5    0.89    0.56
  10   6  -8   10.16    0.91
  11   3  -5    0.76    0.59
  11   5  -7    1.69    0.77
  13   3  -7   59.91    1.18
  14   2  -8    7.06    0.56
  14   4  -9    3.77    0.71
  15   5 -12    8.25    0.80
  -1   7  -5   11.46    0.91
   3   3   0  166.27    1.38
   5   3  -1    2.62    0.56
   5   5  -3   23.29    0.91
   5   7  -8   -0.49    0.84
   7   7  -9    6.48    0.87
   8   6  -7    0.29    0.88
  10   6  -9    6.81    0.84
  12   2  -6    1.31    0.48
  12   4  -7    5.84    0.73
  12   6 -11    0.40    0.84
  13   5 -10    2.03    0.89
  16   4 -12    1.01    0.72
  -1   5  -1    0.02    0.73
   0   4   0  365.17    2.31
   0   6  -3    1.00    0.73
   1   7  -6    2.07    0.83
   2   6  -4   12.52    0.98
   3   7  -7   -0.30    0.86
   4   6  -5    1.55    0.87
   6   6  -6    1.48    0.84
   8   4  -4   18.47    0.96
   9   3  -4    0.52    0.49
   9   5  -6    0.43    0.71
  11   5  -8    1.92    0.80
  12   6 -12    1.28    0.88
  14   4 -10    0.70    0.75
  15   3 -10    4.58    0.65
  -1   3   1    0.44    0.50
   5   7  -9    3.28    0.87
   6   4  -3    3.69    0.68
   7   5  -5    0.04    0.72
  10   4  -6    0.05    0.62
  10   6 -10   -0.37    0.82
  12   4  -8    9.99    0.77
  13   1  -8   42.87    0.73
  13   3  -8   23.94    0.92
  13   5 -11    0.28    0.84
  14   2  -9    7.27    0.65
  15   5 -14    0.58    0.70
  16   4 -13    0.03    0.66
   0   6  -4    1.65    0.75
   1   5  -2   16.55    0.94
   1   7  -7    2.70    0.81
   3   7  -8   -0.39    0.78
   4   4  -2   10.69    0.72
   5   5  -4   59.12    1.29
   6   6  -7    0.64    0.83
   9   5  -7    5.81    0.84
  10   2  -5    2.42    0.51
  11   5  -9    2.26    0.81
  14   4 -11    0.70    0.72
  15   3 -11    0.88    0.62
  16   4 -14    1.73    0.68
  -2   4   0    0.62    0.54
   2   6  -5   33.70    1.19
   3   7  -9    0.05    0.89
   4   2  -1   51.84    0.74
   5   3  -2   32.74    0.81
   7   5  -6    4.09    0.73
   8   6  -9    2.29    0.90
  10   6 -11    1.44    0.79
  13   5 -12    2.18    0.78
  15   5 -15    0.15    0.79
  -2   6  -4    1.61    0.69
  -1   5  -2    0.39    0.68
   1   7  -8    0.80    0.71
   3   3  -1   44.92    0.84
   6   6  -8    1.04    0.91
   8   6 -10    5.16    0.95
   9   3  -5   58.08    1.04
  10   4  -7   19.18    0.85
  10   6 -12    0.69    0.86
  11   5 -10    4.15    0.82
  12   4  -9    3.43    0.68
  13   3  -9    0.40    0.66
  13   5 -13    0.18    0.86
  14   4 -12   -0.22    0.64
  15   5 -16   -0.14    0.81
  16   4 -15    1.21    0.72
  -4   4   0   -0.06    0.48
  -1   7  -8    0.25    0.78
   0   6  -5    4.84    0.81
   1   5  -3    0.27    0.72
   1   7  -9    0.07    0.75
   3   7 -10   -0.02    0.85
   5   5  -5   16.21    0.87
  16   4 -16    0.34    0.68
   4   4  -3   -0.26    0.41
   6   6  -9    0.96    0.89
   7   3  -4    0.22    0.52
   8   4  -6    4.17    0.74
   9   1  -5  145.25    1.11
   9   5  -9    1.24    0.80
  10   2  -6    2.08    0.56
  10   4  -8   33.57    0.99
  10   6 -13    0.20    0.78
  11   5 -11    0.22    0.71
  12   2  -8   29.62    0.80
  12   4 -10    0.73    0.69
  13   3 -10    5.04    0.70
  13   5 -14    0.39    0.81
  14   4 -13    1.94    0.77
  -2   6  -5    4.72    0.75
  -1   5  -3    1.50    0.76
   0   6  -6    0.93    0.76
   1   7 -10    3.28    0.96
   2   6  -7    0.67    0.83
   3   7 -11   -0.53    0.77
   5   5  -6    0.56    0.69
  10   6 -14   -0.19    0.94
  11   1  -7   22.77    0.53
  11   5 -12    1.57    0.79
  13   5 -15    5.15    0.81
  14   2 -11    3.01    0.66
  16   4 -17    0.00    0.60
  -2   4  -1    8.82    0.63
   1   5  -4    1.26    0.72
   3   7 -12    1.11    0.89
   5   3  -3   95.76    1.15
   6   2  -3   15.32    0.58
   6   4  -5   31.16    1.00
   7   5  -8   13.85    0.93
   8   6 -12    0.34    0.77
   9   5 -10    1.52    0.89
  12   4 -11    2.31    0.72
  14   4 -14    2.40    0.78
  15   3 -14    2.14    0.68
  16   4 -18    0.37    0.67
  -3   5  -3   -0.36    0.70
  -2   6  -6    4.65    0.67
   0   4  -2   -0.14    0.54
   1   3  -1   -0.14    0.45
   1   7 -11    6.38    0.89
   3   3  -2   21.67    0.70
   4   4  -4    3.30    0.66
   6   6 -11    1.45    0.78
   8   4  -7    1.54    0.73
   8   6 -13   -0.53    0.89
  10   4  -9   24.38    0.96
  12   2  -9   10.71    0.68
  13   3 -11   -0.12    0.57
  13   5 -16    0.61    0.74
  14   4 -15   -0.40    0.67
  16   4 -19    0.61    0.70
  -4   4  -1    3.15    0.52
  -1   7 -11   -0.24    0.83
   0   6  -7    8.90    0.87
   1   7 -12    0.64    0.84
   5   5  -7   -0.11    0.68
   7   3  -5    4.56    0.57
   7   5  -9   21.74    1.04
   8   6 -14    0.23    0.84
   9   5 -11    0.30    0.80
  10   2  -7   59.18    0.97
  11   3  -9    6.16    0.70
  12   4 -12    2.70    0.77
  13   5 -17    0.91    0.77
  14   2 -12    0.13    0.56
  -5   5  -3   38.55    0.98
  -4   6  -6   11.10    0.79
  -1   5  -4    0.55    0.72
   1   5  -5    0.45    0.72
   8   4  -8    6.54    0.66
  12   4 -13   24.29    1.07
  13   3 -12    5.09    0.66
  13   5 -18    0.71    0.77
  14   4 -16    0.40    0.78
  -6   4  -1  115.05    1.24
  -2   4  -2   20.54    0.75
  -2   6  -7    0.23    0.71
  -1   7 -12   -0.28    0.73
   0   6  -8    0.48    0.81
   4   4  -5    9.93    0.75
   5   3  -4  199.00    1.59
   5   5  -8    0.15    0.77
   6   6 -13    1.06    0.81
   7   5 -10   20.76    1.06
   8   6 -15   -0.17    0.84
   9   1  -6   15.34    0.56
   9   5 -12    0.07    0.76
  11   1  -8   18.23    0.52
  14   4 -17    4.22    0.79
  15   3 -16    0.43    0.65
  -4   6  -7   14.91    0.94
  -3   5  -4    2.28    0.66
  -1   3  -1    1.33    0.44
   0   4  -3    0.85    0.56
   2   4  -4   66.78    1.15
   2   6 -10    2.08    0.85
   3   3  -3   39.70    0.87
   3   5  -7    2.36    0.81
   7   3  -6   20.42    0.73
   8   6 -16    0.38    0.77
   9   5 -13    5.54    0.94
  11   3 -10   13.06    0.80
  12   2 -10    0.17    0.53
  12   4 -14    5.00    0.80
  13   3 -13   -0.32    0.65
  14   2 -13    2.15    0.63
  15   3 -17    1.23    0.66
  -2   6  -8    1.87    0.78
   0   6  -9   -0.20    0.83
   1   3  -2   93.59    1.07
   1   5  -6    9.40    0.78
   4   6 -12    1.83    0.90
   5   5  -9   14.04    0.98
   6   4  -7    0.25    0.51
   7   5 -11    7.78    0.97
   8   4  -9    7.53    0.71
  10   2  -8   76.17    1.03
  11   5 -17    1.22    0.84
  14   4 -19    0.89    0.72
  -5   5  -4    0.54    0.60
  -4   4  -2    0.04    0.47
  -4   6  -8    3.64    0.79
   2   6 -11    0.22    0.92
   4   4  -6    1.94    0.67
   4   6 -13    0.32    0.90
  11   3 -11    0.35    0.67
  11   5 -18    4.62    0.89
  12   4 -15    2.20    0.73
  13   3 -14    0.27    0.64
  14   2 -14    5.01    0.62
  14   4 -20   -0.47    0.78
  -3   5  -5   -0.07    0.70
  -2   6  -9    0.57    0.84
  -1   5  -6   30.24    1.04
   0   6 -10   -0.52    0.77
   1   5  -7   15.41    0.86
   2   6 -12    1.82    0.95
   4   6 -14   -0.09    0.95
   5   3  -5   49.64    0.96
   5   5 -10    0.97    0.80
   6   4  -8   12.40    0.87
   6   6 -16   -0.23    0.96
   7   5 -12   -0.13    0.78
   8   4 -10   19.26    0.88
   9   5 -15    1.61    0.93
  11   1  -9   15.10    0.57
  11   5 -19    2.53    0.92
  12   2 -11    6.76    0.63
  12   4 -16   -0.13    0.83
  14   4 -21   -0.31    0.79
  -6   4  -2   94.58    1.16
  -4   6  -9    4.22    0.78
  -2   4  -3   32.45    0.83
   0   6 -11    3.74    0.79
   3   5  -9    0.61    0.73
   7   3  -7    6.77    0.64
   7   5 -13    0.26    0.77
   9   5 -16    4.07    0.92
  11   3 -12    6.49    0.70
  12   4 -17    0.89    0.78
  13   3 -15   16.32    0.82
  14   2 -15    1.25    0.62
  -5   5  -5    0.74    0.65
  -3   3  -1  367.88    1.81
  -2   6 -10    1.23    0.77
   1   5  -8    2.67    0.69
   2   6 -13    5.78    1.00
   3   3  -4   26.39    0.75
   4   4  -7    9.56    0.78
   4   6 -15    1.05    0.83
   5   5 -11    2.67    0.84
   8   4 -11    2.28    0.69
   9   1  -7   69.42    0.81
   9   5 -17    0.40    0.87
  10   2  -9   66.32    1.01
  12   2 -12    5.88    0.60
  12   4 -18   -0.37    0.74
  13   3 -16    0.97    0.62
  -2   6 -11    6.85    0.93
  -1   5  -7   14.74    0.84
   2   6 -14    0.03    0.97
   3   5 -10    3.60    0.81
   4   6 -16    1.04    0.81
   5   5 -12    5.20    0.85
   6   4  -9    5.92    0.64
   7   5 -14    2.73    0.78
   8   2  -7    1.75    0.50
   9   5 -18   -0.98    0.88
  11   3 -13    4.93    0.66
  12   4 -19    1.59    0.78
  13   3 -17   -0.06    0.71
  -4   4  -3    1.59    0.52
   0   4  -5   31.46    0.86
   0   6 -13   -0.65    0.93
   2   4  -6    9.09    0.69
   4   6 -17    4.23    0.90
   7   3  -8   40.51    0.97
   7   5 -15    1.45    0.91
   8   4 -12    7.67    0.80
  10   4 -15    7.16    0.83
  11   1 -10   21.49    0.61
  -5   5  -6   -0.30    0.70
  -4   6 -11   -0.12    0.80
  -3   5  -7    3.37    0.68
  -1   5  -8    2.76    0.71
   0   6 -14   -0.71    0.84
   1   5  -9    1.30    0.71
   3   5 -11    0.89    0.81
   4   4  -8   24.44    0.96
   5   5 -13    0.23    0.88
   6   4 -10    0.08    0.63
   7   5 -16    4.90    1.00
   9   3 -11    1.39    0.69
  10   2 -10    1.55    0.49
  10   4 -16    7.04    0.92
  11   3 -14    1.00    0.62
  12   2 -13   61.93    1.13
  12   4 -22    0.43    0.88
  12   4 -21    0.71    0.88
  13   3 -18   -0.21    0.74
  -6   4  -3    2.24    0.49
  -4   6 -12    1.43    0.72
  -2   6 -13    0.46    0.89
   0   6 -15    2.22    0.96
   2   4  -7    0.48    0.65
   3   3  -5   24.38    0.79
   5   5 -14    2.12    0.88
   8   2  -8   22.78    0.71
   8   4 -13   -0.16    0.70
  10   4 -17   -0.11    0.85
  13   3 -19    0.00    0.73
  -5   5  -7    3.35    0.77
  -2   6 -14    0.98    0.80
  -1   5  -9    3.03    0.73
   0   6 -16    7.34    1.03
   1   3  -4    7.25    0.60
   1   5 -10   14.85    0.97
   3   5 -12    3.36    0.86
   5   5 -15   -0.49    0.81
   6   4 -11    5.72    0.74
   7   3  -9   65.46    1.06
   7   5 -18    0.33    0.94
   8   4 -14    0.70    0.79
   9   1  -8    2.04    0.42
  10   4 -18    0.33    0.86
  11   3 -15    0.97    0.67
  12   2 -14   11.03    0.76
  13   3 -20    0.84    0.76
  -4   4  -4   18.95    0.72
  -4   6 -13   -0.33    0.83
  -3   3  -2    3.11    0.48
  -3   5  -8   18.65    0.89
  -2   4  -5   26.05    0.82
  -2   6 -15   -0.05    0.80
  -1   3  -3    6.52    0.56
   0   4  -6    0.51    0.54
   0   6 -17    2.54    0.83
   3   5 -13    6.66    0.91
   5   5 -16   -0.57    1.02
   7   5 -20    0.58    0.84
   7   5 -19    0.98    0.82
   8   4 -15    0.80    0.72
  10   2 -11   17.74    0.66
  10   4 -19    0.24    0.78
  11   1 -11    1.41    0.43
  11   3 -16   -0.38    0.68
  13   3 -22    3.55    0.67
  13   3 -21    0.89    0.65
  -2   6 -16   -0.54    0.83
  -1   5 -10    5.22    0.77
   2   4  -8   26.18    1.01
   3   3  -6   95.43    1.23
   4   4 -10  101.01    1.60
   5   5 -17    1.09    0.78
   6   4 -12    1.33    0.57
   7   3 -10   68.85    1.25
   9   3 -13   11.76    0.81
  10   4 -21    1.33    0.90
  10   4 -20   -0.38    0.91
  11   3 -17    1.96    0.76
  12   2 -15    5.12    0.71
  13   3 -23    1.44    0.73
  -6   4  -4    0.30    0.48
  -5   5  -8    0.62    0.69
  -4   6 -15    0.64    0.84
  -3   5  -9    0.25    0.71
  -2   6 -17    3.75    0.94
   3   5 -14    0.06    0.75
   5   3  -8    4.81    0.64
   5   5 -18    1.32    0.82
   6   4 -13    3.24    0.78
   8   2  -9   16.61    0.63
   8   4 -16    0.82    0.76
  10   2 -12   12.42    0.72
  10   4 -23    3.49    0.93
  10   4 -22   -0.32    0.86
  12   2 -16    0.06    0.66
  -4   4  -5   20.79    0.81
  -4   6 -16   -0.28    0.78
  -1   5 -11   -0.09    0.76
   1   3  -5    2.57    0.58
   2   4  -9    9.07    0.90
   5   5 -19    1.64    0.98
   8   4 -17    0.59    0.82
   9   1  -9   14.28    0.60
  11   1 -12   10.97    0.55
  11   3 -18   13.76    0.86
  -5   3  -2   22.16    0.68
  -5   5  -9    0.97    0.70
  -4   6 -17   -0.11    0.49
  -4   6 -17    0.03    0.36
  -3   5 -10    5.79    0.81
   5   5 -21    1.65    0.94
   5   5 -20    6.37    0.96
   6   4 -14   10.67    0.88
  10   2 -13    0.89    0.62
  11   3 -20    0.54    0.68
  11   3 -19    9.67    0.81
  12   2 -17    1.21    0.61
  -3   3  -3    1.72    0.49
  -3   5 -11    6.08    0.91
  -1   5 -12    0.11    0.77
   2   4 -10    7.52    0.92
   3   3  -7    2.92    0.59
   3   5 -18    0.68    0.81
   3   5 -17    0.02    0.87
   4   4 -12    8.71    0.83
   5   3  -9   62.91    1.06
   7   3 -12   -0.53    0.79
   8   2 -10   51.44    0.94
   9   3 -15    4.19    0.72
  11   3 -21    1.14    0.85
  12   2 -18    1.20    0.63
  -6   4  -5    7.17    0.64
  -5   5 -10    5.46    0.79
  -4   4  -6   50.00    1.04
  -2   4  -7    0.38    0.63
  -1   5 -13   11.99    1.03
   1   5 -15    0.67    0.85
   2   2  -4  225.14    1.36
   3   5 -19    0.80    0.88
   4   4 -13    0.08    0.69
   6   2  -8   45.32    0.85
   6   4 -16    0.86    0.93
   7   1  -7   14.76    0.53
   8   4 -22    0.61    0.89
   8   4 -21   -0.93    1.07
   9   3 -16    8.99    0.83
  10   2 -14   10.53    0.75
  11   1 -13   10.17    0.57
  11   3 -24    0.53    0.74
  11   3 -23   -0.12    0.78
  11   3 -22   -0.01    0.73
  12   2 -19    6.58    0.70
  -6   0   4  260.18    0.96
  -7   1   4    1.92    0.44
  -2   2   0    7.03    0.63
   1  -1  -1    2.64    0.43
   3  -1  -3  137.40    1.09
   4   2  -6    4.87    0.42
   8   0 -10   66.58    0.74
  -7  -3   3    0.27    0.55
  -5  -3   2   32.82    0.91
   1   3  -5    2.94    0.75
 -11   1   5    1.03    0.62
  -8   2   3  399.86    2.77
  -6   2   2    1.61    0.71
  -4   2   1   49.71    1.06
  -3  -3   1   44.84    1.14
   0   2  -2    0.23    0.49
   2   2  -4  221.05    1.44
   5  -1  -5  100.80    1.08
   6  -2  -7   -0.37    0.67
   2  -2  -2   15.09    0.73
 -13   1   5    0.98    0.81
  -1  -1   1    2.73    0.35
  -1   1   0    7.46    0.34
   0  -2   0 1000.00    3.24
   3   3  -8    4.46    0.59
   4  -2  -4   23.20    0.84
   1   3  -6   46.72    1.16
 -10   0   5    8.94    0.54
  -2   2  -1   41.13    0.94
   4   2  -7   30.37    0.65
   6  -2  -6   27.38    1.02
   6   2 -10    0.42    0.32
  -4  -2   3    0.60    0.46
   3   3  -9    7.34    0.74
  -7  -3   4    0.78    0.53
  -6   2   1    1.42    0.76
  -5  -3   3   96.86    1.28
  -4   2   0   -0.08    0.50
  -3  -3   2   21.01    0.84
  -3   1   1  149.04    1.09
   0   2  -3    0.19    0.48
   1   1  -2  218.48    1.01
 -11   1   4    0.04    0.66
  -5   1   2   82.16    0.93
   1   3  -7   61.13    1.25
   2  -2  -1   11.18    0.74
   2   2  -5  365.80    1.90
   3  -1  -2   95.59    0.95
   3   1  -4   71.93    0.50
   4  -2  -3    0.39    0.70
   8   0  -9   18.17    0.47
  -8  -2   5    4.97    0.34
   3   3 -10   19.01    0.77
   0  -2   1    8.10    0.56
   1  -1   0    9.01    0.49
  -9   1   3   38.14    0.98
  -8   0   4   81.15    0.78
  -6   2   0   17.36    0.98
  -4   2  -1    4.57    0.75
   4   2  -8   71.57    0.88
  -3  -3   3   41.88    1.03
   4  -2  -2   39.10    1.01
 -11   1   3  101.37    1.52
  -5  -3   4  205.55    1.72
  -1  -3   2   96.28    1.38
   2   2  -6   26.81    0.78
  -1   1  -1    0.10    0.39
   2  -2   0    6.71    0.68
  -2   2  -3  117.11    1.37
  -6   2  -1  329.35    2.46
  -5   1   1    5.78    0.47
  -2  -2   3    7.29    0.47
 -10   0   4    2.63    0.47
  -6   0   3   36.59    0.47
  -3   1   0  402.34    1.70
   3  -1  -1  146.81    1.05
   4   2  -9   16.72    0.59
   0  -2   2    0.32    0.44
   4  -2  -1   49.30    0.99
   6  -2  -3   14.21    0.79
   8   0  -8   45.34    0.55
 -12   0   4   39.63    0.84
 -11   1   2  312.62    2.36
  -6  -2   5  104.81    0.94
  -3  -3   4   24.82    0.80
  -1  -3   3    1.08    0.70
   2   2  -7    6.84    0.55
   8  -2  -5    4.43    0.73
  -5  -3   5   49.18    0.96
  -2   2  -4   32.58    0.90
  -4   2  -3    9.84    0.79
   1   1  -3    0.38    0.26
   2  -2   1   38.68    0.75
 -11  -1   5    1.08    0.28
   4   2 -10  237.66    1.54
   0   2  -6    0.01    0.57
   1  -1   1    0.37    0.39
   6  -2  -2    1.41    0.62
  -5  -1   4  576.88    1.04
  -5   1   0    2.06    0.40
   2   2  -8   89.02    1.10
   4  -2   0   -0.11    0.60
   6   0  -5  198.55    0.86
  -8   0   3  499.17    1.83
  -4   2  -4   69.06    1.25
  -1  -3   4    7.09    0.69
  -1   1  -2    5.94    0.41
   3   1  -5   50.78    0.46
   7  -1  -4    1.99    0.41
  -3   1  -1  646.80    2.20
   0  -2   3    0.30    0.44
   4   2 -11   22.79    0.67
 -12   0   3    3.95    0.52
 -10   0   3    1.94    0.51
   0   2  -7  133.73    1.41
   2  -2   2   62.82    0.99
   3  -1   0  401.88    1.68
  -5  -3   6   -0.18    0.48
  -4  -2   5   41.67    0.73
   2   2  -9   31.14    0.76
   6  -2  -1    0.27    0.61
  -9   1   0   10.39    0.80
   4  -2   1    4.51    0.63
   8   0  -7    8.85    0.34
  -5   1  -1    0.23    0.47
  -1  -3   5    2.87    0.67
   0   2  -8    0.65    0.63
   2   2 -10   19.72    0.77
   7  -1  -3    3.59    0.45
  -3  -3   6   99.05    1.38
   5  -1  -1    5.74    0.43
 -12   0   2    8.88    0.67
  -9   1  -1   -0.34    0.74
   1   1  -4   10.01    0.35
   9  -1  -5  145.00    1.27
  -6   0   2    8.25    0.32
  -3   1  -2    6.41    0.38
  -1   1  -3   34.06    0.60
   0   2  -9   11.04    0.76
   2  -2   3  114.02    1.29
   2   2 -11    5.40    0.58
 -10   0   2    8.52    0.62
  -2  -2   5  370.30    1.99
   1  -1   2    7.98    0.45
   4  -2   2    0.07    0.61
  -5  -3   7    5.99    0.59
  -1  -1   3    0.80    0.29
   0   2 -10    1.50    0.70
  -8   0   6    9.95    0.43
  -7   1  -1   15.63    0.68
  -4  -2  11   23.44    0.48
   1  -1   4    0.00    0.28
   4  -2   4   68.08    1.01
   6  -2   1  326.10    2.04
  -5   1  -3  380.26    1.92
  -1  -1   6  154.65    0.83
   7  -1  -6   51.51    0.74
 -10   0   6    0.95    0.46
  -5   1  -4    2.68    0.54
  -3   1 -13   16.44    0.63
  -3   1 -12    0.31    0.53
  -3   1  -8  112.02    1.12
   2  -2   7   -0.08    0.49
 -12   0   6    0.95    0.44
  -7   1  -3   32.42    0.86
  -5   1  -5    7.76    0.57
  -3   1 -11   59.04    0.94
  -3   1 -10   58.63    0.92
  -3   1  -9    1.20    0.52
   4  -2   5   73.15    1.04
   7  -1  -5    9.03    0.52
  -5   1  -6    7.63    0.60
  -2   0   2    9.98    0.14
   0  -2   9   11.51    0.54
  -8   0   5    4.53    0.44
  -5   1  -8    4.36    0.63
 -12   0   5    7.73    0.58
 -10   0   5    8.04    0.57
   5  -1   0    2.12    0.36
   7  -1  -4    2.24    0.43
   2  -2   8   38.35    0.80
   3  -1   3    2.73    0.37
  -6   0   4  256.49    1.15
  -2  -2  11    5.03    0.42
  -8   0   4   73.37    0.86
   0  -2  10    2.15    0.42
   9  -1 -10   26.24    0.56
   2  -2   9   20.91    0.76
   3  -1   4   18.89    0.50
   9  -1  -7   67.50    0.91
 -10   0   3    1.93    0.56
   5  -1   2   80.50    0.94
   7  -1  -1   40.49    0.78
   9  -1  -6   15.16    0.56
 -10   0   2    9.00    0.66
   0  -2  11   53.79    0.89
   9  -1  -5  149.32    1.28
   2  -2  10    9.58    0.62
   3  -1   5   17.61    0.51
   7  -1   0   34.48    0.78
 -10   0   1    9.35    0.70
   5  -1   3  388.63    1.93
   9  -1  -4    0.80    0.54
  -4   0   2   36.47    0.42
   7  -1   1   14.89    0.69
   9  -1  -3   37.17    0.84
   2  -2  11   62.84    1.07
  -8   0   0   28.67    0.76
  -6   0   1    3.84    0.34
  -2   0   1    7.67    0.15
   0   0 -14    0.99    0.43
   7  -1   2    7.50    0.63
  -9  -1   8    1.08    0.38
  -8   0  -1   66.70    1.04
  -2   0 -14    3.51    0.50
  11  -1  -8   18.65    0.60
  11  -1  -7   21.68    0.73
  -4   0   1  101.43    0.73
   0   0 -13   12.15    0.51
   2   0 -12    9.92    0.39
   7  -1   3   34.39    0.91
  -8   0  -4  110.59    1.48
  -8   0  -3   20.73    0.89
  -6   0   0   16.76    0.53
  -2   0 -13   17.39    0.63
  -6   0  -1  385.83    1.88
  -2   0 -12  264.50    1.80
  -6   0  -2  360.11    1.94
  -4   0   0    3.05    0.36
   0   0 -12   77.60    0.86
   2   0 -11   11.08    0.40
   5  -1   6    8.46    0.66
   7  -1   4   15.36    0.85
  -6   0  -6    4.62    0.66
  -6   0  -5   59.11    1.07
  -6   0  -4    7.64    0.66
  -6   0  -3    0.09    0.57
  -4   0 -10    5.70    0.67
  -2   0 -11   67.43    0.98
 -11  -1   5    1.02    0.54
  -4   0  -9  122.31    1.36
  -4   0  -1    1.33    0.39
  -2   0 -10   19.01    0.76
  -1  -1   9   19.29    0.49
   0   0 -11   63.10    0.78
  -2   0   0    3.79    0.19
   2   0 -10   34.52    0.48
   3  -1   8  117.47    1.27
 -11  -1   4    0.01    0.63
  -4   0  -6  212.08    1.57
  -4   0  -2    0.51    0.42
  -2   0  -9   22.21    0.71
   0   0 -10    1.06    0.41
   1  -1   9   46.12    0.87
  -4   0  -5   85.51    0.98
  -4   0  -4   82.11    0.92
  -4   0  -3    6.47    0.37
  -2   0  -1   38.63    0.39
   2   0  -9   36.10    0.42
   3  -1   9    1.93    0.67
   5  -1   8    5.30    0.71
  -2   0  -5  161.94    1.10
  -2   0  -2   73.25    0.63
   0   0  -8    0.58    0.34
  -2   0  -4   77.03    0.74
  -2   0  -3  191.21    1.02
  -1  -1  10   71.17    0.81
   1  -1  10   71.17    1.05
   6   0  -6   34.30    0.48
   6   0  -5  195.84    1.04
  -9  -1   4    1.04    0.65
   0   0  -7  221.23    1.10
   6   0  -7    0.07    0.27
   3  -1  10   60.19    1.08
   4   0   0    3.53    0.42
   3   1  11   50.09    0.77
  10   0   5   39.34    0.89
  10   0  20   -0.10    0.52
  12   0  10    6.43    0.75
  12   0  11   16.62    0.79
  12   0  13    5.93    0.81
  12   0  14    1.22    0.75
  12   0  15    0.32    0.46
  13  -1   1    6.60    0.59
  14  -2  -3    1.60    0.57
  15  -1   5   23.73    0.89
  15  -1  18    0.02    0.61
  15  -1  19    0.23    0.62
  16  -2   0    3.74    0.66
  19  -3   1    6.40    0.76
   5   1  13   84.58    1.18
   5   1  14   30.82    0.84
   5   1  15    8.79    0.69
   8   0   2  100.30    1.06
   9  -1  -3   35.99    0.64
  10   0   4   13.61    0.68
  10   0  21   -0.01    0.56
  12  -2  -5    3.66    0.46
  12   0   8   23.70    0.96
  12   0   9    3.59    0.57
  12   0  16   -0.45    0.54
  12   0  17   -0.34    0.56
  18  -2   3    0.92    0.73
  19  -3   0   -0.02    0.66
  21  -3   5    1.72    0.84
  21  -3   7    1.13    0.73
   3   1   9    1.90    0.40
   5   1  11    0.14    0.47
   5   1  12  115.57    1.25
   5   1  16    8.12    0.59
  11  -1  -2  322.71    1.83
  12   0   6   21.44    0.85
  12   0   7    2.06    0.69
  12   0  18   -0.24    0.60
  12   0  19    0.19    0.61
  17  -1   8    3.40    0.81
  17  -1   9    3.27    0.88
  17  -1  10    3.39    0.82
  17  -1  11    2.42    0.91
  17  -1  12   -1.85    0.97
  17  -1  14    1.14    0.83
  17  -1  15    8.93    0.96
  18  -2   2    2.34    0.71
  20  -2   9   -0.15    0.77
  20  -2  10    2.40    0.76
  21  -3   4    1.01    0.75
   5   1  10   51.47    0.85
  10   0   3    1.84    0.55
  12   0  20   -0.17    0.60
  14  -2  -4    1.24    0.47
  15  -1   2   11.24    0.89
  16  -2  -2    0.65    0.61
  17  -1   7   -0.46    0.80
  18  -2   1    3.08    0.71
  20  -2   6    3.30    0.90
  20  -2   7    3.07    0.89
  21  -3   3    0.07    0.73
   5   1   9   23.74    0.68
   7   1  11    0.98    0.59
   7   1  12    5.60    0.57
   7   1  13    0.59    0.58
   7   1  14    0.44    0.63
   7   1  15   71.01    1.23
   7   1  16    0.08    0.52
  12   0   5   23.84    0.76
  12   0  21    0.07    0.56
  13  -1  -1    0.19    0.53
  14   0   9   25.36    1.06
  14   0  10    6.44    0.80
  14   0  11   -0.09    0.78
  14   0  12    3.68    0.80
  14   0  14   17.95    1.06
  14   0  15   -0.92    0.71
  14   0  16   -0.06    0.55
  15  -1   1    1.29    0.71
  17  -1   5    0.56    0.78
  20  -2   5    5.15    0.93
  21  -3   2   -0.76    0.71
   5   1   8    5.19    0.49
   7   1  10   19.92    0.71
  10   0   2    0.97    0.55
  12   0   4   20.22    0.86
  14   0   7   -0.78    0.68
  14   0   8    3.20    0.74
  14   0  17    0.08    0.61
  14   0  18    0.02    0.56
  16  -2  -3    0.76    0.61
  20  -2   4    2.21    0.85
  21  -3   1   -0.19    0.72
   7   1   9   -0.04    0.54
   9   1  13    4.42    0.80
   9   1  14    3.12    0.82
  12   0   3  220.84    1.92
  13  -1  -2    1.52    0.51
  14   0   6   10.03    0.96
  14   0  19   -0.06    0.62
  15  -1   0    0.23    0.67
  17  -1   3    5.18    0.79
  19  -1   8    0.46    0.85
  19  -1   9    1.57    0.96
  19  -1  10    2.77    0.96
  19  -1  11   17.47    1.15
  19  -1  12   -0.46    0.93
  19  -1  13    0.72    0.96
  20  -2   3   -0.32    0.72
   5   1   7   41.68    0.79
   7   1   8  226.54    1.76
   9   1  10    6.81    0.75
   9   1  11   24.17    0.90
   9   1  12   11.37    0.80
   9   1  15    1.03    0.63
   9   1  16   -0.47    0.51
   9   1  17   -0.18    0.44
  10   0   1    4.26    0.60
  14   0   5   51.90    1.30
  14   0  20   -0.11    0.58
  14   0  21    0.52    0.58
  16   0  11    1.58    0.89
  16   0  12    4.45    0.85
  16   0  13    2.39    0.92
  17  -1   2    0.04    0.68
  19  -1   7    4.37    0.94
  20  -2   2    0.11    0.69
   9   1  18    0.06    0.46
  12   0   2   11.95    0.72
  14   0   4   15.11    0.94
  16  -2  -4    4.28    0.61
  16   0   8    9.81    0.88
  16   0   9    1.65    0.86
  16   0  10   42.37    1.34
  16   0  15    2.03    0.86
  16   0  16   -0.15    0.72
  16   0  17   -0.32    0.67
  17  -1   1    0.05    0.61
  20  -2   1    3.97    0.84
  22  -2   5    0.05    0.86
  22  -2   6    1.64    0.85
  11  -1  -4    0.90    0.51
  11   1  14   48.35    1.27
  11   1  15   -1.03    0.75
  11   1  16    0.12    0.49
  13  -1  -3    7.82    0.61
  16   0   7   -0.07    0.78
  16   0  18   -0.10    0.59
  19  -1   4    0.18    0.86
  22  -2   4    0.27    0.83
   7   1   6  102.12    1.18
   9   1   7   58.34    1.07
  10   0   0   69.76    1.02
  11   1  11   22.39    0.98
  11   1  17   -0.25    0.51
  11   1  18   -0.06    0.58
  12   0   1   13.48    0.70
  14   0   3   -0.53    0.71
  15  -1  -2    4.70    0.69
  16   0   6    2.52    0.70
  18  -2  -3    1.63    0.66
  19  -1   3   -0.60    0.86
  20  -2  -1    4.12    0.78
  21  -1   8    0.00    0.89
  21  -1   9    1.18    0.91
  22  -2   3    1.95    0.84
   5   1   5    7.16    0.47
  11   1   8   11.53    0.83
  11   1  19   -0.15    0.55
  14   0   2    5.74    0.74
  16   0   5    2.87    0.72
  18   0   9    0.64    0.79
  18   0  10    2.04    0.94
  18   0  11    0.14    0.98
  18   0  12    0.86    0.97
  18   0  13    9.15    0.99
  18   0  14    2.78    1.02
  19  -1   2    3.63    0.84
  21  -1   7    1.92    1.00
  22  -2   2    3.45    0.86
   7   1   5   10.06    0.61
   9   1   6   61.15    1.07
  11   1   7   10.53    0.77
  13   1  12    0.88    0.74
  13   1  13   -0.20    0.78
  13   1  14   -0.91    0.81
  13   1  15    6.10    0.87
  13   1  16   -0.31    0.61
  13   1  17    0.10    0.57
  16   0   4    2.33    0.72
  18   0   7    0.72    0.79
  18   0   8    2.59    0.84
  19  -1   1   16.20    0.90
  20  -2  -2   -0.31    0.67
  21  -1   5    5.25    0.92
  22  -2   1    0.62    0.77
   9   1   5    1.04    0.59
  11   1   6    6.09    0.70
  13   1   9   37.44    1.12
  13   1  18   -0.04    0.60
  13   1  19    0.29    0.58
  15  -1  -3    8.81    0.70
  16   0   3    0.78    0.69
  18   0   6   15.02    1.08
  21  -1   4    1.81    0.86
  22  -2   0    0.06    0.78
   7   1   4   14.76    0.65
  13   1   8   13.31    0.88
  13   1  20   -0.36    0.58
  15   1  12    6.51    1.02
  15   1  13    0.69    0.78
  15   1  14   10.89    0.96
  15   1  15    1.57    0.80
  16   0   2    1.48    0.74
  17  -1  -2    4.30    0.79
  18   0   5   20.21    1.09
  19  -1   0    2.28    0.76
  20   0  10    3.10    0.96
  20   0  11   -0.38    0.86
  20   0  12    0.75    0.94
  21  -1   3    0.08    0.84
   9   1   4    4.45    0.64
  11   1   5   61.94    1.16
  13   1   7    3.63    0.85
  15   1  10    0.10    0.88
  15   1  16    0.12    0.55
  15   1  17   -0.22    0.64
  15   1  18   -0.12    0.60
  18   0   4   14.96    1.00
  20   0   8    1.33    0.96
  20   0   9    0.79    0.88
  21  -1   2    0.28    0.82
  22  -2  -1    1.07    0.76
  23  -1   6    0.97    0.76
  24  -2   2    0.31    0.68
  11   1   4   28.75    0.87
  13  -1  -5    0.71    0.51
  13   1   6    0.08    0.79
  15  -1  -4    7.43    0.68
  15   1   8    0.28    0.74
  15   1   9    1.52    0.76
  15   1  19    0.03    0.63
  15   1  20   -0.03    0.55
  18   0   3    1.03    0.79
  20   0   6    5.21    0.83
  20   0   7    4.66    1.01
  21  -1   1    1.00    0.81
  23  -1   5   -0.41    0.87
   7   1   3   32.09    0.76
   9   1   3  121.66    1.33
  13   1   5    4.92    0.82
  14   0  -1   64.40    1.13
  15   1   7   11.93    0.87
  16   0   0    2.52    0.80
  17   1  13    0.35    0.90
  17   1  14    0.35    0.95
  17   1  16   -0.11    0.62
  20   0   5    6.38    0.99
  21  -1   0   -0.17    0.80
  11   1   3   27.22    0.86
  12   0  -2   10.67    0.65
  13   1   4   21.91    0.93
  15   1   6    1.16    0.76
  17   1  10    3.51    0.87
  17   1  17    0.25    0.57
  20   0   4    2.15    0.91
  23  -1   3    0.90    0.78
   8   2  14    0.83    0.71
   8   2  15   -0.55    0.76
  11  -1  -6   18.65    0.55
  15  -1  -5    2.67    0.55
  15   1   5   26.55    1.02
  16   0  -1   -0.16    0.68
  17  -1  -4    2.81    0.66
  17   1   7   -0.30    0.76
  17   1   8    3.33    0.88
  18   0   1    3.39    0.70
  19  -1  -3    0.01    0.59
  21  -1  -1    0.50    0.81
  22   0   7    0.89    0.90
  22   0   8    0.25    0.81
  23  -1   2    1.53    0.71
   6   2  12   20.42    0.76
   6   2  13    5.53    0.59
   7   1   2    7.46    0.54
   8   2  12    0.24    0.61
   9   1   2  344.09    2.06
  10   0  -3    1.69    0.45
  10   2  13    1.35    0.74
  10   2  14    6.51    0.75
  10   2  15    8.66    0.72
  11   1   2   -0.08    0.59
  13   1   3    3.23    0.72
  14   0  -2  193.77    1.75
  15   1   4   40.67    1.12
  17   1   6   30.19    1.19
  18   0   0    0.24    0.69
  19   1  10    2.31    0.83
  19   1  11   16.80    1.19
  19   1  12   -0.73    0.92
  19   1  14    0.03    0.91
  20   0   2    0.85    0.78
  22   0   6    3.58    0.83
  23  -1   1   12.58    0.98
   4   2  13    1.70    0.39
   6   2  11    0.14    0.49
   8   2  11   13.91    0.75
  10   2  11    8.40    0.82
  12   0  -3    5.12    0.57
  12   2  14    2.44    0.73
  12   2  15    3.47    0.76
  12   2  16    1.20    0.75
  13   1   2    2.46    0.63
  15   1   3   42.33    1.12
  17  -1  -5    3.81    0.66
  17   1   5   -0.09    0.79
  19   1   8    1.70    0.85
  19   1   9    0.78    0.92
  20   0   1    5.12    0.87
  21  -1  -2    2.71    0.78
  23  -1   0    4.17    0.84
   4   2  12    3.54    0.43
   6   2  10   17.65    0.67
   8   2  10   -0.01    0.57
   9   1   1    0.21    0.50
  10   2  10    0.34    0.68
  12   2  11   12.61    0.79
  12   2  12    0.98    0.74
  12   2  13    6.20    0.81
  14   0  -3    6.92    0.62
  15  -1  -6    8.99    0.57
  16   0  -2    0.08    0.64
  17   1   4    4.66    0.81
  18   0  -1    4.76    0.75
  21  -1  -3    0.64    0.69
  22   0   3    2.32    0.85
  23  -1  -1    0.18    0.72
   4   2  11    4.72    0.44
   7   1   1   15.96    0.55
   8   2   9   25.75    0.81
  10   2   9   53.71    1.16
  11   1   1    9.44    0.54
  12   2  10    5.24    0.71
  13   1   1    6.14    0.66
  14   2  12    2.78    0.71
  14   2  13    0.57    0.74
  14   2  14   11.12    0.94
  14   2  15   11.57    0.91
  14   2  16   -0.73    0.77
  14   2  17   -0.59    0.62
  14   2  18   -0.14    0.56
  17   1   3    5.87    0.76
  19   1   6    1.51    0.78
  20   0   0   38.24    1.23
  21   1  10    1.17    0.92
  22   0   2    4.58    0.90
   4   2  10    2.74    0.40
   6   2   9    2.18    0.52
  10   2   8   57.83    1.15
  12   2   9    1.53    0.67
  14   2  10    4.83    0.82
  14   2  11    1.72    0.71
  16   0  -3    0.56    0.60
  17  -1  -6   16.98    0.78
  18   0  -2    2.72    0.60
  19  -1  -5   29.44    0.92
  19   1   4    1.08    0.86
  19   1   5   -0.80    0.74
  21   1   8    0.24    0.84
  21   1   9    0.81    0.81
  22   0   1    1.12    0.73
  23  -1  -2   -0.17    0.74
  25  -1   0    0.08    0.76
  10   0  -4    3.24    0.47
  11   1   0    5.98    0.61
  12   0  -4   40.88    0.83
  13  -1  -7  105.60    1.04
  14   0  -4    3.20    0.58
  15   1   1    1.25    0.75
  16   2  11    3.91    0.77
  16   2  12    3.50    0.88
  16   2  13    0.84    0.88
  16   2  14    2.76    0.88
  16   2  15    2.16    0.81
  16   2  16   -0.16    0.78
  16   2  17   -0.10    0.60
  16   2  18   -0.19    0.62
  17   1   2   -0.03    0.73
  20   0  -1    4.83    0.71
  21  -1  -4    3.69    0.69
  21   1   6   10.88    1.04
  21   1   7    2.72    0.81
  24   0   3   -0.29    0.70
   2   2  11   57.90    0.76
   4   2   9   69.00    0.89
   8   2   7    0.47    0.46
   9   1   0   10.97    0.49
  13   1   0   40.62    0.98
  17   1   1    0.08    0.63
  18   0  -3    5.30    0.65
  19   1   3   -0.25    0.71
  20   0  -2    0.11    0.62
  21   1   5    4.10    0.89
  22   0   0    0.10    0.80
  23  -1  -3   -0.05    0.74
  24   0   2   -0.36    0.71
  25  -1  -1    0.15    0.73
   6   2   7   75.72    1.02
   7   1   0   35.20    0.66
  14   2   7    0.40    0.66
  15   1   0    0.67    0.69
  16   0  -4    5.78    0.69
  16   2   8    3.75    0.88
  18   2  11    1.68    0.81
  18   2  12    1.38    0.91
  18   2  13    5.24    0.97
  18   2  14    2.55    0.89
  19   1   2    3.24    0.81
  21   1   4    0.40    0.88
  22   0  -1    1.16    0.78
  24   0   1    0.73    0.83
   4   2   8   54.19    0.81
  10   2   5   21.69    0.81
  11   1  -1    7.81    0.64
  12   2   5   19.94    0.92
  14   2   6    6.69    0.75
  16   2   7   -0.19    0.73
  18   0  -4    2.71    0.70
  18   2   9    0.98    0.80
  20   0  -3    0.30    0.64
   6   2   6    0.24    0.51
   9   1  -1    5.87    0.56
  12   0  -5    8.29    0.55
  14   0  -5    4.86    0.54
  14   2   5   29.80    1.00
  16   2   6    1.56    0.78
  18   2   7    0.63    0.72
  18   2   8    0.73    0.89
  22   0  -2   -0.58    0.74
  23   1   4    1.46    0.88
  23   1   5   -1.02    0.76
  24   0   0    1.09    0.65
   4   2   7  143.16    1.21
  10   2   4    6.18    0.62
  12   2   4   11.39    0.82
  14   2   4    6.98    0.73
  16   0  -5    7.88    0.68
  16   2   5    1.23    0.75
  18   2   6    9.51    0.93
  20   0  -4    0.33    0.67
  20   2   9   -1.82    0.87
  20   2  10    1.70    0.77
  24   0  -1    0.02    0.74
   8   2   4   92.09    1.16
  12   2   3  156.79    1.71
  16   2   4    1.65    0.74
  18   0  -5    5.80    0.71
  19   1  -1    0.32    0.66
  20   2   7    4.20    0.89
  20   2   8    0.51    0.76
  22   0  -3    0.10    0.59
  24   0  -2    2.89    0.72
   7   1  -1   41.91    0.70
  10   2   3    3.30    0.57
  14   0  -6   -0.05    0.53
  14   2   3    0.84    0.61
  18   2   4    9.76    0.92
  20   2   6    3.55    0.90
  21   1   0   -0.40    0.80
   4   2   6  141.28    1.12
   9   1  -2    6.02    0.53
  11   3  13    8.93    0.70
  11   3  14   19.58    0.86
  12   0  -6    1.04    0.44
  13   3  13   -0.28    0.70
  13   3  14    0.89    0.67
  13   3  15    2.46    0.72
  14   2   2    6.03    0.81
  15   1  -3    7.05    0.67
  16   0  -6   44.86    0.94
  18   2   3    0.44    0.75
  19   1  -2    0.12    0.65
  20   0  -5    0.94    0.57
  20   2   5    5.67    0.92
  21   1  -1    0.83    0.75
  22   0  -4    8.97    0.69
  24   0  -3    0.60    0.68
   8   2   3   11.61    0.63
   9   3  12    3.83    0.69
   9   3  13    2.40    0.60
  10   2   2    2.45    0.58
  11   3  11    9.94    0.72
  11   3  12    0.12    0.59
  13   3  11    5.00    0.70
  13   3  12    0.55    0.67
  15   3  12    3.97    0.72
  15   3  13    0.12    0.72
  15   3  14    5.00    0.78
  15   3  15    1.19    0.70
  15   3  16    0.19    0.65
  16   2   2    0.38    0.65
  17   1  -3    4.28    0.64
  18   0  -6   -0.71    0.59
  20   2   4    1.03    0.91
  23   1   0    3.51    0.87
   9   3  11    7.39    0.69
  10   0  -6    0.88    0.43
  11   3  10   16.99    0.81
  12   2   1    5.63    0.68
  13   3   9   17.51    0.92
  13   3  10   15.95    0.91
  15   3  10    0.25    0.76
  15   3  11    4.09    0.81
  16   2   1   18.13    0.89
  17   3  12    0.38    0.68
  17   3  13    1.16    0.76
  17   3  14   -0.20    0.78
  17   3  15    3.34    0.85
  18   2   2    2.60    0.74
  19   1  -3   -0.34    0.64
  20   0  -6    5.17    0.61
  20   2   3   -0.02    0.91
  21   1  -2    1.41    0.77
  22   0  -5   15.79    0.85
  22   2   5   -0.49    0.73
  24   0  -4    0.77    0.62
   4   2   5   75.23    0.84
   7   1  -2   16.69    0.49
   8   2   2   58.44    0.93
   9   3  10    5.15    0.65
  11   3   9    2.46    0.61
  13   3   8    5.78    0.68
  14   0  -7   28.87    0.76
  15   1  -4    7.72    0.71
  15   3   9    1.27    0.72
  16   0  -7   46.58    0.90
  17   1  -4    2.65    0.69
  17   3  10    1.60    0.74
  17   3  11    0.33    0.75
  18   2   1    3.23    0.78
  20   2   2   -0.05    0.82
  22   2   4    0.20    0.74
   6   2   3    3.44    0.49
   7   3  11    0.44    0.50
   9   1  -3   37.12    0.74
   9   3   9   11.75    0.72
  10   2   1    5.21    0.45
  12   2   0    0.99    0.60
  13   1  -4    6.01    0.54
  13   3   7    2.83    0.67
  14   2   0    0.41    0.75
  15   3   8   -1.09    0.68
  17   3   9    2.96    0.76
  18   0  -7    0.96    0.54
  19   1  -4   -0.56    0.62
  19   3  10    1.47    0.80
  19   3  11   10.54    0.94
  20   2   1    4.08    0.83
  21   1  -3    0.71    0.65
  22   0  -6    0.95    0.59
  22   2   3    1.46    0.73
  23   1  -2    0.20    0.75
   7   3  10    9.16    0.62
   9   3   8    0.30    0.60
  11   3   7    2.60    0.72
  12   0  -7   37.56    0.66
  18   2   0   -0.35    0.66
  20   0  -7   10.92    0.69
  22   2   2    4.03    0.75
  23   1  -3    0.64    0.73
   4   2   4   71.82    0.81
   7   3   9   -0.42    0.55
   8   2   1   37.30    0.82
   9   3   7   26.91    0.88
  10   2   0   51.05    0.95
  11   3   6    1.03    0.73
  14   2  -1   48.82    1.15
  15   3   5   14.56    0.85
  16   2  -1    0.44    0.67
  17   1  -5    2.99    0.67
  17   3   6   14.60    1.00
  18   2  -1    5.97    0.74
  19   3   7    1.36    0.88
  20   2   0   23.50    1.01
  21   1  -4    4.30    0.66
  22   2   1    0.54    0.81
  25   1  -2   -1.31    0.77
   5   3  11    1.41    0.43
   6   2   2  253.01    1.54
  12   2  -1   -0.41    0.58
  13   1  -5    0.98    0.50
  16   0  -8    0.50    0.46
  18   0  -8    1.78    0.60
  19   3   6    1.16    0.69
  23   1  -4    0.20    0.71
  25   1  -3    0.30    0.75
   5   3  10   18.72    0.66
   7   1  -3    3.52    0.38
   9   3   6   30.46    0.89
  10   0  -7   81.00    0.85
  13   3   4    7.32    0.71
  14   2  -2  119.47    1.60
  15   3   4   18.49    0.90
  16   2  -2   -0.80    0.63
  17   3   4    1.05    0.74
  19   3   4   -0.15    0.69
  21   1  -5   -0.67    0.70
   7   3   7   31.52    0.78
   8   2   0   12.56    0.64
   9   3   5    0.90    0.56
  10   2  -1    3.16    0.57
  11   1  -5    1.63    0.48
  12   2  -2    4.24    0.60
  13   3   3    0.10    0.57
  15   1  -6    7.92    0.68
  17   1  -6   16.50    0.80
  17   3   3    2.89    0.78
  19   1  -6   16.96    0.82
  19   3   3    0.26    0.88
  21   3   4    0.97    0.86
  21   3   5    3.12    0.76
  23   1  -5    1.02    0.69
  25   1  -4    9.56    0.84
   5   3   9    7.26    0.52
  12   0  -8   49.22    0.71
  13   1  -6   13.92    0.59
  15   3   2    5.33    0.76
  17   3   2   -0.50    0.72
  21   1  -6   -0.07    0.67
  21   3   3    0.43    0.72
  22   2  -2    0.57    0.74
  24   2  -1   -0.54    0.81
   6   2   1  333.68    1.72
   7   3   6   38.17    0.84
  11   3   3   12.03    0.81
  13   3   2    1.58    0.59
  14   2  -3    2.32    0.66
  14   4  12    1.57    0.69
  14   4  13   -0.31    0.64
  16   4  13    0.20    0.63
  19   3   2    1.35    0.75
  20   2  -3    0.23    0.62
  21   3   2    0.29    0.82
  22   2  -3    0.10    0.73
  23   1  -6    0.13    0.66
  24   2  -2    1.97    0.67
  25   1  -5    0.12    0.69
   7   3   5    2.33    0.58
   8   2  -1   19.89    0.70
  10   2  -2   10.20    0.64
  11   3   2    0.02    0.58
  12   2  -3    5.10    0.61
  12   4  12    0.44    0.62
  14   0  -9   12.47    0.55
  14   4  10    1.02    0.74
  14   4  11    0.66    0.68
  15   1  -7    1.50    0.53
  15   3   1    1.25    0.69
  16   4  11    1.19    0.71
  17   1  -7   -0.23    0.61
  18   2  -4    2.76    0.69
  19   1  -7    3.28    0.62
  19   3   1    6.42    0.89
  20   2  -4   -0.56    0.64
  21   1  -7    1.13    0.63
   5   3   7   19.70    0.64
   9   1  -5  143.74    1.17
  10   4  12    1.47    0.58
  11   1  -6   18.05    0.62
  12   4  10    2.89    0.66
  12   4  11    3.84    0.66
  13   3   1    2.04    0.59
  14   4   9    6.21    0.78
  15   3   0    0.14    0.62
  16   4   8    1.60    0.78
  17   3   0    9.82    0.89
  21   3   1    0.30    0.72
  22   2  -4    4.94    0.81
  23   1  -7    2.67    0.58
  24   2  -3    0.31    0.72
  25   1  -6    0.28    0.63
   3   3  10   25.68    0.62
   4   2   2   -0.14    0.38
   6   2   0   17.68    0.62
   7   1  -4    2.32    0.37
  10   4  11    2.85    0.62
  11   3   1    3.49    0.66
  12   4   9    0.32    0.63
  13   1  -7  101.83    1.15
  14   4   8   -0.13    0.74
  16   4   7    0.43    0.76
  18   4   7    0.29    0.67
  18   4   8    0.38    0.65
  19   1  -8    1.66    0.61
  20   2  -5    0.58    0.63
  21   3   0    0.03    0.78
  24   2  -4    0.82    0.74
   5   3   6    2.32    0.49
   9   3   2  143.72    1.52
  10   0  -8  118.25    0.91
  10   4   9   19.49    0.85
  10   4  10    0.22    0.57
  12   2  -4   30.39    0.85
  12   4   8    3.36    0.74
  14   4   6    3.13    0.79
  14   4   7    0.84    0.66
  15   3  -1    1.06    0.68
  16   2  -5    6.34    0.62
  16   4   6   -0.41    0.79
  17   1  -8   11.12    0.69
  19   3  -1   -0.12    0.77
  21   1  -8    0.87    0.60
  21   3  -1   -0.37    0.79
  22   2  -5   11.31    0.90
   3   3   9    1.55    0.36
   8   2  -2   15.99    0.64
  10   4   8   26.74    0.93
  11   3   0    1.04    0.66
  12   0  -9   19.37    0.49
  12   4   7    0.30    0.60
  15   1  -8    1.56    0.58
  19   3  -2   -0.03    0.67
  20   2  -6    3.98    0.73
  24   2  -5    1.10    0.73
   5   3   5    2.24    0.52
   8   4  10   -0.06    0.56
   9   3   1    0.83    0.60
  10   4   7    2.61    0.67
  11   1  -7   22.19    0.62
  12   4   6    5.40    0.74
  13   3  -1    0.17    0.43
  15   3  -2    1.86    0.67
  16   2  -6   30.75    0.89
  18   4   4    3.55    0.87
  19   1  -9    0.39    0.55
  21   3  -2    2.14    0.83
  22   2  -6    0.80    0.67
   4   2   1    4.91    0.42
   6   2  -1    0.99    0.48
   9   1  -6   13.87    0.52
  12   4   5    6.97    0.72
  13   1  -8   45.02    0.85
  17   1  -9    0.56    0.55
  17   3  -3    1.39    0.75
  18   4   3    0.36    0.80
  19   3  -3   -1.04    0.76
  20   4   3   -0.30    0.79
  24   2  -6   -0.99    0.78
   8   2  -3  400.74    2.04
  10   4   6    3.13    0.61
  11   3  -1    1.25    0.65
  12   4   4    8.75    0.75
  13   3  -2    0.81    0.59
  14   2  -6   -0.91    0.60
  15   1  -9   13.33    0.68
  15   3  -3    3.10    0.68
  16   4   2    0.35    0.70
  18   2  -7    0.22    0.64
  18   4   2    0.00    0.79
  20   2  -7    6.81    0.79
  20   4   2    0.89    0.76
  22   2  -7    0.47    0.70
  23   3  -3   -0.14    0.78
   3   3   7   12.93    0.55
   5   3   4    0.71    0.50
   8   4   7   -0.09    0.68
   9   3   0    6.61    0.50
  10   4   5    7.44    0.64
  14   4   2    1.20    0.76
  16   2  -7   37.38    0.94
  17   3  -4   -0.31    0.71
  18   4   1    0.89    0.84
  20   4   1    0.29    0.84
  21   3  -4    2.51    0.79
  24   2  -7    0.00    0.67
  10   2  -5    1.90    0.50
  10   4   4    1.39    0.61
  11   3  -2  150.86    1.68
  12   0 -10    0.52    0.33
  13   3  -3    3.49    0.68
  15   3  -4    3.83    0.71
  16   4   1    7.95    0.80
  17   1 -10    6.33    0.68
  18   2  -8    0.34    0.68
  18   4   0    0.19    0.74
  20   2  -8    0.09    0.69
  20   4   0    9.73    0.88
  22   2  -8   -0.23    0.56
   4   2   0    0.45    0.38
   5   3   3  149.41    1.35
   6   2  -2    2.13    0.48
   6   4   9    1.91    0.58
   8   4   6    0.01    0.61
   9   1  -7   67.59    0.88
   9   3  -1    2.36    0.62
  11   1  -8   16.99    0.57
  12   4   2    3.68    0.69
  13   1  -9    1.54    0.48
  14   2  -7   21.94    0.86
  14   4   1   -0.58    0.68
  15   5  10   -0.01    0.69
  15   5  11    1.23    0.70
  16   4   0    2.11    0.80
  23   3  -5    0.30    0.72
  24   2  -8    0.22    0.64
   6   4   8   28.62    0.86
   8   2  -4   47.06    0.88
   8   4   5    0.42    0.59
  10   4   3    1.39    0.60
  12   4   1    1.50    0.61
  13   3  -4    3.96    0.69
  13   5  10    5.28    0.73
  14   4   0    0.54    0.72
  15   3  -5    1.36    0.63
  15   5   8   -0.06    0.71
  15   5   9   -0.52    0.62
  16   2  -8   -0.14    0.53
  16   4  -1    0.18    0.70
  17   5   7    0.42    0.74
  18   4  -1    1.38    0.87
  20   4  -1    1.33    0.75
  21   3  -6   -0.20    0.79
   7   3   0   16.58    0.71
  12   2  -7   18.62    0.70
  13   5   8    2.80    0.67
  13   5   9    6.17    0.76
  15   5   7    1.47    0.74
  17   5   6    4.41    0.80
  18   2  -9    0.35    0.61
  18   4  -2    1.85    0.79
  19   3  -6   11.08    0.82
  20   2  -9    2.02    0.58
  20   4  -2    0.00    0.77
  22   2  -9    0.21    0.59
  23   3  -6   -0.95    0.74
  24   2  -9    2.97    0.66
   3   3   5    3.40    0.48
   6   4   7   22.48    0.78
   7   1  -6   48.60    0.68
   8   4   4   27.89    0.94
   9   3  -2    2.57    0.45
  11   5   9    0.03    0.63
  11   5  10    3.46    0.70
  12   4   0   -0.92    0.65
  13   3  -5   -0.03    0.61
  13   5   7   -0.24    0.72
  14   2  -8    6.10    0.69
  14   4  -1   15.98    0.95
  15   5   5    6.66    0.88
  15   5   6    0.66    0.66
  16   4  -2    0.45    0.78
  17   1 -11   -0.10    0.49
  17   5   4    1.83    0.75
  17   5   5   -0.19    0.68
  20   4  -3    0.69    0.68
  21   3  -7   -0.16    0.65
   6   2  -3   16.68    0.61
   6   4   6    0.24    0.59
   8   4   3    4.58    0.73
  10   4   1    0.89    0.63
  11   1  -9   15.69    0.60
  11   3  -4   -0.38    0.72
  11   5   8    0.83    0.71
  13   5   6    0.04    0.72
  15   5   4    8.37    0.81
  16   2  -9    1.34    0.52
  18   4  -3    0.97    0.86
  19   3  -7    2.05    0.79
  20   2 -10    1.92    0.64
  22   2 -10    0.35    0.63
  23   3  -7    1.20    0.67
   4   2  -1   49.75    0.66
   7   3  -1   11.15    0.64
   8   2  -5    5.63    0.54
   9   3  -3   18.32    0.81
  11   5   7    0.71    0.74
  12   4  -1    0.64    0.67
  13   5   5    1.43    0.81
  14   4  -2   49.73    1.25
  15   1 -11    1.45    0.48
  15   5   3    6.06    0.79
  16   4  -3    0.92    0.74
  17   3  -7    1.35    0.64
  18   2 -10    6.28    0.70
  18   4  -4    1.26    0.75
  20   4  -4   -0.45    0.75
  21   3  -8   -0.13    0.76
  23   3  -8    0.48    0.76
   3   3   4   11.56    0.55
   6   4   5    8.74    0.68
   8   4   2   20.34    0.88
   9   1  -8    0.81    0.43
   9   5   9    4.73    0.63
  10   4   0   16.71    0.80
  11   3  -5   -0.21    0.63
  11   5   6   -0.38    0.73
  12   2  -8   28.23    0.82
  13   3  -6    5.90    0.67
  14   2  -9    6.44    0.68
  14   4  -3    1.15    0.74
  16   4  -4    1.57    0.71
  19   3  -8    2.09    0.73
   1   3   8   14.92    0.47
   4   4   8   16.89    0.70
   6   4   4   -0.18    0.56
   9   5   8    0.46    0.61
  10   2  -7   58.46    0.96
  12   4  -2    1.47    0.72
  13   5   3   -0.41    0.80
  16   2 -10    0.02    0.51
  17   3  -8    5.62    0.80
  17   5   1    0.76    0.71
  18   4  -5    2.14    0.85
  20   2 -11    0.86    0.61
  20   4  -5    0.43    0.68
  23   3  -9    1.24    0.74
   3   3   3    2.40    0.55
   5   3   0    3.29    0.53
   6   2  -4  154.22    1.25
   7   3  -2   11.73    0.54
   8   2  -6   11.02    0.61
   9   5   7    6.70    0.74
  10   4  -1    2.96    0.66
  11   5   4    3.67    0.78
  14   4  -4    0.74    0.73
  17   5   0    5.07    0.90
  18   2 -11    7.05    0.69
  19   3  -9    0.38    0.72
  21   3  -9    0.66    0.64
   1   3   7   61.01    0.79
   4   2  -2   39.20    0.67
   6   4   3    2.39    0.62
   7   1  -7   15.77    0.51
   9   5   6    6.59    0.74
  11   1 -10   21.04    0.60
  11   3  -6    8.83    0.79
  11   5   3    2.98    0.71
  12   2  -9    9.97    0.66
  12   4  -3    2.21    0.64
  13   1 -11    0.19    0.45
  14   2 -10    4.65    0.67
  15   3  -8    0.98    0.62
  15   5   0    0.84    0.83
  17   3  -9   -0.26    0.67
  18   4  -6    0.76    0.83
   4   4   6   48.28    1.00
   8   4   0    3.88    0.74
   9   5   5    0.04    0.73
  10   2  -8   77.80    1.09
  11   5   2    0.48    0.81
  14   4  -5    0.89    0.76
  15   5  -1    1.04    0.83
  16   2 -11    5.24    0.66
  16   4  -6   13.17    0.91
  17   5  -2    1.02    0.77
  19   3 -10    1.64    0.70
  21   3 -10    3.86    0.76
  23   3 -10    0.36    0.63
   3   3   2    2.69    0.53
   5   3  -1    2.67    0.61
   6   4   2   92.09    1.31
   7   5   8   30.24    0.93
   9   1  -9   15.69    0.54
   9   3  -5   59.98    1.11
  13   3  -8   22.11    0.94
  13   5   0    6.31    0.83
  15   3  -9    6.10    0.72
  18   2 -12   22.17    0.82
   1   3   6   80.13    0.87
   4   4   5   21.26    0.73
   6   2  -5  104.47    1.09
   7   5   7   11.68    0.78
   8   4  -1    5.68    0.84
   9   5   3   22.15    0.92
  10   4  -3    2.41    0.66
  11   3  -7   11.10    0.83
  11   5   1    1.62    0.79
  14   2 -11    2.91    0.69
  14   4  -6   -0.80    0.77
  14   6   6    0.47    0.66
  14   6   7   -0.13    0.76
  16   4  -7   17.54    0.96
  17   3 -10    3.78    0.71
  17   5  -3    0.09    0.84
  20   4  -8   -0.43    0.81
  21   3 -11    6.08    0.75
  23   3 -11    0.53    0.68
   4   2  -3    0.13    0.43
   6   4   1  108.02    1.41
   7   3  -4    0.82    0.54
   7   5   6    9.74    0.78
  12   2 -10    0.03    0.59
  12   4  -5    2.17    0.75
  13   1 -12   11.16    0.54
  14   6   5    2.63    0.85
  16   2 -12    2.24    0.62
  17   5  -4    0.59    0.84
  18   4  -8   -0.02    0.80
   4   4   4   18.47    0.75
   5   3  -2   34.30    0.86
   7   1  -8   91.16    0.88
   7   5   5    1.07    0.64
   8   4  -2    7.16    0.84
   9   3  -6    4.48    0.52
   9   5   2   40.36    1.16
  10   2  -9   69.27    1.05
  10   4  -4   -0.18    0.62
  11   1 -11    1.73    0.42
  12   6   6    0.88    0.65
  12   6   7    0.26    0.60
  13   3  -9    1.45    0.65
  13   5  -2    0.46    0.73
  14   4  -7    8.07    0.86
  14   6   4   -0.29    0.85
  15   3 -10    5.96    0.74
  17   3 -11    0.06    0.59
  20   4  -9    1.00    0.84
   9   5   1    0.38    0.70
  11   5  -1   -0.62    0.80
  12   4  -6    0.77    0.71
  13   5  -3    1.47    0.78
  14   6   3   -1.25    0.84
  15   5  -4    1.80    0.87
  18   4  -9   -0.51    0.81
   4   4   3    2.59    0.54
   6   2  -6   28.02    0.70
   7   3  -5    3.74    0.62
   7   5   3    2.53    0.70
   8   2  -8   22.98    0.73
   8   4  -3  135.48    1.73
   9   1 -10   24.92    0.59
   9   3  -7   26.90    0.86
  10   4  -5    0.46    0.64
  10   6   7    0.18    0.78
  11   5  -2   45.49    1.28
  12   2 -11    6.41    0.61
  12   6   4    1.83    0.81
  14   2 -12    0.37    0.56
  14   4  -8    1.73    0.73
  15   5  -5    0.75    0.79
  16   2 -13    0.55    0.56
  16   4  -9    0.83    0.71
  20   4 -10    0.22    0.81
   1   3   4    0.91    0.48
   2   4   7    0.19    0.42
   6   4  -1    1.23    0.67
   9   5   0    1.13    0.70
  12   4  -7    7.53    0.81
  12   6   3   14.18    1.04
  13   3 -10    7.31    0.68
  13   5  -4    1.47    0.80
  15   3 -11    1.17    0.62
  17   3 -12   -0.14    0.73
  18   4 -10    2.04    0.83
  21   3 -13    0.52    0.66
   4   4   2   -0.42    0.52
   5   5   6   -0.58    0.66
  10   2 -10    1.21    0.49
  10   4  -6    0.78    0.59
  10   6   5    1.07    0.79
  11   5  -3   17.70    1.05
  14   6   0    0.28    0.81
  15   5  -6    0.63    0.91
  17   5  -7   -0.29    0.84
  19   3 -13    3.25    0.69
  20   4 -11    0.39    0.80
   2   4   6   17.80    0.63
   6   4  -2    1.41    0.66
   7   3  -6   21.98    0.78
   7   5   1    1.28    0.63
   9   3  -8    0.11    0.58
  10   6   4    0.08    0.75
  12   4  -8   10.17    0.81
  13   5  -5   -0.09    0.73
  14   2 -13    3.32    0.65
  15   3 -12   22.69    0.90
  18   4 -11    2.85    0.84
   1   3   3    6.78    0.54
   3   3  -1   45.75    0.86
   4   4   1    2.30    0.54
   5   3  -4  213.04    1.66
   5   5   4   -0.65    0.77
   6   2  -7    0.29    0.51
   7   1  -9  120.08    1.01
   8   2  -9   14.95    0.64
   8   6   6    0.04    0.69
   9   5  -2   -0.32    0.77
  10   6   3   -0.10    0.72
  11   5  -4    0.73    0.80
  12   2 -12    4.63    0.62
  12   6   0   -0.13    0.86
  13   3 -11    0.93    0.58
  15   5  -7   -0.73    0.85
  17   3 -13    0.01    0.69
  17   5  -8    1.70    0.86
  20   4 -12    0.15    0.77
   8   4  -5    1.71    0.78
   8   6   5   -0.01    0.62
   9   1 -11    2.36    0.38
  10   4  -7   19.37    0.97
  10   6   2    0.85    0.66
  11   3 -10   13.12    0.81
  11   5  -5   -0.38    0.76
  12   6  -1   -0.80    0.90
  14   4 -10    2.12    0.80
  14   6  -3   -0.28    0.87
  18   4 -12    9.73    0.83
  19   3 -14    0.14    0.71
   2   4   4    8.71    0.61
   4   2  -5   39.65    0.74
   4   4   0    0.62    0.53
   5   5   3   36.67    1.10
   6   4  -3    3.49    0.57
   7   3  -7    7.81    0.67
   8   6   4    4.86    0.80
   9   5  -3    3.21    0.76
  10   6   1    0.29    0.82
  12   4  -9    4.29    0.75
  13   3 -12    5.72    0.71
  15   3 -13   10.56    0.78
  17   3 -14    0.32    0.64
  17   5  -9    0.66    0.74
  20   4 -13    0.49    0.64
   1   3   2    0.60    0.47
   3   3  -2   21.29    0.75
   5   3  -5   49.53    0.98
   7   5  -1    1.54    0.71
   8   4  -6    3.44    0.81
   8   6   3    1.94    0.80
   9   5  -4    0.13    0.78
  10   6   0    3.41    0.90
  11   5  -6    1.49    0.82
  14   2 -14    5.78    0.58
  14   4 -11    1.75    0.68
  14   6  -4    0.86    0.82
  15   5  -9    0.92    0.90
  16   4 -12    1.39    0.80
   2   4   3   30.72    0.79
   6   4  -4   44.33    1.12
   8   6   2    5.16    0.84
  11   1 -13    9.02    0.49
  11   3 -11    0.46    0.64
  12   2 -13   59.22    1.03
  12   6  -3    0.86    0.88
  14   6  -5    0.58    0.77
  18   4 -13   -0.12    0.67
   3   5   6   13.24    0.71
   7   3  -8   40.87    0.95
   8   4  -7    1.16    0.74
   9   3 -10   11.58    0.70
   9   5  -5   17.01    0.98
  10   2 -12   12.39    0.63
  10   4  -9   26.12    0.93
  11   5  -7    3.25    0.82
  12   6  -4    0.88    0.80
  15   5 -10    2.09    0.81
  17   5 -11    0.23    0.70
  -1   3   7   62.20    0.95
   1   5  18    0.34    0.59
   3   5  16    0.04    0.57
   5   3   4    0.23    0.57
   5   5  15   -0.29    0.63
   6   2   1  336.24    1.77
   6   4   8   29.65    0.98
  12   4   8    3.73    0.85
  16   4  10   12.21    1.01
  19   3   7    1.34    0.74
   0   4  10    0.06    0.58
   1   5  16    0.24    0.53
   1   5  17   -0.07    0.49
   2   4   9    4.19    0.77
   3   5  15    0.28    0.58
   4   4   8   16.77    0.95
   9   3   3   70.63    1.16
   9   5  13   -1.17    0.89
  10   4   7    3.59    0.79
  12   4   7    0.70    0.71
  15   3   4   18.83    0.92
  16   4   9    2.09    0.85
  17   3   5    0.20    0.66
  19   3   6    0.10    0.66
  -5   3  10    4.92    0.39
  -3   3   8    4.06    0.48
   3   5  14   -0.18    0.61
   6   4   7   23.71    0.98
   9   5  12    2.12    0.83
  11   5  13    1.93    0.87
  13   3   3    1.00    0.68
  14   4   7    1.29    0.76
  16   2   1   19.12    0.78
  16   4   8    2.28    0.75
  -2   4  11    1.70    0.57
   1   5  15    0.13    0.47
   3   3   4   10.87    0.68
   3   5  13   -0.05    0.51
   4   4   7   53.91    1.21
   5   5  12   17.19    0.98
   8   4   6    0.59    0.67
   9   5  11    0.79    0.79
  10   2   0   48.74    0.87
  10   4   6    3.67    0.76
  12   2   0    0.82    0.47
  12   4   6    5.59    0.84
  13   5  12    0.05    0.78
  15   3   3   21.21    0.88
  18   4   9   -0.09    0.81
  19   3   5    0.60    0.69
  -1   3   6   48.31    0.85
   4   2   1    5.29    0.44
   5   3   3  147.84    1.47
   6   4   6    0.30    0.81
   7   5  11    0.35    0.76
   9   3   2  142.49    1.52
  11   3   2   -0.02    0.61
  11   5  11    3.26    0.78
  13   5  11    0.69    0.79
  14   2   0   -0.85    0.54
  14   4   6    2.61    0.85
  16   4   7    1.23    0.78
  18   4   8    0.59    0.79
  -1   5  15    0.20    0.48
   3   5  12    0.05    0.50
   5   5  11    0.98    0.77
   8   4   5    1.05    0.66
   9   5  10    1.84    0.89
  10   4   5    7.84    0.77
  11   5  10    4.03    0.91
  12   4   5    6.44    0.83
  13   1  -2    1.26    0.33
  13   5  10    5.58    0.86
  16   2   0    3.30    0.62
  16   4   6   -0.15    0.68
  17   3   3    2.56    0.66
  18   4   7    0.38    0.77
  19   3   4    0.19    0.63
  -3   3   7    3.74    0.48
  -1   5  14    0.02    0.48
   0   4   8    1.34    0.59
   2   4   7   -0.50    0.61
   4   4   6   52.03    1.16
   6   2   0   17.57    0.60
   6   4   5    7.00    0.79
   7   3   2    3.12    0.44
   9   5   9    4.58    0.83
  11   5   9   -0.18    0.98
  14   4   5   12.17    0.89
  15   3   2    5.40    0.68
   1   5  12   -0.09    0.48
   3   3   3    1.29    0.60
   7   5   9   -0.86    0.80
  10   2  -1    4.32    0.54
  10   4   4    1.84    0.69
  11   3   1    4.01    0.61
  12   2  -1    0.08    0.45
  13   5   9    7.34    0.86
  16   4   5    0.24    0.79
  17   3   2    0.09    0.64
  18   4   6    4.76    0.80
  19   3   3    0.18    0.63
  -4   4  11    6.82    0.62
  -2   4   9    8.51    0.67
  -1   3   5    3.36    0.52
   1   5  11    0.85    0.66
   3   5  10    5.14    0.82
   4   4   5   20.33    0.90
   5   3   2   22.50    0.74
   6   6  15    0.06    0.56
   7   5   8   31.03    1.20
   9   3   1    0.68    0.61
   9   5   8    0.04    0.73
  13   3   1    1.84    0.68
  13   5   8    0.90    0.93
   0   4   7   44.71    0.98
   4   6  15   -0.20    0.68
   4   6  16    0.30    0.59
   6   4   4    0.91    0.67
   6   6  14    0.10    0.55
   9   5   7    7.37    0.83
  11   5   7    0.63    0.87
  16   2  -1    0.91    0.50
  16   4   4    0.77    0.79
  18   4   5    7.73    0.88
  20   4   6    0.97    0.76
  -5   3   8    5.60    0.48
  -1   5  12   -0.12    0.45
   1   5  10    5.62    0.78
   2   6  16   -0.34    0.59
   4   2   0   -0.01    0.40
   6   6  13   -0.09    0.57
   7   5   7   10.43    1.00
   8   4   3    4.11    0.82
  10   4   3    1.70    0.62
  13   5   7    0.53    0.72
  17   3   1    0.23    0.57
  -1   5  11   35.73    1.10
   1   3   3    7.87    0.57
   2   6  15   -0.27    0.58
   3   3   2    3.67    0.62
   3   5   8   18.00    0.90
   4   4   4   17.97    0.82
   4   6  13   -0.17    0.64
   5   5   7    3.89    0.75
   6   6  12    1.13    0.76
   9   5   6    6.67    0.90
  11   1  -3   96.43    0.91
  11   3   0    0.67    0.60
  11   5   6    0.10    0.87
  13   1  -3    6.16    0.44
  13   3   0   21.31    0.89
  13   5   6    0.23    0.85
  15   3   0    0.81    0.65
  16   4   3    1.45    0.74
  18   4   4    3.50    0.69
  20   4   5    2.32    0.74
   0   4   6    0.40    0.55
   1   5   9    3.18    0.71
   2   6  14    0.23    0.59
   5   3   1    0.80    0.52
   6   2  -1    0.45    0.45
   7   5   6   10.33    0.90
   8   6  11    1.99    0.89
  10   2  -2   10.73    0.59
  12   2  -2    4.58    0.49
  14   2  -2  116.66    1.27
  15   5   6   -0.56    0.90
  18   4   3   -0.21    0.76
  20   4   4    1.22    0.69
  -1   3   4    6.33    0.53
  -1   5  10   15.09    0.92
   2   6  13   -0.20    0.51
   3   5   7    1.09    0.82
   5   5   6   -0.32    0.67
   6   6  11    0.55    0.83
   7   3   0   17.75    0.71
   8   6  10   -0.94    0.88
  10   6  10   -0.04    0.80
  11   5   5    8.49    0.88
  13   5   5    1.04    0.90
  15   5   5    5.75    0.96
  17   5   6    3.50    0.88
  -4   4   9    7.31    0.59
  -2   4   7    1.25    0.56
   1   5   8    3.67    0.67
   4   4   3    2.47    0.68
   4   6  11    0.70    0.77
   6   6  10    1.79    0.90
   7   5   5    0.65    0.77
   8   2  -2   15.13    0.58
   8   6   9    1.04    0.85
  10   6   9    4.66    0.92
  13   3  -1   -0.55    0.58
   0   6  14   -0.28    0.54
   3   3   1  362.55    2.03
   6   4   2   91.89    1.46
  10   4   1    1.09    0.63
  10   6   8    8.66    0.91
  11   5   4    4.11    0.80
  12   4   1    2.15    0.64
  12   6   8    0.44    0.86
  14   4   1   -0.43    0.68
  15   5   4    7.50    0.93
  17   5   5   -1.06    0.76
  18   4   2    0.56    0.65
  -3   3   5   24.79    0.64
  -3   5  11    0.57    0.58
  -1   5   9    2.27    0.71
   0   6  13    0.11    0.55
   1   3   2    0.87    0.49
   3   5   6   13.37    0.93
   4   2  -1   50.92    0.71
   5   3   0    2.73    0.58
   5   5   5    1.05    0.67
   7   5   4    2.10    0.79
   8   6   8    0.52    0.91
  16   4   1    7.63    0.75
  17   3  -1   34.92    0.96
  17   5   4    1.10    0.82
  -4   4   8   24.65    0.75
  -1   3   3    0.74    0.51
   4   4   2    0.34    0.64
   4   6   9    4.86    0.94
   7   3  -1   11.51    0.63
   8   6   7   -0.23    0.79
   9   5   3   22.61    1.03
  10   6   7   -0.07    0.88
  11   5   3    3.00    0.80
  12   4   0   -0.38    0.63
  12   6   7    0.37    0.76
  14   2  -3    1.68    0.49
  14   4   0    0.00    0.62
  15   5   3    5.63    0.91
  18   4   1    1.26    0.69
  -3   5  10    3.46    0.65
  -1   5   8    2.46    0.73
   2   4   3   32.53    0.89
   2   6  10    2.11    0.75
   6   2  -2    1.78    0.43
   6   4   1  111.63    1.53
  10   2  -3    4.38    0.50
  10   4   0   16.15    0.83
  10   6   6   -0.10    0.77
  11   3  -2  149.72    1.54
  12   6   6    0.95    0.92
  13   3  -2    0.77    0.61
  15   3  -2    1.17    0.65
  16   4   0    2.52    0.72
  17   5   3    1.11    0.80
   0   4   4    8.97    0.65
   0   6  11    2.77    0.72
   1   5   6   31.44    1.03
   2   6   9    0.92    0.82
   4   6   8    3.71    0.80
   8   4   0    2.59    0.79
  17   3  -2    1.89    0.61
  18   4   0    0.45    0.67
  -4   4   7    8.32    0.65
  -1   5   7   15.96    0.91
   0   6  10   -0.09    0.78
   3   3   0  168.01    1.45
   4   6   7   13.80    0.97
   5   5   3   38.26    1.11
   6   6   6   -0.47    0.77
   8   2  -3  387.42    1.84
   9   5   2   41.27    1.20
  12   4  -1    0.39    0.61
  12   6   5   -0.21    0.94
  17   5   2   -0.22    0.76
  -5   3   6    0.53    0.35
   1   5   5   60.53    1.31
   2   4   2   20.89    0.81
   4   4   1    2.59    0.66
  11   5   1    1.25    0.81
  12   6   4    2.63    0.78
  13   3  -3    3.21    0.65
  13   5   1   -0.11    0.80
  15   3  -3    3.62    0.69
  15   5   1    0.04    0.83
  16   4  -1   -0.22    0.60
  19   5   2    0.17    0.79
   0   4   3    0.81    0.55
   4   6   6   13.25    1.01
   6   6   5    0.66    0.83
   9   5   1    0.10    0.79
  10   6   4    0.66    0.90
  11   3  -3   54.38    1.00
  12   2  -4   29.89    0.68
  18   4  -1    2.52    0.67
  -3   5   8    0.11    0.66
  -1   3   2   95.90    1.01
  -1   5   6   10.28    0.88
   2   6   7    1.03    0.77
   3   7  11    0.49    0.65
   4   2  -2   38.46    0.62
   8   6   4    5.06    0.93
   9   3  -3   17.09    0.66
  10   2  -4    0.01    0.43
  12   6   3   15.98    1.11
  13   5   0    6.22    0.82
  14   4  -2   51.70    1.24
  15   5   0   -0.16    0.68
  16   4  -2    0.43    0.56
  19   5   1    2.74    0.80
  -4   4   6    1.15    0.49
  -2   4   4   70.55    1.06
   0   6   8    1.00    0.72
   1   5   4    0.18    0.75
   1   7  12   -0.22    0.63
   3   7  10    0.63    0.75
   4   4   0    0.62    0.63
   4   6   5    4.44    0.85
   5   7   9   -0.26    0.86
   6   6   4    1.28    0.79
  10   6   3    0.42    0.79
  11   5   0    0.17    0.72
  17   5   0    4.51    0.80
  18   4  -2    1.19    0.62
  -3   5   7    2.04    0.74
  -1   5   5    1.07    0.77
   1   7  11    0.19    0.61
   2   6   6    3.75    0.82
   3   3  -1   44.54    0.85
   6   4  -1    0.36    0.49
   8   6   3    1.95    0.81
  12   6   2    0.10    0.88
  13   3  -4    3.75    0.62
  15   3  -4    4.06    0.64
  19   5   0    0.62    0.72
  -3   3   3   41.57    0.71
  -2   6   9    0.39    0.71
   0   4   2    0.21    0.54
   0   6   7    8.64    0.89
   3   5   2    3.05    0.71
   3   7   9    0.66    0.84
   5   5   1    0.83    0.67
   6   6   3    0.52    0.80
   7   3  -3    0.16    0.51
   7   5   0    4.16    0.78
   8   2  -4   46.48    0.78
   8   4  -2    6.50    0.77
  10   6   2   -0.03    0.86
  11   3  -4    0.54    0.53
  11   5  -1   -0.78    0.88
  12   4  -3    2.29    0.60
  13   5  -1    0.03    0.68
  14   2  -5    2.05    0.49
  14   4  -3    0.56    0.68
  15   5  -1    0.67    0.68
  16   4  -3   -0.21    0.62
  17   5  -1   11.50    0.92
   1   5   3    1.31    0.69
   1   7  10    0.40    0.72
   2   6   5    3.62    0.82
   3   7   8    4.20    0.88
   5   7   7   -0.60    0.89
   9   5  -1   -0.47    0.76
  12   2  -5    3.52    0.48
  12   6   1   -0.37    0.86
  18   4  -3    1.12    0.62
  19   5  -1    0.17    0.63
  -4   4   5    8.77    0.59
  -3   5   6   21.01    0.91
  -2   4   3    0.51    0.53
  -2   6   8    4.64    0.75
  -1   5   4    1.08    0.71
   1   7   9    0.80    0.69
   4   4  -1   13.15    0.71
   5   7   6    0.51    0.80
   6   6   2   23.84    1.11
   7   7   5    1.54    0.77
   9   3  -4    0.57    0.51
  10   6   1    0.03    0.85
  13   5  -2    0.09    0.75
  15   5  -2    1.26    0.76
   1   5   2    0.19    0.70
   3   3  -2   21.43    0.68
   4   2  -3   -0.24    0.39
   5   3  -3   96.77    1.13
   7   5  -1    2.74    0.72
   8   4  -3  125.44    1.65
   8   6   1    2.05    0.89
  10   2  -5    3.15    0.52
  12   4  -4    9.43    0.68
  12   6   0    0.24    0.86
  13   3  -5   -0.06    0.55
  14   4  -4    0.23    0.67
  15   3  -5    0.83    0.59
  16   4  -4    1.67    0.61
  17   5  -2    1.29    0.63
  -2   6   7    0.18    0.66
   0   6   5    4.56    0.81
   1   7   8    1.39    0.76
   3   7   6    0.43    0.81
   5   7   5    0.28    0.91
   6   6   1   22.39    1.05
   7   3  -4    0.19    0.50
   7   7   4   -1.15    0.92
   9   5  -2   -0.24    0.74
  11   3  -5    0.24    0.56
  15   5  -3    1.08    0.79
  19   5  -2   -0.41    0.60
  -3   5   5    4.64    0.65
   1   3  -1    0.03    0.34
   1   7   7    1.90    0.84
   2   6   3    6.02    0.85
   3   5   0   48.98    1.15
   5   5  -1   -0.29    0.68
   6   4  -3    4.50    0.64
   8   6   0    0.50    0.88
  10   4  -4   -0.23    0.63
  13   5  -3    0.55    0.71
  14   2  -6    0.08    0.45
  14   6  -1    4.79    0.88
  17   5  -3   -0.23    0.73
  -4   4   4    3.99    0.53
  -2   4   2    5.24    0.55
  -2   6   6    2.25    0.73
   0   6   4    1.14    0.68
   2   4  -1    1.99    0.63
   3   7   5   -0.66    0.91
   5   7   4   -0.02    0.82
   7   5  -2    4.58    0.69
   7   7   3    0.69    0.78
   8   2  -5    5.21    0.52
   8   4  -4   20.57    0.90
   9   3  -5   58.24    1.02
   9   5  -3    3.90    0.74
  10   6  -1    0.84    0.90
  12   2  -6    1.71    0.50
  14   4  -5    0.31    0.64
  16   4  -5    3.06    0.65
  -1   7   8    1.11    0.72
   1   7   6    5.80    0.99
   2   6   2    5.18    0.81
   4   6   1    0.93    0.84
   6   6   0   -0.46    0.76
   8   6  -1    0.82    0.82
  12   4  -5    1.61    0.60
  13   3  -6    5.78    0.64
  13   5  -4    0.60    0.73
  14   6  -2   12.23    1.01
  15   3  -6    3.75    0.66
  -2   6   5   33.87    1.14
  -1   5   2   17.05    0.87
   3   3  -3   39.69    0.85
   3   5  -1   10.34    0.78
   3   7   4    0.48    0.91
   5   3  -4  205.96    1.60
   5   5  -2    5.99    0.74
   7   5  -3   -0.74    0.65
   9   7   1    0.63    0.89
  10   2  -6    2.65    0.52
  10   4  -5    1.19    0.68
  10   6  -2    0.77    0.87
  11   3  -6    7.91    0.69
  -1   7   7    2.12    0.74
   0   6   3    0.46    0.73
   1   3  -2   94.37    1.06
   1   7   5   10.45    0.99
   2   4  -2    4.75    0.60
   4   4  -3    0.82    0.61
   4   6   0   -0.05    0.85
   7   7   1   -0.17    0.80
   8   6  -2    1.86    0.78
   9   5  -4    0.76    0.71
  14   4  -6    0.04    0.66
  14   6  -3    0.30    0.81
  16   4  -6   11.36    0.79
  16   6  -3   -0.30    0.67
  -4   4   3    0.06    0.47
  -2   4   1    2.74    0.51
   2   6   1    1.08    0.81
   3   7   3    0.34    0.96
   4   2  -4   23.31    0.63
   8   4  -5    2.01    0.75
   9   3  -6    5.24    0.61
   9   7   0    0.61    0.91
  10   6  -3    0.81    0.77
  12   4  -6    0.55    0.59
  13   5  -5   -0.09    0.77
  17   5  -5    0.27    0.69
  -6   4   5   32.59    0.70
  -5   3   3  101.95    1.02
  -5   5   5   16.11    0.80
  -3   3   1   45.92    0.76
  -3   5   3    9.40    0.77
  -2   6   4   14.06    0.90
  -1   5   1    0.89    0.68
  -1   7   6    2.20    0.78
   1   7   4   -0.49    0.89
   3   5  -2    4.08    0.70
   4   6  -1    2.22    0.77
   5   5  -3   24.56    0.98
   6   6  -2   -0.12    0.75
   7   5  -4    0.28    0.71
   7   7   0    1.40    0.91
  10   4  -6    0.59    0.64
  11   5  -5   -0.14    0.73
  13   3  -7   56.99    1.10
  14   6  -4    0.35    0.69
  15   3  -7    0.21    0.64
  -1   7   5    0.49    0.78
   2   6   0   -0.30    0.81
   3   7   2    0.84    0.86
   4   4  -4    4.43    0.62
   8   2  -6   10.16    0.54
   8   6  -3   28.72    1.23
   9   7  -1    0.45    0.94
  15   5  -6    1.04    0.74
  -4   4   2   10.71    0.65
  -2   4   0    0.80    0.48
  -2   6   3    0.18    0.71
   0   6   1    1.86    0.75
   1   7   3    0.81    0.83
   2   4  -3    0.60    0.59
   3   3  -4   25.31    0.76
   5   3  -5   49.84    0.92
   5   7   0   -0.47    0.96
   7   7  -1    0.51    0.87
  11   3  -7   11.19    0.69
  12   4  -7    6.48    0.65
  13   5  -6    2.00    0.74
  17   5  -6    3.05    0.70
  -5   5   4   59.02    1.15
  -3   5   2    4.06    0.72
  -1   5   0    0.78    0.73
  -1   7   4    0.08    0.82
   1   3  -3    0.26    0.51
   3   7   1   16.58    1.07
   4   6  -2    1.36    0.88
   5   5  -4   60.14    1.26
   6   6  -3    0.23    0.78
   7   5  -5    0.45    0.68
   8   6  -4    7.09    0.95
   9   7  -2    0.19    0.83
  11   5  -6    0.65    0.68
  12   6  -5    1.23    0.87
  14   6  -5   -0.33    0.82
  -6   4   4   46.22    0.81
  -2   6   2    0.91    0.77
   0   4  -2    0.17    0.51
   1   7   2   -0.21    0.75
   5   7  -1    0.17    0.91
   7   7  -2    2.03    0.89
   9   5  -6    0.52    0.73
  10   4  -7   19.62    0.89
  10   6  -5    0.18    0.88
  13   3  -8   23.33    0.86
  13   5  -7   17.02    0.98
  15   5  -7   -0.34    0.72
  17   5  -7    0.06    0.57
  -4   6   4    0.91    0.62
  -1   7   3    0.52    0.72
   0   6   0   70.73    1.48
   3   7   0   10.28    0.95
   4   2  -5   40.91    0.73
   4   6  -3    0.06    0.76
   6   4  -6    7.89    0.74
   6   6  -4    7.13    0.92
   9   7  -3   -0.87    0.95
  11   5  -7    1.61    0.73
  14   4  -8    1.38    0.63
  14   6  -6    0.37    0.79
  16   4  -8   -0.40    0.68
  16   6  -6    2.80    0.90
  -5   3   2   33.14    0.64
  -5   5   3   24.43    0.85
  -4   4   1   12.13    0.64
  -3   5   1    9.24    0.80
  -2   4  -1    9.51    0.63
  -1   3  -2    0.20    0.47
   1   7   1    0.58    0.76
   2   2  -4  223.57    1.34
   2   4  -4   63.93    1.18
   5   3  -6    0.52    0.55
   5   5  -5   15.58    0.90
   7   5  -6    2.98    0.73
   7   7  -3    0.26    0.82
   8   2  -7    2.76    0.56
   8   6  -5   -0.31    0.82
  11   3  -8    7.96    0.69
  12   2  -8   27.55    0.75
  12   6  -6    0.00    0.76
  -4   6   3   -0.05    0.62
  -2   6   1    0.27    0.70
  -1   7   2    1.31    0.80
   0   4  -3    0.46    0.59
   0   6  -1    1.75    0.78
   1   5  -3   -1.03    0.66
   3   7  -1   -0.36    0.84
   9   7  -4   -0.37    0.91
  13   5  -8    8.83    0.79
  14   6  -7    3.07    0.85
  15   5  -8    0.15    0.73
  17   5  -8    1.94    0.70
   1   3  -4    6.07    0.65
   5   7  -3    4.24    0.85
   6   6  -5    6.63    0.89
   9   3  -8    0.33    0.55
  11   5  -8    2.49    0.71
  12   6  -7    0.41    0.88
  13   3  -9    1.16    0.58
  14   4  -9    4.14    0.70
  -5   5   2    5.42    0.68
  -2   6   0    0.22    0.66
  -1   5  -2    0.85    0.69
  -1   7   1    0.60    0.71
   2   4  -5  136.38    1.52
   3   5  -5    4.37    0.68
   4   4  -6    1.76    0.68
   5   5  -6    0.30    0.67
   6   4  -7    0.79    0.72
   7   5  -7    0.22    0.75
   9   7  -5    2.23    0.99
  10   2  -8   78.17    1.02
  12   4  -9    3.19    0.71
  -4   6   2    1.17    0.64
  -3   3  -1  362.53    1.90
  -3   7   3    1.30    0.84
   0   6  -2    0.04    0.76
   1   7  -1    1.25    0.84
   5   7  -4   11.79    0.98
   6   6  -6    1.16    0.82
   7   7  -5   -0.98    0.93
  11   3  -9    5.06    0.62
  12   6  -8    2.63    0.89
  13   5  -9   -0.35    0.77
  14   6  -8    0.02    0.83
  -5   3   1    2.20    0.46
  -1   3  -3    7.80    0.57
  -1   7   0    0.08    0.73
   0   4  -4    9.83    0.70
   2   6  -4   13.46    1.00
   3   3  -6   98.43    1.24
   4   2  -6    5.04    0.52
   5   3  -7    5.15    0.56
   6   2  -7    0.72    0.47
   8   6  -7   -0.05    0.72
  10   4  -9   26.36    0.95
  11   5  -9    1.75    0.76
  -6   4   2    0.91    0.45
  -5   5   1    0.18    0.73
  -4   6   1    2.41    0.66
  -3   5  -1   89.06    1.40
  -3   7   2    0.05    0.79
  -2   6  -1    0.04    0.75
  -1   5  -3    1.00    0.69
   0   6  -3    1.09    0.74
   1   3  -5    4.08    0.60
   1   7  -2   -0.06    0.97
   4   4  -7    7.66    0.76
   6   4  -8   11.05    0.88
   7   5  -8   14.12    0.88
   8   2  -8   23.39    0.70
  12   2  -9   10.75    0.57
  14   4 -10    0.94    0.64
  14   6  -9    1.20    0.71
  -1   7  -1   -0.40    0.87
   1   5  -5    0.06    0.64
   2   2  -5  357.10    1.72
   2   4  -6    8.77    0.72
   2   6  -5   32.44    1.25
   4   6  -6   -0.34    0.80
   5   7  -5    4.09    0.86
   8   4  -9    6.16    0.72
   8   6  -8    0.39    0.88
  12   4 -10   -0.44    0.61
  12   6  -9    0.71    0.78
  13   3 -10    6.54    0.63
  13   5 -10    1.29    0.82
  15   5 -10    1.05    0.73
  -4   4  -1    2.53    0.52
  -3   5  -2    2.16    0.85
  -2   4  -3   31.22    0.82
  -2   6  -2    3.40    0.79
   1   7  -3    0.35    0.88
  10   4 -10    0.15    0.64
  11   3 -10   12.64    0.73
  11   5 -10    4.59    0.82
  -6   4   1    0.58    0.53
  -5   5   0    0.48    0.66
  -4   6   0    0.21    0.65
  -3   3  -2    3.10    0.54
  -1   5  -4   -0.77    0.64
   0   6  -4    0.83    0.78
   3   3  -7    3.50    0.58
   3   7  -5    0.09    0.96
   4   6  -7    0.76    0.74
   5   3  -8    5.13    0.60
   5   7  -6    0.14    0.91
   6   6  -8    0.47    0.80
   7   3  -9   65.48    1.12
   7   5  -9   22.07    0.98
   7   7  -7    0.15    0.93
  12   6 -10   -0.19    0.79
  14   4 -11    1.09    0.64
  14   6 -10    0.55    0.83
  15   5 -11    0.03    0.76
  -5   3   0    2.05    0.48
  -3   7   0    9.22    0.98
  -1   7  -2   -0.09    0.74
   0   2  -4   43.04    0.64
   1   7  -4    0.00    0.88
   2   4  -7    1.16    0.67
   2   6  -6    2.43    0.86
   4   4  -8   23.54    0.97
   6   2  -8   44.98    0.81
   6   4  -9    5.03    0.81
   8   6  -9    0.39    0.89
   9   3 -10   11.18    0.77
   9   5 -10    2.42    0.79
  12   4 -11    1.31    0.71
  13   5 -11    0.02    0.75
  -4   4  -2   -0.01    0.50
  -3   5  -3   -0.30    0.69
  -2   6  -3    5.20    0.83
   0   6  -5    4.48    0.86
   1   3  -6   46.60    0.94
   3   7  -6    2.72    0.82
   4   2  -7   29.82    0.74
   5   7  -7    1.41    0.89
   7   7  -8    3.83    0.95
   8   2  -9   14.91    0.65
  10   4 -11    5.60    0.77
  11   5 -11    1.31    0.80
  12   2 -10   -0.30    0.47
  13   3 -11    0.04    0.64
  14   6 -11    0.06    0.82
  -5   5  -1   -0.11    0.67
  -3   7  -1   16.89    1.05
  -1   7  -3    0.50    0.73
   0   4  -6    0.81    0.66
   1   7  -5    0.66    0.82
   2   2  -6   26.04    0.68
   3   5  -8    0.36    0.72
   4   6  -8    4.12    0.88
   5   5  -9   14.96    0.92
   6   6  -9    0.94    0.84
   7   5 -10   19.77    1.04
   8   6 -10    4.85    0.88
  11   3 -11    0.70    0.65
  12   6 -11    0.40    0.81
  14   4 -12    0.38    0.59
  15   5 -12    9.21    0.83
  -7   3   2   11.97    0.52
  -6   4   0    3.63    0.53
  -3   3  -3    1.76    0.54
  -2   6  -4    1.60    0.74
  -1   3  -5  234.89    1.74
   2   6  -7   -0.55    0.69
   3   3  -8    3.77    0.57
   4   4  -9    8.42    0.90
   5   3  -9   59.80    1.09
   5   7  -8    0.04    0.89
   6   4 -10    0.14    0.67
   7   3 -10   71.53    1.18
   9   5 -11   -0.79    0.74
  10   2 -10    1.22    0.48
  10   6 -11    0.42    0.92
  12   4 -12    3.79    0.59
  13   5 -12    2.18    0.83
  -5   3  -1    0.28    0.54
  -1   7  -4   -0.56    0.87
   1   7  -6    0.58    0.96
   4   6  -9    2.88    0.76
   5   5 -10    0.22    0.72
   6   6 -10    0.60    0.72
   8   4 -11    1.26    0.64
   9   3 -11    1.41    0.64
  11   5 -12    2.53    0.88
  -5   5  -2    5.12    0.72
  -4   4  -3    2.81    0.57
   0   2  -5  116.01    1.05
   0   4  -7   44.72    1.12
   1   3  -7   57.87    1.05
   2   6  -8    3.74    0.88
   3   5  -9    1.01    0.77
   5   7  -9    1.11    0.84
   6   2  -9   21.33    0.78
   7   5 -11    7.91    0.85
   8   6 -11    0.20    0.86
   9   5 -12    0.04    0.86
  10   4 -12    4.68    0.70
  12   6 -12    1.41    0.79
  13   3 -12    6.57    0.72
  15   5 -13    4.11    0.64
  -6   4  -1  113.45    1.35
  -4   6  -3   -0.59    0.71
  -3   7  -3   -0.23    0.79
  -2   6  -5    4.37    0.76
  -1   7  -5   12.00    0.99
   1   5  -8    3.10    0.70
   3   7  -8   -0.19    0.86
   4   4 -10   98.80    1.56
  11   3 -12    7.24    0.70
  12   2 -11    7.15    0.57
  14   4 -13    0.54    0.71
  -7   5   0    4.92    0.62
  -3   5  -5    1.21    0.64
  -1   3  -6   81.60    1.13
   2   2  -7    7.49    0.59
   2   6  -9    0.73    0.89
   3   3  -9    6.37    0.66
   4   6 -10   22.45    1.16
   5   5 -11    3.54    0.77
   6   6 -11    1.56    0.84
   7   3 -11   28.64    0.92
   8   4 -12    6.44    0.74
  11   5 -13    1.41    0.82
  12   6 -13    6.39    0.93
  -7   3   1   11.67    0.51
  -5   5  -3   36.54    1.12
  -4   4  -4   18.40    0.80
  -4   6  -4    3.24    0.74
  -3   7  -4    0.79    0.81
  -2   6  -6    4.15    0.88
  -1   7  -6    6.01    1.01
   3   7  -9   -0.08    0.82
   9   3 -12    3.97    0.69
   9   5 -13    5.20    0.77
  10   2 -11   17.55    0.68
  10   4 -13   -0.80    0.69
  10   6 -13    1.10    0.74
  -7   5  -1    1.25    0.71
  -6   6  -2   23.47    0.93
  -5   3  -2   22.04    0.68
  -5   7  -2    0.13    0.82
   0   4  -8    0.76    0.66
   1   3  -8    6.78    0.65
   1   5  -9    2.10    0.69
   4   6 -11    0.82    0.85
   6   6 -12   -0.02    0.78
   9   1  -9   15.05    0.48
  13   5 -14    0.04    0.74
  -5   5  -4   -0.19    0.65
  -4   6  -5    3.91    0.85
  -3   5  -6   12.77    0.80
  -3   7  -5   -0.61    0.83
  -2   6  -7    0.83    0.71
  -1   5  -8    3.33    0.72
  -1   7  -7    3.14    0.89
   0   2  -6    0.02    0.51
   2   4 -10    8.61    0.89
   2   6 -10    1.63    0.86
   3   7 -10    0.08    0.85
   4   4 -11    6.15    0.71
   5   5 -12    3.86    0.91
   6   2 -10    0.38    0.54
   8   4 -13    0.83    0.69
  11   3 -13    4.59    0.76
  11   5 -14   -0.12    0.73
  12   4 -14    4.74    0.76
  -5   7  -3    6.55    0.80
  -4   4  -5   21.14    0.83
  -2   4  -7    0.34    0.72
  -1   3  -7   62.95    1.06
   0   6  -9    1.44    0.85
   1   5 -10   14.42    0.96
   3   3 -10   17.28    0.81
   7   3 -12    0.45    0.63
   9   5 -14   16.10    1.09
  13   5 -15    5.28    0.75
  -7   3   0   17.87    0.56
  -7   5  -2    0.50    0.64
  -6   6  -3    0.67    0.64
  -5   3  -3  147.68    1.39
  -3   5  -7    3.29    0.69
  -3   7  -6    1.23    0.82
  -1   7  -8    0.88    0.78
   0   4  -9    3.73    0.77
   1   3  -9   10.40    0.68
   2   2  -8   91.74    1.10
   2   6 -11    0.45    0.83
   4   6 -12    1.65    0.89
   6   6 -13    1.40    0.91
  10   2 -12   12.77    0.66
  11   5 -15   -1.54    0.80
  -8   4   0    3.17    0.50
  -6   4  -3    2.50    0.64
  -5   5  -5    1.39    0.65
  -5   7  -4    0.82    0.70
  -4   6  -6   12.18    0.97
  -2   6  -8    2.47    0.78
  -1   5  -9    4.26    0.78
   0   6 -10    0.90    0.75
   1   7 -10    2.71    0.96
   2   4 -11    2.02    0.66
   3   5 -12    3.14    0.86
   4   4 -12    9.48    0.78
   5   5 -13    1.88    0.81
   8   4 -14   -0.10    0.71
  10   6 -15    3.27    0.80
  11   3 -14    1.19    0.74
  12   4 -15    1.82    0.74
  -6   6  -4    0.56    0.67
  -3   7  -7   -0.55    0.84
  -2   2  -5   90.11    0.96
  -2   4  -8    8.71    0.83
  -1   7  -9    1.19    0.83
   1   5 -11   35.98    1.27
   4   6 -13   -0.01    0.76
   6   6 -14    1.54    0.84
   7   1  -9  120.84    1.03
   7   3 -13    0.49    0.69
   9   5 -15    1.70    0.83
  10   4 -15    6.82    0.82
  13   5 -16    0.42    0.54
  -7   5  -3    2.37    0.68
  -5   7  -5   -0.11    0.76
  -4   6  -7   15.52    0.96
  -3   5  -8   18.40    0.94
  -2   6  -9   -0.38    0.86
  -1   5 -10    4.79    0.84
   0   2  -7  133.01    1.26
   0   4 -10    0.86    0.86
   2   6 -12    2.90    0.93
   3   3 -11    3.09    0.60
   6   2 -11   17.12    0.68
   8   2 -12   22.90    0.76
   9   1 -10   24.28    0.56
   9   3 -14   54.70    1.29
  11   5 -16   -0.14    0.64
  -8   4  -1   11.27    0.63
  -7   3  -1    8.69    0.49
  -6   4  -4   -0.38    0.59
  -6   6  -5    1.35    0.76
  -5   5  -6    0.23    0.61
  -3   7  -8    3.10    0.79
   0   6 -11    3.78    0.91
   1   3 -10   35.67    0.98
   2   4 -12    5.36    0.74
   3   5 -13    5.64    0.92
   6   4 -14   10.40    0.87
   7   5 -15    1.68    0.86
   8   4 -15    1.69    0.67
  12   4 -16   -0.16    0.78
  -7   5  -4    1.82    0.71
  -5   7  -6    0.32    0.76
  -4   4  -7   57.01    1.23
  -4   6  -8    3.25    0.76
  -2   4  -9    5.34    0.86
  -2   6 -10    1.81    0.82
  -1   7 -10   -0.39    0.73
   1   5 -12    0.62    0.78
   4   6 -14    0.65    0.87
   6   6 -15   10.43    1.03
   8   6 -16   -0.16    0.75
   9   5 -16    4.25    0.79
  10   2 -13    0.56    0.54
  10   4 -16    5.27    0.88
  11   3 -15    0.63    0.66
  13   5 -17    0.03    0.64
  -8   4  -2   19.66    0.82
  -6   4  -5    7.46    0.71
  -6   6  -6    0.84    0.78
  -5   5  -7    4.85    0.78
  -3   3  -7   11.91    0.68
  -3   5  -9    0.19    0.72
  -3   7  -9    0.40    0.78
  -1   3  -9   14.85    0.76
  -1   5 -11   -0.15    0.88
   0   4 -11   16.82    0.89
   0   6 -12    3.42    0.95
   3   3 -12   10.83    0.81
   3   5 -14   -0.16    0.75
   7   3 -14    5.46    0.79
  11   5 -17    1.60    0.71
  -7   3  -2    3.05    0.52
  -7   5  -5    0.17    0.75
  -5   3  -5    1.93    0.52
  -5   7  -7   -1.01    0.84
   0   2  -8    1.29    0.55
   1   3 -11  134.77    1.62
   1   5 -13    4.71    0.90
   2   4 -13   18.95    0.97
   4   4 -14    2.06    0.68
   4   6 -15    1.06    0.86
   6   2 -12    7.35    0.59
   6   4 -15   44.09    1.28
   6   6 -16   -0.50    0.85
   7   1 -10  149.98    1.22
   7   5 -16    4.73    0.79
   8   2 -13    2.18    0.56
   8   4 -16   -0.15    0.70
   9   3 -15    4.46    0.75
   9   5 -17    0.08    0.71
  12   4 -17    0.60    0.64
  -6   6  -7    5.81    0.83
  -5   5  -8    0.24    0.83
  -4   4  -8   17.20    0.95
  -3   7 -10   -0.31    0.76
  -2   4 -10    5.60    0.77
   0   4 -12   19.97    0.92
   2   2 -10   20.12    0.76
   2   6 -14   -0.91    0.75
   5   1  -9  122.59    1.08
   9   1 -11    1.89    0.41
  10   4 -17   -0.71    0.82
  11   3 -16    0.47    0.68
  -8   4  -3    5.62    0.63
  -6   4  -6   -0.32    0.69
  -5   7  -8   -0.04    0.82
  -3   3  -8   58.07    1.06
  -1   3 -10   25.38    0.90
  -1   5 -12    0.07    0.78
   3   5 -15   20.96    1.12
   4   4 -15    3.73    0.85
   5   3 -14    6.61    0.83
   5   5 -16   -0.51    0.88
   7   3 -15    2.65    0.80
   7   5 -17    4.43    0.86
  10   2 -14    8.76    0.67
  11   5 -18    5.05    0.81
  -7   3  -3   14.96    0.66
  -7   5  -6   10.57    0.81
  -6   6  -8    7.49    0.89
  -5   3  -6    3.46    0.62
  -4   6 -10   -0.34    0.84
   1   3 -12    1.27    0.71
   1   5 -14    0.18    0.77
   2   4 -14    0.85    0.74
   2   6 -15    0.27    0.83
   4   6 -16    0.31    0.76
   6   2 -13    6.07    0.66
   6   4 -16    3.00    0.73
   8   4 -17    0.13    0.73
   9   3 -16    9.00    0.79
   9   5 -18   -0.32    0.79
  12   4 -18    0.53    0.66
  -5   5  -9    2.13    0.79
  -5   7  -9    0.59    0.86
  -2   2  -7    1.05    0.38
  -1   5 -13   11.83    1.03
   0   2  -9   12.13    0.56
   0   4 -13    2.16    0.79
   0   6 -14   -0.92    0.85
   4   2 -12   29.71    0.85
   8   2 -14    1.42    0.63
  10   4 -18    0.00    0.79
  11   5 -19    2.15    0.85
  -8   6  -6    0.48    0.69
  -7   5  -7   12.38    0.87
  -4   6 -11    0.33    0.81
  -3   3  -9    2.61    0.63
  -1   3 -11   -0.34    0.68
   1   5 -15   -0.15    0.80
   2   2 -11    4.49    0.61
   2   6 -16   -0.20    0.89
   3   3 -14    0.90    0.82
   5   1 -10    8.86    0.60
   5   3 -15    0.95    0.66
   6   4 -17    0.04    0.72
   7   1 -11   61.54    0.88
   7   3 -16   13.88    0.82
   7   5 -18    0.78    0.89
  11   3 -17    2.81    0.65
  -7   3  -4    7.32    0.63
  -6   6  -9   -0.03    0.71
  -5   3  -7   19.78    0.71
  -5   7 -10   -0.51    0.83
  -2   4 -12   60.90    1.32
  -1   5 -14    2.03    0.79
   0   6 -15    1.62    0.87
   1   3 -13   14.85    0.89
   2   4 -15    0.48    0.78
   8   4 -18    5.11    0.89
   9   1 -12    7.79    0.49
   9   3 -17    2.50    0.63
   9   5 -19    1.89    0.87
  10   2 -15   12.57    0.69
  -9   3   0    6.12    0.41
  -8   4  -5   -0.04    0.63
  -8   6  -7   -0.53    0.72
  -7   5  -8   34.35    1.12
  -6   4  -8   29.87    1.05
  -4   6 -12    0.78    0.87
  -2   6 -14   -0.11    0.80
   0   4 -14    0.64    0.76
   3   5 -17   -0.13    0.87
   4   2 -13   -0.21    0.57
   6   2 -14   20.83    0.77
   7   5 -19    0.70    0.72
  10   4 -19    0.32    0.69
  11   5 -20    0.84    0.80
  -9   5  -5    0.27    0.65
  -6   6 -10    1.61    0.76
  -3   5 -13   -0.35    0.88
  -1   3 -12   -0.10    0.75
   1   5 -16    1.51    0.92
   2   2 -12   11.05    0.66
   2   4 -16    0.17    0.74
   5   3 -16    0.70    0.59
   6   4 -18   -0.71    0.79
   7   3 -17   10.53    0.79
   8   2 -15    1.80    0.64
   9   5 -20    0.28    0.75
   6   6  11   -0.14    0.53
   8   2   0   12.11    0.63
   8   6  11    0.23    0.54
  10   4   4    0.93    0.67
  10   6  12   -0.18    0.57
  11   3   2   -0.34    0.63
  13   1   0   40.39    0.84
  13   5   8    1.77    0.78
  18   4   8    0.22    0.79
  19   1   3    0.36    0.56
  19   3   6    0.60    0.74
  20   2   5    5.39    0.77
  22   2   7    0.98    0.69
   2   4   4    9.33    0.55
   7   1  -1   41.67    0.62
  10   6  11   -0.17    0.57
  12   0  -1    1.58    0.45
  12   4   4    6.35    0.81
  13   3   2    1.12    0.59
  14   2   1   -0.40    0.63
  14   4   5   12.59    0.86
  15   5   9   -0.63    0.84
  16   4   6    0.70    0.88
  17   3   4    0.69    0.80
  18   2   3    0.10    0.64
   1   3   2    0.54    0.41
   4   2   0    0.27    0.33
   5   3   1   -0.23    0.47
   5   5   6    0.06    0.34
   6   4   3    2.38    0.61
   7   3   1    8.21    0.59
   8   4   3    5.64    0.77
   8   6  10    0.04    0.52
   9   3   1    0.75    0.60
   9   5   6    6.03    0.75
  10   4   3    1.10    0.57
  11   1  -1    7.80    0.57
  13   5   7    0.11    0.80
  17   1   1   -0.17    0.58
  18   4   7    0.50    0.68
  19   1   2    3.41    0.65
  19   3   5    0.57    0.71
  20   2   4    2.11    0.71
  21   3   7    2.04    0.75
  22   2   6    1.66    0.68
   4   4   3    1.83    0.50
   6   6   9   -0.28    0.48
  10   6  10   -0.35    0.51
  11   3   1    4.36    0.65
  12   4   3   59.92    1.26
  14   4   4    2.87    0.74
  15   3   2    6.35    0.72
  16   4   5    1.14    0.74
  17   3   3    2.63    0.70
  18   4   6    4.57    0.85
  21   3   6    7.29    0.77
   5   5   5    1.59    0.56
   7   5   5    1.01    0.65
  13   1  -1   -0.33    0.47
  13   3   1    1.82    0.54
  13   5   6   -0.63    0.79
  14   0  -1   63.77    0.94
  14   2   0   -0.41    0.63
  15   5   7    0.90    0.75
  16   4   4    1.28    0.69
  19   3   4    0.40    0.76
  20   2   3   -0.35    0.69
  22   2   5   -0.56    0.66
   3   5   5    0.62    0.61
   8   2  -1   19.71    0.66
  10   2  -1    4.02    0.52
  10   4   2    1.17    0.54
  14   4   3    0.53    0.71
  15   5   6    0.26    0.67
  17   1   0   21.19    0.84
  18   4   5    7.40    0.88
  21   3   5    0.46    0.80
  22   2   4    0.28    0.66
   6   2  -1    0.96    0.42
   7   3   0   16.86    0.67
   7   5   4    1.91    0.63
   9   5   4    1.13    0.68
  11   3   0    1.40    0.65
  12   4   2    3.32    0.67
  12   6   8   -0.02    0.55
  13   5   5    0.21    0.76
  15   1  -1    1.56    0.55
  15   3   1    0.76    0.64
  16   2   0    3.47    0.62
  16   4   3    1.43    0.66
  18   2   1    2.11    0.68
  19   3   3   -0.42    0.71
   4   4   2   -0.07    0.44
   5   3   0    1.98    0.51
   5   5   4    0.62    0.61
   8   6   7    0.14    0.50
  10   6   7   -0.24    0.49
  11   1  -2  323.61    1.79
  11   5   4    3.40    0.76
  14   2  -1   46.32    1.05
  14   4   2    1.64    0.76
  15   5   5    5.75    0.79
  18   4   4    4.20    0.78
  21   3   4    2.32    0.72
  22   2   3    2.08    0.64
   0   4   3    0.20    0.44
   1   3   1    1.57    0.40
   1   5   5   59.73    1.00
   4   2  -1   48.65    0.65
   7   1  -2   15.91    0.48
   8   4   1    9.42    0.77
  10   4   1    1.59    0.60
  12   0  -2    8.46    0.47
  12   6   7   -0.04    0.54
  13   1  -2    1.09    0.51
  13   5   4    2.03    0.77
  15   3   0    0.21    0.64
  17   3   1    0.15    0.68
  19   3   2    1.53    0.79
   2   4   2   20.70    0.64
   3   5   4    2.28    0.61
   6   6   6   -0.20    0.47
   8   6   6   -0.12    0.48
   9   3  -1    2.51    0.56
   9   5   3   23.95    0.93
  10   6   6    0.19    0.53
  11   5   3    2.37    0.73
  14   4   1   -0.20    0.65
  15   5   4    7.93    0.89
  16   2  -1    1.53    0.66
  16   4   2    0.64    0.67
  17   1  -1   65.70    1.16
  20   2   1    4.32    0.74
  20   4   4    0.72    0.76
  21   3   3    0.48    0.64
   4   4   1    2.68    0.55
   5   5   3   37.54    1.00
   7   3  -1   11.53    0.60
  10   2  -2    9.79    0.49
  12   6   6   -0.06    0.50
  13   5   3    0.11    0.67
  14   0  -2  194.68    1.42
  15   1  -2    5.46    0.59
  17   3   0   10.13    0.83
  17   5   4    0.92    0.73
  18   4   2    1.10    0.69
  19   3   1    7.03    0.84
   1   5   4   -0.74    0.56
   8   4   0    3.64    0.71
   8   6   5   -0.54    0.53
   9   5   2   41.13    1.11
  11   5   2   -0.30    0.72
  12   4   0    0.11    0.62
  12   6   5   -0.26    0.56
  14   2  -2  120.62    1.51
  15   5   3    5.69    0.80
  16   4   1    6.76    0.83
  18   2  -1    5.73    0.63
  20   4   3   -0.27    0.75
  21   3   2    0.02    0.61
   3   5   3   -0.42    0.54
   5   3  -1    2.55    0.53
   6   2  -2    2.06    0.45
   7   5   2   -0.24    0.54
  13   5   2    0.04    0.68
  14   4   0    0.51    0.68
  16   2  -2    0.60    0.62
  17   5   3    1.73    0.80
  18   4   1    1.14    0.78
  19   1  -1    0.20    0.58
  19   3   0    0.71    0.65
  22   2   1    0.03    0.65
   0   4   2   -0.04    0.44
   5   5   2    5.63    0.68
  10   6   4    0.54    0.59
  11   1  -3   98.82    1.09
  12   6   4    2.68    0.85
  13   1  -3    7.09    0.53
  13   3  -2    0.80    0.61
  15   5   2    2.11    0.69
  20   4   2    0.26    0.66
  21   3   1   -0.09    0.66
   2   4   1    9.65    0.55
   4   4   0    0.48    0.52
   6   6   4   -0.05    0.44
   7   5   1    1.14    0.63
   8   4  -1    5.57    0.65
   9   5   1    0.34    0.69
  10   4  -1    2.40    0.59
  11   5   1    1.88    0.67
  12   0  -3    4.87    0.46
  12   4  -1   -0.12    0.63
  13   5   1    0.48    0.73
  14   4  -1   16.65    0.88
  15   1  -3    7.28    0.72
  18   2  -2    0.94    0.59
  20   2  -1    3.79    0.73
  20   4   1    1.65    0.78
  22   2   0    0.51    0.69
   1   3   0    1.97    0.38
   1   5   3    1.12    0.51
   3   5   2    2.52    0.59
   4   2  -2   39.96    0.63
   7   1  -3    3.64    0.36
   8   6   3    0.97    0.75
  10   6   3   -0.36    0.73
  12   6   3   14.48    1.02
  14   0  -3    6.63    0.52
  14   2  -3    2.06    0.62
  15   5   1   -0.62    0.74
  16   4  -1    0.63    0.62
  17   3  -2    2.25    0.65
  19   1  -2    0.14    0.61
  19   3  -1   -0.58    0.71
  21   3   0    0.30    0.72
  23   3   1    7.17    0.84
   5   5   1    0.06    0.62
   9   7   6    0.10    0.47
  11   3  -3   52.72    1.04
  13   5   0    5.75    0.77
  16   2  -3    0.51    0.65
  17   1  -3    4.29    0.69
  17   5   1    0.36    0.79
  20   4   0    9.86    0.94
   9   3  -3   18.06    0.72
  10   4  -2    4.63    0.61
  10   6   2    1.01    0.75
  12   4  -2    1.54    0.64
  12   6   2    0.44    0.83
  14   4  -2   49.01    1.23
  15   5   0   -0.08    0.82
  18   2  -3    2.42    0.60
  19   3  -2    0.82    0.68
  20   2  -2    0.00    0.57
  22   2  -1    1.29    0.62
  23   3   0    3.12    0.78
   2   4   0    0.75    0.47
   6   2  -3   15.29    0.49
   8   4  -2    6.63    0.72
   8   6   2    5.59    0.77
   9   7   5    0.07    0.53
  11   1  -4    0.00    0.44
  13   1  -4    6.59    0.50
  14   2  -4    1.60    0.57
  16   4  -2   -0.03    0.69
  17   5   0    4.92    0.88
   1   5   2   -0.03    0.48
   3   5   1   88.56    1.27
   4   4  -1   11.37    0.56
   5   5   0   -0.13    0.63
   6   6   2   24.06    0.95
   7   3  -3    0.11    0.49
  10   2  -4    0.14    0.48
  10   6   1   -0.25    0.67
  12   6   1    0.76    0.79
  13   5  -1    0.47    0.64
  14   6   1    0.32    0.66
  15   1  -4    5.92    0.63
  15   5  -1    0.96    0.79
  16   2  -4    3.72    0.70
  20   4  -1    1.04    0.71
  21   3  -2    2.18    0.74
  23   3  -1   -0.36    0.73
   7   5  -1    1.50    0.58
   8   2  -4   48.16    0.89
   8   6   1    1.54    0.76
   9   7   4    0.26    0.54
  10   4  -3    2.34    0.57
  11   3  -4    0.44    0.63
  12   4  -3    2.06    0.60
  13   3  -4    4.35    0.65
  14   4  -3    1.42    0.68
  16   4  -3    0.58    0.63
  17   1  -4    2.86    0.60
  17   5  -1   12.17    0.91
  18   2  -4    2.82    0.68
  -2   4   2    5.31    0.35
   4   6   2    0.29    0.54
   8   4  -3  130.39    1.57
   9   3  -4   -0.12    0.57
  12   6   0    0.06    0.73
  13   5  -2   -0.22    0.74
  14   6   0    0.03    0.69
  15   5  -2    0.88    0.82
  17   3  -4   -0.67    0.75
  20   4  -2    0.97    0.65
   3   5   0   49.33    0.99
   4   2  -3    0.50    0.36
   5   3  -3   95.12    1.07
   6   6   1   21.82    0.86
   9   7   3    0.18    0.52
  10   6   0    3.59    0.68
  14   2  -5    1.59    0.61
  17   5  -2    1.33    0.76
  19   3  -4    0.90    0.64
  20   2  -4   -0.67    0.64
  21   3  -3    0.34    0.67
  23   3  -2   -0.20    0.73
   1   5   1   -0.10    0.52
   2   4  -1    2.36    0.45
   4   4  -2   10.33    0.57
   5   5  -1    0.08    0.60
   6   2  -4  150.59    1.22
   7   1  -4    1.40    0.35
   7   5  -2    4.85    0.60
   7   7   3    0.08    0.48
   8   6   0    0.99    0.66
  10   2  -5    2.18    0.54
  10   4  -4   -0.42    0.54
  11   1  -5    0.58    0.53
  12   6  -1   -0.65    0.73
  13   1  -5    0.39    0.48
  13   3  -5    0.29    0.65
  13   5  -3    1.47    0.66
  14   4  -4    0.70    0.65
  15   1  -5    2.55    0.58
  16   2  -5    5.50    0.71
  16   4  -4    1.99    0.72
  20   4  -3    0.50    0.74
   0   4   0  353.22    1.76
   4   6   1    1.62    0.57
   6   6   0    0.57    0.61
   9   7   2   -0.11    0.52
  10   6  -1    0.96    0.79
  11   3  -5   -0.09    0.59
  11   5  -3   18.48    0.90
  15   5  -3    1.87    0.72
  17   1  -5    2.74    0.64
  17   3  -5    1.37    0.69
  17   5  -3    0.88    0.79
  18   2  -5    3.20    0.69
  21   3  -4    2.19    0.80
  23   3  -3    0.47    0.69
   7   7   2   -0.05    0.46
   8   4  -4   19.60    0.86
   8   6  -1    0.89    0.70
   9   3  -5   60.65    1.10
  14   4  -5   -0.23    0.70
  19   3  -5   13.71    0.96
  20   2  -5    1.37    0.67
  20   4  -4   -0.50    0.75
   3   5  -1    9.58    0.69
   5   3  -4  204.89    1.54
   7   5  -3   -0.74    0.66
   9   1  -5  139.45    1.18
   9   7   1   -0.28    0.59
  10   6  -2   -0.09    0.72
  11   5  -4    0.69    0.64
  12   4  -5    1.80    0.63
  13   3  -6    6.27    0.67
  13   5  -4   -0.08    0.77
  14   2  -6    0.44    0.63
  15   5  -4    1.04    0.81
  16   2  -6   31.82    1.01
  16   4  -5    3.13    0.68
  17   5  -4    0.40    0.68
  23   3  -4   -0.34    0.69
  -2   4   1    2.02    0.32
   1   3  -2   96.43    0.93
   1   5   0    0.69    0.47
   2   4  -2    4.24    0.48
   4   4  -3    0.01    0.48
   4   6   0    0.54    0.54
   6   6  -1    0.16    0.64
   7   3  -5    3.81    0.58
   7   7   1   -0.27    0.58
  10   4  -5   -0.06    0.55
  12   0  -5    8.60    0.46
  13   1  -6   14.79    0.71
  14   0  -5    4.56    0.45
  15   1  -6    9.17    0.66
  20   4  -5   -0.47    0.69
  21   3  -5   -0.41    0.68
   4   2  -4   23.94    0.60
  10   2  -6    1.57    0.45
  13   5  -5    0.26    0.64
  14   6  -3    0.19    0.69
  15   5  -5    0.86    0.75
  16   4  -6   11.58    0.88
  17   1  -6   17.25    0.82
  19   3  -6   10.77    0.88
  20   2  -6    3.46    0.76
  23   3  -5    0.53    0.71
   0   4  -1    4.27    0.41
   3   5  -2    3.76    0.64
   5   5  -3   23.50    0.90
   6   2  -5  104.41    1.08
   7   1  -5    9.05    0.46
   7   7   0    1.65    0.64
   9   3  -6    4.79    0.67
  11   1  -6   18.09    0.65
  11   5  -5    0.43    0.71
  16   2  -7   37.80    1.03
  17   5  -5    0.52    0.68
  21   3  -6   -0.20    0.75
   1   5  -1    0.53    0.52
   4   6  -1    2.40    0.56
   6   6  -2   -0.41    0.62
   7   5  -4    0.60    0.57
   8   2  -6   10.35    0.60
   8   6  -3   27.75    1.08
   9   7  -1    0.01    0.71
  10   0  -5    8.73    0.44
  13   3  -7   56.20    1.16
  14   2  -7   20.33    0.78
  14   6  -4    0.64    0.77
  17   3  -7    0.11    0.67
  20   4  -6    2.51    0.82
   4   4  -4    4.68    0.51
   9   1  -6   14.66    0.58
  10   6  -4    0.51    0.75
  11   3  -7   10.08    0.89
  13   5  -6    0.64    0.81
  14   4  -7    7.91    0.85
  15   5  -6    1.61    0.77
  17   5  -6    2.85    0.77
  20   2  -7    7.18    0.75
  23   3  -6   -0.25    0.70
  -2   4   0    1.32    0.37
   2   4  -3    0.38    0.45
   5   5  -4   60.33    1.16
   6   6  -3    0.87    0.58
   7   3  -6   21.68    0.64
   7   7  -1    0.30    0.64
   8   4  -6    3.91    0.76
   9   7  -2    0.30    0.71
  11   5  -6    2.08    0.70
  12   4  -7    6.86    0.71
  13   1  -7  106.69    1.25
  14   0  -6    0.42    0.46
  14   6  -5    0.29    0.72
  17   1  -7   -0.51    0.64
  20   4  -7    2.85    0.82
  21   3  -7    0.08    0.76
   1   3  -3    0.61    0.38
   3   5  -3    9.43    0.69
   4   6  -2    2.30    0.54
   8   6  -4    8.10    0.81
   9   3  -7   27.39    0.87
  14   2  -8    6.55    0.69
  15   5  -7    0.39    0.82
  16   2  -8   -0.40    0.56
  17   3  -8    5.60    0.75
  17   5  -7    0.44    0.75
  18   2  -8    1.39    0.65
  19   3  -8    0.61    0.78
  23   3  -7    1.53    0.67
   0   4  -2    0.19    0.38
   1   5  -2   17.43    0.66
   4   2  -5   40.04    0.72
   7   7  -2    1.63    0.64
   9   7  -3   -0.60    0.75
  10   6  -5    0.15    0.70
  11   1  -7   22.88    0.69
  11   3  -8    8.14    0.75
  13   5  -7   17.23    0.96
  14   4  -8    1.65    0.76
  14   6  -6    0.79    0.76
  16   4  -8    0.13    0.65
  20   2  -8    0.08    0.68
  21   3  -8    0.82    0.66
   4   4  -5   10.10    0.60
   4   6  -3    1.28    0.61
   5   3  -6    0.51    0.46
   6   6  -4    8.12    0.73
   8   4  -7    0.26    0.68
   8   6  -5   -0.31    0.66
  11   5  -7    2.56    0.72
  12   4  -8   10.28    0.81
  17   1  -8   12.20    0.85
  20   4  -8    0.38    0.72
   2   2  -4  229.55    1.26
   2   4  -4   64.85    0.95
   3   5  -4    7.47    0.69
   7   1  -6   49.86    0.78
   7   3  -7    7.46    0.61
   7   5  -6    4.03    0.64
   7   7  -3   -0.25    0.66
  10   2  -8   74.16    1.10
  10   6  -6    0.57    0.75
  13   3  -9    0.25    0.62
  13   5  -8   10.10    0.89
  14   6  -7    1.93    0.82
  15   1  -8    2.01    0.61
  15   3  -9    6.53    0.74
  15   5  -8   -0.02    0.69
  16   2  -9    0.41    0.56
  16   4  -9   -0.05    0.81
  17   3  -9    0.13    0.66
  17   5  -8    1.94    0.75
  18   4  -9   -0.14    0.72
  19   3  -9    0.35    0.78
  23   3  -8    0.33    0.75
  -1   3  -2   -0.06    0.36
   9   3  -8    0.93    0.47
   9   7  -4   -0.60    0.74
  10   0  -6    0.78    0.43
  11   5  -8    2.97    0.69
  13   1  -8   46.03    0.94
  14   2  -9    7.20    0.80
  14   4  -9    3.60    0.75
  20   2  -9    1.51    0.75
  21   3  -9    1.22    0.80
  -2   4  -1    9.48    0.40
   0   4  -3    0.10    0.44
   1   3  -4    5.77    0.51
   1   5  -3    0.16    0.48
   4   6  -4    1.04    0.60
   6   6  -5    6.83    0.74
   8   4  -8    6.44    0.68
   8   6  -6    1.06    0.74
  11   3  -9    4.51    0.80
  12   2  -9   10.07    0.72
  12   4  -9    4.69    0.72
  15   5  -9    0.54    0.77
  17   5  -9    0.07    0.75
  23   3  -9    1.52    0.72
   4   4  -6    1.28    0.53
   5   5  -6    0.14    0.54
   6   2  -7    0.19    0.53
   7   5  -7    1.14    0.64
   7   7  -4    0.52    0.64
   8   2  -8   22.59    0.71
   9   5  -8   -0.38    0.78
   9   7  -5    2.20    0.78
  10   4  -9   26.13    0.99
  11   1  -8   17.81    0.67
  13   5  -9    0.40    0.78
  14   6  -8   -0.49    0.79
  15   3 -10    5.56    0.72
  16   4 -10   -0.87    0.81
  17   1  -9    0.44    0.69
  17   3 -10    3.81    0.69
  18   4 -10    2.50    0.87
  19   3 -10   -0.05    0.74
  20   4 -10    0.40    0.73
   2   4  -5  135.36    1.33
   3   5  -5    3.99    0.63
   4   2  -6    4.99    0.49
   9   3  -9    6.32    0.77
  10   2  -9   67.65    1.09
  11   5  -9    1.94    0.73
  13   3 -10    6.28    0.67
  14   2 -10    4.06    0.81
  15   1  -9   13.30    0.73
  16   2 -10    0.90    0.65
  17   5 -10    1.18    0.72
  18   2 -10    7.28    0.79
  20   2 -10    1.61    0.68
   4   6  -5    2.26    0.60
   6   6  -6    1.30    0.63
   7   7  -5   -0.65    0.66
   8   6  -7    0.73    0.64
   9   7  -6   -0.66    0.78
  10   6  -8   11.45    0.93
  11   3 -10   11.93    0.75
  12   4 -10   -0.22    0.71
  13   1  -9    2.51    0.58
  14   6  -9    0.73    0.81
  15   5 -10    1.68    0.70
  17   3 -11   -0.17    0.58
  18   4 -11    4.17    0.91
   1   5  -4    0.89    0.53
   2   2  -5  368.85    1.65
   5   1  -6    0.82    0.37
   5   5  -7    0.78    0.61
   6   4  -8   11.70    0.82
   7   1  -7   15.24    0.48
   7   5  -8   13.36    0.81
   8   4  -9    6.85    0.71
   9   1  -8    1.21    0.54
   9   5  -9    1.77    0.71
  10   4 -10    1.28    0.66
  12   2 -10    0.66    0.64
  15   3 -11    0.47    0.62
  16   4 -11    1.68    0.75
  19   3 -11    3.36    0.68
  20   4 -11    0.00    0.78
  21   3 -11    6.75    0.85
  -2   4  -2   19.86    0.51
  -1   3  -3    6.78    0.47
   0   4  -4    9.57    0.52
   3   5  -6   20.42    0.83
   6   6  -7    0.08    0.70
   7   3  -9   66.78    1.13
   7   7  -6    0.15    0.70
   8   6  -8    1.07    0.76
   9   7  -7    1.42    0.77
  10   0  -7   74.36    0.88
  11   1  -9   16.95    0.65
  11   5 -10    5.52    0.74
  13   3 -11    0.40    0.58
  15   5 -11   -0.05    0.79
  16   2 -11    5.26    0.77
  17   1 -10    7.08    0.68
  17   5 -11    0.63    0.81
  18   2 -11    8.96    0.81
  20   2 -11    1.65    0.62
   1   3  -5    3.37    0.47
   2   4  -6    9.85    0.59
   4   6  -6    0.41    0.62
   5   3  -8    5.74    0.60
   6   2  -8   45.36    0.88
   8   2  -9   16.24    0.67
   9   3 -10   12.54    0.82
  10   2 -10    1.75    0.54
  10   6  -9    6.49    0.77
  12   4 -11    1.83    0.75
  13   5 -11    0.90    0.82
  14   2 -11    2.61    0.72
  15   1 -10   13.66    0.72
  17   3 -12    0.24    0.60
  18   4 -12   10.13    0.94
  19   3 -12    0.87    0.67
  20   4 -12    0.48    0.64
   1   5  -5    0.39    0.53
   5   5  -8    1.00    0.57
   6   4  -9    5.18    0.73
   7   5  -9   20.96    0.87
   8   4 -10   18.30    0.83
   9   5 -10    2.72    0.69
  10   4 -11    6.03    0.74
  11   3 -11    0.54    0.54
  11   5 -11    0.78    0.75
  12   0  -8   48.03    0.74
  13   1 -10   12.24    0.71
  14   4 -12    0.84    0.75
  15   3 -12   23.82    0.92
  21   3 -12   -0.57    0.74
   2   6  -5   32.24    0.89
   3   5  -7    1.23    0.64
   4   4  -8   22.23    0.83
   6   6  -8    2.04    0.70
   7   7  -7    0.89    0.66
   8   6  -9    2.87    0.74
   9   7  -8   -0.28    0.79
  10   6 -10    0.01    0.83
  12   2 -11    7.31    0.76
  12   4 -12    3.11    0.75
  13   3 -12    5.27    0.72
  15   5 -12    9.25    0.86
  16   2 -12    2.68    0.67
  18   2 -12   23.86    1.00
  20   2 -12    0.59    0.69
   0   4  -5   31.95    0.71
   4   6  -7    0.86    0.63
   7   1  -8   89.98    1.00
   7   3 -10   70.52    1.21
   7   5 -10   19.79    0.95
   9   1  -9   14.65    0.66
   9   3 -11    1.07    0.74
  12   6 -11    0.61    0.82
  13   5 -12    2.19    0.74
  14   0  -9   12.28    0.58
  14   2 -12    0.39    0.57
  15   1 -11    1.48    0.67
  17   1 -11   -0.15    0.59
  17   3 -13    0.53    0.73
  18   4 -13   -0.05    0.66
  21   3 -13    1.02    0.75
  -2   4  -3   31.61    0.62
  -1   3  -4    0.76    0.49
   1   5  -6   10.24    0.71
   2   2  -6   26.27    0.62
   2   4  -7    0.88    0.50
   2   6  -6    2.52    0.62
   5   1  -7   18.81    0.55
   5   3  -9   61.18    1.08
   5   5  -9   14.75    0.77
   6   2  -9   20.82    0.72
   7   7  -8    2.85    0.73
   8   2 -10   53.13    1.00
   8   4 -11    1.98    0.63
   8   6 -10    4.23    0.71
   9   5 -11   -0.01    0.64
  10   2 -11   17.31    0.85
  10   4 -12    4.24    0.71
  11   1 -10   21.47    0.72
  11   3 -12    4.93    0.73
  11   5 -12    1.18    0.81
  14   4 -13    1.76    0.82
  15   3 -13   11.33    0.87
   3   3  -8    4.67    0.51
   4   4  -9    7.24    0.70
   6   6  -9    0.71    0.67
  10   0  -8  116.03    1.03
  10   6 -11    1.51    0.77
  12   2 -12    5.23    0.80
  12   4 -13   25.33    1.12
  13   1 -11    0.33    0.59
  13   5 -13    0.35    0.74
  18   2 -13    0.61    0.72
  18   4 -14    0.05    0.78
   4   2  -8   75.06    0.99
   4   6  -8    6.12    0.62
   7   5 -11    7.70    0.73
   7   7  -9    3.40    0.79
  12   0  -9   18.53    0.56
  16   2 -13    1.07    0.65
  17   1 -12    0.88    0.60
  17   3 -14    0.30    0.78
  19   3 -14    0.94    0.79
  21   3 -14    0.66    0.74
   0   4  -6    0.80    0.45
   2   4  -8   26.06    0.76
   2   6  -7   -0.43    0.56
   5   3 -10    4.05    0.62
   5   5 -10    0.11    0.66
   6   4 -11    5.55    0.64
   6   6 -10    0.08    0.73
   7   3 -11   27.66    0.89
   8   4 -12    8.33    0.73
   9   1 -10   26.39    0.72
   9   3 -12    4.17    0.46
  10   4 -13   -0.04    0.75
  10   6 -12    1.13    0.74
  11   3 -13    5.92    0.71
  11   5 -13    0.62    0.83
  14   2 -13    4.02    0.66
  14   4 -14    1.65    0.78
  15   1 -12   41.74    1.02
  15   3 -14    1.94    0.74
  15   5 -14    0.45    0.72
  -2   4  -4    8.88    0.46
   1   5  -7   15.16    0.75
   3   5  -9    0.65    0.62
   4   6  -9    2.07    0.71
   6   2 -10   -0.97    0.55
   8   2 -11    1.75    0.57
  11   1 -11    2.91    0.51
  12   4 -14    4.17    0.91
  13   5 -14    0.39    0.70
  14   0 -10    3.60    0.48
  18   2 -14    1.39    0.75
  18   4 -15   -0.16    0.65
  19   3 -15    0.05    0.81
  -1   3  -5  237.98    1.47
   1   3  -7   61.48    0.94
   4   4 -10   96.62    1.45
   7   5 -12   -0.28    0.72
   7   7 -10    4.70    0.78
   9   5 -13    5.56    0.83
  10   6 -13   -0.10    0.64
  11   5 -14    1.76    0.68
  12   2 -13   63.82    1.22
  13   1 -12   12.44    0.75
  14   4 -15    0.79    0.80
  16   2 -14    6.84    0.78
  17   3 -15    1.46    0.86
  21   3 -15    0.09    0.78
   2   6  -8    4.32    0.61
   4   2  -9   17.49    0.70
   5   5 -11    3.21    0.72
   6   6 -11    1.16    0.71
   7   3 -12    0.56    0.69
   8   4 -13    0.55    0.73
   9   3 -13   11.45    0.74
  10   0  -9   88.97    0.94
  10   4 -14    5.69    0.84
  11   3 -14    1.57    0.67
  14   2 -14    5.12    0.75
  17   1 -13    1.18    0.60
  18   4 -16    0.58    0.68
  -1   5  -6   29.40    0.83
   0   4  -7   42.83    0.88
   1   5  -8    2.65    0.60
   2   4  -9    8.91    0.69
   3   5 -10    3.97    0.60
   4   6 -10   21.97    0.95
   5   3 -11    7.62    0.70
   6   4 -12    1.82    0.64
   7   7 -11    0.26    0.74
   8   0  -8   44.71    0.70
   8   2 -12   21.67    0.85
   9   1 -11    1.37    0.49
  12   0 -10    0.46    0.40
  15   1 -13   22.86    0.87
  17   3 -16    0.68    0.82
  18   2 -15    1.23    0.77
  19   3 -16    0.41    0.77
  21   3 -16    0.49    0.81
  -2   4  -5   25.65    0.64
   5   7 -10   -1.02    0.65
   6   6 -12   -0.49    0.62
   8   6 -13   -0.04    0.77
   9   5 -14   16.25    0.94
  10   6 -14    1.25    0.72
  11   1 -12   10.60    0.60
  11   5 -15    1.04    0.83
  12   2 -14   11.66    0.75
  13   1 -13    0.73    0.65
  14   4 -16    0.96    0.76
  15   3 -16    0.74    0.69
  16   2 -15    2.84    0.76
   1   3  -8    7.66    0.55
   2   2  -8   88.90    1.00
   2   6  -9    0.49    0.61
   3   3 -10   17.89    0.73
   5   5 -12    4.41    0.70
   6   4 -13    2.95    0.67
   7   3 -13    1.19    0.71
   8   4 -14    0.99    0.75
   9   3 -14   54.78    1.20
  11   3 -15   -0.01    0.70
  12   4 -16   -0.04    0.69
  13   5 -16    0.01    0.80
  14   2 -15    1.56    0.73
  17   1 -14    0.35    0.60
  -1   3  -6   83.51    0.98
   0   4  -8    0.95    0.56
   1   5  -9    1.71    0.61
   2   4 -10    8.41    0.74
   3   5 -11    1.26    0.62
   4   2 -10  245.10    1.72
   5   1  -9  124.14    1.13
   5   3 -12   17.67    0.84
   5   7 -11    0.73    0.67
   9   5 -15    3.25    0.81
  11   5 -16    0.39    0.71
  14   4 -17    4.00    0.76
  17   3 -17   11.65    0.99
  18   2 -16    0.08    0.74
  19   3 -17   -0.18    0.80
  -1   5  -7   13.86    0.69
   2   6 -10    2.04    0.67
   5   5 -13    1.60    0.63
   6   6 -13    2.46    0.74
   8   2 -13    2.35    0.65
   9   1 -12    8.75    0.61
  10   0 -10    1.08    0.43
  11   1 -13   10.63    0.70
  12   0 -11    7.07    0.51
  15   3 -17    1.43    0.82
  16   2 -16    0.79    0.70
  -2   4  -6   18.31    0.62
   1   3  -9    9.27    0.59
   3   3 -11    2.36    0.58
   6   2 -12    6.19    0.66
   6   4 -14   10.89    0.81
   7   3 -14    3.26    0.67
   8   0  -9   15.71    0.55
   8   4 -15    0.14    0.71
   9   3 -15    3.62    0.70
  10   4 -16    6.38    0.77
  11   3 -16   -0.15    0.74
  12   4 -17    1.25    0.81
  13   1 -14    0.24    0.61
  14   0 -12   -0.90    0.55
  14   2 -16    0.78    0.73
  19   3 -18   -0.31    0.71
  -3   3  -4   11.64    0.55
   0   4  -9    3.83    0.62
   1   5 -10   15.01    0.74
   2   2  -9   30.56    0.73
   3   5 -12    3.33    0.68
   5   3 -13    4.47    0.74
   5   7 -12    0.60    0.60
   6   6 -14    3.44    0.76
   8   6 -15    0.20    0.64
   9   5 -16    2.99    0.73
  11   5 -17    1.36    0.82
  14   4 -18    6.29    0.82
  15   1 -15    1.06    0.59
  16   2 -17    0.39    0.74
  17   3 -18    1.41    0.81
  18   2 -17    3.00    0.80
  -1   3  -7   63.58    0.93
  -1   5  -8    3.42    0.58
   3   1  -8    6.05    0.48
   4   2 -11   21.59    0.74
   5   1 -10    9.86    0.56
   5   5 -14    2.19    0.74
   8   2 -14    0.70    0.74
  10   4 -17   -0.11    0.78
  12   2 -16   -0.05    0.69
  15   3 -18    1.28    0.81
  -2   4  -7    0.04    0.46
   1   5 -11   36.01    0.98
   6   2 -13    5.92    0.65
   6   4 -15   46.49    1.23
   7   3 -15    1.84    0.72
   8   6 -16   -0.31    0.73
   9   1 -13   16.58    0.71
   9   3 -16    7.66    0.79
   9   5 -17   -0.47    0.82
  11   1 -14    1.55    0.60
  11   3 -17    0.82    0.73
  11   5 -18    5.64    0.78
  12   0 -12    8.24    0.53
  12   4 -18    1.65    0.71
  13   1 -15   33.73    0.97
  14   2 -17    8.38    0.79
  14   4 -19    1.56    0.66
  17   3 -19    1.02    0.71
  18   2 -18    1.44    0.75
  -1   5  -9    4.47    0.64
   0   4 -10    0.62    0.68
   2   6 -12    1.60    0.65
   3   3 -12   10.20    0.61
   3   5 -13    5.22    0.69
   5   3 -14    6.25    0.72
   6   6 -15   11.03    0.79
   8   0 -10   64.91    0.88
  15   1 -16    0.02    0.60
  15   3 -19    1.70    0.73
  16   2 -18    0.59    0.79
  -3   3  -5    3.17    0.48
  -1   3  -8   15.83    0.62
   2   2 -10   19.91    0.69
   4   2 -12   30.50    0.84
   4   6 -14   -0.31    0.68
   5   5 -15    0.03    0.62
   8   2 -15    2.78    0.72
   8   4 -17    0.78    0.77
   9   3 -17    0.80    0.73
  10   4 -18    0.32    0.89
  11   3 -18   13.27    0.87
  12   2 -17    1.06    0.67
  12   4 -19    2.46    0.80
  -2   4  -8    9.44    0.65
   3   1  -9   24.86    0.65
   3   5 -14   -0.08    0.64
   5   1 -11   17.31    0.68
   6   2 -14   21.28    0.87
   6   4 -16    1.31    0.76
   6   6 -16   -0.21    0.71
   7   3 -16   13.92    0.85
   9   1 -14  106.40    1.33
   9   5 -18    0.50    0.64
  11   1 -15    0.22    0.63
  13   1 -16    0.39    0.62
  14   2 -18   15.78    0.90
  14   4 -20   -0.80    0.81
  17   3 -20    0.27    0.84
  18   2 -19    4.05    0.74
  -1   5 -10    4.90    0.64
   0   2  -8    1.15    0.45
   0   4 -11   18.09    0.78
   2   4 -13   20.47    0.85
   2   6 -13    4.92    0.70
   3   3 -13   21.81    0.76
   4   6 -15    0.18    0.61
   5   3 -15    1.14    0.59
   5   5 -16   -0.16    0.74
   6   0  -9   25.03    0.57
  10   4 -19   -0.15    0.75
  15   1 -17    1.57    0.55
  15   3 -20    6.97    0.89
  16   2 -19    0.91    0.75
  -1   3  -9   15.38    0.62
   2   2 -11    3.97    0.56
   4   2 -13    0.73    0.65
   6   4 -17    1.09    0.70
   6   6 -17   -0.34    0.66
   8   0 -11    4.55    0.49
   8   2 -16   -0.38    0.60
   8   4 -18    6.79    0.79
   9   3 -18    1.27    0.79
   9   5 -19    2.48    0.80
  11   3 -19    8.28    0.86
  12   2 -18    0.03    0.69
  12   4 -20    6.64    0.79
  14   2 -19    0.53    0.66
  -3   3  -6   60.02    0.81
   1   5 -13    4.53    0.65
   2   4 -14    0.88    0.64
   2   6 -14    0.17    0.63
   3   3 -14    0.47    0.78
   3   5 -15   20.20    0.98
   5   5 -17   -0.08    0.76
   6   2 -15  114.59    1.57
   7   3 -17   10.97    0.82
   9   1 -15    5.14    0.71
  11   1 -16   -0.32    0.69
  13   1 -17   -0.19    0.59
  15   3 -21   -0.34    0.84
  18   2 -20   -0.11    0.68
  -1   5 -11    0.26    0.58
   0   4 -12   20.35    0.90
   3   1 -10   49.05    0.82
   5   1 -12   32.08    0.77
   5   3 -16    0.28    0.65
   8   4 -19    5.51    0.90
  10   0 -13    0.95    0.53
  10   4 -20   -0.41    0.80
  12   0 -14   17.11    0.72
  12   2 -19    5.75    0.75
  12   4 -21    1.26    0.84
  15   1 -18    3.82    0.64
  16   2 -20   -1.06    0.69
  -2   2  -6   54.54    0.70
  -1   3 -10   25.53    0.74
   1   5 -14    0.26    0.66
   3   5 -16    7.56    0.81
   4   2 -14    2.67    0.63
   6   0 -10    1.67    0.41
   6   4 -18    0.78    0.73
   7   3 -18    2.46    0.76
   8   2 -17   -0.66    0.69
   9   3 -19    9.81    0.88
  11   3 -20    1.26    0.75
  13   3 -21    0.31    0.83
  14   2 -20    0.38    0.76
  18   2 -21    0.02    0.62
  -3   3  -7   12.85    0.61
  -2   4 -10    5.63    0.61
  -1   5 -12    0.73    0.56
   1   1  -8   20.92    0.56
   2   2 -12   10.23    0.52
   2   4 -15    0.68    0.70
   2   6 -15    0.46    0.57
   3   3 -15   73.13    1.24
   4   6 -17    4.41    0.82
   5   5 -18    1.93    0.79
   6   2 -16    5.21    0.70
   8   0 -12   29.04    0.71
   8   4 -20    6.31    0.87
   9   1 -16   14.72    0.81
  10   4 -21    0.93    0.84
  11   1 -17    2.34    0.61
  15   3 -22   -0.04    0.81
  16   2 -21    2.81    0.75
  -4   4  -7   55.49    0.95
   0   2 -10    2.29    0.56
   0   4 -13    3.00    0.64
   3   1 -11    6.43    0.62
   3   5 -17   -0.81    0.77
   5   1 -13   11.10    0.66
   5   3 -17    1.81    0.67
   6   4 -19   -0.21    0.84
   8   2 -18   12.54    0.80
   9   3 -20    0.28    0.81
  11   3 -21    1.59    0.85
  12   0 -15   10.75    0.63
  12   2 -20   15.64    0.96
  13   3 -22    3.41    0.76
  15   1 -19    3.43    0.70
  -2   2  -7   -0.05    0.46
  -1   3 -11    0.35    0.54
   2   2 -13   51.97    1.04
   2   4 -16   -0.33    0.70
   2   6 -16    0.22    0.66
   4   2 -15    5.13    0.71
   4   6 -18    0.45    0.77
   5   5 -19    1.31    0.89
   7   3 -19    0.67    0.76
  10   0 -14   15.40    0.71
  10   4 -22    0.36    0.86
  11   1 -18   26.22    1.00
  14   2 -21    0.78    0.68
  18   2 -22    1.07    0.73
  -3   3  -8   58.45    0.91
  -2   4 -11   24.86    0.91
  -1   5 -13   11.50    0.75
   0   4 -14   -0.47    0.63
   3   3 -16   19.15    0.88
   5   3 -18    1.69    0.77
   6   0 -11   34.41    0.72
   6   2 -17   -0.12    0.62
   8   0 -13    2.30    0.51
   8   4 -21    0.46    0.81
   9   1 -17    5.49    0.76
  11   3 -22    0.67    0.75
  12   2 -21    1.34    0.88
  13   1 -19    0.58    0.64
  15   1 -20    8.38    0.81
  -4   4  -8   17.75    0.65
   0   2 -11   51.20    0.94
   1   1  -9   19.63    0.52
   1   5 -16    2.50    0.77
   2   6 -17    0.83    0.70
   3   1 -12   18.53    0.71
   3   5 -18   -0.01    0.77
   5   1 -14   16.10    0.71
   5   5 -20    5.68    0.77
   6   4 -20    6.30    0.83
   7   3 -20    0.64    0.74
   9   3 -21    8.75    0.89
  12   0 -16    0.05    0.58
  13   3 -23    2.24    0.84
  14   2 -22    1.52    0.81
  -2   2  -8   35.00    0.75
  -1   3 -12    0.77    0.61
  -1   5 -14    2.45    0.66
   2   2 -14    2.11    0.66
   2   4 -17    1.26    0.79
   3   3 -17    0.95    0.68
   4   2 -16    3.98    0.82
   5   3 -19    8.67    0.83
   6   2 -18    0.03    0.71
  10   0 -15   18.28    0.71
  11   1 -19    9.64    0.82
  13   1 -20    1.06    0.71
  16   2 -23    2.15    0.84
   5   1   7   41.26    0.72
   7   1   8  226.36    1.85
   7   1  21    0.10    0.59
   9   1  10    6.38    0.75
   9   1  17   -0.09    0.59
   9   1  18   -0.02    0.57
  12   0   3  225.76    1.81
  15  -1   0    0.13    0.52
  16   0  12    3.31    0.81
  16   0  13    1.40    0.81
  16   0  14    3.48    0.91
  19  -1   7    3.88    0.76
  19  -1   8    2.01    0.86
   5   1   6    6.72    0.54
   7   1   7   50.71    0.99
   7   1  22   -0.29    0.53
   7   1  23   -0.28    0.61
   9   1   9   31.02    1.01
   9   1  19    0.09    0.53
   9   1  20    0.15    0.62
  10   0   1    3.93    0.49
  14   0   5   53.08    1.16
  16   0  10   41.41    1.31
  16   0  11    3.36    0.82
  16   0  15    3.49    0.86
  16   0  16    0.24    0.93
  16   0  17    7.94    1.11
  17  -1   2   -0.14    0.63
  19  -1   6    1.68    0.74
   7   1  24    0.00    0.58
   9   1   8    0.74    0.63
   9   1  21    0.57    0.65
   9   1  22   -0.42    0.65
  11   1  11   23.11    0.96
  11   1  12   -0.81    0.72
  11   1  13   17.58    0.97
  11   1  14   50.69    1.33
  11   1  15   -1.05    0.81
  11   1  18   -0.56    0.60
  12   0   2   12.50    0.63
  14   0   4   15.14    0.87
  15  -1  -1    1.67    0.54
  16   0   7    0.48    0.69
   7   1   6  105.49    1.24
   9   1   7   59.22    1.09
   9   1  23    0.07    0.55
  11   1   9    6.45    0.74
  11   1  10   33.39    1.20
  11   1  19   -0.12    0.67
  11   1  20    0.42    0.59
  14   0   3    0.26    0.60
  16   0   6    1.82    0.68
  17  -1   1   -0.34    0.61
  19  -1   4    0.27    0.67
  21  -1  10   -0.26    0.86
  21  -1  11    0.01    0.74
   5   1   5    7.70    0.52
   9   1  24    0.06    0.65
  10   0   0   72.71    0.92
  11   1  21   -0.13    0.65
  12   0   1   12.40    0.64
  13   1  13    0.10    0.78
  13   1  14    0.29    0.86
  13   1  15    6.53    0.92
  13   1  16   24.91    1.15
  16   0   5    1.88    0.64
  18   0  10    1.75    0.81
  18   0  12    2.67    1.00
  18   0  13    9.70    1.11
  18   0  14    4.64    0.97
  18   0  15    0.24    0.94
  19  -1   3    0.04    0.58
  21  -1   8   -0.34    0.74
  21  -1   9    0.59    0.85
  11   1   7   10.37    0.77
  11   1  22   -0.13    0.60
  13   1  10   44.14    1.20
  13   1  11   10.91    0.93
  13   1  12    1.99    0.78
  13   1  17    0.76    0.86
  14   0   2    4.49    0.62
  16   0   4    0.84    0.80
  17  -1   0   22.48    0.79
  18   0   8    2.11    0.74
  18   0   9    0.25    0.84
  19  -1   2    2.93    0.70
  21  -1   6    9.65    0.94
   9   1   5    0.48    0.58
  13   1   9   36.03    1.10
  13   1  20    0.23    0.56
  18   0   7   -0.10    0.77
  21  -1   5    5.48    0.79
   5   1   4    3.00    0.44
   7   1   4   14.13    0.64
  11   1   6    5.74    0.70
  12   0   0    2.87    0.53
  13   1   8   14.55    0.85
  14   0   1   -0.21    0.50
  15   1  12    4.05    0.95
  15   1  13    0.56    0.88
  15   1  14   11.41    1.07
  15   1  15    0.72    1.02
  15   1  16    0.33    0.96
  15   1  17    1.29    0.92
  15   1  18   -0.67    0.81
  16   0   3    1.23    0.71
  18   0   6   14.49    0.98
   9   1   4    4.74    0.62
  10   0  -1    9.94    0.53
  11   1   5   63.62    1.14
  13   1   7    5.52    0.87
  15   1  10   -1.33    0.87
  15   1  11    6.40    0.90
  18   0   5   21.72    0.98
  20   0   9    0.81    0.84
  20   0  10    2.48    0.98
  20   0  11    1.79    0.87
  20   0  12    0.76    0.79
   2   2  17   39.24    0.95
   4   2  14   32.51    0.97
   4   2  15    9.67    0.71
   4   2  16   14.88    0.85
   4   2  17   -0.06    0.72
   4   2  18   -0.35    0.49
   4   2  19    0.05    0.47
   6   2  14    1.23    0.75
   6   2  15    0.06    0.76
   6   2  17   21.51    0.93
   6   2  19    0.04    0.47
  13   1   6   -0.24    0.76
  15   1   8    1.17    0.68
  15   1   9    1.01    0.77
  16   0   2    2.37    0.67
  18   0   4   15.25    0.89
  20   0   8    1.86    0.91
  23  -1   7    0.01    0.76
  23  -1   8    2.23    0.74
   2   2  14    4.31    0.55
   2   2  15    3.80    0.59
   4   2  13    1.37    0.62
   6   2  13    5.94    0.75
   6   2  20    0.13    0.49
   7   1   3   33.90    0.73
   8   2  14    1.72    0.67
   8   2  15   -0.30    0.68
   8   2  16    0.05    0.72
   8   2  17    2.95    0.80
   8   2  18   -0.16    0.59
   8   2  19   -0.01    0.54
   8   2  20   -0.13    0.56
  11   1   4   30.17    0.89
  12   0  -1    1.10    0.47
  13   1   5    4.48    0.74
  14   0   0    0.08    0.54
  15   1   7   12.07    0.86
  17   1  11    1.85    0.83
  17   1  12   -0.48    0.96
  17   1  13   -0.26    0.95
  17   1  14    0.48    0.93
  17   1  15    8.70    0.98
  17   1  16    0.99    1.00
  20   0   7    5.73    0.85
   0   2  15    7.21    0.55
   2   2  13    8.24    0.59
   4   2  12    2.92    0.56
   6   2  12   21.72    0.88
   8   2  13  120.44    1.65
   8   2  21   -0.02    0.59
   8   2  22    0.10    0.56
   9   1   3  117.05    1.27
  10   2  15    8.80    0.91
  10   2  16   23.75    1.09
  10   2  17    8.47    0.94
  10   2  18    0.47    0.72
  10   2  19    0.30    0.52
  16   0   1   36.46    0.99
  17   1   9    3.30    0.79
  18   0   3    0.00    0.59
  20   0   6    4.19    0.78
   0   2  14    0.00    0.47
   2   2  12  163.11    1.46
   4   2  11    4.05    0.55
   6   2  11    0.12    0.51
   8   2  23    0.06    0.55
  10   0  -2    9.09    0.52
  10   2  12    5.16    0.79
  10   2  20    0.14    0.62
  10   2  21   -0.44    0.59
  11   1   3   28.39    0.81
  18   0   2    2.69    0.68
  20   0   5    6.95    0.78
  22   0   9    1.34    0.87
   0   2  13   11.10    0.54
   2   2  11   58.61    0.95
   4   2  10    1.26    0.54
   7   1   2    7.23    0.50
   8   2  10    0.51    0.67
   9   1   2  344.27    1.92
  10   2  11    9.23    0.76
  10   2  22    0.01    0.53
  10   2  23    0.06    0.62
  12   2  13    6.37    0.84
  12   2  14    1.11    0.83
  12   2  17    0.71    0.84
  12   2  18   10.18    1.04
  12   2  19   -0.04    0.64
  12   2  20    0.02    0.64
  14   0  -1   62.91    0.99
  16   0   0    3.01    0.58
  19   1  11   17.26    1.04
  19   1  13   -0.54    0.87
  20   0   4    1.60    0.73
  22   0   7   -0.08    0.77
  22   0   8    0.84    0.80
   8   2   9   27.76    0.91
  10   2  10    0.34    0.74
  12   0  -2   10.53    0.51
  12   2  11   12.09    0.90
  12   2  12    1.17    0.74
  12   2  21    0.07    0.54
  14   2  15    8.54    0.95
  14   2  16    0.08    0.82
  15   1   4   43.42    1.15
  17   1   6   29.85    1.11
  20   0   3    0.01    0.63
  22   0   6    1.44    0.67
   0   2  12   60.70    0.81
   2   2  10    9.36    0.56
   4   2   9   68.34    1.03
   8   2   8   27.91    0.87
  10   2   9   55.51    1.24
  12   2  10    5.08    0.78
  14   2  12    1.59    0.81
  14   2  13    1.04    0.86
  14   2  14   11.58    0.95
  17   1   5   -0.04    0.71
  19   1   8    0.81    0.90
  22   0   5   -0.14    0.63
  10   2   8   59.77    1.28
  12   2   9    1.18    0.68
  13   1   2    3.23    0.58
  14   0  -2  191.60    1.47
  14   2  10    5.28    0.81
  14   2  11    0.26    0.83
  15   1   3   44.71    1.13
  16   0  -1    0.76    0.54
  16   2  15    3.56    0.93
  16   2  16   -0.10    0.77
  18   0   0    0.53    0.59
  19   1   7    4.54    0.81
  20   0   2    1.16    0.60
  22   0   4    1.25    0.72
   2   2   9   20.79    0.63
   4   2   8   52.81    0.93
   6   2   7   75.87    1.10
   7   1   1   17.05    0.51
   9   1   1   -0.69    0.48
  10   2   7   10.87    0.79
  12   2   8   11.68    0.80
  14   2   9   21.89    1.01
  16   2  12    2.62    0.96
  16   2  13    1.85    0.94
  16   2  14    1.17    0.81
  17   1   4    4.42    0.70
  19   1   6    1.20    0.75
  20   0   1    4.74    0.65
  21   1   9    0.19    0.74
  21   1  10    1.13    0.83
  12   2   7    0.61    0.77
  14   2   8    3.09    0.77
  15   1   2   11.54    0.82
  16   2  10   25.16    1.11
  16   2  11    3.06    0.88
  17   1   3    6.20    0.71
  19   1   5   -0.08    0.78
  21   1   8    0.38    0.79
  22   0   3    0.99    0.75
   0   2  10    1.98    0.43
   8   2   6    2.12    0.53
  10   2   6    9.57    0.73
  12   0  -3    4.66    0.43
  12   2   6   17.11    0.86
  14   2   7    2.52    0.69
  16   0  -2    0.28    0.46
  16   2   9   -0.10    0.85
  18   0  -1    5.67    0.65
  18   2  12    1.64    0.80
  18   2  13    4.63    0.94
  19   1   4    0.40    0.68
  21   1   7    2.62    0.86
  14   0  -3    6.36    0.46
  15   1   1    1.41    0.62
  16   2   8    4.53    0.87
  17   1   2    0.71    0.55
  18   2  10    1.21    0.74
  18   2  11   -0.42    0.85
  21   1   6   12.20    0.94
   5   3  18    5.58    0.66
   7   3  16    1.04    0.58
   7   3  17    2.19    0.67
   7   3  18    0.76    0.69
   7   3  19    2.88    0.64
   7   3  20   -0.03    0.51
   9   3  16    1.05    0.62
   9   3  17    1.55    0.75
   9   3  18   13.53    0.93
   9   3  19   -0.33    0.66
   9   3  20   -0.09    0.52
   9   3  21   -0.04    0.53
  10   2   5   21.57    0.71
  12   2   5   18.45    0.86
  13   1   0   40.50    0.85
  14   2   6    7.05    0.73
  16   2   7   -0.40    0.79
  18   2   9   -0.69    0.83
  19   1   3    0.51    0.62
  21   1   5    4.62    0.86
   0   2   9   12.83    0.48
   5   3  16    2.99    0.64
   5   3  17    2.18    0.62
   6   2   5   30.00    0.78
   7   1   0   34.55    0.61
   7   3  14    0.64    0.60
   7   3  15   28.77    1.00
   9   3  14    1.22    0.71
   9   3  15   -0.17    0.62
  11   3  14   20.61    0.96
  11   3  15    0.63    0.77
  11   3  16    0.28    0.80
  11   3  17    0.07    0.67
  11   3  19    0.02    0.67
  11   3  20   -0.02    0.58
  11   3  21    0.08    0.59
  14   2   5   32.37    0.94
  15   1   0    0.30    0.52
  16   0  -3    0.72    0.41
  16   2   6    2.18    0.73
  17   1   1    0.39    0.58
  18   2   8    0.24    0.84
  19   1   2    3.63    0.63
  21   1   4    1.74    0.75
  23   1   7    1.35    0.81
   2   2   7    0.28    0.44
   5   3  14   14.57    0.83
   5   3  15    3.82    0.68
   7   3  13    0.24    0.56
   8   2   4   94.09    1.18
   9   3  12    3.97    0.69
   9   3  13    3.04    0.64
  10   2   4    6.34    0.58
  11   3  13    9.71    0.95
  12   2   4   11.84    0.79
  13   3  15    3.59    0.84
  13   3  16   13.44    1.03
  13   3  17    0.83    0.72
  13   3  18    0.03    0.71
  16   2   5    1.58    0.66
  21   1   3    0.07    0.66
  23   1   6   -0.07    0.77
   3   3  15   -0.35    0.58
   3   3  16   15.12    0.76
   5   3  13   47.26    1.08
   7   3  12    2.34    0.70
  11   3  11   11.19    0.83
  12   0  -4   40.77    0.62
  13   1  -1   -0.18    0.45
  13   3  12    0.00    0.75
  14   2   4    7.61    0.68
  15   3  14    5.24    0.81
  15   3  15    0.86    0.81
  17   1   0   21.42    0.88
  19   1   1   15.39    0.81
   3   3  14    2.36    0.55
   4   2   5   72.96    0.91
   5   3  12   56.36    1.12
   7   3  11   -0.04    0.69
  10   2   3    2.84    0.57
  11   3  10   16.83    0.87
  12   2   3  155.70    1.66
  13   3  11    3.90    0.78
  14   0  -4    3.02    0.37
  15   1  -1    1.45    0.56
  15   3  12    4.53    0.77
  18   2   5   16.81    0.91
  21   1   2    0.30    0.66
  23   1   4    1.44    0.69
   2   2   6   56.33    0.75
   3   3  13    6.28    0.61
   5   3  11    1.10    0.58
   7   3  10   10.26    0.75
   8   2   3   10.64    0.64
   9   3   9   10.97    0.77
  11   3   9    2.83    0.68
  13   3  10   17.53    0.95
  15   3  11    4.27    0.91
  17   3  13    1.36    0.81
  19   1   0    2.04    0.59
  20   2   6    2.94    0.77
  23   1   3    1.11    0.64
   7   3   9    0.16    0.66
  10   2   2    2.26    0.49
  11   3   8    4.39    0.68
  12   2   2    4.83    0.64
  15   3   9    0.59    0.68
  15   3  10    0.19    0.72
  16   2   3    0.80    0.59
  17   3  11    0.85    0.78
  17   3  12    0.42    0.72
  18   2   4    8.97    0.77
  20   2   5    5.86    0.85
  21   1   1    0.68    0.64
  22   2   7    0.52    0.76
   4   2   4   70.99    0.87
   5   3  10   19.51    0.76
   9   3   8   -0.38    0.72
  11   1  -2  331.13    1.75
  13   1  -2    1.73    0.44
  13   3   8    6.50    0.74
  15   1  -2    5.19    0.55
  16   2   2    0.78    0.57
  17   3  10    0.67    0.79
  18   2   3    0.72    0.69
  19   1  -1    0.69    0.57
  20   2   4    1.10    0.77
  22   2   6    1.81    0.78
  23   1   2    1.31    0.60
   3   3  11   30.77    0.79
   8   2   2   58.05    0.93
   9   3   7   28.17    1.00
  15   3   7    3.49    0.76
  17   1  -2    3.89    0.63
  17   3   9    2.06    0.73
  22   2   5   -0.98    0.75
   1   3  13   29.69    0.73
   9   1  -2    5.71    0.47
  10   2   1    4.85    0.55
  11   3   6    1.71    0.64
  13   3   6    1.33    0.64
  14   0  -5    4.62    0.35
  14   2   1   -0.10    0.67
  16   2   1   20.19    0.78
  17   3   8    2.02    0.73
  18   2   2    2.60    0.68
  19   3   9   -0.39    0.79
  20   2   3   -0.59    0.74
   1   3  12    0.41    0.47
   3   3  10   26.28    0.73
   5   3   8    3.03    0.55
   9   3   6   31.05    0.96
  10   4  17    2.74    0.72
  10   4  18    0.12    0.60
  10   4  19    0.40    0.64
  12   4  17    0.16    0.77
  13   1  -3    5.96    0.56
  15   3   6    0.45    0.74
  17   3   7   -0.32    0.69
  19   1  -2   -0.18    0.49
  19   3   8    1.41    0.75
  20   2   2    0.22    0.68
  22   2   4   -0.47    0.70
   3   3   9    2.22    0.51
   6   2   2  253.84    1.54
   8   2   1   37.46    0.79
   8   4  16   -0.05    0.59
   8   4  17    1.15    0.64
   8   4  18    2.00    0.72
  10   4  15    3.35    0.79
  10   4  16    7.16    0.83
  11   1  -3   99.93    1.02
  11   3   5   22.48    0.95
  12   4  14    1.04    0.77
  12   4  15    1.27    0.80
  12   4  16   -0.45    0.77
  14   2   0    0.16    0.62
  14   4  15    4.86    0.83
  15   1  -3    6.68    0.60
  15   3   5   15.31    0.89
  17   1  -3    4.39    0.58
  17   3   6   14.20    0.92
  18   2   1    2.88    0.60
  19   3   7    1.09    0.79
  22   2   3    1.17    0.67
   1   3  11    0.08    0.47
   5   3   7   20.96    0.69
   6   4  16    0.48    0.63
   6   4  17    7.16    0.70
   7   3   6   38.01    0.87
   8   4  14    0.22    0.60
   8   4  15    0.30    0.68
   9   3   5    0.76    0.66
  10   2   0   50.15    0.86
  10   4  13   -0.03    0.69
  10   4  14    3.11    0.64
  12   4  13    1.86    0.78
  13   3   4    7.56    0.69
  14   4  14    4.66    0.84
  16   2   0    3.68    0.58
  17   3   5    0.33    0.73
  19   3   6    1.10    0.81
  20   2   1    3.49    0.73
  22   2   2    3.87    0.72
   6   4  15    0.53    0.57
   8   4  13   39.93    1.12
  10   4  12    1.27    0.73
  11   3   4   15.13    0.83
  12   4  12    0.09    0.67
  14   4  11    0.59    0.77
  16   4  12   -0.01    0.81
  17   3   4    0.76    0.68
  18   2   0    0.35    0.59
  19   1  -3    0.26    0.51
   1   3  10   25.58    0.67
   3   3   8   59.04    0.92
   6   4  14    0.76    0.59
   8   4  12   -1.35    0.65
   9   1  -3   36.87    0.64
   9   3   4    0.36    0.62
  10   4  11    3.14    0.70
  13   3   3    0.38    0.58
  14   2  -1   45.42    0.99
  15   3   3   19.98    0.90
  16   2  -1    0.96    0.60
  16   4  11    1.28    0.82
  19   3   4    0.08    0.65
  20   2   0   24.00    0.91
  21   3   6    7.24    0.75
  22   2   1    0.02    0.63
   4   4  15    2.83    0.61
   6   4  13    1.92    0.54
   8   2   0   12.42    0.60
  10   4  10    0.11    0.67
  12   4   9    0.20    0.72
  13   1  -4    5.72    0.44
  14   4   9    7.72    0.88
  16   4  10   11.85    0.94
  17   1  -4    2.36    0.49
  18   2  -1    5.47    0.63
  21   3   5    2.86    0.75
  24   2   2    0.07    0.64
   4   2   2    0.50    0.37
   4   4  14   12.04    0.71
   6   4  12    5.90    0.63
   8   4  10    0.72    0.62
   9   3   3   69.49    1.14
  10   2  -1    3.06    0.51
  11   1  -4    0.27    0.43
  12   4   8    3.65    0.71
  13   3   2    0.95    0.57
  14   4   8    0.95    0.76
  15   3   2    7.19    0.71
  16   4   9    1.36    0.69
  19   3   3   -0.66    0.75
  20   2  -1    3.32    0.64
  21   3   4   -0.25    0.75
  24   2   1    0.08    0.64
   1   3   9   15.08    0.55
   4   4  13    0.99    0.57
   6   4  11    0.03    0.54
   8   4   9    8.09    0.72
  11   3   2   -0.38    0.67
  14   2  -2  121.79    1.38
  14   4   7    0.59    0.65
  16   2  -2   -0.04    0.60
  16   4   8    2.43    0.63
  18   2  -2    1.22    0.56
  18   4   8    0.19    0.71
  19   3   2    1.44    0.68
  21   3   3    0.49    0.72
   6   4  10    7.23    0.65
  10   4   7    4.10    0.63
  12   2  -2    3.83    0.51
  12   4   7    0.84    0.64
  15   1  -5    2.29    0.45
  17   3   1    0.24    0.62
  18   4   7    0.05    0.79
  20   2  -2    0.36    0.59
  -1   3  11  137.82    1.12
   1   3   8   14.52    0.59
   3   3   6   61.62    0.90
   6   2   0   16.93    0.57
   6   4   9    2.35    0.68
   7   3   3   15.07    0.67
   8   2  -1   19.61    0.64
   8   4   8    8.44    0.66
   9   3   2  143.85    1.50
  11   3   1    4.39    0.60
  12   4   6    4.66    0.79
  13   1  -5    0.42    0.43
  14   4   6    2.98    0.70
  16   4   6    0.43    0.71
  18   4   6    3.71    0.71
  19   3   1    6.67    0.77
  21   3   2   -0.34    0.69
   4   2   1    5.27    0.41
   4   4  11    1.54    0.57
   5   3   4    0.19    0.50
   9   1  -4    0.93    0.38
  10   4   6    2.89    0.71
  11   5  16   -0.56    0.74
  12   4   5    6.02    0.72
  14   2  -3    2.12    0.61
  14   4   5   10.71    0.91
  16   2  -3    0.84    0.56
  16   4   5    0.47    0.76
  18   4   5    7.33    0.84
  21   3   1    0.37    0.62
   2   4  13    1.80    0.54
   4   4  10   -0.27    0.56
   6   4   8   30.68    1.00
   9   3   1    0.50    0.55
   9   5  15    0.33    0.65
   9   5  16    0.03    0.63
   9   5  17   -0.08    0.64
  11   5  14    6.29    0.77
  11   5  15    0.84    0.63
  12   2  -3    4.86    0.51
  13   3   0   22.02    0.83
  13   5  13   -0.44    0.71
  14   4   4    2.55    0.70
  16   4   4    0.68    0.66
  20   2  -3   -0.80    0.52
  -1   3  10   37.09    0.62
   1   3   7   64.08    0.86
   2   4  12   56.63    1.06
   3   3   5    3.27    0.50
   7   3   2    3.46    0.40
   9   5  14    0.36    0.66
  11   3   0    0.91    0.62
  11   5  12   -0.65    0.77
  13   5  11    0.35    0.67
  13   5  12    0.83    0.71
  15   3  -1    1.00    0.67
  17   3  -1   34.90    0.98
  18   4   4    4.22    0.82
  21   3   0    0.31    0.65
  23   3   1    5.77    0.77
   4   4   9   21.29    0.80
   5   3   3  143.97    1.31
   6   4   7   23.30    0.87
   7   5  15    8.31    0.77
   8   2  -2   14.94    0.59
   9   5  12    0.78    0.63
   9   5  13   -0.73    0.64
  10   4   4    0.98    0.62
  11   5  11    2.96    0.76
  14   4   3   -0.20    0.75
  15   1  -6    8.20    0.46
  16   2  -4    3.71    0.63
  18   2  -4    3.51    0.54
  18   4   3   -0.77    0.75
  19   3  -1    0.10    0.65
  20   2  -4   -0.09    0.53
  23   3   0    4.00    0.69
   2   4  11   25.37    0.78
   4   4   8   15.91    0.73
   7   5  13   -0.11    0.55
   7   5  14    0.27    0.64
   8   4   5    0.67    0.57
   9   3   0    6.73    0.64
  10   2  -3    3.85    0.47
  11   5  10    3.40    0.81
  12   4   3   60.55    1.25
  13   1  -6   13.06    0.52
  16   4   2    0.23    0.63
  20   4   3    0.20    0.73
  21   3  -1   -0.55    0.68
  -1   3   9   10.14    0.40
   2   4  10    5.06    0.58
   4   2   0    0.31    0.36
   7   3   1    8.49    0.48
   7   5  12    0.61    0.71
   8   4   4   26.99    0.91
   9   5  10    2.84    0.72
  10   4   3    0.81    0.61
  11   3  -1    1.25    0.66
  11   5   9    0.84    0.80
  14   4   2    1.20    0.71
  15   3  -2    1.74    0.58
  15   5   8   -0.50    0.77
  17   3  -2    2.14    0.63
  19   3  -2    0.49    0.66
  20   4   2    0.35    0.60
  23   3  -1   -0.78    0.65
   1   3   6   82.76    0.96
   4   4   7   53.78    1.06
   5   3   2   23.29    0.71
   7   5  11   -0.54    0.64
   9   1  -5  140.61    1.01
   9   5   9    4.43    0.73
  12   4   2    1.96    0.64
  13   5   7    0.58    0.77
  16   2  -5    6.00    0.60
  16   4   1    8.46    0.78
  18   2  -5    3.38    0.54
   2   4   9    4.86    0.58
   5   5  13   11.24    0.79
   7   5  10    2.13    0.65
   9   3  -1    1.91    0.59
   9   5   8   -0.27    0.75
  10   4   2    1.06    0.60
  13   5   6    0.52    0.74
  14   2  -5    1.65    0.53
  14   4   1   -0.08    0.62
  15   5   6    0.21    0.76
  19   3  -3   -0.23    0.65
  20   4   1    0.29    0.81
  23   3  -2    0.48    0.61
   4   4   6   50.91    0.99
   5   5  12   17.12    0.82
   7   3   0   16.90    0.69
   7   5   9   -0.52    0.59
   8   2  -3  380.39    1.80
  10   2  -4    0.12    0.46
  11   1  -6   17.45    0.48
  11   3  -2  147.47    1.54
  11   5   6    0.00    0.62
  12   4   1    1.11    0.62
  15   5   5    4.82    0.83
  17   5   5    0.16    0.82
  18   4   0    0.18    0.75
  21   3  -3    0.66    0.63
   1   3   5  241.17    1.48
   2   4   8    9.86    0.62
   5   3   1    0.24    0.52
   5   5  11    1.20    0.64
   9   5   7    6.20    0.78
  12   2  -5    3.23    0.48
  13   3  -3    3.72    0.68
  13   5   5    0.78    0.74
  14   4   0    0.34    0.64
  15   5   4    7.70    0.80
  18   2  -6   -0.20    0.49
   5   5  10    5.40    0.69
   7   5   8   33.92    1.03
  10   4   1    1.12    0.41
  11   5   5    8.48    0.80
  12   4   0   -0.20    0.62
  13   1  -7   96.96    0.91
  13   5   4    3.21    0.80
  17   3  -4    0.06    0.60
  18   4  -1    1.86    0.78
  19   3  -4    0.49    0.62
  20   4  -1    1.01    0.74
  21   3  -4    2.06    0.66
   2   4   7    0.27    0.56
   4   2  -1   50.37    0.68
   4   4   5   20.45    0.76
   5   5   9    1.16    0.68
   6   4   3    1.65    0.64
   7   5   7   11.33    0.81
   9   3  -2    2.36    0.40
  14   2  -6    0.77    0.50
  14   4  -1   16.75    0.85
  15   5   3    6.73    0.84
  -1   3   7   62.53    0.78
   0   4  10    0.10    0.46
   3   3   2    3.29    0.53
   8   4   1    9.10    0.83
  10   2  -5    2.44    0.46
  10   6  12    1.50    0.74
  13   5   3    0.08    0.69
  15   5   2    1.86    0.71
  16   4  -2   -0.02    0.70
  17   3  -5    1.72    0.55
  17   5   2   -0.18    0.74
  20   4  -2    0.72    0.65
   1   3   4    0.33    0.45
   3   5  11    6.68    0.66
   5   3   0    0.86    0.51
   5   5   8   -0.48    0.63
   6   2  -3   15.92    0.55
   6   4   2   96.07    1.34
   7   5   6   11.04    0.80
   8   6  13   11.32    0.80
   9   1  -6   13.05    0.45
   9   5   4    0.61    0.64
  10   6  11    0.32    0.67
  11   5   3    2.30    0.82
  12   2  -6    1.34    0.44
  13   5   2   -0.25    0.73
  15   3  -5    2.01    0.53
  16   2  -7   37.00    0.84
  17   5   1   -0.37    0.68
  21   3  -5   -0.17    0.54
   0   4   9    2.31    0.47
   2   4   6   19.02    0.67
   3   5  10    4.99    0.65
   5   5   7    4.28    0.61
   7   5   5    0.60    0.67
   8   6  11    2.37    0.69
   8   6  12    0.25    0.65
   9   3  -3   17.75    0.71
  10   4  -1    2.15    0.61
  10   6   9    5.33    0.76
  12   6   8    0.71    0.77
  15   5   1   -0.88    0.82
  16   4  -3    0.25    0.63
  18   4  -3    0.73    0.69
  20   4  -3   -0.12    0.70
   3   5   9    0.23    0.62
   7   3  -2   11.53    0.49
   8   4   0    3.42    0.71
   8   6  10   -0.32    0.76
   9   5   3   23.64    0.99
  10   6   8    8.41    0.82
  11   5   2    0.99    0.68
  12   6   7    0.53    0.76
  13   5   1   -0.17    0.76
  14   2  -7   21.84    0.71
  17   3  -6    8.75    0.68
  17   5   0    5.12    0.81
  19   3  -6   11.37    0.72
   1   3   3    7.92    0.49
   2   4   5   26.19    0.74
   3   3   1  351.35    1.87
   4   2  -2   39.16    0.62
   5   5   6   -0.62    0.61
   6   4   1  113.82    1.46
   6   6  12    0.38    0.71
   8   6   9    2.23    0.70
  11   5   1    1.74    0.69
  15   3  -6    4.83    0.57
  15   5   0   -0.55    0.73
  16   4  -4    1.39    0.70
  18   4  -4    0.74    0.72
  22   4  -4    1.46    0.72
   3   5   8   18.42    0.81
   6   6  11   -0.11    0.72
   8   2  -5    4.65    0.49
   8   4  -1    5.82    0.77
   8   6   8    1.04    0.78
   9   3  -4    0.33    0.52
   9   5   2   39.81    1.16
  10   2  -6    2.01    0.45
  10   4  -2    3.28    0.64
  11   3  -5    0.58    0.56
  12   2  -7   18.71    0.65
  13   5   0    6.28    0.76
  14   6   4   -0.26    0.76
  15   5  -1    1.17    0.71
  16   2  -8   -0.08    0.49
   0   4   7   43.42    0.91
   5   5   5    1.84    0.61
   6   6  10    1.16    0.72
   7   3  -3    0.58    0.51
  10   6   6    1.06    0.74
  11   5   0    0.50    0.70
  13   3  -6    5.96    0.67
  14   4  -4    0.69    0.63
  18   4  -5    2.03    0.67
  19   3  -7    1.73    0.61
  19   5  -2    0.68    0.67
  20   4  -5   -0.36    0.65
  -1   3   5    3.97    0.44
   2   4   4    9.51    0.61
   3   3   0  175.68    1.36
   3   5   7    2.22    0.67
   6   2  -4  146.87    1.13
   6   4   0    4.09    0.63
   6   6   9    0.25    0.74
   8   6   7   -0.38    0.72
  10   4  -3    1.65    0.59
  10   6   5    1.49    0.81
  12   6   4    2.79    0.76
  13   5  -1    0.62    0.70
  14   2  -8    6.40    0.53
  15   3  -7    0.50    0.53
  15   5  -2    1.04    0.76
  16   4  -5    3.10    0.72
  22   4  -5    5.41    0.68
   5   5   4   -0.10    0.61
   6   6   8    5.18    0.82
   7   5   2   -0.34    0.66
   8   6   6   -0.18    0.79
  11   1  -8   16.32    0.45
  11   5  -1   -0.11    0.71
  14   4  -5    0.71    0.65
  14   6   2   -0.29    0.81
  17   5  -3    0.11    0.73
  19   5  -3    0.62    0.70
  20   4  -6    0.90    0.65
   0   4   6    0.65    0.47
   1   5   9    3.61    0.62
   4   4   1    2.38    0.58
   4   6  10   -0.42    0.65
   6   4  -1    0.76    0.63
   6   6   7    5.13    0.81
   8   6   5   -0.09    0.82
   9   5   0    1.25    0.73
  10   2  -7   58.15    0.87
  11   3  -6    8.23    0.67
  12   6   2    0.53    0.74
  13   3  -7   57.19    1.08
  13   5  -2    0.67    0.67
  17   3  -8    5.76    0.60
  18   4  -6    0.04    0.58
   2   4   3   31.22    0.79
   3   5   5    0.62    0.64
   4   2  -3   -0.08    0.38
   5   5   3   37.88    1.00
   7   3  -4    0.33    0.50
   8   2  -6   10.74    0.51
  10   4  -4    0.43    0.57
  10   6   3   -0.38    0.88
  11   5  -2   45.99    1.23
  12   2  -8   26.66    0.68
  14   6   1   -0.16    0.74
  17   5  -4    1.12    0.70
  19   5  -4    0.64    0.72
  -1   3   4    7.12    0.48
   4   6   9    4.06    0.72
   6   6   6   -0.23    0.75
   9   5  -1   -0.66    0.73
  10   6   2   -0.44    0.85
  12   6   1   -0.54    0.76
  13   5  -3    0.49    0.70
  14   2  -9    6.16    0.55
  14   4  -6   -0.38    0.66
  14   6   0    0.01    0.84
  15   3  -8    0.30    0.58
  18   4  -7    0.20    0.69
  20   4  -7    3.09    0.62
   0   4   5   33.04    0.77
   1   5   7   14.01    0.82
   2   4   2   20.31    0.74
   3   5   4    2.52    0.66
   4   4   0    0.66    0.59
   4   6   8    4.23    0.71
   5   3  -3  101.23    1.15
   6   4  -2    0.10    0.68
   7   5   0    4.50    0.76
   8   6   3    1.14    0.88
  11   3  -7   11.86    0.69
  16   4  -7   17.62    0.89
  17   3  -9    0.60    0.51
  17   5  -5   -0.32    0.69
  19   5  -5    5.51    0.77
  -2   4   8   26.49    0.69
   4   6   7   14.18    0.88
   9   5  -2   -0.31    0.73
  10   4  -5    1.20    0.58
  10   6   1    0.11    0.86
  11   5  -3   16.87    0.95
  12   6   0    0.41    0.69
  13   3  -8   22.91    0.85
  13   5  -4   -0.02    0.74
  14   6  -1    5.64    0.80
  20   4  -8   -0.11    0.51
   0   4   4    9.17    0.56
   1   5   6   29.95    0.94
   3   5   3    0.20    0.66
   7   3  -5    4.25    0.49
   7   5  -1    3.64    0.71
   7   7   9    0.35    0.74
  10   2  -8   74.16    0.93
  12   6  -1   -0.13    0.79
  14   4  -7    7.23    0.71
  14   6  -2   12.86    0.95
  15   3  -9    6.51    0.62
  18   4  -8   -0.38    0.70
  19   5  -6    4.31    0.85
   4   4  -1   12.52    0.67
   4   6   6   12.76    0.84
   6   4  -3    4.28    0.68
   6   6   3    0.90    0.68
   7   7   8    6.38    0.88
   8   2  -7    2.57    0.46
   8   6   1    2.48    0.75
   9   1  -8    1.33    0.34
   9   5  -3    3.83    0.73
  10   6   0    3.54    0.79
  11   1  -9   14.88    0.42
  11   5  -4    0.80    0.73
  13   5  -5   -0.73    0.75
  16   4  -8   -0.07    0.65
  17   5  -6    3.17    0.69
  -2   4   7    1.23    0.41
   1   3   0    1.94    0.44
   1   5   5   58.84    1.17
   2   6   8    1.57    0.67
   4   6   5    4.06    0.75
   5   3  -4  209.88    1.57
   5   5   0    0.55    0.60
   7   5  -2    5.05    0.67
   7   7   7    2.97    0.81
   9   3  -7   27.05    0.75
  10   6  -1    1.50    0.80
  11   3  -8    7.43    0.62
  12   4  -7    6.31    0.72
  12   6  -2   -0.50    0.79
  13   3  -9    0.76    0.64
  14   2 -10    3.85    0.48
  14   4  -8    1.75    0.60
  14   6  -3    1.22    0.83
  15   5  -6    0.46    0.72
  18   4  -9    0.23    0.65
  19   5  -7    0.57    0.74
   0   4   3   -0.07    0.49
   3   5   2    2.72    0.69
   7   3  -6   21.15    0.66
   7   7   6    1.51    0.82
   8   4  -5    1.28    0.49
   8   6   0   -0.06    0.77
   9   7   4    0.51    0.80
  11   5  -5    0.59    0.72
  15   3 -10    4.71    0.62
  16   4  -9    0.08    0.65
  17   5  -7    0.02    0.70
  -2   4   6    8.78    0.54
   1   5   4   -0.34    0.66
   2   6   7    1.16    0.62
   4   6   4    2.48    0.67
   5   5  -1    0.01    0.63
   5   7   8    0.23    0.68
   6   4  -4   44.49    1.06
   7   7   5    0.18    0.69
   9   5  -4    0.97    0.70
   9   7   3    6.72    0.88
  12   6  -3   -0.55    0.77
  14   6  -4    0.33    0.75
  15   5  -7    0.22    0.74
  19   5  -8    0.85    0.62
  -1   3   2   96.96    0.98
   2   6   6    4.12    0.69
   3   3  -3   40.76    0.82
   3   5   1   90.38    1.44
   5   7   7   -0.25    0.72
   6   6   1   22.71    1.04
   8   4  -6    3.86    0.72
   8   6  -1    0.10    0.80
   9   7   2    8.58    0.96
  10   2  -9   68.36    0.91
  12   2 -10    0.27    0.43
  12   4  -8   10.21    0.75
  14   4  -9    3.40    0.66
  17   5  -8    1.86    0.72
  18   4 -10    2.88    0.70
   0   4   2   -0.20    0.51
   1   3  -1    0.34    0.45
   1   5   3    1.32    0.69
   4   4  -3    0.34    0.55
   5   3  -5   50.84    0.86
   7   7   4    0.68    0.69
   8   2  -8   22.22    0.63
   9   3  -8    0.65    0.49
   9   5  -5   16.61    0.92
  10   6  -3    0.91    0.89
  11   3  -9    5.72    0.59
  11   5  -6    2.31    0.69
  12   6  -4    1.85    0.72
  13   3 -10    4.86    0.65
  13   5  -7   18.00    0.93
  14   6  -5    0.39    0.80
  15   5  -8    0.54    0.74
  16   4 -10   -0.11    0.55
  -3   3   5   22.87    0.59
  -2   4   5  132.22    1.26
  -1   5   6   10.54    0.66
   2   2  -3    7.44    0.42
   2   6   5    4.24    0.68
   4   6   2    0.97    0.74
   5   5  -2    5.41    0.69
   6   4  -5   32.18    0.95
   7   5  -4    0.73    0.65
   7   7   3   -0.28    0.83
   8   6  -2    2.92    0.81
  15   3 -11    1.54    0.50
  17   5  -9    0.18    0.61
  19   5  -9   -0.45    0.61
   1   5   2   -0.53    0.62
   2   6   4    0.98    0.62
   5   7   5    0.33    0.62
   6   2  -7    0.13    0.40
   6   6  -1    0.55    0.69
   7   7   2   -0.57    0.81
   8   4  -7    0.67    0.65
   9   1  -9   14.76    0.45
  10   4  -8   33.09    0.93
  10   6  -4    0.57    0.88
  11   5  -7    1.81    0.80
  12   4  -9    4.22    0.61
  12   6  -5    1.86    0.71
  13   5  -8    8.36    0.86
  14   4 -10    1.59    0.60
  14   6  -6    0.09    0.77
  -1   3   1    0.68    0.41
  -1   5   5    0.92    0.57
   0   4   1    4.21    0.55
   3   3  -4   25.80    0.72
   4   4  -4    3.27    0.59
   4   6   1    0.99    0.73
   5   5  -3   23.59    0.92
   5   7   4   -0.77    0.74
  11   3 -10   12.71    0.65
  15   5  -9    1.94    0.65
  16   4 -11    1.41    0.62
  19   5 -10   -0.21    0.72
  -2   4   4   66.82    0.94
   2   4  -2    4.34    0.61
   2   6   3    6.40    0.78
   5   3  -6    0.72    0.34
   5   7   3    5.00    0.89
   6   4  -6    7.16    0.69
   6   6  -2   -0.89    0.76
   7   5  -5    0.02    0.63
   7   7   1    0.24    0.68
   9   3  -9    6.61    0.59
   9   7  -1   -0.60    0.79
  10   2 -10    0.47    0.42
  10   6  -5    0.25    0.85
  12   2 -11    7.10    0.48
  12   6  -6    0.67    0.69
  13   3 -11    0.06    0.51
  17   5 -10    0.28    0.69
  -7   5 -16    0.07    0.97
  -6   4 -15   -0.03    0.77
   0   2 -11   52.24    1.48
   1   5 -17   -0.18    1.71
   3   5 -17   -0.48    1.45
   5   3 -13    2.19    1.40
   8   4 -14   -0.09    1.32
   9   3 -11    1.58    1.17
   9   5 -15    1.24    1.60
  10   4 -13    1.31    1.38
  11   5 -14    0.34    1.43
  12   6 -14    1.98    1.48
  -7   3 -13   -0.30    0.80
  -4   2 -11    3.44    0.92
  -3   3 -14    2.01    1.30
   1   3 -14    1.69    1.42
   2   2 -11    4.90    0.80
   2   4 -16    0.79    1.41
   6   4 -15   47.03    1.96
  10   2  -7   59.11    1.37
  11   3 -10   13.55    1.18
  -8   4 -15   -0.09    0.92
  -1   5 -18    0.35    1.15
   4   4 -16    1.21    1.38
   8   2  -9   15.79    1.07
   8   4 -15    0.61    1.55
   9   5 -16    3.48    1.40
  12   4 -12    3.75    1.25
  13   5 -13    1.00    1.35
  -7   5 -17    1.06    0.98
  -6   2 -11    0.27    0.84
  -6   4 -16   -0.16    0.92
  -3   5 -18   -0.63    1.25
   0   2 -12   56.35    1.58
   0   4 -17    5.97    1.56
   2   4 -17   -0.34    1.41
   3   1  -7    8.54    0.77
   3   5 -18   -0.68    1.62
   5   3 -14    5.99    1.27
   6   4 -16    1.28    1.59
   7   5 -17    3.25    1.45
  10   4 -14    4.64    1.33
  11   5 -15   -0.46    1.45
  -7   3 -14    0.26    0.85
  -5   5 -18    0.41    1.09
  -4   2 -12    2.95    0.96
  -4   4 -17   -0.12    1.04
  -3   3 -15    0.33    1.06
  -1   1  -8   25.58    0.93
   2   2 -12    9.10    1.12
   4   4 -17   20.20    1.78
   5   5 -18    2.15    1.46
   6   2 -11   17.54    1.11
   9   5 -17    0.08    1.69
  11   3 -11    0.32    1.15
  12   4 -13   25.81    1.58
  13   3  -9    1.62    0.94
  -3   1  -8  110.22    1.43
  -1   5 -19   -1.22    1.29
   1   1  -8   21.41    0.76
   1   5 -19   -1.70    1.68
   3   5 -19    1.21    1.70
   5   3 -15    0.78    1.20
   6   4 -17    0.64    1.41
   7   5 -18    1.18    1.77
   8   2 -10   50.47    1.43
   9   3 -13   12.66    1.46
  11   5 -16    1.14    1.52
  -8   2 -11   16.34    0.99
  -7   5 -18    0.48    1.01
  -3   5 -19    0.27    1.07
  -2   2 -13    9.32    1.07
   0   2 -13    7.10    1.25
   1   3 -16    7.66    1.36
   2   4 -18   -0.71    1.60
   5   1  -7   18.84    0.85
   5   5 -19    2.43    1.68
  11   3 -12    7.52    1.30
  12   2  -6    1.36    0.61
  12   4 -14    4.71    1.39
  13   3 -10    6.89    1.08
  -5   5 -19    0.16    1.14
  -4   4 -18   -0.20    1.08
  -1   5 -20    0.25    1.06
   1   5 -20   -0.67    1.65
   2   2 -13   53.01    1.43
   3   5 -20    1.38    1.51
   4   4 -18    3.90    1.39
   8   2 -11    1.51    0.94
   9   3 -14   53.60    1.79
   9   5 -18    1.41    1.36
  10   2  -9   66.78    1.58
  10   4 -16    6.42    1.47
  11   5 -17   -0.15    1.52
  -5   3 -16    0.89    0.98
  -3   5 -20   -0.04    1.24
  -1   1  -9   44.28    1.04
   4   2 -13    1.30    1.17
   5   3 -16    0.60    1.16
   5   5 -20    6.53    1.79
  12   2  -7   18.55    0.89
  12   4 -15    1.43    1.40
  13   3 -11   -0.89    1.11
  -6   4 -18   -0.17    1.03
  -5   5 -20   -0.16    1.17
  -2   2 -14    3.67    1.15
  -2   4 -19    0.18    1.17
   0   2 -14   -0.62    1.19
   1   3 -17    0.73    1.28
   2   2 -14    5.22    1.16
   3   1  -9   24.90    1.07
   3   3 -17    1.36    1.27
   4   4 -19    2.62    1.60
   5   1  -8    6.13    0.89
   7   3 -16   15.79    1.41
   7   5 -20    0.72    1.65
   9   3 -15    5.04    1.21
  10   2 -10    0.41    0.88
  10   4 -17   -0.20    1.28
  11   5 -18    3.60    1.70
  -7   3 -16   -0.30    0.80
  -4   4 -19    0.00    1.09
  -3   3 -17   25.58    1.53
   4   2 -14    2.03    1.20
   5   3 -17    0.91    1.36
   6   2 -13    5.21    0.88
   8   2 -12   21.78    1.32
  11   3 -14   -0.37    1.14
  12   2  -8   27.72    1.04
  13   3 -12    6.08    1.13
  13   5 -17    1.41    1.34
  14   4 -14    0.97    1.25
  -6   4 -19    0.11    0.97
  -5   3 -17    1.90    1.08
  -2   4 -20   -0.03    1.16
  -1   1 -10   70.76    1.41
  -1   3 -18    1.05    1.25
   1   1 -10   72.72    1.46
   1   3 -18   49.39    2.05
   3   3 -18   -0.79    1.27
  10   2 -11   17.25    1.24
  10   4 -18    1.36    1.35
  -6   2 -14    1.01    1.02
  -3   1 -10   59.16    1.29
  -3   3 -18    2.48    1.29
  -2   2 -15    4.43    1.25
   2   2 -15    1.89    1.25
   3   1 -10   46.85    1.29
   5   3 -18    1.74    1.28
   6   2 -14   20.49    1.43
   6   4 -20    3.65    1.80
   7   3 -17   10.84    1.46
   8   2 -13    2.27    1.12
   9   3 -16    7.29    1.33
  11   3 -15    0.33    1.12
  12   2  -9   10.43    0.93
  12   4 -17    0.17    1.43
  13   3 -13    1.58    1.05
  13   5 -18   -0.41    1.33
  14   4 -15    0.40    1.22
  -4   2 -15    9.27    1.27
   1   3 -19    1.80    1.56
   2   4 -21    1.87    1.66
   4   2 -15    5.78    1.25
   4   4 -21    3.12    1.38
   7   1  -8   86.63    1.47
   8   4 -20    7.42    1.81
  10   2 -12   12.89    1.18
  10   4 -19    0.52    1.35
  14   4 -16    1.86    1.29
  -7   1  -9    0.47    0.60
  -6   4 -20    0.27    0.96
  -5   1 -10   54.50    1.27
  -5   3 -18    1.12    0.93
  -3   1 -11   57.67    1.48
  -2   4 -21    0.24    1.06
  -1   1 -11   -0.12    0.95
  -1   3 -19    3.26    1.42
   0   2 -16   80.27    2.13
   1   1 -11  258.73    2.48
   2   2 -16   -0.88    1.32
   3   3 -19    0.34    1.42
   5   1 -10    8.90    1.01
   6   4 -21   -0.18    1.67
   7   3 -18   -0.17    1.45
   9   3 -17    2.08    1.31
  11   3 -16    1.61    1.24
  12   4 -18    1.59    1.41
  13   3 -14   -0.29    1.08
  -8   2 -14    0.69    1.06
  -6   2 -15    0.57    1.09
  -4   4 -21    0.03    1.08
  -3   3 -19    0.24    1.17
  -2   2 -16    5.02    1.28
   0   4 -22    0.29    1.47
   2   4 -22    1.61    1.67
   3   1 -11    6.84    1.05
   4   2 -16    3.15    1.50
   5   3 -19    8.47    1.44
  10   4 -20   -1.23    1.49
  14   4 -17    2.64    1.30
  -7   3 -18   -0.01    0.92
  -6   4 -21    0.46    1.01
  -5   1 -11   -0.13    0.90
  -5   3 -19    0.06    1.08
  -2   4 -22   -0.48    1.12
  -1   3 -20    8.42    1.49
   1   3 -20    1.42    1.36
   2   2 -17    0.98    1.10
   3   3 -20    2.73    1.55
   4   4 -22    2.37    1.47
   6   2 -16    5.47    1.42
   6   4 -22    5.00    1.58
   7   3 -19    0.33    1.44
   9   1  -7   65.50    1.31
  11   3 -17    2.24    1.28
  12   2 -11    7.08    1.04
  12   4 -19    1.25    1.55
  13   3 -15   16.02    1.44
  -4   4 -22   -0.53    1.10
  -3   1 -12   -0.37    0.91
  -3   3 -20    1.85    1.39
   2   4 -23   -0.93    1.38
   4   2 -17   46.61    1.71
  10   2 -14   11.11    1.30
  10   4 -21    0.41    1.44
  14   4 -18    6.61    1.45
  -6   2 -16    1.73    1.15
  -5   3 -20   -0.54    1.02
  -4   2 -17    2.17    1.20
  -2   4 -23   -0.07    1.03
  -1   3 -21   10.40    1.46
   0   4 -23    3.04    1.46
   4   4 -23   -0.63    1.50
   6   4 -23    0.19    1.49
   8   4 -22   -0.74    1.44
   9   1  -8    1.06    0.81
  11   3 -18   13.36    1.51
  12   2 -12    4.20    1.03
  12   4 -20    7.97    1.54
  13   3 -16    0.94    1.11
  -3   3 -21   -0.26    1.24
  -2   2 -18   20.78    1.35
   2   2 -18    0.03    1.18
   3   1 -13   39.27    1.41
   4   2 -18    4.26    1.34
  10   2 -15   11.83    1.37
  10   4 -22    0.06    1.58
  12   2 -13   60.95    1.74
  13   3 -17   -0.46    1.12
  14   4 -19    0.84    1.36
  -7   1 -11    0.28    0.68
  -6   2 -17   21.83    1.36
   3   3 -22    3.90    1.66
   5   1 -13   11.23    1.05
   6   2 -18    1.50    1.23
   7   3 -21   -0.22    1.57
  11   3 -19    6.77    1.55
  12   4 -21    0.35    1.35
  -5   3 -21   -0.17    1.04
  -1   3 -22    1.66    1.39
   1   1 -14    7.74    0.87
   2   2 -19    0.27    1.32
   9   1 -10   24.28    1.13
  10   2 -16   17.33    1.31
  12   4 -22    0.51    1.29
  13   3 -18   -0.61    1.35
  14   4 -20    0.52    1.23
  -3   1 -14    8.19    1.03
  -3   3 -22    7.14    1.49
  -2   2 -19   14.92    1.31
   3   3 -23    7.06    1.49
   5   1 -14   15.06    1.24
   6   2 -19   -0.11    1.37
   7   3 -22    3.73    1.64
   8   2 -18   11.48    1.45
  10   2 -17   -0.91    1.14
  11   3 -20    2.93    1.46
  12   2 -15    5.06    1.20
  14   2 -12    0.09    0.98
  14   4 -21   -0.32    1.29
  -6   2 -18   17.96    1.24
  -5   3 -22   -0.12    1.04
  -4   2 -19    1.25    1.24
  -1   3 -23    5.66    1.65
   1   1 -15    2.00    1.07
   2   2 -20   23.97    1.66
   5   3 -23    3.69    1.51
   9   1 -11    2.57    0.88
  11   1  -7   22.20    0.90
  11   3 -21    2.42    1.38
  13   3 -19   -0.01    1.37
  15   3 -17    1.60    1.21
  -3   1 -15   -0.60    0.96
  -3   3 -23    0.54    1.29
  -2   2 -20    1.56    1.26
   1   1 -16   14.45    1.30
   3   3 -24   -0.29    1.39
   5   1 -15    2.30    1.15
   6   2 -20   10.15    1.63
   7   1 -14    7.49    1.10
   7   3 -23    6.49    1.49
   8   2 -19   14.13    1.48
  10   2 -18   -1.00    1.26
  11   1  -8   16.92    0.79
  12   2 -16    1.23    1.11
  13   3 -20    0.44    1.26
  14   2 -13    3.02    1.05
  -7   1 -13    1.81    0.77
  -6   2 -19   -0.26    1.06
  -5   3 -23   -0.70    1.02
  -4   2 -20    2.96    1.20
  -1   1 -16    2.48    1.16
   0   2 -21    5.52    1.50
   2   2 -21    4.41    1.45
   4   2 -21    8.61    1.59
   5   3 -24    0.47    1.38
   8   2 -20   12.77    1.42
  11   1  -9   14.45    0.88
  14   2 -14    4.65    1.13
  15   3 -18    0.37    1.29
  -3   3 -24    0.71    1.34
  -2   2 -21    0.22    1.24
   1   1 -17   -0.99    1.28
   1   3 -25    5.45    1.59
   3   3 -25    0.11    1.36
   5   1 -16    0.87    1.22
   6   2 -21    1.22    1.46
   7   1 -15    6.85    1.13
   7   3 -24    1.44    1.43
  10   2 -19    0.08    1.28
  11   1 -10   19.90    1.00
  13   3 -21    0.27    1.37
  14   2 -15    1.36    1.13
  15   3 -19    1.65    1.34
  -7   1 -14   -0.13    0.88
  -6   2 -20    0.73    1.11
  -4   2 -21   23.10    1.60
  -1   1 -17    1.78    1.27
  -1   3 -25    0.35    1.41
   0   2 -22    2.33    1.43
   2   2 -22    6.36    1.49
   3   1 -17    1.68    1.29
   4   2 -22    6.81    1.56
   5   1 -17    1.12    1.31
   5   3 -25    1.37    1.42
   7   1 -16   22.83    1.55
   7   3 -25    1.58    1.53
   8   2 -21   -0.46    1.33
  10   2 -20    0.48    1.29
  11   1 -11    2.27    0.88
  11   3 -23    0.89    1.54
  12   2 -18    0.73    1.25
  15   3 -20    7.74    1.34
  -5   1 -16    7.78    1.11
  -5   3 -24   -0.29    1.04
  -3   1 -17   43.53    1.65
  -3   3 -25    0.25    1.30
  -2   2 -22    2.06    1.41
   1   1 -18   86.15    2.07
   3   1 -18   -0.03    1.13
   6   2 -22    9.36    1.37
   9   1 -15    4.83    1.25
  11   1 -12   11.25    1.05
  12   2 -19    6.93    1.23
  13   3 -22    1.94    1.28
  14   2 -16    0.59    1.03
  -7   1 -15   70.98    1.58
  -6   2 -21    7.73    1.09
  -4   2 -22   -2.10    1.19
  -1   1 -18   -0.09    1.20
   0   0  -9   26.89    0.94
   0   2 -23    8.28    1.66
   2   0  -8  109.83    1.38
   2   2 -23    0.78    1.34
   4   2 -23    0.43    1.53
   5   1 -18    2.99    1.13
   6   2 -23    0.56    1.36
   7   1 -17   23.74    1.50
   8   2 -22    0.95    1.45
   9   1 -16   15.13    1.59
  10   2 -21    1.14    1.43
  11   1 -13    9.87    1.12
  13   3 -23    2.35    1.53
  14   2 -17    9.02    1.27
  15   3 -21    0.45    1.23
  -5   1 -17    4.72    1.09
  -3   1 -18    2.26    1.24
  -1   1 -19    7.78    1.36
   1   1 -19    4.44    1.21
   2   0  -9   35.35    1.08
   3   1 -19    2.67    1.29
   7   1 -18    4.44    1.20
  11   1 -14    2.40    1.07
  12   2 -20   15.55    1.52
  14   2 -18   16.01    1.31
  15   3 -22   -0.52    1.35
  -7   1 -16    1.01    0.98
  -4   2 -23    8.47    1.28
   0   0 -10    1.01    0.61
   0   2 -24    1.21    1.44
   2   0 -10   34.99    1.13
   4   0  -9   15.38    0.95
   4   2 -24    7.85    1.41
   5   1 -19   12.84    1.10
   6   2 -24    0.12    1.54
  11   1 -15    1.60    1.06
  12   2 -21   -0.68    1.44
  13   1  -9    1.92    0.74
  14   2 -19    0.04    1.32
  -5   1 -18   12.80    1.27
  -4   0  -9  125.08    1.55
  -1   1 -20   14.63    1.46
   0   0 -11   63.82    1.35
   2   0 -11   12.36    1.03
   3   1 -20    5.65    1.25
   4   0 -10  341.31    2.54
   4   2 -25    1.56    1.34
   7   1 -19   -0.06    1.16
   8   2 -24    2.96    1.63
  13   1 -11    0.20    0.78
  13   1 -10   11.87    0.84
  15   3 -23    0.41    1.42
  -7   1 -17    3.97    1.12
  -4   2 -24    0.12    1.15
  -3   1 -20   -0.59    1.29
  -2   0 -11   69.74    1.35
   2   0 -12    8.78    1.10
   3   1 -21    5.68    1.41
   4   0 -11   26.38    1.19
   6   2 -25    1.52    1.58
  11   1 -17    1.49    1.03
  12   2 -22    1.85    1.27
  13   1 -12   10.04    1.07
  14   2 -20    0.11    1.32
  -4   0 -10    6.67    0.79
  -2   0 -12  264.62    2.48
  -2   2 -25    3.17    1.38
   0   0 -13   10.80    1.04
   2   0 -13   81.96    1.69
   4   0 -12   38.26    1.28
   4   2 -26    3.54    1.51
   5   1 -21    3.04    1.35
   6   0 -10    1.59    0.86
   6   2 -26    0.68    1.40
   8   2 -25    0.27    1.36
  12   2 -23   -0.07    1.43
  13   1 -14   -0.63    1.04
  14   2 -21    0.70    1.38
  -5   1 -20    4.41    1.19
  -4   0 -11    4.79    0.80
  -4   2 -25    3.19    1.15
  -3   1 -21    0.05    1.26
  -2   0 -13   17.37    1.10
   0   0 -14    1.31    0.93
   0   2 -26    3.36    1.35
   2   0 -14    5.74    1.05
   4   0 -14    3.00    0.97
   4   0 -13    1.06    0.71
   5   1 -22    1.69    1.46
   7   1 -21   -0.26    1.25
   8   2 -26    1.68    1.35
  11   1 -18   26.81    1.44
  12   2 -24   -0.73    1.53
  13   1 -15   32.28    1.47
  14   2 -22    1.96    1.22
  -6   0  -9    6.19    0.81
  -4   0 -12    6.84    0.88
  -2   0 -14    2.72    0.94
  -2   2 -26    2.42    1.29
  -1   1 -22    1.36    1.23
   3   1 -23    8.33    1.49
   4   0 -15    4.76    1.10
   6   0 -13    5.64    1.00
   7   1 -22    8.30    1.54
   9   1 -21   13.98    1.67
  -5   1 -21    0.60    1.08
  -4   0 -13    3.25    0.86
  -4   2 -26    0.01    1.36
  -3   1 -22   13.53    1.51
  -2   0 -15    5.60    1.01
   2   0 -16   -0.07    1.12
   4   0 -16    7.44    1.27
   6   0 -14   32.65    1.39
   7   1 -23   11.47    1.49
   8   0 -11    3.76    1.06
   8   0  -9   16.55    0.94
   8   0  -8   45.12    1.21
   9   1 -22    0.51    1.27
  11   1 -20    3.25    1.30
  12   2 -25   -0.20    1.50
  13   1 -17    0.18    1.08
  14   2 -23    0.89    1.23
  16   2 -21    1.46    1.24
  -6   0 -11    1.73    0.60
  -4   0 -14   46.34    1.33
   3   1 -24    0.58    1.50
   5   1 -24   -0.38    1.58
   6   0 -15  145.57    2.27
   8   0  -7    9.57    0.77
  13   1 -19    0.98    1.25
  14   2 -24    0.53    1.45
  16   2 -22    3.03    1.26
  -6   0 -12   45.49    1.14
  -5   1 -22    0.17    1.14
  -3   1 -23    0.40    1.29
  -1   1 -24    7.21    1.48
   5   1 -25    1.72    1.60
   7   1 -24    1.14    1.62
   9   1 -23    1.33    1.29
  11   1 -22   -0.27    1.38
  13   1 -20    0.44    1.33
  -6   0 -13   13.94    0.93
  -4   0 -16   31.38    1.39
  -2   0 -17   58.73    1.80
  -1   1 -25    0.13    1.47
   1   1 -25    6.95    1.44
   2   0 -19    1.00    1.08
   6   0 -18    1.20    1.08
   7   1 -25    5.95    1.58
   9   1 -24   -0.50    1.54
  11   1 -23    2.45    1.31
  13   1 -21   -0.60    1.37
  15   1 -17    1.57    1.03
  15   1 -16   -0.09    0.98
  16   2 -23    1.95    1.22
  -6   0 -14    1.06    0.78
  -5   1 -23    5.54    1.16
  -4   0 -17    2.33    1.16
  -2   0 -18   30.13    1.53
   0   0 -19    1.49    1.16
   1   1 -26   -0.26    1.63
   3   1 -26    5.86    1.58
   4   0 -19    5.91    1.21
   5   1 -26    1.60    1.39
   6   0 -19   -0.65    1.16
   8   0 -17    1.60    1.20
   9   1 -25    1.99    1.53
  10   0 -13    0.75    0.90
  10   0 -12   22.33    1.10
  10   0 -11   30.17    1.17
  10   0 -10    0.51    0.80
  13   1 -22    6.06    1.44
  15   1 -18    1.64    1.15
  16   2 -24    2.04    1.36
  -5   1 -24    1.69    1.31
  -3   1 -25    2.45    1.31
  -2   0 -19   23.97    1.36
  -1   1 -26    1.59    1.38
   0   0 -20    1.63    1.22
   2   0 -20   29.90    1.64
   5   1 -27   -0.16    1.36
   6   0 -20   17.11    1.40
   7   1 -26    3.85    1.36
  10   0 -15   18.44    1.34
  10   0 -14   15.20    1.20
  10   0  -9   90.66    1.44
  10   0  -8  117.54    1.58
  11   1 -24    2.57    1.36
  15   1 -19    2.16    1.24
  -6   0 -16    0.71    0.99
  -2   0 -20    1.98    1.18
   1   1 -27    5.73    1.55
   2   0 -21    5.05    1.38
   4   0 -21   10.48    1.47
   6   0 -21    2.88    1.35
   7   1 -27    1.10    1.61
   8   0 -19   19.59    1.38
  10   0 -16   24.79    1.48
  11   1 -25    0.70    1.55
  13   1 -23    3.13    1.32
  15   1 -21    1.14    1.28
  15   1 -20    9.50    1.36
  -6   0 -17   29.92    1.37
  -4   0 -19    1.57    1.11
  -3   1 -26    0.65    1.14
  -2   0 -21    0.97    1.25
  -1   1 -27    1.13    1.44
   4   0 -22    8.56    1.50
   6   0 -22    9.87    1.45
   8   0 -21   -0.96    1.24
   8   0 -20   16.42    1.43
  10   0 -19   -1.18    1.30
  10   0 -18    1.46    1.12
  10   0  -7   79.04    1.25
  15   1 -22    1.21    1.29
  -6   0 -18   24.94    1.40
  -4   0 -20    3.76    1.15
  -3   1 -27    2.97    1.47
   0   0 -22    1.58    1.34
   6   0 -23    1.31    1.47
   8   0 -22   -0.28    1.31
  10   0 -20   -1.04    1.44
  12   0 -16   -0.20    1.32
  12   0 -15    9.77    1.26
  12   0 -14   18.66    1.25
  12   0 -13   82.29    1.75
  13   1 -25   -0.84    1.51
  15   1 -23    1.43    1.16
  -6   0 -19    0.39    1.10
  -4   0 -21   31.27    1.47
  -2   0 -22    4.61    1.30
   0   0 -23   11.94    1.49
   4   0 -24   10.13    1.59
   8   0 -23    1.31    1.33
  12   0 -18    1.93    1.10
  12   0 -17    2.26    1.01
  12   0 -10    0.44    0.68
  15   1 -24   -0.33    1.32
  -2   0 -23   -0.26    1.39
   0   0 -24    1.25    1.46
   4   0 -25    0.50    1.42
   6   0 -24    0.69    1.40
  12   0 -20   20.62    1.62
  12   0 -19    6.89    1.32
  12   0  -9   20.77    0.87
  15   1 -25    0.28    1.40
  -6   0 -20    0.99    1.08
  -4   0 -22   -0.55    1.08
  -2   0 -24    7.88    1.25
   0   0 -25    2.05    1.31
   6   0 -25   -0.16    1.47
   8   0 -25    1.17    1.26
  12   0 -21    0.68    1.29
  -4   0 -23   10.06    1.31
   2   0 -26    2.17    1.57
   4   0 -26    4.35    1.43
   6   0 -26    1.20    1.48
  14   0 -18   22.26    1.50
  14   0 -17   11.03    1.18
  14   0 -15    1.93    1.09
  14   0 -14    6.13    1.03
  14   0 -13    2.90    1.03
  -4   0 -24    1.64    1.27
  -2   0 -25    4.25    1.26
   1  -1 -15   -0.22    1.00
   1  -1 -14    7.79    1.06
   1  -1 -13   36.89    1.29
   2   0 -27    0.66    1.42
   3  -1 -15  133.74    2.17
   3  -1 -14    2.37    1.04
   3  -1 -13   39.91    1.33
   3  -1 -12   20.26    1.07
   4   0 -27    1.09    1.50
   8   0 -26   -0.38    1.31
  10   0 -25    9.55    1.49
  12   0 -24    1.50    1.53
  12   0 -23    0.50    1.27
  14   0 -19    0.75    1.13
  14   0 -12   -0.04    0.85
  -2   0 -26    4.08    1.33
  -1  -1 -15    5.31    0.95
   0   0 -27   -0.59    1.52
   1  -1 -16   17.77    1.29
   1  -1 -11  262.93    2.42
   3  -1 -18    1.02    1.09
   3  -1 -17    3.67    1.32
   3  -1 -16   33.31    1.28
   3  -1 -11    5.74    1.06
   5  -1 -17    0.46    1.44
   5  -1 -16    0.01    1.16
   5  -1 -15    2.87    1.05
   5  -1 -14   16.52    1.18
   5  -1 -13   11.15    1.08
   5  -1 -12   32.46    1.25
   8   0 -27    3.43    1.40
  10   0 -26    0.63    1.31
  12   0 -25    1.09    1.31
  14   0 -22    0.92    1.15
  14   0 -21    0.41    1.35
  -2   0 -27    1.26    1.35
  -1  -1 -17    1.16    1.22
   1  -1 -18   87.80    2.08
   3  -1 -19    3.36    1.20
   5  -1 -19   13.45    1.35
   5  -1 -11   15.49    1.16
   7  -1 -17   21.69    1.53
   7  -1 -16   24.91    1.62
   7  -1 -14    5.62    1.04
   7  -1 -13    1.69    0.88
  12   0 -26   -0.36    1.41
  -4   0 -26    0.22    1.17
  -3  -1 -16   33.76    1.49
  -3  -1 -15   -0.56    0.96
  -3  -1 -14    7.72    0.95
  -3  -1 -13   16.04    0.99
  -1  -1 -19    9.04    1.17
   1  -1  -9   18.25    0.78
   5  -1 -21    4.68    1.38
   5  -1 -20   21.06    1.47
   5  -1 -10    8.77    1.02
   7  -1 -20    0.69    1.18
   7  -1 -19   -0.95    1.19
   7  -1 -18    4.18    0.78
  14   0 -25    3.95    1.49
  16   0 -19    1.98    1.12
  -3  -1 -18    1.28    1.24
  -3  -1 -11   59.35    1.29
  -1  -1 -21   14.79    1.46
  -1  -1 -20   16.68    1.38
  -1  -1  -9   43.48    1.11
   1  -1 -22    1.23    1.34
   1  -1  -8   21.68    0.86
   3  -1 -22    2.49    1.43
   5  -1 -22    1.03    1.39
   5  -1  -9  118.00    1.62
   7  -1 -22    7.77    1.38
   7  -1 -21   -0.21    1.37
   9  -1 -15    3.53    1.23
   9  -1 -14  106.70    1.98
  16   0 -22    5.13    1.30
  16   0 -21    3.52    1.22
  16   0 -20    0.79    1.14
  -3  -1 -20    0.50    1.19
  -3  -1 -10   58.47    1.22
  -1  -1 -22    2.89    1.27
   1  -1 -23    8.01    1.47
   3  -1 -24   -0.49    1.26
   3  -1 -23    8.65    1.35
   5  -1 -24    1.53    1.27
   5  -1 -23    5.03    1.25
   7  -1 -23   10.81    1.65
   9  -1 -21   14.54    1.58
   9  -1 -20   -0.14    1.20
   9  -1 -12    8.49    0.95
  16   0 -24   -0.09    1.23
  16   0 -23    1.91    1.25
  -5  -1 -17    3.98    1.14
  -5  -1 -16    8.94    1.01
  -5  -1 -15   10.09    1.05
  -3  -1  -9    1.39    0.79
  -1  -1 -23   10.31    1.44
   3  -1 -25   -0.28    1.47
   3  -1  -7    9.80    0.70
   5  -1 -25    2.33    1.47
   5  -1  -8    7.52    0.85
   9  -1 -23    1.79    1.35
   9  -1 -22    1.20    1.18
  11  -1 -20    1.02    1.18
  11  -1 -19    9.15    1.35
  11  -1 -18   25.45    1.52
  11  -1 -17    1.83    1.01
  11  -1 -16    0.72    1.19
  16   0 -25    0.75    1.31
  -5  -1 -19   24.19    1.35
  -5  -1 -11    0.72    0.73
  -3  -1 -22   16.19    1.39
  -1  -1 -24    6.74    1.43
   5  -1 -26   -0.20    1.34
   7  -1 -26    3.04    1.28
   7  -1 -25    5.00    1.23
   9  -1 -25   -0.38    1.30
  11  -1 -22    0.10    1.33
  11  -1 -14    2.25    1.03
  11  -1 -13   11.58    1.14
  -5  -1 -21    0.53    1.11
  -5  -1 -10   50.69    1.09
  -3  -1 -23    1.53    1.27
  -3  -1  -8  104.96    1.32
  -1  -1 -25    1.03    1.27
   1  -1 -26    3.14    1.42
   5  -1 -27    0.90    1.42
   7  -1 -27    2.00    1.55
   7  -1  -8   90.91    1.35
   9  -1 -26    0.95    1.42
  11  -1 -23   -0.32    1.33
  11  -1 -12   11.88    1.10
  -3  -1 -25    2.11    1.27
  -3  -1 -24    0.25    1.12
  -1  -1 -26    1.18    1.29
   1  -1 -27    6.10    1.43
   9  -1  -9   15.31    0.93
  13  -1 -22    5.25    1.38
  13  -1 -21   -1.01    1.25
  13  -1 -20    0.26    1.19
  13  -1 -19   -0.31    1.00
  13  -1 -18    0.51    1.12
  13  -1 -16   -0.18    0.99
  -7  -1 -15   69.07    1.50
  -7  -1 -14   -0.18    0.73
  -7  -1 -13    1.03    0.66
  -5  -1 -23    3.94    1.22
  -5  -1  -9   24.83    0.88
  -3  -1 -26    0.11    1.19
  -1  -1 -27   -0.96    1.35
   7  -1  -7   15.84    0.91
  11  -1 -11    2.19    0.86
  13  -1 -25   -0.62    1.37
  13  -1 -24    2.42    1.34
  13  -1 -23    2.63    1.26
  13  -1 -14    0.20    1.01
  -7  -1 -12    5.19    0.68
  -3  -1 -27    2.57    1.30
   9  -1  -8    1.01    0.85
  11  -1 -10   21.86    0.96
  13  -1 -13    0.03    0.88
  -7  -1 -11    0.62    0.57
  13  -1 -12   12.24    1.11
  15  -1 -24    0.18    1.07
  15  -1 -23    1.26    1.16
  15  -1 -21    1.89    1.05
  15  -1 -20   10.00    1.12
  15  -1 -19    4.01    1.18
  15  -1 -18    2.12    1.03
  15  -1 -17    1.88    0.94
  -7  -1 -10   17.94    0.75
   2  -2 -19    1.30    1.02
   2  -2 -18    0.72    1.02
   2  -2 -17    1.46    0.94
   4  -2 -21    7.23    1.27
   4  -2 -20    1.53    1.26
   4  -2 -19    6.17    1.17
   4  -2 -18    6.38    1.18
   4  -2 -17   42.68    1.45
   6  -2 -19    1.47    1.10
  11  -1  -9   15.06    0.84
  15  -1 -25    0.69    1.28
  15  -1 -16    1.53    0.92
  15  -1 -15    1.58    0.96
   0  -2 -20    0.34    1.03
   0  -2 -19   -0.20    1.05
   2  -2 -21    5.68    1.31
   2  -2 -20   22.96    1.40
   2  -2 -16   -0.82    1.11
   2  -2 -15    1.34    1.01
   4  -2 -23   -0.49    1.28
   4  -2 -22    5.62    1.25
   6  -2 -23    1.42    1.33
   6  -2 -22    8.91    1.42
   6  -2 -21    3.47    1.23
   6  -2 -20   10.83    1.29
   6  -2 -18    0.65    1.02
   6  -2 -16    6.31    1.13
   7  -1  -6   51.61    0.96
   8  -2 -21    0.42    1.10
   9  -1  -7   68.45    1.12
  13  -1 -11    0.36    0.75
   8  -2 -18   11.07    0.99
  -7   3   2   11.94    0.46
  -3   7   4    0.23    0.58
  -1   7   3   -0.20    0.63
   1   7   2   -0.25    0.63
   3   5  -2    4.26    0.70
   4   4  -3   -0.07    0.62
   4   6  -1    2.12    0.84
   5   7   1    0.01    0.81
   9   3  -4   -0.39    0.57
   9   5  -3    4.49    0.79
  11   3  -4    1.08    0.66
  12   6  -1   -0.18    0.73
  14   4  -3    1.42    0.64
  15   5  -2    0.36    0.66
  16   6   0    0.62    0.84
  -4   4   0    0.52    0.48
  -2   6   1    0.33    0.52
  -1   5  -1   -0.61    0.70
   0   4  -2    0.16    0.57
   7   5  -3    0.42    0.66
   7   7   0    1.39    0.94
   8   2  -4   46.26    0.85
   8   6  -2    2.23    0.85
   9   7   0    1.54    0.87
  10   6  -2    1.32    0.88
  11   5  -3   16.65    0.96
  14   6  -1    5.76    0.78
  -3   3  -1  356.02    1.85
  -3   5   0   48.75    1.14
  -1   3  -2    0.02    0.50
  -1   7   2    0.27    0.60
   1   5  -2   17.58    0.89
   1   7   1    0.04    0.64
   2   2  -3    7.47    0.47
   2   4  -3    0.15    0.73
   2   6  -1   -0.01    0.75
   5   3  -4  210.13    1.72
   5   5  -3   22.73    0.84
   5   7   0    1.68    0.90
   6   4  -4   45.73    1.15
   6   6  -2    0.14    0.80
  12   4  -4    9.70    0.81
  12   6  -2    0.40    0.86
  13   3  -4    4.28    0.66
  13   5  -3    2.28    0.66
  16   6  -1   -0.62    0.81
  -6   4   1    1.12    0.47
  -5   3   0    3.10    0.52
  -5   5   1    0.21    0.42
   1   3  -3    0.67    0.43
   4   4  -4    3.30    0.74
   4   6  -2    1.77    0.86
   7   7  -1    0.44    0.80
   9   7  -1    0.36    0.88
  14   4  -4    0.35    0.62
  14   6  -2   13.01    1.01
  -2   6   0   -0.18    0.49
  -1   7   1    0.46    0.54
   0   6  -1    1.89    0.82
   1   7   0    0.07    0.66
   2   6  -2    1.92    0.76
   3   3  -4   26.73    0.81
   5   7  -1    0.80    0.84
   6   6  -3    0.89    0.78
   7   5  -4    0.49    0.64
  12   6  -3    0.11    0.85
  16   6  -2    0.20    0.67
  -3   5  -1   87.22    1.40
  -3   7   2   -0.30    0.59
   1   5  -3    0.24    0.67
   4   2  -4   23.64    0.64
   4   6  -3   -0.10    0.78
   7   7  -2    0.25    0.97
  11   3  -5   -0.11    0.63
  12   4  -5    2.08    0.68
  14   6  -3   -0.52    0.83
  -5   5   0    0.19    0.62
   2   4  -4   69.14    1.29
   3   5  -4    8.50    0.76
   5   7  -2   -0.85    0.91
  11   5  -5   -0.78    0.70
  13   3  -5   -0.40    0.64
  14   4  -5    0.55    0.63
  15   5  -4    1.88    0.70
  -7   3   1   11.80    0.49
  -6   4   0    2.85    0.55
  -4   6   0   -0.03    0.47
  -3   7   1   -0.33    0.64
  -1   7   0    0.14    0.62
   0   6  -2    0.55    0.71
   1   7  -1   -0.13    0.64
   2   6  -3    0.59    0.85
   3   7  -2    0.01    0.91
   6   6  -4    8.26    0.95
   7   5  -5    0.47    0.72
   8   2  -5    4.63    0.59
  10   2  -5    2.69    0.57
  12   6  -4    1.17    0.80
  13   5  -5   -0.49    0.75
  16   6  -3   -0.29    0.73
  -3   3  -2    2.70    0.53
  -1   5  -3    0.85    0.74
   1   3  -4    6.06    0.65
   5   7  -3    3.94    0.99
   7   7  -3   -0.47    0.95
  10   4  -6    0.93    0.75
  15   5  -5    1.45    0.70
  -3   5  -2    2.56    0.67
  -2   4  -3   31.42    0.85
  -2   6  -2    4.94    0.79
  -1   7  -1   -0.16    0.63
   0   4  -4    9.30    0.71
   0   6  -3   -0.02    0.70
   1   7  -2    0.25    0.64
   2   2  -4  229.94    1.43
   3   3  -5   23.81    0.79
   3   5  -5    3.75    0.70
   6   4  -6    7.95    0.76
   9   3  -6    4.01    0.64
  11   3  -6    8.07    0.74
  11   5  -6    1.75    0.81
  12   4  -6    0.99    0.59
  12   6  -5    1.30    0.87
  16   6  -4   -0.76    0.80
  -4   4  -2    0.66    0.49
   2   4  -5  135.07    1.62
   2   6  -4   13.64    0.96
   3   7  -3    2.12    0.97
   7   5  -6    3.21    0.84
   7   7  -4   -0.74    0.89
   9   7  -4   -0.69    0.81
  13   3  -6    5.48    0.71
  13   5  -6    1.41    0.87
  14   4  -6    0.46    0.66
  14   6  -5    1.22    0.78
  -1   7  -2   -0.33    0.63
   4   4  -6    1.06    0.77
   4   6  -5    1.49    0.80
   5   3  -6    0.47    0.59
   5   7  -4   12.11    1.06
  16   6  -5    1.16    0.82
  -6   4  -1  111.14    1.26
  -6   6   0   -0.14    0.40
  -2   6  -3    5.42    0.78
  -1   5  -4   -0.25    0.66
   0   6  -4    0.54    0.78
   1   7  -3   -0.12    0.75
   3   7  -4    0.92    0.96
   4   2  -5   41.62    0.72
   6   6  -6    1.80    0.84
   7   7  -5    0.04    0.84
   8   6  -6    1.76    0.77
   9   7  -5    1.38    1.04
  10   4  -7   19.44    0.96
  11   5  -7    3.61    0.83
  12   4  -7    7.44    0.83
  12   6  -6   -0.98    0.78
  14   6  -6   -0.44    0.75
  -5   5  -2    4.08    0.73
  -4   6  -2    0.43    0.52
  -3   3  -3    2.11    0.50
  -2   4  -4    9.60    0.69
   0   4  -5   31.70    0.97
   1   3  -5    3.40    0.59
   2   6  -5   32.38    1.16
   3   5  -6   21.03    0.96
   5   7  -5    4.00    0.97
   6   4  -7    0.09    0.74
   7   5  -7    1.11    0.85
   9   3  -7   27.50    0.91
  12   2  -6    1.67    0.48
  13   5  -7   19.32    1.12
  14   4  -7    8.52    0.86
  -4   4  -3    2.21    0.55
  -3   7  -2    0.12    0.59
  -1   7  -3    0.13    0.61
   2   4  -6    9.01    0.62
   3   3  -6   96.25    1.27
   3   7  -5   -0.64    0.97
   4   6  -6    0.09    0.74
   8   6  -7    0.32    0.88
  12   6  -7    1.58    0.91
  16   6  -6    3.20    0.77
  -7   5  -1    2.10    0.70
  -3   5  -4    1.98    0.80
  -2   6  -4    1.01    0.73
  -1   5  -5   56.81    1.31
   0   2  -4   43.37    0.72
   0   6  -5    5.02    0.87
   1   5  -6    9.55    0.83
   5   7  -6    0.10    0.91
   6   6  -7   -0.27    0.89
   7   7  -6    0.04    0.86
  10   4  -8   32.65    0.99
  11   5  -8    2.80    0.80
  14   6  -7    0.50    0.87
  -4   6  -3   -0.55    0.68
  -1   7  -4    0.12    0.57
   1   7  -5   -0.16    0.83
   2   2  -5  363.47    1.86
   3   5  -7    2.17    0.81
   5   3  -7    5.58    0.67
   7   5  -8   14.30    1.01
  13   5  -8   10.45    0.86
  14   4  -8    2.00    0.73
  16   6  -7    3.98    0.93
  -5   5  -3   36.91    1.06
  -3   7  -3    0.29    0.56
  -2   4  -5   25.13    0.87
  -1   3  -5  227.40    1.73
   0   4  -6    0.48    0.65
   1   3  -6   46.20    0.98
   2   4  -7    1.21    0.78
   3   7  -6    2.27    0.91
   5   5  -8    0.34    0.83
   6   4  -8   11.58    0.84
   7   7  -7    0.30    0.95
   8   6  -8    0.48    0.90
   9   3  -8   -0.16    0.65
  11   3  -8    8.26    0.81
  12   6  -8    1.51    0.84
  14   6  -8   -0.67    0.86
  15   5  -8    0.83    0.70
  -4   4  -4   19.11    0.75
  -2   6  -5    3.41    0.82
   0   6  -6    0.79    0.74
   1   5  -7   14.52    0.88
   2   6  -7    0.28    0.78
   3   3  -7    3.34    0.67
   4   4  -8   22.34    0.92
   5   7  -7    0.26    0.93
   6   6  -8    0.51    0.79
   8   2  -7    2.11    0.59
  10   2  -7   60.43    1.01
  10   4  -9   23.19    0.98
  11   5  -9    2.35    0.82
  12   2  -7   19.58    0.69
  13   5  -9   -0.69    0.84
  -7   3  -1    8.91    0.51
  -7   5  -2    0.23    0.60
  -4   6  -4    2.55    0.70
  -3   5  -5    0.00    0.68
  -3   7  -4    0.14    0.59
  -1   7  -5   10.66    0.99
   1   7  -6    0.42    0.99
   3   5  -8    0.71    0.77
   3   7  -7    0.85    0.77
   4   6  -8    5.05    0.95
   7   5  -9   21.55    1.09
   8   6  -9    0.61    0.89
  12   4  -9    4.37    0.77
  12   6  -9    0.39    0.91
  14   4  -9    3.56    0.80
  15   5  -9    0.68    0.89
  -6   6  -3    0.53    0.67
  -5   3  -3  146.60    1.36
  -5   5  -4    0.20    0.69
   5   3  -8    4.39    0.69
   5   5  -9   13.92    1.02
   6   6  -9    0.26    0.93
  14   6  -9   -0.15    0.92
  -2   4  -6   18.61    0.83
  -2   6  -6    4.18    0.81
  -1   5  -7   14.08    0.83
  -1   7  -6    6.12    0.88
   0   2  -5  114.27    1.08
   1   5  -8    2.75    0.73
   1   7  -7    1.62    0.96
   2   2  -6   27.01    0.70
   2   4  -8   27.14    1.00
   2   6  -8    4.50    0.84
   9   3  -9    7.22    0.80
  11   3  -9    5.35    0.82
  13   5 -10    1.87    0.79
  -7   5  -3    2.76    0.70
  -4   4  -5   20.69    0.80
  -3   5  -6   12.81    0.78
  -3   7  -5   -0.69    0.62
  -2   2  -4   33.58    0.65
  -1   3  -6   83.27    1.17
   1   3  -7   58.76    1.10
   3   7  -8    0.20    0.76
   4   4  -9    6.93    0.93
   4   6  -9    2.76    0.85
   7   5 -10   19.07    1.09
  10   4 -10    0.71    0.75
  12   6 -10   -0.30    0.79
  14   6 -10   -0.87    0.94
  15   5 -10    1.37    0.96
  -6   6  -4   -0.60    0.72
  -5   5  -5    0.80    0.75
  -5   7  -4    0.04    0.51
  -3   3  -5    3.04    0.59
   0   6  -8   -0.36    0.80
   3   3  -8    3.73    0.49
   4   2  -7   28.84    0.81
   5   5 -10   -0.58    0.84
   5   7  -9    2.97    0.86
   6   6 -10   -0.76    1.02
   8   2  -8   23.74    0.79
  10   2  -8   75.15    1.12
  12   2  -8   26.59    0.79
  14   4 -10    2.42    0.75
  -7   3  -2    3.11    0.44
  -6   4  -4   -0.25    0.61
  -4   6  -6   14.24    0.96
  -3   7  -6    0.87    0.64
  -1   5  -8    3.35    0.87
  -1   7  -7    2.19    0.89
   1   7  -8    0.41    0.78
   2   6  -9    0.88    0.78
   3   7  -9   -0.01    0.90
   6   4 -10    1.21    0.68
  11   5 -11    0.97    0.81
  12   6 -11   -0.53    0.96
  -5   3  -4    0.48    0.55
  -5   7  -5    0.32    0.51
  -3   5  -7    2.39    0.70
  -2   4  -7    0.15    0.61
   3   5 -10    4.51    0.86
   4   4 -10   98.70    1.68
   8   6 -11    0.56    0.87
  10   4 -11    7.16    0.90
  11   3 -10   14.15    0.89
  14   6 -11    0.24    0.80
  15   5 -11    0.79    0.85
  -7   5  -4    2.21    0.67
  -6   6  -5    1.98    0.66
  -4   4  -6   53.10    1.14
  -2   6  -8    1.62    0.74
  -1   3  -7   63.45    1.08
   0   6  -9    1.10    0.88
   1   3  -8    7.74    0.67
   1   7  -9    0.28    0.86
   2   6 -10    2.46    0.97
   3   7 -10    0.33    0.87
   5   5 -11    2.97    0.81
  14   4 -11    0.23    0.79
  -5   5  -6    0.41    0.70
  -4   6  -7   15.78    0.95
  -3   3  -6   60.17    1.02
  -3   7  -7   -0.11    0.75
   0   2  -6    0.26    0.54
   1   5 -10   15.87    0.97
   2   2  -7    8.27    0.59
   3   3  -9    7.65    0.56
   6   4 -11    6.17    0.81
   8   6 -12    1.08    1.04
  10   2  -9   70.33    1.12
  11   5 -12    1.39    0.74
  12   2  -9    9.93    0.70
  12   6 -12    1.30    0.82
  13   5 -12    1.70    0.91
  -8   4  -3    5.43    0.58
  -6   4  -5    8.35    0.70
  -5   7  -6    0.45    0.59
  -3   5  -8   18.95    0.93
  -2   2  -5   90.62    0.96
  -2   4  -8    9.46    0.80
   0   4  -9    2.88    0.75
   2   4 -10    7.41    0.93
   3   5 -11    1.04    0.85
   4   2  -8   71.47    1.08
   5   3 -10    4.51    0.74
   6   6 -12    0.46    1.01
   7   5 -12   -0.13    0.73
   8   2  -9   15.44    0.71
  10   4 -12    5.19    0.89
  11   3 -11    0.11    0.85
  12   4 -12    3.94    0.89
  15   5 -12    9.33    0.96
  -7   3  -3   15.58    0.58
  -7   5  -5    1.28    0.65
  -6   6  -6    0.90    0.69
  -4   4  -7   56.47    1.22
  -3   7  -8    3.79    0.83
  -2   6  -9   -0.01    0.84
  -1   7  -9    0.70    0.77
   0   6 -10    0.37    0.79
   2   6 -11    0.32    0.94
   4   4 -11    6.92    0.78
   9   3 -11    0.76    0.79
  10   6 -13   -0.01    0.89
  11   5 -13    1.10    0.78
  12   6 -13    6.25    0.94
  13   3 -11    0.23    0.76
  -5   3  -5    1.80    0.52
  -5   5  -7    4.21    0.72
  -5   7  -7   -0.41    0.72
  -4   6  -8    3.81    0.81
  -1   3  -8   14.59    0.75
   1   3  -9    9.23    0.74
   3   3 -10   18.59    0.87
   6   4 -12    1.63    0.81
   7   5 -13   -0.92    0.88
   8   6 -13    0.63    0.82
  13   5 -13    0.27    0.78
  15   5 -13    4.17    0.87
  -3   5  -9   -0.22    0.74
  -1   5 -10    6.42    0.83
  -1   7 -10    0.28    0.87
   0   4 -10    0.16    0.87
   0   6 -11    3.32    0.88
   1   7 -11    6.79    0.97
   2   2  -8   91.02    1.15
   2   4 -11    1.97    0.74
   2   6 -12    2.37    0.85
   3   5 -12    2.92    0.84
   6   6 -13    1.05    0.85
  10   2 -10    1.02    0.62
  10   4 -13    1.65    0.79
  12   4 -13   24.81    1.18
  -8   4  -4   27.38    0.83
  -6   4  -6   -0.14    0.63
  -6   6  -7    4.36    0.77
  -3   3  -7   13.79    0.67
  -2   4  -9    4.20    0.78
  -2   6 -10    1.58    0.84
   0   2  -7  134.97    1.30
   4   2  -9   16.66    0.82
   4   4 -12    8.24    0.89
   4   6 -13    0.62    0.94
   5   3 -11    8.16    0.61
   5   5 -13    1.43    0.84
   8   2 -10   50.84    1.00
   8   6 -14    0.60    0.93
   9   3 -12    3.89    0.85
  10   6 -14    0.73    0.81
  11   3 -12    4.78    0.84
  11   5 -14   -1.08    0.96
  12   2 -10   -0.37    0.55
  13   5 -14   -0.21    0.79
  -5   5  -8    0.17    0.72
  -5   7  -8    0.43    0.73
  -4   4  -8   17.97    0.89
  -4   6  -9    4.94    0.84
  -2   2  -6   55.56    0.89
  -1   7 -11    0.10    0.72
   1   5 -12    0.63    0.84
   6   4 -13    3.12    0.86
   6   6 -14    2.61    1.02
   7   5 -14    2.52    0.86
  15   5 -14    0.15    0.86
  -6   6  -8    7.38    0.80
  -5   3  -6    3.29    0.55
  -3   7 -10    0.16    0.84
  -2   6 -11    7.12    0.85
  -1   3  -9   15.38    0.79
   0   4 -11   15.90    0.94
   1   3 -10   35.95    1.03
   2   4 -12    5.22    0.77
   2   6 -13    5.47    0.99
   3   5 -13    6.83    0.88
  10   4 -14    5.53    0.94
  12   4 -14    5.50    0.95
  -8   4  -5   -0.08    0.61
  -5   7  -9    0.46    0.69
  -4   6 -10   -0.75    0.72
  -3   3  -8   59.24    1.06
   4   4 -13    0.17    0.81
   4   6 -14   -1.15    0.88
   5   3 -12   17.26    0.98
   5   5 -14    1.49    0.80
   9   1  -8    0.85    0.49
   9   5 -15    1.49    1.02
  10   2 -11   17.91    0.84
  11   3 -13    5.75    0.85
  11   5 -15   -0.34    0.95
  13   5 -15    5.69    0.95
  14   4 -14    1.70    0.87
  -4   2  -5   73.09    0.93
  -3   7 -11    1.33    0.90
   1   5 -13    4.14    0.98
   2   2  -9   31.08    0.92
   4   2 -10  238.53    1.91
   6   4 -14   10.61    0.95
   6   6 -15   10.75    1.07
   7   5 -15    2.02    0.98
   8   2 -11    2.20    0.61
   9   3 -13   11.36    0.93
  12   2 -11    6.87    0.67
  13   3 -13    0.28    0.70
  15   5 -15    0.16    0.86
  -6   6  -9    0.82    0.78
  -2   6 -12   14.43    1.11
   0   4 -12   18.91    1.00
   2   4 -13   18.21    1.02
   3   3 -12   10.84    0.89
   5   5 -15   -0.42    0.95
   7   1  -8   88.33    1.00
  10   4 -15    6.95    0.96
  11   5 -16    0.01    1.03
  12   4 -15    2.56    0.93
  -7   3  -5    2.89    0.47
  -7   5  -8   34.41    1.11
  -6   4  -8   29.75    1.05
  -5   3  -7   21.02    0.74
  -5   5 -10    5.51    0.89
  -2   2  -7    0.85    0.53
  -1   3 -10   26.08    0.90
   4   4 -14   -0.47    0.84
   5   3 -13    3.49    0.94
   6   6 -16    0.27    0.96
   8   4 -15    0.12    0.90
  11   3 -14    1.88    0.79
  13   5 -16    0.23    0.83
  14   4 -15    0.81    0.83
  15   5 -16   -0.24    0.81
  -8   4  -6    0.84    0.55
  -4   4 -10    0.75    0.74
  -2   6 -13   -0.99    0.84
   1   5 -14    0.33    0.86
   2   6 -15    0.38    0.91
   3   5 -15   22.47    1.23
   6   4 -15   44.93    1.43
  12   2 -12    5.56    0.79
  13   3 -14    0.18    0.71
  -4   6 -12    1.60    0.76
   0   2  -9   12.03    0.77
   0   4 -13    3.83    0.83
   1   3 -12    0.34    0.77
   2   2 -10   19.39    0.83
   2   4 -14    1.87    0.83
   4   2 -11   22.62    0.84
   4   6 -16    0.69    0.86
   5   5 -16   -0.39    1.03
   8   2 -12   23.24    0.83
   9   1  -9   14.97    0.61
   9   5 -17    0.94    0.90
  10   4 -16    5.86    1.04
  11   5 -17    0.02    0.97
  12   4 -16   -0.58    0.94
  13   5 -17    0.15    0.97
  14   4 -16    0.17    0.88
  -7   5  -9    0.33    0.67
  -5   3  -8    2.75    0.67
  -5   5 -11    1.37    0.75
  -4   2  -6  144.04    1.28
  -1   3 -11   -0.77    0.71
   1   5 -15    0.61    0.81
   2   6 -16   -0.04    0.96
   3   3 -13   22.05    1.08
   4   4 -15    2.88    0.85
   7   5 -17    4.75    1.07
   8   4 -16   -1.08    0.88
  -8   4  -7   -0.11    0.61
  -7   3  -6   38.70    0.85
  -6   6 -11    0.29    0.86
  -4   4 -11    1.50    0.74
  -3   5 -13    2.39    0.79
  -2   2  -8   36.80    0.87
  -2   6 -14   -0.41    1.01
   3   5 -16    6.05    0.97
   5   5 -17   -0.19    0.90
   6   4 -16    1.82    0.95
   9   3 -15    4.79    0.79
  11   3 -15    2.02    0.67
  13   3 -15   15.87    0.89
  -7   5 -10    1.46    0.79
  -4   6 -13    0.52    0.94
   1   3 -13   15.08    0.99
   3   1  -8    5.93    0.54
   4   4 -16    0.27    0.88
   7   3 -15    2.04    0.90
   8   4 -17   -0.45    0.84
   9   5 -18   -0.81    1.02
  10   2 -13   -0.77    0.71
  10   4 -17   -0.20    0.94
  12   2 -13   61.33    1.19
  12   4 -17    0.92    0.96
  13   5 -18   -0.24    1.00
  14   4 -17    3.78    0.96
  -6   4 -10    6.87    0.88
  -6   6 -12    0.65    0.83
  -2   6 -15    0.78    0.97
  -1   3 -12    0.13    0.79
   0   2 -10    2.04    0.66
   1   5 -16    1.76    1.02
   3   3 -14    1.18    0.88
   3   5 -17    0.69    0.99
   4   2 -12   32.09    0.91
   5   3 -15    1.16    0.70
   6   4 -17    0.49    0.98
   7   5 -18    0.82    1.02
   9   1 -10   24.81    0.75
  11   1 -10   19.29    0.63
  11   3 -16    0.25    0.86
  -8   4  -8    8.53    0.75
  -7   3  -7   32.09    0.85
  -5   3  -9    8.63    0.68
  -4   2  -7  143.80    1.37
  -4   4 -12    2.50    0.80
  -4   6 -14    3.58    0.93
  -3   5 -14    0.18    0.91
  -2   2  -9   19.20    0.78
   5   5 -18    1.28    0.96
   9   3 -16    7.32    0.93
   9   5 -19    2.70    0.92
  10   4 -18    0.83    0.96
  11   5 -19    3.02    1.03
  12   4 -18   -0.48    0.84
  13   3 -16    0.93    0.71
  -7   5 -11    0.38    0.72
  -6   2  -5   30.42    0.71
   0   4 -15    3.16    0.92
   1   3 -14    2.08    0.92
   1   5 -17    0.11    0.85
   2   4 -16    0.35    0.82
   3   3 -15   74.08    1.48
   4   4 -17   20.42    1.16
   7   3 -16   14.81    1.03
   8   4 -18    7.26    1.08
  10   2 -14   11.66    0.80
  -9   3  -5    0.35    0.50
  -6   4 -11   -0.20    0.73
  -6   6 -13    0.79    0.79
  -3   5 -15   -0.74    1.00
  -2   6 -16    0.42    0.82
  -1   3 -13   31.93    1.22
   2   2 -12   11.01    0.76
   3   1  -9   24.26    0.76
   3   5 -18    0.70    0.82
   4   2 -13    0.07    0.70
   5   3 -16   -0.82    0.82
   5   5 -19    0.43    0.94
   8   2 -14    0.94    0.73
  11   3 -17    2.41    0.76
  -8   4  -9    9.54    0.83
  -7   3  -8  108.17    1.39
  -4   2  -8   56.30    1.01
  -4   4 -13    1.90    0.78
   0   4 -16   29.65    1.28
   1   1  -8   21.66    0.66
   2   4 -17   -0.64    0.92
   9   1 -11    1.97    0.52
   9   3 -17    1.96    0.79
   9   5 -20    0.19    1.04
  11   1 -11    1.82    0.45
  13   3 -17    0.53    0.74
  -7   5 -12    0.32    0.85
  -6   2  -6    0.57    0.58
  -6   6 -14    0.53    0.83
  -5   5 -14    3.88    0.99
  -2   2 -10    8.99    0.73
   1   3 -15    0.75    0.74
   1   5 -18   12.93    1.22
   3   3 -16   18.79    1.10
   3   5 -19   -0.09    0.97
   4   4 -18    2.09    0.91
   7   1 -11   60.88    1.01
   7   5 -20    0.32    0.90
  10   2 -15   11.67    0.87
  -8   4 -10    0.33    0.75
  -6   4 -12    8.12    0.84
  -4   4 -14   13.23    0.98
  -1   3 -14   11.97    0.91
   0   2 -12   60.92    1.21
   2   2 -13   53.16    1.18
   4   2 -14    1.77    0.72
   5   3 -17    2.14    0.85
   5   5 -20    5.85    1.09
   6   4 -19   -0.86    0.91
   8   2 -15    2.70    0.74
   9   3 -18   -0.27    0.83
  11   3 -18   14.41    1.02
  12   4 -20    7.67    1.03
  -7   3  -9   -0.71    0.66
  -6   6 -15    0.10    0.88
  -5   3 -11    0.97    0.69
  -5   5 -15   -0.02    0.81
  -4   2  -9   72.76    1.13
  -1   1  -7  128.10    1.08
   0   4 -17    6.53    0.94
   1   5 -19   -1.11    1.03
   2   4 -18    0.50    0.91
   3   1 -10   49.34    0.95
   3   5 -20    1.02    1.09
   4   4 -19    1.39    1.05
   6   2 -15  115.28    1.76
   7   3 -18    1.14    0.90
   8   4 -20    6.94    1.12
  10   4 -20    0.89    0.86
  14   4 -20    0.23    0.86
  -6   4 -13    1.91    0.74
  -3   5 -17    6.87    0.98
  -2   2 -11   57.11    1.14
  -1   3 -15    2.42    0.76
   1   1  -9   18.59    0.73
   1   3 -16    6.59    0.92
   3   3 -17   -0.34    0.86
   8   2 -16    0.91    0.72
   9   1 -12    8.08    0.59
  10   2 -16   17.78    1.02
  11   1 -12   10.37    0.56
  12   2 -16    0.27    0.71
  -9   3  -7   27.49    0.87
  -8   4 -11    5.84    0.77
  -7   5 -14    0.42    0.85
  -6   2  -7   77.43    1.07
  -5   3 -12   60.30    1.36
  -4   4 -15    2.84    0.88
   0   2 -13   11.27    0.83
   0   4 -18   -0.10    0.87
   2   2 -14    3.53    0.57
   2   4 -19    0.87    1.04
   4   2 -15    5.28    0.89
   5   3 -18    1.13    0.88
   7   1 -12    0.14    0.58
   9   3 -19    9.41    1.07
  10   4 -21    1.13    0.95
  11   3 -19    7.83    1.00
  12   4 -21   -0.41    0.97
  13   3 -19   -0.06    0.81
  -7   3 -10    9.73    0.82
  -5   5 -16    0.98    0.84
  -4   2 -10    1.40    0.62
  -1   1  -8   25.89    0.72
   1   3 -17   -0.38    0.80
   1   5 -20   -0.79    0.91
   3   1 -11    7.61    0.72
   3   3 -18   -1.67    0.88
   4   4 -20    1.07    0.98
   6   2 -16    6.64    0.91
   7   3 -19    1.48    0.88
   8   4 -21   -1.46    0.98
  -8   4 -12    0.54    0.68
  -6   2  -8   98.07    1.28
  -6   4 -14    1.26    0.77
  -4   4 -16    6.64    0.94
  -3   5 -18   -0.38    0.93
  -2   2 -12  164.67    1.74
  -1   3 -16    1.90    0.84
   1   1 -10   73.15    1.10
   2   2 -15    1.74    0.80
   4   2 -16    5.17    0.88
   5   3 -19    8.30    1.07
   6   4 -21    1.12    0.90
   8   2 -17    0.15    0.76
   9   3 -20    0.77    0.93
  10   2 -17   -0.43    0.76
  10   4 -22    0.20    0.95
  11   1 -13   10.26    0.62
  11   3 -20   -0.08    0.94
  12   2 -17    1.15    0.69
  12   4 -22   -0.54    0.87
  13   3 -20   -0.15    0.87
  -8   2  -5    1.10    0.47
  -7   3 -11    0.81    0.64
  -7   5 -15   10.52    1.03
  -5   3 -13   50.42    1.33
  -5   5 -17    0.69    0.97
   0   2 -14    0.72    0.78
   2   4 -20   10.80    1.07
   4   4 -21    3.36    1.10
   6   2 -17   -0.66    0.74
   7   1 -13    1.02    0.58
   7   3 -20   -0.65    0.92
   8   4 -22    0.54    1.04
  -6   4 -15   -0.71    0.82
  -4   4 -17    0.96    0.81
  -3   5 -19    0.28    1.01
  -2   2 -13    9.11    0.81
  -1   3 -17    0.69    0.85
   1   3 -18   46.66    1.48
   3   1 -12   20.41    0.82
   3   3 -19    0.59    0.95
   5   3 -20   13.02    1.07
   6   4 -22    4.39    1.12
  10   2 -18    0.15    0.74
  12   2 -18    1.58    0.75
  -9   3  -9   11.32    0.78
  -7   5 -16    0.22    0.80
  -6   2  -9    3.07    0.59
  -3   1  -7   41.98    0.76
   0   2 -15    7.30    0.90
   0   4 -20    0.49    0.98
   1   1 -11  269.67    2.02
   2   4 -21    3.02    0.98
   4   2 -17   43.89    1.22
   4   4 -22    1.80    0.95
   7   1 -14    6.47    0.67
   8   2 -18   11.31    0.91
   8   4 -23    0.66    0.98
  11   1 -14    1.38    0.57
  11   3 -21    2.56    0.85
  13   3 -21    0.20    0.86
  -8   2  -6    2.79    0.43
  -6   4 -16    0.21    0.79
  -3   5 -20    0.00    0.96
   1   3 -19    1.91    0.96
   3   3 -20    0.91    1.00
   6   2 -18    1.43    0.80
   7   3 -21    0.20    0.89
  -8   4 -14    0.74    0.73
  -7   5 -17    1.18    0.84
  -6   2 -10   19.09    0.84
  -5   3 -15    5.32    0.81
  -5   5 -19    4.47    0.96
  -4   4 -18    0.12    0.90
  -3   1  -8  105.02    1.19
  -2   2 -14    3.93    0.63
  -1   1 -10   70.52    1.08
  -1   3 -18    0.02    0.86
   1   1 -12    3.88    0.70
   2   2 -17    1.01    0.73
   2   4 -22    2.67    1.09
   3   1 -13   40.23    0.99
   4   2 -18    6.00    0.88
   4   4 -23   -0.94    1.09
   5   1 -14   15.35    0.83
   5   3 -21    3.41    1.00
   8   2 -19   13.88    1.00
   9   1 -15    4.22    0.73
  10   2 -19   -0.20    0.80
  11   1 -15    0.28    0.71
  11   3 -22   -0.75    0.89
  -9   3 -10    5.20    0.72
  -7   3 -13    0.84    0.70
  -6   4 -17    7.51    1.05
   0   2 -16   76.47    1.61
   1   3 -20   -0.80    0.91
   3   3 -21    2.44    0.91
   6   2 -19    0.34    0.82
   7   1 -15    4.43    0.72
   7   3 -22    3.44    1.06
  -8   4 -15   -0.29    0.85
  -7   5 -18   -0.01    0.88
  -4   4 -19    1.06    0.98
  -2   2 -15    3.39    0.93
  -1   1 -11   -0.60    0.68
  -1   3 -19    2.80    0.98
   0   4 -22   -0.35    0.96
   2   2 -18   -0.30    0.82
   2   4 -23    0.12    0.99
   3   1 -14    2.57    0.69
   5   1 -15    2.32    0.68
   5   3 -22   -1.11    1.07
   8   2 -20   11.73    0.96
   9   3 -23    0.10    1.00
  10   2 -20    0.21    0.80
  11   3 -23   -0.30    0.80
  12   2 -20   14.24    0.96
  -9   3 -11    8.18    0.77
  -8   2  -8   27.62    0.84
  -7   3 -14   -0.25    0.75
  -6   2 -11   -0.46    0.59
  -5   3 -16    4.93    0.81
  -3   1  -9    2.31    0.59
   0   2 -17    5.44    0.87
   1   1 -13   36.51    0.97
   7   1 -16   25.57    1.01
   7   3 -23    6.31    1.14
  11   1 -16    0.97    0.65
  -8   4 -16   -0.21    0.83
  -7   5 -19   -0.14    0.91
  -6   4 -18    8.07    0.96
  -4   4 -20    1.67    1.01
  -2   2 -16    5.58    0.85
  -1   1 -12    1.44    0.68
  -1   3 -20    7.67    1.11
   1   3 -21    1.31    0.91
   3   1 -15  130.32    1.68
   3   3 -22    3.41    0.98
   5   3 -23    2.70    1.08
  10   2 -21    1.67    0.79
  -9  -3  -4    0.84    0.72
  -8  -4 -11    6.10    1.23
  -7  -3  -5    3.06    0.83
  -6  -4 -13    2.65    1.25
  -4  -4 -16    4.34    1.42
  -4  -4 -15    2.53    1.22
   1  -3 -13   16.56    1.40
   3  -3 -17    0.29    1.13
   6  -2 -15  117.07    2.16
 -10  -4 -10    0.39    0.75
  -6  -4 -12    5.97    1.25
  -2  -4 -21    0.30    1.30
  -2  -4 -20   -1.02    1.26
  -2  -4 -19    7.58    1.60
  -2  -4 -18    6.23    1.52
  -1  -3  -9   15.66    1.12
   1  -3 -12    1.07    1.11
   7  -1 -11   62.85    1.25
  -8  -4 -10   -0.05    1.00
  -6  -4 -11    0.36    1.02
  -2  -4 -17   12.64    1.42
  -2  -4 -16    2.04    1.39
   0  -2  -5  115.38    1.47
   1  -3 -11  136.73    2.17
   3  -3 -15   71.21    1.84
   6  -2 -14   21.08    1.13
   8  -2 -24    2.61    1.20
   8  -2 -23    0.15    1.08
   8  -2 -22    1.71    1.06
   8  -2 -21   -0.23    1.08
  -9  -3  -3   69.74    1.31
  -8  -4  -9    8.36    1.14
  -7  -3  -4    7.77    0.82
  -5  -3  -5    1.18    0.80
  -2  -4 -15    1.46    1.30
  -1  -3  -8   14.86    0.98
   0  -4 -21    2.85    1.39
   0  -4 -20    0.51    1.47
   0  -4 -19    2.82    1.37
   2  -2  -7    8.33    0.81
   3  -3 -14    1.03    1.28
   5  -3 -25    1.67    1.38
   5  -3 -24   -0.34    1.32
   5  -3 -23    1.68    1.34
   5  -3 -22   -0.60    1.29
   5  -3 -21    2.24    1.31
   5  -3 -20   12.95    1.38
   6  -2 -13    6.27    0.92
   8  -2 -20   11.59    1.14
   8  -2 -19   13.19    1.11
   9  -1 -15    5.50    0.72
 -10  -4  -8   24.72    1.29
  -2  -4 -14    2.43    0.89
  -2  -4 -13    1.84    1.10
   0  -4 -18   -0.56    1.22
   0  -4 -17    4.02    1.35
   1  -3 -10   37.57    1.41
   3  -3 -13   21.06    1.38
   5  -3 -19    7.33    1.22
   5  -3 -18    0.03    1.15
   7  -1 -10  156.00    1.62
   8  -2 -18   12.40    1.18
 -10  -4  -7    2.83    1.08
  -8  -4  -8    8.95    1.17
  -6  -4  -9    1.41    1.13
   0  -4 -16   29.18    1.70
   2  -4 -22    2.24    1.27
   4  -2  -9   17.38    0.98
   6  -2 -12    6.08    0.88
   8  -2 -17    0.46    0.94
 -11  -5 -16    0.13    1.03
 -11  -5 -15   -0.01    0.98
  -9  -5 -17    0.03    1.11
  -9  -5 -16   -0.32    0.95
  -7  -5 -18    0.11    1.07
  -7  -3  -3   14.55    0.91
  -5  -3  -4    0.42    0.77
  -4  -4 -10   -0.07    1.03
  -2  -4 -12   58.55    1.79
   0  -4 -15    4.39    1.20
   0  -4 -14   -0.51    1.05
   1  -3  -9    9.83    1.05
   2  -4 -21    2.81    1.32
   2  -4 -20   10.36    1.56
   2  -4 -19    0.66    1.42
   2  -2  -6   26.55    0.95
   3  -3 -12   11.41    1.17
   5  -3 -16   -0.59    1.00
   8  -2 -16   -0.55    0.95
  -9  -5 -15   -0.48    0.98
  -8  -4  -7    0.01    0.98
  -7  -5 -16    0.06    1.04
  -6  -4  -8   29.54    1.41
  -5  -5 -18   -0.83    1.22
  -4  -4  -9   22.19    1.41
  -2  -4 -11   23.91    1.28
   0  -2  -4   44.59    0.97
   2  -4 -18   -0.72    1.14
   2  -4 -17   -0.14    1.21
   3  -3 -11    1.93    0.94
   5  -3 -15    0.73    1.00
   6  -2 -11   18.96    0.91
   7  -3 -26    1.91    1.29
   7  -3 -25    1.64    1.24
   7  -3 -24    0.45    1.19
   7  -3 -23    6.57    1.24
   7  -3 -21    1.04    1.02
   8  -2 -15    2.03    0.97
   9  -1 -13   16.84    0.76
 -10  -4  -6    3.64    0.94
  -9  -5 -14    0.34    0.89
  -9  -3  -2  144.36    1.57
  -5  -5 -17    1.95    1.44
  -5  -5 -16    1.38    1.21
  -3  -5 -19    0.11    1.38
   0  -4 -13    2.48    1.08
   2  -4 -16    1.30    1.33
   4  -4 -23    0.83    1.13
   4  -2  -8   72.92    1.32
   7  -3 -20    0.33    1.10
   7  -3 -19    0.48    0.96
   7  -1  -9  117.39    1.38
  -8  -4  -6    0.18    0.86
  -7  -5 -13   -0.83    1.09
  -6  -4  -7   23.17    1.27
  -5  -5 -15    0.15    1.38
  -3  -5 -18   -0.13    1.41
  -3  -5 -17    5.91    1.36
   0  -4 -12   19.46    1.33
   2  -4 -15    0.72    1.21
   3  -3 -10   16.58    1.15
   4  -4 -22    1.96    1.28
   4  -4 -21    3.57    1.43
   7  -3 -18    0.40    1.08
   8  -2 -14    1.02    0.91
  -7  -5 -12    0.28    1.12
  -5  -5 -14    3.83    1.33
  -5  -3  -3  149.82    1.75
  -3  -5 -16    2.36    1.44
  -2  -4  -9    5.80    1.18
  -1  -5 -20    2.56    1.52
  -1  -5 -19    0.00    1.26
   0  -4 -11   16.57    1.23
   2  -4 -14    0.30    1.06
   6  -2 -10    0.76    0.76
   7  -3 -17   10.24    1.26
   9  -1 -12    8.03    0.61
  -9  -5 -11    0.43    0.80
  -7  -3  -2    2.84    0.62
  -6  -4  -6    1.13    0.94
  -5  -5 -13   11.81    1.49
  -4  -4  -7   55.02    1.61
  -3  -3  -4   11.78    0.93
  -1  -5 -18    0.23    1.30
  -1  -5 -17    0.89    1.39
   1  -3  -7   58.03    1.42
   2  -2  -5  362.09    2.36
   4  -4 -17   16.22    1.57
   4  -2  -7   32.24    0.99
   7  -3 -16   16.36    1.19
   9  -3 -24    1.68    1.10
  10  -2 -18    0.07    0.84
  -9  -5 -10    3.02    1.15
  -8  -4  -5    0.31    0.84
  -7  -5 -11    1.19    1.03
  -1  -5 -16    0.40    1.47
  -1  -3  -5  233.08    2.25
   0  -4 -10    0.90    1.16
   1  -5 -20   -0.66    1.28
   3  -3  -9    6.47    0.94
   4  -4 -16    1.80    1.19
   6  -4 -23    0.44    1.28
   6  -4 -22    5.39    1.36
   7  -3 -15    3.08    1.08
   9  -3 -23   -0.09    1.11
   9  -3 -22   -0.02    1.12
  10  -2 -17   -0.08    0.90
  -9  -5  -9    4.22    1.10
  -9  -3  -1    0.54    0.50
  -7  -5 -10    1.39    1.12
  -1  -5 -15   -0.27    1.37
   2  -4 -12    5.16    1.06
   4  -4 -15    2.58    1.16
   6  -4 -21    0.15    1.19
   6  -4 -20    5.12    1.40
   8  -2 -12   21.23    0.99
   9  -3 -20    0.28    1.10
   9  -1 -11    1.58    0.49
  -6  -4  -5    8.07    1.01
  -4  -4  -6   48.61    1.48
  -1  -5 -14    1.29    1.34
   0  -4  -9    2.60    1.24
   1  -5 -17   -0.78    1.44
   1  -3  -6   46.85    1.29
   2  -4 -11    1.63    1.11
   3  -3  -8    4.86    0.89
   4  -4 -14    0.67    1.12
   6  -4 -19   -0.46    1.20
   6  -4 -18   -0.94    1.14
   9  -3 -19   10.77    1.13
  10  -2 -16   17.03    1.04
  -9  -5  -8   -0.30    0.91
  -8  -4  -4   26.44    1.20
  -7  -5  -9   -0.55    0.94
  -5  -5 -10    5.18    1.11
  -5  -3  -2   22.65    0.90
  -3  -5 -11    6.42    1.27
  -3  -3  -3    1.88    0.74
  -1  -5 -13   11.56    1.50
   1  -5 -16    3.34    1.47
   3  -5 -20    2.19    1.36
   4  -4 -13   -0.61    0.99
   4  -2  -6    4.32    0.75
   5  -3 -10    4.95    0.93
   6  -4 -17    0.49    1.18
   7  -3 -13    1.32    0.99
   9  -3 -18    0.74    1.03
  10  -2 -15   11.43    0.98
  -7  -5  -8   30.69    1.48
  -7  -3  -1    8.66    0.61
  -5  -5  -9    2.12    1.07
  -1  -5 -12   -0.33    1.15
  -1  -3  -4    0.39    0.82
   0  -4  -8    0.06    1.06
   1  -5 -15    0.43    1.34
   2  -4 -10    8.31    1.36
   2  -2  -4  231.87    1.81
   3  -5 -19    0.37    1.25
   3  -5 -18    1.10    1.21
   6  -4 -16    2.77    1.18
   6  -2  -8   44.85    1.08
   8  -4 -23   -0.48    1.26
   8  -4 -22   -0.71    1.08
   8  -2 -11    2.17    0.74
   9  -3 -17    1.91    0.97
  -9  -5  -7    6.34    1.00
  -8  -6 -14   -0.41    0.95
  -6  -6 -15   -0.36    1.14
  -6  -4  -4    0.60    0.85
  -4  -4  -5   21.26    1.16
   1  -5 -14    0.47    1.25
   3  -3  -7    3.13    0.88
   7  -3 -12   -0.83    0.99
   8  -4 -20    6.79    1.25
   9  -3 -16    8.47    1.06
   9  -1 -10   24.12    0.71
  10  -2 -14    9.32    0.87
  -8  -6 -13    0.28    1.01
  -8  -4  -3    4.75    0.85
  -7  -5  -7   11.30    1.20
  -6  -6 -14    0.44    1.31
  -3  -5  -9    0.43    0.99
  -1  -5 -11    1.42    1.19
   0  -4  -7   43.35    1.46
   1  -3  -5    3.38    0.89
   2  -4  -9    9.12    1.34
   3  -5 -16    7.66    1.59
   5  -3  -9   62.16    1.55
   8  -4 -19    4.22    1.37
   9  -3 -15    3.92    1.09
  -8  -6 -12   -0.36    0.96
  -6  -6 -13    0.06    1.23
  -4  -6 -14    1.19    1.44
   1  -5 -12    0.12    1.31
   7  -3 -11   29.11    1.21
   8  -4 -18    4.96    1.30
   8  -2 -10   51.98    1.19
  10  -2 -13    0.63    0.81
  -6  -6 -12    1.63    1.25
  -6  -4  -3    2.96    0.85
  -5  -5  -7    3.37    1.08
  -5  -3  -1    0.03    0.66
  -3  -5  -8   17.74    1.28
   2  -4  -8   26.33    1.41
   3  -5 -14    0.18    1.33
   4  -2  -5   40.89    0.98
   5  -5 -18    2.45    1.21
   5  -5 -17   -0.27    1.23
   6  -2  -7    0.23    0.73
   8  -4 -17    0.89    1.09
   9  -3 -14   51.43    1.68
  10  -4 -23    1.15    1.30
  11  -3 -19    9.11    1.11
  -7  -5  -6    9.66    1.12
  -6  -6 -11    0.63    1.26
   0  -6 -16    6.08    1.54
   1  -5 -11   36.95    1.72
   3  -5 -13    6.23    1.31
   4  -4 -10   97.14    2.11
   5  -5 -16    0.21    1.31
   5  -3  -8    5.62    0.68
   8  -4 -16    0.69    1.19
   9  -1  -9   13.99    0.67
  10  -4 -22    0.77    1.11
  10  -4 -21    2.03    1.16
  -8  -6 -10   -0.71    1.12
  -8  -4  -2   19.83    0.95
  -5  -5  -6    0.23    0.87
  -4  -6 -12    1.36    1.22
  -3  -5  -7    3.57    0.96
  -2  -6 -13    0.38    1.25
   0  -6 -15    1.60    1.31
   1  -5 -10   15.61    1.39
   2  -2  -3    7.34    0.50
   5  -5 -15   -0.42    1.18
   6  -4 -12    2.34    1.09
   7  -5 -20    0.07    1.37
   7  -3 -10   68.48    1.55
   8  -4 -15    0.67    1.08
   8  -2  -9   16.28    0.84
   9  -3 -13   12.69    1.16
  10  -4 -20   -0.31    1.17
  -8  -6  -9    1.98    1.21
  -7  -5  -5    1.01    0.93
  -6  -6 -10    2.14    1.25
  -4  -6 -11    0.43    1.27
  -2  -6 -12   12.98    1.60
  -2  -4  -4    8.50    0.98
   0  -6 -14   -0.35    1.27
   3  -5 -12    3.37    1.26
   7  -5 -19    1.18    1.20
   7  -5 -18    0.06    1.27
  10  -4 -19    0.61    1.16
  11  -3 -16    0.09    0.93
  -6  -4  -2   90.65    1.62
  -4  -6 -10   -0.35    1.30
   0  -6 -13   -0.91    1.48
   0  -4  -5   32.14    1.27
   1  -5  -9    1.64    1.15
   2  -6 -16    0.95    1.40
   3  -5 -11    0.20    1.26
   5  -5 -14    0.96    1.17
   5  -3  -7    4.91    0.66
   6  -4 -11    5.84    1.04
   7  -5 -17    5.42    1.22
   9  -3 -12    3.95    0.96
  10  -4 -18   -0.58    1.13
  -8  -6  -8    0.72    1.14
  -5  -5  -5    0.94    1.02
  -3  -5  -6   13.31    1.19
  -3  -3  -1  352.54    2.49
  -2  -6 -11    5.86    1.42
  -1  -3  -2    0.53    0.78
   2  -6 -15    0.58    1.39
   2  -4  -6    9.75    1.04
   4  -4  -8   22.24    1.39
   4  -2  -4   23.06    0.79
   8  -4 -13   -0.29    1.07
  10  -4 -17   -0.90    1.17
  11  -3 -15    0.69    0.88
  -8  -4  -1   11.55    0.79
  -7  -5  -4    2.46    0.98
  -6  -6  -8    5.90    1.25
  -5  -3   0    0.96    0.66
  -4  -6  -9    4.12    1.36
  -2  -6 -10    2.85    1.25
   0  -6 -12    3.34    1.44
   1  -5  -8    3.55    1.10
   1  -3  -3    0.83    0.78
   2  -6 -14   -1.10    1.36
   3  -5 -10    4.19    1.25
   5  -5 -12    3.70    1.21
   6  -4 -10   -0.15    0.94
   8  -2  -8   23.25    0.90
   9  -5 -20    1.07    1.34
   9  -3 -11    2.10    0.86
  10  -4 -16    5.56    1.17
  -3  -5  -5    0.96    1.01
   0  -6 -11    2.58    1.47
   0  -4  -4    8.78    1.05
   5  -3  -6    0.41    0.81
   8  -4 -12    7.15    1.16
   9  -1  -8    1.05    0.55
  -7  -3   1   11.34    0.70
  -6  -6  -7    5.54    1.19
  -6  -4  -1  108.28    1.69
  -5  -5  -4   -0.30    1.04
  -4  -6  -8    4.06    1.31
  -2  -6  -9    0.65    1.30
   1  -5  -7   15.55    1.31
   2  -6 -12    2.71    1.32
   2  -4  -5  134.90    2.11
   3  -5  -9    1.17    1.17
   3  -3  -4   24.74    1.08
   4  -6 -15   -0.15    1.46
   4  -4  -7    9.31    0.88
   5  -5 -11    3.56    1.35
   6  -4  -9    5.56    1.11
   9  -5 -18    0.31    1.13
   9  -5 -17    1.37    1.34
  10  -4 -15    7.63    1.05
  10  -2 -10    1.20    0.63
  12  -4 -19    1.35    1.20
  -7  -5  -3    3.35    0.99
   8  -4 -11    2.33    0.99
   9  -3 -10   11.59    1.05
  10  -4 -14    5.26    1.18
  11  -3 -13    4.89    1.00
  12  -4 -18   -0.03    1.09
  -6  -6  -6    0.40    1.14
  -4  -6  -7   12.69    1.51
  -3  -5  -4    1.81    1.12
  -3  -3   0  177.43    1.72
  -2  -6  -8    1.29    1.29
  -2  -4  -2   20.21    1.06
  -1  -5  -5   60.12    1.68
   2  -6 -11    1.09    1.51
   4  -6 -13   -0.29    1.31
   5  -5 -10   -0.02    1.22
   5  -3  -5   50.11    1.22
   6  -4  -8   12.67    1.27
   8  -2  -7    1.76    0.69
  -5  -5  -3   37.77    1.43
  -4  -4  -1    3.06    0.79
   0  -4  -3    0.00    0.84
   1  -5  -6   10.21    1.25
   1  -3  -2   92.64    1.34
   4  -6 -12    1.23    1.36
   4  -2  -3    0.52    0.55
   7  -5 -12   -0.51    1.17
   9  -5 -15    2.39    1.33
   9  -3  -9    6.47    0.89
  10  -4 -13   -0.16    0.99
  10  -2  -9   68.77    1.32
  11  -5 -19    2.59    1.33
  11  -3 -12    5.99    0.97
  12  -4 -17    0.35    0.91
  12  -2 -12    5.32    0.88
  -7  -5  -2    0.34    0.94
  -6  -6  -5    1.35    1.10
  -5  -7 -10    0.00    1.32
  -5  -3   1    2.68    0.67
  -2  -6  -7    1.37    1.11
   2  -4  -4   67.16    1.65
   3  -5  -7    1.60    1.10
   3  -3  -3   41.30    1.18
   5  -5  -9   14.38    1.33
   6  -6 -14    2.05    1.50
   7  -5 -11    6.73    1.34
  11  -5 -18    3.70    1.31
  12  -4 -16    0.26    1.08
  -6  -4   0    3.98    0.74
  -3  -7 -10    0.91    1.36
  -1  -5  -4   -0.07    1.03
   1  -5  -5   -0.17    0.97
   2  -6  -9    1.06    1.37
   4  -6 -11    0.11    1.47
   4  -4  -5    9.38    1.08
   6  -6 -13    2.28    1.26
   6  -4  -7   -0.49    1.09
   9  -5 -13    6.53    1.37
  11  -3 -11   -0.38    0.89
  -4  -6  -5    3.53    1.17
  -2  -6  -6    3.50    1.22
  -2  -4  -1    9.02    0.92
   3  -5  -6   21.24    1.34
   5  -5  -8    0.97    1.19
   7  -5 -10   20.32    1.56
   8  -2  -6   10.73    0.77
   9  -3  -8    0.84    0.76
  10  -4 -11    6.03    1.03
  11  -5 -16    0.25    1.27
  12  -2 -11    6.15    0.86
  13  -3 -14    0.46    0.83
  -6  -6  -4   -0.71    0.99
  -5  -7  -8   -0.05    1.19
  -4  -4   0    0.45    0.79
  -3  -7  -9    0.30    1.23
  -1  -7 -10    0.18    1.35
   1  -3  -1    0.54    0.63
   2  -4  -3    0.17    0.93
   6  -6 -12    0.74    1.39
   9  -5 -12    0.82    1.22
  11  -5 -15    0.07    1.25
  12  -4 -14    5.59    1.04
  -7  -5  -1    0.73    0.91
  -4  -6  -4    2.39    0.99
  -3  -7  -8    2.92    1.20
  -3  -5  -2    2.38    1.03
  -3  -3   1   46.34    1.10
  -1  -7  -9    1.30    1.23
   0  -6  -6    0.64    1.24
   1  -5  -4    0.83    0.96
   4  -6  -9    3.36    1.37
   4  -4  -4    5.27    0.99
   5  -5  -7    0.46    1.13
   7  -5  -9   20.51    1.58
  11  -3 -10   13.09    0.96
  13  -3 -13    0.28    0.80
  -6  -6  -3    1.40    1.04
  -5  -5  -1    0.35    0.94
   2  -6  -7   -0.52    1.10
   3  -5  -5    3.62    1.11
   3  -3  -2   21.83    0.81
   4  -2  -2   39.90    0.93
   7  -3  -5    4.52    0.79
   8  -6 -13   -0.77    1.28
  10  -4 -10    0.27    0.85
  11  -5 -14   -0.32    1.27
  12  -2 -10    0.11    0.77
  13  -5 -18   -0.65    1.16
  -6  -4   1    1.07    0.65
  -2  -6  -4    2.44    1.10
  -1  -7  -8    1.11    1.27
   0  -6  -5    5.46    1.28
   4  -6  -8    5.28    1.33
   5  -5  -6   -0.03    1.03
   6  -6 -10    0.70    1.44
   7  -5  -8   14.16    1.34
   8  -6 -12    0.52    1.27
  11  -5 -13    1.35    1.07
  12  -4 -12    3.41    1.05
  13  -5 -17    0.09    1.12
  13  -3 -12    6.42    0.96
  -5  -7  -6   -0.20    1.11
  -5  -3   2   32.82    1.00
  -4  -6  -3   -0.78    1.00
  -3  -5  -1   90.55    1.89
  -2  -4   0    0.76    0.76
   2  -6  -6    2.80    1.25
   2  -4  -2    4.30    0.67
   3  -5  -4    7.10    1.02
   6  -6  -9    1.10    1.21
   8  -2  -5    4.41    0.76
  10  -4  -9   22.82    1.20
  11  -3  -9    5.43    0.85
  13  -5 -16    0.02    0.96
  -4  -4   1   10.95    0.86
  -3  -7  -6    1.41    1.22
  -1  -7  -7    2.38    1.37
   4  -4  -3    0.06    0.83
   7  -5  -7    0.99    1.12
   8  -6 -11    0.31    1.41
  10  -6 -14    0.92    1.16
  11  -5 -12    2.27    1.16
  12  -4 -11    1.47    0.88
  -5  -7  -5    0.89    1.08
  -5  -5   0    0.47    0.89
   0  -6  -4    0.79    1.13
   1  -3   0    2.39    0.63
   2  -6  -5   33.82    1.71
   5  -5  -5   15.41    1.24
   6  -6  -8    1.57    1.33
   6  -4  -4   43.24    1.39
   7  -3  -4    0.72    0.70
   8  -6 -10    5.60    1.27
   8  -4  -6    4.15    1.10
  10  -6 -13    0.85    1.22
  10  -4  -8   32.72    1.28
  11  -3  -8    8.04    0.98
  12  -2  -9   10.50    0.77
  13  -5 -15    4.88    1.04
  13  -3 -11   -0.35    0.88
  14  -4 -14    2.19    0.99
  -1  -7  -6    7.09    1.28
   1  -7  -7    3.06    1.39
   2  -4  -1    1.83    0.84
   3  -7  -8   -0.01    1.19
   4  -6  -6   -0.39    1.19
   7  -5  -6    3.15    1.04
  12  -4 -10    0.15    0.97
  13  -5 -14    0.53    1.11
  -6  -4   2    1.02    0.62
  -5  -7  -4    0.26    1.11
  -3  -5   0   46.90    1.52
  -2  -4   1    1.64    0.77
  -1  -7  -5   12.55    1.48
   4  -4  -2   10.95    0.96
   4  -2  -1   50.29    1.00
   5  -7  -9    1.77    1.49
   5  -5  -4   57.63    1.75
   5  -3  -2   33.74    1.06
   6  -6  -7   -0.16    1.22
   8  -6  -9    1.23    1.38
  10  -2  -6    2.69    0.81
  -4  -6  -1    1.28    1.05
  -3  -7  -4    0.60    1.13
   1  -7  -6    1.86    1.24
   3  -7  -7    0.05    1.38
   8  -2  -4   46.42    1.06
   9  -3  -5   60.64    1.37
  10  -4  -7   19.33    1.10
  11  -3  -7   11.70    1.07
  -4  -4   2   11.07    0.82
  -1  -5   0   -0.38    1.02
   1  -7  -5    0.95    1.36
   3  -5  -2    2.90    0.95
   6  -6  -6    1.88    1.25
   7  -5  -5   -0.09    0.98
   7  -3  -3    0.68    0.77
   8  -6  -8    0.27    1.41
  12  -4  -9    3.18    0.94
  13  -5 -12    0.76    1.20
  14  -4 -12    0.60    0.84
  -3  -7  -3   -0.05    1.16
  -3  -5   1    9.52    1.01
  -2  -6  -1    0.66    1.02
  -1  -7  -4   -1.10    1.12
   0  -6  -2    0.18    1.03
   0  -4   1    3.59    0.81
   1  -3   1    1.56    0.73
   2  -4   0    0.77    0.83
   3  -3   0  178.11    1.94
   8  -4  -4   19.65    1.19
  10  -4  -6    1.21    0.87
  13  -3  -9    1.00    0.83
  -5  -3   3  100.43    1.24
  -4  -6   0   -0.16    0.97
  -1  -3   2   95.89    1.33
   5  -3  -1    2.34    0.84
   8  -6  -7   -0.75    1.32
  11  -5  -8    1.82    1.06
  12  -4  -8    9.67    1.01
  13  -5 -11    1.25    1.04
  14  -4 -11    1.31    0.80
  15  -5 -14    0.55    0.84
  -6  -4   3    4.40    0.78
  -2  -4   2    5.17    0.77
  -1  -7  -3    0.92    1.27
   0  -6  -1    1.03    1.14
   3  -5  -1    9.24    1.01
   4  -6  -3   -0.96    1.09
   6  -4  -2    0.20    0.92
   7  -7  -8    2.84    1.48
   9  -3  -4   -0.61    0.79
  11  -3  -6    7.89    0.96
  12  -6 -11   -0.41    1.28
  12  -2  -7   20.16    0.94
  13  -5 -10    1.97    1.06
  -2  -6   0    0.57    1.07
   5  -7  -6   -0.67    1.20
   6  -6  -4    7.74    1.23
   8  -6  -6    0.30    1.29
   8  -2  -3  389.90    2.48
   9  -5  -5   15.55    1.28
  10  -4  -5    0.65    0.85
  11  -5  -7    1.83    0.99
  12  -4  -7    5.97    1.04
  13  -3  -8   21.72    1.15
  14  -4 -10    1.77    0.86
  -4  -6   1    1.76    0.98
  -4  -4   3   -0.54    0.71
  -3  -5   2    3.13    1.01
  -1  -7  -2   -0.24    1.21
   1  -7  -3   -0.26    1.13
   4  -2   0    0.28    0.57
   5  -7  -5    4.53    1.24
   7  -5  -3    0.67    0.96
   8  -4  -3  123.93    2.05
  12  -6 -10    0.60    1.09
  13  -5  -9   -0.08    0.90
  -3  -7  -1   16.65    1.43
   0  -6   0   76.34    1.99
   0  -4   2    0.71    0.75
   1  -5   1   -0.44    1.04
   1  -3   2    0.88    0.63
   2  -6  -1    0.31    1.04
   3  -5   0   46.52    1.42
   3  -3   1  353.21    2.59
   4  -6  -2    2.83    1.21
   6  -2  -1    1.45    0.64
   7  -7  -6    0.26    1.41
   8  -6  -5   -0.34    1.28
   9  -3  -3   17.95    1.02
  10  -6  -7    5.11    1.16
  12  -6  -9    1.56    1.08
  14  -4  -9    3.88    0.96
  -2  -6   1    0.34    1.07
  -2  -4   3    1.06    0.68
  -1  -7  -1   -0.17    1.03
  -1  -5   2   18.21    1.14
   5  -7  -4   12.96    1.39
   5  -5  -1    0.32    0.91
   5  -3   0    2.03    0.79
   6  -6  -3    0.19    1.06
   9  -5  -4   -0.34    0.90
  10  -2  -4   -0.11    0.65
  11  -5  -6    1.81    0.93
  12  -4  -6    1.23    0.91
  12  -2  -6    1.93    0.71
  13  -3  -7   59.92    1.47
  15  -5 -11    0.64    0.96
  -5  -5   3   24.51    1.12
  -3  -7   0   10.47    1.27
  -1  -3   3    1.14    0.64
   2  -6   0   -0.47    1.04
   4  -6  -1    1.80    1.10
   7  -3  -1   11.67    0.92
   8  -6  -4    7.89    1.30
   8  -4  -2    7.26    1.03
  10  -6  -6    1.46    1.11
  12  -6  -8    0.67    1.23
  14  -6 -11   -0.09    1.06
  14  -4  -8    1.56    0.95
  -6  -4   4   46.11    1.15
  -5  -3   4  211.73    1.81
  -4  -6   2    2.18    0.89
  -3  -5   3    9.39    1.04
   0  -6   1    2.14    1.03
   1  -7  -1    0.69    1.24
   2  -4   2   20.80    1.08
   6  -6  -2    0.42    1.17
   9  -5  -3    3.86    1.02
  11  -3  -4   -0.23    0.82
  13  -5  -7   16.39    1.18
  14  -6 -10   -0.05    1.16
  15  -5 -10    0.85    1.05
  -4  -4   4    5.06    0.82
  -2  -6   2    1.62    0.98
  -1  -7   0    0.83    1.16
   0  -4   3   -0.11    0.78
   1  -5   2    0.53    0.99
   5  -5   0    0.56    0.66
   6  -4   0    3.64    0.96
   7  -7  -4    0.43    1.30
   7  -5  -1    2.16    0.88
   8  -6  -3   28.38    1.55
  10  -6  -5   -0.51    1.11
  12  -6  -7    0.28    1.27
  12  -4  -5    2.93    0.86
  14  -4  -7    8.31    1.11
  -3  -7   1    0.27    1.20
  -3  -3   4   26.06    1.01
  -1  -5   3   -1.07    1.00
   1  -7   0   -0.42    1.21
   4  -2   1    4.70    0.61
   5  -7  -2   -0.81    1.35
   5  -3   1    0.36    0.80
   6  -6  -1   -0.40    1.05
  13  -5  -6    2.56    0.93
  14  -6  -9    0.42    1.18
  15  -5  -9    0.25    1.00
  15  -3  -8    1.29    0.97
  -5  -5   4   58.23    1.48
  -4  -6   3    1.05    0.84
  -1  -7   1    0.54    1.07
   1  -3   3    7.21    0.80
   2  -2   2   64.84    0.97
   3  -5   2    1.85    0.90
   7  -7  -3   -0.70    1.33
   7  -3   0   17.38    0.99
   8  -6  -2    1.93    1.07
   9  -5  -2   -0.51    0.97
  10  -2  -3    3.60    0.72
  14  -6  -8    0.22    1.20
  15  -5  -8    0.13    1.08
  16  -4  -9    0.33    0.99
  -3  -5   4    7.72    0.97
  -2  -6   3   -0.19    0.98
   1  -5   3    0.59    1.03
   3  -7   0   11.39    1.48
   4  -4   2    0.60    0.90
   5  -5   1   -0.47    0.81
   6  -4   1  114.11    1.98
   7  -5   0    3.64    1.00
   9  -7  -4   -0.30    1.16
  11  -3  -3   56.42    1.38
  13  -3  -5    0.06    0.88
  -3  -7   2    0.88    1.19
  -1  -3   4    6.50    0.78
   1  -7   1    0.05    1.16
   2  -6   2    3.43    1.09
   5  -7  -1   -0.21    1.20
   6  -6   0    0.63    1.08
   7  -7  -2    0.86    1.28
   8  -4   0    2.44    1.10
  10  -6  -3    0.91    1.15
  13  -5  -5    0.26    0.95
  14  -6  -7    0.57    1.16
  15  -5  -7    0.96    1.04
  15  -3  -7    1.39    0.93
  -6  -4   5   31.77    1.02
  -4  -6   4    0.53    0.96
  -1  -7   2    0.34    1.23
  -1  -5   4    1.64    0.99
   0  -6   3    0.86    1.03
   0  -4   4    8.22    0.73
   8  -6  -1    1.09    1.04
   9  -7  -3   -0.19    1.36
  -4  -4   5    8.79    0.79
   5  -5   2    4.97    0.98
   5  -3   2   21.60    0.97
   6  -6   1   21.20    1.38
   7  -7  -1   -0.39    1.12
   7  -5   1    1.07    0.91
   7  -3   1    8.96    0.84
  10  -6  -2    0.14    1.20
  11  -3  -2  152.52    2.04
  13  -5  -4   -0.34    1.04
  13  -3  -4    3.84    0.88
  14  -6  -6   -0.31    1.11
  17  -5  -9    0.13    0.99
  -7   1 -21   -0.23    1.05
  -6   0 -15   -0.37    1.09
  -6   2 -25    0.15    1.30
  -5   1 -21   -0.24    0.95
  -2   0 -14    3.31    1.03
   1   1 -20    0.06    1.35
   2   2 -24    5.42    1.76
   3   1 -18    0.56    1.28
   6   2 -21    2.40    1.73
   9   3 -22    2.54    1.72
  10   2 -15   11.11    1.44
  12   4 -21   -0.79    1.43
  -5   1 -22    0.77    1.17
  -4   0 -15   13.25    1.35
  -1   1 -21   12.03    1.72
   0   0 -13   11.04    1.17
   2   0  -8  112.87    1.52
   3   1 -19    3.59    1.41
   4   2 -23    1.03    1.62
   6   2 -22   10.69    1.58
   8   2 -19   13.24    1.66
  10   2 -16   17.51    1.49
  11   3 -20    2.12    1.58
  12   4 -22   -0.03    1.54
  -7   1 -22    0.01    1.12
  -6   0 -16   -0.35    1.14
  -2   2 -26    0.29    1.38
  -1   1 -22    1.12    1.46
   1   1 -21    2.65    1.61
   2   2 -25    2.31    1.86
   3   1 -20    3.80    1.51
   5   1 -18    2.97    1.28
   7   3 -25    4.65    1.91
   9   3 -23   -0.61    1.80
  10   2 -17    0.85    1.20
  -3   1 -23    0.20    1.09
  -2   0 -16    5.08    1.29
   2   0 -12    8.68    1.33
   9   3 -24    2.07    1.76
  10   2 -18   -0.30    1.55
  11   3 -21    1.79    1.67
  13   3 -17    0.49    1.26
  -4   0 -17    1.89    1.37
  -1   1 -23   10.19    1.89
   1   1 -22   -0.20    1.54
   2   0 -13   80.58    1.87
   2   2 -26   -0.74    1.81
   4   2 -25    0.76    1.79
   6   2 -24    0.17    1.66
   7   1 -16   22.61    1.80
  11   3 -22   -1.22    1.64
  12   2 -11    7.09    1.12
  12   2 -10   -0.47    0.97
  -5   1 -24    0.40    1.24
  -4   0 -18    1.27    1.46
  -3   1 -24   -0.19    1.39
   2   0 -14    6.27    1.23
   3   1 -22    3.08    1.76
   4   2 -26    3.75    1.77
   5   1 -20   23.50    1.86
   7   1 -17   21.82    1.71
  10   2 -19    0.24    1.41
  11   3 -23   -1.43    1.67
  12   2 -13   64.59    1.83
  12   2 -12    5.69    1.14
  -1   1 -24    5.59    1.63
   2   0 -15    1.03    1.27
   5   1 -21    3.67    1.69
   6   2 -25    2.10    1.81
   7   1 -18    3.18    1.33
   9   1 -12    8.27    1.18
   9   1 -10   26.81    1.24
  11   3 -24    1.51    1.81
  12   2 -15    4.44    1.44
  13   3 -20    0.62    1.50
  -6   0 -19    1.60    1.18
  -5   1 -25    0.29    1.21
  -1   1 -25    1.85    1.71
   4   0 -12   39.48    1.64
   4   0 -11   27.89    1.41
   4   0 -10  361.17    2.97
   4   0  -9   16.12    1.12
   4   0  -8  132.46    1.71
   5   1 -22    1.74    1.59
   6   2 -26    2.33    1.63
   7   1 -19    0.37    1.45
   8   2 -24    2.66    1.84
   9   1 -14  109.44    2.31
   9   1 -13   17.15    1.30
  10   2 -21    2.52    1.55
  12   2 -17    1.08    1.36
  12   2 -16   -0.14    1.31
  13   3 -21    0.14    1.47
  -6   0 -20    3.81    1.15
  -4   0 -20    3.79    1.44
  -3   1 -26   -0.14    1.38
   0   0 -19    2.60    1.39
   2   0 -17    1.76    1.56
   4   0 -14    3.86    1.22
   4   0 -13    0.95    1.17
   7   1 -20    0.77    1.56
   8   2 -25    1.01    1.60
   9   1 -16   14.51    1.72
   9   1 -15    4.36    1.36
  10   2 -22    0.76    1.76
  13   3 -22    3.93    1.57
  -5   1 -26    0.02    1.14
  -4   0 -21   28.23    1.81
  -1   1 -26    0.13    1.61
   0   0 -20    2.38    1.33
   2   0 -18    0.07    1.44
   3   1 -25   -2.20    1.92
   4   0 -15    2.85    1.46
   7   1 -21   -1.14    1.75
   9   1 -17    4.42    1.31
  10   2 -23    6.18    1.87
  12   2 -19    4.56    1.53
  13   3 -23    1.21    1.55
  -6   0 -21    3.33    1.24
  -1   1 -27   -1.70    1.49
   1   1 -26    0.77    1.75
   2   0 -19    1.91    1.36
   4   0 -17   60.08    2.15
   4   0 -16    8.30    1.46
   5   1 -24   -0.81    1.91
   7   1 -22    7.40    1.88
   8   2 -26    0.37    1.60
   9   1 -18    1.60    1.40
  10   2 -24    1.50    1.87
  12   2 -20   14.21    1.81
  13   3 -24    2.07    1.52
  -2   0 -22    3.81    1.48
   0   0 -21    5.65    1.47
   1   1 -27    3.70    1.84
   2   0 -20   31.77    1.89
   4   0 -18    6.44    1.57
   5   1 -25    1.87    1.87
   7   1 -23   14.15    1.85
  10   2 -25    5.52    1.67
  12   2 -21    1.08    1.61
  -4   0 -23    9.67    1.64
  -2   0 -23    0.23    1.63
   0   0 -22    2.63    1.59
   2   0 -21    4.58    1.64
   3   1 -27   -0.87    1.65
   4   0 -19    6.98    1.49
   6   0 -12   14.52    1.28
   6   0 -11   34.11    1.45
   6   0 -10    0.89    0.99
   7   1 -24   -0.10    1.81
  12   2 -22    0.47    1.70
   2   0 -22    8.16    1.81
   4   0 -20    4.84    1.48
   5   1 -26    0.37    1.55
   6   0 -16    7.29    1.52
   6   0 -15  150.92    2.60
   7   1 -25    4.76    1.73
  11   1 -16   -0.27    1.43
  11   1 -15    0.06    1.30
  11   1 -14    1.74    1.30
  11   1 -13    9.89    1.33
  11   1 -12   11.68    1.18
  11   1 -11    1.76    1.02
  12   2 -23   -1.07    1.49
  14   2 -17    7.96    1.32
  14   2 -16    0.10    1.26
  -4   0 -24    0.47    1.39
   0   0 -24    0.98    1.54
   5   1 -27   -0.47    1.81
   6   0 -18    1.50    1.30
   6   0 -17   -1.35    1.11
  11   1 -18   25.08    1.79
  11   1 -17    1.51    1.15
  11   1 -10   21.10    1.16
  12   2 -24   -0.15    1.55
  14   2 -19    0.89    1.45
  14   2 -18   13.97    1.38
  -5  -1 -13   82.76    1.76
  -5  -1 -12  114.49    1.76
  -5  -1 -11   -0.24    0.73
  -5  -1 -10   49.69    1.26
  -4   0 -25   -0.38    1.20
   4   0 -22    7.61    1.74
   6   0 -20   16.89    1.64
   6   0 -19    0.23    1.46
   7   1 -26    3.26    1.65
  11   1 -20    3.77    1.50
  11   1 -19   10.39    1.45
  12   2 -25    0.04    1.56
  14   2 -21    0.00    1.33
  -7  -1 -13   -0.77    0.78
  -7  -1 -12    5.34    0.77
  -7  -1 -11    0.85    0.64
  -7  -1 -10   17.15    0.85
  -5  -1 -15    7.84    1.18
  -5  -1 -14   31.54    1.31
  -5  -1  -9   24.02    0.97
  -3  -1 -15    1.41    1.12
  -3  -1 -14    7.85    1.06
  -3  -1 -13   14.35    1.15
  -3  -1 -12    0.67    0.91
  -3  -1 -11   51.43    1.39
  -2   0 -26    3.93    1.60
   0   0 -25    1.56    1.54
   4   0 -23   -0.15    1.59
   6   0 -21    2.83    1.64
   7   1 -27    1.38    1.90
   9   1 -25    0.90    1.76
  11   1 -21    3.29    1.57
  11   1  -8   17.73    0.96
  14   2 -22    0.69    1.43
  -5  -1 -17    4.26    1.29
  -5  -1 -16    7.09    1.14
  -4   0 -26   -0.20    1.05
  -3  -1 -17   41.29    1.80
  -3  -1 -16   30.38    1.57
  -1  -1 -14   20.96    1.27
  -1  -1 -13   53.74    1.55
  -1  -1 -12    1.79    1.08
  -1  -1 -11   -0.42    0.96
   0   0 -26    3.88    1.82
   4   0 -24   10.73    1.88
   8   0 -18   19.50    1.50
   8   0 -17    1.66    1.46
   8   0 -16    0.47    1.46
   8   0 -15    6.11    1.24
   9   1 -26    2.55    1.80
  11   1 -23    0.35    1.51
  11   1 -22    0.49    1.48
  14   2 -23    0.74    1.48
  -5  -1 -18   11.56    1.36
  -3  -1 -18    1.42    1.45
  -2   0 -27   -0.15    1.53
  -1  -1 -16    2.98    1.22
  -1  -1 -10   65.18    1.44
   0   0 -27    0.38    1.74
   2   0 -26    1.96    1.81
   4   0 -25    0.91    1.84
   6   0 -23   -0.65    1.61
   8   0 -20   16.25    1.66
  -5  -1 -19   22.87    1.53
  -3  -1 -19   -0.64    1.19
  -1  -1 -18    2.00    1.37
   1  -1 -12    3.15    1.12
   4   0 -26    4.21    1.90
   6   0 -24    1.22    1.72
   8   0 -21    0.32    1.64
  11   1 -25    1.13    1.66
  13   1 -19    1.16    1.35
  13   1 -18   -0.07    1.34
  13   1 -17    1.25    1.20
  13   1 -16   -0.57    1.23
  13   1 -15   33.51    1.71
  13   1 -14   -1.24    1.13
  13   1 -13    1.51    1.15
  -5  -1 -20    4.49    1.23
  -3  -1 -21    1.20    1.40
  -3  -1 -20   -0.59    1.24
  -1  -1 -20   14.08    1.51
   1  -1 -19    4.70    1.34
   4   0 -27    0.60    1.79
   8   0 -23    1.24    1.43
   8   0 -22    1.04    1.54
   8   0  -9   17.92    1.12
  13   1 -22    6.39    1.60
  13   1 -12   11.90    1.18
  -5  -1 -21    1.49    1.26
  -3  -1 -22   15.35    1.56
  -1  -1 -21   11.43    1.50
   1  -1 -20    1.73    1.36
   3  -1 -18    0.75    1.29
   3  -1 -17   -0.22    1.58
   3  -1 -16   34.91    1.74
   3  -1 -15  127.94    2.38
   3  -1 -13   39.22    1.53
   6   0 -26    1.02    1.56
   8   0 -24    5.08    1.89
  10   0 -17   -0.37    1.21
  10   0 -14   14.93    1.36
  13   1 -23    2.89    1.62
  13   1 -11    0.43    0.85
  -3  -1 -23    2.74    1.43
  -1  -1 -22    2.63    1.30
   1  -1 -22    1.62    1.39
   1  -1 -21    1.31    1.33
   3  -1 -20    4.63    1.34
   3  -1 -19    3.83    1.37
   3  -1 -12   19.25    1.29
   6   0 -27    2.44    1.65
  10   0 -13    0.43    1.03
  13   1 -25   -1.62    1.50
  13   1 -24    2.91    1.72
  -3  -1 -24    1.09    1.41
  -1  -1 -24    5.30    1.43
   1  -1 -23    7.08    1.58
   1  -1  -8   22.11    0.97
   3  -1 -21    5.74    1.55
   3  -1 -11    7.93    0.91
  10   0 -23    7.73    1.82
  10   0 -22    0.94    1.39
  10   0 -12   22.71    1.31
  -3  -1 -25    2.93    1.43
  -1  -1 -25    1.31    1.25
   1  -1 -24    1.14    1.65
   3  -1 -10   48.74    1.39
   5  -1 -20   21.89    1.75
   5  -1 -18    3.34    1.21
   5  -1 -17    2.65    1.06
   5  -1 -16    0.59    0.94
   5  -1 -15    2.45    1.20
   5  -1 -14   15.94    1.37
   8   0 -27    3.47    1.61
  13   1  -9    1.38    0.74
  15   1 -21    0.34    1.42
  15   1 -20    9.75    1.50
  15   1 -18    3.16    1.25
  15   1 -17    1.04    1.14
  15   1 -16    0.85    1.23
  -3  -1 -26   -0.70    1.36
  -1  -1 -26    1.33    1.30
   1  -1 -25    6.91    1.68
   3  -1  -9   25.54    1.19
   5  -1 -22    0.98    1.55
  10   0 -26    0.51    1.72
  10   0 -10    0.86    0.95
  12   0 -19    8.00    1.37
  12   0 -18    1.29    1.26
  12   0 -17    1.40    1.32
  15   1 -23    0.31    1.44
  15   1 -15   -0.72    1.10
   1  -1 -26    1.40    1.66
   3  -1 -25   -0.87    1.70
   5  -1 -24    1.57    1.46
   5  -1 -23    6.12    1.52
   5  -1 -11   17.07    1.28
   7  -1 -19    0.11    1.26
   7  -1 -18    3.63    1.27
   7  -1 -17   22.58    1.64
  12   0 -22   -2.17    1.66
  12   0 -21    0.00    1.53
  12   0 -20   19.36    1.63
  12   0 -16    0.24    1.27
  12   0 -15   10.39    1.46
  15   1 -25    0.89    1.57
  15   1 -24    0.31    1.29
   3  -1 -27    0.26    1.62
   3  -1 -26    4.31    1.63
   5  -1 -25    2.86    1.70
   5  -1 -10    9.20    1.10
   7  -1 -22    8.21    1.69
   7  -1 -21   -0.94    1.48
   7  -1 -20    0.47    1.34
   7  -1 -16   27.52    1.39
   7  -1 -15    5.84    1.39
  10   0  -9   94.53    1.67
  12   0 -25   -1.58    1.68
  12   0 -24    1.75    1.62
   5  -1 -26    0.53    1.61
   7  -1 -24    0.25    1.82
   7  -1 -23   13.63    1.67
   5  -1 -27    0.47    1.41
   7  -1 -26    2.20    1.54
   7  -1 -12    1.24    1.01
   9  -1 -20   -0.99    1.38
   3  -1  -7    9.28    0.80
   7  -1 -27   -0.24    1.70
   7  -1 -11   61.20    1.62
   9  -1 -24    1.72    1.44
   9  -1 -22    1.24    1.45
   9  -1 -17    4.83    1.23
   9  -1 -16   13.14    1.60
   9  -1 -15    6.26    1.31
  14   0 -24    1.38    1.58
  14   0 -23    2.38    1.56
  14   0 -22    1.28    1.53
  14   0 -20    0.96    1.43
  14   0 -19   -0.30    1.33
  14   0 -18   23.19    1.61
   5  -1  -8    7.15    0.96
   9  -1 -26    1.70    1.75
   9  -1 -25    0.43    1.51
   9  -1 -14  108.92    2.25
  14   0 -25    4.37    1.62
  14   0 -16    1.82    1.12
  -4  -2 -19    1.80    1.11
  -4  -2 -18    1.27    1.11
  -4  -2 -16   15.91    1.16
  -2  -2 -22    2.92    1.35
  -2  -2 -21   -0.83    1.17
  -2  -2 -20    0.53    1.22
  -2  -2 -16    5.93    1.12
   0  -2 -21    4.50    1.39
   0  -2 -19    0.54    1.18
   7  -1 -10  160.77    2.19
  11  -1 -21    3.00    1.59
  12   0 -10    0.55    0.84
  14   0 -15    2.02    1.11
  14   0 -14    7.41    1.31
  -4  -2 -14   31.75    1.28
  -2  -2 -23    0.63    1.27
  -2  -2 -14    3.83    1.04
  -2  -2 -13    9.16    1.07
   0  -2 -24    0.87    1.46
   0  -2 -23    6.70    1.57
   0  -2 -22    0.54    1.28
   0  -2 -15    8.28    1.14
   0  -2 -14   -0.32    0.99
   2  -2 -23    1.15    1.51
   2  -2 -22    4.20    1.47
   2  -2 -21    4.52    1.39
   2  -2 -19    1.47    1.16
   2  -2 -18   -0.19    1.08
   2  -2 -17    0.39    1.30
  11  -1 -25   -0.79    1.48
  11  -1 -24    4.30    1.67
  11  -1 -23    1.03    1.72
  11  -1 -22   -0.46    1.43
  -4  -2 -13    1.79    0.86
  -2  -2 -25    2.66    1.28
  -2  -2 -24    6.49    1.29
   0  -2 -25    0.54    1.46
   2  -2 -25    1.84    1.68
   2  -2 -24    3.73    1.62
   4  -2 -20    1.22    1.40
   4  -2 -19    5.80    1.38
   4  -2 -18    5.30    1.34
  11  -1 -26    0.09    1.63
  11  -1 -16    0.56    1.23
  12   0  -9   20.33    1.04
  14   0 -13    1.74    1.06
  16   0 -24   -0.26    1.28
  16   0 -22    4.56    1.46
  16   0 -21    2.50    1.46
  -4  -2 -12    2.82    0.82
   0  -2 -27    1.09    1.50
   0  -2 -26    4.03    1.43
  11  -1 -15   -0.16    1.19
  11  -1 -14    0.57    1.20
  14   0 -12    0.03    0.92
  16   0 -19    1.63    1.14
  16   0 -18    1.05    1.23
  -4  -2 -11    3.84    0.87
  -2  -2 -11   53.26    1.33
   2  -2 -27    1.90    1.31
   4  -2 -27   -0.62    1.41
   4  -2 -26    2.50    1.57
   4  -2 -14    2.27    1.21
   6  -2 -25    0.11    1.71
   6  -2 -24    1.33    1.54
   6  -2 -23    1.96    1.66
   6  -2 -22    8.48    1.47
   6  -2 -21    1.45    1.43
   6  -2 -20   11.22    1.52
   6  -2 -19    1.27    1.27
   6  -2 -18    0.37    1.29
   6  -2 -17   -0.17    1.16
  13  -1 -24    0.79    1.70
  13  -1 -23    4.26    1.59
  13  -1 -22    6.31    1.60
  13  -1 -21   -0.74    1.51
  13  -1 -20    0.91    1.44
  13  -1 -19    0.43    1.29
  16   0 -17    1.49    1.09
   2  -2 -12    9.67    0.85
   4  -2 -13    0.60    1.11
   6  -2 -26    1.05    1.60
   6  -2 -16    5.07    1.33
  11  -1 -13    9.77    1.30
  13  -1 -18    0.66    1.29
  13  -1 -17    0.70    1.25
  14   0 -11    5.47    1.01
  16   0 -15    4.96    1.21
  -4  -2 -10    1.57    0.81
   5  -1  -6    1.04    0.69
   6  -2 -15  116.08    2.42
   6  -2 -14   20.90    1.50
   8  -2 -26    1.28    1.60
   8  -2 -25    1.67    1.59
   8  -2 -24    1.46    1.61
   8  -2 -23   -0.11    1.47
   8  -2 -22    0.74    1.38
   8  -2 -21    0.89    1.33
   8  -2 -19   11.81    1.60
   8  -2 -18   13.64    1.46
  11  -1 -12   10.66    1.20
  13  -1 -16    0.99    1.23
   7  -1  -7   16.55    1.00
   8  -2 -16    0.51    1.07
  14   0 -10    4.47    0.83
  15  -1 -24   -0.05    1.36
  15  -1 -22    2.18    1.53
  -2  -2  -9   18.52    0.95
   2  -2 -10   20.26    1.21
   6  -2 -13    5.55    1.13
   8  -2 -15    2.48    1.36
  10  -2 -25    4.57    1.77
  10  -2 -24    2.46    1.50
  10  -2 -23    6.47    1.68
  10  -2 -22    1.97    1.63
  10  -2 -21    4.18    1.51
  12   0  -7   37.89    1.06
  13  -1 -14   -0.78    1.28
  15  -1 -21    0.14    1.30
  15  -1 -20    9.57    1.59
  15  -1 -19    2.76    1.33
   6  -2 -12    7.09    1.16
   8  -2 -14    3.05    1.29
  10  -2 -18    1.26    1.32
  15  -1 -18    3.07    1.36
   2  -2  -9   31.14    1.25
   4  -2 -10  245.04    2.61
   8  -2 -13    2.86    1.16
  10  -2 -17   -0.28    1.22
  12  -2 -24    0.62    1.38
  12  -2 -23    0.61    1.39
  12  -2 -22    0.07    1.60
  14   0  -9   12.73    0.88
  15  -1 -17    0.89    1.24
  -1  -3 -22    0.83    1.28
  -1  -3 -20    6.79    1.29
   1  -3 -23    3.43    1.30
   1  -3 -22   -0.07    1.27
   1  -3 -21    1.66    1.18
   1  -3 -20    0.58    1.31
   6  -2 -11   17.82    1.20
  10  -2 -15   12.07    1.33
  12  -2 -20   14.49    1.75
  13  -1 -12   11.91    1.28
  15  -1 -16    1.01    1.08
  17  -1 -23    0.58    1.45
  17  -1 -22    0.33    1.41
  -3  -3 -19   -0.72    1.09
  -1  -3 -24    3.67    1.25
  -1  -3 -23    5.85    1.28
  -1  -3 -19    3.09    1.17
  -1  -3 -18   -0.89    1.07
   1  -3 -26   -0.81    1.49
   1  -3 -25    3.24    1.46
   1  -3 -24    0.42    1.16
   1  -3 -19    1.72    1.26
   1  -3 -18   38.21    1.74
   3  -3 -26    0.92    1.35
   3  -3 -25    0.66    1.47
   3  -3 -24   -0.44    1.56
   3  -3 -23    5.85    1.48
   3  -3 -22    2.30    1.52
   3  -3 -21    0.94    1.53
   3  -3 -20    2.60    1.45
   3  -3 -19    1.26    1.31
   8  -2 -12   21.11    1.38
  10  -2 -14    9.19    1.32
  11  -1  -9   16.25    1.03
  15  -1 -15    0.82    1.09
  17  -1 -21    0.03    1.33
  17  -1 -20   -1.51    1.43
  -3  -3 -18    1.16    1.08
  -1  -3 -17    0.56    1.06
  -1  -3 -16    0.80    1.23
   1  -3 -16    6.32    1.15
   2  -2  -8   89.50    1.55
   3  -3 -18   -0.46    1.21
   3  -3 -17    1.12    1.19
   5  -3 -25    0.67    1.58
   5  -3 -24   -1.47    1.41
   5  -3 -23    2.62    1.37
   5  -3 -19    7.64    1.42
   6  -2 -10   -0.61    0.93
   9  -1  -7   69.16    1.41
  12   0  -6    1.94    0.60
  13  -1 -11   -0.52    1.04
  14  -2 -23    1.06    1.32
  14  -2 -22    1.22    1.61
  15  -1 -14    3.69    1.18
  17  -1 -19   -0.11    1.29
  17  -1 -18    0.60    1.31
  -3  -3 -16   14.03    1.28
   1  -3 -15    0.20    1.10
   5  -3 -18    1.38    1.31
   5  -3 -17    1.57    1.18
   7  -3 -24    0.14    1.52
   7  -3 -23    8.14    1.65
   7  -3 -22    4.93    1.57
   7  -3 -21   -0.19    1.53
   7  -3 -20    1.24    1.23
   8  -2 -11    2.16    1.14
  10  -2 -13    1.46    1.36
  14  -2 -21    1.60    1.48
  14  -2 -20    0.21    1.54
   1  -3 -14    2.52    1.13
   4  -2  -8   73.68    1.56
   5  -3 -16    0.05    1.23
   7  -3 -19   -0.99    1.43
   7  -3 -18    1.74    1.35
   9  -3 -23   -0.13    1.36
  11  -1  -8   18.45    1.02
  12  -2 -15    4.35    1.34
  13  -1 -10   11.45    1.17
  14  -2 -19    0.67    1.43
  14  -2 -18   14.08    1.65
  15  -1 -13   23.80    1.42
  17  -1 -16    0.86    1.21
  -3  -3 -14    2.12    0.97
   2  -2  -7    6.87    0.93
   8  -2 -10   52.11    1.59
   9  -3 -22    1.58    1.35
   9  -3 -21    8.06    1.79
  12  -2 -14   13.09    1.29
  14  -2 -17    8.69    1.35
  15  -1 -12   47.59    1.68
  16  -2 -23    2.66    1.54
  -1  -3 -13   26.98    1.38
   1  -3 -13   15.24    1.29
   7  -3 -16   15.33    1.46
   9  -3 -18    0.81    1.42
  11  -3 -23    0.74    1.41
  12  -2 -13   63.40    1.91
  14  -2 -16    0.81    1.17
  16  -2 -21    1.10    1.49
  17  -1 -15    4.27    1.08
   1  -3 -12    0.56    0.97
   4  -2  -7   32.15    1.19
   6  -2  -8   47.44    1.43
   7  -3 -15    3.52    1.28
   9  -3 -17    3.20    1.48
  11  -3 -21    1.06    1.57
  11  -3 -20    1.85    1.36
  13  -1  -9    1.80    0.89
  14  -2 -15    0.73    1.32
  16  -2 -19    0.61    1.50
  17  -1 -14   -0.30    1.11
  -3  -3 -12    2.47    1.04
   3  -3 -12   10.86    1.26
   5  -3 -13    3.57    1.46
   9  -3 -16    9.22    1.48
  11  -3 -19    8.27    1.58
  11  -1  -7   21.09    1.05
  16  -2 -18   -0.22    1.43
  -1  -3 -11    0.44    0.86
   2  -2  -6   25.79    1.02
   9  -3 -15    3.84    1.35
  11  -3 -17    3.05    1.29
  13  -3 -22    2.33    1.51
  13  -3 -21   -0.62    1.40
  16  -2 -17   -0.18    1.38
  17  -1 -13    0.04    1.03
  -3  -3 -11   28.14    1.24
   2  -4 -24    0.31    1.29
   2  -4 -23    0.80    1.23
   2  -4 -22    2.20    1.42
   3  -3 -11    2.25    1.06
   4  -4 -24    0.55    1.54
   7  -3 -13    1.65    0.94
   8  -2  -8   23.05    1.20
   9  -3 -14   53.45    1.93
  11  -3 -16    0.03    1.31
  13  -3 -20   -0.01    1.56
  15  -1 -10   13.64    1.07
  16  -2 -16   -0.31    1.12
  18  -2 -21   -1.18    1.44
   0  -4 -23    2.06    1.30
   0  -4 -22   -0.30    1.27
   0  -4 -21    0.63    1.41
   2  -4 -21    1.65    1.46
   4  -4 -23    0.31    1.27
   4  -4 -22    2.13    1.51
   4  -4 -21    2.62    1.45
   5  -3 -11    7.79    1.29
   6  -4 -23   -0.12    1.54
   7  -3 -12    0.48    1.39
  13  -3 -19    0.08    1.32
  18  -2 -20   -1.21    1.34
  18  -2 -19    5.37    1.38
   0  -4 -19    1.70    1.25
   2  -4 -19    1.17    1.38
   2  -4 -18    0.21    1.16
   3  -3 -10   17.13    1.24
   8  -4 -23    0.71    1.54
   8  -4 -22   -0.69    1.60
   9  -3 -13   12.03    1.33
  11  -1  -6   18.43    0.99
  12  -2 -10   -0.39    1.11
  14  -2 -12   -0.10    1.17
  15  -3 -21    1.68    1.46
  16  -2 -15    4.30    1.24
  18  -2 -18    0.98    1.32
  -2  -4 -18    7.79    1.29
   0  -4 -18    0.58    1.09
   4  -4 -18    3.19    1.24
   6  -4 -18   -0.14    1.29
   8  -4 -21    1.77    1.51
   8  -4 -20    6.88    1.51
   9  -3 -12    3.45    1.21
  11  -3 -14    1.87    1.25
  15  -3 -19    1.51    1.60
  15  -1  -9   13.91    1.07
  16  -2 -14    8.26    1.28
  18  -2 -17    1.89    1.26
  -2  -4 -17   14.07    1.23
   1  -3  -9    8.97    1.04
   2  -4 -16    0.16    1.22
   3  -3  -9    6.73    1.01
   4  -4 -16    2.09    1.26
   6  -4 -17   -0.34    1.36
   8  -4 -19    4.71    1.66
  11  -3 -13    4.49    1.23
  14  -2 -11    3.56    1.22
  15  -3 -18    2.00    1.35
  -5  -3 -10   19.70    0.97
  -2  -4 -16    0.56    1.00
   0  -4 -15    2.80    1.25
   2  -4 -15    1.81    1.23
   4  -2  -5   41.85    1.19
   7  -3 -10   71.03    1.91
   8  -4 -18    6.23    1.62
   9  -3 -11    1.71    1.41
  10  -4 -20   -1.61    1.45
  15  -3 -17    1.10    1.38
  16  -2 -13    1.55    1.10
  18  -2 -16    0.81    1.27
  -2  -4 -15    0.32    1.16
   2  -4 -14    1.22    1.09
   5  -3  -9   59.40    1.65
   6  -4 -15   41.61    1.90
   8  -4 -17    0.75    1.35
  10  -4 -19    1.16    1.39
  10  -4 -18    1.75    1.45
  11  -3 -12    6.55    1.28
  11  -1  -5    0.84    0.87
  15  -3 -16    1.29    1.45
  15  -1  -8    1.28    0.85
  18  -2 -15    0.84    1.24
   0  -4 -14    0.41    1.09
   8  -4 -16   -0.93    1.37
   9  -3 -10   11.16    1.37
  10  -4 -17    0.44    1.55
  12  -4 -20    8.40    1.74
  13  -3 -13    0.37    1.19
  14  -2 -10    4.03    1.25
  16  -2 -12    3.11    1.09
  17  -3 -19    2.19    1.42
  -2  -4 -14    1.51    1.09
   5  -3  -8    4.53    1.12
   6  -2  -5  103.07    1.65
   8  -4 -15    1.80    1.44
  10  -4 -16    7.14    1.51
  12  -4 -19    1.23    1.41
  12  -2  -8   28.94    1.31
  13  -1  -6   14.83    0.88
  15  -3 -15    1.76    1.31
  17  -3 -18    1.70    1.38
   0  -2 -22    2.06    1.33
   0  -2 -21    5.88    1.38
   0  -2 -14   -0.20    0.97
   5  -1 -24    2.09    1.65
   5  -1 -23    4.83    1.62
   5  -1 -14   15.04    1.39
   8   0 -26    0.50    1.56
   8   0 -25    2.46    1.48
   8   0 -13    2.82    1.09
  11   1 -24    2.73    1.59
  11   1 -23    0.97    1.53
  11   1 -22    0.87    1.43
  11   1 -21    3.97    1.34
  11   1 -17    1.21    1.12
  11   1 -16    0.78    1.24
  12   2 -13   58.47    1.54
  -2  -2 -26   -0.02    1.06
   0  -2 -24    1.38    1.18
   0  -2 -13   10.59    1.06
   3  -1  -8    6.75    0.81
   5  -1 -26   -0.28    1.69
   5  -1 -13   11.34    0.96
   8   0 -12   30.58    1.32
  11   1 -26    0.70    1.52
  11   1 -25    0.04    1.49
  11   1 -15   -0.45    1.16
   0  -2 -25   -0.70    1.15
   0  -2 -12   58.72    1.50
   2  -2 -19    0.38    1.25
   5  -1 -12   31.79    1.32
   6   0  -7    0.47    0.68
   9   1  -8    1.29    0.86
  11   1 -14    2.86    1.15
  12   2 -12    5.17    0.88
   0  -2 -11   53.03    1.36
   2  -2 -23    0.10    1.20
   2  -2 -21    3.64    1.34
   2  -2 -18    0.22    1.07
   2  -2 -17    0.31    1.26
   5  -1 -11   16.73    1.19
   7  -1 -22    7.33    1.52
   7  -1 -21    0.04    1.41
   7  -1 -20    0.04    1.34
   7  -1 -19   -0.46    1.22
  10   0 -24    1.77    1.31
  10   0 -23    8.06    1.66
  10   0 -22    0.13    1.42
  10   0 -19   -1.63    1.22
  11   1 -13    8.73    1.16
  -2  -2  -8   37.37    0.97
   0  -2 -27    0.35    1.04
   2  -2 -25    2.01    1.28
   2  -2 -24    3.19    1.50
   2  -2 -15    1.23    0.98
   2  -2 -14    3.90    0.96
   3  -1  -7    8.65    0.72
   7  -1 -24    2.08    1.69
   7  -1 -17   21.75    1.16
   7  -1 -16   28.06    1.60
  10   0 -26   -0.30    1.54
  10   0 -25    8.26    1.67
  11   1 -12   10.58    0.99
  14   2 -25    2.87    1.32
  14   2 -24    0.75    1.13
  14   2 -23    1.16    1.13
  14   2 -22    0.68    1.16
  14   2 -21    0.55    1.12
  14   2 -20   -0.38    1.06
   0  -2 -10    2.29    0.82
   2  -2 -26    0.40    1.11
   2  -2 -13   52.52    1.46
   7  -1 -27    1.06    1.38
   7  -1 -26    3.92    1.55
   7  -1 -15    4.38    1.25
  13   1 -24    1.54    1.40
  13   1 -23    3.31    1.16
  13   1 -22    5.69    1.33
  13   1 -21    0.80    1.30
  13   1 -20    0.53    1.06
  14   2 -18   13.90    1.06
   4  -2 -22    6.98    1.48
   4  -2 -21    6.56    1.44
   4  -2 -20    2.80    1.27
   4  -2 -18    4.42    1.17
   9   1  -7   68.90    1.19
  13   1 -25   -0.78    1.44
  13   1 -19    0.45    1.00
  13   1 -18   -0.62    1.12
   2  -2 -12    9.43    0.91
   4  -2 -26    4.46    1.49
   4  -2 -25    1.39    1.46
   4  -2 -24    7.38    1.39
   9  -1 -23    0.31    1.29
   9  -1 -22    0.61    1.25
   9  -1 -21   15.51    1.49
   9  -1 -20   -0.24    1.22
  10   0 -13    1.42    0.92
  13   1 -17    0.24    0.95
  13   1 -16   -1.04    0.94
   2  -2 -11    4.77    0.90
   7  -1 -12    0.28    0.94
   9  -1 -26    1.35    1.55
   9  -1 -25    0.63    1.45
   9  -1 -24   -0.53    1.31
   9  -1 -19   15.94    1.53
   9  -1 -18    0.61    1.19
  10   0 -12   21.42    1.11
  12   0 -21    1.49    1.37
  12   0 -19    7.68    1.21
   9  -1 -17    3.73    1.10
  12   0 -18    2.69    1.14
  13   1 -14   -0.22    1.03
  -1  -3 -19    1.71    1.02
  -1  -3 -18    0.79    0.97
  -1  -3 -17    0.88    1.05
   0  -2  -8    0.80    0.73
   5  -1  -8    6.71    0.83
   6  -2 -26    0.19    1.45
   6  -2 -25    0.51    1.53
   6  -2 -19    0.96    1.19
   6  -2 -18    0.85    1.16
   7  -1 -11   60.32    1.52
   9  -1 -15    4.66    1.36
  10   0 -11   30.13    1.19
  12   0 -17    1.58    1.02
  12   0 -16    0.62    0.98
   6  -2 -17   -0.46    1.07
   6  -2 -16    4.79    1.28
   9  -1 -14  102.65    2.05
  12   0 -15    9.00    1.20
  13   1 -13    0.60    0.84
  15   1 -25   -0.20    1.37
  15   1 -24   -0.55    1.14
  15   1 -23    1.46    1.17
  15   1 -22    1.29    1.18
  15   1 -21    1.03    1.15
  15   1 -20    8.38    1.26
  -1  -3 -15    1.12    0.93
   1  -3 -24    0.93    1.14
   1  -3 -23    3.17    1.31
   1  -3 -22   -0.40    1.17
   1  -3 -21    1.54    1.17
   1  -3 -20   -0.41    1.06
   1  -3 -19    2.71    1.07
   1  -3 -18   38.74    1.59
   4  -2 -12   31.72    1.06
   6  -2 -15  113.24    2.26
   7  -1 -10  161.52    2.09
  10   0 -10    0.58    0.76
  11  -1 -26    1.35    1.59
  11  -1 -25    0.29    1.47
  11  -1 -24    3.24    1.30
  11  -1 -23    1.30    1.40
  11  -1 -22   -0.10    1.27
  11  -1 -21    1.75    1.33
  15   1 -19    3.10    1.15
   1  -3 -17    0.70    1.03
   6  -2 -14   21.44    1.31
   8  -2 -26    0.14    1.25
   8  -2 -25   -0.66    1.42
   8  -2 -23    0.21    1.44
   8  -2 -22    0.73    1.44
   8  -2 -21    1.77    1.36
   8  -2 -20   10.64    1.40
   9  -1 -13   15.75    1.29
  11  -1 -19   10.42    1.39
  12   0 -14   17.66    1.26
  13   1 -12   10.25    1.00
  14   0 -25    5.43    1.44
  14   0 -24   -0.22    1.20
  14   0 -23    1.28    1.42
  14   0 -22    1.77    1.33
  14   0 -21    1.35    1.32
  15   1 -18    4.16    0.91
  15   1 -17    1.03    1.03
  -1  -3 -13   27.66    1.22
   0  -2  -7  138.44    1.50
   1  -3 -16    6.07    1.19
   3  -3 -25   -0.87    1.30
   3  -3 -24    1.19    1.29
   3  -3 -23    5.14    1.42
   3  -3 -21    1.98    1.31
   3  -3 -20    2.19    1.11
   8  -2 -19   11.93    1.43
   9  -1 -12    9.12    1.09
  11  -1 -17    1.85    1.15
  11   1  -8   16.32    0.75
  12   0 -13   78.97    1.83
  14   0 -20   -0.62    1.14
  14   0 -19    0.53    1.15
  15   1 -16    0.92    0.96
   1  -3 -15   -0.93    1.01
   3  -3 -26    1.30    1.34
   3  -3 -19    1.42    1.11
   3  -3 -18   -0.08    1.08
   4  -2 -10  238.80    2.42
   6  -2 -13    6.24    1.11
   8  -2 -17   -0.44    1.15
  10   0  -9   90.01    1.56
  11  -1 -16    0.52    1.04
  13   1 -11    0.55    0.78
  14   0 -18   20.55    1.44
  -3  -3 -11   26.35    0.95
  -1  -3 -12   -0.24    0.77
   3  -3 -17   -0.41    0.97
   6  -2 -12    7.83    1.02
   8  -2 -16    0.27    1.06
   9  -1 -11    1.66    0.95
  10  -2 -24    0.44    1.26
  10  -2 -23    6.37    1.40
  11  -1 -15    0.59    1.08
  12   0 -12    8.73    1.04
  13  -1 -25    0.42    1.44
  13  -1 -24    2.19    1.44
  13  -1 -23    4.24    1.45
  13  -1 -22    4.80    1.50
  13  -1 -21   -0.28    1.42
  14   0 -17   11.14    1.18
  15   1 -15    1.28    0.90
  17   1 -24    0.85    1.23
  17   1 -23   -0.57    0.97
   1  -3 -13   16.19    1.16
   3  -3 -16   17.87    1.36
   5  -3 -26    1.75    1.46
   5  -3 -25    0.91    1.43
   5  -3 -24    0.63    1.21
   5  -3 -23    4.59    1.16
   5  -3 -22   -0.33    1.19
   5  -3 -21    2.12    1.39
   8  -2 -15    1.57    1.33
   8   0  -6    9.38    0.75
  10  -2 -22    1.02    1.34
  10  -2 -21    3.40    1.42
  10  -2 -20   -1.04    1.27
  11  -1 -14    3.05    1.27
  13  -1 -20    1.42    1.38
  13   1 -10   11.07    0.92
  15   1 -14    2.93    0.99
  17   1 -21   -0.78    1.10
  -3  -3 -10   25.39    0.93
  -1  -3 -11    0.03    0.84
   4  -2  -9   17.65    1.10
   5  -3 -18    0.68    1.20
   6  -2 -11   18.65    1.07
   8  -2 -14    2.58    1.31
  10  -2 -19    1.43    1.28
  10   0  -8  117.89    1.65
  11   1  -7   21.61    0.72
  12   0 -11    9.28    0.92
  13  -1 -19    0.42    1.21
  14   0 -15    1.77    0.95
  16   0 -24    0.02    1.25
  16   0 -23    3.66    1.39
  16   0 -21    1.99    1.32
  17   1 -20   -1.16    1.16
  17   1 -19    0.93    1.00
   1  -3 -12    0.72    0.90
   3  -3 -14    1.37    1.09
   5  -3 -17    0.72    1.15
   7  -3 -25    3.12    1.53
   7  -3 -23    7.89    1.35
   7  -3 -22    4.34    1.56
  10  -2 -18    0.63    1.23
  10  -2 -17    0.40    1.18
  11  -1 -13    9.43    1.21
  14   0 -14    5.35    1.17
  16   0 -20   -0.39    1.23
   5  -3 -16    0.29    1.04
   7  -3 -21   -0.74    1.47
   7  -3 -20    0.10    1.26
   8  -2 -13    2.43    1.15
  11  -1 -12   11.85    1.07
  12  -2 -24   -1.24    1.54
  12  -2 -23    0.79    1.44
  12  -2 -22    0.31    1.59
  13   1  -9    1.62    0.75
  16   0 -19    1.99    1.29
   1  -3 -11  133.32    1.94
   3  -3 -13   22.44    1.31
   4  -2  -8   74.46    1.44
   6  -2 -10   -0.06    0.83
   7  -3 -19    0.90    1.28
   7  -3 -18    0.38    1.41
   7  -1  -7   16.12    0.97
   8  -2 -12   22.99    1.27
  12  -2 -21    1.04    1.59
  12  -2 -20   16.01    1.53
  14   0 -13    2.48    1.09
  15  -1 -22    0.53    1.56
  15  -1 -21    1.97    1.40
  16   0 -18    1.00    1.21
   3  -3 -12   10.32    1.02
   5  -3 -14    5.45    1.26
   8   0  -5    3.98    0.64
  10  -2 -15   11.46    1.03
  10   0  -7   79.34    1.37
  12  -2 -19    6.16    1.52
  15  -1 -20    7.79    1.58
  16   0 -17    0.51    1.09
   8  -2 -11    1.91    1.00
  10  -2 -14    9.12    1.27
  11  -1 -11    1.55    0.80
  12  -2 -18   -0.17    1.36
  12   0  -9   20.57    1.02
  15  -1 -19    3.44    1.29
  15  -1 -18    2.74    1.25
  16   0 -16   -0.89    1.16
  18   0 -23    0.49    1.37
  18   0 -22    0.41    1.28
   1  -3 -10   36.91    1.23
   2  -4 -20    9.28    1.32
   3  -3 -11    2.98    0.98
   5  -3 -13    3.83    1.18
   9  -1  -8    0.21    0.98
  14  -2 -23    0.25    1.53
  15  -1 -17    2.11    1.19
  15   1 -11    1.16    0.77
  16   0 -15    4.93    1.00
  18   0 -21    0.81    1.16
   2  -4 -19   -0.35    1.12
   2  -4 -18   -0.88    1.11
   4  -4 -24    0.85    1.20
   4  -4 -23   -0.33    1.26
   4  -4 -22    0.69    1.25
   4  -4 -21    4.12    1.33
   4  -2  -7   30.99    1.12
   7  -1  -6   51.94    1.23
  11  -3 -24    3.27    1.53
  13  -1 -13   -0.04    1.11
  14  -2 -22    0.61    1.33
  14  -2 -21   -0.71    1.50
  14   0 -11    6.15    1.01
  17  -1 -22    1.31    1.48
  18   0 -20    0.17    1.23
   2  -4 -17    0.79    0.97
   4  -4 -20    0.03    1.21
   5  -3 -12   16.76    1.27
   8  -2 -10   52.31    1.58
   9  -3 -17    1.57    1.33
  10  -2 -12   13.16    1.37
  10   0  -6    1.23    0.70
  11  -3 -22   -0.93    1.49
  11  -3 -21    1.25    1.41
  12  -2 -15    5.69    1.27
  12   0  -8   48.07    1.33
  13  -1 -12   10.84    1.29
  14  -2 -20   -0.12    1.33
  14  -2 -19    0.50    1.38
  16   0 -14    7.84    1.08
  17  -1 -21    0.71    1.43
  18   0 -19    5.28    1.19
   2  -4 -16   -0.21    1.12
   3  -3 -10   18.59    1.10
   4  -4 -19    1.65    1.09
   4  -4 -18    1.45    1.11
   6  -4 -24    0.84    1.22
   6  -4 -23    0.37    1.33
   6  -4 -22    2.83    1.37
   9  -3 -16    7.49    1.43
  11  -3 -20    1.21    1.59
  14  -2 -18   17.26    1.55
  15  -1 -15    0.27    1.21
  17  -1 -20   -2.29    1.42
  18   0 -18   -0.28    1.04
  -1  -3  -8   14.79    0.76
   4  -4 -17   17.22    1.36
   5  -3 -11    8.83    1.10
   6  -4 -21    0.12    1.24
   6  -4 -20    4.02    1.48
   9  -3 -15    4.48    1.24
   9  -1  -7   68.75    1.45
  10  -2 -11   16.22    1.41
  11  -3 -18   14.74    1.49
  12  -2 -14   11.46    1.28
  14  -2 -17    9.27    1.43
  14   0 -10    2.62    0.94
  16   0 -13    2.14    0.99
  17  -1 -19    1.85    1.19
  18   0 -17    3.14    1.15
   4  -4 -16    2.32    1.20
   4  -2  -6    5.52    0.81
   6  -4 -19   -0.53    1.37
   7  -3 -12    0.61    1.10
   8  -4 -23    0.03    1.49
   8  -4 -22    1.36    1.44
  11  -3 -17    2.28    1.30
  13  -3 -22    2.85    1.63
  13  -1 -11    0.20    1.02
  14  -2 -16    0.90    1.21
  16  -2 -22    3.62    1.30
  16  -2 -21    2.56    1.38
  17  -1 -18    0.89    1.19
  18   0 -16    1.19    1.01
   1  -3  -8    7.93    0.88
   3  -3  -9    5.77    0.93
   6  -4 -18   -0.86    1.20
   6  -2  -7   -0.67    0.93
   8  -4 -21    2.08    1.37
   9  -3 -14   51.67    1.82
  13  -3 -21    1.00    1.50
  13  -3 -20    0.28    1.29
  15  -1 -13   22.50    1.35
  16  -2 -20   -1.92    1.51
  16   0 -12    4.99    1.00
  17  -1 -17   19.38    1.51
  20   0 -21    0.36    0.75
   4  -4 -15    2.18    1.06
   6  -4 -17   -0.11    1.10
   7  -3 -11   26.36    1.43
   8  -2  -8   24.24    1.24
   9  -3 -13   11.01    1.22
  10   0  -5    8.24    0.77
  11  -3 -16    0.83    1.22
  12  -2 -12    4.14    1.17
  13  -3 -19   -0.21    1.53
  13  -1 -10   12.21    1.18
  14  -2 -15    1.65    1.29
  14   0  -9   13.38    1.01
  18   0 -15    1.09    0.91
  19  -1 -21    1.86    1.38
  -1  -3  -7   60.74    1.13
   2  -4 -13   17.92    1.21
   4  -4 -14    1.85    1.09
   6  -4 -16    2.14    1.21
   8  -4 -18    6.46    1.42
   9  -1  -6   13.50    1.00
  11  -3 -15    1.46    1.25
  13  -3 -18    0.76    1.50
  14  -2 -14    4.22    1.20
  15  -1 -12   45.00    1.57
  16   0 -11    5.47    1.02
  17  -1 -15    3.12    1.23
  18   0 -14    0.98    0.97
  19  -1 -20    2.53    1.28
   3  -3  -8    4.33    0.88
   8  -4 -17    0.44    1.22
   9  -3 -12    3.65    1.16
  10  -4 -21    1.19    1.29
  11  -3 -14    0.59    1.25
  13   1  -6   12.72    0.67
  19  -1 -19    0.60    1.26
   1  -3  -7   56.06    1.27
   2  -4 -12    6.21    1.02
   4  -4 -13   -0.06    1.11
   6  -4 -14    9.46    1.39
   8  -4 -16   -0.75    1.21
  10  -4 -19    0.14    1.38
  13  -3 -16    1.59    1.24
  13  -1  -9    0.54    1.03
  14  -2 -13    1.70    1.22
  14   0  -8    7.20    0.86
  15  -3 -20    6.28    1.55
  15  -1 -11    1.02    1.10
  17  -1 -14   -0.17    1.11
  18  -2 -20    1.27    1.22
  18   0 -13    1.65    0.96
  19  -1 -18    2.20    1.22
   7  -1  -4    1.92    0.68
   8  -2  -7    2.22    0.89
   9  -3 -11    0.94    1.35
  10  -4 -18   -0.29    1.44
  11  -3 -13    4.99    1.26
  12   0  -6    0.11    0.68
  15  -3 -19    0.98    1.47
  16   0 -10    0.57    0.85
  18  -2 -19    4.14    1.27
  19  -1 -17    2.07    1.22
   4  -4 -12    8.34    1.26
   6  -4 -13    3.52    1.12
   7  -3  -9   68.46    1.69
   8  -4 -15    2.02    1.18
   9  -1  -5  149.93    1.81
  10  -2  -8   78.13    1.79
  13  -3 -15   16.86    1.55
  14  -2 -12    0.61    1.13
  15  -3 -18    1.82    1.51
  17  -1 -13    0.36    1.09
  18  -2 -18    1.50    1.28
  19  -1 -16    1.61    1.19
   8  -4 -14   -0.34    1.24
   9  -3 -10   12.98    1.40
  10   0  -4    2.40    0.65
  11  -3 -12    6.79    1.23
  12  -4 -19    2.15    1.64
  13  -3 -14    0.47    1.29
  13  -1  -8   43.61    1.38
  15  -1 -10   14.22    1.25
  18  -2 -17    1.35    1.46
  18   0 -12   33.23    1.31
   0  -4 -10   -0.14    0.84
   1  -3  -6   46.72    1.23
   4  -4 -11    7.07    1.12
   5  -5 -19    1.73    1.22
   6  -2  -5  103.43    1.62
   7  -5 -21    0.33    1.33
   8  -2  -6   10.43    1.06
  11  -1  -6   18.24    1.02
  12  -4 -18    1.25    1.49
  14  -2 -11    3.66    1.11
  14   0  -7   28.09    1.00
  16   0  -9    2.28    0.79
  17  -1 -12    2.43    1.06
  19  -1 -15    1.15    1.18
  21  -1 -19   -0.40    1.21
   2  -4 -10    7.59    1.01
   4  -2  -4   23.07    0.93
   5  -5 -18    0.00    1.11
   7  -5 -19    0.62    1.06
   7  -3  -8   41.06    1.46
   8  -4 -13    0.40    1.13
  10  -2  -7   60.55    1.56
  11  -3 -11   -0.38    1.05
  13  -3 -13   -0.79    1.30
  15  -3 -15    3.01    1.51
  18  -2 -16    1.99    1.35
  18   0 -11    8.21    1.01
  21  -1 -18    4.13    1.23
   3  -3  -6   97.55    1.63
   4  -4 -10   93.08    2.01
   5  -5 -17    0.28    1.25
   6  -4 -11    6.53    1.25
   7  -5 -18   -0.77    1.32
   8  -4 -12    6.67    1.39
   9  -5 -20    0.89    1.30
   9  -3  -9    6.63    1.22
  12  -4 -16   -0.46    1.54
  13  -1  -7   99.93    1.79
  14  -4 -19    0.94    1.42
  15  -1  -9   12.80    1.08
  17  -3 -18    2.41    1.52
  17  -1 -11    0.07    0.99
  19  -1 -14    2.14    1.01
  20  -2 -19    0.09    1.42
  21  -1 -17   -0.52    1.09
   0  -4  -9    3.60    0.77
   5  -5 -16   -0.23    1.14
   7  -5 -17    4.95    1.37
   7  -1  -3    3.27    0.70
  12  -4 -15    2.81    1.31
  12  -2  -8   30.20    1.45
  13  -3 -12    6.20    1.07
  15  -3 -14    2.85    1.40
  16  -2 -12    3.09    1.14
  17  -3 -17   10.15    1.66
  19  -1 -13    4.94    1.18
  20  -2 -18    0.43    1.45
   5  -5 -15   -0.51    1.30
   6  -4 -10   -0.66    1.25
   7  -5 -16    5.47    1.38
   8  -4 -11    2.03    1.11
   8  -2  -5    5.19    1.04
   9  -5 -18    0.77    1.35
   9  -3  -8    0.47    1.08
  11  -1  -5    0.76    0.83
  14  -4 -17    2.48    1.52
  15  -1  -8    2.68    1.11
  17  -3 -16   -0.27    1.55
  18  -2 -14    0.08    1.33
  20  -2 -17    4.55    1.48
  21  -1 -16    2.35    1.10
   1  -3  -5    3.34    0.79
   4  -4  -9    8.55    1.19
   6  -2  -4  155.64    1.90
   9  -5 -17    1.89    1.46
  10  -4 -12    4.88    1.32
  10  -2  -6    2.38    0.90
  11  -5 -19    2.80    1.33
  11  -3  -9    5.72    1.52
  12  -4 -14    4.01    1.42
  14  -4 -16    1.05    1.52
  16  -2 -11    5.75    1.17
  17  -1 -10    6.17    0.96
  18  -2 -13    1.52    1.17
  19  -1 -12    0.38    1.08
  20  -2 -16    2.27    1.47
  21  -1 -15    0.43    1.14
   0  -4  -8    0.79    0.75
   5  -5 -14    0.45    1.14
   7  -5 -15    1.36    1.33
  11  -5 -18    4.93    1.42
  13  -1  -6   12.97    1.03
  14  -4 -15   -0.67    1.53
  16  -4 -18    1.52    1.64
   3  -3  -5   22.89    1.09
   5  -5 -13    1.00    1.22
   6  -4  -9    5.92    1.31
   7  -5 -14    1.66    1.39
   9  -3  -7   27.19    1.51
  11  -5 -17    1.53    1.36
  12   0  -4   39.36    1.02
  16  -4 -17    0.19    1.63
  16  -2 -10    1.22    1.20
  16   0  -7   44.67    1.32
  17  -3 -14    0.09    1.48
  17  -1  -9    0.93    0.99
  20  -2 -15    5.72    1.42
  21  -1 -14    1.14    1.19
   9  -5 -15    2.26    1.27
  12  -4 -12    2.99    1.60
  14  -4 -14    2.21    1.68
  15  -3 -11    0.48    1.41
  15  -1  -7    1.49    0.98
  19  -1 -11    4.63    1.12
  20  -2 -14    2.06    1.42
   5  -5 -12    4.27    1.27
   6  -4  -8   11.93    1.37
   7  -5 -13   -0.33    1.36
   9  -5 -14   15.72    1.83
  10  -4 -10    0.79    1.30
  12  -2  -6    1.76    1.07
  13  -3  -9    0.91    1.29
  13  -1  -5   -0.15    0.99
  14  -4 -13    0.49    1.41
  16  -2  -9    0.22    1.19
  17  -3 -13   -0.51    1.41
  18  -2 -11    7.92    1.41
  21  -1 -13    2.82    1.16
   2  -4  -7    1.67    0.94
   6  -2  -3   14.32    1.09
  11  -5 -15    0.10    1.56
  12  -4 -11    1.60    1.49
  13  -5 -17    0.58    1.44
  15  -3 -10    5.10    1.56
  16  -4 -15    2.82    1.49
  17  -3 -12    1.31    1.44
  17  -1  -8   11.78    1.21
  19  -1 -10    0.54    1.04
  20  -2 -13    1.44    1.40
  22  -2 -16   -0.82    1.50
   0   0   0    0.00    0.00
;
_shelx_hkl_checksum              44760
loop_
_space_group_symop_operation_xyz
'x, y, z'
'-x, y, -z'
'x+1/2, y+1/2, z'
'-x+1/2, y+1/2, -z'
'-x, -y, -z'
'x, -y, z'
'-x+1/2, -y+1/2, -z'
'x+1/2, -y+1/2, z'
loop_
_atom_site_label
_atom_site_type_symbol
_atom_site_fract_x
_atom_site_fract_y
_atom_site_fract_z
_atom_site_U_iso_or_equiv
_atom_site_adp_type
_atom_site_occupancy
_atom_site_site_symmetry_order
_atom_site_calc_flag
_atom_site_refinement_flags_posn
_atom_site_refinement_flags_adp
_atom_site_refinement_flags_occupancy
_atom_site_disorder_assembly
_atom_site_disorder_group
Bi1 Bi 0.45131(4) 0.000000 0.18981(4) 0.0232(2) Uani 0.9428(19) 2 d S T P . .
Cu1 Cu 0.502(5) 0.000000 0.236(5) 0.076(16) Uiso 0.057(2) 2 d S . P . .
Bi2 Bi 0.15172(4) 0.000000 0.06253(4) 0.0249(3) Uani 0.7572(19) 2 d S T P . .
Ag2 Ag 0.15172(4) 0.000000 0.06253(4) 0.0249(3) Uani 0.200(0) 2 d S T P . .
Bi3 Bi 0.24402(5) 0.000000 0.62223(4) 0.0350(2) Uani 1 2 d S T P . .
Se1 Se 0.40253(10) 0.000000 0.36039(9) 0.0216(3) Uani 1 2 d S T P . .
Se2 Se 0.79396(10) 0.000000 0.12470(12) 0.0289(4) Uani 1 2 d S T P . .
Se3 Se 0.13829(10) 0.000000 0.45507(9) 0.0192(3) Uani 1 2 d S T P . .
Se4 Se 0.09505(10) 0.000000 0.22972(10) 0.0237(3) Uani 1 2 d S T P . .
Se5 Se 0.000000 0.500000 0.000000 0.0168(4) Uani 1 4 d S T P . .
Cu3 Cu 0.0231(19) 0.000000 0.560(2) 0.046(9) Uani 0.081(6) 2 d S T P . .
Cu4 Cu 0.4646(12) 0.000000 0.5227(10) 0.069(4) Uani 0.239(7) 2 d S T P . .
Cu5 Cu 0.000000 0.328(3) 0.500000 0.054(3) Uani 0.323(7) 2 d S T P . .
loop_
_atom_site_aniso_label
_atom_site_aniso_U_11
_atom_site_aniso_U_22
_atom_site_aniso_U_33
_atom_site_aniso_U_23
_atom_site_aniso_U_13
_atom_site_aniso_U_12
Bi1 0.0260(4) 0.0226(3) 0.0210(4) 0.000 0.0042(2) 0.000
Bi2 0.0225(4) 0.0225(4) 0.0297(4) 0.000 0.0046(3) 0.000
Ag2 0.0225(4) 0.0225(4) 0.0297(4) 0.000 0.0046(3) 0.000
Bi3 0.0406(4) 0.0355(4) 0.0249(4) 0.000 -0.0067(2) 0.000
Se1 0.0228(7) 0.0218(7) 0.0220(8) 0.000 0.0089(6) 0.000
Se2 0.0192(7) 0.0162(7) 0.0486(10) 0.000 -0.0022(6) 0.000
Se3 0.0208(7) 0.0188(6) 0.0175(7) 0.000 0.0019(5) 0.000
Se4 0.0207(7) 0.0196(7) 0.0285(8) 0.000 -0.0024(6) 0.000
Se5 0.0167(9) 0.0159(8) 0.0176(9) 0.000 0.0021(7) 0.000
Cu3 0.024(13) 0.08(2) 0.037(17) 0.000 0.007(11) 0.000
Cu4 0.070(10) 0.069(10) 0.058(9) 0.000 -0.013(8) 0.000
Cu5 0.022(4) 0.101(9) 0.040(5) 0.000 0.006(3) 0.000
loop_
_atom_type_symbol
_atom_type_description
_atom_type_scat_dispersion_real
_atom_type_scat_dispersion_imag
_atom_type_scat_source
Cu Cu 0.3240 0.8257 'International Tables Vol C Tables 4.2.6.8 and 6.1.1.4'
Se Se 0.2367 1.4831 'International Tables Vol C Tables 4.2.6.8 and 6.1.1.4'
Ag Ag -1.6473 0.7167 'International Tables Vol C Tables 4.2.6.8 and 6.1.1.4'
Bi Bi -1.3494 7.2566 'International Tables Vol C Tables 4.2.6.8 and 6.1.1.4'
loop_
_geom_angle_atom_site_label_1
_geom_angle_atom_site_label_2
_geom_angle_atom_site_label_3
_geom_angle
_geom_angle_site_symmetry_1
_geom_angle_site_symmetry_3
_geom_angle_publ_flag
Cu1 Bi1 Se1 64(4) . . ?
Cu1 Bi1 Se4 54.4(17) . 3 ?
Se1 Bi1 Se4 93.64(4) . 3 ?
Cu1 Bi1 Se4 54.4(17) . 3_545 ?
Se1 Bi1 Se4 93.64(4) . 3_545 ?
Se4 Bi1 Se4 93.63(4) 3 3_545 ?
Cu1 Bi1 Se2 131.9(15) . 3_445 ?
Se1 Bi1 Se2 92.23(4) . 3_445 ?
Se4 Bi1 Se2 173.12(5) 3 3_445 ?
Se4 Bi1 Se2 89.59(3) 3_545 3_445 ?
Cu1 Bi1 Se2 131.9(15) . 3_455 ?
Se1 Bi1 Se2 92.23(4) . 3_455 ?
Se4 Bi1 Se2 89.59(3) 3 3_455 ?
Se4 Bi1 Se2 173.12(5) 3_545 3_455 ?
Se2 Bi1 Se2 86.58(4) 3_445 3_455 ?
Cu1 Bi1 Se5 118(4) . 3_545 ?
Se1 Bi1 Se5 178.69(4) . 3_545 ?
Se4 Bi1 Se5 87.26(3) 3 3_545 ?
Se4 Bi1 Se5 87.26(3) 3_545 3_545 ?
Se2 Bi1 Se5 86.82(3) 3_445 3_545 ?
Se2 Bi1 Se5 86.82(3) 3_455 3_545 ?
Bi1 Cu1 Se4 108(3) . 3 ?
Bi1 Cu1 Se4 108(3) . 3_545 ?
Se4 Cu1 Se4 117(3) 3 3_545 ?
Bi1 Cu1 Se1 98(4) . . ?
Se4 Cu1 Se1 112.0(18) 3 . ?
Se4 Cu1 Se1 112.0(18) 3_545 . ?
Se4 Bi2 Se2 88.51(4) . 3_455 ?
Se4 Bi2 Se2 88.51(4) . 3_445 ?
Se2 Bi2 Se2 91.93(4) 3_455 3_445 ?
Se4 Bi2 Se5 90.48(2) . 1_545 ?
Se2 Bi2 Se5 178.08(3) 3_455 1_545 ?
Se2 Bi2 Se5 89.67(2) 3_445 1_545 ?
Se4 Bi2 Se5 90.48(2) . . ?
Se2 Bi2 Se5 89.67(2) 3_455 . ?
Se2 Bi2 Se5 178.08(3) 3_445 . ?
Se5 Bi2 Se5 88.698(17) 1_545 . ?
Se4 Bi2 Se2 177.89(4) . 5_655 ?
Se2 Bi2 Se2 92.95(4) 3_455 5_655 ?
Se2 Bi2 Se2 92.95(4) 3_445 5_655 ?
Se5 Bi2 Se2 88.01(2) 1_545 5_655 ?
Se5 Bi2 Se2 88.01(2) . 5_655 ?
Se3 Bi3 Se1 79.57(4) . 7_546 ?
Se3 Bi3 Se1 79.57(4) . 7_556 ?
Se1 Bi3 Se1 90.64(4) 7_546 7_556 ?
Se3 Bi3 Se3 82.43(4) . 7_556 ?
Se1 Bi3 Se3 161.93(5) 7_546 7_556 ?
Se1 Bi3 Se3 87.65(3) 7_556 7_556 ?
Se3 Bi3 Se3 82.43(4) . 7_546 ?
Se1 Bi3 Se3 87.65(3) 7_546 7_546 ?
Se1 Bi3 Se3 161.93(5) 7_556 7_546 ?
Se3 Bi3 Se3 88.42(4) 7_556 7_546 ?
Se3 Bi3 Cu3 49.7(5) . . ?
Se1 Bi3 Cu3 50.5(2) 7_546 . ?
Se1 Bi3 Cu3 50.5(2) 7_556 . ?
Se3 Bi3 Cu3 116.9(3) 7_556 . ?
Se3 Bi3 Cu3 116.9(3) 7_546 . ?
Cu4 Se1 Cu5 23.3(3) 5_656 7_556 ?
Cu4 Se1 Cu5 23.3(3) 5_656 3_545 ?
Cu5 Se1 Cu5 34.5(6) 7_556 3_545 ?
Cu4 Se1 Cu4 30.7(8) 5_656 . ?
Cu5 Se1 Cu4 22.6(2) 7_556 . ?
Cu5 Se1 Cu4 22.6(2) 3_545 . ?
Cu4 Se1 Cu1 97.2(19) 5_656 . ?
Cu5 Se1 Cu1 112.0(18) 7_556 . ?
Cu5 Se1 Cu1 112.0(18) 3_545 . ?
Cu4 Se1 Cu1 127.9(19) . . ?
Cu4 Se1 Cu3 55.5(5) 5_656 7_556 ?
Cu5 Se1 Cu3 38.7(6) 7_556 7_556 ?
Cu5 Se1 Cu3 72.9(7) 3_545 7_556 ?
Cu4 Se1 Cu3 58.6(6) . 7_556 ?
Cu1 Se1 Cu3 97.8(12) . 7_556 ?
Cu4 Se1 Cu3 55.5(5) 5_656 7_546 ?
Cu5 Se1 Cu3 72.9(7) 7_556 7_546 ?
Cu5 Se1 Cu3 38.7(6) 3_545 7_546 ?
Cu4 Se1 Cu3 58.6(6) . 7_546 ?
Cu1 Se1 Cu3 97.8(12) . 7_546 ?
Cu3 Se1 Cu3 110.5(11) 7_556 7_546 ?
Cu4 Se1 Bi1 115.9(4) 5_656 . ?
Cu5 Se1 Bi1 129.52(10) 7_556 . ?
Cu5 Se1 Bi1 129.52(9) 3_545 . ?
Cu4 Se1 Bi1 146.6(4) . . ?
Cu1 Se1 Bi1 18.7(19) . . ?
Cu3 Se1 Bi1 107.8(6) 7_556 . ?
Cu3 Se1 Bi1 107.8(6) 7_546 . ?
Cu4 Se1 Bi3 112.9(3) 5_656 7_546 ?
Cu5 Se1 Bi3 114.6(2) 7_556 7_546 ?
Cu5 Se1 Bi3 89.7(2) 3_545 7_546 ?
Cu4 Se1 Bi3 92.1(3) . 7_546 ?
Cu1 Se1 Bi3 122.1(10) . 7_546 ?
Cu3 Se1 Bi3 140.0(6) 7_556 7_546 ?
Cu3 Se1 Bi3 66.3(5) 7_546 7_546 ?
Bi1 Se1 Bi3 110.86(4) . 7_546 ?
Cu4 Se1 Bi3 112.9(3) 5_656 7_556 ?
Cu5 Se1 Bi3 89.7(2) 7_556 7_556 ?
Cu5 Se1 Bi3 114.6(2) 3_545 7_556 ?
Cu4 Se1 Bi3 92.1(3) . 7_556 ?
Cu1 Se1 Bi3 122.1(10) . 7_556 ?
Cu3 Se1 Bi3 66.3(5) 7_556 7_556 ?
Cu3 Se1 Bi3 140.0(6) 7_546 7_556 ?
Bi1 Se1 Bi3 110.86(4) . 7_556 ?
Bi3 Se1 Bi3 90.64(4) 7_546 7_556 ?
Bi2 Se2 Bi2 91.93(4) 3_545 3 ?
Bi2 Se2 Bi1 177.15(4) 3_545 3 ?
Bi2 Se2 Bi1 90.733(13) 3 3 ?
Bi2 Se2 Bi1 90.733(13) 3_545 3_545 ?
Bi2 Se2 Bi1 177.15(4) 3 3_545 ?
Bi1 Se2 Bi1 86.58(4) 3 3_545 ?
Bi2 Se2 Bi2 87.05(4) 3_545 5_655 ?
Bi2 Se2 Bi2 87.05(4) 3 5_655 ?
Bi1 Se2 Bi2 92.09(4) 3 5_655 ?
Bi1 Se2 Bi2 92.09(4) 3_545 5_655 ?
Cu3 Se3 Cu3 46.6(14) 5_556 . ?
Cu3 Se3 Cu5 40.2(5) 5_556 . ?
Cu3 Se3 Cu5 38.9(4) . . ?
Cu3 Se3 Cu5 40.2(5) 5_556 5_556 ?
Cu3 Se3 Cu5 38.9(4) . 5_556 ?
Cu5 Se3 Cu5 65.8(5) . 5_556 ?
Cu3 Se3 Cu4 56.5(3) 5_556 7_546 ?
Cu3 Se3 Cu4 58.9(4) . 7_546 ?
Cu5 Se3 Cu4 87.3(5) . 7_546 ?
Cu5 Se3 Cu4 21.8(3) 5_556 7_546 ?
Cu3 Se3 Cu4 56.5(3) 5_556 7_556 ?
Cu3 Se3 Cu4 58.9(4) . 7_556 ?
Cu5 Se3 Cu4 21.8(3) . 7_556 ?
Cu5 Se3 Cu4 87.3(5) 5_556 7_556 ?
Cu4 Se3 Cu4 108.6(6) 7_546 7_556 ?
Cu3 Se3 Bi3 118.2(8) 5_556 . ?
Cu3 Se3 Bi3 71.6(7) . . ?
Cu5 Se3 Bi3 93.00(4) . . ?
Cu5 Se3 Bi3 93.00(4) 5_556 . ?
Cu4 Se3 Bi3 95.4(3) 7_546 . ?
Cu4 Se3 Bi3 95.4(3) 7_556 . ?
Cu3 Se3 Bi3 124.0(4) 5_556 7_556 ?
Cu3 Se3 Bi3 135.24(10) . 7_556 ?
Cu5 Se3 Bi3 101.8(3) . 7_556 ?
Cu5 Se3 Bi3 164.2(2) 5_556 7_556 ?
Cu4 Se3 Bi3 163.6(3) 7_546 7_556 ?
Cu4 Se3 Bi3 80.0(3) 7_556 7_556 ?
Bi3 Se3 Bi3 97.57(4) . 7_556 ?
Cu3 Se3 Bi3 124.0(4) 5_556 7_546 ?
Cu3 Se3 Bi3 135.24(10) . 7_546 ?
Cu5 Se3 Bi3 164.2(2) . 7_546 ?
Cu5 Se3 Bi3 101.8(3) 5_556 7_546 ?
Cu4 Se3 Bi3 80.0(3) 7_546 7_546 ?
Cu4 Se3 Bi3 163.6(3) 7_556 7_546 ?
Bi3 Se3 Bi3 97.57(4) . 7_546 ?
Bi3 Se3 Bi3 88.42(4) 7_556 7_546 ?
Cu1 Se4 Cu1 117(3) 3_445 3_455 ?
Cu1 Se4 Bi2 104.9(16) 3_445 . ?
Cu1 Se4 Bi2 104.9(16) 3_455 . ?
Cu1 Se4 Bi1 17.4(19) 3_445 3_445 ?
Cu1 Se4 Bi1 106.7(15) 3_455 3_445 ?
Bi2 Se4 Bi1 95.20(4) . 3_445 ?
Cu1 Se4 Bi1 106.7(15) 3_445 3_455 ?
Cu1 Se4 Bi1 17.4(19) 3_455 3_455 ?
Bi2 Se4 Bi1 95.20(4) . 3_455 ?
Bi1 Se4 Bi1 93.63(4) 3_445 3_455 ?
Bi2 Se5 Bi2 180.00(2) 5 1_565 ?
Bi2 Se5 Bi2 88.698(17) 5 5_565 ?
Bi2 Se5 Bi2 91.302(17) 1_565 5_565 ?
Bi2 Se5 Bi2 91.302(17) 5 . ?
Bi2 Se5 Bi2 88.698(17) 1_565 . ?
Bi2 Se5 Bi2 180.0 5_565 . ?
Bi2 Se5 Bi1 93.056(15) 5 3_455 ?
Bi2 Se5 Bi1 86.944(15) 1_565 3_455 ?
Bi2 Se5 Bi1 93.056(15) 5_565 3_455 ?
Bi2 Se5 Bi1 86.944(15) . 3_455 ?
Bi2 Se5 Bi1 86.944(15) 5 7 ?
Bi2 Se5 Bi1 93.056(15) 1_565 7 ?
Bi2 Se5 Bi1 86.944(15) 5_565 7 ?
Bi2 Se5 Bi1 93.056(15) . 7 ?
Bi1 Se5 Bi1 180.0 3_455 7 ?
Cu5 Cu3 Cu5 112.3(19) . 5_556 ?
Cu5 Cu3 Cu3 56.2(9) . 5_556 ?
Cu5 Cu3 Cu3 56.2(9) 5_556 5_556 ?
Cu5 Cu3 Se3 81.0(10) . 5_556 ?
Cu5 Cu3 Se3 81.0(10) 5_556 5_556 ?
Cu3 Cu3 Se3 73.7(16) 5_556 5_556 ?
Cu5 Cu3 Cu4 126.6(17) . 3_445 ?
Cu5 Cu3 Cu4 21.8(4) 5_556 3_445 ?
Cu3 Cu3 Cu4 72.6(9) 5_556 3_445 ?
Se3 Cu3 Cu4 70.5(7) 5_556 3_445 ?
Cu5 Cu3 Cu4 21.8(4) . 3_455 ?
Cu5 Cu3 Cu4 126.6(17) 5_556 3_455 ?
Cu3 Cu3 Cu4 72.6(9) 5_556 3_455 ?
Se3 Cu3 Cu4 70.5(7) 5_556 3_455 ?
Cu4 Cu3 Cu4 133.3(14) 3_445 3_455 ?
Cu5 Cu3 Se3 73.7(9) . . ?
Cu5 Cu3 Se3 73.7(9) 5_556 . ?
Cu3 Cu3 Se3 59.7(14) 5_556 . ?
Se3 Cu3 Se3 133.4(14) 5_556 . ?
Cu4 Cu3 Se3 94.3(9) 3_445 . ?
Cu4 Cu3 Se3 94.3(9) 3_455 . ?
Cu5 Cu3 Cu4 116.3(15) . 7_546 ?
Cu5 Cu3 Cu4 14.8(4) 5_556 7_546 ?
Cu3 Cu3 Cu4 61.9(8) 5_556 7_546 ?
Se3 Cu3 Cu4 95.7(9) 5_556 7_546 ?
Cu4 Cu3 Cu4 31.1(9) 3_445 7_546 ?
Cu4 Cu3 Cu4 134.6(14) 3_455 7_546 ?
Se3 Cu3 Cu4 63.5(7) . 7_546 ?
Cu5 Cu3 Cu4 14.8(4) . 7_556 ?
Cu5 Cu3 Cu4 116.3(15) 5_556 7_556 ?
Cu3 Cu3 Cu4 61.9(8) 5_556 7_556 ?
Se3 Cu3 Cu4 95.7(9) 5_556 7_556 ?
Cu4 Cu3 Cu4 134.6(14) 3_445 7_556 ?
Cu4 Cu3 Cu4 31.1(9) 3_455 7_556 ?
Se3 Cu3 Cu4 63.5(7) . 7_556 ?
Cu4 Cu3 Cu4 116.2(13) 7_546 7_556 ?
Cu5 Cu3 Se1 66.9(4) . 7_556 ?
Cu5 Cu3 Se1 166.5(14) 5_556 7_556 ?
Cu3 Cu3 Se1 121.4(7) 5_556 7_556 ?
Se3 Cu3 Se1 111.7(7) 5_556 7_556 ?
Cu4 Cu3 Se1 166.0(14) 3_445 7_556 ?
Cu4 Cu3 Se1 57.4(3) 3_455 7_556 ?
Se3 Cu3 Se1 93.6(7) . 7_556 ?
Cu4 Cu3 Se1 152.4(12) 7_546 7_556 ?
Cu4 Cu3 Se1 59.4(3) 7_556 7_556 ?
Cu5 Cu3 Se1 166.5(14) . 7_546 ?
Cu5 Cu3 Se1 66.9(4) 5_556 7_546 ?
Cu3 Cu3 Se1 121.4(7) 5_556 7_546 ?
Se3 Cu3 Se1 111.7(7) 5_556 7_546 ?
Cu4 Cu3 Se1 57.4(3) 3_445 7_546 ?
Cu4 Cu3 Se1 166.0(14) 3_455 7_546 ?
Se3 Cu3 Se1 93.6(7) . 7_546 ?
Cu4 Cu3 Se1 59.4(3) 7_546 7_546 ?
Cu4 Cu3 Se1 152.4(12) 7_556 7_546 ?
Se1 Cu3 Se1 110.5(11) 7_556 7_546 ?
Cu5 Cu3 Cu5 128.1(15) . 1_545 ?
Cu5 Cu3 Cu5 15.7(5) 5_556 1_545 ?
Cu3 Cu3 Cu5 71.9(6) 5_556 1_545 ?
Se3 Cu3 Cu5 85.0(6) 5_556 1_545 ?
Cu4 Cu3 Cu5 15.1(5) 3_445 1_545 ?
Cu4 Cu3 Cu5 141.3(13) 3_455 1_545 ?
Se3 Cu3 Cu5 81.0(5) . 1_545 ?
Cu4 Cu3 Cu5 17.7(4) 7_546 1_545 ?
Cu4 Cu3 Cu5 131.4(12) 7_556 1_545 ?
Se1 Cu3 Cu5 160.5(11) 7_556 1_545 ?
Se1 Cu3 Cu5 51.75(10) 7_546 1_545 ?
Cu5 Cu4 Cu5 97(2) 7_556 3_545 ?
Cu5 Cu4 Cu4 48.3(12) 7_556 5_656 ?
Cu5 Cu4 Cu4 48.3(12) 3_545 5_656 ?
Cu5 Cu4 Cu3 39.4(10) 7_556 3 ?
Cu5 Cu4 Cu3 126.8(17) 3_545 3 ?
Cu4 Cu4 Cu3 82.5(9) 5_656 3 ?
Cu5 Cu4 Cu3 126.8(17) 7_556 3_545 ?
Cu5 Cu4 Cu3 39.4(10) 3_545 3_545 ?
Cu4 Cu4 Cu3 82.5(9) 5_656 3_545 ?
Cu3 Cu4 Cu3 133.3(15) 3 3_545 ?
Cu5 Cu4 Se1 84.2(9) 7_556 5_656 ?
Cu5 Cu4 Se1 84.2(9) 3_545 5_656 ?
Cu4 Cu4 Se1 81.3(13) 5_656 5_656 ?
Cu3 Cu4 Se1 67.1(7) 3 5_656 ?
Cu3 Cu4 Se1 67.1(7) 3_545 5_656 ?
Cu5 Cu4 Cu3 111.6(16) 7_556 7_546 ?
Cu5 Cu4 Cu3 25.9(9) 3_545 7_546 ?
Cu4 Cu4 Cu3 66.4(8) 5_656 7_546 ?
Cu3 Cu4 Cu3 148.9(9) 3 7_546 ?
Cu3 Cu4 Cu3 45.4(14) 3_545 7_546 ?
Se1 Cu4 Cu3 106.4(8) 5_656 7_546 ?
Cu5 Cu4 Cu3 25.9(9) 7_556 7_556 ?
Cu5 Cu4 Cu3 111.6(16) 3_545 7_556 ?
Cu4 Cu4 Cu3 66.4(8) 5_656 7_556 ?
Cu3 Cu4 Cu3 45.4(14) 3 7_556 ?
Cu3 Cu4 Cu3 148.9(9) 3_545 7_556 ?
Se1 Cu4 Cu3 106.4(8) 5_656 7_556 ?
Cu3 Cu4 Cu3 116.2(13) 7_546 7_556 ?
Cu5 Cu4 Se1 75.6(9) 7_556 . ?
Cu5 Cu4 Se1 75.6(9) 3_545 . ?
Cu4 Cu4 Se1 68.0(12) 5_656 . ?
Cu3 Cu4 Se1 107.3(8) 3 . ?
Cu3 Cu4 Se1 107.3(8) 3_545 . ?
Se1 Cu4 Se1 149.3(8) 5_656 . ?
Cu3 Cu4 Se1 61.9(7) 7_546 . ?
Cu3 Cu4 Se1 61.9(7) 7_556 . ?
Cu5 Cu4 Se3 166.5(13) 7_556 7_546 ?
Cu5 Cu4 Se3 76.1(9) 3_545 7_546 ?
Cu4 Cu4 Se3 123.4(5) 5_656 7_546 ?
Cu3 Cu4 Se3 152.9(10) 3 7_546 ?
Cu3 Cu4 Se3 53.1(6) 3_545 7_546 ?
Se1 Cu4 Se3 105.9(4) 5_656 7_546 ?
Cu3 Cu4 Se3 57.6(5) 7_546 7_546 ?
Cu3 Cu4 Se3 147.4(9) 7_556 7_546 ?
Se1 Cu4 Se3 91.5(4) . 7_546 ?
Cu5 Cu4 Se3 76.1(9) 7_556 7_556 ?
Cu5 Cu4 Se3 166.5(13) 3_545 7_556 ?
Cu4 Cu4 Se3 123.4(5) 5_656 7_556 ?
Cu3 Cu4 Se3 53.1(6) 3 7_556 ?
Cu3 Cu4 Se3 152.9(10) 3_545 7_556 ?
Se1 Cu4 Se3 105.9(4) 5_656 7_556 ?
Cu3 Cu4 Se3 147.4(9) 7_546 7_556 ?
Cu3 Cu4 Se3 57.6(5) 7_556 7_556 ?
Se1 Cu4 Se3 91.5(4) . 7_556 ?
Se3 Cu4 Se3 108.6(6) 7_546 7_556 ?
Cu4 Cu5 Cu4 83(2) 7_556 3_455 ?
Cu4 Cu5 Cu5 41.7(12) 7_556 5_566 ?
Cu4 Cu5 Cu5 41.7(12) 3_455 5_566 ?
Cu4 Cu5 Cu3 118.8(13) 7_556 5_556 ?
Cu4 Cu5 Cu3 139.3(13) 3_455 5_556 ?
Cu5 Cu5 Cu3 146.2(9) 5_566 5_556 ?
Cu4 Cu5 Cu3 139.3(13) 7_556 . ?
Cu4 Cu5 Cu3 118.8(13) 3_455 . ?
Cu5 Cu5 Cu3 146.2(9) 5_566 . ?
Cu3 Cu5 Cu3 67.7(19) 5_556 . ?
Cu4 Cu5 Se1 81.8(9) 7_556 7_556 ?
Cu4 Cu5 Se1 72.5(9) 3_455 7_556 ?
Cu5 Cu5 Se1 72.8(3) 5_566 7_556 ?
Cu3 Cu5 Se1 139.5(11) 5_556 7_556 ?
Cu3 Cu5 Se1 74.5(9) . 7_556 ?
Cu4 Cu5 Se1 72.5(9) 7_556 3_455 ?
Cu4 Cu5 Se1 81.8(9) 3_455 3_455 ?
Cu5 Cu5 Se1 72.8(3) 5_566 3_455 ?
Cu3 Cu5 Se1 74.5(9) 5_556 3_455 ?
Cu3 Cu5 Se1 139.5(11) . 3_455 ?
Se1 Cu5 Se1 145.5(6) 7_556 3_455 ?
Cu4 Cu5 Se3 161.5(13) 7_556 5_556 ?
Cu4 Cu5 Se3 82.1(10) 3_455 5_556 ?
Cu5 Cu5 Se3 122.9(3) 5_566 5_556 ?
Cu3 Cu5 Se3 67.4(9) 5_556 5_556 ?
Cu3 Cu5 Se3 58.8(9) . 5_556 ?
Se1 Cu5 Se3 104.54(12) 7_556 5_556 ?
Se1 Cu5 Se3 94.07(10) 3_455 5_556 ?
Cu4 Cu5 Se3 82.1(10) 7_556 . ?
Cu4 Cu5 Se3 161.5(13) 3_455 . ?
Cu5 Cu5 Se3 122.9(3) 5_566 . ?
Cu3 Cu5 Se3 58.8(9) 5_556 . ?
Cu3 Cu5 Se3 67.4(9) . . ?
Se1 Cu5 Se3 94.07(10) 7_556 . ?
Se1 Cu5 Se3 104.54(12) 3_455 . ?
Se3 Cu5 Se3 114.2(5) 5_556 . ?
Cu4 Cu5 Cu5 138.3(12) 7_556 5_556 ?
Cu4 Cu5 Cu5 138.3(12) 3_455 5_556 ?
Cu5 Cu5 Cu5 180.000(12) 5_566 5_556 ?
Cu3 Cu5 Cu5 33.8(9) 5_556 5_556 ?
Cu3 Cu5 Cu5 33.8(9) . 5_556 ?
Se1 Cu5 Cu5 107.2(3) 7_556 5_556 ?
Se1 Cu5 Cu5 107.2(3) 3_455 5_556 ?
Se3 Cu5 Cu5 57.1(3) 5_556 5_556 ?
Se3 Cu5 Cu5 57.1(3) . 5_556 ?
Cu4 Cu5 Cu3 50.8(13) 7_556 1_565 ?
Cu4 Cu5 Cu3 38.1(13) 3_455 1_565 ?
Cu5 Cu5 Cu3 18.1(6) 5_566 1_565 ?
Cu3 Cu5 Cu3 164.3(5) 5_556 1_565 ?
Cu3 Cu5 Cu3 128.1(15) . 1_565 ?
Se1 Cu5 Cu3 55.3(6) 7_556 1_565 ?
Se1 Cu5 Cu3 90.3(7) 3_455 1_565 ?
Se3 Cu5 Cu3 118.6(5) 5_556 1_565 ?
Se3 Cu5 Cu3 123.6(5) . 1_565 ?
Cu5 Cu5 Cu3 161.9(6) 5_556 1_565 ?
Cu4 Cu5 Cu3 38.1(12) 7_556 5_566 ?
Cu4 Cu5 Cu3 50.8(13) 3_455 5_566 ?
Cu5 Cu5 Cu3 18.1(6) 5_566 5_566 ?
Cu3 Cu5 Cu3 128.1(15) 5_556 5_566 ?
Cu3 Cu5 Cu3 164.3(5) . 5_566 ?
Se1 Cu5 Cu3 90.3(7) 7_556 5_566 ?
Se1 Cu5 Cu3 55.3(6) 3_455 5_566 ?
Se3 Cu5 Cu3 123.6(5) 5_556 5_566 ?
Se3 Cu5 Cu3 118.6(5) . 5_566 ?
Cu5 Cu5 Cu3 161.9(6) 5_556 5_566 ?
Cu3 Cu5 Cu3 36.2(11) 1_565 5_566 ?
loop_
_geom_bond_atom_site_label_1
_geom_bond_atom_site_label_2
_geom_bond_distance
_geom_bond_site_symmetry_2
_geom_bond_publ_flag
Bi1 Cu1 0.90(8) . ?
Bi1 Se1 2.7930(14) . ?
Bi1 Se4 2.8675(10) 3 ?
Bi1 Se4 2.8675(10) 3_545 ?
Bi1 Se2 3.0490(11) 3_445 ?
Bi1 Se2 3.0490(11) 3_455 ?
Bi1 Se5 3.0785(6) 3_545 ?
Cu1 Se4 2.45(3) 3 ?
Cu1 Se4 2.45(3) 3_545 ?
Cu1 Se1 2.52(6) . ?
Bi2 Se4 2.7875(16) . ?
Bi2 Se2 2.9081(11) 3_455 ?
Bi2 Se2 2.9081(11) 3_445 ?
Bi2 Se5 2.9909(5) 1_545 ?
Bi2 Se5 2.9909(5) . ?
Bi2 Se2 3.0697(18) 5_655 ?
Bi3 Se3 2.7181(15) . ?
Bi3 Se1 2.9404(10) 7_546 ?
Bi3 Se1 2.9404(10) 7_556 ?
Bi3 Se3 2.9983(10) 7_556 ?
Bi3 Se3 2.9983(10) 7_546 ?
Bi3 Cu3 3.02(3) . ?
Se1 Cu4 2.329(14) 5_656 ?
Se1 Cu5 2.430(4) 7_556 ?
Se1 Cu5 2.430(4) 3_545 ?
Se1 Cu4 2.484(14) . ?
Se1 Cu3 2.545(17) 7_556 ?
Se1 Cu3 2.545(17) 7_546 ?
Se3 Cu3 2.18(3) 5_556 ?
Se3 Cu3 2.43(3) . ?
Se3 Cu5 2.523(8) . ?
Se3 Cu5 2.523(8) 5_556 ?
Se3 Cu4 2.575(10) 7_546 ?
Se3 Cu4 2.575(10) 7_556 ?
Cu3 Cu5 1.65(2) . ?
Cu3 Cu5 1.65(2) 5_556 ?
Cu3 Cu3 1.84(6) 5_556 ?
Cu3 Cu4 2.277(12) 3_445 ?
Cu3 Cu4 2.277(12) 3_455 ?
Cu3 Cu4 2.463(17) 7_546 ?
Cu3 Cu4 2.463(17) 7_556 ?
Cu3 Cu5 2.957(17) 1_545 ?
Cu4 Cu5 0.965(11) 7_556 ?
Cu4 Cu5 0.965(11) 3_545 ?
Cu4 Cu4 1.28(4) 5_656 ?
Cu5 Cu5 1.44(3) 5_566 ?
Cu5 Cu5 2.74(3) 5_556 ?
