#------------------------------------------------------------------------------
#$Date: 2022-09-06 01:50:55 +0300 (Tue, 06 Sep 2022) $
#$Revision: 277636 $
#$URL: file:///home/coder/svn-repositories/cod/cif/7/71/11/7711147.cif $
#------------------------------------------------------------------------------
#
# This file is available in the Crystallography Open Database (COD),
# http://www.crystallography.net/
#
# All data on this site have been placed in the public domain by the
# contributors.
#
data_7711147
loop_
_publ_author_name
'Ward, Jas S.'
'Mart\~onova, Jevgenija'
'Wilson, Laura M. E.'
'Kramer, Eric'
'Aav, Riina'
'Rissanen, Kari'
_publ_section_title
;
 Carbonyl Hypoiodites from Pivalic and Trimesic Acid and their Silver(I)
 Intermediates
;
_journal_name_full               'Dalton Transactions'
_journal_paper_doi               10.1039/D2DT01988D
_journal_year                    2022
_chemical_formula_moiety         'C11 H16 I N O2'
_chemical_formula_sum            'C11 H16 I N O2'
_chemical_formula_weight         321.15
_space_group_crystal_system      triclinic
_space_group_IT_number           2
_space_group_name_Hall           '-P 1'
_space_group_name_H-M_alt        'P -1'
_atom_sites_solution_hydrogens   geom
_atom_sites_solution_primary     dual
_audit_creation_date             2021-10-20
_audit_creation_method
;
Olex2 1.2
(compiled 2018.05.29 svn.r3508 for OlexSys, GUI svn.r5506)
;
_audit_update_record
;
2022-05-18 deposited with the CCDC.	2022-09-05 downloaded from the CCDC.
;
_cell_angle_alpha                76.766(5)
_cell_angle_beta                 78.689(5)
_cell_angle_gamma                86.009(4)
_cell_formula_units_Z            2
_cell_length_a                   5.6777(3)
_cell_length_b                   8.6359(5)
_cell_length_c                   13.1369(8)
_cell_measurement_reflns_used    2380
_cell_measurement_temperature    119.98(13)
_cell_measurement_theta_max      28.4710
_cell_measurement_theta_min      2.6050
_cell_volume                     614.64(6)
_computing_cell_refinement       'CrysAlisPro 1.171.40.84a (Rigaku OD, 2020)'
_computing_data_collection       'CrysAlisPro 1.171.40.84a (Rigaku OD, 2020)'
_computing_data_reduction        'CrysAlisPro 1.171.40.84a (Rigaku OD, 2020)'
_computing_molecular_graphics    'Olex2 (Dolomanov et al., 2009)'
_computing_publication_material  'Olex2 (Dolomanov et al., 2009)'
_computing_structure_refinement  'ShelXL (Sheldrick, 2015)'
_computing_structure_solution    'ShelXT (Sheldrick, 2015)'
_diffrn_ambient_environment      N~2~
_diffrn_ambient_temperature      119.98(13)
_diffrn_detector                 'CCD plate'
_diffrn_detector_area_resol_mean 8.0053
_diffrn_detector_type            Eos
_diffrn_measured_fraction_theta_full 0.999
_diffrn_measured_fraction_theta_max 0.998
_diffrn_measurement_details
;
List of Runs (angles in degrees, time in seconds):

  # Type    Start    End  Width  t~exp~   \w     \q     \k     \f   Frames
#--------------------------------------------------------------------------
  1  \w    -38.00  49.00   1.00    2.50    --  -18.45  57.00   0.00   87
  2  \w    -35.00  47.00   1.00    2.50    --  -18.45  57.00-120.00   82
  3  \w    -37.00  48.00   1.00    2.50    --  -18.45  57.00 120.00   85
  4  \w     -2.00  26.00   1.00    2.50    --   19.23  77.00  90.00   28
  5  \w    -10.00  24.00   1.00    2.50    --   19.23  77.00 -30.00   34
  6  \w     -8.00  29.00   1.00    2.50    --   19.23  77.00-150.00   37
;
_diffrn_measurement_device       'four-circle diffractometer'
_diffrn_measurement_device_type  'SuperNova, Single source at offset/far, Eos'
_diffrn_measurement_method       '\w scans'
_diffrn_orient_matrix_type
'CrysAlisPro convention (1999,Acta A55,543-557)'
_diffrn_orient_matrix_UB_11      -0.0475852000
_diffrn_orient_matrix_UB_12      -0.0230304000
_diffrn_orient_matrix_UB_13      0.0552069000
_diffrn_orient_matrix_UB_21      0.0899687000
_diffrn_orient_matrix_UB_22      -0.0609834000
_diffrn_orient_matrix_UB_23      0.0054915000
_diffrn_orient_matrix_UB_31      0.0767043000
_diffrn_orient_matrix_UB_32      0.0536136000
_diffrn_orient_matrix_UB_33      0.0104040000
_diffrn_radiation_monochromator  mirror
_diffrn_radiation_probe          x-ray
_diffrn_radiation_type           MoK\a
_diffrn_radiation_wavelength     0.71073
_diffrn_reflns_av_R_equivalents  0.0347
_diffrn_reflns_av_unetI/netI     0.0688
_diffrn_reflns_Laue_measured_fraction_full 0.999
_diffrn_reflns_Laue_measured_fraction_max 0.998
_diffrn_reflns_limit_h_max       7
_diffrn_reflns_limit_h_min       -6
_diffrn_reflns_limit_k_max       10
_diffrn_reflns_limit_k_min       -10
_diffrn_reflns_limit_l_max       16
_diffrn_reflns_limit_l_min       -15
_diffrn_reflns_number            4129
_diffrn_reflns_point_group_measured_fraction_full 0.999
_diffrn_reflns_point_group_measured_fraction_max 0.998
_diffrn_reflns_theta_full        25.242
_diffrn_reflns_theta_max         26.367
_diffrn_reflns_theta_min         2.424
_diffrn_source                   'micro-focus sealed X-ray tube'
_diffrn_source_type              'SuperNova (Mo) X-ray Source'
_exptl_absorpt_coefficient_mu    2.587
_exptl_absorpt_correction_T_max  1.00000
_exptl_absorpt_correction_T_min  0.92793
_exptl_absorpt_correction_type   multi-scan
_exptl_absorpt_process_details
;
CrysAlisPro 1.171.40.84a (Rigaku Oxford Diffraction, 2020)
Empirical absorption correction using spherical harmonics,
implemented in SCALE3 ABSPACK scaling algorithm.
;
_exptl_crystal_colour            colourless
_exptl_crystal_colour_primary    colourless
_exptl_crystal_density_diffrn    1.735
_exptl_crystal_description       plate
_exptl_crystal_F_000             316
_exptl_crystal_recrystallization_method
'Re-crystallisation from solvent: toluene/pentane'
_exptl_crystal_size_max          0.212
_exptl_crystal_size_mid          0.143
_exptl_crystal_size_min          0.027
_refine_diff_density_max         0.878
_refine_diff_density_min         -0.806
_refine_diff_density_rms         0.149
_refine_ls_extinction_method     none
_refine_ls_goodness_of_fit_ref   1.021
_refine_ls_hydrogen_treatment    constr
_refine_ls_matrix_type           full
_refine_ls_number_parameters     140
_refine_ls_number_reflns         2509
_refine_ls_number_restraints     0
_refine_ls_restrained_S_all      1.021
_refine_ls_R_factor_all          0.0415
_refine_ls_R_factor_gt           0.0355
_refine_ls_shift/su_max          0.000
_refine_ls_shift/su_mean         0.000
_refine_ls_structure_factor_coef Fsqd
_refine_ls_weighting_details
'w=1/[\s^2^(Fo^2^)+(0.0124P)^2^] where P=(Fo^2^+2Fc^2^)/3'
_refine_ls_weighting_scheme      calc
_refine_ls_wR_factor_gt          0.0620
_refine_ls_wR_factor_ref         0.0655
_reflns_Friedel_coverage         0.000
_reflns_number_gt                2254
_reflns_number_total             2509
_reflns_threshold_expression     'I > 2\s(I)'
_cod_data_source_file            d2dt01988d2.cif
_cod_data_source_block           2b
_cod_database_code               7711147
_shelxl_version_number           2014/6
_shelx_space_group_comment
;
The symmetry employed for this shelxl refinement is uniquely defined
by the following loop, which should always be used as a source of
symmetry information in preference to the above space-group names.
They are only intended as comments.
;
_reflns_odcompleteness_completeness 99.84
_reflns_odcompleteness_iscentric 1
_reflns_odcompleteness_theta     26.32
_olex2_refinement_description
;
1. Fixed Uiso
 At 1.2 times of:
  All C(H) groups
 At 1.5 times of:
  All C(H,H,H) groups
2.a Aromatic/amide H refined with riding coordinates:
 C2(H2), C3(H3), C5(H5), C6(H6)
2.b Idealised Me refined as rotating group:
 C7(H7A,H7B,H7C), C15(H15A,H15B,H15C), C16(H16A,H16B,H16C), C17(H17A,H17B,H17C)
;
_shelx_res_file
;
TITL oik053_scale2_a.res in P-1
REM Old TITL OIK053_scale2 in P-1
REM SHELXT solution in P-1
REM R1 0.056, Rweak 0.012, Alpha 0.040, Orientation as input
REM Formula found by SHELXT: C11 N O2 I
CELL 0.71073 5.6777 8.6359 13.1369 76.766 78.689 86.009
ZERR 2 0.0003 0.0005 0.0008 0.005 0.005 0.004
LATT 1
SFAC C H I N O
UNIT 22 32 2 2 4

L.S. 4 0 0
PLAN  20
BOND $H
list 4
fmap 2 53
ACTA
SHEL 50 0.8
REM <olex2.extras>
REM <HklSrc "%.\\OIK053_scale2.hkl">
REM </olex2.extras>

WGHT    0.012400
FVAR       0.62669
I1    3    0.297642    0.221677    0.618337    11.00000    0.01779    0.01447 =
         0.01638   -0.00444   -0.00545    0.00028
O11   5    0.464333    0.194027    0.756512    11.00000    0.03025    0.01759 =
         0.01966   -0.00258   -0.01341   -0.00217
O13   5    0.631337    0.432182    0.693142    11.00000    0.02869    0.01922 =
         0.01764    0.00190   -0.00944   -0.00186
N1    4    0.118111    0.225970    0.476675    11.00000    0.01500    0.01236 =
         0.01400   -0.00304   -0.00517   -0.00312
C2    1   -0.081923    0.313055    0.462285    11.00000    0.01612    0.01446 =
         0.02096   -0.00626   -0.00429    0.00106
AFIX  43
H2    2   -0.150277    0.373274    0.511412    11.00000   -1.20000
AFIX   0
C3    1   -0.189244    0.315598    0.376180    11.00000    0.01629    0.01212 =
         0.01997   -0.00044   -0.00216    0.00024
AFIX  43
H3    2   -0.328137    0.377134    0.367916    11.00000   -1.20000
AFIX   0
C4    1   -0.090429    0.226695    0.302130    11.00000    0.02180    0.01490 =
         0.01336    0.00412   -0.00468   -0.00563
C5    1    0.117436    0.136055    0.318644    11.00000    0.01781    0.01605 =
         0.02462   -0.00811   -0.00118   -0.00149
AFIX  43
H5    2    0.189111    0.074056    0.271131    11.00000   -1.20000
AFIX   0
C6    1    0.214916    0.139391    0.405726    11.00000    0.01742    0.01882 =
         0.02483   -0.00880   -0.00758    0.00568
AFIX  43
H6    2    0.353952    0.079023    0.415874    11.00000   -1.20000
AFIX   0
C7    1   -0.201915    0.228312    0.207108    11.00000    0.03469    0.02231 =
         0.02107   -0.00087   -0.01137   -0.00391
AFIX 137
H7A   2   -0.274924    0.127994    0.215785    11.00000   -1.50000
H7B   2   -0.080034    0.245830    0.143976    11.00000   -1.50000
H7C   2   -0.321982    0.312144    0.200883    11.00000   -1.50000
AFIX   0
C12   1    0.589765    0.312254    0.764018    11.00000    0.01048    0.01768 =
         0.01276   -0.00412   -0.00192    0.00272
C14   1    0.668498    0.288907    0.870932    11.00000    0.01560    0.01126 =
         0.01619   -0.00244   -0.00503    0.00036
C15   1    0.786074    0.123433    0.901119    11.00000    0.02376    0.01749 =
         0.02079   -0.00508   -0.00771    0.00541
AFIX 137
H15A  2    0.673007    0.043325    0.905757    11.00000   -1.50000
H15B  2    0.834254    0.111173    0.968665    11.00000   -1.50000
H15C  2    0.924488    0.112322    0.847812    11.00000   -1.50000
AFIX   0
C16   1    0.845113    0.417283    0.866014    11.00000    0.01984    0.02003 =
         0.02364   -0.00946   -0.00763   -0.00077
AFIX 137
H16A  2    0.987198    0.406218    0.814572    11.00000   -1.50000
H16B  2    0.887369    0.405832    0.934672    11.00000   -1.50000
H16C  2    0.771720    0.520444    0.845709    11.00000   -1.50000
AFIX   0
C17   1    0.442251    0.304190    0.954415    11.00000    0.01831    0.02336 =
         0.02312   -0.00818   -0.00422    0.00396
AFIX 137
H17A  2    0.373139    0.409484    0.937761    11.00000   -1.50000
H17B  2    0.484531    0.284937    1.023577    11.00000   -1.50000
H17C  2    0.327709    0.227700    0.954073    11.00000   -1.50000
AFIX   0
HKLF 4

REM  oik053_scale2_a.res in P-1
REM R1 =  0.0355 for    2254 Fo > 4sig(Fo)  and  0.0415 for all    2509 data
REM    140 parameters refined using      0 restraints

END

WGHT      0.0124      0.0000

REM Highest difference peak  0.878,  deepest hole -0.806,  1-sigma level  0.149
Q1    1   0.3067  0.3154  0.5479  11.00000  0.05    0.88
Q2    1   0.8681  0.6621  0.8597  11.00000  0.05    0.74
Q3    1   0.2450  0.1334  0.6845  11.00000  0.05    0.71
Q4    1   0.5500  0.4219  0.5706  11.00000  0.05    0.62
Q5    1   0.7379  0.3548  0.8798  11.00000  0.05    0.57
Q6    1  -0.1473  0.4373  0.5168  11.00000  0.05    0.55
Q7    1  -0.0406  0.1530  0.3317  11.00000  0.05    0.54
Q8    1   0.3687  0.2461  0.5020  11.00000  0.05    0.53
Q9    1  -0.2689  0.0146  0.2802  11.00000  0.05    0.52
Q10   1  -0.3247  0.2363  0.5526  11.00000  0.05    0.51
Q11   1  -0.4039  0.3044  0.4216  11.00000  0.05    0.51
Q12   1   0.4559  0.2506  0.6790  11.00000  0.05    0.51
Q13   1   0.1434  0.1988  0.6050  11.00000  0.05    0.50
Q14   1   0.5000  0.5000  1.0000  10.50000  0.05    0.50
Q15   1   0.2911  0.2594  0.7758  11.00000  0.05    0.50
Q16   1   0.1752  0.0802  0.6356  11.00000  0.05    0.49
Q17   1  -0.2013  0.1399  0.1856  11.00000  0.05    0.48
Q18   1   1.0623  0.4004  0.8431  11.00000  0.05    0.47
Q19   1   0.1807 -0.0824  0.3172  11.00000  0.05    0.47
Q20   1   0.4719  0.2571  0.5563  11.00000  0.05    0.47
;
_shelx_res_checksum              46600
_shelx_hkl_file
;
   0   0  -2   68.24    5.92
   0   0   2   62.72    5.73
   0   0  -3 1015.38   35.30
   0   0   3  987.05   35.05
   0   0   4 2250.98   70.99
   0   0   4 2310.04   79.78
   0   0  -4 2412.56   71.77
   0   0  -5  793.26   35.62
   0   0   5  828.80   43.40
   0   0  -5  850.10   35.98
   0   0   5  812.77   35.31
   0   0   6  183.78   16.04
   0   0  -6  176.58   15.84
   0   0  -6  182.38   16.48
   0   0   6  191.72   21.36
   0   0  -7  413.86   26.33
   0   0   7  392.75   33.29
   0   0   7  399.91   26.50
   0   0  -8 1589.34   63.85
   0   0   8 1674.00   80.38
   0   0   9  915.80   59.40
   0   0  -9  844.82   44.55
   0   0 -10  258.57   23.98
   0   0  10  218.52   29.83
   0   0  11   18.95   11.41
   0   0 -11   -0.19    3.59
   0   0  12  941.47   71.31
   0   0 -12  971.83   54.59
   0   0  13  982.60   75.85
   0   0  14  294.71   42.18
   0   0  15   23.03   14.26
   0  -1  15  459.74   56.48
   0  -1  14  390.36   49.65
   0  -1  13   56.03   18.07
   0   1 -13   44.79   13.71
   0   1 -12  143.82   21.09
   0  -1  12  128.32   26.38
   0  -1  11  210.91   31.62
   0   1 -11  218.91   25.25
   0  -1  10  619.13   52.77
   0   1 -10  743.74   46.84
   0  -1   9  574.66   47.27
   0   1  -9  586.80   40.30
   0   1  -8   65.97   12.82
   0   1  -7 1934.92   77.27
   0   1  -6 2752.57   96.41
   0   1  -5  978.12   45.67
   0  -1   5  966.14   44.73
   0   1  -5  947.29   45.17
   0   1  -4  135.91   14.07
   0  -1   4  137.91   14.01
   0   1  -3  981.33   39.52
   0  -1   3  855.47   37.67
   0   1  -2  574.19   26.44
   0  -1   2  555.06   26.12
   0   1  -1 2865.51   81.61
   0  -1   1 2900.70   81.61
   0  -1   0   22.57    3.63
   0   1   0   20.60    3.30
   0  -1  -1 1125.93   36.71
   0   1   1 1120.04   36.86
   0   1   1 1094.62   36.15
   0  -1  -1 1104.53   36.27
   0  -1  -2  424.14   20.02
   0  -1  -2  398.72   19.75
   0   1   2  355.92   18.88
   0   1   2  377.75   19.24
   0  -1  -3 2237.34   70.63
   0   1   3 2174.79   57.96
   0   1   3 2207.41   70.77
   0  -1  -4   14.34    5.25
   0   1   4    7.68    2.17
   0   1   4    6.57    3.35
   0  -1  -5   98.18    8.25
   0   1   5  100.83   13.64
   0  -1  -5  116.17    9.25
   0   1   5   91.65    8.62
   0  -1  -6 1193.11   43.43
   0   1   6 1253.55   44.25
   0   1   6 1208.74   57.98
   0  -1  -6 1223.20   42.89
   0   1   7 3029.86  114.02
   0  -1  -7 2920.84   92.57
   0   1   7 3308.20   95.70
   0  -1  -7 3263.12   95.49
   0  -1  -8  525.09   28.73
   0  -1  -8  536.50   28.24
   0   1   8  504.48   40.01
   0   1   8  535.73   29.27
   0  -1  -9  277.05   21.28
   0   1   9  265.12   30.26
   0  -1  -9  289.00   21.20
   0   1   9  272.78   21.16
   0   1  10  215.19   28.55
   0  -1 -10  256.03   20.81
   0   1  11  604.70   52.18
   0   1  12  103.40   22.98
   0   1  13   17.98    8.87
   0   1  14  214.83   35.34
   0   1  15  626.22   64.15
   0   1  16   74.72   23.94
   0  -2  14   14.18   12.66
   0  -2  13  493.72   55.14
   0   2 -13  472.53   44.21
   0   2 -12  494.58   43.83
   0  -2  12  494.87   52.45
   0   2 -11  196.53   26.42
   0  -2  11  144.08   27.44
   0   2 -10   51.36   12.91
   0   2  -9  314.25   31.60
   0   2  -8 1241.24   65.64
   0   2  -7 1912.83   82.98
   0   2  -6   36.93   10.09
   0   2  -5 1048.72   52.62
   0   2  -4 1555.40   64.93
   0   2  -4 1549.97   47.73
   0   2  -3 1447.20   47.25
   0  -2   3 1334.14   56.52
   0   2  -3 1356.93   57.34
   0   2  -3 1372.45   57.33
   0   2  -3 1398.46   41.02
   0   2  -2  128.12   14.19
   0  -2   2  125.66   13.47
   0   2  -2  124.94    8.60
   0  -2   1 2423.65   77.19
   0   2  -1 2327.63   76.46
   0   2   0 8892.35  233.35
   0   2   0 9066.69  234.17
   0  -2   0 9095.43  234.73
   0   2   1 1990.81   62.25
   0  -2  -1 2020.80   67.37
   0   2   1 2127.71   61.15
   0   2   1 1987.68   67.14
   0  -2  -2  362.31   22.51
   0   2   2  369.29   23.00
   0   2   2  401.47   15.74
   0  -2  -2  407.63   23.68
   0   2   3   25.44    6.96
   0   2   3   16.64    4.83
   0  -2  -3   20.66    5.78
   0  -2  -3   19.55    5.59
   0   2   4  566.49   32.75
   0  -2  -4  612.89   33.43
   0   2   4  553.48   32.47
   0   2   5 2415.56   87.76
   0   2   5 2409.48   65.68
   0   2   6 1325.72   59.87
   0   2   6 1225.85   37.77
   0  -2  -7   18.83    3.40
   0   2   7   22.55    4.26
   0   2   7   27.34    9.61
   0   2   8 1787.14   57.21
   0  -2  -8 1678.43   54.17
   0  -2  -9 1497.28   51.25
   0   2   9 1475.13   52.84
   0  -2 -10  719.09   32.87
   0   2  10  774.58   55.99
   0   2  11    6.89    7.14
   0   2  12  887.03   67.39
   0   2  13  624.58   58.33
   0   2  14  698.42   65.19
   0   2  15    8.20   11.65
   0   2  16   73.66   23.27
   0   3 -14  267.20   36.34
   0  -3  14  257.26   41.94
   0  -3  13  124.06   28.64
   0   3 -13  159.32   27.57
   0   3 -12   12.47    8.59
   0   3 -11  111.21   22.51
   0   3 -10  982.90   65.23
   0   3  -9  758.44   54.63
   0   3  -9  663.49   34.19
   0   3  -8   -3.08    3.05
   0   3  -8    0.45    4.12
   0   3  -7  748.49   32.16
   0   3  -7  748.54   51.31
   0   3  -6 2108.70   64.85
   0   3  -6 2157.90   92.80
   0   3  -5  904.41   52.11
   0   3  -5  821.72   39.21
   0   3  -4  108.52   11.19
   0   3  -4   94.33   15.36
   0   3  -3  142.63   17.50
   0   3  -3  133.05   10.88
   0   3  -2 1079.70   35.42
   0   3  -2 1165.49   53.00
   0  -3   1 1746.88   67.85
   0  -3   1 1706.20   47.25
   0   3  -1 1756.64   66.88
   0   3  -1 1719.89   67.14
   0   3  -1 1767.43   48.30
   0  -3   0 1046.27   31.99
   0  -3   0 1058.04   46.02
   0   3   0 1015.89   45.52
   0   3   0  997.77   44.06
   0  -3  -1   27.52    7.29
   0   3   1   14.63    4.57
   0   3   1   26.24    5.53
   0   3   2 3360.44  109.42
   0  -3  -2 3328.52  108.31
   0   3   2 3352.90   99.86
   0  -3  -2 3582.42  111.11
   0   3   2 3255.24   95.95
   0  -3  -3 2653.39   92.53
   0   3   3 2683.71   74.70
   0   3   3 2580.17   79.78
   0   3   3 2680.18   93.97
   0  -3  -4  915.39   47.73
   0   3   4 1014.52   50.21
   0  -3  -5   14.87    6.48
   0   3   5    8.47    4.47
   0   3   6 1721.82   76.18
   0   3   7 2466.79   98.34
   0   3   7 2280.53   64.23
   0   3   8  906.67   55.84
   0   3   8  813.41   28.95
   0   3   9    6.77    2.53
   0   3   9    3.56    6.84
   0   3  10   46.67   13.98
   0   3  11  323.52   37.96
   0   3  12  200.23   30.78
   0   3  13  109.83   24.69
   0   3  14   57.78   18.84
   0   3  15  482.45   56.86
   0   3  16  244.58   41.83
   0   4 -14   59.06   17.70
   0   4 -13   95.09   23.09
   0   4 -12  582.74   56.06
   0   4 -11  371.24   42.97
   0   4 -10  128.82   24.35
   0   4  -9  118.73   23.14
   0   4  -8  883.54   62.61
   0   4  -7 1014.17   65.36
   0   4  -6  235.43   28.83
   0   4  -5   72.41    9.89
   0   4  -5   78.95   16.22
   0   4  -4  609.40   43.72
   0   4  -4  598.58   28.61
   0   4  -3 1164.57   60.30
   0   4  -3 1057.44   37.95
   0   4  -2 1193.11   59.68
   0   4  -2 1185.44   37.48
   0   4  -1    2.03    4.41
   0   4   0 1116.43   53.23
   0  -4   0 1099.82   34.88
   0   4   1 2848.35   96.29
   0   4   1 2694.03   92.81
   0   4   2 1691.88   61.37
   0   4   2 1702.60   66.00
   0   4   3   45.06    8.36
   0  -4  -3   36.39    9.35
   0   4   3   45.58    6.81
   0   4   3   45.78   10.75
   0   4   4  353.58   29.77
   0   4   4  277.55   16.12
   0  -4  -4  326.26   28.55
   0   4   4  297.86   20.46
   0  -4  -5 2089.53   85.44
   0   4   5 2036.03   85.44
   0   4   6  770.80   48.55
   0   4   6  613.28   28.61
   0  -4  -6  699.12   46.37
   0   4   7   70.61   15.14
   0   4   8  370.43   36.09
   0   4   8  348.44   15.69
   0   4   9  831.82   27.03
   0   4   9 1312.91   72.52
   0   4  10  970.89   67.04
   0   4  11   87.21   20.68
   0   4  12  195.32   32.09
   0   4  13  456.97   51.04
   0   4  14  536.86   57.53
   0   4  15   96.05   25.32
   0   5 -13  254.82   39.58
   0   5 -12    9.03    7.99
   0   5 -11   59.58   19.37
   0   5 -10  426.90   47.78
   0   5  -9  549.05   53.72
   0   5  -8  104.01   22.16
   0   5  -7   24.10   11.95
   0   5  -6  371.41   39.37
   0   5  -5 1321.77   77.19
   0   5  -4  349.00   35.09
   0   5  -4  336.82   19.11
   0   5  -3   24.29    4.20
   0  -5   3   27.36    4.46
   0   5  -3   21.42    7.80
   0   5  -2  637.21   45.22
   0   5  -1 2271.35   94.20
   0  -5   0  868.14   29.52
   0   5   0  955.01   52.57
   0  -5  -1   43.53    6.15
   0   5   1   34.86   10.00
   0   5   2 1610.04   69.01
   0   5   3 1895.19   69.84
   0   5   3 1997.07   76.51
   0  -5  -3 1963.52   86.05
   0   5   4  545.19   33.05
   0   5   4  561.99   42.23
   0   5   4  546.15   28.71
   0  -5  -4  621.61   43.95
   0  -5  -5   -5.97    5.43
   0   5   5   -0.79    3.34
   0   5   5    7.12    5.08
   0   5   6  291.49   31.91
   0   5   6  268.07   20.15
   0  -5  -6  318.29   32.47
   0   5   7  930.17   40.05
   0   5   7 1112.68   66.21
   0  -5  -7 1012.77   63.13
   0   5   8 1401.20   78.30
   0   5   8 1248.94   45.70
   0   5   9  368.36   39.83
   0   5  10   -3.97    6.67
   0   5  11  546.80   53.46
   0   5  12  700.67   63.01
   0   5  13  120.85   27.32
   0   5  14   10.00    8.63
   0   5  15  272.50   43.83
   0   6 -11  125.95   28.91
   0   6 -10  103.68   26.18
   0   6  -9    9.53    7.76
   0   6  -8  232.14   37.34
   0   6  -7  608.16   57.26
   0   6  -6  771.61   62.50
   0   6  -5   62.94   16.86
   0   6  -4  526.65   47.75
   0   6  -3  981.64   64.52
   0   6  -2 1344.14   75.23
   0   6  -1   88.41   17.08
   0   6   0  369.79   34.58
   0  -6   0  366.20   14.65
   0  -6  -1  901.18   34.60
   0   6   1  907.06   54.58
   0  -6  -2 1633.80   58.95
   0   6   2 1698.56   77.36
   0  -6  -3  269.62   30.44
   0   6   3  233.37   24.44
   0   6   4   65.06   12.49
   0  -6  -4  112.06   19.42
   0   6   5  539.00   35.35
   0  -6  -5  623.95   48.30
   0   6   5  530.44   29.64
   0   6   5  557.56   46.17
   0   6   6  959.98   47.95
   0  -6  -6  997.16   64.91
   0   6   6 1041.87   66.58
   0   6   7  614.51   34.53
   0   6   7  626.73   51.58
   0  -6  -7  536.52   47.94
   0  -6  -8    5.65    7.80
   0   6   8   -1.92    7.69
   0   6   8    0.83    2.54
   0   6   9  625.96   55.22
   0   6  10 1188.85   81.31
   0   6  11  225.98   34.91
   0   6  12    0.92    5.53
   0   6  13  110.25   26.46
   0   6  14  330.98   47.60
   0   6  15  284.75   46.03
   0   7 -10  280.85   43.85
   0   7  -9  468.36   55.87
   0   7  -8  287.64   42.77
   0   7  -7   55.51   18.97
   0   7  -6  135.34   27.18
   0   7  -5  927.31   71.86
   0   7  -4  255.98   35.27
   0   7  -3  -12.43    8.65
   0   7  -2  123.12   23.05
   0   7  -1  731.04   55.65
   0   7   0  575.50   47.77
   0  -7  -1  482.79   21.48
   0   7   1  506.19   42.66
   0   7   2   77.18   16.10
   0  -7  -2   68.11    9.35
   0  -7  -3 1021.62   46.39
   0   7   3  983.58   58.86
   0  -7  -3 1014.07   66.52
   0  -7  -4  638.09   51.60
   0   7   4  536.31   40.49
   0  -7  -5  313.66   36.15
   0   7   5  241.16   25.98
   0  -7  -6    6.37    7.30
   0   7   6   -5.81    9.03
   0   7   6    3.64    3.78
   0   7   7  749.21   43.95
   0  -7  -7  736.20   60.09
   0   7   7  770.24   61.68
   0  -7  -8  826.26   65.88
   0   7   8  851.88   66.48
   0   7   9  512.41   51.99
   0   7  10    9.31    9.55
   0   7  11  491.87   54.33
   0   7  12  348.71   47.11
   0   7  13  277.86   43.13
   0   7  14    1.66   10.70
   0   8  -8   42.13   17.20
   0   8  -7  470.36   56.65
   0   8  -6  611.10   62.69
   0   8  -5   53.82   19.13
   0   8  -4   92.05   23.08
   0   8  -3  421.15   47.97
   0   8  -2  726.98   61.75
   0   8  -1  132.45   25.14
   0   8   0   17.29   11.31
   0   8   1  343.22   38.16
   0   8   2 1176.16   71.93
   0  -8  -3  361.79   41.56
   0   8   3  433.16   40.19
   0  -8  -4   12.46    8.54
   0   8   4    5.09    6.61
   0  -8  -5  313.13   39.23
   0   8   5  261.07   29.89
   0   8   6  796.93   51.35
   0  -8  -6  863.23   67.17
   0   8   7  607.93   57.14
   0  -8  -7  556.98   55.24
   0   8   8  111.27   24.68
   0  -8  -8   63.19   18.95
   0  -8  -9  100.94   25.52
   0   8   9  131.21   27.20
   0   8  10  960.82   78.36
   0   8  11  216.64   36.97
   0   8  12   75.29   22.95
   0   8  13   -4.99   12.25
   0   9  -5  193.35   37.16
   0   9  -4  245.37   39.55
   0   9  -3  141.76   30.06
   0   9  -2   -8.78    8.65
   0   9  -1  150.31   29.63
   0   9   0  906.86   70.92
   0   9   1  922.77   69.85
   0   9   2   -4.49    9.09
   0   9   3  314.50   37.74
   0  -9  -3  361.47   44.55
   0  -9  -4  567.68   56.46
   0   9   4  555.63   48.71
   0   9   5  274.72   32.41
   0  -9  -5  285.39   39.83
   0  -9  -6   54.76   18.48
   0  -9  -7  122.86   26.49
   0  -9  -8  294.09   42.02
   0  -9  -9  514.20   57.55
   0   9   9  404.96   51.18
   0   9  10   34.76   16.17
   0   9  11   81.31   23.58
   0  10  -3  185.72   36.23
   0  10  -2  216.26   38.50
   0  10  -1   93.70   24.98
   0  10   0  104.82   24.82
   0  10   1  139.63   28.94
   0 -10  -2  264.84   40.32
   0  10   2  258.59   38.24
   0  10   3  278.72   38.51
   0 -10  -3  268.13   40.72
   0  10   4   17.31    9.03
   0 -10  -4   32.70   13.69
   0 -10  -5   37.24   15.42
   0 -10  -6  335.12   47.02
   0 -10  -7  547.50   61.07
   0 -10  -8  220.52   39.39
   0 -10  -9    9.02    7.90
   0  11   0  513.28   60.47
   0  11   1  302.45   45.15
   0  11   2   31.85   15.19
   0  11   3   42.74   17.35
   0 -11  -3    9.49   11.26
   1 -11  -4  112.63   28.02
  -1  11   3  330.09   45.28
   1 -11  -3  292.79   46.07
   1 -11  -2  222.72   39.30
  -1  11   2  186.04   35.12
  -1  11   1   -4.33   11.26
   1 -11  -1  -17.43   12.65
   1 -10  -8  172.81   34.89
   1 -10  -7    6.75   12.42
   1 -10  -6  121.21   28.80
   1 -10  -5  258.59   39.88
  -1  10   4  335.28   41.53
   1 -10  -4  314.74   43.89
   1 -10  -3   10.53    8.12
  -1  10   3   -1.64    5.85
   1 -10  -2  542.72   58.32
  -1  10   2  552.24   55.76
  -1  10   1  672.44   63.06
   1 -10  -1  642.34   63.25
  -1  10   0   97.09   23.89
  -1  10  -1   47.33   18.38
  -1  10  -2  117.21   27.57
  -1   9  10  216.83   39.66
  -1   9   9   -4.23    5.92
   1  -9  -8  227.62   38.16
   1  -9  -7  569.27   58.95
   1  -9  -6  312.27   42.46
  -1   9   6  279.49   33.99
   1  -9  -5  160.48   29.76
  -1   9   5  147.28   25.30
  -1   9   4  181.92   28.45
   1  -9  -4   89.22   22.94
   1  -9  -3  600.57   57.38
  -1   9   3  598.76   53.66
   1  -9  -2  622.11   57.91
  -1   9   2  467.30   48.52
   1  -9  -1  189.36   31.23
  -1   9   1  138.59   26.58
  -1   9   0  -20.30   11.42
  -1   9  -1  239.01   36.53
  -1   9  -2  399.26   48.92
  -1   9  -3  119.29   26.16
  -1   9  -4    5.72    9.95
  -1   9  -5  513.29   59.87
  -1   8  12  330.60   48.47
  -1   8  11   44.47   21.10
  -1   8  10  222.72   37.82
  -1   8   9  641.52   62.49
  -1   8   8  895.28   72.60
   1  -8  -8  778.51   68.14
  -1   8   7   22.49    8.64
  -1   8   7   33.86   13.58
   1  -8  -7   14.05   10.60
   1  -8  -6   45.74   14.94
  -1   8   6   39.10   11.40
  -1   8   5  361.24   37.29
   1  -8  -5  440.56   46.40
   1  -8  -5  453.73   38.25
   1  -8  -4  934.06   68.01
   1  -8  -4  847.17   51.24
  -1   8   4  751.75   56.30
   1  -8  -3    0.24    4.09
  -1   8   3    5.02    6.53
   1  -8  -2  249.52   33.47
  -1   8   2  261.97   32.89
  -1   8   1  650.54   55.04
  -1   8   0  475.42   47.22
  -1   8  -1  258.83   34.61
  -1   8  -2    1.71    8.10
  -1   8  -3  263.77   37.84
  -1   8  -4  884.51   72.47
  -1   8  -5  261.68   39.50
  -1   8  -6    2.14    5.88
  -1   8  -7  133.21   30.37
  -1   8  -8  423.13   55.03
  -1   7  13   64.03   20.99
  -1   7  12   82.61   24.53
  -1   7  11  604.18   61.79
  -1   7  10  331.24   43.72
  -1   7   9   39.82   15.15
  -1   7   8  119.76   24.50
  -1   7   7  549.47   40.94
  -1   7   7  576.00   53.70
   1  -7  -7  499.71   49.48
   1  -7  -6  478.33   47.00
  -1   7   6  438.93   36.99
  -1   7   6  502.89   48.30
   1  -7  -5  594.74   51.18
  -1   7   5  567.09   43.67
   1  -7  -4   12.37    8.69
   1  -7  -4   20.82    7.62
  -1   7   4   22.60    9.52
   1  -7  -3  541.04   37.03
   1  -7  -3  517.79   45.92
  -1   7   3  481.20   41.54
  -1   7   2 1117.11   67.84
   1  -7  -2 1161.90   70.97
   1  -7  -2 1179.07   55.78
  -1   7   1  941.05   62.15
   1  -7  -1  966.65   47.01
   1  -7   0   18.14    5.82
  -1   7   0   29.59   10.83
   1  -7   1  355.14   23.07
  -1   7  -1  365.87   39.06
  -1   7  -2  836.17   62.42
  -1   7  -3  602.03   53.43
  -1   7  -4    0.68    5.48
  -1   7  -5  361.31   43.17
  -1   7  -6  463.55   50.70
  -1   7  -7  415.19   48.96
  -1   7  -8   86.51   23.36
  -1   7  -9   -7.44    8.44
  -1   7 -10  124.61   30.09
  -1   6  14   66.43   22.27
  -1   6  13  373.44   49.19
  -1   6  12  637.34   63.45
  -1   6  11  324.03   43.59
  -1   6  10   79.07   20.45
  -1   6   9  673.27   58.90
  -1   6   8 1129.99   75.57
  -1   6   7  278.04   34.45
  -1   6   6   19.11   10.55
   1  -6  -6    6.01    6.11
   1  -6  -5  319.54   34.83
  -1   6   5  339.67   36.01
   1  -6  -4 1445.60   77.34
  -1   6   4 1424.64   70.32
   1  -6  -3  702.55   42.44
   1  -6  -3  700.01   50.05
  -1   6   3  759.86   48.65
   1  -6  -2   -1.31    5.01
  -1   6   2   -2.58    5.63
   1  -6  -2    4.00    4.36
  -1   6   1  550.83   43.07
   1  -6  -1  559.49   33.58
  -1   6   0 1321.17   71.69
   1  -6   0 1258.52   53.37
   1  -6   1 1017.27   44.70
  -1   6  -1 1081.94   64.90
   1  -6   2  160.47   14.89
  -1   6  -2  173.03   25.35
   1  -6   3  146.68   14.23
  -1   6  -3  217.27   28.89
  -1   6  -4 1169.36   74.04
  -1   6  -5  540.23   49.48
  -1   6  -6  203.67   30.77
  -1   6  -7   39.03   14.72
  -1   6  -8  528.37   53.41
  -1   6  -9  356.70   45.43
  -1   6 -10   58.80   19.28
  -1   6 -11   50.44   17.91
  -1   6 -12  158.47   34.10
  -1   5  15   74.85   23.11
  -1   5  14  392.70   52.12
  -1   5  13   98.91   25.25
  -1   5  12    1.77    8.42
  -1   5  11  421.78   47.46
  -1   5  10  521.34   50.77
  -1   5   9  343.75   39.38
  -1   5   8   33.62   11.73
  -1   5   7  401.72   39.63
  -1   5   6  916.44   32.43
  -1   5   6 1081.89   64.64
  -1   5   5  829.73   35.68
  -1   5   5  939.12   58.22
   1  -5  -5  862.81   55.06
  -1   5   4   84.98   16.76
   1  -5  -4   82.52   15.92
   1  -5  -3  532.36   39.97
  -1   5   3  569.50   42.63
   1  -5  -2 1926.85   82.89
   1  -5  -2 1850.00   72.77
   1  -5  -1 1222.93   53.23
  -1   5   1 1245.13   63.35
  -1   5   0  101.71   16.92
   1  -5   0  123.37   13.60
  -1   5  -1  563.18   42.06
   1  -5   1  561.97   30.56
   1  -5   2  375.18   23.57
  -1   5  -2  371.16   24.04
  -1   5  -2  389.03   35.32
  -1   5  -3  564.26   32.16
   1  -5   3  613.30   31.33
  -1   5  -3  587.29   45.29
  -1   5  -4  197.43   18.49
   1  -5   4  209.87   18.34
  -1   5  -4  226.00   28.46
  -1   5  -5   29.40   12.66
  -1   5  -6  527.45   46.82
  -1   5  -7 1347.78   80.69
  -1   5  -8  495.88   48.26
  -1   5  -9   42.80   14.59
  -1   5 -10  256.48   37.73
  -1   5 -11  610.01   59.82
  -1   5 -12  221.12   36.21
  -1   5 -13   -3.26    5.34
  -1   4  15  119.32   31.70
  -1   4  14   17.66   10.80
  -1   4  13  266.04   39.63
  -1   4  12  478.84   51.49
  -1   4  11  525.68   51.40
  -1   4  10   11.77    7.93
  -1   4   9  305.83   35.10
  -1   4   8 1820.16   91.70
  -1   4   7 1377.53   74.55
  -1   4   6  132.24   20.33
  -1   4   5  480.01   38.14
   1  -4  -4 2101.24   87.99
  -1   4   4 2303.07   92.64
   1  -4  -3 2467.89   94.24
  -1   4   3 2498.72   98.17
   1  -4  -2   89.59   14.05
   1  -4  -1   58.28    9.83
   1  -4   0 1974.28   69.45
  -1   4  -1 2340.80   92.47
  -1   4  -1 2408.78   78.49
   1  -4   1 2279.57   77.31
   1  -4   2  581.20   29.79
  -1   4  -2  607.63   31.24
  -1   4  -2  553.14   39.52
   1  -4   3   89.81   11.34
  -1   4  -3   94.58   11.77
  -1   4  -3   67.74   13.83
   1  -4   3   88.67   10.75
  -1   4  -4 1150.92   62.25
  -1   4  -4 1025.92   47.46
   1  -4   4 1086.38   45.60
  -1   4  -5 1953.54   89.30
  -1   4  -6 1041.54   63.26
  -1   4  -7    0.41    5.09
  -1   4  -8  734.90   55.38
  -1   4  -9  645.92   53.85
  -1   4 -10  177.10   28.51
  -1   4 -11   33.06   12.75
  -1   4 -12   44.08   15.94
  -1   4 -13  458.83   51.15
  -1   4 -14  324.99   43.52
  -1   3  15   99.06   25.93
  -1   3  14  372.10   48.71
  -1   3  13  458.65   51.67
  -1   3  12   23.47   10.56
  -1   3  11  273.37   35.94
  -1   3  10  807.15   60.17
  -1   3   9 1543.45   82.98
  -1   3   8  221.70   18.55
  -1   3   8  207.81   26.64
  -1   3   7  284.59   29.51
  -1   3   6  892.35   52.62
  -1   3   5  570.08   38.94
  -1   3   4  322.18   27.32
   1  -3  -3   19.24    6.68
  -1   3   3   15.95    5.45
  -1   3   2  921.27   45.95
   1  -3  -2  880.47   43.30
   1  -3  -1 2204.17   79.83
   1  -3  -1 2072.22   72.73
   1  -3  -1 2090.64   74.89
   1  -3   0 1613.55   59.23
   1  -3   0 1742.71   67.39
  -1   3  -1  276.11   18.78
   1  -3   1  224.77   17.14
  -1   3  -2   41.87    7.32
  -1   3  -2   40.21    9.69
   1  -3   2   47.06    7.54
  -1   3  -3 1574.47   57.57
   1  -3   3 1409.79   54.31
  -1   3  -3 1613.45   68.21
   1  -3   3 1446.86   54.49
  -1   3  -4 1987.16   80.34
  -1   3  -4 1785.14   67.48
   1  -3   4 1782.32   65.81
  -1   3  -5   13.60    6.75
  -1   3  -6  612.81   42.92
  -1   3  -7 1455.66   73.11
  -1   3  -7 1435.07   59.11
  -1   3  -8  589.80   45.56
  -1   3  -8  568.69   34.32
  -1   3  -9    7.25    6.58
  -1   3  -9    3.93    5.19
  -1   3 -10   42.22    9.75
  -1   3 -10   58.59   15.56
  -1   3 -11  396.56   41.17
  -1   3 -12  560.02   51.10
  -1   3 -13   43.73   14.95
   1  -3  13   68.71   21.54
   1  -3  14   -3.79    5.86
  -1   2  15  322.67   46.59
  -1   2  14   86.41   23.80
  -1   2  13   45.63   14.70
  -1   2  12  411.08   45.99
  -1   2  11  406.08   43.28
  -1   2  10  441.65   42.80
  -1   2   9  152.97   23.74
  -1   2   8 1660.18   81.29
  -1   2   7 1040.17   44.91
  -1   2   7 1010.05   57.68
  -1   2   6  636.71   31.58
  -1   2   6  626.91   40.88
  -1   2   6  584.25   24.30
  -1   2   5  220.03   12.03
  -1   2   5  254.54   23.78
  -1   2   4 1091.28   50.70
   1  -2  -3 3317.41  103.80
  -1   2   3 3097.56  103.21
  -1   2   3 3275.69  103.21
  -1   2   2 2670.50   89.02
  -1   2   2 2737.75   87.37
   1  -2  -2 2801.26   87.65
   1  -2  -2 2874.89   90.29
  -1   2   1  339.73   21.66
   1  -2  -1  302.74   20.66
   1  -2  -1  286.68   18.70
   1  -2  -1  322.16   21.02
   1  -2   0 2846.69   89.13
  -1   2   0 3003.88   90.02
   1  -2   0 2983.96   91.83
   1  -2   1 3850.41  111.28
  -1   2  -1 3882.81  111.82
   1  -2   2 1315.70   48.44
   1  -2   2 1334.81   48.76
  -1   2  -2 1302.20   48.92
   1  -2   3  151.58   13.26
  -1   2  -3  176.58   15.08
  -1   2  -3  140.97   16.22
   1  -2   3  154.52   13.84
   1  -2   4  837.27   39.35
  -1   2  -4  858.88   38.11
  -1   2  -4  881.08   40.69
  -1   2  -4  870.99   44.68
  -1   2  -5 2403.26   89.57
  -1   2  -5 2401.85   80.35
  -1   2  -6 2526.48   93.38
  -1   2  -6 2295.04   81.26
  -1   2  -7  156.94   16.93
  -1   2  -7  157.98   19.82
  -1   2  -8  330.91   26.23
  -1   2  -8  383.58   32.87
  -1   2  -9  600.98   43.94
  -1   2  -9  602.33   38.23
  -1   2 -10  456.54   34.36
  -1   2 -10  522.79   42.59
  -1   2 -11  651.41   44.04
  -1   2 -11  788.98   54.43
   1  -2  12   -4.14    8.69
  -1   2 -12    7.79    6.74
   1  -2  13  522.22   55.99
  -1   2 -13  467.58   43.62
   1  -2  14  636.96   64.77
   1  -2  15  265.85   43.54
  -1   1  15   89.48   24.76
  -1   1  14  474.25   54.70
  -1   1  13  482.49   52.54
  -1   1  12   -9.53    8.14
  -1   1  11  108.81   22.55
  -1   1  10  482.28   45.13
  -1   1   9 1903.00   92.98
  -1   1   8  341.36   33.34
  -1   1   7   31.88   10.23
  -1   1   6  266.07   25.66
  -1   1   6  318.99   22.20
  -1   1   6  297.56   19.44
  -1   1   5 1177.91   46.20
  -1   1   5 1052.44   40.27
  -1   1   5 1162.41   53.93
  -1   1   4 1138.90   39.52
  -1   1   4 1110.12   49.60
   1  -1  -4 1201.19   50.88
  -1   1   4 1194.99   45.20
  -1   1   3 1946.52   68.04
   1  -1  -3 2054.03   68.67
   1  -1  -2 1666.48   54.54
  -1   1   2 1552.17   54.10
  -1   1   1 9858.16  251.74
  -1   1   1 9999.00  250.35
   1  -1  -1 9855.53  251.47
   1  -1   0 1599.53   49.96
   1  -1   0 1597.46   46.35
   1  -1   0 1578.77   53.99
  -1   1   0 1656.67   54.45
   1  -1   1    3.65    2.87
   1  -1   1    0.72    2.48
  -1   1  -1    2.05    2.06
   1  -1   2  195.96   14.10
  -1   1  -2  190.55   14.58
   1  -1   2  194.62   14.25
  -1   1  -2  197.44   14.51
  -1   1  -3 2341.93   75.58
   1  -1   3 2297.24   74.67
  -1   1  -3 2349.36   74.07
  -1   1  -4 1260.54   49.04
  -1   1  -4 1292.45   51.60
  -1   1  -4 1295.01   51.47
  -1   1  -5  921.43   42.96
  -1   1  -6   13.71    5.69
  -1   1  -7  625.95   37.10
  -1   1  -8  728.33   42.33
  -1   1  -9  434.73   33.32
   1  -1  10   -0.33    4.51
  -1   1 -10   25.57    8.55
  -1   1 -11  406.39   35.33
   1  -1  11  362.76   40.88
  -1   1 -12  974.17   58.18
   1  -1  12  942.41   71.07
  -1   1 -13  231.11   27.49
   1  -1  13  233.07   35.47
   1  -1  14   13.11    8.14
   1  -1  15  169.79   33.45
  -1   0  15  573.04   63.28
  -1   0  14  260.09   40.71
  -1   0  13   36.89   14.84
  -1   0  12  168.05   29.01
  -1   0  11  579.96   52.96
  -1   0  10 1166.61   73.55
  -1   0   9   23.64   10.71
   1   0  -9   33.20    9.61
  -1   0   8  561.12   43.45
   1   0  -8  534.79   36.03
  -1   0   7 1396.61   69.63
   1   0  -7 1336.79   59.48
  -1   0   6 1774.22   75.61
   1   0  -6 1685.58   62.65
   1   0  -6 1568.56   64.82
  -1   0   5    0.14    3.01
   1   0  -5    0.23    3.21
  -1   0   5   -1.21    3.57
  -1   0   5    1.08    4.37
   1   0  -4  322.88   21.73
  -1   0   4  326.42   20.42
  -1   0   4  360.37   22.90
  -1   0   4  316.12   24.01
  -1   0   3 2188.58   68.56
  -1   0   3 2033.54   72.08
  -1   0   2 5460.87  145.20
  -1   0   2 5174.64  142.74
  -1   0   1 1046.38   33.47
  -1   0   0  209.40   13.88
   1   0   0  199.98   13.46
  -1   0  -1  401.00   19.51
   1   0   1  389.01   19.01
   1   0   1  383.20   19.52
  -1   0  -1  367.68   19.32
  -1   0  -2 2687.64   78.60
  -1   0  -2 2589.17   78.48
   1   0   2 2557.70   77.89
   1   0   3   86.77    9.68
  -1   0  -3   83.38    9.88
  -1   0  -4  106.20   12.24
   1   0   5 1634.25   65.21
  -1   0  -5 1640.89   56.30
  -1   0  -6 6478.41  177.27
   1   0   6 6472.43  192.84
   1   0   7  607.03   41.15
  -1   0  -7  613.82   32.23
  -1   0  -8   17.91    5.75
   1   0   8   18.67    8.53
   1   0   9  618.79   47.11
  -1   0  -9  577.81   35.16
   1   0  10 1165.09   70.84
  -1   0 -10 1154.16   55.07
   1   0  11  817.28   61.53
  -1   0 -11  872.65   47.41
   1   0  12   30.98   13.15
  -1   0 -12    8.36    5.96
   1   0  13  245.38   35.97
   1   0  14  598.35   59.72
   1   0  15  152.47   32.44
   1   0  16   32.50   15.35
  -1  -1  14  236.68   39.28
  -1  -1  13  211.09   34.77
   1   1 -13  235.38   30.54
   1   1 -12   75.85   17.15
  -1  -1  12   92.02   23.08
   1   1 -11    9.41    6.81
  -1  -1  11   16.67    9.11
   1   1 -10  118.43   19.72
  -1  -1  10  144.25   25.13
   1   1  -9 1510.77   73.97
  -1  -1   9 1595.56   85.63
   1   1  -8 1597.65   73.30
  -1  -1   8 1556.72   81.05
   1   1  -7  240.72   24.07
  -1  -1   7  245.05   27.56
   1   1  -6  363.92   28.80
   1   1  -5  927.33   46.22
  -1  -1   5  902.43   45.55
  -1  -1   4 1616.17   61.73
   1   1  -4 1625.42   60.49
  -1  -1   3  277.14   20.15
  -1  -1   3  315.55   22.75
   1   1  -3  269.05   20.60
   1   1  -3  298.06   20.26
   1   1  -2 1716.51   61.61
  -1  -1   2 1859.97   64.06
  -1  -1   2 1743.86   60.59
  -1  -1   1 6657.28  178.56
   1   1  -1 6531.04  180.44
   1   1  -1 6693.58  171.66
   1   1  -1 6626.25  175.66
  -1  -1   0  997.92   33.60
   1   1   0  961.79   33.97
  -1  -1   0  995.44   36.71
   1   1   0 1009.96   36.91
   1   1   0 1003.87   33.40
  -1  -1   0  966.40   34.31
   1   1   1  444.17   17.85
  -1  -1  -1  434.80   20.13
  -1  -1  -1  490.50   20.50
   1   1   1  458.18   20.24
  -1  -1  -1  425.80   17.63
   1   1   2   -0.09    1.61
  -1  -1  -2    1.05    1.67
   1   1   2    1.43    2.10
  -1  -1  -2    2.51    1.57
  -1  -1  -2   -0.48    2.28
  -1  -1  -3 1812.09   57.84
  -1  -1  -3 1681.15   56.93
   1   1   3 1697.61   56.97
  -1  -1  -3 1851.96   60.25
   1   1   3 1787.52   57.71
  -1  -1  -4 1844.56   65.80
   1   1   4 1941.77   64.95
  -1  -1  -4 1890.05   65.67
   1   1   4 1844.20   65.38
  -1  -1  -5 4285.52  113.78
   1   1   5 4318.83  131.59
  -1  -1  -5 4413.49  132.09
   1   1   6   76.11   12.78
  -1  -1  -6   82.92    7.80
   1   1   7  653.68   41.58
  -1  -1  -7  629.42   27.52
   1   1   8 1185.86   63.95
  -1  -1  -8 1317.95   47.47
   1   1   9 1076.47   63.94
  -1  -1  -9 1212.74   46.91
   1   1  10   10.38    7.97
  -1  -1 -10    3.88    3.46
  -1  -1 -11  312.09   22.27
   1   1  11  264.08   33.34
   1   1  12  623.70   54.81
   1   1  13  773.36   64.64
   1   1  14  109.64   23.64
   1   1  15   29.58   13.24
   1   1  16  140.57   31.17
  -1  -2  14  285.83   44.23
   1   2 -13  143.35   25.10
  -1  -2  13  134.52   29.00
  -1  -2  12   35.77   15.29
   1   2 -12   59.50   16.27
   1   2 -11  694.51   53.30
  -1  -2  11  617.45   57.76
   1   2 -10  963.83   61.77
  -1  -2  10  977.65   69.84
   1   2  -9  129.05   20.12
   1   2  -8  190.54   24.00
   1   2  -7 1244.55   64.79
   1   2  -6 1004.96   54.82
   1   2  -5  373.75   30.62
  -1  -2   4    2.90    4.97
   1   2  -4    1.19    3.56
   1   2  -3  474.73   32.23
  -1  -2   3  517.77   32.32
   1   2  -2 2903.54   93.82
  -1  -2   2 3108.55   95.92
  -1  -2   2 2889.05   97.10
  -1  -2   1 7905.57  214.50
   1   2  -1 7684.63  197.46
  -1  -2   1 7746.33  194.38
   1   2  -1 7958.76  210.83
  -1  -2   1 8036.87  211.86
   1   2  -1 7586.31  212.51
  -1  -2   0  748.90   34.56
   1   2   0  735.97   33.76
  -1  -2   0  721.02   25.61
   1   2   0  691.18   24.84
  -1  -2   0  760.13   33.29
  -1  -2  -1  237.30   12.94
  -1  -2  -1  225.75   16.03
   1   2   1  227.93   15.30
   1   2   1  218.86   12.13
  -1  -2  -1  230.02   16.06
  -1  -2  -1  230.34   15.40
  -1  -2  -2 3385.09   96.90
   1   2   2 3511.94   96.32
  -1  -2  -2 3431.06  101.67
  -1  -2  -2 3394.11   96.59
   1   2   2 3526.53  102.08
  -1  -2  -3 1571.30   58.30
  -1  -2  -3 1569.04   53.99
   1   2   3 1627.01   57.42
  -1  -2  -3 1627.32   56.58
  -1  -2  -3 1449.92   46.72
  -1  -2  -4  215.22   18.72
  -1  -2  -4  257.44   19.41
   1   2   4  233.03   18.83
   1   2   4  227.02   18.81
  -1  -2  -4  232.35   10.51
   1   2   5 1463.77   60.70
   1   2   5 1481.17   60.78
   1   2   6 3847.97  126.53
   1   2   7  951.05   52.07
   1   2   8  120.42   18.45
   1   2   9   25.50    9.16
   1   2  10  467.37   41.81
   1   2  11  726.75   56.19
   1   2  12  422.09   44.29
   1   2  13    8.26    8.09
   1   2  14  475.69   51.87
   1   2  15  362.41   47.55
   1   2  16  292.90   45.02
   1   3 -14   57.24   17.64
   1   3 -13  256.19   36.51
  -1  -3  13  317.85   45.82
   1   3 -12  288.67   36.70
  -1  -3  12  291.68   42.07
   1   3 -11  177.58   28.07
   1   3 -10   40.25   13.28
   1   3  -9  744.11   54.58
   1   3  -8 1337.49   74.66
   1   3  -7  606.57   46.33
   1   3  -6    0.30    5.90
   1   3  -5  296.76   29.65
   1   3  -4 1246.94   63.13
   1   3  -3  355.19   29.90
  -1  -3   3  333.47   28.66
   1   3  -2   -1.65    3.89
  -1  -3   2    2.58    4.14
   1   3  -1 1655.72   70.19
   1   3  -1 1829.77   49.41
  -1  -3   1 1821.04   70.86
   1   3   0 2166.89   73.47
   1   3   0 1902.60   73.47
  -1  -3   0 1889.46   73.18
  -1  -3   0 2122.95   73.83
  -1  -3  -1 1208.69   48.56
  -1  -3  -1 1172.08   49.22
  -1  -3  -1 1158.68   37.00
   1   3   1 1115.73   48.69
  -1  -3  -1 1270.63   52.07
   1   3   2  299.00   20.03
  -1  -3  -2  349.67   21.34
  -1  -3  -2  314.80   16.91
  -1  -3  -2  345.27   24.50
  -1  -3  -2  332.16   20.87
   1   3   2  339.09   24.38
  -1  -3  -3 1213.59   54.09
   1   3   3 1192.87   52.56
  -1  -3  -3 1192.86   44.47
  -1  -3  -3 1224.60   53.05
  -1  -3  -3 1190.87   43.78
   1   3   3 1228.78   43.90
  -1  -3  -3 1196.39   44.71
  -1  -3  -4 1993.49   77.88
  -1  -3  -4 1983.38   61.08
   1   3   4 2071.62   60.19
   1   3   4 2117.91   78.60
  -1  -3  -5 1686.53   70.32
   1   3   5 1600.97   68.97
  -1  -3  -6  517.24   36.04
   1   3   6  543.23   37.20
   1   3   7  110.10   17.18
   1   3   8 1325.50   68.93
   1   3   9  936.89   59.16
   1   3  10  187.30   26.79
   1   3  11  133.83   23.43
   1   3  12  512.35   49.16
   1   3  13  795.17   65.84
   1   3  14  377.86   46.32
   1   3  15   10.61   10.75
   1   3  16  104.70   26.87
   1   4 -14  354.96   46.19
   1   4 -13  100.24   23.73
   1   4 -12    6.16    6.67
   1   4 -11  246.93   35.67
   1   4 -10  367.82   41.67
   1   4  -9  139.96   25.27
   1   4  -8   31.37   13.36
   1   4  -7  218.65   29.53
   1   4  -6 1068.96   66.37
   1   4  -5 1074.70   64.41
   1   4  -4  181.59   24.13
   1   4  -3  246.06   27.04
   1   4  -2 2654.42  103.02
  -1  -4   2 2546.54  100.72
   1   4  -1 3735.28  130.30
  -1  -4   1 3885.74  130.59
  -1  -4   0  449.35   31.85
   1   4   0  387.09   30.38
  -1  -4  -1  313.23   13.65
   1   4   1  280.40   24.14
  -1  -4  -1  332.69   25.68
  -1  -4  -2 1803.95   56.17
  -1  -4  -2 1942.41   70.82
  -1  -4  -2 1815.81   68.81
   1   4   2 1759.68   69.06
  -1  -4  -3  780.02   37.69
   1   4   3  738.82   44.00
  -1  -4  -3  831.07   38.21
   1   4   3  757.58   37.26
   1   4   4  177.92   14.87
  -1  -4  -4  165.63   14.69
  -1  -4  -4  162.70   14.39
  -1  -4  -4  186.08   21.25
   1   4   4  178.61   20.73
   1   4   5   16.32    7.14
  -1  -4  -5    6.21    4.84
   1   4   5   11.81    3.35
  -1  -4  -5   12.70    4.47
  -1  -4  -6  829.83   34.13
  -1  -4  -6  942.45   54.13
   1   4   6  892.86   29.44
   1   4   6  880.69   52.45
  -1  -4  -7 2066.32   90.91
  -1  -4  -7 2041.20   62.71
   1   4   7 2069.92   91.09
   1   4   8 1113.07   64.85
   1   4   9  204.97   27.14
   1   4  10  318.37   35.96
   1   4  11 1293.51   80.14
   1   4  12  539.14   51.67
   1   4  13   79.28   20.33
   1   4  14  135.80   28.53
   1   4  15  276.58   42.26
   1   4  16  227.19   40.15
   1   5 -12  220.20   36.54
   1   5 -11  347.53   44.33
   1   5 -10  -11.33    8.75
   1   5  -9  142.40   27.82
   1   5  -8  838.77   65.84
   1   5  -7 1285.31   80.78
   1   5  -6   57.02   17.04
   1   5  -5  173.12   26.74
   1   5  -4 1032.93   64.05
   1   5  -4  845.97   30.42
   1   5  -3  903.85   59.33
   1   5  -2   99.30   18.31
   1   5  -1  123.78   19.29
   1   5   0  692.82   45.73
   1   5   1 1999.04   86.11
  -1  -5  -1 2269.13   87.98
  -1  -5  -2  580.24   23.71
  -1  -5  -2  576.51   36.88
   1   5   2  482.71   34.84
  -1  -5  -3   11.35    6.10
  -1  -5  -3   14.61    4.32
   1   5   3   12.70    4.94
   1   5   4  642.46   44.00
  -1  -5  -4  634.02   44.70
  -1  -5  -4  545.36   32.65
   1   5   4  549.27   33.31
  -1  -5  -5 1482.80   75.77
   1   5   5 1641.49   59.56
  -1  -5  -5 1412.44   57.57
   1   5   5 1525.88   75.75
  -1  -5  -6 1371.39   73.00
   1   5   6 1426.37   50.20
   1   5   6 1407.75   73.56
  -1  -5  -6 1241.35   50.42
   1   5   7   40.26    5.32
  -1  -5  -7   40.02   11.84
  -1  -5  -7   42.24    6.80
   1   5   7   42.16   12.57
  -1  -5  -8  815.99   56.54
   1   5   8  758.34   54.70
  -1  -5  -8  677.91   28.66
   1   5   9  892.60   62.28
   1   5  10  293.51   35.86
   1   5  11   30.71   13.67
   1   5  12  122.63   26.52
   1   5  13  492.77   53.03
   1   5  14  645.64   63.61
   1   5  15   36.68   17.01
   1   5  16   29.36   16.37
   1   6 -11   56.71   18.91
   1   6 -10  292.58   42.52
   1   6  -9  242.31   37.59
   1   6  -8  307.12   41.14
   1   6  -7   65.61   19.34
   1   6  -6  921.90   69.89
   1   6  -5  483.77   48.17
   1   6  -4  154.73   26.29
   1   6  -3   17.92    8.78
   1   6  -2  577.51   48.27
   1   6  -1  748.92   53.44
   1   6   0 1002.75   61.36
   1   6   1    6.30    6.41
   1   6   2  393.41   34.62
  -1  -6  -2  495.84   20.29
   1   6   3  388.98   32.50
  -1  -6  -3  408.09   22.12
   1   6   4  869.71   47.97
  -1  -6  -4  886.63   58.60
  -1  -6  -5   35.89   11.53
   1   6   5   38.19    8.99
   1   6   5   38.73   12.49
  -1  -6  -6  351.32   36.86
   1   6   6  372.47   26.30
   1   6   6  400.92   38.93
  -1  -6  -7 1618.58   87.91
   1   6   7 1612.45   58.84
   1   6   7 1583.12   86.15
  -1  -6  -8 1278.69   79.09
   1   6   8 1414.34   82.12
  -1  -6  -9  132.81   24.81
   1   6   9  186.25   28.93
   1   6  10  208.35   31.61
   1   6  11  517.63   52.16
   1   6  12  439.09   49.46
   1   6  13  340.80   45.44
   1   6  14   20.39   10.75
   1   6  15  227.25   40.48
   1   7  -9   18.55   14.42
   1   7  -8  423.54   51.80
   1   7  -7  709.92   65.68
   1   7  -6  227.08   35.41
   1   7  -5   20.71   11.51
   1   7  -4  405.08   45.63
   1   7  -3  678.85   57.94
   1   7  -2  362.00   40.44
   1   7  -1  102.03   20.20
   1   7   0  253.15   31.70
   1   7   1 2043.55   98.52
   1   7   2  609.41   46.83
   1   7   3   72.26   15.41
  -1  -7  -4  330.08   36.95
   1   7   4  299.75   29.65
  -1  -7  -5 1215.83   75.44
   1   7   5 1108.46   58.91
   1   7   6  914.32   49.64
  -1  -7  -6  956.62   67.64
   1   7   6  893.29   65.00
   1   7   7  295.56   24.32
  -1  -7  -7  318.75   38.56
   1   7   7  358.45   39.87
   1   7   8  149.99   26.32
  -1  -7  -8  110.67   23.23
   1   7   9  638.37   57.37
  -1  -7  -9  616.61   57.05
   1   7  10  286.67   39.13
   1   7  11  164.55   30.35
   1   7  12   14.38    9.76
   1   7  13  454.67   54.71
   1   7  14  543.64   61.67
   1   8  -7   13.47   12.75
   1   8  -6  141.32   29.54
   1   8  -5  351.61   46.12
   1   8  -4  327.89   43.61
   1   8  -3  175.84   31.04
   1   8  -2   56.34   16.21
   1   8  -1  614.39   55.70
   1   8   0  932.38   67.96
   1   8   1   22.00   10.95
   1   8   2   96.16   19.93
   1   8   3  261.69   31.27
  -1  -8  -4  691.52   58.90
   1   8   4  623.19   48.47
   1   8   5   81.31   15.92
  -1  -8  -5   84.64   20.59
  -1  -8  -6   -0.88    5.61
   1   8   6   -0.35    4.23
  -1  -8  -7  369.05   44.04
   1   8   8  891.77   71.10
  -1  -8  -8  928.14   72.96
  -1  -8  -9  223.86   36.31
   1   8   9  222.13   34.96
   1   8  10   -5.51    7.45
  -1  -8 -10   25.18   14.22
   1   8  11  113.62   27.20
   1   8  12  503.66   58.07
   1   8  13  153.95   33.29
   1   9  -5    1.81    6.79
   1   9  -4  169.06   33.54
   1   9  -3  462.30   54.05
   1   9  -2  557.18   58.23
   1   9  -1  148.51   28.93
   1   9   0   59.80   18.29
   1   9   1  674.68   59.28
   1   9   2  450.19   46.41
   1   9   3  134.89   24.38
   1   9   4   20.33   10.01
  -1  -9  -4   -0.19    8.42
   1   9   5  267.63   31.76
  -1  -9  -5  263.00   38.57
  -1  -9  -6  833.28   71.15
  -1  -9  -7  569.05   59.04
  -1  -9  -8  -18.00   11.76
  -1  -9  -9  369.17   48.37
   1   9   9  322.00   44.84
  -1  -9 -10  517.35   59.38
   1   9  10  420.90   52.45
   1   9  11  530.21   60.85
   1   9  12   14.33   11.33
   1  10  -2   19.15   11.01
   1  10  -1  321.44   44.71
   1  10   0  384.36   48.78
   1  10   1   90.37   23.15
   1  10   2    3.17    7.35
  -1 -10  -3  221.02   37.35
   1  10   3  167.45   29.34
   1  10   4  340.47   40.56
  -1 -10  -4  368.71   48.76
  -1 -10  -5  333.29   46.89
  -1 -10  -6   24.80   13.25
  -1 -10  -7   74.55   22.19
  -1 -10  -8  443.51   55.99
  -1 -10  -9  351.19   50.12
   1  11   0   47.54   18.72
   1  11   1   60.43   20.44
   1  11   2  331.00   46.13
   1  11   3  214.68   35.25
   2 -11  -3  166.93   33.79
  -2  11   3  119.60   28.86
   2 -11  -2  143.61   31.45
   2 -11  -1  228.30   39.25
   2 -11   0  117.51   28.32
   2 -10  -6   47.29   18.69
   2 -10  -5   12.52    9.89
  -2  10   4  431.15   50.44
   2 -10  -4  443.13   52.35
   2 -10  -3  357.72   46.84
  -2  10   3  401.83   49.02
   2 -10  -2  144.00   28.81
  -2  10   2   78.94   21.59
   2 -10  -1    5.64   10.09
  -2  10   1   17.19   14.02
   2 -10   0  182.39   32.69
  -2  10   0  136.29   30.06
   2 -10   1  235.44   37.89
  -2  10  -1  259.88   41.83
   2  -9  -9  319.60   42.34
   2  -9  -8   89.04   21.89
   2  -9  -7    1.75    6.44
   2  -9  -6  255.78   38.45
  -2   9   6  194.44   30.55
  -2   9   5  639.80   56.12
   2  -9  -5  601.14   58.88
   2  -9  -4  119.65   26.00
  -2   9   4  107.86   23.37
  -2   9   3   25.73   11.39
   2  -9  -3   15.63   10.21
  -2   9   2   71.86   19.73
   2  -9  -2  108.66   23.68
  -2   9   1  252.92   37.57
   2  -9  -1  261.02   36.17
   2  -9   0  245.46   35.74
  -2   9   0  264.13   38.59
  -2   9  -1   25.04   13.30
  -2   9  -2  149.48   30.69
  -2   9  -3  505.82   57.37
  -2   9  -4  396.37   51.51
  -2   8  11  451.69   56.99
  -2   8  10  130.70   29.60
  -2   8   9  -19.80   11.94
  -2   8   8  168.85   31.80
   2  -8  -7  333.94   40.01
  -2   8   7  272.73   33.21
   2  -8  -6  427.12   47.25
   2  -8  -6  398.73   41.48
  -2   8   6  333.49   37.93
   2  -8  -5   11.68    9.02
  -2   8   5   15.46    8.83
   2  -8  -5    4.77    8.11
   2  -8  -4  280.65   36.04
   2  -8  -4  286.50   32.32
  -2   8   4  291.84   36.02
   2  -8  -3 1004.30   70.72
   2  -8  -3 1009.22   61.92
  -2   8   3 1069.49   73.24
   2  -8  -2 1066.16   71.63
  -2   8   2 1033.14   72.69
   2  -8  -2 1020.95   60.09
   2  -8  -1   67.10   16.92
  -2   8   1   80.29   19.49
   2  -8   0   61.93   16.04
  -2   8   0   72.86   21.15
  -2   8  -1  798.29   65.57
  -2   8  -2  631.70   59.57
  -2   8  -3   51.83   17.65
  -2   8  -4  104.92   23.97
  -2   8  -5  226.73   37.10
  -2   8  -6  217.05   37.50
  -2   8  -7  183.18   34.91
  -2   7  12  129.51   30.18
  -2   7  11   -2.95    5.64
  -2   7  10  288.79   41.80
  -2   7   9  522.63   54.76
  -2   7   8  406.69   47.55
  -2   7   7  122.55   24.58
  -2   7   6   93.19   21.23
   2  -7  -6   66.24   16.72
   2  -7  -5  638.74   53.36
   2  -7  -5  706.91   53.07
   2  -7  -4  311.64   35.73
   2  -7  -4  337.69   34.57
   2  -7  -3  132.04   20.84
   2  -7  -3  112.60   21.07
   2  -7  -2   66.61   14.35
  -2   7   2   65.81   17.00
   2  -7  -2   86.26   17.76
  -2   7   1  297.58   35.79
   2  -7  -1  254.19   30.83
   2  -7  -1  302.75   29.09
   2  -7   0  552.09   46.14
   2  -7   0  576.95   40.43
  -2   7   0  559.61   50.75
   2  -7   1  176.31   21.33
  -2   7  -1  202.17   30.29
  -2   7  -2   76.82   19.33
   2  -7   2   90.48   14.69
  -2   7  -3  430.48   46.60
  -2   7  -4  819.52   66.33
  -2   7  -5  319.02   41.37
  -2   7  -6   12.86   11.60
  -2   7  -7  186.84   34.07
  -2   7  -8  209.48   36.77
  -2   7  -9  105.70   27.69
  -2   6  13   -8.03   12.16
  -2   6  12  156.30   31.95
  -2   6  11  290.71   41.83
  -2   6  10  343.05   43.94
  -2   6   9  236.81   35.02
  -2   6   8   88.10   20.69
  -2   6   7  482.22   47.39
  -2   6   6  987.87   67.66
   2  -6  -5  165.84   24.40
  -2   6   5  220.30   29.63
   2  -6  -5  163.70   24.13
   2  -6  -4  288.88   31.77
   2  -6  -4  236.85   28.08
   2  -6  -3 1448.42   76.31
   2  -6  -3 1474.38   74.44
   2  -6  -2 1817.82   85.61
   2  -6  -2 1786.76   82.01
   2  -6  -1  235.22   25.09
   2  -6  -1  230.37   26.57
   2  -6   0   32.83   10.15
   2  -6   0   20.14    7.75
  -2   6   0   21.35   10.47
   2  -6   1  456.04   34.26
  -2   6  -1  433.07   41.72
   2  -6   2  607.51   40.00
  -2   6  -2  715.40   55.26
  -2   6  -3  519.66   47.99
   2  -6   3  522.16   35.94
  -2   6  -4   -6.73    6.95
   2  -6   4    9.65    6.69
  -2   6  -5  273.86   35.89
   2  -6   5  267.47   26.25
  -2   6  -6  892.53   68.29
  -2   6  -7  676.56   60.25
  -2   6  -8   72.22   20.04
  -2   6  -9  258.60   38.37
  -2   6 -10  719.36   67.18
  -2   6 -11  377.03   50.70
  -2   5  14   41.68   18.34
  -2   5  13  238.25   39.87
  -2   5  12  465.99   53.31
  -2   5  11   20.43   11.21
  -2   5  10   71.81   19.97
  -2   5   9 1051.06   73.53
  -2   5   8  919.67   66.49
  -2   5   7  179.29   26.88
  -2   5   6    0.78    4.56
  -2   5   5  929.34   60.38
   2  -5  -4  623.33   45.23
   2  -5  -4  734.09   49.55
  -2   5   4  638.64   47.61
   2  -5  -3  632.37   43.91
   2  -5  -3  601.03   42.52
   2  -5  -2   44.67   10.59
   2  -5  -2   45.18   12.02
   2  -5  -1  458.55   34.87
   2  -5  -1  526.73   37.71
   2  -5   0 1014.51   53.75
   2  -5   0  946.78   52.27
   2  -5   1  631.91   40.20
  -2   5  -2   99.89   19.14
   2  -5   2  106.24   15.27
   2  -5   3  476.40   33.86
  -2   5  -3  463.40   41.98
  -2   5  -4 1544.84   83.44
   2  -5   4 1428.53   65.47
  -2   5  -5 1245.23   75.03
   2  -5   5 1158.52   58.33
  -2   5  -6   74.92   18.13
  -2   5  -7  179.36   28.39
  -2   5  -8  144.89   25.81
  -2   5  -9  233.45   34.51
  -2   5 -10  112.61   24.47
  -2   5 -11   -3.84    8.09
  -2   5 -12  271.15   40.75
  -2   5 -13  212.01   36.65
  -2   4  14  287.26   44.32
  -2   4  13  150.90   30.99
  -2   4  12  -15.29   10.38
  -2   4  11  308.04   40.10
  -2   4  10  963.68   70.39
  -2   4   9  599.83   52.16
  -2   4   8  132.24   23.19
  -2   4   7  356.66   36.30
  -2   4   6  986.66   61.16
  -2   4   5  588.63   44.50
  -2   4   4    5.21    4.00
  -2   4   3  531.88   38.59
   2  -4  -3  490.30   37.75
   2  -4  -3  488.90   34.92
   2  -4  -2 2470.67   91.59
   2  -4  -2 2357.42   94.54
   2  -4  -1 1125.16   56.52
   2  -4  -1 1057.39   51.60
   2  -4   0   39.02    9.43
   2  -4   0   45.79    9.26
   2  -4   1   -1.75    2.96
   2  -4   2 1152.55   55.61
   2  -4   3 1706.52   71.54
  -2   4  -4  131.53   20.92
   2  -4   4  130.48   17.17
  -2   4  -5   86.95   17.20
   2  -4   5  102.55   15.20
  -2   4  -6 1752.42   88.19
   2  -4   6 1633.97   73.87
  -2   4  -7  912.03   61.83
  -2   4  -8  108.87   21.52
  -2   4  -9   38.43   14.29
  -2   4 -10  646.76   55.50
  -2   4 -11  734.35   61.43
  -2   4 -12  364.65   43.64
  -2   4 -13   13.88   10.74
  -2   3  14   26.85   14.80
  -2   3  13  210.63   35.61
  -2   3  12  484.41   51.90
  -2   3  11  208.48   31.88
  -2   3  10    8.18    6.48
  -2   3   9  689.01   54.10
  -2   3   8  725.13   32.38
  -2   3   8  720.60   53.40
  -2   3   7  466.28   39.35
  -2   3   7  420.00   22.98
  -2   3   6   31.10    8.91
  -2   3   5  326.61   29.88
  -2   3   4 1066.32   55.78
  -2   3   3 2616.02   97.29
  -2   3   2  461.38   29.35
   2  -3  -2  379.41   30.91
  -2   3   2  437.24   30.78
   2  -3  -1 1051.59   45.93
   2  -3  -1 1047.78   53.09
   2  -3   0 2252.70   74.84
   2  -3   0 2111.82   83.54
   2  -3   1 1089.81   52.57
   2  -3   2  388.46   28.91
   2  -3   3  540.91   34.60
   2  -3   4 1096.03   53.71
   2  -3   5 1804.03   75.88
  -2   3  -5 1932.87   85.81
   2  -3   6  474.13   35.07
  -2   3  -6  550.62   42.21
  -2   3  -7   78.38   16.63
  -2   3  -8   12.09    8.52
  -2   3  -8    6.28    4.57
  -2   3  -9  594.63   42.71
  -2   3  -9  616.31   48.67
  -2   3 -10  869.98   60.06
  -2   3 -10  745.72   49.81
  -2   3 -11   30.52   10.52
  -2   3 -11   12.03    7.91
  -2   3 -12  302.59   37.27
  -2   3 -13  579.15   53.69
   2  -3  14  269.08   42.37
  -2   2  15  310.66   47.18
  -2   2  14  350.57   47.55
  -2   2  13  114.32   24.90
  -2   2  12   52.22   17.06
  -2   2  11  145.91   26.40
  -2   2  10  940.31   66.51
  -2   2   9  671.17   52.45
  -2   2   8  122.87   20.60
  -2   2   8  102.50   12.68
  -2   2   7   55.29    8.95
  -2   2   7   64.16   13.95
  -2   2   6 1061.76   57.26
  -2   2   6  981.07   41.95
  -2   2   5 1450.67   66.31
  -2   2   4 1663.30   69.04
   2  -2  -3  348.96   25.14
  -2   2   3  347.19   25.92
  -2   2   2 2961.60   94.14
   2  -2  -2 2949.57   95.43
   2  -2  -2 2824.10  103.47
  -2   2   2 2934.09   96.27
  -2   2   1 2022.47   71.26
   2  -2  -1 2045.63   79.86
   2  -2  -1 2106.36   72.46
  -2   2   1 2051.17   67.86
   2  -2   0  572.46   25.72
   2  -2   0  568.49   30.56
   2  -2   0  547.40   34.26
   2  -2   1   80.57    7.87
   2  -2   1   64.07   11.26
   2  -2   2  665.27   37.72
   2  -2   3 1927.70   75.14
   2  -2   4  927.15   47.17
  -2   2  -5  112.91   15.66
   2  -2   5   85.69   13.52
  -2   2  -6 1101.62   55.31
   2  -2   6 1100.08   55.65
  -2   2  -6 1058.22   57.32
  -2   2  -7 1050.48   55.89
  -2   2  -7 1153.16   60.68
  -2   2  -8  670.32   46.06
  -2   2  -8  654.18   43.25
  -2   2  -9  144.24   20.00
  -2   2  -9  129.15   20.09
  -2   2 -10  313.27   32.60
  -2   2 -10  303.97   30.56
  -2   2 -11  816.19   55.44
  -2   2 -11  691.71   49.62
  -2   2 -12  556.72   45.40
   2  -2  12  633.79   58.04
  -2   2 -12  619.78   49.65
   2  -2  13   55.82   18.42
  -2   2 -13   84.14   17.98
   2  -2  14  117.38   27.41
   2  -2  15   96.89   26.26
  -2   1  14   -1.78    8.39
  -2   1  13   57.19   19.20
  -2   1  12  439.49   48.97
  -2   1  11  770.40   62.21
  -2   1  10  128.33   23.41
  -2   1   9  120.07   21.75
  -2   1   8  576.84   45.58
  -2   1   8  661.19   38.44
  -2   1   7 1032.52   59.27
  -2   1   7 1037.66   48.23
  -2   1   6   10.75    6.11
  -2   1   6   14.00    5.17
  -2   1   5   32.19    8.66
  -2   1   5   34.40    7.30
  -2   1   4 1185.53   52.92
   2  -1  -3 3730.90  112.36
  -2   1   3 3565.25  111.39
   2  -1  -2   97.92   10.67
  -2   1   2  108.06   11.39
   2  -1  -2   98.48   13.96
   2  -1  -1  163.98   17.89
  -2   1   1  162.39   13.13
   2  -1  -1  177.47   12.86
  -2   1   0 1745.32   51.78
   2  -1   0 1801.81   68.85
   2  -1   0 1713.97   55.11
   2  -1   1  498.94   22.64
  -2   1  -1  474.38   30.63
   2  -1   1  497.53   30.82
   2  -1   2  908.51   44.28
   2  -1   3  253.74   21.79
  -2   1  -3  268.97   22.70
  -2   1  -4  786.43   42.64
   2  -1   4  809.16   42.59
   2  -1   5 3405.18  113.81
  -2   1  -5 3306.76  113.61
   2  -1   6 1093.48   54.23
  -2   1  -6 1019.17   53.06
  -2   1  -7   49.41   10.84
  -2   1  -7   21.19    6.74
  -2   1  -8   91.97   14.82
  -2   1  -8  107.80   16.76
  -2   1  -9 1153.60   63.48
  -2   1  -9 1300.74   62.59
  -2   1 -10 1039.94   61.08
  -2   1 -10 1054.97   57.53
   2  -1  10 1109.39   68.91
   2  -1  11  111.98   22.11
  -2   1 -11   70.15   16.06
  -2   1 -11  105.55   17.46
  -2   1 -12  206.36   25.51
   2  -1  12  194.52   31.18
  -2   1 -12  175.93   25.22
  -2   1 -13  524.93   45.89
   2  -1  13  432.59   48.80
  -2   1 -14  399.44   41.17
   2  -1  14  345.69   45.45
   2  -1  15   87.34   23.87
  -2   0  14   59.14   19.89
  -2   0  13  182.53   33.04
  -2   0  12  143.63   27.95
  -2   0  11   22.01   11.68
  -2   0  10  868.54   63.93
  -2   0   9 1111.73   69.60
  -2   0   8  480.75   40.92
  -2   0   8  387.51   32.15
  -2   0   7   14.46    5.83
  -2   0   7    5.38    4.85
  -2   0   6  914.50   52.36
  -2   0   6  922.93   46.93
  -2   0   5 1350.56   63.40
  -2   0   5 1561.36   62.34
  -2   0   4 2185.15   80.62
  -2   0   4 2251.81   78.83
  -2   0   3   70.83   10.07
  -2   0   2  647.74   29.25
   2   0  -2  662.51   37.85
  -2   0   1 1689.19   51.69
   2   0  -1 1769.32   67.88
   2   0   0 2336.21   78.74
  -2   0   0 2245.10   80.32
   2   0   0 2187.44   79.31
   2   0   1  321.46   22.82
  -2   0  -1  337.39   24.30
   2   0   1  328.85   23.57
  -2   0  -2  220.21   19.10
   2   0   2  175.06   16.59
  -2   0  -2  199.43   18.43
   2   0   2  191.32   17.77
   2   0   3 2803.61   76.89
  -2   0  -3 3077.58   98.93
   2   0   3 2959.41   96.96
   2   0   4 4074.68  113.93
  -2   0  -4 4344.51  132.80
   2   0   4 4257.38  130.78
   2   0   5  647.52   37.61
  -2   0  -5  615.43   37.70
   2   0   5  599.25   33.65
   2   0   6  342.67   26.96
   2   0   7 1232.49   60.83
  -2   0  -7 1259.14   54.60
   2   0   8 1508.24   72.89
  -2   0  -8 1489.72   62.27
  -2   0  -9  169.35   18.27
   2   0   9  225.98   26.86
   2   0  10    1.19    5.31
  -2   0 -10   -4.60    4.09
  -2   0 -11  465.25   34.03
   2   0  11  523.86   46.70
  -2   0 -12  791.44   47.75
   2   0  12  928.69   67.04
   2   0  13  342.58   41.84
   2   0  14   19.08   12.57
   2   0  15   60.40   20.23
   2   0  16  367.03   50.59
  -2  -1  14  194.78   36.68
  -2  -1  13   55.18   20.30
  -2  -1  12  425.78   49.01
  -2  -1  11  815.30   66.71
  -2  -1  10  484.06   48.00
  -2  -1   9   28.73   12.37
  -2  -1   8  403.09   38.83
  -2  -1   8  388.37   34.91
  -2  -1   7  786.81   48.09
  -2  -1   7  647.51   47.95
  -2  -1   6  188.12   21.48
  -2  -1   6  219.19   24.98
  -2  -1   5   58.14   11.87
  -2  -1   5   51.78   11.09
  -2  -1   4  202.01   20.17
  -2  -1   3 2212.17   80.70
   2   1  -2 2324.45   82.73
   2   1  -1  453.95   25.89
   2   1  -1  408.94   26.71
  -2  -1   0  420.46   26.75
  -2  -1   0  468.74   28.04
   2   1   0  410.83   26.04
   2   1   0  449.13   25.75
  -2  -1  -1 1664.37   62.25
   2   1   1 1678.13   61.46
  -2  -1  -1 1678.81   63.01
   2   1   1 1673.11   61.97
  -2  -1  -2 2697.63   89.22
  -2  -1  -2 2764.18   90.03
   2   1   2 2722.32   88.61
   2   1   2 2553.32   72.27
  -2  -1  -2 2754.20   72.01
  -2  -1  -3  562.26   25.29
  -2  -1  -3  602.12   33.72
   2   1   3  570.58   24.36
  -2  -1  -3  565.07   32.95
   2   1   3  572.39   32.20
  -2  -1  -3  600.71   24.94
   2   1   4  689.36   31.17
   2   1   4  661.40   30.11
   2   1   4  648.73   36.06
   2   1   5 2525.40   82.41
   2   1   5 2503.11   84.69
   2   1   5 2620.80   91.68
   2   1   6  501.84   32.04
   2   1   6  488.33   29.89
   2   1   7  254.61   24.06
   2   1   8   23.91    8.20
  -2  -1  -8   48.55    7.98
   2   1   9  589.43   43.92
  -2  -1  -9  617.96   31.95
   2   1  10  738.80   53.16
  -2  -1 -10  846.96   39.71
   2   1  11  683.05   53.00
  -2  -1 -11  617.87   34.94
   2   1  12    1.31    4.40
   2   1  13  194.05   31.41
   2   1  14  673.13   61.60
   2   1  15  319.06   43.76
   2   1  16   -2.64    6.20
  -2  -2  13  273.73   41.67
  -2  -2  12  201.39   34.80
  -2  -2  11    8.86    8.22
   2   2 -11   19.76    6.42
   2   2 -10  328.94   37.53
  -2  -2  10  329.82   40.06
  -2  -2   9  643.06   53.89
   2   2  -9  539.41   47.23
   2   2  -8  569.27   46.26
  -2  -2   8  521.23   46.28
  -2  -2   7  110.11   19.18
   2   2  -7  135.87   21.32
  -2  -2   6  243.89   26.75
   2   2  -6  218.53   26.08
   2   2  -5  856.40   52.64
  -2  -2   5  964.76   53.77
   2   2  -4 1385.29   67.30
  -2  -2   4 1391.91   64.84
   2   2  -3  363.39   21.69
   2   2  -3  395.34   31.01
  -2  -2   3  357.68   28.94
   2   2  -2  158.24   13.28
   2   2  -2  150.66   15.58
  -2  -2   2  141.39   17.00
   2   2  -2  115.27   15.93
   2   2  -1 1164.42   47.94
   2   2  -1 1134.78   44.02
   2   2  -1 1100.28   52.74
  -2  -2   1 1167.24   52.42
  -2  -2   0 1392.23   52.71
  -2  -2   0 1458.80   55.16
   2   2   0 1352.79   52.88
  -2  -2  -1  668.08   33.75
  -2  -2  -1  697.92   36.02
  -2  -2  -1  715.01   34.69
   2   2   1  683.14   33.45
  -2  -2  -1  665.58   29.29
  -2  -2  -2  787.97   38.77
  -2  -2  -2  822.81   38.51
  -2  -2  -2  880.59   33.95
   2   2   2  788.99   37.24
  -2  -2  -2  834.41   39.16
  -2  -2  -3 1134.35   46.45
  -2  -2  -3 1050.99   41.58
  -2  -2  -3 1076.92   47.98
   2   2   3 1077.24   46.91
   2   2   3 1120.72   43.24
  -2  -2  -3 1185.16   45.42
  -2  -2  -4 3294.93  103.43
  -2  -2  -4 3286.31   99.61
  -2  -2  -4 3261.87   97.06
   2   2   4 3222.78  100.76
   2   2   4 3245.37  105.48
  -2  -2  -5 2143.49   76.93
   2   2   5 2161.65   76.82
  -2  -2  -5 2123.85   75.66
   2   2   6    8.77    5.03
   2   2   7  592.71   38.39
   2   2   8 1687.76   75.57
  -2  -2  -8 1569.66   51.14
  -2  -2  -9  641.48   26.38
   2   2   9  655.76   46.13
  -2  -2 -10  164.44   11.85
   2   2  10  176.33   24.40
   2   2  11  232.56   30.18
   2   2  12  932.02   66.45
   2   2  13  716.83   60.36
   2   2  14   78.11   20.72
   2   2  15   67.08   21.17
   2   2  16  307.21   45.36
  -2  -3  13   -0.51    7.73
   2   3 -13   19.14   10.87
  -2  -3  12  172.23   33.33
   2   3 -12  157.03   29.15
   2   3 -11  422.07   46.23
  -2  -3  11  419.18   49.49
   2   3 -10  350.29   40.76
  -2  -3  10  310.82   40.45
   2   3  -9   97.89   20.95
   2   3  -8   25.15   10.32
   2   3  -7  816.84   57.60
   2   3  -6  804.49   54.59
  -2  -3   6  694.02   51.64
   2   3  -5  319.70   17.22
  -2  -3   5  331.25   32.70
   2   3  -5  369.56   34.66
  -2  -3   4   94.23   16.59
   2   3  -4  111.72    9.25
   2   3  -4   96.46   16.77
  -2  -3   3 2827.77  103.98
   2   3  -3 2665.98   88.80
   2   3  -2 4281.28  138.96
   2   3  -2 3945.23  120.43
  -2  -3   2 4049.45  136.11
   2   3  -1  671.92   40.52
   2   3  -1  597.77   29.81
  -2  -3   1  577.14   37.51
  -2  -3   0   13.66    4.47
  -2  -3   0   20.26    5.06
   2   3   0   25.19    5.87
   2   3   0   17.43    6.50
  -2  -3   0   19.78    6.41
   2   3   1 2169.86   79.59
  -2  -3  -1 2082.23   71.20
  -2  -3  -1 2109.21   72.67
   2   3   1 2075.81   68.99
  -2  -3  -1 2189.08   79.76
  -2  -3  -1 2120.74   74.88
  -2  -3  -2 1073.15   45.60
   2   3   2 1060.41   43.77
   2   3   2 1142.80   49.43
  -2  -3  -2 1130.56   47.90
  -2  -3  -3  461.76   28.27
  -2  -3  -3  423.51   26.85
  -2  -3  -3  434.95   27.12
   2   3   3  451.40   26.55
   2   3   3  426.70   27.24
  -2  -3  -4  272.64   23.68
  -2  -3  -4  268.09   19.38
  -2  -3  -4  288.17   21.94
   2   3   4  258.38   21.72
  -2  -3  -5  639.16   38.49
  -2  -3  -5  596.80   29.01
   2   3   5  715.26   39.26
  -2  -3  -6 1074.62   53.46
  -2  -3  -6  969.84   36.64
   2   3   6  921.24   49.80
  -2  -3  -7 1417.63   44.01
   2   3   7 1298.57   64.80
   2   3   8  180.90   22.40
   2   3   9  534.99   42.16
   2   3  10 1192.73   69.94
   2   3  11  820.99   59.33
   2   3  12  234.76   32.62
   2   3  13   87.62   21.17
   2   3  14  379.52   45.69
   2   3  15  295.45   42.60
   2   3  16   15.27    7.87
   2   4 -13   86.70   23.06
  -2  -4  12  241.47   40.86
   2   4 -12  272.66   39.48
   2   4 -11   65.08   18.90
   2   4 -10   38.57   15.43
   2   4  -9  416.48   45.56
   2   4  -8 1170.83   76.49
   2   4  -7  291.77   34.99
   2   4  -6   27.87   10.62
   2   4  -5  489.46   42.60
  -2  -4   5  485.63   43.88
   2   4  -4  667.19   48.51
   2   4  -4  616.13   34.22
  -2  -4   4  626.73   48.08
   2   4  -3  341.71   33.27
  -2  -4   3  396.50   35.85
   2   4  -3  419.98   24.72
   2   4  -2  115.39   11.27
   2   4  -2  105.46   17.28
  -2  -4   2  121.52   18.49
  -2  -4   1   73.05    8.53
   2   4  -1   77.24    8.48
   2   4  -1   61.75   12.54
  -2  -4   1   83.71   14.85
  -2  -4   0 1052.54   43.17
   2   4   0 1084.76   56.07
   2   4   0 1103.24   39.86
  -2  -4   0 1167.07   58.03
   2   4   1  756.50   43.76
  -2  -4  -1  757.56   34.08
  -2  -4  -1  807.48   45.63
   2   4   1  825.27   32.96
  -2  -4  -2   20.49    5.79
  -2  -4  -2    8.23    4.57
   2   4   2   18.08    5.62
   2   4   3   47.72    9.38
  -2  -4  -3   30.45    6.98
  -2  -4  -3   50.78   10.25
  -2  -4  -4 2641.34   98.72
   2   4   4 2466.40   83.50
   2   4   4 2611.78   94.50
  -2  -4  -5 2792.15  105.50
  -2  -4  -5 2670.12   88.03
   2   4   5 2699.80  101.71
   2   4   6  267.92   26.67
  -2  -4  -6  251.43   26.43
  -2  -4  -6  277.28   18.06
  -2  -4  -7  269.17   28.36
   2   4   7  258.74   27.15
  -2  -4  -7  251.43   14.27
   2   4   8 1174.20   65.80
   2   4   9  493.81   42.23
   2   4  10   66.92   16.23
   2   4  11  -13.69    8.45
   2   4  12  407.92   43.90
   2   4  13  712.58   61.83
   2   4  14  117.88   25.84
   2   4  15   13.72    9.52
   2   4  16  240.51   40.07
   2   5 -11  191.31   34.39
   2   5 -10  336.88   44.60
   2   5  -9  581.08   56.94
   2   5  -8   22.66   11.77
   2   5  -7  446.03   46.60
   2   5  -6  569.11   50.86
   2   5  -5  407.02   41.93
   2   5  -4   43.33    7.64
   2   5  -4   43.50   13.02
  -2  -5   4   59.87   16.42
   2   5  -3  652.09   49.69
   2   5  -3  619.38   26.35
  -2  -5   3  575.36   47.84
   2   5  -2 1609.66   82.94
   2   5  -2 1730.65   50.89
   2   5  -1 1218.07   67.13
   2   5  -1 1284.32   37.73
  -2  -5   1 1289.41   69.38
  -2  -5   1 1266.29   44.85
  -2  -5   0   60.00   13.26
  -2  -5   0   55.91    8.07
   2   5   0   55.97   12.66
   2   5   1  339.51   30.12
  -2  -5  -1  391.34   32.74
  -2  -5  -1  373.13   19.54
   2   5   2  730.65   44.83
  -2  -5  -2  764.88   33.75
  -2  -5  -2  736.29   45.19
   2   5   3 1481.02   64.52
  -2  -5  -3 1418.13   55.94
  -2  -5  -3 1479.51   67.04
  -2  -5  -4  478.07   33.95
   2   5   4  498.34   32.09
  -2  -5  -5  164.59   22.66
  -2  -5  -5  118.16   15.95
   2   5   5  168.89   16.38
   2   5   5  154.14   21.07
  -2  -5  -6 1226.83   68.19
  -2  -5  -6 1173.32   49.20
   2   5   6 1237.15   66.82
  -2  -5  -6 1207.79   54.35
  -2  -5  -7 1946.32   92.27
   2   5   7 2126.38   93.60
  -2  -5  -7 1917.62   73.22
  -2  -5  -7 1889.42   63.78
  -2  -5  -8  243.51   29.90
   2   5   8  238.99   29.35
   2   5   9  263.82   32.58
   2   5  10  725.48   56.64
   2   5  11  960.96   68.66
   2   5  12  840.42   66.52
   2   5  13    0.68    7.35
   2   5  14  152.45   31.13
   2   5  15  417.13   52.19
   2   5  16  118.08   29.59
   2   6 -10   -0.26    7.46
   2   6  -9  177.72   33.22
   2   6  -8  638.43   60.66
   2   6  -7  167.46   29.85
   2   6  -6   27.42   11.40
   2   6  -5  114.20   23.80
   2   6  -4  234.89   32.53
   2   6  -3  695.87   55.58
   2   6  -2  840.59   59.70
  -2  -6   2  823.02   60.13
  -2  -6   1   76.70   16.71
  -2  -6   1   63.12    7.35
   2   6  -1   44.91   13.10
   2   6   0 1249.39   70.89
  -2  -6   0 1347.17   73.85
   2   6   1  925.05   56.31
  -2  -6  -1  803.01   54.46
  -2  -6  -2  143.47   11.62
   2   6   2  150.09   20.50
  -2  -6  -2  154.95   21.92
   2   6   3   91.91   15.32
  -2  -6  -3  100.24   11.46
  -2  -6  -3   88.54   15.38
   2   6   4 1008.37   51.65
  -2  -6  -4  895.98   52.48
  -2  -6  -5 1206.22   71.78
   2   6   5 1210.96   56.34
  -2  -6  -5 1198.03   60.18
  -2  -6  -6  749.55   55.60
   2   6   6  724.98   38.53
  -2  -6  -6  692.40   41.78
   2   6   6  739.74   53.51
  -2  -6  -7    6.86    4.65
   2   6   7   -0.03    4.37
  -2  -6  -7    1.96    4.11
  -2  -6  -8  167.52   26.92
  -2  -6  -8  140.52   16.18
   2   6   8  130.13   22.98
  -2  -6  -9  206.05   30.35
   2   6   9  158.37   26.40
  -2  -6  -9  149.27   15.95
   2   6  10  434.47   45.77
   2   6  11  135.03   26.25
   2   6  12  157.23   29.47
   2   6  13  719.49   65.52
   2   6  14  341.90   47.30
   2   6  15   85.63   23.48
   2   7  -8   15.53   12.69
   2   7  -7   75.12   22.48
   2   7  -6  284.61   40.02
   2   7  -5  470.46   50.65
   2   7  -4   94.90   22.30
   2   7  -3   35.18   14.25
   2   7  -2  741.18   59.84
   2   7  -1 1171.26   74.72
   2   7   0  169.94   26.34
   2   7   1   -3.04    5.72
  -2  -7  -1    4.93    7.38
   2   7   2  326.92   34.23
  -2  -7  -2  336.09   35.09
   2   7   3  888.82   56.85
  -2  -7  -3  907.82   58.20
   2   7   4  336.88   30.82
  -2  -7  -4  275.02   30.12
  -2  -7  -5   59.98   13.29
  -2  -7  -5   90.25   19.95
   2   7   5   72.98   13.72
  -2  -7  -6  419.88   34.73
  -2  -7  -6  501.19   48.27
   2   7   6  473.97   33.64
  -2  -7  -7 1351.91   84.17
  -2  -7  -7 1234.65   63.34
   2   7   7 1415.50   59.76
   2   7   7 1482.51   85.08
  -2  -7  -8  293.53   38.45
  -2  -7  -8  309.16   27.19
   2   7   8  397.52   42.38
  -2  -7  -9   -1.03    5.28
   2   7   9   -0.12    7.19
  -2  -7 -10  320.05   41.81
   2   7  10  407.23   45.73
   2   7  11  781.86   66.87
   2   7  12  692.98   65.17
   2   7  13  108.29   25.19
   2   7  14   39.56   16.91
   2   7  15  333.84   49.43
   2   8  -6   50.65   17.96
   2   8  -5   39.22   16.13
   2   8  -4  229.48   36.66
   2   8  -3  596.54   58.12
   2   8  -2  435.91   48.03
   2   8  -1   22.01    9.69
   2   8   0  545.16   50.95
   2   8   1  369.60   41.04
   2   8   2  221.60   30.35
   2   8   3   -3.07    6.07
   2   8   4  181.75   24.49
  -2  -8  -5  685.11   60.13
   2   8   5  682.81   47.22
  -2  -8  -6 1089.83   77.46
   2   8   6  991.38   56.13
  -2  -8  -7   88.06   21.69
  -2  -8  -8   10.42   10.35
  -2  -8  -9  365.94   45.86
   2   8   9  350.26   44.06
  -2  -8 -10  725.67   66.85
   2   8  10  771.03   67.26
  -2  -8 -11   87.20   23.68
   2   8  11  134.76   28.20
   2   8  12   28.11   14.10
   2   8  13  366.47   49.99
   2   8  14  393.91   54.60
   2   9  -4  211.77   38.82
   2   9  -3    1.39    8.03
   2   9  -2  124.98   27.62
   2   9  -1  358.66   44.66
   2   9   0  464.13   50.46
   2   9   1   30.35   13.14
   2   9   2   31.52   14.52
   2   9   3  558.99   50.47
   2   9   4  521.58   46.95
  -2  -9  -5  183.42   32.90
   2   9   5  198.00   26.47
  -2  -9  -6   82.98   22.06
  -2  -9  -7  564.62   59.92
  -2  -9  -8  406.41   50.75
  -2  -9  -9   66.45   21.04
   2   9  10   16.20   10.47
  -2  -9 -10   16.35   12.04
  -2  -9 -11  202.71   37.85
   2   9  11  242.74   39.53
   2   9  12  413.47   53.66
   2  10  -2  239.14   40.10
   2  10  -1   77.40   21.11
   2  10   0  131.91   28.57
   2  10   1  143.75   28.36
   2  10   2  287.85   39.98
   2  10   3  154.97   27.98
  -2 -10  -4   59.80   19.97
   2  10   4  100.45   21.65
  -2 -10  -5  344.16   48.11
  -2 -10  -6  382.19   50.93
  -2 -10  -7  133.92   30.11
  -2 -10  -8    1.05    7.67
  -2 -10  -9  212.06   39.12
   2  11   1   90.75   24.93
   2  11   2   12.00   11.60
  -3  10   4    8.79   10.93
  -3  10   3   16.91    9.49
  -3  10   2  355.41   48.65
   3  -9  -9   -7.81    8.56
   3  -9  -8  213.81   36.19
   3  -9  -7  199.30   33.35
  -3   9   6  115.40   25.16
   3  -9  -6  102.59   24.17
  -3   9   5   18.37   13.01
   3  -9  -4  266.56   37.78
  -3   9   4  241.38   36.73
   3  -9  -3  351.32   42.59
  -3   9   3  370.76   46.79
  -3   9   2  123.57   27.01
  -3   9   1   11.18    9.01
  -3   9   0  169.75   32.34
  -3   9  -1  524.85   58.82
  -3   9  -2  148.18   32.08
  -3   9  -3   18.35   11.59
  -3   8  10  217.63   38.02
   3  -8 -10  179.22   34.56
  -3   8   9  346.50   47.39
   3  -8  -9  309.06   44.77
   3  -8  -8  106.42   23.99
   3  -8  -7   60.88   19.88
   3  -8  -6  335.39   41.82
   3  -8  -5  606.17   55.26
   3  -8  -4  132.65   25.09
   3  -8  -4  151.86   26.04
   3  -8  -3    4.07    5.09
   3  -8  -3   -2.91    5.78
   3  -8  -2  244.91   32.48
  -3   8   2  254.52   36.84
   3  -8  -2  181.25   27.38
   3  -8  -1  541.23   48.26
   3  -8  -1  457.05   43.00
  -3   8   1  459.04   51.18
   3  -8   0  152.10   24.89
  -3   8   0  225.88   35.80
  -3   8  -1   -2.95    9.95
  -3   8  -2  210.32   35.80
  -3   8  -3  535.59   57.74
  -3   8  -4  256.29   40.64
  -3   8  -5   47.23   17.95
  -3   8  -6   94.40   26.72
  -3   7  11  364.82   50.00
  -3   7  10  126.84   29.09
   3  -7  -9   28.04   13.68
  -3   7   9    1.21    7.43
  -3   7   8  221.15   35.41
   3  -7  -8  231.09   37.09
  -3   7   7  496.07   51.49
   3  -7  -7  496.31   51.50
   3  -7  -6  367.61   42.87
   3  -7  -5   33.15   12.72
   3  -7  -4  481.06   46.73
   3  -7  -3  661.30   52.16
   3  -7  -3  640.20   52.86
   3  -7  -2  251.48   30.48
   3  -7  -2  251.97   31.63
   3  -7  -1   -1.22    5.90
   3  -7  -1   -7.24    6.19
   3  -7   0  226.82   28.54
   3  -7   0  208.19   27.85
   3  -7   1  560.92   45.09
   3  -7   1  591.72   46.53
  -3   7  -1  548.52   53.78
   3  -7   2  519.18   43.84
   3  -7   2  590.80   45.86
  -3   7  -2  532.07   54.29
  -3   7  -3  112.59   24.62
   3  -7   3  176.64   24.75
  -3   7  -4   28.29   12.02
  -3   7  -5  208.23   34.70
  -3   7  -6  571.88   59.76
  -3   7  -7   75.25   22.47
  -3   7  -8    7.61    8.76
  -3   6  12  213.46   38.01
  -3   6  11  -20.70   12.54
  -3   6  10  395.77   49.16
  -3   6   9  562.95   56.20
  -3   6   8  295.85   38.41
  -3   6   7   16.15   10.12
   3  -6  -7    8.66    6.14
   3  -6  -6  295.82   38.10
  -3   6   6  318.01   38.04
  -3   6   5  635.03   52.91
   3  -6  -5  495.04   47.96
   3  -6  -4  849.11   61.72
   3  -6  -3  337.96   36.99
   3  -6  -2   96.53   17.60
   3  -6  -2   90.34   18.56
   3  -6  -1  417.71   35.81
   3  -6  -1  438.33   40.30
   3  -6   0  737.74   47.80
   3  -6   0  671.33   50.18
   3  -6   1  168.78   22.17
   3  -6   1  180.54   24.85
   3  -6   2   55.02   12.49
   3  -6   2   19.51    8.38
   3  -6   3 1007.58   61.12
  -3   6  -3 1076.41   74.81
   3  -6   4  791.09   53.64
  -3   6  -4  975.77   71.74
  -3   6  -5  201.95   32.37
   3  -6   5  146.55   22.34
  -3   6  -6   32.62   14.42
   3  -6   6   37.49   12.12
  -3   6  -7  322.94   42.96
  -3   6  -8  348.78   45.17
  -3   6  -9  391.61   49.47
  -3   6 -10    2.76    8.85
  -3   6 -11  129.60   29.47
  -3   5  13    6.40    7.76
  -3   5  12  132.74   29.93
  -3   5  11  647.87   63.03
  -3   5  10  402.82   47.68
  -3   5   9   11.15    8.71
  -3   5   8  105.06   22.14
  -3   5   7  500.57   47.05
   3  -5  -6  389.62   42.84
  -3   5   6  342.17   37.48
  -3   5   5    3.87    6.47
   3  -5  -5   -1.22    4.78
  -3   5   4  117.57   20.54
   3  -5  -4   85.27   18.71
   3  -5  -3 1343.35   76.79
   3  -5  -2  377.24   37.27
   3  -5  -1  125.10   17.25
   3  -5  -1  125.44   20.55
   3  -5   0   10.40    5.25
   3  -5   0    7.68    7.16
   3  -5   1  906.21   48.72
   3  -5   1  918.27   57.69
   3  -5   2 1069.65   54.64
   3  -5   2 1235.21   66.98
   3  -5   3  517.61   41.60
   3  -5   4    6.95    4.43
   3  -5   5  536.02   42.16
  -3   5  -5  494.97   48.35
   3  -5   6  590.52   46.07
  -3   5  -6  556.07   52.38
  -3   5  -7  147.10   26.24
   3  -5   7  102.88   19.11
  -3   5  -8    9.85   11.05
  -3   5  -9  218.12   33.93
  -3   5 -10  491.46   53.00
  -3   5 -11  389.83   48.55
  -3   5 -12   38.68   17.71
  -3   5 -13   50.46   17.98
  -3   4  13  220.33   38.35
  -3   4  12  300.60   42.58
  -3   4  11    1.40    8.42
  -3   4  10  142.50   27.51
  -3   4   9  357.67   41.69
  -3   4   8  394.15   41.15
  -3   4   7  265.86   32.15
  -3   4   6   50.05   13.36
   3  -4  -5  552.06   48.41
  -3   4   5  601.21   45.91
   3  -4  -4 2765.16  119.30
  -3   4   4 2674.82  109.58
  -3   4   3 1104.85   60.65
   3  -4  -3 1142.33   67.89
   3  -4  -2  125.87   20.63
   3  -4  -1  446.65   38.79
   3  -4   0 1296.43   55.96
   3  -4   0 1322.90   70.21
   3  -4   1  409.72   27.17
   3  -4   1  396.66   35.32
   3  -4   2    3.69    3.18
   3  -4   2    6.54    6.85
   3  -4   3  645.19   45.85
   3  -4   4 1353.38   70.52
   3  -4   5  513.29   40.85
  -3   4  -6   50.60   14.67
   3  -4   6   42.95   12.33
   3  -4   7   13.70    8.06
  -3   4  -7    4.79    7.65
  -3   4  -8  832.36   63.31
  -3   4  -9 1139.29   76.35
  -3   4 -10  205.58   32.35
  -3   4 -11   35.29   13.31
  -3   4 -12  417.53   47.60
  -3   4 -13  237.55   36.96
  -3   3  14   89.38   25.07
  -3   3  13  105.35   26.72
  -3   3  12   56.56   18.88
  -3   3  11  563.43   55.79
  -3   3  10  689.05   58.66
  -3   3   9  193.36   29.07
  -3   3   8   16.51    9.08
  -3   3   7  342.12   35.04
  -3   3   6  854.57   54.61
   3  -3  -5  436.62   41.75
  -3   3   5  421.91   35.70
  -3   3   4    3.41    4.44
   3  -3  -4    9.53    6.13
   3  -3  -3 1418.25   75.46
  -3   3   3 1352.09   64.52
  -3   3   2  695.90   41.47
   3  -3  -2  721.81   50.10
   3  -3  -1  616.91   44.94
   3  -3   0   67.54   14.29
   3  -3   1  419.94   22.88
   3  -3   1  451.48   36.62
   3  -3   2 1219.58   44.71
   3  -3   2 1218.68   64.87
   3  -3   3 1516.32   73.38
   3  -3   4  223.40   25.42
   3  -3   5  474.50   38.25
   3  -3   6  556.85   42.69
   3  -3   7  381.57   35.48
  -3   3  -7  392.58   38.75
  -3   3  -8  104.48   19.95
  -3   3  -9  300.82   35.39
  -3   3 -10  471.26   45.49
  -3   3 -11  861.34   63.68
  -3   3 -11  748.11   57.32
  -3   3 -12   97.95   22.73
   3  -3  13   22.82   11.95
  -3   3 -13   25.09    9.48
   3  -3  14   24.91   12.84
  -3   2  14    9.76   10.60
  -3   2  13  154.60   31.65
  -3   2  12  242.27   37.37
  -3   2  11  132.95   26.42
  -3   2  10   -5.56    6.59
  -3   2   9  389.96   40.91
  -3   2   8  654.85   50.21
  -3   2   8  576.17   37.27
  -3   2   7  491.36   40.55
  -3   2   7  430.08   30.96
  -3   2   6   19.34    8.92
  -3   2   5  645.03   42.25
   3  -2  -4 2437.34  107.53
  -3   2   4 2561.85   94.62
   3  -2  -3  681.37   48.62
  -3   2   3  749.62   40.88
  -3   2   2   -1.03    2.49
  -3   2   2   -0.27    3.43
   3  -2  -2    0.22    2.96
   3  -2  -2   -1.06    4.01
  -3   2   1  142.87   13.65
   3  -2  -1  162.74   15.63
   3  -2  -1  163.66   21.97
   3  -2   0  509.22   38.42
   3  -2   0  464.00   27.56
   3  -2   1  871.49   52.34
   3  -2   1  909.80   41.90
   3  -2   2  391.45   26.10
   3  -2   2  486.80   37.20
   3  -2   3  240.23   25.87
   3  -2   4 1808.15   81.11
   3  -2   5 1633.88   77.61
   3  -2   6  460.28   37.86
  -3   2  -7   46.63   12.58
   3  -2   7   33.17   11.08
  -3   2  -8 1041.10   63.55
   3  -2   8 1164.22   66.41
  -3   2  -8 1065.08   64.21
  -3   2  -9 1388.37   77.43
  -3   2  -9 1523.87   79.58
  -3   2 -10  354.76   36.49
  -3   2 -10  359.58   37.10
  -3   2 -11    5.54    7.60
  -3   2 -11   -2.13    7.13
  -3   2 -12  383.46   39.20
   3  -2  12  284.74   38.34
  -3   2 -12  336.80   37.69
   3  -2  13  238.88   36.58
  -3   2 -13  200.88   30.73
   3  -2  14  164.55   31.29
   3  -2  15   -5.27    7.51
  -3   1  14  217.60   38.45
  -3   1  13  324.78   44.71
  -3   1  12    9.43   11.96
  -3   1  11  327.75   40.85
  -3   1  10  630.48   54.59
  -3   1   9  323.02   36.56
  -3   1   9  382.32   32.67
  -3   1   8   -1.00    4.56
  -3   1   8   -6.21    5.75
  -3   1   7  260.37   28.66
  -3   1   7  218.41   23.14
  -3   1   6 1021.71   57.08
  -3   1   6 1021.37   52.55
  -3   1   5  995.53   52.61
  -3   1   4   40.94    8.89
   3  -1  -4   80.83   16.28
   3  -1  -3  247.21   27.28
  -3   1   3  182.79   17.57
   3  -1  -3  223.34   19.35
   3  -1  -2 1185.37   46.16
   3  -1  -2 1109.67   61.03
  -3   1   2 1047.33   45.17
   3  -1  -1 2226.35   68.33
   3  -1  -1 2257.79   92.11
  -3   1   1 2046.80   68.26
  -3   1   0  529.97   23.71
   3  -1   0  589.51   24.59
   3  -1   0  605.53   41.31
   3  -1   1    9.21    2.74
   3  -1   1   11.26    6.33
   3  -1   2 2337.53   93.06
   3  -1   2 2277.23   70.68
   3  -1   3 2663.50  102.93
   3  -1   4  749.84   46.45
   3  -1   5  130.21    9.65
  -3   1  -5  143.95   20.14
   3  -1   5  144.45   20.04
  -3   1  -6  701.13   47.94
   3  -1   6  731.68   47.54
  -3   1  -7  369.02   34.27
   3  -1   7  396.64   35.05
  -3   1  -8  361.41   35.07
   3  -1   9    2.69    4.82
  -3   1  -9    2.95    5.71
  -3   1  -9   -1.78    5.38
   3  -1  10  187.68   27.29
  -3   1 -10  253.37   28.11
  -3   1 -10  211.79   28.40
  -3   1 -11  976.81   58.88
  -3   1 -11  901.45   63.15
   3  -1  11  907.04   64.82
  -3   1 -12  499.17   41.46
  -3   1 -12  367.99   40.30
   3  -1  12  472.98   47.85
   3  -1  13   54.39   18.02
  -3   1 -13   71.18   18.26
   3  -1  14   56.61   17.79
  -3   1 -14   26.73   12.96
   3  -1  15  414.78   51.46
  -3   1 -15  313.69   40.50
  -3   0  14  -20.69   13.14
  -3   0  13  145.66   30.72
  -3   0  12  373.48   46.35
  -3   0  11  349.90   42.77
  -3   0  10   23.00   10.72
  -3   0  10   44.71   13.33
  -3   0   9  117.49   20.02
  -3   0   9  100.83   20.80
  -3   0   8  351.56   36.12
  -3   0   8  362.15   33.05
  -3   0   7  434.02   38.19
  -3   0   7  516.04   38.48
  -3   0   6  263.20   27.17
  -3   0   6  288.82   27.60
  -3   0   5   12.33    6.61
  -3   0   5   29.98    8.43
  -3   0   4 1153.00   53.07
   3   0  -4 1221.59   66.19
  -3   0   3 1018.40   44.75
   3   0  -3 1006.60   58.00
  -3   0   2  609.53   29.48
   3   0  -2  771.21   47.32
  -3   0   1    4.58    2.03
   3   0  -1   11.63    6.86
   3   0   0  394.04   31.82
   3   0   1 1799.89   77.17
   3   0   2  991.34   53.07
  -3   0  -3   86.44   14.84
   3   0   3   74.76   13.97
   3   0   3  105.09    8.08
  -3   0  -4  894.89   50.83
   3   0   4  832.70   48.23
   3   0   4  775.07   33.60
  -3   0  -5 1701.41   76.39
   3   0   5 1660.47   74.32
   3   0   5 1493.60   58.73
   3   0   6  769.99   34.84
  -3   0  -6  864.22   52.66
   3   0   6  833.34   42.86
   3   0   7   57.59    9.32
   3   0   7   70.58   12.46
  -3   0  -7   56.10   13.14
   3   0   7   75.48   14.94
  -3   0  -8  310.99   32.24
   3   0   8  298.53   28.51
  -3   0  -9  938.92   60.78
   3   0   9 1033.23   59.40
  -3   0 -10  727.35   54.26
   3   0  10  720.68   52.38
  -3   0 -10  854.15   49.42
   3   0  11   89.57   18.67
  -3   0 -11  108.73   21.59
  -3   0 -11   98.60   16.44
   3   0  12   55.63   16.09
  -3   0 -12   25.77   10.65
   3   0  13  490.03   49.55
  -3   0 -13  427.99   44.87
   3   0  14  351.38   44.23
  -3   0 -14  347.99   41.55
  -3   0 -15   61.45   18.32
   3   0  15   77.82   22.38
  -3   0 -16    5.25    9.04
   3   0  16   18.96   11.40
  -3  -1  13  258.30   41.06
  -3  -1  12    9.82    9.17
  -3  -1  11  125.26   25.79
  -3  -1  10  297.72   37.89
  -3  -1   9  500.27   47.13
  -3  -1   9  437.45   41.62
  -3  -1   8  191.13   25.96
  -3  -1   8  224.55   29.31
  -3  -1   7  156.03   23.04
  -3  -1   7  170.58   23.39
  -3  -1   6  603.58   43.57
  -3  -1   6  613.93   44.19
   3   1  -5 1525.10   77.87
  -3  -1   5 1534.43   72.50
  -3  -1   5 1483.74   69.27
  -3  -1   4  559.96   35.63
   3   1  -4  596.80   43.15
  -3  -1   4  573.93   39.83
  -3  -1   3   41.85    8.30
   3   1  -3   58.26   12.44
  -3  -1   2 1136.71   45.23
   3   1  -2 1182.02   60.04
   3   1  -1 2787.87  103.41
  -3  -1   1 2763.28   80.12
   3   1   0  546.46   36.77
   3   1   1   17.98    7.75
  -3  -1  -2  927.77   50.04
   3   1   2  930.85   49.81
  -3  -1  -3 1725.23   54.04
  -3  -1  -3 1706.17   73.67
   3   1   3 1770.45   73.04
   3   1   3 1583.89   46.75
  -3  -1  -4 1630.51   73.18
   3   1   4 1591.24   52.40
   3   1   4 1587.13   70.49
  -3  -1  -5   66.84   13.69
   3   1   5   75.99    9.76
   3   1   5   55.53   11.73
   3   1   6  253.63   20.90
  -3  -1  -6  253.29   27.06
   3   1   6  254.39   25.95
   3   1   7  787.36   40.86
   3   1   7  852.28   45.66
  -3  -1  -7  906.58   55.45
   3   1   7  912.44   53.84
   3   1   8 1197.48   60.73
  -3  -1  -8 1335.97   71.54
   3   1   9  366.92   32.95
  -3  -1 -10  106.25   14.93
   3   1  10  117.71   19.51
  -3  -1 -11 1038.06   50.59
   3   1  11  949.26   63.42
   3   1  12  833.98   61.93
   3   1  13  201.99   31.21
   3   1  14   43.39   15.56
   3   1  15  207.69   35.42
   3   1  16  302.32   44.31
  -3  -1 -17   52.87   19.37
  -3  -2  13   66.37   21.59
  -3  -2  12  190.48   34.12
  -3  -2  11  369.25   45.31
  -3  -2  10  175.50   29.66
  -3  -2   9   45.75   15.73
  -3  -2   9   22.54   11.12
  -3  -2   8  342.24   37.85
  -3  -2   8  382.14   39.57
  -3  -2   7  570.43   47.10
  -3  -2   7  612.27   48.39
  -3  -2   6  691.44   48.87
  -3  -2   6  616.10   47.27
  -3  -2   5   73.16   15.17
  -3  -2   5  107.04   17.06
   3   2  -5   67.20   14.69
   3   2  -4  915.58   53.76
  -3  -2   4  943.65   55.66
   3   2  -3 1041.53   55.71
  -3  -2   3  980.99   55.82
   3   2  -2  894.43   49.99
   3   2  -1   44.06   10.31
   3   2   0  457.24   32.04
  -3  -2  -1  854.76   45.47
   3   2   1  795.20   43.88
  -3  -2  -1  761.15   29.45
  -3  -2  -2 1052.51   35.01
  -3  -2  -2 1089.95   54.28
   3   2   2 1040.46   51.96
  -3  -2  -3  692.79   27.34
  -3  -2  -3  703.87   42.59
   3   2   3  640.29   39.74
  -3  -2  -4   54.33    7.51
  -3  -2  -4   62.81    9.64
  -3  -2  -4   44.45   10.75
   3   2   4   52.66    7.74
   3   2   4   54.51   11.41
  -3  -2  -5  805.73   39.94
  -3  -2  -5  867.75   50.99
   3   2   5  847.38   39.13
   3   2   5  918.52   50.03
  -3  -2  -5  848.04   38.91
   3   2   6 1712.72   66.96
   3   2   6 1732.64   76.97
   3   2   7  509.12   34.00
   3   2   8  172.63   20.57
   3   2   9  382.28   33.63
   3   2  10  835.85   54.52
  -3  -2 -10  766.78   37.79
   3   2  11  360.40   37.09
   3   2  12   -1.83    5.21
   3   2  13  317.71   39.09
   3   2  14  316.61   40.51
   3   2  15  116.16   25.64
   3   2  16    5.50    6.77
  -3  -3  12  116.26   27.66
  -3  -3  11  -12.73   10.15
  -3  -3  10  162.80   29.98
  -3  -3   9  688.36   59.29
  -3  -3   8  267.18   35.38
  -3  -3   8  296.35   36.39
  -3  -3   7   17.13    9.04
   3   3  -6  259.25   29.16
   3   3  -6  269.71   33.39
  -3  -3   6  310.78   35.16
  -3  -3   5  909.67   60.25
   3   3  -5  993.68   56.27
   3   3  -5  805.31   58.32
   3   3  -4  635.38   42.33
   3   3  -4  572.85   46.67
  -3  -3   4  638.15   47.58
   3   3  -3  184.82   17.31
   3   3  -3  200.46   22.14
  -3  -3   3  189.85   24.33
  -3  -3   2   92.34   17.09
   3   3  -2   93.82   14.09
   3   3  -1 1464.11   63.38
  -3  -3   1 1470.23   70.85
   3   3   0  707.89   39.84
  -3  -3  -1  145.70   17.25
   3   3   1  151.03   17.04
  -3  -3  -1  129.92   13.54
  -3  -3  -2   -1.81    2.78
  -3  -3  -2    5.29    2.76
   3   3   2    7.73    5.08
  -3  -3  -3 2042.23   82.43
  -3  -3  -3 2015.18   68.95
   3   3   3 2017.79   78.68
  -3  -3  -4 2610.16   94.24
  -3  -3  -4 2485.70   83.41
  -3  -3  -4 2662.63  100.09
   3   3   4 2599.47   94.88
   3   3   4 2461.73   85.28
  -3  -3  -5  349.91   24.57
  -3  -3  -5  334.80   27.08
   3   3   5  376.46   29.90
   3   3   5  342.43   25.07
  -3  -3  -6   71.02   12.59
   3   3   6   65.19   11.79
  -3  -3  -7 1827.07   75.54
  -3  -3  -7 1595.99   62.49
   3   3   7 1704.41   73.28
  -3  -3  -8  787.55   37.10
   3   3   8  891.90   51.13
   3   3   9  423.27   36.45
   3   3  10    4.80    4.95
   3   3  11  591.42   48.38
   3   3  12  671.22   54.88
   3   3  13  418.66   45.13
   3   3  14   36.97   14.65
   3   3  15  157.18   30.31
   3   3  16  309.94   44.77
  -3  -4  11  360.23   47.80
   3   4 -10  328.40   44.31
  -3  -4  10  371.56   47.14
   3   4  -9   32.30   14.20
   3   4  -8  138.15   27.20
   3   4  -7  408.70   44.80
  -3  -4   7  397.65   44.27
   3   4  -6  563.77   50.48
   3   4  -6  435.88   36.80
  -3  -4   6  451.26   46.21
   3   4  -5   54.73   12.10
   3   4  -5   23.97   12.48
  -3  -4   5   45.38   13.74
  -3  -4   4  120.54   21.74
   3   4  -4  124.51   17.05
   3   4  -4  104.75   20.69
   3   4  -3  546.89   46.38
   3   4  -3  610.40   37.73
  -3  -4   3  625.06   48.39
   3   4  -2 1107.76   65.96
   3   4  -2 1122.40   52.49
  -3  -4   2 1140.16   66.25
  -3  -4   1  167.99   22.77
   3   4  -1  143.97   15.97
   3   4  -1  135.91   21.08
  -3  -4   0   96.70   17.07
  -3  -4   0   91.88   13.20
   3   4   0  107.72   13.74
   3   4   0  108.92   17.75
  -3  -4  -1  656.93   38.34
   3   4   1  608.34   34.92
  -3  -4  -1  689.16   45.54
  -3  -4  -2 1508.17   66.59
   3   4   2 1562.98   63.04
  -3  -4  -3 1269.17   61.61
   3   4   3 1364.56   58.56
   3   4   4    4.60    3.55
  -3  -4  -5  341.67   30.76
   3   4   5  301.86   26.07
  -3  -4  -6 1808.61   82.44
   3   4   6 1913.47   80.25
  -3  -4  -7  428.47   35.94
  -3  -4  -7  380.81   26.18
   3   4   7  462.64   35.93
  -3  -4  -8   12.91    6.93
   3   4   8   19.75    7.99
   3   4   9   18.24    8.56
   3   4  10  827.02   57.85
   3   4  11  872.08   61.61
   3   4  12  129.90   24.08
   3   4  13   58.49   17.95
   3   4  14  520.25   53.65
   3   4  15  278.92   41.57
   3   4  16   40.33   17.96
   3   5 -10   31.32   16.29
   3   5  -9  289.80   42.21
   3   5  -8  224.25   36.01
   3   5  -7   70.81   19.73
   3   5  -6   14.34   10.28
  -3  -5   6   24.21   11.37
   3   5  -5  264.43   35.90
  -3  -5   5  284.38   36.62
  -3  -5   4 1080.58   72.66
   3   5  -4 1024.09   70.70
   3   5  -3 1251.20   77.86
   3   5  -3 1374.18   56.97
   3   5  -2   -0.65    2.46
   3   5  -2   -9.80    7.28
  -3  -5   2    2.28    6.01
   3   5  -1  681.44   51.35
   3   5  -1  688.16   34.64
  -3  -5   1  696.84   51.94
  -3  -5   0  988.89   47.39
   3   5   0 1107.61   64.65
   3   5   0  984.86   43.56
  -3  -5   0  989.45   61.71
  -3  -5  -1  337.78   26.39
  -3  -5  -1  297.42   24.18
   3   5   1  356.40   33.44
   3   5   1  350.24   23.47
  -3  -5  -1  361.13   34.51
  -3  -5  -2    5.96    7.24
  -3  -5  -2    1.01    2.98
   3   5   2   -0.11    4.43
   3   5   2    1.64    3.21
  -3  -5  -3  640.07   44.77
  -3  -5  -4 1282.28   65.88
  -3  -5  -5  594.92   45.24
  -3  -5  -6   12.83    7.43
   3   5   6    6.51    3.91
  -3  -5  -7  308.47   33.17
   3   5   7  360.13   34.48
  -3  -5  -8  345.10   35.63
   3   5   8  363.93   35.36
  -3  -5  -9  937.35   62.76
   3   5   9  977.75   63.21
   3   5  10  393.09   40.76
   3   5  11   85.67   19.71
   3   5  12  628.23   55.78
   3   5  13  594.46   56.75
   3   5  14   32.22   14.49
   3   5  15  123.20   28.29
   3   5  16  217.56   38.24
   3   6  -8    7.21   10.18
   3   6  -7  139.59   28.71
   3   6  -6  290.35   40.26
   3   6  -5   51.95   16.72
  -3  -6   5   42.28   16.57
   3   6  -4   -4.16    7.65
  -3  -6   4   -4.79    7.16
   3   6  -3  338.14   40.50
  -3  -6   3  376.54   43.32
   3   6  -2  589.05   52.40
  -3  -6   2  738.05   58.64
   3   6  -1  193.76   28.10
  -3  -6   1  143.47   25.03
  -3  -6   0    3.66    4.25
  -3  -6   0    2.76    4.69
   3   6   0    7.02    5.08
  -3  -6  -1  401.74   38.72
  -3  -6  -1  352.08   27.30
   3   6   1  378.52   37.08
  -3  -6  -2  565.69   37.14
   3   6   2  555.57   44.19
  -3  -6  -2  538.58   44.83
   3   6   3 1016.25   59.96
  -3  -6  -3 1137.34   65.18
   3   6   4  343.48   31.15
  -3  -6  -4  368.88   34.40
  -3  -6  -5  128.71   20.21
  -3  -6  -5  112.99   21.15
  -3  -6  -6  997.55   66.47
  -3  -6  -6  920.80   55.96
  -3  -6  -7  491.64   45.35
  -3  -6  -7  412.19   35.22
   3   6   7  473.05   41.81
  -3  -6  -8   79.34   14.08
  -3  -6  -8   47.64   14.28
   3   6   8   51.52   14.24
  -3  -6  -9   72.81   13.75
  -3  -6  -9   56.76   15.72
   3   6   9   51.08   15.52
  -3  -6 -10  619.27   54.64
   3   6  10  603.69   53.05
   3   6  11  862.30   66.78
   3   6  12  221.53   33.72
   3   6  13   10.45    8.89
   3   6  14  214.90   35.99
   3   6  15  260.40   41.57
   3   6  16  129.22   29.66
   3   7  -6   -1.80    7.81
   3   7  -5  151.57   29.68
   3   7  -4  742.72   65.67
   3   7  -3  973.30   73.52
  -3  -7   3  965.12   74.84
   3   7  -2    2.76    7.09
  -3  -7   2   26.72   13.25
   3   7  -1  132.72   24.82
  -3  -7   1  166.53   28.31
   3   7   0  477.77   46.45
  -3  -7   0  470.20   47.08
   3   7   1  324.99   37.42
  -3  -7  -1  386.56   40.69
  -3  -7  -2  161.49   19.13
   3   7   2  134.23   22.91
  -3  -7  -2  120.89   22.42
   3   7   3   39.16   11.82
  -3  -7  -3   27.39   10.42
   3   7   4  747.23   50.91
  -3  -7  -4  759.18   54.25
  -3  -7  -5 1139.70   75.01
   3   7   5 1103.26   60.67
  -3  -7  -5  955.74   61.26
  -3  -7  -6  325.45   39.80
  -3  -7  -6  317.46   32.60
  -3  -7  -7    2.52    6.00
  -3  -7  -7   -0.70    5.31
   3   7   8  498.39   46.59
  -3  -7  -8  408.13   45.31
  -3  -7  -8  414.85   36.71
  -3  -7  -9 1126.00   79.42
   3   7   9 1132.50   76.23
  -3  -7 -10  402.50   46.46
   3   7  10  326.73   40.18
   3   7  11   32.31   14.50
   3   7  12  214.57   34.81
   3   7  13  390.89   48.99
   3   7  14  155.91   32.12
   3   7  15   -1.42    8.40
   3   8  -5   90.80   24.66
   3   8  -4   28.55   12.57
   3   8  -3   33.48   12.70
   3   8  -2  252.93   37.27
   3   8  -1  300.60   40.13
  -3  -8   1  403.39   47.08
   3   8   0  122.08   24.48
  -3  -8   0  119.58   25.06
   3   8   1   28.16   11.15
  -3  -8  -1   30.56   14.52
   3   8   2  445.58   44.09
  -3  -8  -2  464.49   47.28
   3   8   3  812.23   59.28
  -3  -8  -3  740.31   59.64
   3   8   4  399.51   39.07
  -3  -8  -4  368.57   40.07
  -3  -8  -5   -1.35    6.38
   3   8   5    6.77    4.53
  -3  -8  -6  524.48   53.46
  -3  -8  -6  511.53   44.88
  -3  -8  -7  235.26   35.63
  -3  -8  -7  200.22   27.13
  -3  -8  -8   67.31   19.57
  -3  -8  -9    9.65   11.94
  -3  -8 -10  166.94   32.16
   3   8  10  123.11   25.54
  -3  -8 -11  429.73   51.96
   3   8  11  512.84   54.54
   3   8  12  403.25   50.58
   3   8  13    6.61    7.56
   3   8  14   41.48   17.09
   3   9  -2  165.53   32.13
   3   9  -1    5.01    7.28
   3   9   0   68.26   18.62
   3   9   1  288.82   39.05
   3   9   2  212.60   32.25
   3   9   3   15.05    8.78
  -3  -9  -3   14.96   10.46
   3   9   4  156.18   25.60
  -3  -9  -4  179.65   29.98
  -3  -9  -5  696.48   66.09
  -3  -9  -5  748.55   60.36
  -3  -9  -6  463.34   53.91
  -3  -9  -6  472.18   46.85
  -3  -9  -7   13.69    8.27
  -3  -9  -8  178.44   32.80
  -3  -9  -9  667.27   67.65
  -3  -9 -10  345.90   48.21
  -3  -9 -11  117.93   29.94
   3   9  12   15.72   13.46
   3   9  13  224.85   39.80
   3  10   0  188.57   34.25
   3  10   1    2.28    7.55
   3  10   2  207.57   33.08
   3  10   3  299.92   39.26
  -3 -10  -5   57.63   20.45
  -3 -10  -6  103.78   27.24
  -3 -10  -7   91.36   25.25
  -3 -10  -8  213.68   39.45
   4  -9  -6  189.92   34.47
  -4   9   2  362.56   49.99
   4  -8  -7  333.27   47.25
   4  -8  -6    4.87    6.95
   4  -8  -5   84.12   22.51
   4  -8  -4  196.73   32.79
   4  -8  -3  532.76   53.83
   4  -8  -2   58.83   17.16
   4  -8  -1    4.53    6.60
   4  -8   0  277.27   36.84
  -4   8  -1  530.78   59.83
  -4   8  -2  145.79   31.85
  -4   8  -3    0.35   10.17
  -4   7  10  118.33   27.68
  -4   7   9  178.63   33.36
  -4   7   8   11.93    9.68
   4  -7  -8   12.24    9.35
   4  -7  -7   38.76   15.41
   4  -7  -6  231.51   36.92
   4  -7  -5  346.66   44.64
   4  -7  -4   96.53   22.82
   4  -7  -3   58.04   18.24
   4  -7  -2  223.85   34.04
   4  -7  -1  242.58   33.79
   4  -7   0  270.46   35.33
   4  -7   1    5.88    7.03
   4  -7   2  295.45   36.56
   4  -7   3  369.49   40.38
  -4   7  -3  422.56   50.37
  -4   7  -4  181.82   33.81
   4  -7   4  164.15   26.59
  -4   7  -5   20.80   14.33
  -4   7  -6  150.97   32.49
  -4   6  11  215.46   37.83
  -4   6  10   67.87   20.53
  -4   6   9   25.56   12.73
   4  -6  -9   25.50   14.08
   4  -6  -8  332.68   46.57
  -4   6   8  402.42   45.88
   4  -6  -7  355.73   47.00
  -4   6   7  391.15   44.67
   4  -6  -6  212.15   34.78
   4  -6  -5   17.63   11.99
   4  -6  -4  312.91   40.68
   4  -6  -3  454.26   47.95
   4  -6  -2  199.23   30.74
   4  -6  -1   10.81    5.49
   4  -6   0  392.02   42.78
   4  -6   1  820.00   62.01
   4  -6   2  632.97   53.66
   4  -6   3   30.57   11.54
   4  -6   4  215.78   30.46
  -4   6  -5  509.33   54.88
   4  -6   5  432.25   43.95
  -4   6  -6  246.65   38.62
   4  -6   6  218.68   31.67
  -4   6  -7  249.98   39.74
   4  -6   7  147.44   25.29
  -4   6  -8    4.33    6.35
   4  -6   8   -3.84    6.88
  -4   6  -9  520.23   59.51
  -4   5  12   77.45   22.89
  -4   5  11   22.48   13.00
  -4   5  10   99.77   24.31
   4  -5 -10   78.27   25.11
   4  -5  -9  319.77   46.79
  -4   5   9  405.24   46.50
   4  -5  -8   81.17   22.94
  -4   5   8  103.81   22.39
  -4   5   7    6.96    5.10
   4  -5  -7    0.87    5.72
   4  -5  -6  344.86   43.61
  -4   5   6  258.23   33.28
  -4   5   5 1322.37   77.38
   4  -5  -5 1315.24   87.60
   4  -5  -4  564.29   54.24
   4  -5  -3    6.06    5.03
   4  -5  -2  168.21   27.75
   4  -5  -1  833.91   62.85
   4  -5   0  572.58   50.49
   4  -5   1   69.23   16.72
   4  -5   2  135.45   23.74
   4  -5   3  601.58   51.10
   4  -5   4  189.06   27.88
   4  -5   5   89.51   18.67
   4  -5   6   10.54    7.82
   4  -5   7  293.65   36.06
  -4   5  -7  370.06   45.19
   4  -5   8  700.95   57.47
  -4   5  -8  781.75   68.59
  -4   5  -9  112.27   28.44
  -4   5 -10   11.88    9.86
  -4   5 -11  234.22   38.67
  -4   4  12  257.48   40.67
  -4   4  11  168.63   31.17
   4  -4 -10  264.34   42.15
  -4   4  10  182.27   31.94
  -4   4   9   -1.90    9.20
   4  -4  -9    2.02    9.81
  -4   4   8  135.85   24.72
   4  -4  -8  163.05   32.01
   4  -4  -7  492.41   53.85
  -4   4   7  495.46   45.71
   4  -4  -6  488.19   51.38
  -4   4   6  510.70   44.73
  -4   4   5   51.02   12.93
   4  -4  -5   75.51   19.69
  -4   4   4  189.56   24.20
   4  -4  -4  214.42   31.86
   4  -4  -3  192.65   29.80
   4  -4  -2  377.86   40.92
   4  -4  -1  132.64   23.64
   4  -4   0  134.40   23.55
   4  -4   1  451.09   43.27
   4  -4   2 1581.62   86.35
   4  -4   3  263.44   32.41
   4  -4   4   30.75   12.10
   4  -4   5  271.06   33.27
   4  -4   6  656.38   52.95
   4  -4   7  334.20   37.50
  -4   4  -8    2.43    7.80
   4  -4   8    9.42    9.70
  -4   4  -9  384.33   45.96
  -4   4 -10  567.60   57.31
  -4   4 -11  152.89   29.55
  -4   4 -12   28.30   13.82
  -4   4 -13   -1.27    5.23
  -4   3  12  141.35   30.48
  -4   3  11   21.03   12.96
  -4   3  10   95.15   21.16
   4  -3  -9  358.33   47.11
  -4   3   9  297.50   38.09
   4  -3  -8  362.13   46.67
  -4   3   8  332.07   37.51
   4  -3  -7   51.76   18.52
  -4   3   7   48.36   14.63
   4  -3  -6  455.74   49.02
  -4   3   6  467.02   40.30
   4  -3  -5 1411.77   88.32
  -4   3   5 1456.58   73.51
   4  -3  -4  902.64   66.30
  -4   3   4  822.36   50.40
  -4   3   3   34.29    9.58
   4  -3  -3   13.48    7.76
   4  -3  -2    8.42    7.84
   4  -3  -1  712.68   55.35
   4  -3   0  861.64   60.56
   4  -3   1  658.79   51.58
   4  -3   2    8.15    7.77
   4  -3   3  834.82   58.40
   4  -3   4  674.56   52.01
   4  -3   5  642.81   51.09
   4  -3   6   14.12    6.85
   4  -3   7  667.87   53.21
   4  -3   8 1057.11   69.64
   4  -3   9  554.71   50.23
  -4   3  -9  613.79   55.01
  -4   3 -10   52.57   16.08
  -4   3 -11  156.73   27.87
   4  -3  12  101.14   23.96
  -4   3 -12  162.26   29.01
   4  -3  13  173.90   32.35
   4  -3  14   94.84   24.79
  -4   2  12  109.34   26.03
  -4   2  11  350.21   43.94
  -4   2  10  232.91   33.55
  -4   2   9   84.36   19.94
   4  -2  -9   38.59   15.95
  -4   2   8   17.05    9.35
   4  -2  -8   14.11    9.74
   4  -2  -7  386.53   45.52
  -4   2   7  425.25   39.04
  -4   2   7  381.10   33.90
   4  -2  -6  513.38   50.94
  -4   2   6  445.46   38.15
   4  -2  -5  423.16   44.88
  -4   2   5  428.08   34.82
  -4   2   4   10.03    5.44
   4  -2  -4   20.13   11.23
   4  -2  -3  238.50   31.66
  -4   2   3  270.83   23.94
   4  -2  -2  696.73   54.05
   4  -2  -1  715.28   35.29
  -4   2   1  590.59   31.81
   4  -2   0    3.05    5.13
   4  -2   0   -0.87    3.21
   4  -2   1  679.27   33.65
   4  -2   1  703.61   52.40
   4  -2   2 2090.68   96.91
   4  -2   2 1895.19   69.86
   4  -2   3  748.01   53.79
   4  -2   3  677.12   36.53
   4  -2   4    8.89    7.69
   4  -2   5   89.82   18.49
   4  -2   6  261.26   31.47
   4  -2   7  460.49   43.11
   4  -2   8  137.72   23.68
   4  -2   9   36.40   13.02
  -4   2 -10  525.45   50.21
  -4   2 -10  486.35   46.57
  -4   2 -11  393.42   44.19
   4  -2  11  381.18   41.32
  -4   2 -11  347.23   39.96
   4  -2  12   95.66   21.56
  -4   2 -12  118.00   25.12
  -4   2 -12  113.00   23.13
   4  -2  13   -1.91    8.91
  -4   2 -13   -3.12    8.30
  -4   2 -14  441.96   50.86
   4  -2  14  479.59   53.92
   4  -2  15  368.62   49.21
  -4   1  12  224.72   36.67
  -4   1  11   79.07   20.64
  -4   1  10   14.37    8.00
  -4   1   9  145.75   24.85
   4  -1  -9  145.94   29.71
  -4   1   8  414.15   40.33
   4  -1  -8  491.84   52.47
  -4   1   8  509.02   41.43
  -4   1   7  220.66   27.20
   4  -1  -7  159.55   28.72
  -4   1   7  219.52   26.24
  -4   1   6   51.70   12.79
   4  -1  -6   88.51   19.34
   4  -1  -5  649.78   54.80
  -4   1   5  527.09   38.05
   4  -1  -4 1141.30   72.47
  -4   1   4 1056.63   52.39
   4  -1  -3  372.38   39.04
  -4   1   3  410.49   27.54
   4  -1  -2   83.99   18.24
  -4   1   2   63.24    9.16
   4  -1  -1  336.13   35.03
  -4   1   0 1007.51   38.90
   4  -1   0 1347.38   72.00
   4  -1   1  930.46   59.45
   4  -1   1  924.85   29.23
   4  -1   2   55.98   15.35
   4  -1   2   40.59    4.90
   4  -1   3  301.65   31.92
   4  -1   3  265.74   16.76
   4  -1   4 1061.15   64.17
   4  -1   5  919.30   59.56
   4  -1   6  113.28   20.28
  -4   1  -7  321.82   36.21
   4  -1   7  252.76   30.95
   4  -1   7  322.86   27.71
  -4   1  -8 1202.01   75.00
   4  -1   8 1206.12   73.16
   4  -1   8 1148.43   61.40
  -4   1  -9  864.27   63.92
   4  -1   9  991.88   66.27
   4  -1   9  832.22   54.42
  -4   1 -10  484.98   47.98
   4  -1  10  471.96   42.06
   4  -1  11   33.39   12.59
  -4   1 -11   21.70   15.60
  -4   1 -11   36.99   12.29
   4  -1  12  209.12   31.04
  -4   1 -12  209.43   32.77
  -4   1 -12  281.96   33.31
  -4   1 -13  353.83   44.42
   4  -1  13  370.26   43.47
  -4   1 -14  188.66   32.52
   4  -1  14  144.87   28.91
  -4   1 -15  -30.78   14.51
   4  -1  15   -2.39    4.68
  -4   0  11   64.79   18.09
  -4   0  10  345.62   41.03
  -4   0   9  208.55   28.51
   4   0  -9  200.96   33.98
  -4   0   9  194.86   29.12
  -4   0   8   24.47    9.97
   4   0  -8   21.37   12.76
  -4   0   8    7.09    6.65
  -4   0   7  181.02   25.57
   4   0  -7  222.79   33.26
  -4   0   7  161.19   23.41
  -4   0   6  695.47   46.51
   4   0  -6  745.36   59.86
  -4   0   6  703.95   50.23
  -4   0   5  776.77   46.26
   4   0  -5  957.07   65.66
  -4   0   4   34.04    7.82
   4   0  -4   35.81   12.54
  -4   0   3  303.05   22.16
   4   0  -3  357.23   36.83
   4   0  -2 1253.47   69.91
  -4   0   2  990.34   40.47
   4   0  -1  602.03   46.98
   4   0   0   13.91    8.74
   4   0   1  253.93   29.00
   4   0   2 1111.67   64.56
   4   0   3 1342.77   71.90
   4   0   4  392.69   17.22
   4   0   4  479.66   40.19
  -4   0  -5   26.39   10.44
   4   0   5   28.96    5.89
   4   0   5   16.26    7.61
   4   0   6  112.76   13.28
  -4   0  -6  166.19   24.80
   4   0   6  145.12   22.39
   4   0   7 1181.74   55.56
  -4   0  -7 1322.92   76.58
   4   0   7 1318.90   73.97
   4   0   8  481.13   35.41
  -4   0  -8  560.55   48.36
   4   0   8  548.67   46.89
  -4   0  -9   -1.27    8.09
   4   0   9   -0.30    4.29
   4   0  10  354.96   34.48
  -4   0 -10  377.68   41.64
   4   0  11  857.72   59.35
  -4   0 -11  879.49   66.79
  -4   0 -11  872.60   56.73
  -4   0 -12  257.58   37.13
   4   0  12  195.33   29.08
  -4   0 -13   -2.31    7.16
   4   0  13   -1.97    5.81
  -4   0 -14  162.88   30.41
   4   0  14  155.78   28.99
  -4   0 -15  259.71   41.18
   4   0  15  253.25   38.47
  -4   0 -16  118.29   27.75
   4   0  16  101.16   25.28
   4   1 -10    9.34   11.29
  -4  -1  10    0.20    7.99
  -4  -1   9  134.53   24.19
   4   1  -9  136.85   27.07
  -4  -1   9  118.84   23.05
  -4  -1   8  367.59   38.59
   4   1  -8  430.43   47.14
  -4  -1   8  422.12   42.07
  -4  -1   7  423.91   39.17
   4   1  -7  487.66   48.72
  -4  -1   7  515.94   45.22
  -4  -1   6   43.49   12.71
   4   1  -6   23.73   10.36
  -4  -1   5  262.00   26.15
   4   1  -5  269.92   33.63
  -4  -1   5  313.97   32.93
  -4  -1   4  609.86   37.13
   4   1  -4  568.37   48.13
  -4  -1   3  895.35   42.19
   4   1  -3  931.23   60.71
  -4  -1   2  307.78   19.49
   4   1  -2  375.48   35.89
  -4  -1   1   73.81    6.45
   4   1  -1  116.85   19.19
   4   1   0  403.32   36.18
   4   1   1 1332.50   70.41
   4   1   2  660.21   46.91
  -4  -1  -3    5.54    2.88
   4   1   3    2.52    4.47
  -4  -1  -4  999.93   62.29
   4   1   4 1042.35   61.06
  -4  -1  -5 1307.15   72.43
   4   1   5 1261.10   44.52
   4   1   5 1457.40   73.61
  -4  -1  -6  390.09   38.06
   4   1   6  358.83   23.18
   4   1   6  396.99   36.86
  -4  -1  -7   73.90   16.78
   4   1   7   61.97   10.31
   4   1   7   69.86   15.57
   4   1   8  495.02   34.47
  -4  -1  -8  554.65   48.03
   4   1   8  569.05   46.77
   4   1   9  702.79   45.41
  -4  -1  -9  787.33   59.55
   4   1  10  789.66   52.31
  -4  -1 -10  909.69   65.89
  -4  -1 -11   -9.53   10.91
   4   1  11    8.89    7.00
  -4  -1 -12   51.65   17.88
   4   1  12   81.92   18.10
  -4  -1 -13  196.84   32.33
   4   1  13  251.88   34.19
  -4  -1 -14  319.46   42.76
   4   1  14  300.44   39.24
  -4  -1 -15   34.66   17.77
   4   1  15   21.68   11.43
  -4  -1 -16   87.27   24.19
   4   1  16   66.57   20.90
  -4  -2  10  507.41   51.76
   4   2 -10  380.85   47.86
  -4  -2  10  407.59   47.97
  -4  -2   9  167.13   28.52
   4   2  -9  192.69   32.22
  -4  -2   9  183.56   30.67
  -4  -2   8    2.20    7.28
   4   2  -8   -2.75    5.46
  -4  -2   7   33.87   11.82
   4   2  -7   68.73   17.33
  -4  -2   7   45.28   14.97
   4   2  -6  496.03   46.24
  -4  -2   6  442.42   43.25
  -4  -2   6  484.49   40.27
   4   2  -5  463.18   43.45
  -4  -2   5  511.41   44.84
  -4  -2   5  457.90   36.64
  -4  -2   4  136.74   22.38
  -4  -2   4  130.95   17.67
   4   2  -4  178.08   25.45
  -4  -2   3    4.12    6.50
  -4  -2   3   14.61    6.25
   4   2  -3   12.47    7.10
   4   2  -2  893.24   56.04
  -4  -2   2  803.81   38.50
   4   2  -1  276.09   29.64
  -4  -2   1  255.85   16.57
   4   2   0  301.22   30.60
  -4  -2   0  292.87   14.67
  -4  -2   0  351.13   14.69
   4   2   1   15.17    7.61
   4   2   2  791.56   50.87
  -4  -2  -3 1419.38   74.95
   4   2   3 1589.30   75.75
  -4  -2  -4 1219.65   49.94
  -4  -2  -4 1147.62   65.97
   4   2   4 1161.50   64.21
  -4  -2  -5   38.16    7.45
  -4  -2  -5   52.71   14.17
   4   2   5   26.52    9.20
   4   2   5   34.27    5.95
  -4  -2  -6  469.96   41.45
   4   2   6  437.42   26.47
   4   2   6  438.61   38.25
  -4  -2  -7  905.56   61.26
   4   2   7  815.97   42.91
   4   2   7  944.87   59.14
  -4  -2  -8  534.72   47.51
   4   2   8  560.28   36.69
   4   2   8  529.91   44.94
   4   2   9  120.61   17.83
  -4  -2  -9  124.38   22.67
   4   2  10  213.76   25.76
  -4  -2 -10  212.82   32.28
   4   2  11  512.44   43.53
  -4  -2 -11  621.21   55.71
   4   2  12  422.47   41.55
  -4  -2 -12  484.75   50.45
  -4  -2 -13   53.08   18.15
   4   2  13   65.72   17.90
  -4  -2 -14   54.27   18.28
   4   2  14   15.07   11.36
  -4  -2 -15  207.71   35.90
   4   2  15  170.59   31.31
   4   2  16  243.47   38.53
  -4  -3   9   36.04   13.46
  -4  -3   9   40.58   16.22
   4   3  -8  267.15   35.33
  -4  -3   8  303.39   37.38
  -4  -3   8  324.31   41.05
   4   3  -7  485.93   46.64
  -4  -3   7  492.72   49.50
  -4  -3   7  536.03   47.30
  -4  -3   6  205.54   27.74
   4   3  -6  294.25   33.90
  -4  -3   6  292.41   36.10
  -4  -3   5   -7.40    7.87
  -4  -3   5    2.20    3.95
   4   3  -5    0.63    4.89
  -4  -3   4  206.02   29.04
   4   3  -4  189.69   26.47
   4   3  -3 1489.22   76.65
  -4  -3   3 1531.25   82.87
   4   3  -2  613.64   44.58
  -4  -3   2  649.01   49.53
   4   3  -1    1.43    5.33
   4   3   0  205.20   24.20
  -4  -3   0  178.51   15.66
   4   3   1 1617.20   75.20
  -4  -3  -1 1550.74   53.98
  -4  -3  -2  908.07   54.99
  -4  -3  -2  894.53   34.24
   4   3   2  996.74   55.22
  -4  -3  -3  136.97   10.81
  -4  -3  -3  148.43   21.54
   4   3   3  121.57   18.55
  -4  -3  -4  401.08   30.02
  -4  -3  -4  367.72   35.26
   4   3   4  440.73   36.19
  -4  -3  -4  426.28   22.25
  -4  -3  -5 1294.44   60.46
  -4  -3  -5 1404.51   75.00
  -4  -3  -5 1332.19   52.17
  -4  -3  -6  402.14   30.15
  -4  -3  -6  364.67   36.78
   4   3   6  389.13   35.26
   4   3   6  379.09   26.42
   4   3   7   62.34   11.16
  -4  -3  -7   54.70   11.13
  -4  -3  -7   31.67   11.15
   4   3   7   69.31   15.44
  -4  -3  -8   22.16    9.26
   4   3   8   17.62    6.97
  -4  -3  -9  790.24   60.05
   4   3   9  779.30   49.47
   4   3  10 1102.51   63.93
   4   3  11  259.62   30.93
   4   3  12  -15.02    8.43
   4   3  13  311.27   37.96
   4   3  14  302.35   39.39
   4   3  15  140.43   28.09
   4   3  16   28.64   14.12
  -4  -4   8   59.30   17.46
  -4  -4   8   53.60   18.53
  -4  -4   7    6.12    6.67
  -4  -4   7    2.40    8.88
  -4  -4   6   95.21   23.71
   4   4  -5  615.89   47.04
  -4  -4   5  528.64   51.49
   4   4  -4  560.18   43.46
  -4  -4   4  591.69   52.56
  -4  -4   3    1.19    7.23
   4   4  -3   14.86    7.05
   4   4  -2  441.62   35.84
  -4  -4   2  432.37   42.47
   4   4  -1  394.60   33.10
  -4  -4   1  396.69   39.47
   4   4   0  691.79   44.10
  -4  -4   0  632.64   49.56
   4   4   1   73.64   13.94
  -4  -4  -2  185.30   23.20
   4   4   2  156.73   19.88
  -4  -4  -3  636.50   45.68
   4   4   3  673.59   43.81
  -4  -4  -4  695.50   49.31
   4   4   4  774.99   48.27
  -4  -4  -5   86.19   15.50
  -4  -4  -5   61.08   15.11
   4   4   5  111.38   17.45
  -4  -4  -6  116.95   18.13
  -4  -4  -6  112.28   20.38
   4   4   6  123.61   19.21
  -4  -4  -7  303.89   29.79
  -4  -4  -7  289.85   33.97
   4   4   7  292.96   27.23
  -4  -4  -8  794.65   52.01
   4   4   8  828.65   50.50
   4   4   9  420.24   36.81
   4   4  10   26.20   10.56
   4   4  11  310.52   34.69
   4   4  12  813.54   61.54
   4   4  13  117.73   23.87
   4   4  14   12.67   10.57
   4   4  15   30.48   16.14
  -4  -5   7  330.01   45.56
  -4  -5   6  410.88   48.90
  -4  -5   5   78.39   20.68
  -4  -5   4   75.04   21.72
  -4  -5   3  669.43   57.82
  -4  -5   2  431.95   44.85
  -4  -5   1   51.06   15.76
   4   5  -1   31.55    8.38
  -4  -5   0  100.80   20.49
   4   5   0   76.94   13.17
   4   5   1  496.78   34.93
  -4  -5  -1  440.81   42.38
  -4  -5  -2 1140.06   62.68
   4   5   2 1183.92   58.49
  -4  -5  -2 1195.49   71.18
  -4  -5  -3  618.89   44.89
   4   5   3  592.62   39.83
  -4  -5  -3  625.22   48.83
  -4  -5  -4   37.13   10.78
   4   5   4   18.88    7.63
  -4  -5  -5  641.51   48.69
  -4  -5  -5  776.13   53.37
   4   5   5  647.21   44.50
  -4  -5  -6  845.97   56.79
  -4  -5  -6  876.32   59.91
   4   5   7  409.89   34.40
  -4  -5  -7  386.63   37.46
  -4  -5  -8   89.49   18.07
   4   5   8   89.26   17.24
  -4  -5  -9  596.35   48.32
   4   5   9  489.41   42.03
   4   5  10 1028.34   66.25
   4   5  11  530.72   48.14
   4   5  12    7.05    7.00
   4   5  13  198.53   32.17
   4   5  14  186.60   31.94
  -4  -6   6   70.15   24.59
   4   6  -5  539.33   57.39
  -4  -6   5  546.76   58.65
   4   6  -4  476.12   52.30
  -4  -6   4  561.25   57.39
   4   6  -3   40.80   16.01
  -4  -6   3   56.59   18.37
  -4  -6   2   38.80   14.63
  -4  -6   1  259.53   35.37
  -4  -6   0  450.03   46.03
  -4  -6  -1  281.76   35.43
  -4  -6  -2    4.73    6.08
  -4  -6  -2    6.44    4.82
  -4  -6  -3  322.75   32.00
  -4  -6  -3  331.58   36.50
  -4  -6  -4  486.93   41.07
  -4  -6  -4  525.40   45.90
  -4  -6  -5  541.08   47.55
  -4  -6  -5  508.42   43.29
  -4  -6  -5  416.09   40.39
  -4  -6  -6    1.04    6.33
  -4  -6  -6   -2.03    4.41
  -4  -6  -7  295.07   35.32
  -4  -6  -8  515.66   47.49
  -4  -6  -9  419.92   43.71
   4   6   9  483.41   44.12
  -4  -6 -10   29.09   12.02
   4   6  10   41.68   13.69
   4   6  11   68.57   17.83
   4   6  12  479.22   49.44
   4   6  13  154.29   29.04
   4   7  -4    9.50    8.51
  -4  -7   4   16.69   12.75
   4   7  -3  110.15   25.68
  -4  -7   3  178.70   33.69
   4   7  -2  249.84   37.44
  -4  -7   2  320.49   42.73
   4   7  -1  189.98   32.16
  -4  -7   1  195.94   32.63
   4   7   0   14.74    9.99
  -4  -7   0   -6.37   10.30
  -4  -7  -1  239.29   34.42
  -4  -7  -2  961.21   70.11
  -4  -7  -3  622.76   45.43
  -4  -7  -3  614.80   53.07
  -4  -7  -4    1.36    7.13
  -4  -7  -4    1.09    4.56
  -4  -7  -5  235.51   31.33
  -4  -7  -5  249.93   35.14
  -4  -7  -5  170.59   24.79
  -4  -7  -6  542.63   51.77
  -4  -7  -6  487.43   45.93
  -4  -7  -7  284.08   37.25
  -4  -7  -7  284.66   33.34
  -4  -7  -8  126.88   22.06
  -4  -7  -8  131.28   26.19
  -4  -7  -9   57.12   13.98
  -4  -7  -9   77.34   19.58
  -4  -7 -10  427.67   48.18
   4   7  10  454.52   46.10
   4   7  11  364.72   43.04
   4   8  -3  105.93   26.62
   4   8  -2  -15.41   10.66
  -4  -8   2    0.71   10.65
   4   8  -1   91.33   23.19
  -4  -8   1   84.36   24.13
   4   8   0  494.83   53.16
  -4  -8   0  527.78   56.07
   4   8   1  288.11   38.87
  -4  -8  -1  291.35   40.55
   4   8   2   72.78   19.16
  -4  -8  -2   36.65   15.08
  -4  -8  -3   67.04   17.74
  -4  -8  -4  376.27   42.89
  -4  -8  -5  526.51   54.33
  -4  -8  -5  427.31   41.01
  -4  -8  -5  471.40   48.19
  -4  -8  -6   48.48   16.97
  -4  -8  -6   44.61   14.64
  -4  -8  -7   90.41   23.05
  -4  -8  -7   77.99   18.65
  -4  -8  -8  427.94   49.74
  -4  -8  -8  459.09   43.66
  -4  -8  -9  441.88   51.11
  -4  -8 -10  215.56   35.95
  -4  -8 -11   -0.05    5.75
   4   9   0   -1.56   10.14
  -4  -9   0   20.12   12.17
   4   9   1   91.28   22.86
  -4  -9  -1   95.62   26.07
   4   9   2  180.97   32.20
  -4  -9  -2  273.33   40.42
   4   9   3  350.99   42.24
  -4  -9  -3  358.41   44.94
  -4  -9  -4  193.96   34.11
  -4  -9  -5   11.54   10.17
  -4  -9  -5  -17.62   10.88
  -4  -9  -6   56.76   20.32
  -4  -9  -6   61.80   17.79
  -4  -9  -7  389.72   49.73
  -4  -9  -7  347.01   40.92
  -4  -9  -8  238.34   39.50
  -4  -9  -9    3.14    5.62
  -4  -9 -10   74.83   23.44
  -4  -9 -11  370.80   50.92
   4  10   2  136.57   28.51
  -4 -10  -4  206.71   34.94
  -4 -10  -5  293.50   41.78
   5  -8  -3   28.28   11.63
   5  -8  -2   79.39   22.69
   5  -8  -1  193.19   34.45
   5  -8   0    2.65    9.46
   5  -7  -5  138.57   31.55
   5  -7  -4  421.72   53.37
   5  -7  -3  294.28   43.03
   5  -7  -2   38.15   16.39
   5  -7  -1  131.05   28.31
   5  -7   0  444.01   50.93
   5  -7   1  220.23   35.22
   5  -7   2   64.94   19.47
   5  -7   3   72.17   20.12
   5  -7   4  108.15   24.13
   5  -6  -6  490.91   58.93
   5  -6  -5  220.73   38.10
   5  -6  -4   74.10   21.62
   5  -6  -3   27.32   15.61
   5  -6  -2  242.39   36.97
   5  -6  -1  386.20   47.04
   5  -6   0  117.28   25.94
   5  -6   1   21.53   12.72
   5  -6   2  235.45   35.48
   5  -6   3  294.96   39.53
   5  -6   4  130.39   26.41
   5  -6   5   45.33   14.42
  -5   6  -6  186.35   35.89
   5  -6   6  119.48   25.35
   5  -6   7  368.72   44.84
   5  -6   8  152.62   29.15
   5  -5  -7  478.47   58.54
   5  -5  -6   41.21   16.55
   5  -5  -5   76.06   21.12
   5  -5  -4  206.99   36.15
   5  -5  -3  332.98   44.09
   5  -5  -2  111.61   25.20
   5  -5  -1   -3.00    6.54
   5  -5   0  254.34   36.40
   5  -5   1  794.98   66.72
   5  -5   2  227.04   34.32
   5  -5   3    1.37    7.09
   5  -5   4  121.34   25.16
   5  -5   5  587.00   56.09
   5  -5   6  449.49   48.71
   5  -5   7   30.01   14.84
  -5   5  -8  264.24   41.82
   5  -5   8  297.35   40.07
   5  -5   9  372.47   46.38
  -5   5  -9  397.60   52.43
   5  -4  -8  158.56   34.10
   5  -4  -7    0.79    9.08
   5  -4  -6  345.05   47.25
   5  -4  -5  261.34   40.31
   5  -4  -4  234.39   37.27
   5  -4  -3    7.32    8.90
   5  -4  -2  180.47   31.32
   5  -4  -1  723.71   62.99
   5  -4   0  603.13   56.52
   5  -4   1   46.42   15.54
   5  -4   2  197.77   31.24
   5  -4   3  332.21   40.89
   5  -4   4  589.97   54.94
   5  -4   5  102.65   22.55
   5  -4   6   60.33   18.28
   5  -4   7  249.75   35.95
   5  -4   8  435.35   48.09
  -5   4  -9   40.90   16.63
   5  -4   9   71.44   20.55
  -5   4 -10   11.79   10.83
  -5   4 -11  126.87   28.09
   5  -3  -8  102.49   27.00
   5  -3  -7  538.40   60.31
   5  -3  -6  360.32   47.36
   5  -3  -5   49.76   16.06
   5  -3  -4   80.13   21.54
   5  -3  -3  347.48   43.59
   5  -3  -2  666.34   60.13
   5  -3  -1   40.31   15.10
   5  -3   0  203.82   31.70
   5  -3   1  988.38   71.67
   5  -3   2  483.71   48.80
   5  -3   3   25.42   12.19
   5  -3   4   24.91    9.59
   5  -3   5  526.44   50.86
   5  -3   6  500.09   49.66
   5  -3   7  250.09   35.38
   5  -3   8   53.06   16.12
   5  -3   9  241.51   35.53
   5  -3  10  334.29   43.48
  -5   3 -10  362.04   45.56
  -5   3 -11  234.91   37.06
  -5   3 -12  -11.56    8.88
   5  -2  -9  236.46   41.06
   5  -2  -8  180.36   34.69
   5  -2  -7   -8.32   10.19
   5  -2  -6  150.32   30.00
   5  -2  -5  337.41   44.06
   5  -2  -4  171.85   30.26
   5  -2  -3   86.76   21.10
   5  -2  -2  154.46   27.89
   5  -2  -1  795.22   63.95
   5  -2   0  590.04   53.87
   5  -2   1  383.77   42.56
   5  -2   2   28.81   11.18
   5  -2   3  315.61   38.32
   5  -2   4  644.35   55.81
   5  -2   5  251.26   33.92
   5  -2   6    0.08    5.76
   5  -2   7  211.64   31.87
   5  -2   8  690.19   59.65
   5  -2   9  361.97   43.28
   5  -2  10    0.18    7.93
  -5   2 -11  153.30   28.51
   5  -1  -9   49.12   18.20
   5  -1  -8   64.32   21.61
   5  -1  -7  621.24   62.32
  -5   1   7  582.30   50.00
   5  -1  -6  901.88   74.57
   5  -1  -5  196.22   32.79
   5  -1  -4   46.15   17.06
   5  -1  -3  493.19   50.16
   5  -1  -2  737.26   61.29
   5  -1  -1   90.69   20.42
   5  -1   0    5.17    6.54
   5  -1   1  540.46   49.94
   5  -1   2  795.60   61.67
   5  -1   3  360.75   39.95
   5  -1   4  112.35   22.19
   5  -1   5  292.50   36.21
   5  -1   6 1089.18   73.50
   5  -1   7  674.91   57.45
   5  -1   8   90.62   20.35
   5  -1   9  148.84   26.92
  -5   1 -10  606.34   58.49
   5  -1  10  486.92   51.76
  -5   1 -11  242.54   37.59
  -5   1 -12   -3.47   10.03
  -5   1 -13   97.36   26.55
  -5   1 -14  209.69   37.25
   5   0 -10   13.41   10.46
   5   0  -9  119.30   28.35
  -5   0   8  252.28   33.76
   5   0  -8  233.54   38.64
  -5   0   7    7.44    7.13
   5   0  -7   -4.69   10.00
  -5   0   6    9.38    8.27
   5   0  -6   11.24   12.45
   5   0  -5  151.44   28.13
   5   0  -4  393.90   45.46
   5   0  -3  238.76   33.81
   5   0  -2   10.78    7.55
   5   0  -1  268.82   34.55
   5   0   0  731.59   58.07
   5   0   1 1028.05   69.45
   5   0   2   16.87   10.34
   5   0   3  238.15   31.92
   5   0   4  729.42   56.87
   5   0   5  317.75   36.92
   5   0   6   12.46    7.02
   5   0   7  151.67   26.05
  -5   0  -8  547.92   53.54
   5   0   8  507.92   49.17
  -5   0  -9  727.50   64.48
   5   0   9  800.55   63.46
  -5   0 -10   43.14   16.84
   5   0  10   29.82   13.12
  -5   0 -11   31.45   13.63
  -5   0 -12  228.67   36.87
  -5   0 -13  476.16   55.62
  -5   0 -14   96.48   25.91
   5   1 -10  137.32   30.55
   5   1  -9  131.58   29.21
  -5  -1   9  145.22   28.37
   5   1  -8    2.25    6.95
  -5  -1   8   30.10   12.72
   5   1  -7  368.48   46.41
  -5  -1   7  354.35   41.94
   5   1  -6  712.02   63.00
  -5  -1   6  569.67   52.58
   5   1  -5  395.27   45.86
  -5  -1   5  457.36   44.82
   5   1  -4   -2.70    6.82
   5   1  -3  212.98   31.47
   5   1  -2  398.71   42.27
   5   1  -1  429.75   43.50
   5   1   0  132.69   23.50
   5   1   1  250.52   32.52
   5   1   2  834.65   60.35
   5   1   3 1133.34   71.39
   5   1   4  218.74   30.11
   5   1   5  183.43   27.33
  -5  -1  -6  739.23   60.35
   5   1   6  826.25   60.91
  -5  -1  -7  904.22   68.07
   5   1   7 1008.79   68.97
  -5  -1  -8  448.01   47.69
   5   1   8  496.34   47.86
  -5  -1  -9   16.93   10.59
   5   1   9    2.57    6.41
  -5  -1 -10  423.10   48.89
  -5  -1 -11  307.35   42.31
  -5  -1 -12  179.42   33.96
  -5  -1 -13   24.48   14.47
  -5  -1 -14   69.62   22.60
   5   2  -9   66.99   21.23
  -5  -2   9   69.48   20.54
   5   2  -8  284.39   41.25
  -5  -2   8  258.39   38.15
   5   2  -7   58.43   18.60
  -5  -2   7  120.52   25.70
  -5  -2   6   80.43   20.70
   5   2  -6   59.28   19.35
  -5  -2   5   61.77   17.31
   5   2  -5   82.72   21.40
   5   2  -4  648.92   56.31
  -5  -2   4  785.82   60.48
   5   2  -3  569.37   50.76
  -5  -2   3  469.66   45.96
   5   2  -2   42.18   13.83
   5   2  -1   66.20   16.86
   5   2   0  852.09   60.65
   5   2   1  821.21   58.80
   5   2   2  273.66   32.55
   5   2   3   72.42   17.12
   5   2   4  371.23   38.54
  -5  -2  -5  114.11   22.01
   5   2   5   79.47   17.73
  -5  -2  -6  155.80   26.37
   5   2   6  132.88   23.05
  -5  -2  -7   31.29   12.79
   5   2   7    1.71    5.36
  -5  -2  -8  269.27   36.26
   5   2   8  276.62   34.58
  -5  -2  -9  903.85   70.69
   5   2   9  962.12   68.59
  -5  -2 -10  284.73   39.34
  -5  -2 -11    8.81    8.39
  -5  -2 -12  224.79   36.76
  -5  -2 -13  430.55   52.57
  -5  -2 -14  178.99   34.83
  -5  -3   9  185.19   34.95
  -5  -3   8   66.23   19.78
  -5  -3   7   48.40   17.66
   5   3  -6  385.53   43.66
  -5  -3   6  425.31   48.84
   5   3  -5  521.55   50.24
  -5  -3   5  583.81   55.41
  -5  -3   4   67.41   18.31
   5   3  -4   63.71   16.78
  -5  -3   3   26.61   13.22
   5   3  -3   58.41   16.24
  -5  -3   2  179.32   28.69
   5   3  -2  178.05   26.21
   5   3  -1  553.42   47.23
   5   3   0  226.09   29.47
   5   3   1   48.59   13.36
   5   3   2  373.89   37.54
   5   3   3 1389.32   77.25
  -5  -3  -4  233.54   22.80
  -5  -3  -4  206.43   28.89
   5   3   4  209.09   27.89
  -5  -3  -5   -2.81    6.84
   5   3   5    0.03    4.99
  -5  -3  -6  226.91   32.41
   5   3   6  286.29   33.25
  -5  -3  -7  956.06   69.31
   5   3   7 1005.32   66.45
  -5  -3  -8  698.72   59.31
   5   3   8  650.80   53.94
  -5  -3  -9   39.24   14.51
  -5  -3 -10  161.29   30.89
  -5  -3 -11  549.35   57.41
  -5  -3 -12  183.29   33.40
  -5  -3 -13    9.70   10.27
  -5  -4   7  288.42   43.04
  -5  -4   6   89.18   23.97
  -5  -4   5   51.05   19.23
  -5  -4   4  544.07   54.69
   5   4  -3  433.72   42.20
  -5  -4   3  527.54   52.70
  -5  -4   2   71.46   18.81
   5   4  -2   45.82   13.27
  -5  -4   1    3.17    6.31
   5   4  -1   -1.52    4.86
   5   4   0  378.53   36.81
  -5  -4   0  307.04   37.57
   5   4   1  667.15   49.29
   5   4   2  582.81   46.23
   5   4   3   15.16    8.09
  -5  -4  -4  159.21   25.29
   5   4   4  207.72   26.81
  -5  -4  -5  255.63   27.47
  -5  -4  -5  331.32   37.61
   5   4   5  290.15   32.29
  -5  -4  -6  619.48   43.23
  -5  -4  -6  683.27   55.89
   5   4   6  668.87   51.60
  -5  -4  -7   95.16   21.43
   5   4   7  130.93   22.80
  -5  -4  -8  213.72   32.20
  -5  -4  -9  878.34   69.40
  -5  -4 -10  575.96   57.31
  -5  -4 -11   32.22   15.03
  -5  -4 -12   94.08   24.24
  -5  -4 -13  103.10   24.95
  -5  -5   5  229.24   37.93
  -5  -5   4  203.04   35.14
  -5  -5   3   -2.45    6.95
  -5  -5   2   73.21   20.56
  -5  -5   1  366.31   43.66
  -5  -5   0  515.21   51.11
  -5  -5  -1   68.21   18.19
   5   5   1   69.13   15.63
  -5  -5  -2   65.22   17.71
   5   5   2  109.98   18.92
  -5  -5  -3  754.24   56.12
   5   5   3  804.20   53.29
  -5  -5  -4  447.99   43.84
   5   5   4  519.14   42.43
  -5  -5  -5   85.07   17.39
  -5  -5  -5   44.61   15.95
   5   5   5   72.96   15.88
  -5  -5  -6   78.14   16.89
  -5  -5  -6   58.49   16.83
   5   5   6   60.14   14.80
  -5  -5  -7  375.79   36.96
  -5  -5  -7  340.51   40.46
  -5  -5  -8  504.05   50.49
  -5  -5  -9  153.24   28.24
  -5  -5 -10   -2.95    8.64
  -5  -5 -11  199.04   35.19
  -5  -5 -12  253.39   40.76
  -5  -6   3  316.64   44.63
  -5  -6   2  155.51   30.27
  -5  -6   1   71.59   20.89
  -5  -6   0  104.54   24.08
  -5  -6  -1  580.40   56.10
  -5  -6  -2  503.55   50.86
  -5  -6  -3   54.14   16.61
  -5  -6  -3   62.57   15.66
  -5  -6  -4   72.28   19.34
  -5  -6  -4  105.96   21.05
  -5  -6  -5  465.17   44.96
  -5  -6  -5  386.50   41.28
  -5  -6  -5  399.37   43.37
  -5  -6  -6  404.08   41.67
  -5  -6  -6  329.66   39.00
  -5  -6  -7  242.97   32.57
  -5  -6  -7  221.99   32.67
  -5  -6  -8   36.33   12.60
  -5  -6  -8   57.17   16.88
  -5  -6  -9  386.24   45.93
  -5  -6 -10  326.48   43.04
  -5  -6 -11  291.69   42.49
  -5  -6 -12    5.07    9.12
  -5  -7   1  436.57   53.03
  -5  -7   0  366.37   46.95
  -5  -7  -1  108.30   24.83
  -5  -7  -2   -5.50   11.07
  -5  -7  -3  239.16   36.19
  -5  -7  -4  419.77   46.97
  -5  -7  -5  174.65   29.23
  -5  -7  -5  157.25   28.62
  -5  -7  -5  144.40   24.63
  -5  -7  -6   14.16    9.91
  -5  -7  -6   -3.28    7.32
  -5  -7  -6   -2.79    9.06
  -5  -7  -7   74.15   19.42
  -5  -7  -7   62.95   18.30
  -5  -7  -7  109.80   23.07
  -5  -7  -8  513.54   51.24
  -5  -7  -8  474.68   49.89
  -5  -7  -8  465.54   46.96
  -5  -7  -9  250.41   33.69
  -5  -7  -9  284.36   38.21
  -5  -7  -9  264.11   38.10
  -5  -7 -10   99.50   23.81
  -5  -7 -11  114.27   26.34
  -5  -8  -2  337.47   45.47
  -5  -8  -3  100.22   23.68
  -5  -8  -4    4.77    8.07
  -5  -8  -5  132.92   26.61
  -5  -8  -5  108.34   25.48
  -5  -8  -6  441.57   50.89
  -5  -8  -6  349.93   44.78
  -5  -8  -7  313.93   40.73
  -5  -8  -7  324.99   43.45
  -5  -8  -7  308.47   39.56
  -5  -8  -8    0.97    6.99
  -5  -8  -8    1.02    6.15
  -5  -8  -8    4.33    6.65
  -5  -8  -9   51.54   17.24
  -5  -8  -9   29.29   14.97
  -5  -8 -10  302.48   42.55
  -5  -9  -5  239.68   41.25
  -5  -9  -5  287.33   42.15
  -5  -9  -6   32.47   14.08
  -5  -9  -6   13.69   11.66
  -5  -9  -7   75.47   23.72
  -5  -9  -7   67.59   20.30
  -5  -9  -8  141.11   30.20
  -5  -9  -9  304.36   45.36
  -5  -9  -9  267.79   39.74
   6  -5  -2  269.28   42.86
   6  -5  -1  468.77   56.11
   6  -5   0   47.81   17.76
   6  -5   1   40.54   15.70
   6  -5   2  328.50   45.98
   6  -5   3  217.97   37.16
   6  -5   4   78.90   22.52
   6  -5   5  -11.92   10.01
   6  -5   6  145.77   29.45
   6  -4  -4  161.90   34.06
   6  -4  -3  186.83   36.40
   6  -4  -2  142.94   30.57
   6  -4  -1   38.25   14.08
   6  -4   0  230.89   37.82
   6  -4   1  320.17   44.41
   6  -4   2  178.14   34.03
   6  -4   3   15.09   10.01
   6  -4   4  171.29   32.33
   6  -4   5  405.97   50.26
   6  -4   6  121.52   27.09
   6  -4   7   10.86    7.17
   6  -3  -5  432.34   56.18
   6  -3  -4  160.51   33.80
   6  -3  -3   34.33   18.10
   6  -3  -2  301.76   44.10
   6  -3  -1  526.44   57.44
   6  -3   0  280.01   41.99
   6  -3   1    2.56    8.14
   6  -3   2  154.16   30.04
   6  -3   3  467.17   52.74
   6  -3   4  454.29   51.69
   6  -3   5   67.70   20.87
   6  -3   6   64.41   19.75
   6  -3   7  636.60   62.88
   6  -3   8  479.19   54.52
   6  -2  -5  -11.12   10.57
   6  -2  -4  226.62   38.78
   6  -2  -3  344.58   47.01
   6  -2  -2  168.51   31.80
   6  -2  -1   30.45   14.26
   6  -2   0   63.68   19.59
   6  -2   1  268.96   39.71
   6  -2   2  203.42   33.80
   6  -2   3  120.78   26.24
   6  -2   4  158.95   30.05
   6  -2   5  288.84   40.55
   6  -2   6  310.06   42.24
   6  -2   7  105.06   24.80
   6  -2   8   41.22   15.55
   6  -2   9  179.91   33.69
  -6   1   6   22.87   12.27
   6  -1  -6   -9.11    9.15
   6  -1  -5  307.75   45.67
   6  -1  -4  248.20   40.66
   6  -1  -3   -0.05    8.50
   6  -1  -2   62.30   20.35
   6  -1  -1  433.04   50.50
   6  -1   0  789.41   68.59
   6  -1   1   40.38   13.89
   6  -1   2   51.52   18.10
   6  -1   3  632.81   59.78
   6  -1   4  573.16   56.98
   6  -1   5   98.24   22.52
   6  -1   6  -11.08    8.54
   6  -1   7  438.44   49.85
   6  -1   8  509.94   54.55
   6  -1   9  120.58   26.86
   6  -1  10   -8.35    8.56
  -6   0   7  272.87   37.96
   6   0  -7  179.79   35.91
  -6   0   6  318.78   40.71
   6   0  -6  295.56   44.25
   6   0  -5    5.19    7.85
   6   0  -4   77.90   21.90
   6   0  -3  234.31   37.24
   6   0  -2  311.30   42.87
   6   0  -1  211.61   34.04
   6   0   0    2.58    8.61
   6   0   1  337.70   42.65
   6   0   2  525.06   53.46
   6   0   3  178.38   30.69
   6   0   4   89.44   20.98
   6   0   5  148.79   27.94
   6   0   6  440.65   48.79
   6   0   7  469.88   51.21
   6   0   8  -10.56    8.83
   6   0   9   64.20   18.88
   6   0  10  239.68   38.57
  -6  -1   7  232.46   37.87
   6   1  -7  236.98   41.25
  -6  -1   6    1.94   10.27
   6   1  -6   -4.97    8.58
  -6  -1   5  256.86   37.61
   6   1  -5  264.75   40.54
  -6  -1   4  217.72   34.07
   6   1  -4  272.31   41.22
   6   1  -3  145.02   29.50
   6   1  -2   23.26   11.14
   6   1  -1  396.08   46.24
   6   1   0  727.23   63.40
   6   1   1  237.68   35.18
   6   1   2   -3.29    6.92
   6   1   3  222.62   33.24
   6   1   4  220.34   34.15
   6   1   5  270.43   37.15
   6   1   6  173.12   30.02
   6   1   7   91.70   22.35
   6   1   8  416.73   47.65
  -6  -1  -9  336.70   46.07
   6   1   9  435.30   49.21
  -6  -1 -10   73.33   23.52
   6   1  10   50.15   16.58
  -6  -1 -11   65.04   21.17
   6   2  -7  176.73   34.80
   6   2  -6  305.28   43.35
  -6  -2   6  399.90   49.01
  -6  -2   5   20.51   15.03
   6   2  -5   34.20   15.39
  -6  -2   4    3.77    6.93
   6   2  -4   -2.87    8.36
  -6  -2   3  223.56   34.36
   6   2  -3  156.66   29.71
   6   2  -2  373.41   44.61
   6   2  -1  247.51   35.78
   6   2   0   66.53   17.80
   6   2   1  164.04   28.63
   6   2   2  566.05   53.26
   6   2   3  240.03   34.41
   6   2   4   10.94    9.66
   6   2   5  128.52   25.44
   6   2   6  764.38   63.11
   6   2   7  640.03   58.17
  -6  -2  -8   95.08   23.90
   6   2   8  139.50   26.87
  -6  -2  -9  100.56   25.50
   6   2   9  124.05   25.85
  -6  -2 -10  237.81   38.87
   6   2  10  307.90   41.53
  -6  -2 -11  207.98   38.22
  -6  -3   5  166.77   32.62
  -6  -3   4  157.59   31.53
   6   3  -4  205.35   33.15
  -6  -3   3  141.08   29.12
   6   3  -3  124.66   25.03
  -6  -3   2   -0.68    9.36
   6   3  -2   19.88   10.85
   6   3  -1  114.07   23.80
   6   3   0  535.76   51.52
   6   3   1  517.42   49.81
   6   3   2  119.42   23.19
   6   3   3   11.92    8.22
   6   3   4  125.69   23.75
   6   3   5  754.53   61.16
   6   3   6  321.90   39.76
  -6  -3  -7   -7.02    8.13
   6   3   7   13.51   10.90
  -6  -3  -8  276.56   41.36
   6   3   8  331.34   41.43
  -6  -3  -9  443.21   52.63
   6   3   9  450.70   49.28
  -6  -3 -10   57.38   20.35
  -6  -3 -11   21.41   11.93
  -6  -4   3   -9.82   10.27
  -6  -4   2  225.78   37.19
  -6  -4   1  466.39   52.57
  -6  -4   0   76.47   21.58
   6   4   0   91.55   20.24
   6   4   1   50.34   15.00
   6   4   2  535.91   49.22
   6   4   3  269.43   35.42
   6   4   4   21.42    9.67
   6   4   5   66.99   17.37
  -6  -4  -6  415.76   48.81
   6   4   6  409.05   43.94
  -6  -4  -7  444.46   50.81
   6   4   7  449.59   46.76
  -6  -4  -8  332.96   44.12
   6   4   8  302.68   38.92
  -6  -4  -9   -7.76    8.55
  -6  -4 -10   67.52   21.33
  -6  -5   1   29.61   16.76
  -6  -5   0  253.81   38.94
  -6  -5  -1  381.15   46.87
  -6  -5  -2  338.49   43.27
   6   5   4  128.52   23.41
   6   5   5  544.19   49.45
  -6  -5  -6  353.81   44.18
   6   5   6  353.11   39.91
  -6  -5  -7   -5.17    9.02
   6   5   7    6.94    5.63
  -6  -5  -8   77.48   20.67
  -6  -5  -9  289.74   43.00
  -6  -5 -10  290.27   43.10
  -6  -6  -2  176.63   33.41
  -6  -6  -3  171.03   31.27
  -6  -6  -4   96.50   23.83
  -6  -6  -5   81.72   21.14
  -6  -6  -5   68.79   19.82
  -6  -6  -6  116.37   24.99
  -6  -6  -7  339.85   43.81
  -6  -6  -8  409.95   50.06
  -6  -6  -9  138.22   29.63
  -6  -7  -5  323.30   43.87
  -6  -7  -6  196.87   34.59
  -6  -7  -6  194.96   32.74
  -6  -7  -7   35.77   15.19
  -6  -7  -7   29.85   14.58
  -6  -7  -8    3.34    8.00
  -6  -7  -8   -0.45    8.58
  -6  -7  -9  179.43   31.93
   7  -1   1  470.18   56.86
   7  -1   2  238.48   39.29
   7  -1   3    0.94    8.76
   7  -1   4   17.47   13.50
   7   0  -1  225.00   39.12
   7   0   0  185.85   36.43
   7   0   1    9.07   11.08
   7   0   2   56.56   18.52
   7   0   3  246.86   40.78
   7   0   4  205.93   36.07
   7   0   5  114.68   27.39
   7   1  -2  267.77   42.59
   7   1  -1  184.54   34.51
   7   1   0   10.24    8.44
   7   1   1  258.93   40.49
   7   1   2  267.02   41.00
   7   1   3  120.95   27.60
   7   1   4    3.34    7.24
   7   1   5  234.71   37.80
   7   1   6  537.66   58.43
   7   2  -3   66.14   20.31
   7   2  -2   -7.06    9.26
   7   2  -1  181.72   33.69
   7   2   0  297.17   43.42
   7   2   1   89.16   23.15
   7   2   2  -15.43   10.83
   7   2   3  193.30   33.73
   7   2   4  416.97   50.09
   7   2   5  343.93   45.61
   7   2   6    2.17    9.94
   7   2   7  154.21   30.00
   7   3  -1  239.88   37.80
   7   3   0  -30.51   14.19
   7   3   1  179.65   32.95
   7   3   2  234.20   37.03
   7   3   3   80.52   21.44
   7   3   4   31.12   15.64
   7   3   5   97.04   23.66
   7   3   6  385.90   47.38
   7   3   7  238.58   37.53
   7   4   2   24.51   11.19
   7   4   3  113.82   24.72
   7   4   4  445.82   49.82
   7   4   5  480.12   51.65
   7   4   6   65.45   20.65
   7   4   7   -5.66    9.84
   7   4   8  189.38   33.72
   7   5   7  266.48   38.83
   7   5   8  159.26   30.78


TITL OIK053_scale2 in P-1
REM P-1 (#2 in standard setting)
CELL 0.71073   5.677672   8.635945  13.136891  76.7655  78.6890  86.0091
ZERR    2.00   0.000297   0.000451   0.000810   0.0049   0.0048   0.0043
LATT  1
SFAC C H N O I
UNIT 22.00 32.00 2.00 4.00 2.00
TREF
HKLF 4
END
_computing_structure_solution     'SHELXT 2014/4 (Sheldrick, 2014)'
;
_shelx_hkl_checksum              36184
_ins_header
;
TITL OIK053_scale2 in P-1 
REM P-1 (#2 in standard setting)
CELL 0.71073   5.677672   8.635945  13.136891  76.7655  78.6890  86.0091
ZERR    2.00   0.000297   0.000451   0.000810   0.0049   0.0048   0.0043
LATT  1
SFAC C H N O I
UNIT 22.00 32.00 2.00 4.00 2.00
TREF
HKLF 4
END
;
_olex2_submission_special_instructions 'No special instructions were received'
_oxdiff_exptl_absorpt_empirical_details
;
Empirical correction (ABSPACK) includes:
- Absorption correction using spherical harmonics
- Frame scaling
;
_oxdiff_exptl_absorpt_empirical_full_max 1.109
_oxdiff_exptl_absorpt_empirical_full_min 0.863
loop_
_space_group_symop_operation_xyz
'x, y, z'
'-x, -y, -z'
loop_
_atom_site_label
_atom_site_type_symbol
_atom_site_fract_x
_atom_site_fract_y
_atom_site_fract_z
_atom_site_U_iso_or_equiv
_atom_site_adp_type
_atom_site_occupancy
_atom_site_site_symmetry_order
_atom_site_calc_flag
_atom_site_refinement_flags_posn
_atom_site_refinement_flags_adp
_atom_site_refinement_flags_occupancy
_atom_site_disorder_assembly
_atom_site_disorder_group
I1 I 0.29764(5) 0.22168(3) 0.61834(2) 0.01576(9) Uani 1 1 d . . . . .
O11 O 0.4643(5) 0.1940(3) 0.7565(2) 0.0214(7) Uani 1 1 d . . . . .
O13 O 0.6313(5) 0.4322(3) 0.6931(2) 0.0220(7) Uani 1 1 d . . . . .
N1 N 0.1181(6) 0.2260(4) 0.4767(3) 0.0133(7) Uani 1 1 d . . . . .
C2 C -0.0819(7) 0.3131(5) 0.4623(3) 0.0167(9) Uani 1 1 d . . . . .
H2 H -0.1503 0.3733 0.5114 0.020 Uiso 1 1 calc R . . . .
C3 C -0.1892(7) 0.3156(5) 0.3762(3) 0.0168(9) Uani 1 1 d . . . . .
H3 H -0.3281 0.3771 0.3679 0.020 Uiso 1 1 calc R . . . .
C4 C -0.0904(8) 0.2267(5) 0.3021(3) 0.0174(9) Uani 1 1 d . . . . .
C5 C 0.1174(7) 0.1361(5) 0.3186(4) 0.0192(10) Uani 1 1 d . . . . .
H5 H 0.1891 0.0741 0.2711 0.023 Uiso 1 1 calc R . . . .
C6 C 0.2149(8) 0.1394(5) 0.4057(3) 0.0195(10) Uani 1 1 d . . . . .
H6 H 0.3540 0.0790 0.4159 0.023 Uiso 1 1 calc R . . . .
C7 C -0.2019(8) 0.2283(5) 0.2071(3) 0.0256(11) Uani 1 1 d . . . . .
H7A H -0.2749 0.1280 0.2158 0.038 Uiso 1 1 calc GR . . . .
H7B H -0.0800 0.2458 0.1440 0.038 Uiso 1 1 calc GR . . . .
H7C H -0.3220 0.3121 0.2009 0.038 Uiso 1 1 calc GR . . . .
C12 C 0.5898(7) 0.3123(5) 0.7640(3) 0.0137(9) Uani 1 1 d . . . . .
C14 C 0.6685(7) 0.2889(4) 0.8709(3) 0.0142(9) Uani 1 1 d . . . . .
C15 C 0.7861(8) 0.1234(5) 0.9011(3) 0.0203(10) Uani 1 1 d . . . . .
H15A H 0.6730 0.0433 0.9058 0.030 Uiso 1 1 calc GR . . . .
H15B H 0.8343 0.1112 0.9687 0.030 Uiso 1 1 calc GR . . . .
H15C H 0.9245 0.1123 0.8478 0.030 Uiso 1 1 calc GR . . . .
C16 C 0.8451(7) 0.4173(5) 0.8660(3) 0.0199(10) Uani 1 1 d . . . . .
H16A H 0.9872 0.4062 0.8146 0.030 Uiso 1 1 calc GR . . . .
H16B H 0.8874 0.4058 0.9347 0.030 Uiso 1 1 calc GR . . . .
H16C H 0.7717 0.5204 0.8457 0.030 Uiso 1 1 calc GR . . . .
C17 C 0.4423(7) 0.3042(5) 0.9544(3) 0.0213(10) Uani 1 1 d . . . . .
H17A H 0.3731 0.4095 0.9378 0.032 Uiso 1 1 calc GR . . . .
H17B H 0.4845 0.2849 1.0236 0.032 Uiso 1 1 calc GR . . . .
H17C H 0.3277 0.2277 0.9541 0.032 Uiso 1 1 calc GR . . . .
loop_
_atom_site_aniso_label
_atom_site_aniso_U_11
_atom_site_aniso_U_22
_atom_site_aniso_U_33
_atom_site_aniso_U_23
_atom_site_aniso_U_13
_atom_site_aniso_U_12
I1 0.01779(17) 0.01447(16) 0.01638(16) -0.00444(12) -0.00545(11) 0.00028(11)
O11 0.0302(19) 0.0176(16) 0.0197(17) -0.0026(14) -0.0134(14) -0.0022(13)
O13 0.0287(19) 0.0192(17) 0.0176(17) 0.0019(14) -0.0094(14) -0.0019(13)
N1 0.0150(19) 0.0124(18) 0.0140(19) -0.0030(15) -0.0052(14) -0.0031(14)
C2 0.016(2) 0.014(2) 0.021(2) -0.0063(19) -0.0043(18) 0.0011(17)
C3 0.016(2) 0.012(2) 0.020(2) -0.0004(19) -0.0022(18) 0.0002(17)
C4 0.022(2) 0.015(2) 0.013(2) 0.0041(19) -0.0047(18) -0.0056(18)
C5 0.018(2) 0.016(2) 0.025(3) -0.008(2) -0.0012(19) -0.0015(18)
C6 0.017(2) 0.019(2) 0.025(3) -0.009(2) -0.0076(19) 0.0057(18)
C7 0.035(3) 0.022(3) 0.021(3) -0.001(2) -0.011(2) -0.004(2)
C12 0.010(2) 0.018(2) 0.013(2) -0.0041(19) -0.0019(16) 0.0027(17)
C14 0.016(2) 0.011(2) 0.016(2) -0.0024(19) -0.0050(17) 0.0004(17)
C15 0.024(3) 0.017(2) 0.021(3) -0.005(2) -0.008(2) 0.0054(19)
C16 0.020(3) 0.020(2) 0.024(3) -0.009(2) -0.0076(19) -0.0008(18)
C17 0.018(2) 0.023(2) 0.023(3) -0.008(2) -0.0042(19) 0.0040(18)
loop_
_atom_type_symbol
_atom_type_description
_atom_type_scat_dispersion_real
_atom_type_scat_dispersion_imag
_atom_type_scat_source
C C 0.0033 0.0016 'International Tables Vol C Tables 4.2.6.8 and 6.1.1.4'
H H 0.0000 0.0000 'International Tables Vol C Tables 4.2.6.8 and 6.1.1.4'
I I -0.4742 1.8119 'International Tables Vol C Tables 4.2.6.8 and 6.1.1.4'
N N 0.0061 0.0033 'International Tables Vol C Tables 4.2.6.8 and 6.1.1.4'
O O 0.0106 0.0060 'International Tables Vol C Tables 4.2.6.8 and 6.1.1.4'
loop_
_exptl_crystal_face_index_h
_exptl_crystal_face_index_k
_exptl_crystal_face_index_l
_exptl_crystal_face_perp_dist
7 6 7 0.0684
0 -12 -8 0.0662
5 10 9 0.0733
-3 10 6 0.1026
-7 -6 -7 0.0736
1 -2 17 0.0165
5 10 2 0.0618
-4 9 -6 0.0904
0 12 0 0.0863
-1 1 -18 0.0068
6 7 -3 0.0525
0 2 18 0.0390
0 -5 -18 0.0279
2 6 -13 0.0207
2 4 -14 0.0135
loop_
_geom_angle_atom_site_label_1
_geom_angle_atom_site_label_2
_geom_angle_atom_site_label_3
_geom_angle
_geom_angle_site_symmetry_1
_geom_angle_site_symmetry_3
_geom_angle_publ_flag
O11 I1 N1 174.71(10) . . ?
C12 O11 I1 118.4(2) . . ?
C2 N1 I1 121.8(3) . . ?
C6 N1 I1 119.4(3) . . ?
C6 N1 C2 118.8(4) . . ?
N1 C2 H2 119.2 . . ?
N1 C2 C3 121.6(4) . . ?
C3 C2 H2 119.2 . . ?
C2 C3 H3 119.9 . . ?
C2 C3 C4 120.1(4) . . ?
C4 C3 H3 119.9 . . ?
C3 C4 C5 117.5(4) . . ?
C3 C4 C7 121.3(4) . . ?
C5 C4 C7 121.1(4) . . ?
C4 C5 H5 120.4 . . ?
C6 C5 C4 119.3(4) . . ?
C6 C5 H5 120.4 . . ?
N1 C6 C5 122.7(4) . . ?
N1 C6 H6 118.7 . . ?
C5 C6 H6 118.7 . . ?
C4 C7 H7A 109.5 . . ?
C4 C7 H7B 109.5 . . ?
C4 C7 H7C 109.5 . . ?
H7A C7 H7B 109.5 . . ?
H7A C7 H7C 109.5 . . ?
H7B C7 H7C 109.5 . . ?
O11 C12 C14 113.6(3) . . ?
O13 C12 O11 123.1(4) . . ?
O13 C12 C14 123.3(3) . . ?
C12 C14 C15 110.8(3) . . ?
C12 C14 C16 109.7(3) . . ?
C12 C14 C17 107.3(3) . . ?
C15 C14 C17 109.3(3) . . ?
C16 C14 C15 109.9(3) . . ?
C16 C14 C17 109.8(3) . . ?
C14 C15 H15A 109.5 . . ?
C14 C15 H15B 109.5 . . ?
C14 C15 H15C 109.5 . . ?
H15A C15 H15B 109.5 . . ?
H15A C15 H15C 109.5 . . ?
H15B C15 H15C 109.5 . . ?
C14 C16 H16A 109.5 . . ?
C14 C16 H16B 109.5 . . ?
C14 C16 H16C 109.5 . . ?
H16A C16 H16B 109.5 . . ?
H16A C16 H16C 109.5 . . ?
H16B C16 H16C 109.5 . . ?
C14 C17 H17A 109.5 . . ?
C14 C17 H17B 109.5 . . ?
C14 C17 H17C 109.5 . . ?
H17A C17 H17B 109.5 . . ?
H17A C17 H17C 109.5 . . ?
H17B C17 H17C 109.5 . . ?
loop_
_geom_bond_atom_site_label_1
_geom_bond_atom_site_label_2
_geom_bond_distance
_geom_bond_site_symmetry_2
_geom_bond_publ_flag
I1 O11 2.166(3) . ?
I1 N1 2.283(3) . ?
O11 C12 1.317(4) . ?
O13 C12 1.225(5) . ?
N1 C2 1.338(5) . ?
N1 C6 1.338(5) . ?
C2 H2 0.9300 . ?
C2 C3 1.381(5) . ?
C3 H3 0.9300 . ?
C3 C4 1.385(6) . ?
C4 C5 1.395(6) . ?
C4 C7 1.503(5) . ?
C5 H5 0.9300 . ?
C5 C6 1.372(6) . ?
C6 H6 0.9300 . ?
C7 H7A 0.9600 . ?
C7 H7B 0.9600 . ?
C7 H7C 0.9600 . ?
C12 C14 1.522(5) . ?
C14 C15 1.535(5) . ?
C14 C16 1.528(5) . ?
C14 C17 1.536(5) . ?
C15 H15A 0.9600 . ?
C15 H15B 0.9600 . ?
C15 H15C 0.9600 . ?
C16 H16A 0.9600 . ?
C16 H16B 0.9600 . ?
C16 H16C 0.9600 . ?
C17 H17A 0.9600 . ?
C17 H17B 0.9600 . ?
C17 H17C 0.9600 . ?
loop_
_exptl_oxdiff_crystal_face_indexfrac_h
_exptl_oxdiff_crystal_face_indexfrac_k
_exptl_oxdiff_crystal_face_indexfrac_l
_exptl_oxdiff_crystal_face_x
_exptl_oxdiff_crystal_face_y
_exptl_oxdiff_crystal_face_z
7.0292 6.3643 7.1905 -0.0841 0.2838 0.9552
0.4596 -11.6565 -8.2613 -0.2095 0.7068 -0.6756
4.5242 10.1588 9.0127 0.0483 -0.1630 0.9854
-3.4696 10.1937 6.0953 0.2668 -0.9003 0.3438
-7.0374 -6.3433 -7.1783 0.0847 -0.2857 -0.9546
0.6378 -2.1688 16.9092 0.9531 0.2825 0.1086
5.1515 9.5310 1.8188 -0.3642 -0.1078 0.9251
-4.1910 8.6822 -6.0144 -0.3326 -0.9396 0.0814
-0.0668 11.8766 0.2228 -0.2580 -0.7291 0.6339
-1.3366 0.9703 -17.6324 -0.9322 -0.2762 -0.2339
5.7826 6.8637 -3.4985 -0.6264 0.0825 0.7751
-0.3294 1.5423 17.9203 0.9695 -0.0253 0.2439
-0.1765 -5.2211 -17.7959 -0.8538 0.2048 -0.4786
1.6864 5.7808 -12.6602 -0.9123 -0.2703 0.3076
1.8567 4.3963 -13.8826 -0.9560 -0.1773 0.2337
loop_
_hkl_oxdiff_h
_hkl_oxdiff_k
_hkl_oxdiff_l
_hkl_oxdiff_f2
_hkl_oxdiff_sig
_hkl_oxdiff_ba
0 0 -2 6639.95 576.258 2
0 0 2 6102.82 557.135 2
0 0 -3 98793.5 3435.03 2
0 0 3 96036.5 3410.43 2
0 0 4 219013. 6907.30 2
0 0 4 224759. 7762.68 1
0 0 -4 234734. 6982.88 2
0 0 -5 77181.6 3465.42 6
0 0 5 80639.6 4222.94 1
0 0 -5 82712.3 3501.06 2
0 0 5 79080.2 3435.40 2
0 0 6 17881.6 1560.57 2
0 0 -6 17181.0 1540.86 2
0 0 -6 17745.3 1603.29 6
0 0 6 18653.4 2078.30 1
0 0 -7 40267.4 2561.39 2
0 0 7 38213.2 3238.67 1
0 0 7 38909.5 2577.96 2
0 0 -8 154638. 6211.95 2
0 0 8 162875. 7821.04 1
0 0 9 89104.3 5779.12 1
0 0 -9 82198.1 4334.51 2
0 0 -10 25158.3 2332.81 2
0 0 10 21260.9 2902.63 1
0 0 11 1843.36 1109.71 1
0 0 -11 -18.8256 348.812 2
0 0 12 91601.5 6937.83 1
0 0 -12 94555.8 5311.60 2
0 0 13 95603.8 7379.71 1
0 0 14 28674.0 4103.88 1
0 0 15 2240.53 1387.40 1
0 -1 15 44731.6 5494.89 1
0 -1 14 37980.6 4831.16 1
0 -1 13 5451.61 1757.68 1
0 1 -13 4358.03 1334.24 2
0 1 -12 13993.2 2052.35 2
0 -1 12 12485.2 2566.42 1
0 -1 11 20521.0 3076.32 1
0 1 -11 21299.3 2457.14 2
0 -1 10 60239.0 5134.43 1
0 1 -10 72363.5 4556.97 2
0 -1 9 55912.7 4598.99 1
0 1 -9 57094.1 3920.75 2
0 1 -8 6418.97 1247.82 2
0 1 -7 188261. 7518.43 2
0 1 -6 267816. 9380.16 2
0 1 -5 95168.1 4443.79 6
0 -1 5 94001.9 4352.55 2
0 1 -5 92168.6 4394.50 2
0 1 -4 13223.7 1368.78 2
0 -1 4 13418.4 1363.03 2
0 1 -3 95480.1 3845.16 2
0 -1 3 83234.2 3665.61 2
0 1 -2 55866.5 2572.80 2
0 -1 2 54005.9 2540.97 2
0 1 -1 278805. 7940.61 2
0 -1 1 282229. 7940.08 2
0 -1 0 2195.72 353.021 2
0 1 0 2003.98 320.722 2
0 -1 -1 109549. 3571.48 1
0 1 1 108976. 3586.18 1
0 1 1 106503. 3517.52 5
0 -1 -1 107467. 3529.43 5
0 -1 -2 41267.4 1947.78 1
0 -1 -2 38794.0 1921.59 5
0 1 2 34630.1 1837.01 5
0 1 2 36754.1 1872.16 1
0 -1 -3 217686. 6871.71 1
0 1 3 211600. 5639.62 2
0 1 3 214774. 6885.38 1
0 -1 -4 1395.38 511.259 1
0 1 4 747.009 210.768 2
0 1 4 638.772 326.363 1
0 -1 -5 9552.96 802.278 2
0 1 5 9810.29 1327.46 1
0 -1 -5 11303.2 899.991 6
0 1 5 8917.09 838.981 2
0 -1 -6 116086. 4225.93 6
0 1 6 121966. 4305.13 2
0 1 6 117606. 5641.15 1
0 -1 -6 119013. 4173.31 2
0 1 7 294795. 11093.5 1
0 -1 -7 284188. 9006.87 2
0 1 7 321877. 9310.83 2
0 -1 -7 317491. 9291.06 6
0 -1 -8 51089.2 2795.13 6
0 -1 -8 52199.4 2747.98 2
0 1 8 49083.9 3892.99 1
0 1 8 52124.5 2848.05 2
0 -1 -9 26956.5 2070.45 6
0 1 9 25795.7 2944.43 1
0 -1 -9 28118.9 2062.76 2
0 1 9 26540.8 2059.28 2
0 1 10 20937.0 2778.20 1
0 -1 -10 24910.4 2024.27 2
0 1 11 58835.6 5076.51 1
0 1 12 10060.5 2236.36 1
0 1 13 1749.35 863.027 1
0 1 14 20902.7 3438.71 1
0 1 15 60929.0 6242.06 1
0 1 16 7269.99 2329.38 1
0 -2 14 1379.34 1231.77 1
0 -2 13 48037.6 5365.19 1
0 2 -13 45975.9 4301.40 2
0 2 -12 48121.3 4264.50 2
0 -2 12 48149.7 5103.53 1
0 2 -11 19122.0 2570.50 2
0 -2 11 14018.9 2670.20 1
0 2 -10 4997.56 1256.27 2
0 2 -9 30575.5 3074.62 2
0 2 -8 120769. 6386.89 2
0 2 -7 186112. 8073.30 2
0 2 -6 3593.47 981.691 2
0 2 -5 102037. 5120.22 2
0 2 -4 151335. 6317.18 2
0 2 -4 150807. 4643.60 4
0 2 -3 140808. 4597.52 3
0 -2 3 129807. 5499.55 2
0 2 -3 132025. 5578.64 6
0 2 -3 133535. 5578.17 2
0 2 -3 136066. 3991.17 4
0 2 -2 12465.7 1380.97 2
0 -2 2 12226.0 1310.36 2
0 2 -2 12156.4 836.879 3
0 -2 1 235813. 7510.32 2
0 2 -1 226471. 7439.12 2
0 2 0 865197. 22704.6 6
0 2 0 882159. 22783.9 2
0 -2 0 884956. 22838.6 2
0 2 1 193699. 6056.62 2
0 -2 -1 196617. 6554.47 1
0 2 1 207019. 5949.45 6
0 2 1 193395. 6532.26 1
0 -2 -2 35251.6 2190.12 5
0 2 2 35930.4 2237.99 1
0 2 2 39061.8 1531.58 6
0 -2 -2 39660.6 2304.00 1
0 2 3 2475.43 677.353 1
0 2 3 1619.47 469.952 5
0 -2 -3 2010.09 561.934 1
0 -2 -3 1901.78 543.529 5
0 2 4 55118.1 3186.59 1
0 -2 -4 59632.1 3252.62 1
0 2 4 53851.6 3159.23 5
0 2 5 235026. 8539.07 1
0 2 5 234435. 6390.79 2
0 2 6 128988. 5825.62 1
0 2 6 119271. 3675.17 2
0 -2 -7 1831.94 330.543 6
0 2 7 2194.10 414.549 2
0 2 7 2659.85 935.437 1
0 2 8 173883. 5566.53 2
0 -2 -8 163306. 5270.39 6
0 -2 -9 145680. 4986.86 6
0 2 9 143525. 5140.92 2
0 -2 -10 69965.3 3198.53 6
0 2 10 75364.4 5448.05 1
0 2 11 670.644 694.422 1
0 2 12 86305.2 6556.89 1
0 2 13 60770.0 5675.66 1
0 2 14 67954.3 6343.01 1
0 2 15 797.967 1133.29 1
0 2 16 7166.72 2264.48 1
0 3 -14 25997.9 3535.96 2
0 -3 14 25030.7 4080.75 1
0 -3 13 12070.4 2786.20 1
0 3 -13 15501.5 2682.19 2
0 3 -12 1213.14 836.059 2
0 3 -11 10820.7 2190.32 2
0 3 -10 95633.0 6346.80 2
0 3 -9 73794.1 5315.29 2
0 3 -9 64555.2 3326.65 4
0 3 -8 -299.852 296.341 4
0 3 -8 44.1256 401.246 2
0 3 -7 72825.6 3129.14 4
0 3 -7 72830.7 4992.58 2
0 3 -6 205170. 6309.24 4
0 3 -6 209957. 9029.51 2
0 3 -5 87996.4 5070.43 2
0 3 -5 79950.7 3814.82 3
0 3 -4 10558.9 1088.72 3
0 3 -4 9177.77 1494.21 2
0 3 -3 13877.2 1702.62 2
0 3 -3 12945.7 1058.43 3
0 3 -2 105051. 3446.67 3
0 3 -2 113398. 5156.32 2
0 -3 1 169966. 6601.57 2
0 -3 1 166008. 4597.00 3
0 3 -1 170915. 6506.86 6
0 3 -1 167340. 6532.21 2
0 3 -1 171965. 4699.07 3
0 -3 0 101799. 3112.37 3
0 -3 0 102944. 4477.76 2
0 3 0 98842.8 4428.72 2
0 3 0 97080.1 4287.26 6
0 -3 -1 2677.63 708.948 1
0 3 1 1423.67 444.577 2
0 3 1 2553.01 538.395 6
0 3 2 326960. 10646.3 1
0 -3 -2 323854. 10538.3 5
0 3 2 326226. 9716.14 2
0 -3 -2 348558. 10811.0 1
0 3 2 316724. 9335.61 6
0 -3 -3 258166. 9003.31 5
0 3 3 261116. 7267.67 6
0 3 3 251042. 7762.48 2
0 3 3 260773. 9143.26 1
0 -3 -4 89064.1 4643.49 5
0 3 4 98709.2 4885.60 1
0 -3 -5 1446.74 630.952 5
0 3 5 824.271 435.207 1
0 3 6 167527. 7411.74 1
0 3 7 240011. 9568.04 1
0 3 7 221888. 6249.62 2
0 3 8 88215.7 5433.52 1
0 3 8 79142.5 2816.71 2
0 3 9 658.670 246.352 2
0 3 9 346.698 665.604 1
0 3 10 4540.37 1360.26 1
0 3 11 31477.3 3693.75 1
0 3 12 19481.8 2995.22 1
0 3 13 10686.3 2402.56 1
0 3 14 5622.12 1833.52 1
0 3 15 46940.7 5531.88 1
0 3 16 23797.1 4069.77 1
0 4 -14 5746.38 1722.30 2
0 4 -13 9251.96 2246.25 2
0 4 -12 56698.6 5454.80 2
0 4 -11 36120.5 4181.19 2
0 4 -10 12533.6 2369.10 2
0 4 -9 11551.9 2251.14 2
0 4 -8 85965.1 6091.48 2
0 4 -7 98675.6 6359.19 2
0 4 -6 22906.9 2805.27 2
0 4 -5 7045.62 962.721 3
0 4 -5 7681.65 1578.32 2
0 4 -4 59292.3 4253.87 2
0 4 -4 58239.9 2783.64 3
0 4 -3 113309. 5867.29 2
0 4 -3 102885. 3692.29 3
0 4 -2 116086. 5806.85 2
0 4 -2 115339. 3646.37 3
0 4 -1 197.465 428.640 2
0 4 0 108625. 5179.19 2
0 -4 0 107009. 3393.61 3
0 4 1 277135. 9368.96 2
0 4 1 262120. 9029.96 6
0 4 2 164614. 5971.38 6
0 4 2 165657. 6421.93 2
0 4 3 4384.66 812.978 2
0 -4 -3 3540.22 910.142 5
0 4 3 4434.60 662.455 6
0 4 3 4454.54 1045.76 1
0 4 4 34402.3 2896.40 1
0 4 4 27004.3 1568.65 6
0 -4 -4 31744.1 2778.02 5
0 4 4 28980.8 1990.43 2
0 -4 -5 203304. 8313.04 5
0 4 5 198099. 8313.09 1
0 4 6 74996.2 4723.33 1
0 4 6 59669.9 2783.35 2
0 -4 -6 68022.0 4511.99 5
0 4 7 6870.10 1472.69 1
0 4 8 36042.0 3511.73 1
0 4 8 33902.2 1526.53 2
0 4 9 80933.7 2630.30 2
0 4 9 127742. 7055.77 1
0 4 10 94464.4 6523.01 1
0 4 11 8485.66 2012.24 1
0 4 12 19004.4 3122.03 1
0 4 13 44461.9 4966.05 1
0 4 14 52234.9 5597.89 1
0 4 15 9344.97 2463.09 1
0 5 -13 24792.8 3850.95 2
0 5 -12 878.612 777.718 2
0 5 -11 5796.79 1885.06 2
0 5 -10 41536.0 4648.38 2
0 5 -9 53420.3 5226.98 2
0 5 -8 10120.2 2156.37 2
0 5 -7 2344.87 1162.97 2
0 5 -6 36137.0 3831.05 2
0 5 -5 128604. 7510.71 2
0 5 -4 33956.1 3414.25 2
0 5 -4 32771.4 1859.35 3
0 5 -3 2363.70 408.408 3
0 -5 3 2661.76 433.483 4
0 5 -3 2084.11 759.294 2
0 5 -2 61998.5 4399.68 2
0 5 -1 220995. 9165.65 2
0 -5 0 84466.8 2871.85 3
0 5 0 92919.0 5115.08 2
0 -5 -1 4235.02 598.803 3
0 5 1 3391.91 972.527 2
0 5 2 156652. 6714.83 2
0 5 3 184396. 6795.45 6
0 5 3 194308. 7444.53 2
0 -5 -3 191044. 8372.51 5
0 5 4 53045.3 3216.01 2
0 5 4 54679.9 4109.00 1
0 5 4 53138.7 2793.00 6
0 -5 -4 60480.3 4275.99 5
0 -5 -5 -580.775 528.802 5
0 5 5 -76.9832 324.638 2
0 5 5 692.669 494.422 1
0 5 6 28361.4 3105.18 1
0 5 6 26082.6 1960.97 2
0 -5 -6 30968.3 3158.99 5
0 5 7 90502.6 3896.49 2
0 5 7 108260. 6442.33 1
0 -5 -7 98539.6 6141.97 5
0 5 8 136332. 7618.80 1
0 5 8 121518. 4446.44 2
0 5 9 35840.5 3875.41 1
0 5 10 -386.417 648.521 1
0 5 11 53201.9 5201.90 1
0 5 12 68172.8 6130.77 1
0 5 13 11758.0 2657.96 1
0 5 14 973.029 840.057 1
0 5 15 26513.5 4264.52 1
0 6 -11 12254.1 2812.85 2
0 6 -10 10087.7 2547.62 2
0 6 -9 927.478 755.251 2
0 6 -8 22586.9 3633.47 2
0 6 -7 59172.2 5570.98 2
0 6 -6 75075.3 6080.69 2
0 6 -5 6123.57 1640.82 2
0 6 -4 51241.1 4645.90 2
0 6 -3 95509.9 6277.59 2
0 6 -2 130780. 7319.52 2
0 6 -1 8602.45 1662.03 2
0 6 0 35979.7 3364.31 2
0 -6 0 35629.8 1425.00 3
0 -6 -1 87681.7 3366.11 3
0 6 1 88253.6 5310.73 2
0 -6 -2 158963. 5735.54 3
0 6 2 165264. 7526.43 2
0 -6 -3 26233.3 2961.30 5
0 6 3 22706.4 2377.92 2
0 6 4 6330.10 1215.22 2
0 -6 -4 10903.0 1889.78 5
0 6 5 52443.3 3439.92 2
0 -6 -5 60708.5 4698.95 5
0 6 5 51609.7 2883.59 6
0 6 5 54248.6 4491.94 1
0 6 6 93402.8 4665.65 2
0 -6 -6 97020.2 6315.80 5
0 6 6 101371. 6478.20 1
0 6 7 59790.0 3359.82 2
0 6 7 60978.6 5018.53 1
0 -6 -7 52201.9 4664.33 5
0 -6 -8 550.137 758.790 5
0 6 8 -187.290 747.853 1
0 6 8 80.3431 246.911 2
0 6 9 60904.1 5372.32 1
0 6 10 115671. 7910.96 1
0 6 11 21987.3 3396.87 1
0 6 12 89.8646 538.148 1
0 6 13 10726.6 2574.27 1
0 6 14 32203.5 4631.47 1
0 6 15 27705.7 4478.28 1
0 7 -10 27325.8 4266.61 2
0 7 -9 45569.9 5436.13 2
0 7 -8 27986.9 4161.35 2
0 7 -7 5401.33 1845.52 2
0 7 -6 13168.1 2644.34 2
0 7 -5 90224.4 6991.32 2
0 7 -4 24906.4 3431.60 2
0 7 -3 -1209.39 842.098 2
0 7 -2 11978.8 2242.66 2
0 7 -1 71128.1 5414.74 2
0 7 0 55994.7 4647.84 2
0 -7 -1 46973.9 2089.93 3
0 7 1 49251.1 4150.24 2
0 7 2 7509.22 1566.83 2
0 -7 -2 6626.97 909.315 3
0 -7 -3 99400.3 4513.60 3
0 7 3 95699.3 5726.78 2
0 -7 -3 98665.8 6472.25 5
0 -7 -4 62083.8 5020.89 5
0 7 4 52181.5 3939.74 2
0 -7 -5 30518.3 3517.51 5
0 7 5 23463.9 2528.15 2
0 -7 -6 619.904 710.073 5
0 7 6 -565.717 878.231 1
0 7 6 354.065 367.589 2
0 7 7 72895.4 4276.38 2
0 -7 -7 71629.7 5846.47 5
0 7 7 74941.6 6001.23 1
0 -7 -8 80392.7 6410.24 5
0 7 8 82885.2 6467.96 1
0 7 9 49855.4 5058.50 1
0 7 10 906.072 929.222 1
0 7 11 47857.8 5285.93 1
0 7 12 33928.8 4583.68 1
0 7 13 27035.3 4196.48 1
0 7 14 161.421 1041.07 1
0 8 -8 4099.15 1673.48 2
0 8 -7 45764.7 5511.84 2
0 8 -6 59457.6 6099.38 2
0 8 -5 5236.98 1861.37 2
0 8 -4 8956.24 2246.02 2
0 8 -3 40976.9 4667.23 2
0 8 -2 70732.5 6008.35 2
0 8 -1 12886.9 2445.64 2
0 8 0 1682.04 1100.24 2
0 8 1 33394.2 3713.25 2
0 8 2 114437. 6999.02 2
0 -8 -3 35201.4 4043.97 5
0 8 3 42144.6 3910.36 2
0 -8 -4 1212.61 830.926 5
0 8 4 495.696 642.712 2
0 -8 -5 30466.2 3816.48 5
0 8 5 25401.1 2907.72 2
0 8 6 77538.3 4996.61 2
0 -8 -6 83989.1 6535.20 5
0 8 7 59150.0 5559.45 1
0 -8 -7 54192.1 5374.78 5
0 8 8 10825.8 2401.21 1
0 -8 -8 6148.06 1843.97 5
0 -8 -9 9821.43 2483.29 5
0 8 9 12766.6 2646.43 1
0 8 10 93484.3 7624.02 1
0 8 11 21078.0 3597.11 1
0 8 12 7325.63 2233.26 1
0 8 13 -485.956 1192.15 1
0 9 -5 18812.0 3615.57 2
0 9 -4 23873.6 3848.55 2
0 9 -3 13792.4 2925.12 2
0 9 -2 -853.931 841.893 2
0 9 -1 14624.5 2882.62 2
0 9 0 88234.5 6900.50 2
0 9 1 89782.4 6796.26 2
0 9 2 -436.722 883.997 2
0 9 3 30599.9 3672.06 2
0 -9 -3 35169.9 4334.15 5
0 -9 -4 55233.0 5493.09 5
0 9 4 54060.5 4739.46 2
0 9 5 26729.5 3153.29 2
0 -9 -5 27767.9 3875.57 5
0 -9 -6 5328.31 1797.86 5
0 -9 -7 11954.3 2577.86 5
0 -9 -8 28614.2 4088.11 5
0 -9 -9 50029.6 5599.15 5
0 9 9 39401.7 4979.33 1
0 9 10 3381.87 1572.81 1
0 9 11 7911.09 2294.34 1
0 10 -3 18069.7 3525.11 2
0 10 -2 21041.1 3745.49 2
0 10 -1 9116.55 2430.93 2
0 10 0 10198.6 2414.67 2
0 10 1 13585.3 2815.76 2
0 -10 -2 25767.8 3922.58 5
0 10 2 25159.5 3720.81 2
0 10 3 27119.0 3747.31 2
0 -10 -3 26087.9 3961.80 5
0 10 4 1683.94 878.449 2
0 -10 -4 3181.63 1332.10 5
0 -10 -5 3623.78 1499.99 5
0 -10 -6 32605.6 4574.41 5
0 -10 -7 53269.9 5941.79 5
0 -10 -8 21455.9 3832.12 5
0 -10 -9 877.891 768.619 5
0 11 0 49940.3 5883.17 2
0 11 1 29427.8 4393.41 2
0 11 2 3098.93 1478.33 2
0 11 3 4158.78 1688.20 2
0 -11 -3 923.625 1095.35 5
1 -11 -4 10958.1 2726.25 5
-1 11 3 32116.2 4405.58 2
1 -11 -3 28487.1 4482.23 5
1 -11 -2 21669.8 3823.63 5
-1 11 2 18100.9 3417.29 2
-1 11 1 -421.529 1095.86 2
1 -11 -1 -1696.03 1230.83 5
1 -10 -8 16814.1 3394.47 5
1 -10 -7 656.904 1208.86 5
1 -10 -6 11793.1 2802.28 5
1 -10 -5 25160.1 3880.44 5
-1 10 4 32621.4 4041.02 2
1 -10 -4 30623.1 4269.93 5
1 -10 -3 1025.02 789.774 5
-1 10 3 -159.675 569.031 2
1 -10 -2 52804.8 5674.82 5
-1 10 2 53731.2 5425.66 2
-1 10 1 65426.1 6135.47 2
1 -10 -1 62497.3 6153.80 5
-1 10 0 9446.84 2324.52 2
-1 10 -1 4604.68 1788.06 2
-1 10 -2 11404.1 2682.08 2
-1 9 10 21096.6 3858.99 1
-1 9 9 -411.671 575.665 1
1 -9 -8 22147.0 3713.22 5
1 -9 -7 55388.0 5736.10 5
1 -9 -6 30382.8 4131.54 5
-1 9 6 27193.9 3307.02 2
1 -9 -5 15614.0 2896.01 5
-1 9 5 14329.5 2461.76 2
-1 9 4 17699.9 2767.85 2
1 -9 -4 8680.52 2231.63 5
1 -9 -3 58433.6 5582.54 5
-1 9 3 58257.6 5220.70 2
1 -9 -2 60529.6 5633.99 5
-1 9 2 45467.0 4721.13 2
1 -9 -1 18424.4 3039.05 5
-1 9 1 13484.5 2585.97 2
-1 9 0 -1975.49 1110.68 2
-1 9 -1 23255.3 3553.95 2
-1 9 -2 38846.7 4759.75 2
-1 9 -3 11607.0 2545.18 2
-1 9 -4 556.265 968.589 2
-1 9 -5 49941.6 5824.85 2
-1 8 12 32166.4 4715.63 1
-1 8 11 4326.94 2053.01 1
-1 8 10 21670.2 3679.57 1
-1 8 9 62417.9 6079.76 1
-1 8 8 87107.6 7064.19 1
1 -8 -8 75746.4 6630.28 5
-1 8 7 2188.27 840.649 2
-1 8 7 3294.51 1321.05 1
1 -8 -7 1367.14 1030.88 5
1 -8 -6 4450.13 1453.89 5
-1 8 6 3804.01 1109.04 2
-1 8 5 35147.5 3628.17 2
1 -8 -5 42865.5 4514.23 5
1 -8 -5 44146.3 3721.39 3
1 -8 -4 90880.9 6616.95 5
1 -8 -4 82427.3 4985.85 3
-1 8 4 73142.7 5477.50 2
1 -8 -3 23.7849 398.408 3
-1 8 3 488.656 635.602 2
1 -8 -2 24277.1 3256.62 5
-1 8 2 25488.9 3199.88 2
-1 8 1 63295.6 5355.48 2
-1 8 0 46256.8 4594.28 2
-1 8 -1 25183.7 3367.41 2
-1 8 -2 166.738 787.729 2
-1 8 -3 25664.1 3681.96 2
-1 8 -4 86059.6 7050.67 2
-1 8 -5 25460.7 3843.41 2
-1 8 -6 208.177 572.444 2
-1 8 -7 12961.3 2954.79 2
-1 8 -8 41168.9 5354.35 2
-1 7 13 6230.13 2041.91 1
-1 7 12 8037.82 2386.82 1
-1 7 11 58784.7 6011.83 1
-1 7 10 32228.8 4253.34 1
-1 7 9 3874.77 1474.39 1
-1 7 8 11652.0 2383.44 1
-1 7 7 53461.7 3983.13 2
-1 7 7 56043.4 5225.05 1
1 -7 -7 48620.4 4814.71 5
1 -7 -6 46540.2 4572.83 5
-1 7 6 42706.9 3599.15 2
-1 7 6 48929.1 4699.73 1
1 -7 -5 57866.4 4979.71 5
-1 7 5 55176.1 4248.63 2
1 -7 -4 1203.31 845.534 5
1 -7 -4 2025.87 741.221 3
-1 7 4 2198.92 926.601 2
1 -7 -3 52641.9 3603.36 3
1 -7 -3 50378.9 4467.82 5
-1 7 3 46819.2 4041.93 2
-1 7 2 108691. 6600.84 2
1 -7 -2 113049. 6905.53 5
1 -7 -2 114720. 5427.30 3
-1 7 1 91560.8 6047.13 2
1 -7 -1 94051.8 4574.04 3
1 -7 0 1765.09 566.131 3
-1 7 0 2879.49 1053.90 2
1 -7 1 34554.2 2244.66 3
-1 7 -1 35597.9 3800.36 2
-1 7 -2 81356.4 6072.88 2
-1 7 -3 58575.3 5198.40 2
-1 7 -4 65.9505 532.857 2
-1 7 -5 35153.8 4200.02 2
-1 7 -6 45101.8 4932.55 2
-1 7 -7 40396.7 4763.50 2
-1 7 -8 8416.87 2272.37 2
-1 7 -9 -723.497 821.481 2
-1 7 -10 12124.3 2927.61 2
-1 6 14 6463.65 2166.94 1
-1 6 13 36334.6 4786.10 1
-1 6 12 62010.8 6173.44 1
-1 6 11 31527.1 4241.65 1
-1 6 10 7693.03 1989.48 1
-1 6 9 65507.0 5731.02 1
-1 6 8 109944. 7352.65 1
-1 6 7 27052.7 3351.63 1
-1 6 6 1859.23 1026.52 1
1 -6 -6 584.580 594.041 5
1 -6 -5 31090.6 3388.74 5
-1 6 5 33048.9 3504.03 1
1 -6 -4 140652. 7524.88 5
-1 6 4 138613. 6842.11 2
1 -6 -3 68356.3 4129.76 3
1 -6 -3 68108.4 4870.08 5
-1 6 3 73932.3 4733.16 2
1 -6 -2 -127.586 487.246 5
-1 6 2 -251.158 547.708 2
1 -6 -2 388.951 423.850 3
-1 6 1 53594.2 4190.64 2
1 -6 -1 54436.3 3267.50 3
-1 6 0 128546. 6974.80 2
1 -6 0 122450. 5193.16 3
1 -6 1 98976.8 4349.04 3
-1 6 -1 105269. 6314.44 2
1 -6 2 15613.2 1449.14 3
-1 6 -2 16835.1 2466.04 2
1 -6 3 14271.5 1384.60 3
-1 6 -3 21139.8 2810.54 2
-1 6 -4 113775. 7204.02 2
-1 6 -5 52563.0 4813.98 2
-1 6 -6 19816.9 2993.85 2
-1 6 -7 3797.86 1431.93 2
-1 6 -8 51408.7 5196.45 2
-1 6 -9 34705.5 4419.71 2
-1 6 -10 5721.17 1875.74 2
-1 6 -11 4907.51 1742.42 2
-1 6 -12 15418.7 3317.72 2
-1 5 15 7283.03 2248.14 1
-1 5 14 38208.9 5071.39 1
-1 5 13 9623.58 2457.17 1
-1 5 12 172.402 819.318 1
-1 5 11 41037.5 4617.23 1
-1 5 10 50724.9 4939.58 1
-1 5 9 33445.6 3831.57 1
-1 5 8 3270.98 1141.04 1
-1 5 7 39086.4 3856.27 1
-1 5 6 89166.5 3155.18 6
-1 5 6 105264. 6289.53 1
-1 5 5 80730.5 3471.50 6
-1 5 5 91373.1 5664.88 1
1 -5 -5 83948.2 5357.05 5
-1 5 4 8268.42 1631.13 1
1 -5 -4 8028.60 1548.89 5
1 -5 -3 51797.0 3889.26 5
-1 5 3 55410.2 4147.91 1
1 -5 -2 187476. 8065.14 5
1 -5 -2 179999. 7080.17 3
1 -5 -1 118987. 5178.63 3
-1 5 1 121147. 6163.53 2
-1 5 0 9895.76 1646.33 2
1 -5 0 12003.2 1323.39 3
-1 5 -1 54795.2 4092.20 2
1 -5 1 54677.4 2972.95 3
1 -5 2 36503.4 2293.03 3
-1 5 -2 36112.5 2339.37 3
-1 5 -2 37851.6 3436.28 2
-1 5 -3 54900.8 3129.01 3
1 -5 3 59671.8 3048.05 3
-1 5 -3 57141.3 4406.73 2
-1 5 -4 19209.3 1798.96 3
1 -5 4 20420.1 1784.45 4
-1 5 -4 21989.0 2769.37 2
-1 5 -5 2860.44 1231.92 2
-1 5 -6 51319.3 4555.60 2
-1 5 -7 131135. 7851.23 2
-1 5 -8 48247.6 4695.55 2
-1 5 -9 4163.90 1419.72 2
-1 5 -10 24954.9 3670.52 2
-1 5 -11 59351.8 5820.26 2
-1 5 -12 21514.2 3522.86 2
-1 5 -13 -317.379 519.384 2
-1 4 15 11609.8 3083.99 1
-1 4 14 1718.65 1050.42 1
-1 4 13 25885.3 3856.11 1
-1 4 12 46589.5 5009.68 1
-1 4 11 51147.2 5000.62 1
-1 4 10 1144.82 771.197 1
-1 4 9 29756.0 3415.50 1
-1 4 8 177096. 8922.21 1
-1 4 7 134029. 7253.65 1
-1 4 6 12866.4 1978.24 1
-1 4 5 46703.3 3710.75 1
1 -4 -4 204444. 8560.67 5
-1 4 4 224081. 9013.10 1
1 -4 -3 240118. 9169.21 5
-1 4 3 243117. 9551.98 1
1 -4 -2 8716.90 1366.75 5
1 -4 -1 5670.23 956.847 3
1 -4 0 192091. 6757.72 3
-1 4 -1 227752. 8997.06 2
-1 4 -1 234366. 7636.54 3
1 -4 1 221795. 7521.80 3
1 -4 2 56548.7 2898.76 3
-1 4 -2 59120.7 3039.90 3
-1 4 -2 53818.9 3845.12 2
1 -4 3 8738.05 1103.66 4
-1 4 -3 9202.79 1144.76 3
-1 4 -3 6590.71 1345.87 2
1 -4 3 8626.93 1045.70 3
-1 4 -4 111981. 6056.84 2
-1 4 -4 99818.2 4617.80 3
1 -4 4 105701. 4437.10 4
-1 4 -5 190073. 8688.50 2
-1 4 -6 101338. 6154.57 2
-1 4 -7 40.2804 495.369 2
-1 4 -8 71503.7 5388.61 2
-1 4 -9 62845.5 5239.13 2
-1 4 -10 17231.2 2774.41 2
-1 4 -11 3216.74 1240.38 2
-1 4 -12 4289.11 1550.87 2
-1 4 -13 44642.8 4976.80 2
-1 4 -14 31620.7 4233.92 2
-1 3 15 9638.43 2522.94 1
-1 3 14 36204.4 4739.70 1
-1 3 13 44625.3 5027.58 1
-1 3 12 2283.26 1027.35 1
-1 3 11 26597.7 3496.58 1
-1 3 10 78533.4 5854.08 1
-1 3 9 150173. 8073.32 1
-1 3 8 21570.9 1804.98 2
-1 3 8 20219.1 2591.58 1
-1 3 7 27689.9 2871.24 1
-1 3 6 86823.2 5120.12 1
-1 3 5 55467.4 3789.10 1
-1 3 4 31347.1 2658.32 1
1 -3 -3 1872.01 650.333 5
-1 3 3 1552.24 529.921 1
-1 3 2 89636.2 4470.80 1
1 -3 -2 85667.2 4212.67 5
1 -3 -1 214459. 7767.59 1
1 -3 -1 201620. 7076.48 3
1 -3 -1 203412. 7286.62 5
1 -3 0 156993. 5763.27 3
1 -3 0 169560. 6557.16 1
-1 3 -1 26864.8 1827.63 3
1 -3 1 21869.2 1667.82 3
-1 3 -2 4073.66 712.602 3
-1 3 -2 3912.61 942.618 2
1 -3 2 4578.33 733.543 3
-1 3 -3 153191. 5601.00 3
1 -3 3 137168. 5283.80 3
-1 3 -3 156983. 6637.03 2
1 -3 3 140775. 5302.12 4
-1 3 -4 193344. 7816.76 2
-1 3 -4 173688. 6565.35 3
1 -3 4 173414. 6403.11 3
-1 3 -5 1323.42 656.656 2
-1 3 -6 59624.7 4175.72 2
-1 3 -7 141631. 7112.98 2
-1 3 -7 139628. 5751.13 4
-1 3 -8 57385.8 4432.86 2
-1 3 -8 55332.1 3339.63 4
-1 3 -9 705.727 640.197 2
-1 3 -9 382.319 504.669 4
-1 3 -10 4107.94 948.460 4
-1 3 -10 5700.75 1513.90 2
-1 3 -11 38584.1 4005.47 2
-1 3 -12 54488.0 4972.17 2
-1 3 -13 4254.50 1454.86 2
1 -3 13 6685.43 2095.77 1
1 -3 14 -368.610 569.963 1
-1 2 15 31395.1 4533.53 1
-1 2 14 8407.17 2315.40 1
-1 2 13 4440.02 1430.48 1
-1 2 12 39997.2 4474.46 1
-1 2 11 39510.3 4210.97 1
-1 2 10 42971.2 4164.20 1
-1 2 9 14883.9 2309.99 1
-1 2 8 161530. 7909.46 1
-1 2 7 101205. 4369.32 2
-1 2 7 98274.2 5611.97 1
-1 2 6 61950.2 3072.50 2
-1 2 6 60996.5 3977.13 1
-1 2 6 56845.7 2364.29 6
-1 2 5 21408.5 1170.49 6
-1 2 5 24765.7 2313.25 1
-1 2 4 106178. 4932.65 1
1 -2 -3 322773. 10099.1 1
-1 2 3 301382. 10041.7 1
-1 2 3 318714. 10042.4 5
-1 2 2 259831. 8661.73 1
-1 2 2 266374. 8500.76 5
1 -2 -2 272553. 8528.05 5
1 -2 -2 279717. 8784.66 1
-1 2 1 33054.9 2107.88 1
1 -2 -1 29455.3 2010.20 1
1 -2 -1 27893.5 1819.71 5
1 -2 -1 31345.5 2045.39 3
1 -2 0 276974. 8672.41 3
-1 2 0 292268. 8758.40 3
1 -2 0 290330. 8934.91 1
1 -2 1 374632. 10827.2 3
-1 2 -1 377785. 10879.7 3
1 -2 2 128013. 4712.74 3
1 -2 2 129873. 4744.01 4
-1 2 -2 126700. 4759.29 3
1 -2 3 14748.1 1290.64 4
-1 2 -3 17180.4 1466.81 3
-1 2 -3 13716.0 1578.40 2
1 -2 3 15034.2 1346.84 3
1 -2 4 81464.0 3829.09 3
-1 2 -4 83566.3 3708.40 4
-1 2 -4 85726.4 3959.23 3
-1 2 -4 84744.4 4347.46 2
-1 2 -5 233829. 8715.01 2
-1 2 -5 233692. 7817.59 4
-1 2 -6 245818. 9085.54 2
-1 2 -6 223300. 7906.45 4
-1 2 -7 15269.6 1647.32 4
-1 2 -7 15370.5 1928.79 2
-1 2 -8 32196.5 2552.48 4
-1 2 -8 37320.9 3198.00 2
-1 2 -9 58473.5 4275.62 2
-1 2 -9 58604.7 3719.72 4
-1 2 -10 44419.6 3343.03 4
-1 2 -10 50866.0 4143.62 2
-1 2 -11 63380.5 4284.96 4
-1 2 -11 76764.7 5295.56 2
1 -2 12 -402.523 845.795 1
-1 2 -12 758.300 655.300 2
1 -2 13 50810.2 5447.91 1
-1 2 -13 45494.2 4243.98 2
1 -2 14 61974.5 6301.92 1
1 -2 15 25866.1 4236.08 1
-1 1 15 8705.84 2409.30 1
-1 1 14 46142.5 5322.04 1
-1 1 13 46944.3 5111.94 1
-1 1 12 -927.674 792.159 1
-1 1 11 10587.3 2193.84 1
-1 1 10 46924.1 4391.10 1
-1 1 9 185156. 9046.17 1
-1 1 8 33213.1 3244.21 1
-1 1 7 3102.00 995.582 1
-1 1 6 25888.1 2496.47 1
-1 1 6 31036.7 2159.73 2
-1 1 6 28951.3 1891.56 6
-1 1 5 114607. 4495.48 2
-1 1 5 102399. 3918.40 6
-1 1 5 113099. 5247.57 1
-1 1 4 110811. 3845.21 6
-1 1 4 108011. 4826.05 1
1 -1 -4 116872. 4950.83 1
-1 1 4 116269. 4398.29 2
-1 1 3 189390. 6619.75 1
1 -1 -3 199850. 6681.46 1
1 -1 -2 162143. 5306.27 1
-1 1 2 151021. 5263.50 1
-1 1 1 959167. 24493.9 1
-1 1 1 972870. 24358.3 5
1 -1 -1 958911. 24466.9 1
1 -1 0 155629. 4861.40 1
1 -1 0 155428. 4509.60 5
1 -1 0 153609. 5252.65 3
-1 1 0 161189. 5297.98 3
1 -1 1 355.261 279.409 3
1 -1 1 69.8574 241.317 4
-1 1 -1 199.212 200.028 3
1 -1 2 19066.5 1371.82 4
-1 1 -2 18539.6 1418.97 3
1 -1 2 18935.8 1386.50 3
-1 1 -2 19210.4 1411.37 4
-1 1 -3 227862. 7354.05 3
1 -1 3 223514. 7264.86 3
-1 1 -3 228585. 7206.32 4
-1 1 -4 122646. 4771.06 4
-1 1 -4 125751. 5020.90 3
-1 1 -4 126000. 5008.18 2
-1 1 -5 89652.6 4179.47 2
-1 1 -6 1334.08 553.643 2
-1 1 -7 60902.5 3609.54 2
-1 1 -8 70863.7 4118.20 2
-1 1 -9 42297.7 3241.73 2
1 -1 10 -31.8221 439.204 1
-1 1 -10 2487.45 831.626 2
-1 1 -11 39540.0 3437.21 2
1 -1 11 35295.1 3977.07 1
-1 1 -12 94783.2 5660.83 2
1 -1 12 91693.5 6914.56 1
-1 1 -13 22486.0 2674.90 2
1 -1 13 22677.4 3451.00 1
1 -1 14 1275.84 792.247 1
1 -1 15 16519.8 3254.67 1
-1 0 15 55755.3 6156.68 1
-1 0 14 25305.8 3960.58 1
-1 0 13 3589.71 1443.58 1
-1 0 12 16351.2 2822.10 1
-1 0 11 56428.5 5152.56 1
-1 0 10 113507. 7156.61 1
-1 0 9 2300.58 1042.00 1
1 0 -9 3229.93 934.913 2
-1 0 8 54595.5 4227.77 1
1 0 -8 52033.8 3505.49 2
-1 0 7 135886. 6775.25 1
1 0 -7 130065. 5787.22 2
-1 0 6 172626. 7356.76 1
1 0 -6 164001. 6095.78 6
1 0 -6 152616. 6307.15 2
-1 0 5 13.6890 293.322 2
1 0 -5 22.8487 312.358 2
-1 0 5 -117.940 347.142 6
-1 0 5 104.654 424.837 1
1 0 -4 31415.1 2113.93 2
-1 0 4 31759.9 1986.97 6
-1 0 4 35063.2 2228.17 2
-1 0 4 30757.1 2336.06 1
-1 0 3 212942. 6670.28 6
-1 0 3 197857. 7013.27 1
-1 0 2 531325. 14127.7 2
-1 0 2 503476. 13887.9 1
-1 0 1 101809. 3256.50 1
-1 0 0 20374.2 1350.02 3
1 0 0 19457.7 1309.76 3
-1 0 -1 39015.7 1898.43 4
1 0 1 37849.2 1849.72 4
1 0 1 37284.0 1899.38 3
-1 0 -1 35774.2 1879.29 3
-1 0 -2 261499. 7647.11 4
-1 0 -2 251918. 7635.47 3
1 0 2 248856. 7578.83 3
1 0 3 8442.22 941.632 3
-1 0 -3 8112.15 961.599 3
-1 0 -4 10332.5 1190.48 3
1 0 5 159007. 6344.59 1
-1 0 -5 159653. 5477.62 2
-1 0 -6 630328. 17248.2 2
1 0 6 629746. 18763.1 1
1 0 7 59062.0 4003.70 1
-1 0 -7 59722.6 3135.45 2
-1 0 -8 1742.17 559.738 2
1 0 8 1816.38 829.936 1
1 0 9 60205.9 4583.30 1
-1 0 -9 56218.8 3420.87 2
1 0 10 113359. 6892.89 1
-1 0 -10 112296. 5358.19 2
1 0 11 79518.7 5986.61 1
-1 0 -11 84906.4 4613.28 2
1 0 12 3014.12 1279.27 1
-1 0 -12 813.452 580.179 2
1 0 13 23874.8 3499.94 1
1 0 14 58217.7 5810.14 1
1 0 15 14835.1 3156.63 1
1 0 16 3162.42 1493.74 1
-1 -1 14 23028.3 3822.00 1
-1 -1 13 20538.8 3382.53 1
1 1 -13 22901.7 2971.18 2
1 1 -12 7380.36 1668.99 2
-1 -1 12 8953.39 2246.00 1
1 1 -11 915.135 662.907 2
-1 -1 11 1621.68 886.056 1
1 1 -10 11523.0 1918.65 2
-1 -1 10 14035.2 2444.77 1
1 1 -9 146993. 7196.67 2
-1 -1 9 155243. 8331.91 1
1 1 -8 155446. 7132.00 2
-1 -1 8 151464. 7886.29 1
1 1 -7 23421.7 2342.00 2
-1 -1 7 23842.2 2681.26 1
1 1 -6 35408.0 2802.04 2
1 1 -5 90226.3 4496.60 2
-1 -1 5 87803.8 4432.19 6
-1 -1 4 157248. 6006.36 6
1 1 -4 158148. 5885.86 6
-1 -1 3 26964.8 1960.23 6
-1 -1 3 30702.4 2213.76 2
1 1 -3 26178.1 2004.10 2
1 1 -3 29000.7 1970.87 6
1 1 -2 167011. 5994.65 2
-1 -1 2 180969. 6232.89 2
-1 -1 2 169672. 5895.11 6
-1 -1 1 647732. 17372.9 6
1 1 -1 635449. 17556.3 2
1 1 -1 651263. 16701.5 4
1 1 -1 644712. 17091.4 3
-1 -1 0 97094.1 3268.98 4
1 1 0 93579.5 3305.04 3
-1 -1 0 96852.7 3571.74 2
1 1 0 98266.1 3591.69 2
1 1 0 97673.6 3249.62 4
-1 -1 0 94027.6 3338.49 3
1 1 1 43216.5 1736.85 1
-1 -1 -1 42304.5 1958.14 3
-1 -1 -1 47723.9 1994.82 2
1 1 1 44579.6 1969.24 3
-1 -1 -1 41429.2 1714.92 1
1 1 2 -8.41812 156.891 1
-1 -1 -2 102.569 162.359 5
1 1 2 139.205 204.638 3
-1 -1 -2 243.969 153.177 1
-1 -1 -2 -47.0368 221.539 3
-1 -1 -3 176310. 5627.94 1
-1 -1 -3 163570. 5539.31 5
1 1 3 165172. 5542.60 1
-1 -1 -3 180190. 5862.10 3
1 1 3 173920. 5615.38 5
-1 -1 -4 179470. 6402.47 3
1 1 4 188928. 6319.56 5
-1 -1 -4 183896. 6389.18 1
1 1 4 179435. 6361.10 1
-1 -1 -5 416967. 11070.0 2
1 1 5 420208. 12803.1 1
-1 -1 -5 429418. 12852.0 1
1 1 6 7405.55 1243.06 1
-1 -1 -6 8067.93 758.748 2
1 1 7 63600.8 4045.37 1
-1 -1 -7 61240.1 2677.29 2
1 1 8 115380. 6221.71 1
-1 -1 -8 128232. 4618.80 2
1 1 9 104737. 6221.11 1
-1 -1 -9 117996. 4564.40 2
1 1 10 1010.04 775.712 1
-1 -1 -10 377.102 336.980 2
-1 -1 -11 30365.2 2166.67 2
1 1 11 25694.5 3243.82 1
1 1 12 60684.4 5332.41 1
1 1 13 75245.7 6289.45 1
1 1 14 10667.2 2300.56 1
1 1 15 2878.47 1288.19 1
1 1 16 13677.0 3033.06 1
-1 -2 14 27810.4 4303.42 1
1 2 -13 13947.7 2441.97 2
-1 -2 13 13088.6 2821.85 1
-1 -2 12 3480.41 1487.60 1
1 2 -12 5789.45 1583.29 2
1 2 -11 67573.4 5186.16 2
-1 -2 11 60075.6 5619.62 1
1 2 -10 93777.4 6009.98 2
-1 -2 10 95122.4 6795.43 1
1 2 -9 12556.3 1957.61 2
1 2 -8 18538.7 2335.21 2
1 2 -7 121091. 6303.76 2
1 2 -6 97779.0 5333.56 2
1 2 -5 36365.1 2978.95 2
-1 -2 4 282.439 483.171 6
1 2 -4 115.786 346.503 2
1 2 -3 46189.6 3136.04 2
-1 -2 3 50377.0 3144.56 6
1 2 -2 282505. 9128.35 6
-1 -2 2 302452. 9333.07 6
-1 -2 2 281095. 9447.62 2
-1 -2 1 769186. 20870.0 2
1 2 -1 747689. 19212.7 3
-1 -2 1 753693. 18912.4 4
1 2 -1 774361. 20512.8 6
-1 -2 1 781961. 20613.7 6
1 2 -1 738123. 20676.4 2
-1 -2 0 72866.0 3362.80 2
1 2 0 71607.2 3284.82 2
-1 -2 0 70152.8 2491.29 3
1 2 0 67249.7 2416.57 3
-1 -2 0 73958.0 3238.61 6
-1 -2 -1 23088.1 1258.82 3
-1 -2 -1 21964.8 1559.81 2
1 2 1 22177.0 1488.69 2
1 2 1 21294.1 1180.38 3
-1 -2 -1 22379.9 1562.56 1
-1 -2 -1 22410.9 1498.16 6
-1 -2 -2 329358. 9428.20 2
1 2 2 341700. 9371.41 2
-1 -2 -2 333831. 9892.42 1
-1 -2 -2 330236. 9398.30 3
1 2 2 343120. 9932.10 1
-1 -2 -3 152882. 5672.56 5
-1 -2 -3 152662. 5253.24 3
1 2 3 158303. 5586.54 1
-1 -2 -3 158333. 5505.52 1
-1 -2 -3 141072. 4545.68 2
-1 -2 -4 20940.0 1821.00 5
-1 -2 -4 25047.7 1888.82 1
1 2 4 22672.8 1832.39 1
1 2 4 22088.5 1830.06 5
-1 -2 -4 22607.3 1022.23 2
1 2 5 142420. 5905.59 1
1 2 5 144113. 5913.36 5
1 2 6 374395. 12310.8 1
1 2 7 92533.8 5066.61 1
1 2 8 11716.7 1795.56 1
1 2 9 2481.34 891.708 1
1 2 10 45473.6 4068.19 1
1 2 11 70710.3 5466.76 1
1 2 12 41067.5 4309.23 1
1 2 13 804.021 787.333 1
1 2 14 46283.0 5046.38 1
1 2 15 35261.1 4626.44 1
1 2 16 28498.1 4380.23 1
1 3 -14 5569.16 1716.51 2
1 3 -13 24926.6 3551.88 2
-1 -3 13 30925.9 4458.42 1
1 3 -12 28086.7 3570.31 2
-1 -3 12 28379.6 4093.73 1
1 3 -11 17277.7 2730.72 2
1 3 -10 3916.32 1292.03 2
1 3 -9 72399.5 5310.94 2
1 3 -8 130133. 7264.10 2
1 3 -7 59016.9 4507.37 2
1 3 -6 29.4359 574.075 2
1 3 -5 28873.7 2885.33 2
1 3 -4 121323. 6142.11 2
1 3 -3 34559.0 2909.51 2
-1 -3 3 32445.5 2788.10 6
1 3 -2 -160.566 378.506 2
-1 -3 2 251.413 402.762 6
1 3 -1 161096. 6828.85 2
1 3 -1 178031. 4807.06 3
-1 -3 1 177181. 6894.02 6
1 3 0 210831. 7148.15 6
1 3 0 185117. 7148.45 2
-1 -3 0 183838. 7120.01 2
-1 -3 0 206556. 7183.74 6
-1 -3 -1 117602. 4724.73 6
-1 -3 -1 114040. 4789.41 2
-1 -3 -1 112736. 3599.71 3
1 3 1 108557. 4736.94 2
-1 -3 -1 123628. 5066.35 1
1 3 2 29091.9 1949.03 2
-1 -3 -2 34021.6 2076.78 2
-1 -3 -2 30628.9 1644.98 3
-1 -3 -2 33593.6 2383.66 1
-1 -3 -2 32318.0 2030.21 6
1 3 2 32992.4 2371.85 1
-1 -3 -3 118078. 5262.89 5
1 3 3 116062. 5113.82 1
-1 -3 -3 116061. 4327.22 6
-1 -3 -3 119150. 5161.42 1
-1 -3 -3 115868. 4259.50 2
1 3 3 119556. 4271.22 2
-1 -3 -3 116405. 4350.22 3
-1 -3 -4 193960. 7577.35 5
-1 -3 -4 192976. 5942.65 2
1 3 4 201562. 5856.35 2
1 3 4 206066. 7647.90 1
-1 -3 -5 164094. 6841.92 5
1 3 5 155769. 6710.71 1
-1 -3 -6 50326.0 3506.30 5
1 3 6 52854.3 3619.92 1
1 3 7 10712.5 1671.34 1
1 3 8 128967. 6706.44 1
1 3 9 91156.7 5755.86 1
1 3 10 18224.0 2606.59 1
1 3 11 13020.8 2279.97 1
1 3 12 49849.9 4783.44 1
1 3 13 77367.1 6405.67 1
1 3 14 36764.8 4506.78 1
1 3 15 1031.85 1045.70 1
1 3 16 10186.8 2614.40 1
1 4 -14 34536.2 4493.93 2
1 4 -13 9752.56 2308.72 2
1 4 -12 599.678 648.883 2
1 4 -11 24025.0 3470.47 2
1 4 -10 35787.8 4054.15 2
1 4 -9 13617.7 2458.39 2
1 4 -8 3052.67 1300.08 2
1 4 -7 21273.6 2873.11 2
1 4 -6 104006. 6457.20 2
1 4 -5 104565. 6266.72 2
1 4 -4 17668.4 2347.63 2
1 4 -3 23941.3 2630.82 2
1 4 -2 258266. 10023.7 2
-1 -4 2 247770. 9799.29 6
1 4 -1 363431. 12677.8 2
-1 -4 1 378070. 12705.9 6
-1 -4 0 43720.5 3099.07 6
1 4 0 37662.7 2956.06 2
-1 -4 -1 30476.2 1328.33 3
1 4 1 27282.1 2348.29 2
-1 -4 -1 32369.3 2498.37 6
-1 -4 -2 175518. 5465.37 3
-1 -4 -2 188990. 6890.53 2
-1 -4 -2 176672. 6694.85 6
1 4 2 171211. 6719.45 2
-1 -4 -3 75893.1 3667.51 2
1 4 3 71884.3 4281.38 1
-1 -4 -3 80860.5 3717.73 6
1 4 3 73710.2 3624.95 2
1 4 4 17311.5 1446.56 2
-1 -4 -4 16115.4 1429.52 6
-1 -4 -4 15830.6 1400.43 2
-1 -4 -4 18104.8 2067.65 5
1 4 4 17378.5 2016.64 1
1 4 5 1588.04 694.981 1
-1 -4 -5 604.116 470.567 5
1 4 5 1149.44 326.044 2
-1 -4 -5 1235.40 434.532 6
-1 -4 -6 80739.3 3320.66 6
-1 -4 -6 91697.7 5266.42 5
1 4 6 86872.6 2864.08 2
1 4 6 85688.2 5103.40 1
-1 -4 -7 201046. 8845.53 5
-1 -4 -7 198602. 6101.52 6
1 4 7 201396. 8863.03 1
1 4 8 108298. 6309.81 1
1 4 9 19942.7 2640.19 1
1 4 10 30975.9 3498.95 1
1 4 11 125854. 7797.55 1
1 4 12 52456.8 5027.01 1
1 4 13 7713.57 1977.88 1
1 4 14 13213.0 2775.57 1
1 4 15 26910.5 4112.24 1
1 4 16 22105.1 3906.56 1
1 5 -12 21424.4 3555.01 2
1 5 -11 33813.8 4312.88 2
1 5 -10 -1102.53 851.198 2
1 5 -9 13854.9 2707.20 2
1 5 -8 81609.7 6406.35 2
1 5 -7 125056. 7859.24 2
1 5 -6 5547.94 1658.38 2
1 5 -5 16844.0 2601.81 2
1 5 -4 100501. 6232.09 2
1 5 -4 82310.6 2959.52 3
1 5 -3 87942.1 5772.18 2
1 5 -2 9661.16 1781.67 2
1 5 -1 12043.7 1876.41 2
1 5 0 67409.5 4449.71 2
1 5 1 194500. 8378.09 2
-1 -5 -1 220779. 8560.43 6
-1 -5 -2 56455.4 2307.22 3
-1 -5 -2 56092.6 3588.60 6
1 5 2 46966.1 3389.38 2
-1 -5 -3 1103.89 593.591 6
-1 -5 -3 1421.73 419.918 3
1 5 3 1235.58 480.833 2
1 5 4 62509.5 4281.39 1
-1 -5 -4 61688.0 4349.43 5
-1 -5 -4 53062.0 3176.29 6
1 5 4 53442.0 3240.72 2
-1 -5 -5 144272. 7372.27 5
1 5 5 159712. 5795.28 2
-1 -5 -5 137426. 5601.54 6
1 5 5 148463. 7370.32 1
-1 -5 -6 133432. 7102.61 5
1 5 6 138781. 4884.19 2
1 5 6 136969. 7157.55 1
-1 -5 -6 120779. 4905.63 6
1 5 7 3917.22 517.742 2
-1 -5 -7 3893.77 1152.21 5
-1 -5 -7 4109.76 661.362 6
1 5 7 4101.55 1223.17 1
-1 -5 -8 79392.7 5500.99 5
1 5 8 73783.7 5322.30 1
-1 -5 -8 65958.1 2788.72 6
1 5 9 86846.8 6059.79 1
1 5 10 28558.0 3488.96 1
1 5 11 2988.06 1330.49 1
1 5 12 11931.9 2580.44 1
1 5 13 47944.9 5159.24 1
1 5 14 62818.5 6188.67 1
1 5 15 3569.06 1655.50 1
1 5 16 2856.50 1592.68 1
1 6 -11 5517.32 1839.68 2
1 6 -10 28467.0 4137.26 2
1 6 -9 23575.8 3657.07 2
1 6 -8 29881.3 4002.81 2
1 6 -7 6383.46 1881.67 2
1 6 -6 89698.1 6800.41 2
1 6 -5 47069.1 4687.06 2
1 6 -4 15054.8 2558.00 2
1 6 -3 1743.72 854.676 2
1 6 -2 56190.2 4696.41 2
1 6 -1 72867.5 5199.57 2
1 6 0 97564.7 5970.15 2
1 6 1 612.637 623.267 2
1 6 2 38277.6 3368.20 2
-1 -6 -2 48243.4 1974.28 3
1 6 3 37846.0 3162.39 2
-1 -6 -3 39705.9 2152.67 3
1 6 4 84619.6 4667.16 2
-1 -6 -4 86266.5 5701.30 5
-1 -6 -5 3492.16 1122.16 5
1 6 5 3715.32 874.422 2
1 6 5 3768.68 1215.45 1
-1 -6 -6 34181.8 3586.75 5
1 6 6 36239.7 2558.43 2
1 6 6 39008.2 3787.68 1
-1 -6 -7 157483. 8553.32 5
1 6 7 156886. 5724.66 2
1 6 7 154032. 8381.69 1
-1 -6 -8 124412. 7695.11 5
1 6 8 137611. 7989.57 1
-1 -6 -9 12921.9 2414.10 5
1 6 9 18121.5 2814.57 1
1 6 10 20271.8 3075.38 1
1 6 11 50364.1 5075.47 1
1 6 12 42721.7 4812.55 1
1 6 13 33159.0 4421.25 1
1 6 14 1983.67 1046.18 1
1 6 15 22111.0 3938.12 1
1 7 -9 1804.71 1402.55 2
1 7 -8 41209.0 5039.81 2
1 7 -7 69072.6 6390.93 2
1 7 -6 22093.7 3445.47 2
1 7 -5 2015.09 1119.43 2
1 7 -4 39413.4 4440.12 2
1 7 -3 66050.0 5637.24 2
1 7 -2 35221.3 3934.74 2
1 7 -1 9927.58 1965.47 2
1 7 0 24631.1 3084.64 2
1 7 1 198831. 9586.15 2
1 7 2 59293.8 4555.98 2
1 7 3 7030.39 1499.22 2
-1 -7 -4 32115.6 3595.16 5
1 7 4 29165.1 2885.28 2
-1 -7 -5 118296. 7339.92 5
1 7 5 107850. 5731.27 2
1 7 6 88960.5 4830.11 2
-1 -7 -6 93076.2 6580.90 5
1 7 6 86914.4 6323.99 1
1 7 7 28756.7 2365.81 2
-1 -7 -7 31013.4 3751.48 5
1 7 7 34875.7 3878.99 1
1 7 8 14593.9 2560.80 1
-1 -7 -8 10767.8 2259.84 5
1 7 9 62111.2 5581.67 1
-1 -7 -9 59994.5 5550.79 5
1 7 10 27891.9 3806.96 1
1 7 11 16010.6 2952.51 1
1 7 12 1398.92 949.684 1
1 7 13 44238.3 5323.55 1
1 7 14 52894.6 5999.97 1
1 8 -7 1310.26 1240.47 2
1 8 -6 13750.1 2874.60 2
1 8 -5 34210.3 4487.19 2
1 8 -4 31902.9 4243.14 2
1 8 -3 17108.9 3020.05 2
1 8 -2 5481.49 1577.63 2
1 8 -1 59778.1 5419.17 2
1 8 0 90717.4 6611.92 2
1 8 1 2140.83 1065.06 2
1 8 2 9355.99 1939.51 2
1 8 3 25461.8 3042.14 2
-1 -8 -4 67282.5 5730.54 5
1 8 4 60634.4 4716.05 2
1 8 5 7911.13 1549.08 2
-1 -8 -5 8235.28 2003.55 5
-1 -8 -6 -85.3531 545.555 5
1 8 6 -34.3330 411.099 2
-1 -8 -7 35907.7 4284.59 5
1 8 8 86765.9 6918.28 1
-1 -8 -8 90304.6 7099.22 5
-1 -8 -9 21780.9 3532.45 5
1 8 9 21612.1 3401.95 1
1 8 10 -535.762 724.950 1
-1 -8 -10 2450.19 1383.92 5
1 8 11 11055.3 2646.30 1
1 8 12 49004.4 5649.58 1
1 8 13 14979.2 3239.34 1
1 9 -5 176.279 660.377 2
1 9 -4 16449.2 3263.81 2
1 9 -3 44980.2 5258.44 2
1 9 -2 54211.4 5665.73 2
1 9 -1 14449.9 2815.26 2
1 9 0 5818.71 1779.24 2
1 9 1 65643.9 5767.73 2
1 9 2 43802.2 4515.85 2
1 9 3 13124.1 2372.02 2
1 9 4 1978.16 973.914 2
-1 -9 -4 -18.0228 818.799 5
1 9 5 26039.3 3090.07 2
-1 -9 -5 25589.2 3752.27 5
-1 -9 -6 81075.2 6923.13 5
-1 -9 -7 55367.1 5744.88 5
-1 -9 -8 -1751.33 1143.88 5
-1 -9 -9 35919.1 4706.65 5
1 9 9 31329.9 4362.81 1
-1 -9 -10 50336.0 5777.31 5
1 9 10 40952.3 5102.89 1
1 9 11 51587.6 5920.15 1
1 9 12 1394.35 1102.77 1
1 10 -2 1862.96 1071.12 2
1 10 -1 31274.9 4350.60 2
1 10 0 37396.6 4745.78 2
1 10 1 8793.12 2252.41 2
1 10 2 308.017 715.285 2
-1 -10 -3 21504.4 3634.35 5
1 10 3 16292.7 2854.38 2
1 10 4 33127.1 3946.63 2
-1 -10 -4 35874.6 4744.54 5
-1 -10 -5 32427.9 4562.13 5
-1 -10 -6 2413.33 1289.43 5
-1 -10 -7 7253.01 2158.74 5
-1 -10 -8 43152.5 5447.36 5
-1 -10 -9 34169.5 4876.67 5
1 11 0 4625.26 1821.46 2
1 11 1 5879.24 1988.86 2
1 11 2 32205.0 4488.08 2
1 11 3 20888.0 3429.30 2
2 -11 -3 16241.4 3287.25 5
-2 11 3 11636.8 2807.98 2
2 -11 -2 13972.8 3060.20 5
2 -11 -1 22212.5 3818.64 5
2 -11 0 11433.5 2755.84 5
2 -10 -6 4601.19 1818.17 5
2 -10 -5 1218.50 962.248 5
-2 10 4 41949.8 4907.17 2
2 -10 -4 43114.8 5093.19 5
2 -10 -3 34805.0 4557.85 5
-2 10 3 39097.1 4769.64 2
2 -10 -2 14011.1 2803.34 5
-2 10 2 7680.87 2100.45 2
2 -10 -1 548.889 982.010 5
-2 10 1 1672.78 1363.65 2
2 -10 0 17746.2 3180.26 5
-2 10 0 13260.4 2924.45 2
2 -10 1 22907.4 3686.48 5
-2 10 -1 25285.7 4070.38 2
2 -9 -9 31096.2 4119.28 3
2 -9 -8 8663.33 2129.75 3
2 -9 -7 169.848 626.107 3
2 -9 -6 24887.0 3740.80 5
-2 9 6 18918.3 2971.94 2
-2 9 5 62250.9 5460.24 2
2 -9 -5 58489.3 5728.82 5
2 -9 -4 11641.5 2529.44 5
-2 9 4 10494.7 2273.54 2
-2 9 3 2503.76 1108.33 2
2 -9 -3 1521.04 993.245 5
-2 9 2 6991.98 1919.29 2
2 -9 -2 10571.9 2303.99 5
-2 9 1 24608.6 3655.92 2
2 -9 -1 25396.5 3519.45 5
2 -9 0 23882.3 3477.49 5
-2 9 0 25698.8 3754.66 2
-2 9 -1 2436.01 1294.47 2
-2 9 -2 14543.5 2986.29 2
-2 9 -3 49214.6 5581.90 2
-2 9 -4 38565.8 5011.86 2
-2 8 11 43948.2 5544.55 1
-2 8 10 12716.5 2880.34 1
-2 8 9 -1926.24 1161.79 1
-2 8 8 16428.9 3093.56 1
2 -8 -7 32490.8 3892.49 3
-2 8 7 26535.6 3230.90 2
2 -8 -6 41557.7 4597.16 5
2 -8 -6 38795.2 4035.74 3
-2 8 6 32447.1 3690.71 2
2 -8 -5 1136.62 877.944 3
-2 8 5 1504.56 859.141 2
2 -8 -5 464.270 788.911 5
2 -8 -4 27306.8 3506.77 5
2 -8 -4 27875.2 3144.56 3
-2 8 4 28394.6 3504.78 2
2 -8 -3 97715.5 6880.38 5
2 -8 -3 98193.8 6024.14 3
-2 8 3 104058. 7126.36 2
2 -8 -2 103734. 6969.14 5
-2 8 2 100521. 7072.90 2
2 -8 -2 99335.1 5846.69 3
2 -8 -1 6528.83 1646.26 5
-2 8 1 7811.55 1895.95 2
2 -8 0 6025.46 1560.40 5
-2 8 0 7089.38 2057.34 2
-2 8 -1 77671.0 6379.93 2
-2 8 -2 61462.7 5795.76 2
-2 8 -3 5042.50 1717.45 2
-2 8 -4 10208.7 2332.59 2
-2 8 -5 22059.9 3610.09 2
-2 8 -6 21118.1 3648.54 2
-2 8 -7 17823.1 3397.05 2
-2 7 12 12601.2 2936.80 1
-2 7 11 -287.194 548.576 1
-2 7 10 28098.0 4066.91 1
-2 7 9 50849.9 5328.10 1
-2 7 8 39569.8 4626.04 1
-2 7 7 11923.7 2391.97 1
-2 7 6 9066.78 2065.66 1
2 -7 -6 6444.47 1626.84 3
2 -7 -5 62147.4 5191.96 5
2 -7 -5 68779.6 5163.37 3
2 -7 -4 30321.2 3476.61 5
2 -7 -4 32856.3 3363.69 3
2 -7 -3 12847.0 2027.57 3
2 -7 -3 10955.2 2049.80 5
2 -7 -2 6480.54 1396.14 3
-2 7 2 6402.98 1654.11 2
2 -7 -2 8392.79 1728.14 5
-2 7 1 28953.6 3482.52 2
2 -7 -1 24731.4 2999.79 5
2 -7 -1 29456.9 2830.41 3
2 -7 0 53716.4 4489.72 5
2 -7 0 56135.5 3933.29 3
-2 7 0 54448.2 4937.86 2
2 -7 1 17154.7 2075.67 3
-2 7 -1 19670.8 2946.72 2
-2 7 -2 7473.98 1881.22 2
2 -7 2 8803.09 1429.12 3
-2 7 -3 41884.0 4533.90 2
-2 7 -4 79737.0 6453.36 2
-2 7 -5 31039.7 4024.85 2
-2 7 -6 1251.02 1128.73 2
-2 7 -7 18179.3 3314.48 2
-2 7 -8 20381.6 3577.44 2
-2 7 -9 10284.2 2694.24 2
-2 6 13 -781.682 1183.33 1
-2 6 12 15207.0 3108.90 1
-2 6 11 28285.4 4070.38 1
-2 6 10 33378.1 4275.63 1
-2 6 9 23040.8 3407.56 1
-2 6 8 8571.89 2012.71 1
-2 6 7 46918.6 4611.07 1
-2 6 6 96116.1 6583.26 1
2 -6 -5 16135.8 2374.51 5
-2 6 5 21434.9 2883.29 1
2 -6 -5 15927.9 2347.29 3
2 -6 -4 28107.5 3091.17 5
2 -6 -4 23045.1 2732.07 3
2 -6 -3 140927. 7424.25 5
2 -6 -3 143452. 7243.13 3
2 -6 -2 176868. 8329.30 5
2 -6 -2 173846. 7978.98 3
2 -6 -1 22886.5 2441.32 3
2 -6 -1 22414.5 2584.69 5
2 -6 0 3194.04 987.129 5
2 -6 0 1959.47 753.796 3
-2 6 0 2077.21 1019.00 2
2 -6 1 44370.9 3333.80 3
-2 6 -1 42136.3 4059.24 2
2 -6 2 59109.0 3892.23 3
-2 6 -2 69605.8 5376.25 2
-2 6 -3 50561.6 4668.84 2
2 -6 3 50804.0 3496.58 3
-2 6 -4 -655.123 676.462 2
2 -6 4 939.243 650.882 3
-2 6 -5 26646.1 3492.13 2
2 -6 5 26024.0 2554.21 3
-2 6 -6 86839.9 6644.36 2
-2 6 -7 65826.8 5862.45 2
-2 6 -8 7027.19 1950.19 2
-2 6 -9 25161.0 3733.49 2
-2 6 -10 69991.4 6536.77 2
-2 6 -11 36684.0 4933.03 2
-2 5 14 4055.05 1784.52 1
-2 5 13 23180.9 3878.87 1
-2 5 12 45339.4 5186.78 1
-2 5 11 1987.50 1090.88 1
-2 5 10 6986.81 1942.63 1
-2 5 9 102265. 7154.53 1
-2 5 8 89480.7 6469.60 1
-2 5 7 17444.1 2615.43 1
-2 5 6 75.8105 443.384 1
-2 5 5 90422.1 5874.35 1
2 -5 -4 60648.1 4400.33 5
2 -5 -4 71424.3 4821.35 3
-2 5 4 62138.0 4632.73 1
2 -5 -3 61527.8 4272.22 3
2 -5 -3 58478.7 4136.85 5
2 -5 -2 4346.44 1030.21 5
2 -5 -2 4395.55 1169.29 3
2 -5 -1 44615.8 3393.15 5
2 -5 -1 51248.8 3669.23 3
2 -5 0 98708.9 5229.51 5
2 -5 0 92119.0 5085.30 3
2 -5 1 61482.5 3911.70 3
-2 5 -2 9718.57 1862.53 2
2 -5 2 10336.6 1485.83 3
2 -5 3 46351.9 3294.75 3
-2 5 -3 45086.9 4084.33 2
-2 5 -4 150308. 8118.26 2
2 -5 4 138991. 6370.16 3
-2 5 -5 121157. 7300.21 2
2 -5 5 112720. 5674.87 3
-2 5 -6 7289.15 1764.32 2
-2 5 -7 17451.1 2762.19 2
-2 5 -8 14097.0 2511.71 2
-2 5 -9 22714.2 3357.24 2
-2 5 -10 10956.3 2381.06 2
-2 5 -11 -373.229 787.302 2
-2 5 -12 26382.3 3965.21 2
-2 5 -13 20627.6 3566.36 2
-2 4 14 27949.1 4311.84 1
-2 4 13 14682.2 3015.18 1
-2 4 12 -1488.02 1009.83 1
-2 4 11 29971.1 3901.59 1
-2 4 10 93762.9 6848.52 1
-2 4 9 58361.1 5074.99 1
-2 4 8 12866.9 2256.23 1
-2 4 7 34701.9 3532.08 1
-2 4 6 95999.2 5951.13 1
-2 4 5 57271.9 4330.02 1
-2 4 4 506.733 389.223 1
-2 4 3 51749.7 3754.34 1
2 -4 -3 47704.9 3672.89 3
2 -4 -3 47568.1 3398.05 5
2 -4 -2 240388. 8911.80 5
2 -4 -2 229369. 9198.79 3
2 -4 -1 109474. 5499.38 3
2 -4 -1 102881. 5020.38 5
2 -4 0 3796.78 917.602 3
2 -4 0 4454.94 900.902 5
2 -4 1 -170.478 287.524 3
2 -4 2 112139. 5410.37 3
2 -4 3 166039. 6960.38 3
-2 4 -4 12797.3 2035.21 2
2 -4 4 12694.9 1670.49 3
-2 4 -5 8459.51 1673.42 2
2 -4 5 9977.45 1479.23 3
-2 4 -6 170505. 8580.64 2
2 -4 6 158980. 7187.09 3
-2 4 -7 88737.6 6016.15 2
-2 4 -8 10592.7 2094.14 2
-2 4 -9 3739.27 1390.74 2
-2 4 -10 62927.7 5399.65 2
-2 4 -11 71449.6 5977.32 2
-2 4 -12 35479.3 4246.27 2
-2 4 -13 1350.38 1044.87 2
-2 3 14 2611.98 1440.19 1
-2 3 13 20493.2 3464.62 1
-2 3 12 47131.2 5049.76 1
-2 3 11 20284.0 3101.62 1
-2 3 10 795.471 630.818 1
-2 3 9 67038.4 5263.58 1
-2 3 8 70552.4 3150.33 6
-2 3 8 70111.6 5195.69 1
-2 3 7 45367.9 3829.05 1
-2 3 7 40864.6 2235.92 6
-2 3 6 3025.66 866.847 1
-2 3 5 31777.7 2907.59 1
-2 3 4 103749. 5427.52 1
-2 3 3 254530. 9466.22 1
-2 3 2 44890.7 2855.59 5
2 -3 -2 36915.2 3007.57 3
-2 3 2 42542.1 2994.70 1
2 -3 -1 102316. 4468.89 5
2 -3 -1 101946. 5165.86 3
2 -3 0 219180. 7281.82 5
2 -3 0 205473. 8127.73 3
2 -3 1 106035. 5115.19 3
2 -3 2 37795.9 2812.88 3
2 -3 3 52628.3 3366.78 3
2 -3 4 106640. 5225.33 3
2 -3 5 175526. 7382.50 3
-2 3 -5 188062. 8349.04 2
2 -3 6 46130.9 3412.66 3
-2 3 -6 53573.6 4106.81 2
-2 3 -7 7625.68 1617.78 2
-2 3 -8 1175.93 829.234 2
-2 3 -8 610.764 444.851 4
-2 3 -9 57856.0 4155.50 4
-2 3 -9 59965.2 4735.03 2
-2 3 -10 84646.0 5843.66 2
-2 3 -10 72556.6 4846.74 4
-2 3 -11 2969.18 1023.09 2
-2 3 -11 1170.55 769.597 4
-2 3 -12 29440.8 3626.31 2
-2 3 -13 56349.6 5223.51 2
2 -3 14 26180.2 4122.04 1
-2 2 15 30226.2 4590.50 1
-2 2 14 34109.3 4626.60 1
-2 2 13 11123.3 2422.82 1
-2 2 12 5080.36 1660.26 1
-2 2 11 14196.4 2568.33 1
-2 2 10 91488.9 6470.78 1
-2 2 9 65302.5 5103.16 1
-2 2 8 11955.3 2003.97 1
-2 2 8 9973.19 1234.17 6
-2 2 7 5379.10 870.559 6
-2 2 7 6242.15 1357.20 1
-2 2 6 103306. 5571.47 1
-2 2 6 95454.9 4081.99 6
-2 2 5 141145. 6451.61 1
-2 2 4 161834. 6717.63 1
2 -2 -3 33952.8 2445.90 1
-2 2 3 33780.8 2522.15 1
-2 2 2 288154. 9159.45 5
2 -2 -2 286984. 9285.31 1
2 -2 -2 274776. 10066.9 3
-2 2 2 285477. 9366.66 1
-2 2 1 196780. 6933.85 1
2 -2 -1 199033. 7769.84 3
2 -2 -1 204942. 7050.10 1
-2 2 1 199572. 6602.76 5
2 -2 0 55698.0 2502.74 5
2 -2 0 55312.5 2973.62 1
2 -2 0 53259.8 3333.42 3
2 -2 1 7839.17 765.948 5
2 -2 1 6234.01 1095.50 3
2 -2 2 64728.3 3669.65 3
2 -2 3 187559. 7310.78 3
2 -2 4 90208.6 4589.65 3
-2 2 -5 10986.2 1523.47 4
2 -2 5 8337.81 1315.82 3
-2 2 -6 107184. 5381.14 4
2 -2 6 107034. 5414.50 3
-2 2 -6 102961. 5577.44 2
-2 2 -7 102208. 5438.30 4
-2 2 -7 112199. 5904.24 2
-2 2 -8 65219.6 4481.77 2
-2 2 -8 63649.7 4207.82 4
-2 2 -9 14034.4 1946.04 4
-2 2 -9 12566.2 1954.64 2
-2 2 -10 30480.0 3171.53 2
-2 2 -10 29575.1 2973.72 4
-2 2 -11 79412.4 5394.39 2
-2 2 -11 67301.3 4828.33 4
-2 2 -12 54167.4 4417.31 4
2 -2 12 61665.9 5646.73 1
-2 2 -12 60302.7 4831.13 2
2 -2 13 5431.01 1791.73 1
-2 2 -13 8186.28 1749.01 2
2 -2 14 11420.9 2666.81 1
2 -2 15 9427.20 2554.65 1
-2 1 14 -173.613 815.996 1
-2 1 13 5564.69 1868.04 1
-2 1 12 42761.4 4765.06 1
-2 1 11 74957.5 6052.59 1
-2 1 10 12485.7 2277.74 1
-2 1 9 11682.8 2116.55 1
-2 1 8 56124.5 4434.77 1
-2 1 8 64332.1 3740.02 6
-2 1 7 100461. 5766.30 1
-2 1 7 100961. 4692.26 6
-2 1 6 1045.93 594.158 1
-2 1 6 1362.35 502.580 6
-2 1 5 3131.63 843.064 1
-2 1 5 3347.31 710.744 6
-2 1 4 115348. 5148.57 1
2 -1 -3 363004. 10931.8 1
-2 1 3 346887. 10838.0 1
2 -1 -2 9526.87 1038.51 1
-2 1 2 10514.1 1108.51 1
2 -1 -2 9581.82 1357.92 3
2 -1 -1 15954.7 1740.95 3
-2 1 1 15800.5 1277.30 1
2 -1 -1 17266.8 1251.53 1
-2 1 0 169814. 5037.81 5
2 -1 0 175310. 6698.53 3
2 -1 0 166764. 5362.08 1
2 -1 1 48545.4 2202.92 1
-2 1 -1 46155.3 2980.12 3
2 -1 1 48407.7 2999.04 3
2 -1 2 88395.3 4308.74 3
2 -1 3 24687.6 2120.25 3
-2 1 -3 26169.6 2208.18 4
-2 1 -4 76516.9 4148.87 4
2 -1 4 78728.4 4144.16 3
2 -1 5 331313. 11073.1 3
-2 1 -5 321737. 11053.5 4
2 -1 6 106392. 5276.70 3
-2 1 -6 99161.9 5162.54 4
-2 1 -7 4807.15 1055.03 4
-2 1 -7 2061.79 656.126 2
-2 1 -8 8948.58 1442.25 2
-2 1 -8 10488.7 1630.38 4
-2 1 -9 112242. 6176.39 4
-2 1 -9 126558. 6089.63 2
-2 1 -10 101183. 5942.90 4
-2 1 -10 102645. 5597.02 2
2 -1 10 107940. 6704.93 1
2 -1 11 10895.5 2150.95 1
-2 1 -11 6825.22 1562.24 4
-2 1 -11 10269.7 1699.27 2
-2 1 -12 20077.9 2482.06 2
2 -1 12 18925.9 3033.93 1
-2 1 -12 17117.6 2453.53 4
-2 1 -13 51073.6 4464.96 4
2 -1 13 42089.6 4748.29 1
-2 1 -14 38864.1 4005.64 4
2 -1 14 33634.4 4422.13 1
2 -1 15 8497.89 2322.81 1
-2 0 14 5754.02 1935.08 1
-2 0 13 17759.2 3215.11 1
-2 0 12 13974.7 2719.67 1
-2 0 11 2141.25 1135.94 1
-2 0 10 84506.4 6220.29 1
-2 0 9 108168. 6771.62 1
-2 0 8 46775.0 3981.14 1
-2 0 8 37703.6 3127.66 6
-2 0 7 1406.93 567.451 6
-2 0 7 523.837 471.945 1
-2 0 6 88978.1 5094.66 1
-2 0 6 89798.2 4566.02 6
-2 0 5 131405. 6168.57 1
-2 0 5 151915. 6065.57 6
-2 0 4 212608. 7844.08 1
-2 0 4 219094. 7670.12 6
-2 0 3 6891.71 979.975 1
-2 0 2 63022.9 2845.90 1
2 0 -2 64460.2 3682.94 3
-2 0 1 164353. 5029.34 1
2 0 -1 172149. 6604.04 3
2 0 0 227306. 7661.08 4
-2 0 0 218441. 7814.58 3
2 0 0 212831. 7716.14 3
2 0 1 31277.3 2220.62 4
-2 0 -1 32826.8 2364.03 3
2 0 1 31995.8 2293.19 3
-2 0 -2 21425.9 1857.93 4
2 0 2 17033.2 1614.11 4
-2 0 -2 19404.3 1793.61 3
2 0 2 18614.6 1728.77 3
2 0 3 272782. 7481.62 5
-2 0 -3 299438. 9625.81 4
2 0 3 287941. 9434.05 3
2 0 4 396453. 11084.6 5
-2 0 -4 422707. 12921.1 4
2 0 4 414229. 12724.7 3
2 0 5 63001.3 3659.41 3
-2 0 -5 59879.1 3668.26 4
2 0 5 58305.0 3273.75 1
2 0 6 33340.6 2623.31 1
2 0 7 119917. 5918.64 1
-2 0 -7 122510. 5312.88 2
2 0 8 146747. 7092.12 1
-2 0 -8 144945. 6059.01 2
-2 0 -9 16477.2 1777.90 2
2 0 9 21987.5 2613.41 1
2 0 10 115.481 516.607 1
-2 0 -10 -448.048 397.888 2
-2 0 -11 45267.6 3311.26 2
2 0 11 50970.0 4543.33 1
-2 0 -12 77004.3 4646.13 2
2 0 12 90358.9 6522.98 1
2 0 13 33331.8 4070.68 1
2 0 14 1855.98 1223.08 1
2 0 15 5876.98 1968.73 1
2 0 16 35710.8 4921.91 1
-2 -1 14 18951.7 3569.03 1
-2 -1 13 5368.38 1975.58 1
-2 -1 12 41427.1 4768.76 1
-2 -1 11 79325.7 6490.65 1
-2 -1 10 47097.4 4670.02 1
-2 -1 9 2795.63 1203.22 1
-2 -1 8 39219.2 3777.77 1
-2 -1 8 37786.9 3396.53 6
-2 -1 7 76553.7 4679.29 6
-2 -1 7 63000.7 4665.77 1
-2 -1 6 18303.3 2090.35 6
-2 -1 6 21326.0 2430.21 1
-2 -1 5 5656.60 1154.74 1
-2 -1 5 5038.36 1079.38 6
-2 -1 4 19655.2 1962.77 6
-2 -1 3 215237. 7852.08 6
2 1 -2 226161. 8049.72 3
2 1 -1 44168.2 2519.22 4
2 1 -1 39788.7 2598.64 3
-2 -1 0 40909.6 2602.96 3
-2 -1 0 45607.3 2728.39 2
2 1 0 39972.8 2533.94 3
2 1 0 43699.1 2505.69 4
-2 -1 -1 161938. 6056.78 4
2 1 1 163277. 5980.23 4
-2 -1 -1 163343. 6130.38 3
2 1 1 162788. 6029.37 3
-2 -1 -2 262471. 8680.66 4
-2 -1 -2 268946. 8759.50 3
2 1 2 264873. 8621.70 3
2 1 2 248430. 7031.44 1
-2 -1 -2 267975. 7006.39 1
-2 -1 -3 54705.7 2460.71 5
-2 -1 -3 58584.2 3280.58 4
2 1 3 55515.8 2369.67 1
-2 -1 -3 54979.1 3205.63 3
2 1 3 55691.3 3133.21 3
-2 -1 -3 58447.3 2426.21 1
2 1 4 67072.2 3032.91 1
2 1 4 64352.4 2929.56 5
2 1 4 63119.1 3508.91 3
2 1 5 245713. 8017.82 5
2 1 5 243544. 8239.58 1
2 1 5 254995. 8919.98 3
2 1 6 48827.8 3117.17 1
2 1 6 47513.4 2907.79 5
2 1 7 24772.3 2340.79 1
2 1 8 2326.50 798.061 1
-2 -1 -8 4723.86 776.758 2
2 1 9 57350.0 4272.96 1
-2 -1 -9 60125.3 3108.55 2
2 1 10 71883.1 5172.77 1
-2 -1 -10 82406.1 3863.92 2
2 1 11 66458.8 5156.84 1
-2 -1 -11 60116.6 3399.26 2
2 1 12 127.412 427.769 1
2 1 13 18880.2 3055.78 1
2 1 14 65493.8 5993.33 1
2 1 15 31043.4 4257.51 1
2 1 16 -257.317 603.317 1
-2 -2 13 26633.3 4053.94 1
-2 -2 12 19594.7 3386.13 1
-2 -2 11 862.450 799.548 1
2 2 -11 1922.69 624.843 2
2 2 -10 32005.0 3651.91 2
-2 -2 10 32090.4 3898.01 1
-2 -2 9 62568.1 5243.47 1
2 2 -9 52482.9 4595.15 2
2 2 -8 55387.9 4500.53 2
-2 -2 8 50714.4 4502.96 1
-2 -2 7 10713.0 1865.90 6
2 2 -7 13220.1 2073.92 2
-2 -2 6 23729.7 2602.82 6
2 2 -6 21262.1 2537.48 2
2 2 -5 83325.2 5122.07 2
-2 -2 5 93867.6 5231.88 6
2 2 -4 134784. 6548.15 2
-2 -2 4 135428. 6308.46 6
2 2 -3 35356.8 2110.16 4
2 2 -3 38465.5 3017.59 2
-2 -2 3 34801.2 2815.64 6
2 2 -2 15396.3 1291.91 4
2 2 -2 14658.3 1515.49 3
-2 -2 2 13756.5 1653.91 6
2 2 -2 11215.4 1549.97 2
2 2 -1 113294. 4664.57 3
2 2 -1 110410. 4283.13 4
2 2 -1 107054. 5131.29 2
-2 -2 1 113569. 5100.74 6
-2 -2 0 135459. 5128.13 4
-2 -2 0 141936. 5367.25 3
2 2 0 131622. 5144.63 3
-2 -2 -1 65002.1 3283.49 4
-2 -2 -1 67905.2 3504.53 2
-2 -2 -1 69567.8 3375.69 3
2 2 1 66467.3 3254.90 3
-2 -2 -1 64758.5 2849.90 1
-2 -2 -2 76667.2 3772.08 4
-2 -2 -2 80057.0 3747.07 2
-2 -2 -2 85678.6 3303.30 1
2 2 2 76766.1 3623.18 3
-2 -2 -2 81185.1 3809.89 3
-2 -2 -3 110369. 4519.72 5
-2 -2 -3 102258. 4045.69 1
-2 -2 -3 104781. 4668.61 3
2 2 3 104812. 4563.75 3
2 2 3 109042. 4206.65 1
-2 -2 -3 115312. 4419.70 2
-2 -2 -4 320586. 10063.5 5
-2 -2 -4 319747. 9692.18 1
-2 -2 -4 317369. 9443.44 2
2 2 4 313566. 9803.28 1
2 2 4 315764. 10263.2 3
-2 -2 -5 208555. 7485.08 5
2 2 5 210321. 7473.91 1
-2 -2 -5 206644. 7361.75 1
2 2 6 853.114 489.482 1
2 2 7 57669.2 3735.56 1
2 2 8 164214. 7353.07 1
-2 -2 -8 152723. 4976.15 2
-2 -2 -9 62413.7 2567.00 2
2 2 9 63803.6 4488.67 1
-2 -2 -10 15999.9 1153.42 2
2 2 10 17156.4 2373.70 1
2 2 11 22627.0 2936.53 1
2 2 12 90682.1 6465.82 1
2 2 13 69744.8 5872.51 1
2 2 14 7599.89 2016.23 1
2 2 15 6526.89 2059.88 1
2 2 16 29890.9 4413.85 1
-2 -3 13 -49.9320 751.812 1
2 3 -13 1862.73 1057.31 2
-2 -3 12 16757.0 3242.62 1
2 3 -12 15278.3 2836.42 2
2 3 -11 41066.2 4498.22 2
-2 -3 11 40785.3 4815.38 1
2 3 -10 34081.6 3966.09 2
-2 -3 10 30241.7 3935.24 1
2 3 -9 9524.75 2037.90 2
2 3 -8 2447.36 1004.01 2
2 3 -7 79475.8 5604.07 2
2 3 -6 78273.8 5311.53 2
-2 -3 6 67525.6 5024.76 6
2 3 -5 31105.8 1675.81 4
-2 -3 5 32229.3 3181.37 6
2 3 -5 35956.6 3372.42 2
-2 -3 4 9168.45 1613.72 6
2 3 -4 10870.0 899.967 4
2 3 -4 9384.81 1631.94 2
-2 -3 3 275133. 10116.7 6
2 3 -3 259391. 8639.64 3
2 3 -2 416555. 13520.4 2
2 3 -2 383858. 11717.6 3
-2 -3 2 393998. 13242.7 6
2 3 -1 65375.4 3942.30 2
2 3 -1 58161.1 2900.60 3
-2 -3 1 56154.0 3649.65 6
-2 -3 0 1329.27 434.616 4
-2 -3 0 1970.92 492.066 3
2 3 0 2450.65 571.431 3
2 3 0 1696.29 632.460 2
-2 -3 0 1925.01 623.728 6
2 3 1 211120. 7743.82 2
-2 -3 -1 202594. 6927.41 3
-2 -3 -1 205219. 7070.52 4
2 3 1 201970. 6712.12 3
-2 -3 -1 212990. 7760.51 6
-2 -3 -1 206341. 7285.85 1
-2 -3 -2 104414. 4436.38 3
2 3 2 103174. 4259.15 3
2 3 2 111191. 4808.97 2
-2 -3 -2 110000. 4660.47 1
-2 -3 -3 44927.8 2750.15 2
-2 -3 -3 41205.9 2612.66 1
-2 -3 -3 42318.9 2638.92 3
2 3 3 43919.7 2583.19 3
2 3 3 41516.2 2650.32 1
-2 -3 -4 26527.4 2304.10 5
-2 -3 -4 26084.3 1885.57 2
-2 -3 -4 28038.4 2134.48 1
2 3 4 25139.4 2113.67 1
-2 -3 -5 62188.2 3744.58 5
-2 -3 -5 58066.9 2822.65 2
2 3 5 69592.9 3820.17 1
-2 -3 -6 104557. 5201.69 5
-2 -3 -6 94361.9 3565.21 2
2 3 6 89633.3 4845.32 1
-2 -3 -7 137931. 4282.30 2
2 3 7 126347. 6305.31 1
2 3 8 17600.5 2179.67 1
2 3 9 52052.3 4102.08 1
2 3 10 116049. 6805.27 1
2 3 11 79880.1 5772.60 1
2 3 12 22841.0 3174.10 1
2 3 13 8525.58 2060.07 1
2 3 14 36925.9 4445.24 1
2 3 15 28746.8 4144.54 1
2 3 16 1485.68 765.736 1
2 4 -13 8435.74 2243.61 2
-2 -4 12 23494.4 3975.19 1
2 4 -12 26529.2 3841.72 2
2 4 -11 6332.34 1838.84 2
2 4 -10 3752.26 1501.07 2
2 4 -9 40522.4 4433.26 2
2 4 -8 113918. 7442.41 2
2 4 -7 28388.4 3404.12 2
2 4 -6 2711.99 1033.32 2
2 4 -5 47622.7 4144.46 2
-2 -4 5 47250.0 4269.64 6
2 4 -4 64915.0 4720.25 2
2 4 -4 59947.4 3329.57 3
-2 -4 4 60978.5 4678.26 6
2 4 -3 33247.0 3237.16 2
-2 -4 3 38578.5 3488.57 6
2 4 -3 40862.9 2404.97 3
2 4 -2 11227.4 1096.41 3
2 4 -2 10261.2 1681.29 2
-2 -4 2 11823.6 1798.64 6
-2 -4 1 7107.10 829.648 4
2 4 -1 7515.10 825.065 3
2 4 -1 6008.53 1220.32 2
-2 -4 1 8144.24 1444.46 6
-2 -4 0 102409. 4200.50 4
2 4 0 105544. 5455.88 2
2 4 0 107342. 3878.15 3
-2 -4 0 113552. 5645.74 6
2 4 1 73604.5 4257.55 2
-2 -4 -1 73708.3 3316.02 3
-2 -4 -1 78565.5 4440.12 6
2 4 1 80296.2 3207.05 3
-2 -4 -2 1993.68 563.035 3
-2 -4 -2 800.867 445.055 6
2 4 2 1758.65 546.482 2
2 4 3 4643.30 912.376 2
-2 -4 -3 2962.57 678.974 3
-2 -4 -3 4940.41 997.544 6
-2 -4 -4 256994. 9605.44 5
2 4 4 239973. 8124.44 2
2 4 4 254118. 9194.17 1
-2 -4 -5 271667. 10264.6 5
-2 -4 -5 259794. 8564.88 2
2 4 5 262682. 9895.72 1
2 4 6 26067.6 2594.82 1
-2 -4 -6 24463.4 2571.55 5
-2 -4 -6 26978.9 1757.24 2
-2 -4 -7 26189.7 2759.73 5
2 4 7 25175.0 2641.45 1
-2 -4 -7 24463.2 1388.82 2
2 4 8 114246. 6402.08 1
2 4 9 48046.1 4108.87 1
2 4 10 6511.22 1579.38 1
2 4 11 -1332.10 822.288 1
2 4 12 39689.6 4271.77 1
2 4 13 69331.6 6016.11 1
2 4 14 11469.6 2514.53 1
2 4 15 1334.83 926.295 1
2 4 16 23401.1 3898.48 1
2 5 -11 18614.3 3346.24 2
2 5 -10 32777.1 4339.09 2
2 5 -9 56537.4 5539.87 2
2 5 -8 2205.10 1144.75 2
2 5 -7 43397.4 4534.14 2
2 5 -6 55372.1 4948.80 2
2 5 -5 39601.3 4079.36 2
2 5 -4 4215.61 743.449 3
2 5 -4 4232.02 1266.70 2
-2 -5 4 5825.19 1597.98 6
2 5 -3 63446.1 4834.83 2
2 5 -3 60263.9 2563.81 3
-2 -5 3 55980.9 4654.96 6
2 5 -2 156615. 8069.60 2
2 5 -2 168387. 4951.45 3
2 5 -1 118514. 6531.90 2
2 5 -1 124960. 3671.18 3
-2 -5 1 125455. 6750.36 6
-2 -5 1 123206. 4364.16 4
-2 -5 0 5837.83 1289.78 6
-2 -5 0 5439.66 784.963 4
2 5 0 5446.13 1231.47 2
2 5 1 33033.7 2930.79 2
-2 -5 -1 38076.2 3185.45 6
-2 -5 -1 36304.5 1900.95 3
2 5 2 71090.0 4361.95 2
-2 -5 -2 74420.4 3283.62 3
-2 -5 -2 71638.8 4396.90 6
2 5 3 144098. 6277.62 2
-2 -5 -3 137979. 5442.81 3
-2 -5 -3 143951. 6522.84 6
-2 -5 -4 46514.9 3303.42 6
2 5 4 48486.8 3122.50 2
-2 -5 -5 16013.6 2204.42 5
-2 -5 -5 11496.9 1552.36 6
2 5 5 16432.1 1594.13 2
2 5 5 14997.6 2049.95 1
-2 -5 -6 119367. 6634.48 5
-2 -5 -6 114160. 4786.90 2
2 5 6 120371. 6501.06 1
-2 -5 -6 117514. 5287.92 6
-2 -5 -7 189371. 8977.66 5
2 5 7 206890. 9107.06 1
-2 -5 -7 186578. 7124.36 6
-2 -5 -7 183834. 6205.46 2
-2 -5 -8 23693.0 2908.85 5
2 5 8 23253.4 2855.65 1
2 5 9 25669.2 3170.00 1
2 5 10 70586.7 5511.01 1
2 5 11 93498.4 6680.06 1
2 5 12 81769.7 6471.92 1
2 5 13 66.1071 714.985 1
2 5 14 14832.5 3029.11 1
2 5 15 40585.8 5077.53 1
2 5 16 11489.1 2879.27 1
2 6 -10 -25.6345 725.972 2
2 6 -9 17291.3 3232.25 2
2 6 -8 62117.3 5901.76 2
2 6 -7 16293.7 2903.87 2
2 6 -6 2667.60 1109.44 2
2 6 -5 11111.7 2315.74 2
2 6 -4 22853.7 3164.79 2
2 6 -3 67705.9 5407.28 2
2 6 -2 81787.0 5808.53 2
-2 -6 2 80076.7 5850.43 6
-2 -6 1 7463.05 1625.35 6
-2 -6 1 6141.13 714.964 4
2 6 -1 4369.55 1274.93 2
2 6 0 121562. 6896.88 2
-2 -6 0 131075. 7185.12 6
2 6 1 90004.5 5478.39 2
-2 -6 -1 78129.9 5298.74 6
-2 -6 -2 13959.0 1130.95 3
2 6 2 14603.7 1994.80 2
-2 -6 -2 15075.7 2132.79 6
2 6 3 8942.16 1490.15 2
-2 -6 -3 9752.60 1115.21 3
-2 -6 -3 8614.79 1496.20 6
2 6 4 98111.1 5025.48 2
-2 -6 -4 87176.4 5106.41 6
-2 -6 -5 117361. 6984.32 5
2 6 5 117822. 5481.72 2
-2 -6 -5 116564. 5854.96 6
-2 -6 -6 72928.9 5409.74 5
2 6 6 70537.9 3748.54 2
-2 -6 -6 67368.7 4064.59 6
2 6 6 71974.0 5206.25 1
-2 -6 -7 667.758 452.015 5
2 6 7 -3.03557 424.829 1
-2 -6 -7 190.714 399.820 6
-2 -6 -8 16298.9 2619.23 5
-2 -6 -8 13671.7 1574.31 6
2 6 8 12661.6 2235.70 1
-2 -6 -9 20047.6 2953.05 5
2 6 9 15408.6 2568.22 1
-2 -6 -9 14523.2 1552.28 6
2 6 10 42272.9 4453.61 1
2 6 11 13138.1 2554.05 1
2 6 12 15297.5 2867.05 1
2 6 13 70004.0 6375.12 1
2 6 14 33265.7 4602.06 1
2 6 15 8331.75 2284.67 1
2 7 -8 1511.45 1235.09 2
2 7 -7 7309.16 2187.65 2
2 7 -6 27692.0 3893.38 2
2 7 -5 45773.9 4928.11 2
2 7 -4 9233.08 2169.42 2
2 7 -3 3422.49 1386.59 2
2 7 -2 72114.2 5821.86 2
2 7 -1 113960. 7270.42 2
2 7 0 16534.2 2563.28 2
2 7 1 -295.368 556.148 2
-2 -7 -1 479.588 718.286 6
2 7 2 31808.3 3330.38 2
-2 -7 -2 32700.7 3413.92 6
2 7 3 86479.7 5531.58 2
-2 -7 -3 88327.8 5662.79 6
2 7 4 32776.9 2998.60 2
-2 -7 -4 26759.0 2930.44 6
-2 -7 -5 5835.39 1293.07 6
-2 -7 -5 8780.92 1941.17 5
2 7 5 7100.94 1334.54 2
-2 -7 -6 40852.9 3378.98 6
-2 -7 -6 48763.7 4696.73 5
2 7 6 46115.9 3272.91 2
-2 -7 -7 131536. 8189.70 5
-2 -7 -7 120127. 6162.44 6
2 7 7 137724. 5814.11 2
2 7 7 144243. 8277.72 1
-2 -7 -8 28559.7 3740.65 5
-2 -7 -8 30080.6 2645.26 6
2 7 8 38677.4 4123.14 1
-2 -7 -9 -100.576 513.875 5
2 7 9 -11.6972 699.973 1
-2 -7 -10 31139.9 4067.57 5
2 7 10 39622.6 4449.67 1
2 7 11 76072.9 6506.01 1
2 7 12 67425.0 6341.04 1
2 7 13 10536.2 2451.28 1
2 7 14 3849.16 1645.51 1
2 7 15 32481.1 4809.00 1
2 8 -6 4928.28 1747.15 2
2 8 -5 3815.55 1569.36 2
2 8 -4 22327.6 3567.31 2
2 8 -3 58041.4 5654.66 2
2 8 -2 42413.0 4673.16 2
2 8 -1 2141.76 942.780 2
2 8 0 53042.3 4957.38 2
2 8 1 35960.8 3993.32 2
2 8 2 21560.5 2952.92 2
2 8 3 -298.387 590.193 2
2 8 4 17683.7 2382.67 2
-2 -8 -5 66659.4 5850.45 5
2 8 5 66434.7 4594.42 2
-2 -8 -6 106037. 7536.51 5
2 8 6 96458.0 5461.33 2
-2 -8 -7 8567.76 2110.77 5
-2 -8 -8 1013.51 1007.41 5
-2 -8 -9 35605.1 4462.23 5
2 8 9 34079.4 4287.00 1
-2 -8 -10 70605.7 6504.50 5
2 8 10 75018.7 6543.71 1
-2 -8 -11 8484.24 2304.45 5
2 8 11 13111.5 2744.15 1
2 8 12 2735.09 1371.73 1
2 8 13 35655.9 4864.20 1
2 8 14 38326.4 5312.51 1
2 9 -4 20604.7 3776.64 2
2 9 -3 135.285 781.296 2
2 9 -2 12160.1 2687.14 2
2 9 -1 34896.9 4345.45 2
2 9 0 45158.8 4909.11 2
2 9 1 2953.43 1278.73 2
2 9 2 3067.18 1412.89 2
2 9 3 54387.8 4910.38 2
2 9 4 50748.5 4568.44 2
-2 -9 -5 17846.4 3200.99 5
2 9 5 19264.4 2575.93 2
-2 -9 -6 8074.00 2146.37 5
-2 -9 -7 54935.2 5829.54 5
-2 -9 -8 39542.8 4937.37 5
-2 -9 -9 6465.41 2047.06 5
2 9 10 1576.61 1018.62 1
-2 -9 -10 1590.58 1171.70 5
-2 -9 -11 19723.2 3682.82 5
2 9 11 23617.5 3846.53 1
2 9 12 40229.5 5221.14 1
2 10 -2 23267.5 3901.55 2
2 10 -1 7530.94 2054.28 2
2 10 0 12834.8 2779.76 2
2 10 1 13986.5 2759.24 2
2 10 2 28006.8 3890.37 2
2 10 3 15077.8 2722.44 2
-2 -10 -4 5817.91 1943.37 5
2 10 4 9773.77 2106.91 2
-2 -10 -5 33485.9 4680.76 5
-2 -10 -6 37186.2 4955.20 5
-2 -10 -7 13030.3 2929.72 5
-2 -10 -8 101.906 746.387 5
-2 -10 -9 20632.6 3806.49 5
2 11 1 8829.32 2425.29 2
2 11 2 1167.87 1129.07 2
-3 10 4 854.890 1063.04 2
-3 10 3 1645.70 923.473 2
-3 10 2 34580.5 4733.94 2
3 -9 -9 -760.142 832.573 3
3 -9 -8 20803.1 3521.63 3
3 -9 -7 19390.8 3244.39 3
-3 9 6 11228.3 2447.63 2
3 -9 -6 9981.66 2351.56 3
-3 9 5 1787.62 1265.53 2
3 -9 -4 25935.6 3676.17 5
-3 9 4 23485.7 3573.50 2
3 -9 -3 34181.8 4144.06 5
-3 9 3 36073.8 4552.81 2
-3 9 2 12023.2 2627.91 2
-3 9 1 1087.41 876.836 2
-3 9 0 16516.0 3146.94 2
-3 9 -1 51066.1 5723.00 2
-3 9 -2 14417.4 3120.81 2
-3 9 -3 1785.23 1127.79 2
-3 8 10 21174.6 3698.77 1
3 -8 -10 17437.6 3362.48 3
-3 8 9 33713.7 4611.25 1
3 -8 -9 30070.3 4355.83 3
3 -8 -8 10354.0 2334.45 3
3 -8 -7 5923.65 1934.08 3
3 -8 -6 32632.0 4068.60 3
3 -8 -5 58978.0 5377.08 3
3 -8 -4 12906.0 2440.78 5
3 -8 -4 14775.5 2533.20 3
3 -8 -3 396.473 495.008 5
3 -8 -3 -282.666 562.166 3
3 -8 -2 23829.3 3159.92 5
-3 8 2 24763.8 3584.42 2
3 -8 -2 17635.1 2664.40 3
3 -8 -1 52659.5 4695.50 5
3 -8 -1 44469.8 4183.37 3
-3 8 1 44663.3 4979.62 2
3 -8 0 14798.4 2421.82 5
-3 8 0 21977.3 3483.10 2
-3 8 -1 -287.256 968.141 2
-3 8 -2 20463.3 3483.20 2
-3 8 -3 52111.3 5617.47 2
-3 8 -4 24935.9 3954.46 2
-3 8 -5 4595.03 1746.86 2
-3 8 -6 9185.22 2599.51 2
-3 7 11 35495.6 4864.70 1
-3 7 10 12341.3 2830.24 1
3 -7 -9 2728.14 1330.77 3
-3 7 9 117.417 722.721 1
-3 7 8 21517.5 3445.26 1
3 -7 -8 22484.4 3608.71 3
-3 7 7 48266.1 5009.80 1
3 -7 -7 48289.3 5010.99 3
3 -7 -6 35767.5 4170.87 3
3 -7 -5 3225.33 1237.24 3
3 -7 -4 46805.7 4546.26 3
3 -7 -3 64342.0 5075.11 5
3 -7 -3 62289.4 5143.24 3
3 -7 -2 24468.5 2965.89 5
3 -7 -2 24515.9 3077.98 3
3 -7 -1 -118.602 574.396 5
3 -7 -1 -704.339 602.646 3
3 -7 0 22068.7 2777.26 5
3 -7 0 20255.9 2709.70 3
3 -7 1 54575.6 4386.69 5
3 -7 1 57572.2 4526.81 3
-3 7 -1 53369.4 5232.59 2
3 -7 2 50514.2 4265.19 5
3 -7 2 57482.7 4462.33 3
-3 7 -2 51769.0 5281.89 2
-3 7 -3 10954.8 2395.80 2
3 -7 3 17186.1 2407.88 3
-3 7 -4 2752.26 1169.89 2
-3 7 -5 20260.5 3376.02 2
-3 7 -6 55642.2 5814.31 2
-3 7 -7 7321.52 2186.32 2
-3 7 -8 740.161 851.847 2
-3 6 12 20768.9 3698.06 1
-3 6 11 -2013.57 1220.02 1
-3 6 10 38507.6 4783.24 1
-3 6 9 54773.3 5468.22 1
-3 6 8 28785.6 3736.96 1
-3 6 7 1571.73 984.379 1
3 -6 -7 842.347 596.942 3
3 -6 -6 28782.2 3707.30 3
-3 6 6 30940.9 3701.20 1
-3 6 5 61785.9 5148.04 1
3 -6 -5 48166.0 4666.49 3
3 -6 -4 82616.1 6004.94 3
3 -6 -3 32882.6 3598.57 3
3 -6 -2 9392.30 1711.99 5
3 -6 -2 8790.06 1805.55 3
3 -6 -1 40641.6 3484.20 5
3 -6 -1 42648.4 3920.78 3
3 -6 0 71779.9 4650.81 5
3 -6 0 65318.5 4882.63 3
3 -6 1 16421.3 2156.99 5
3 -6 1 17565.6 2418.00 3
3 -6 2 5353.14 1215.40 5
3 -6 2 1898.57 815.494 3
3 -6 3 98034.4 5946.87 3
-3 6 -3 104731. 7278.57 2
3 -6 4 76970.0 5218.66 3
-3 6 -4 94939.1 6980.47 2
-3 6 -5 19648.9 3149.46 2
3 -6 5 14259.2 2173.25 3
-3 6 -6 3173.35 1402.71 2
3 -6 6 3647.28 1179.21 3
-3 6 -7 31421.1 4180.08 2
-3 6 -8 33935.0 4394.78 2
-3 6 -9 38102.0 4812.97 2
-3 6 -10 268.915 861.188 2
-3 6 -11 12609.3 2867.55 2
-3 5 13 622.787 754.973 1
-3 5 12 12915.2 2912.01 1
-3 5 11 63035.7 6132.83 1
-3 5 10 39192.8 4639.39 1
-3 5 9 1084.73 847.485 1
-3 5 8 10222.2 2153.71 1
-3 5 7 48704.0 4577.40 1
3 -5 -6 37908.5 4168.09 3
-3 5 6 33291.6 3646.38 1
-3 5 5 376.852 629.277 1
3 -5 -5 -118.882 465.306 3
-3 5 4 11438.7 1998.15 1
3 -5 -4 8296.31 1820.65 3
3 -5 -3 130704. 7470.93 3
3 -5 -2 36704.5 3626.27 3
3 -5 -1 12171.7 1678.34 5
3 -5 -1 12204.5 1999.89 3
3 -5 0 1012.23 510.706 5
3 -5 0 746.934 696.193 3
3 -5 1 88171.1 4739.85 5
3 -5 1 89344.9 5613.40 3
3 -5 2 104073. 5316.73 5
3 -5 2 120182. 6516.79 3
3 -5 3 50361.7 4047.50 3
3 -5 4 675.749 430.865 3
3 -5 5 52152.8 4102.21 3
-3 5 -5 48158.6 4703.90 2
3 -5 6 57455.3 4482.83 3
-3 5 -6 54104.2 5096.15 2
-3 5 -7 14312.4 2553.03 2
3 -5 7 10010.1 1859.47 3
-3 5 -8 958.815 1075.46 2
-3 5 -9 21222.5 3301.75 2
-3 5 -10 47817.3 5156.64 2
-3 5 -11 37929.4 4723.41 2
-3 5 -12 3763.05 1722.87 2
-3 5 -13 4909.69 1749.47 2
-3 4 13 21437.0 3731.24 1
-3 4 12 29247.7 4142.85 1
-3 4 11 136.261 819.692 1
-3 4 10 13864.6 2676.85 1
-3 4 9 34800.6 4056.48 1
-3 4 8 38349.4 4003.30 1
-3 4 7 25867.1 3127.76 1
-3 4 6 4869.57 1299.64 1
3 -4 -5 53713.5 4710.46 3
-3 4 5 58495.8 4467.07 1
3 -4 -4 269041. 11607.3 3
-3 4 4 260251. 10661.5 1
-3 4 3 107498. 5901.12 1
3 -4 -3 111145. 6605.95 3
3 -4 -2 12247.0 2007.18 3
3 -4 -1 43457.4 3773.95 3
3 -4 0 126138. 5445.08 5
3 -4 0 128714. 6831.03 3
3 -4 1 39864.0 2643.37 5
3 -4 1 38593.3 3436.50 3
3 -4 2 359.210 309.569 5
3 -4 2 636.079 666.859 3
3 -4 3 62774.8 4461.39 3
3 -4 4 131679. 6861.63 3
3 -4 5 49941.2 3974.30 3
-3 4 -6 4922.77 1427.56 2
3 -4 6 4179.11 1199.53 3
3 -4 7 1332.53 784.440 3
-3 4 -7 465.625 744.593 2
-3 4 -8 80986.2 6160.16 2
-3 4 -9 110849. 7428.85 2
-3 4 -10 20002.0 3147.82 2
-3 4 -11 3433.76 1294.91 2
-3 4 -12 40624.1 4631.43 2
-3 4 -13 23113.3 3596.47 2
-3 3 14 8696.50 2439.25 1
-3 3 13 10250.5 2599.49 1
-3 3 12 5503.15 1836.58 1
-3 3 11 54820.1 5427.75 1
-3 3 10 67042.6 5707.21 1
-3 3 9 18813.3 2828.20 1
-3 3 8 1606.48 883.253 1
-3 3 7 33287.6 3409.41 1
-3 3 6 83147.1 5313.74 1
3 -3 -5 42481.3 4062.02 3
-3 3 5 41050.5 3473.72 1
-3 3 4 331.637 432.254 1
3 -3 -4 927.360 596.679 3
3 -3 -3 137991. 7341.53 3
-3 3 3 131554. 6277.91 1
-3 3 2 67709.1 4034.95 1
3 -3 -2 70230.1 4874.46 3
3 -3 -1 60023.7 4372.69 3
3 -3 0 6571.38 1390.70 3
3 -3 1 40858.5 2226.21 5
3 -3 1 43927.6 3562.86 3
3 -3 2 118661. 4350.33 5
3 -3 2 118574. 6311.85 3
3 -3 3 147533. 7139.98 3
3 -3 4 21735.8 2473.39 3
3 -3 5 46167.0 3721.29 3
3 -3 6 54179.6 4153.89 3
3 -3 7 37126.0 3451.81 3
-3 3 -7 38196.9 3770.48 2
-3 3 -8 10165.8 1940.76 2
-3 3 -9 29268.4 3443.60 2
-3 3 -10 45851.8 4425.76 2
-3 3 -11 83805.3 6195.57 2
-3 3 -11 72788.2 5577.43 4
-3 3 -12 9530.60 2211.18 2
3 -3 13 2220.77 1162.79 1
-3 3 -13 2441.63 922.386 2
3 -3 14 2424.02 1249.63 1
-3 2 14 949.404 1031.49 1
-3 2 13 15042.4 3079.66 1
-3 2 12 23571.9 3635.66 1
-3 2 11 12935.7 2570.92 1
-3 2 10 -540.916 640.981 1
-3 2 9 37942.0 3980.35 1
-3 2 8 63714.6 4884.92 1
-3 2 8 56059.4 3626.05 6
-3 2 7 47807.9 3944.93 1
-3 2 7 41845.0 3012.33 6
-3 2 6 1882.04 867.896 1
-3 2 5 62759.6 4110.84 1
3 -2 -4 237145. 10462.5 3
-3 2 4 249260. 9206.26 1
3 -2 -3 66295.2 4731.03 3
-3 2 3 72935.4 3977.49 1
-3 2 2 -99.9239 242.517 5
-3 2 2 -26.4989 333.561 1
3 -2 -2 21.2699 287.629 1
3 -2 -2 -102.958 390.143 3
-3 2 1 13901.2 1327.66 5
3 -2 -1 15833.7 1521.18 1
3 -2 -1 15923.6 2137.16 3
3 -2 0 49545.3 3737.94 3
3 -2 0 45145.9 2681.36 1
3 -2 1 84793.4 5092.55 3
3 -2 1 88520.3 4076.59 1
3 -2 2 38086.9 2539.74 1
3 -2 2 47363.9 3619.71 3
3 -2 3 23373.5 2517.00 3
3 -2 4 175927. 7891.77 3
3 -2 5 158971. 7550.72 3
3 -2 6 44783.4 3683.82 3
-3 2 -7 4537.13 1224.30 4
3 -2 7 3227.45 1078.40 3
-3 2 -8 101296. 6183.04 4
3 -2 8 113275. 6461.52 3
-3 2 -8 103629. 6247.03 2
-3 2 -9 135084. 7534.03 4
-3 2 -9 148268. 7742.92 2
-3 2 -10 34517.2 3550.57 2
-3 2 -10 34985.7 3609.52 4
-3 2 -11 539.026 739.628 4
-3 2 -11 -207.676 693.788 2
-3 2 -12 37309.6 3813.78 2
3 -2 12 27704.5 3730.28 1
-3 2 -12 32769.2 3666.99 4
3 -2 13 23242.5 3558.69 1
-3 2 -13 19544.6 2990.17 4
3 -2 14 16010.6 3044.06 1
3 -2 15 -512.771 730.510 1
-3 1 14 21172.2 3740.82 1
-3 1 13 31600.0 4350.22 1
-3 1 12 917.897 1163.57 1
-3 1 11 31888.9 3974.62 1
-3 1 10 61343.2 5311.62 1
-3 1 9 31428.6 3557.19 1
-3 1 9 37198.6 3178.22 6
-3 1 8 -97.3125 443.923 1
-3 1 8 -603.911 559.444 6
-3 1 7 25332.9 2788.62 1
-3 1 7 21250.1 2251.92 6
-3 1 6 99409.0 5553.22 1
-3 1 6 99375.6 5112.80 6
-3 1 5 96861.5 5118.74 1
-3 1 4 3982.94 864.955 1
3 -1 -4 7864.37 1583.65 3
3 -1 -3 24053.1 2654.21 3
-3 1 3 17784.8 1709.32 1
3 -1 -3 21730.1 1882.44 1
3 -1 -2 115333. 4491.63 1
3 -1 -2 107967. 5937.95 3
-3 1 2 101902. 4395.32 1
3 -1 -1 216617. 6648.34 1
3 -1 -1 219676. 8961.97 3
-3 1 1 199147. 6641.91 1
-3 1 0 51564.1 2306.92 5
3 -1 0 57357.7 2392.28 1
3 -1 0 58916.1 4019.03 3
3 -1 1 896.102 266.131 1
3 -1 1 1095.37 615.923 3
3 -1 2 227434. 9054.88 3
3 -1 2 221567. 6876.97 1
3 -1 3 259150. 10014.5 3
3 -1 4 72956.5 4519.13 3
3 -1 5 12668.8 938.502 5
-3 1 -5 14006.3 1959.73 4
3 -1 5 14054.5 1949.97 3
-3 1 -6 68217.3 4664.33 4
3 -1 6 71189.8 4625.36 3
-3 1 -7 35904.4 3334.07 4
3 -1 7 38592.1 3410.48 3
-3 1 -8 35163.6 3412.05 4
3 -1 9 261.477 468.969 1
-3 1 -9 287.172 555.473 4
-3 1 -9 -173.268 523.806 2
3 -1 10 18260.6 2655.09 1
-3 1 -10 24652.3 2734.66 2
-3 1 -10 20606.3 2762.86 4
-3 1 -11 95040.1 5728.65 2
-3 1 -11 87708.3 6143.82 4
3 -1 11 88252.5 6306.77 1
-3 1 -12 48567.6 4033.50 2
-3 1 -12 35803.8 3920.96 4
3 -1 12 46019.4 4655.49 1
3 -1 13 5291.64 1752.96 1
-3 1 -13 6925.92 1776.57 4
3 -1 14 5507.58 1730.50 1
-3 1 -14 2600.48 1260.96 4
3 -1 15 40357.0 5006.45 1
-3 1 -15 30520.7 3940.10 4
-3 0 14 -2013.17 1278.80 1
-3 0 13 14172.1 2989.40 1
-3 0 12 36338.5 4510.01 1
-3 0 11 34043.8 4161.21 1
-3 0 10 2237.88 1042.57 1
-3 0 10 4349.76 1296.58 6
-3 0 9 11431.0 1947.41 6
-3 0 9 9810.18 2023.61 1
-3 0 8 34205.3 3514.57 1
-3 0 8 35236.1 3215.68 6
-3 0 7 42228.6 3715.96 1
-3 0 7 50208.8 3744.11 6
-3 0 6 25608.6 2643.45 1
-3 0 6 28101.7 2685.83 6
-3 0 5 1199.36 642.693 6
-3 0 5 2916.55 820.681 1
-3 0 4 112183. 5163.87 1
3 0 -4 118857. 6440.28 3
-3 0 3 99087.0 4353.61 1
3 0 -3 97938.7 5643.40 3
-3 0 2 59305.1 2868.57 1
3 0 -2 75035.9 4603.67 3
-3 0 1 445.764 197.492 1
3 0 -1 1131.52 667.178 3
3 0 0 38339.0 3095.77 3
3 0 1 175123. 7508.85 3
3 0 2 96454.2 5163.58 3
-3 0 -3 8410.24 1443.47 4
3 0 3 7274.05 1359.36 3
3 0 3 10225.0 785.836 1
-3 0 -4 87070.1 4945.88 4
3 0 4 81018.5 4692.73 3
3 0 4 75411.4 3269.39 1
-3 0 -5 165542. 7432.16 4
3 0 5 161558. 7231.44 3
3 0 5 145322. 5714.18 1
3 0 6 74917.9 3389.55 5
-3 0 -6 84086.1 5123.25 4
3 0 6 81081.7 4170.17 1
3 0 7 5603.44 906.664 5
3 0 7 6867.23 1212.46 1
-3 0 -7 5457.99 1278.10 4
3 0 7 7344.34 1453.97 3
-3 0 -8 30258.0 3136.82 4
3 0 8 29045.7 2774.32 1
-3 0 -9 91353.7 5913.36 4
3 0 9 100530. 5779.74 1
-3 0 -10 70768.8 5279.58 4
3 0 10 70119.4 5095.98 1
-3 0 -10 83106.0 4808.22 2
3 0 11 8714.50 1816.19 1
-3 0 -11 10579.0 2101.04 4
-3 0 -11 9593.06 1599.39 2
3 0 12 5412.34 1565.26 1
-3 0 -12 2507.79 1035.90 4
3 0 13 47678.7 4820.84 1
-3 0 -13 41641.8 4365.88 4
3 0 14 34188.3 4303.40 1
-3 0 -14 33858.4 4042.42 4
-3 0 -15 5978.58 1782.33 4
3 0 15 7571.87 2177.39 1
-3 0 -16 511.025 879.248 4
3 0 16 1844.89 1109.51 1
-3 -1 13 25131.4 3995.10 1
-3 -1 12 955.177 891.810 1
-3 -1 11 12187.5 2508.86 1
-3 -1 10 28966.8 3686.81 1
-3 -1 9 48674.8 4585.26 1
-3 -1 9 42562.5 4049.34 6
-3 -1 8 18596.1 2525.92 6
-3 -1 8 21848.2 2851.71 1
-3 -1 7 15181.6 2241.27 1
-3 -1 7 16596.4 2275.89 6
-3 -1 6 58726.5 4239.26 1
-3 -1 6 59733.4 4299.07 6
3 1 -5 148387. 7576.56 3
-3 -1 5 149295. 7054.45 6
-3 -1 5 144363. 6740.13 1
-3 -1 4 54482.5 3466.79 1
3 1 -4 58066.5 4198.68 3
-3 -1 4 55841.6 3875.43 6
-3 -1 3 4072.09 807.442 1
3 1 -3 5668.79 1209.94 3
-3 -1 2 110598. 4400.98 1
3 1 -2 115007. 5841.34 3
3 1 -1 271251. 10061.2 3
-3 -1 1 268858. 7795.38 1
3 1 0 53169.1 3577.61 3
3 1 1 1749.30 753.661 3
-3 -1 -2 90268.9 4869.02 4
3 1 2 90568.5 4846.66 3
-3 -1 -3 167859. 5257.87 5
-3 -1 -3 166005. 7168.19 4
3 1 3 172259. 7106.87 3
3 1 3 154107. 4549.06 1
-3 -1 -4 158643. 7120.50 4
3 1 4 154822. 5098.38 1
3 1 4 154423. 6858.82 3
-3 -1 -5 6503.65 1331.51 4
3 1 5 7393.57 949.997 1
3 1 5 5402.88 1141.31 3
3 1 6 24677.3 2033.72 1
-3 -1 -6 24644.5 2633.02 4
3 1 6 24751.3 2524.38 3
3 1 7 76608.0 3975.38 5
3 1 7 82923.7 4443.04 1
-3 -1 -7 88207.6 5395.53 4
3 1 7 88777.3 5238.84 3
3 1 8 116511. 5909.13 1
-3 -1 -8 129986. 6960.13 4
3 1 9 35699.7 3205.74 1
-3 -1 -10 10337.7 1452.51 2
3 1 10 11453.2 1898.66 1
-3 -1 -11 101000. 4922.23 2
3 1 11 92359.7 6170.42 1
3 1 12 81143.5 6025.87 1
3 1 13 19652.6 3036.28 1
3 1 14 4221.40 1514.26 1
3 1 15 20207.6 3446.38 1
3 1 16 29414.9 4310.89 1
-3 -1 -17 5144.01 1884.47 4
-3 -2 13 6457.87 2100.87 1
-3 -2 12 18533.0 3319.40 1
-3 -2 11 35926.9 4408.82 1
-3 -2 10 17076.0 2885.40 1
-3 -2 9 4451.56 1530.65 1
-3 -2 9 2192.96 1081.93 6
-3 -2 8 33298.4 3682.61 6
-3 -2 8 37181.0 3850.14 1
-3 -2 7 55501.1 4582.29 6
-3 -2 7 59572.3 4708.37 1
-3 -2 6 67274.6 4754.49 1
-3 -2 6 59944.3 4599.61 6
-3 -2 5 7117.99 1475.79 6
-3 -2 5 10414.3 1660.21 1
3 2 -5 6538.69 1429.28 3
3 2 -4 89082.5 5231.04 3
-3 -2 4 91813.8 5415.13 6
3 2 -3 101337. 5419.93 3
-3 -2 3 95447.3 5430.65 6
3 2 -2 87025.3 4863.71 3
3 2 -1 4287.12 1003.49 3
3 2 0 44488.1 3117.06 3
-3 -2 -1 83165.8 4423.94 4
3 2 1 77370.1 4269.65 3
-3 -2 -1 74057.4 2865.53 1
-3 -2 -2 102406. 3406.05 1
-3 -2 -2 106049. 5281.44 4
3 2 2 101233. 5055.42 3
-3 -2 -3 67406.0 2660.34 1
-3 -2 -3 68484.3 4143.99 4
3 2 3 62298.0 3867.02 3
-3 -2 -4 5286.05 730.669 1
-3 -2 -4 6110.89 937.832 5
-3 -2 -4 4324.78 1046.22 4
3 2 4 5123.42 753.444 1
3 2 4 5303.96 1110.03 3
-3 -2 -5 78395.1 3886.50 5
-3 -2 -5 84429.6 4961.49 4
3 2 5 82447.1 3807.07 1
3 2 5 89368.6 4867.82 3
-3 -2 -5 82511.3 3785.38 1
3 2 6 166642. 6514.79 1
3 2 6 168580. 7488.93 3
3 2 7 49535.7 3308.18 1
3 2 8 16796.5 2001.11 1
3 2 9 37194.7 3271.94 1
3 2 10 81325.9 5304.66 1
-3 -2 -10 74604.7 3677.26 2
3 2 11 35065.7 3608.37 1
3 2 12 -178.087 506.743 1
3 2 13 30912.1 3802.93 1
3 2 14 30805.2 3941.13 1
3 2 15 11302.2 2494.61 1
3 2 16 535.460 658.326 1
-3 -3 12 11311.6 2691.10 1
-3 -3 11 -1238.67 987.117 1
-3 -3 10 15839.9 2917.19 1
-3 -3 9 66975.4 5768.92 1
-3 -3 8 25995.5 3442.25 6
-3 -3 8 28833.6 3540.52 1
-3 -3 7 1666.50 879.749 6
3 3 -6 25224.6 2837.35 3
3 3 -6 26242.0 3248.26 2
-3 -3 6 30237.6 3420.51 6
-3 -3 5 88508.1 5861.97 6
3 3 -5 96681.8 5474.87 3
3 3 -5 78353.6 5674.06 2
3 3 -4 61820.7 4118.21 3
3 3 -4 55736.5 4541.27 2
-3 -3 4 62090.0 4629.11 6
3 3 -3 17982.7 1684.22 4
3 3 -3 19504.1 2153.92 3
-3 -3 3 18471.7 2366.98 6
-3 -3 2 8983.98 1663.06 6
3 3 -2 9128.61 1370.62 3
3 3 -1 142453. 6166.90 3
-3 -3 1 143049. 6893.11 6
3 3 0 68875.7 3876.57 3
-3 -3 -1 14176.6 1678.41 4
3 3 1 14694.4 1658.18 3
-3 -3 -1 12640.9 1317.01 1
-3 -3 -2 -176.259 270.237 4
-3 -3 -2 514.757 268.949 1
3 3 2 752.086 494.573 3
-3 -3 -3 198702. 8019.99 4
-3 -3 -3 196070. 6708.73 1
3 3 3 196324. 7655.00 3
-3 -3 -4 253960. 9169.39 5
-3 -3 -4 241850. 8115.33 1
-3 -3 -4 259065. 9738.10 4
3 3 4 252920. 9231.68 3
3 3 4 239518. 8297.43 1
-3 -3 -5 34044.9 2390.41 1
-3 -3 -5 32575.3 2634.32 5
3 3 5 36627.9 2908.90 3
3 3 5 33317.6 2439.56 1
-3 -3 -6 6910.03 1224.74 5
3 3 6 6342.62 1147.52 1
-3 -3 -7 177768. 7349.49 5
-3 -3 -7 155285. 6080.33 2
3 3 7 165834. 7129.69 1
-3 -3 -8 76625.9 3609.27 2
3 3 8 86778.6 4975.06 1
3 3 9 41183.1 3546.13 1
3 3 10 467.183 481.473 1
3 3 11 57543.3 4706.79 1
3 3 12 65307.8 5339.64 1
3 3 13 40733.9 4391.08 1
3 3 14 3596.90 1425.07 1
3 3 15 15293.4 2949.42 1
3 3 16 30156.0 4356.28 1
-3 -4 11 35049.5 4650.82 1
3 4 -10 31952.5 4311.55 2
-3 -4 10 36151.3 4586.19 1
3 4 -9 3142.46 1381.34 2
3 4 -8 13441.7 2646.48 2
3 4 -7 39764.8 4358.44 2
-3 -4 7 38690.5 4307.35 6
3 4 -6 54852.8 4911.87 2
3 4 -6 42409.8 3580.58 3
-3 -4 6 43906.0 4495.81 6
3 4 -5 5325.06 1177.35 3
3 4 -5 2332.22 1214.40 2
-3 -4 5 4414.89 1337.09 6
-3 -4 4 11728.2 2115.39 6
3 4 -4 12114.9 1659.19 3
3 4 -4 10191.5 2012.72 2
3 4 -3 53211.0 4512.96 2
3 4 -3 59389.9 3671.21 3
-3 -4 3 60816.3 4708.45 6
3 4 -2 107781. 6417.88 2
3 4 -2 109206. 5107.14 3
-3 -4 2 110934. 6445.66 6
-3 -4 1 16345.2 2215.75 6
3 4 -1 14007.8 1553.89 3
3 4 -1 13224.0 2050.77 2
-3 -4 0 9408.50 1661.33 6
-3 -4 0 8939.52 1284.74 4
3 4 0 10481.0 1337.23 3
3 4 0 10597.9 1726.74 2
-3 -4 -1 63917.1 3730.31 4
3 4 1 59189.6 3398.00 3
-3 -4 -1 67052.9 4430.99 6
-3 -4 -2 146740. 6479.35 4
3 4 2 152073. 6133.22 3
-3 -4 -3 123486. 5994.88 4
3 4 3 132767. 5697.70 3
3 4 4 447.429 345.470 3
-3 -4 -5 33243.4 2992.82 5
3 4 5 29369.6 2536.52 1
-3 -4 -6 175972. 8021.36 5
3 4 6 186174. 7807.58 1
-3 -4 -7 41688.9 3496.62 5
-3 -4 -7 37051.7 2546.91 2
3 4 7 45013.5 3495.55 1
-3 -4 -8 1256.25 674.246 5
3 4 8 1921.61 776.970 1
3 4 9 1774.94 833.332 1
3 4 10 80466.3 5628.31 1
3 4 11 84850.9 5994.79 1
3 4 12 12638.8 2343.06 1
3 4 13 5691.20 1746.25 1
3 4 14 50618.4 5220.28 1
3 4 15 27138.4 4044.58 1
3 4 16 3923.74 1747.19 1
3 5 -10 3047.77 1584.82 2
3 5 -9 28196.5 4107.11 2
3 5 -8 21818.8 3504.08 2
3 5 -7 6889.13 1919.21 2
3 5 -6 1395.57 999.854 2
-3 -5 6 2355.20 1105.88 6
3 5 -5 25727.8 3493.06 2
-3 -5 5 27668.9 3562.68 6
-3 -5 4 105137. 7069.69 6
3 5 -4 99640.8 6879.23 2
3 5 -3 121738. 7575.63 2
3 5 -3 133703. 5542.56 3
3 5 -2 -63.0401 239.027 3
3 5 -2 -953.246 708.016 2
-3 -5 2 222.002 584.853 6
3 5 -1 66301.8 4996.07 2
3 5 -1 66956.1 3369.97 3
-3 -5 1 67800.7 5053.52 6
-3 -5 0 96215.9 4611.01 4
3 5 0 107767. 6289.76 2
3 5 0 95824.0 4238.40 3
-3 -5 0 96269.9 6004.39 6
-3 -5 -1 32864.9 2567.18 4
-3 -5 -1 28937.7 2352.55 3
3 5 1 34676.5 3253.54 2
3 5 1 34077.6 2283.65 3
-3 -5 -1 35137.1 3357.37 6
-3 -5 -2 580.260 704.227 6
-3 -5 -2 98.3074 289.803 4
3 5 2 -11.1814 431.476 2
3 5 2 159.194 312.412 3
-3 -5 -3 62276.5 4355.98 6
-3 -5 -4 124762. 6410.26 6
-3 -5 -5 57884.0 4401.52 5
-3 -5 -6 1248.25 722.673 5
3 5 6 633.336 380.320 1
-3 -5 -7 30013.0 3227.31 5
3 5 7 35039.3 3354.54 1
-3 -5 -8 33576.7 3466.46 5
3 5 8 35409.3 3440.19 1
-3 -5 -9 91201.3 6106.49 5
3 5 9 95132.2 6150.00 1
3 5 10 38246.7 3965.88 1
3 5 11 8335.15 1918.02 1
3 5 12 61124.4 5426.87 1
3 5 13 57839.1 5521.90 1
3 5 14 3135.03 1409.53 1
3 5 15 11987.3 2752.70 1
3 5 16 21168.2 3720.99 1
3 6 -8 701.978 990.679 2
3 6 -7 13582.0 2793.50 2
3 6 -6 28250.2 3917.25 2
3 6 -5 5054.48 1626.81 2
-3 -6 5 4113.48 1612.29 6
3 6 -4 -404.414 744.706 2
-3 -6 4 -465.795 696.259 6
3 6 -3 32900.3 3940.26 2
-3 -6 3 36636.0 4215.10 6
3 6 -2 57312.5 5098.45 2
-3 -6 2 71810.1 5705.87 6
3 6 -1 18851.9 2734.44 2
-3 -6 1 13959.1 2435.44 6
-3 -6 0 356.443 413.885 4
-3 -6 0 268.184 456.626 6
3 6 0 683.166 494.201 2
-3 -6 -1 39087.8 3767.49 6
-3 -6 -1 34256.5 2656.15 4
3 6 1 36828.5 3607.76 2
-3 -6 -2 55039.5 3614.07 4
3 6 2 54054.7 4299.17 2
-3 -6 -2 52402.5 4361.95 6
3 6 3 98877.9 5833.60 2
-3 -6 -3 110659. 6341.33 6
3 6 4 33419.5 3031.00 2
-3 -6 -4 35890.7 3346.82 6
-3 -6 -5 12523.3 1966.19 6
-3 -6 -5 10993.7 2058.20 5
-3 -6 -6 97057.9 6467.21 5
-3 -6 -6 89590.5 5444.43 6
-3 -6 -7 47834.6 4412.83 5
-3 -6 -7 40105.1 3426.44 6
3 6 7 46026.2 4067.93 1
-3 -6 -8 7719.30 1369.68 6
-3 -6 -8 4635.69 1389.86 5
3 6 8 5013.16 1385.43 1
-3 -6 -9 7083.74 1337.67 6
-3 -6 -9 5523.03 1529.42 5
3 6 9 4970.00 1510.39 1
-3 -6 -10 60252.8 5315.89 5
3 6 10 58736.8 5161.24 1
3 6 11 83899.0 6497.44 1
3 6 12 21554.2 3281.17 1
3 6 13 1017.04 864.847 1
3 6 14 20909.3 3501.95 1
3 6 15 25335.9 4044.34 1
3 6 16 12573.0 2885.61 1
3 7 -6 -175.534 760.370 2
3 7 -5 14747.1 2888.15 2
3 7 -4 72264.2 6389.10 2
3 7 -3 94699.3 7153.49 2
-3 -7 3 93902.9 7281.98 6
3 7 -2 268.934 689.716 2
-3 -7 2 2600.15 1289.55 6
3 7 -1 12913.1 2414.53 2
-3 -7 1 16202.4 2754.76 6
3 7 0 46485.8 4519.63 2
-3 -7 0 45749.0 4580.90 6
3 7 1 31620.4 3641.27 2
-3 -7 -1 37611.1 3959.14 6
-3 -7 -2 15712.8 1861.49 4
3 7 2 13060.3 2229.40 2
-3 -7 -2 11762.1 2181.04 6
3 7 3 3810.52 1150.04 2
-3 -7 -3 2665.17 1013.62 6
3 7 4 72702.6 4952.97 2
-3 -7 -4 73865.8 5278.61 6
-3 -7 -5 110889. 7297.84 5
3 7 5 107344. 5902.56 2
-3 -7 -5 92990.1 5960.78 6
-3 -7 -6 31665.5 3872.47 5
-3 -7 -6 30887.8 3171.42 6
-3 -7 -7 244.910 583.754 6
-3 -7 -7 -68.4268 516.691 5
3 7 8 48492.0 4532.70 1
-3 -7 -8 39709.9 4408.52 5
-3 -7 -8 40363.1 3571.35 6
-3 -7 -9 109556. 7726.93 5
3 7 9 110189. 7417.38 1
-3 -7 -10 39162.0 4520.12 5
3 7 10 31789.5 3909.48 1
3 7 11 3144.12 1410.32 1
3 7 12 20877.0 3387.29 1
3 7 13 38032.3 4766.12 1
3 7 14 15169.2 3125.24 1
3 7 15 -138.217 817.466 1
3 8 -5 8834.78 2399.12 2
3 8 -4 2777.70 1222.56 2
3 8 -3 3257.17 1236.02 2
3 8 -2 24609.6 3626.04 2
3 8 -1 29247.7 3904.47 2
-3 -8 1 39248.4 4580.67 6
3 8 0 11878.3 2381.92 2
-3 -8 0 11634.5 2438.59 6
3 8 1 2739.63 1084.91 2
-3 -8 -1 2973.03 1412.84 6
3 8 2 43353.6 4290.15 2
-3 -8 -2 45193.5 4600.43 6
3 8 3 79027.4 5768.06 2
-3 -8 -3 72029.4 5803.03 6
3 8 4 38871.4 3800.97 2
-3 -8 -4 35860.4 3898.69 6
-3 -8 -5 -131.493 620.453 5
3 8 5 658.520 440.650 2
-3 -8 -6 51030.0 5201.52 5
-3 -8 -6 49770.4 4367.00 6
-3 -8 -7 22889.8 3467.12 5
-3 -8 -7 19480.9 2639.98 6
-3 -8 -8 6548.86 1903.71 5
-3 -8 -9 938.455 1161.64 5
-3 -8 -10 16242.6 3128.77 5
3 8 10 11978.4 2484.48 1
-3 -8 -11 41811.1 5055.16 5
3 8 11 49897.6 5307.03 1
3 8 12 39235.1 4921.31 1
3 8 13 642.937 735.932 1
3 8 14 4035.49 1662.78 1
3 9 -2 16105.1 3126.31 2
3 9 -1 487.795 708.692 2
3 9 0 6641.57 1812.00 2
3 9 1 28101.2 3799.08 2
3 9 2 20685.0 3137.72 2
3 9 3 1464.63 854.179 2
-3 -9 -3 1455.39 1018.06 6
3 9 4 15196.2 2491.10 2
-3 -9 -4 17479.3 2916.63 6
-3 -9 -5 67765.7 6430.48 5
-3 -9 -5 72831.8 5872.56 6
-3 -9 -6 45081.9 5245.52 5
-3 -9 -6 45941.6 4558.16 6
-3 -9 -7 1332.14 804.268 5
-3 -9 -8 17361.7 3191.33 5
-3 -9 -9 64923.1 6581.96 5
-3 -9 -10 33655.4 4690.78 5
-3 -9 -11 11474.3 2913.52 5
3 9 12 1529.64 1309.54 1
3 9 13 21876.7 3872.84 1
3 10 0 18347.5 3332.48 2
3 10 1 221.621 734.772 2
3 10 2 20195.9 3218.58 2
3 10 3 29181.1 3820.25 2
-3 -10 -5 5607.08 1989.57 5
-3 -10 -6 10097.0 2650.04 5
-3 -10 -7 8889.45 2456.70 5
-3 -10 -8 20790.0 3838.14 5
4 -9 -6 18478.2 3354.02 3
-4 9 2 35276.0 4863.97 2
4 -8 -7 32425.9 4597.61 3
4 -8 -6 473.640 676.409 3
4 -8 -5 8184.19 2190.09 3
4 -8 -4 19140.9 3190.08 3
4 -8 -3 51835.6 5237.52 3
4 -8 -2 5723.75 1670.08 3
4 -8 -1 440.333 642.036 3
4 -8 0 26977.1 3584.00 3
-4 8 -1 51642.9 5821.73 2
-4 8 -2 14184.5 3098.82 2
-4 8 -3 33.7366 989.706 2
-4 7 10 11513.0 2692.83 1
-4 7 9 17380.6 3246.02 1
-4 7 8 1160.84 941.775 1
4 -7 -8 1191.20 909.996 3
4 -7 -7 3771.59 1499.60 3
4 -7 -6 22525.5 3591.81 3
4 -7 -5 33728.5 4343.75 3
4 -7 -4 9392.22 2219.90 3
4 -7 -3 5646.71 1775.01 3
4 -7 -2 21780.0 3311.66 3
4 -7 -1 23602.7 3287.88 3
4 -7 0 26314.9 3437.61 3
4 -7 1 572.578 684.177 3
4 -7 2 28746.1 3556.73 3
4 -7 3 35950.0 3929.24 3
-4 7 -3 41113.3 4900.46 2
-4 7 -4 17690.3 3289.65 2
4 -7 4 15971.1 2587.24 3
-4 7 -5 2023.53 1394.67 2
-4 7 -6 14688.8 3160.85 2
-4 6 11 20963.4 3680.59 1
-4 6 10 6603.48 1997.57 1
-4 6 9 2486.91 1238.55 1
4 -6 -9 2481.23 1369.82 3
4 -6 -8 32369.0 4531.54 3
-4 6 8 39154.1 4464.00 1
4 -6 -7 34611.8 4573.04 3
-4 6 7 38057.6 4346.49 1
4 -6 -6 20641.1 3384.20 3
4 -6 -5 1715.54 1166.34 3
4 -6 -4 30444.8 3957.85 3
4 -6 -3 44197.7 4665.77 3
4 -6 -2 19384.2 2990.55 3
4 -6 -1 1052.06 533.912 3
4 -6 0 38142.1 4162.82 3
4 -6 1 79783.2 6033.38 3
4 -6 2 61586.1 5221.04 3
4 -6 3 2974.81 1123.20 3
4 -6 4 20995.0 2963.67 3
-4 6 -5 49556.0 5339.80 2
4 -6 5 42056.8 4275.77 3
-4 6 -6 23998.0 3757.56 2
4 -6 6 21276.5 3081.64 3
-4 6 -7 24322.6 3866.13 2
4 -6 7 14345.6 2460.65 3
-4 6 -8 420.979 618.201 2
4 -6 8 -373.504 669.628 3
-4 6 -9 50616.2 5789.93 2
-4 5 12 7535.87 2227.43 1
-4 5 11 2187.45 1265.01 1
-4 5 10 9707.77 2365.16 1
4 -5 -10 7615.22 2443.49 3
4 -5 -9 31112.8 4552.32 3
-4 5 9 39428.5 4524.64 1
4 -5 -8 7897.68 2231.94 3
-4 5 8 10100.7 2178.79 1
-4 5 7 677.422 495.915 1
4 -5 -7 84.7187 556.504 3
4 -5 -6 33553.8 4242.77 3
-4 5 6 25124.5 3237.87 1
-4 5 5 128662. 7528.47 1
4 -5 -5 127969. 8522.93 3
4 -5 -4 54903.9 5277.10 3
4 -5 -3 589.164 489.585 3
4 -5 -2 16366.2 2699.77 3
4 -5 -1 81136.7 6115.08 3
4 -5 0 55710.1 4912.76 3
4 -5 1 6735.86 1627.04 3
4 -5 2 13179.1 2310.27 3
4 -5 3 58531.3 4971.53 3
4 -5 4 18395.4 2713.09 3
4 -5 5 8709.46 1817.00 3
4 -5 6 1025.76 760.548 3
4 -5 7 28571.3 3508.19 3
-4 5 -7 36005.4 4396.76 2
4 -5 8 68200.2 5591.50 3
-4 5 -8 76061.7 6673.29 2
-4 5 -9 10923.3 2766.86 2
-4 5 -10 1155.78 959.446 2
-4 5 -11 22789.0 3762.84 2
-4 4 12 25051.9 3956.72 1
-4 4 11 16406.8 3032.48 1
4 -4 -10 25719.8 4101.46 3
-4 4 10 17734.3 3108.06 1
-4 4 9 -184.386 894.692 1
4 -4 -9 196.813 954.626 3
-4 4 8 13217.8 2405.12 1
4 -4 -8 15863.8 3114.95 3
4 -4 -7 47910.1 5239.64 3
-4 4 7 48206.9 4447.44 1
4 -4 -6 47499.4 4999.50 3
-4 4 6 49689.5 4351.93 1
-4 4 5 4963.99 1258.47 1
4 -4 -5 7346.41 1915.83 3
-4 4 4 18443.6 2355.04 1
4 -4 -4 20862.8 3099.56 3
4 -4 -3 18744.7 2899.87 3
4 -4 -2 36764.5 3981.00 3
4 -4 -1 12905.4 2299.67 3
4 -4 0 13076.3 2291.13 3
4 -4 1 43889.1 4209.81 3
4 -4 2 153886. 8401.81 3
4 -4 3 25631.8 3153.19 3
4 -4 4 2991.64 1177.71 3
4 -4 5 26373.1 3237.09 3
4 -4 6 63863.4 5152.07 3
4 -4 7 32516.3 3648.34 3
-4 4 -8 236.874 759.090 2
4 -4 8 916.081 944.199 3
-4 4 -9 37393.8 4471.93 2
-4 4 -10 55225.6 5576.05 2
-4 4 -11 14875.8 2875.22 2
-4 4 -12 2753.36 1344.27 2
-4 4 -13 -123.993 509.317 2
-4 3 12 13753.0 2965.93 1
-4 3 11 2045.87 1261.21 1
-4 3 10 9258.04 2058.63 1
4 -3 -9 34864.4 4584.10 3
-4 3 9 28945.5 3706.12 1
4 -3 -8 35233.9 4541.13 3
-4 3 8 32309.5 3649.53 1
4 -3 -7 5036.20 1801.73 3
-4 3 7 4705.08 1423.20 1
4 -3 -6 44341.9 4769.22 3
-4 3 6 45439.9 3921.46 1
4 -3 -5 137361. 8593.41 3
-4 3 5 141720. 7152.07 1
4 -3 -4 87823.6 6450.71 3
-4 3 4 80012.7 4904.14 1
-4 3 3 3335.85 931.851 1
4 -3 -3 1311.99 754.888 3
4 -3 -2 819.338 762.485 3
4 -3 -1 69341.5 5385.27 3
4 -3 0 83834.5 5892.47 3
4 -3 1 64098.3 5018.50 3
4 -3 2 793.193 756.348 3
4 -3 3 81224.9 5681.93 3
4 -3 4 65632.1 5060.87 3
4 -3 5 62543.1 4971.27 3
4 -3 6 1373.87 666.365 3
4 -3 7 64981.9 5177.02 3
4 -3 8 102853. 6775.59 3
4 -3 9 53971.7 4887.35 3
-4 3 -9 59719.6 5352.69 2
-4 3 -10 5114.81 1564.50 2
-4 3 -11 15249.1 2711.89 2
4 -3 12 9840.23 2331.70 1
-4 3 -12 15787.7 2822.83 2
4 -3 13 16919.8 3147.39 1
4 -3 14 9227.94 2412.14 1
-4 2 12 10638.6 2532.33 1
-4 2 11 34073.9 4275.49 1
-4 2 10 22660.9 3264.57 1
-4 2 9 8208.02 1940.30 1
4 -2 -9 3754.23 1551.53 3
-4 2 8 1659.10 909.895 1
4 -2 -8 1372.99 947.257 3
4 -2 -7 37608.2 4428.90 3
-4 2 7 41375.2 3798.76 1
-4 2 7 37079.4 3297.95 6
4 -2 -6 49950.0 4955.93 3
-4 2 6 43341.6 3711.66 1
4 -2 -5 41171.6 4367.05 3
-4 2 5 41650.6 3387.90 1
-4 2 4 975.492 529.141 1
4 -2 -4 1958.33 1092.52 3
4 -2 -3 23205.2 3080.37 3
-4 2 3 26350.7 2329.66 1
4 -2 -2 67789.5 5259.15 3
4 -2 -1 69594.3 3433.90 1
-4 2 1 57462.8 3094.65 5
4 -2 0 296.534 498.991 3
4 -2 0 -85.0648 312.023 1
4 -2 1 66090.6 3274.18 1
4 -2 1 68458.6 5098.65 3
4 -2 2 203416. 9429.11 3
4 -2 2 184396. 6796.99 1
4 -2 3 72778.9 5233.37 3
4 -2 3 65881.6 3554.27 1
4 -2 4 864.619 748.057 3
4 -2 5 8738.73 1798.67 3
4 -2 6 25419.3 3062.01 3
4 -2 7 44804.3 4194.67 3
4 -2 8 13400.0 2303.81 3
4 -2 9 3541.73 1266.93 3
-4 2 -10 51124.3 4884.84 4
-4 2 -10 47320.6 4531.38 2
-4 2 -11 38278.0 4299.10 4
4 -2 11 37087.9 4019.94 1
-4 2 -11 33784.5 3888.34 2
4 -2 12 9307.60 2097.47 1
-4 2 -12 11481.3 2443.92 4
-4 2 -12 10994.1 2250.36 2
4 -2 13 -185.816 866.609 1
-4 2 -13 -303.111 807.187 4
-4 2 -14 43001.3 4948.35 4
4 -2 14 46662.6 5245.97 1
4 -2 15 35865.4 4788.20 1
-4 1 12 21864.3 3568.09 1
-4 1 11 7692.95 2007.86 1
-4 1 10 1397.99 778.716 1
-4 1 9 14180.7 2417.46 1
4 -1 -9 14199.0 2890.97 3
-4 1 8 40295.7 3924.00 1
4 -1 -8 47854.4 5105.38 3
-4 1 8 49525.9 4031.25 6
-4 1 7 21469.3 2646.42 1
4 -1 -7 15524.0 2794.45 3
-4 1 7 21358.7 2552.70 6
-4 1 6 5030.23 1244.67 1
4 -1 -6 8612.06 1881.82 3
4 -1 -5 63221.4 5331.60 3
-4 1 5 51283.8 3702.55 1
4 -1 -4 111045. 7051.34 3
-4 1 4 102807. 5097.60 1
4 -1 -3 36231.5 3798.39 3
-4 1 3 39939.0 2679.81 1
4 -1 -2 8171.83 1774.83 3
-4 1 2 6153.30 891.699 1
4 -1 -1 32704.4 3408.07 3
-4 1 0 98027.5 3784.72 5
4 -1 0 131096. 7005.05 3
4 -1 1 90530.8 5784.50 3
4 -1 1 89984.9 2844.34 1
4 -1 2 5447.02 1493.71 3
4 -1 2 3949.56 476.425 1
4 -1 3 29349.4 3105.44 3
4 -1 3 25855.5 1630.37 1
4 -1 4 103246. 6243.10 3
4 -1 5 89445.3 5794.90 3
4 -1 6 11022.0 1973.32 3
-4 1 -7 31312.0 3523.36 4
4 -1 7 24592.9 3011.54 3
4 -1 7 31413.0 2695.65 1
-4 1 -8 116952. 7297.58 4
4 -1 8 117352. 7117.76 3
4 -1 8 111738. 5973.99 1
-4 1 -9 84090.5 6219.05 4
4 -1 9 96507.1 6447.67 3
4 -1 9 80972.0 5295.32 1
-4 1 -10 47187.0 4668.04 4
4 -1 10 45920.0 4092.52 1
4 -1 11 3248.76 1225.31 1
-4 1 -11 2111.39 1517.78 4
-4 1 -11 3598.87 1196.11 2
4 -1 12 20346.7 3020.01 1
-4 1 -12 20376.6 3187.97 4
-4 1 -12 27434.0 3241.12 2
-4 1 -13 34426.8 4321.56 4
4 -1 13 36024.9 4229.13 1
-4 1 -14 18356.3 3164.38 4
4 -1 14 14095.1 2813.10 1
-4 1 -15 -2994.64 1412.21 4
4 -1 15 -232.712 455.686 1
-4 0 11 6303.65 1760.27 1
-4 0 10 33627.8 3992.41 1
-4 0 9 20291.5 2774.14 6
4 0 -9 19552.6 3305.75 3
-4 0 9 18959.4 2833.13 1
-4 0 8 2380.56 969.948 6
4 0 -8 2079.68 1241.63 3
-4 0 8 690.169 647.109 1
-4 0 7 17612.3 2487.41 6
4 0 -7 21676.6 3236.40 3
-4 0 7 15683.7 2277.39 1
-4 0 6 67666.5 4525.55 1
4 0 -6 72520.7 5824.02 3
-4 0 6 68491.8 4886.91 6
-4 0 5 75577.4 4501.07 1
4 0 -5 93120.0 6388.68 3
-4 0 4 3311.91 760.989 1
4 0 -4 3484.16 1219.95 3
-4 0 3 29485.3 2156.28 1
4 0 -3 34757.3 3583.54 3
4 0 -2 121959. 6802.26 3
-4 0 2 96356.8 3937.81 1
4 0 -1 58575.5 4571.00 3
4 0 0 1353.38 850.389 3
4 0 1 24706.5 2821.25 3
4 0 2 108162. 6281.06 3
4 0 3 130647. 6995.15 3
4 0 4 38207.1 1675.58 1
4 0 4 46669.7 3909.90 3
-4 0 -5 2567.56 1015.36 4
4 0 5 2817.33 572.825 1
4 0 5 1581.76 740.287 3
4 0 6 10970.7 1292.42 1
-4 0 -6 16169.3 2412.82 4
4 0 6 14120.1 2178.25 3
4 0 7 114979. 5405.78 1
-4 0 -7 128716. 7450.82 4
4 0 7 128325. 7196.70 3
4 0 8 46812.6 3445.32 1
-4 0 -8 54539.6 4704.93 4
4 0 8 53384.1 4562.70 3
-4 0 -9 -123.342 787.082 4
4 0 9 -28.8514 417.559 3
4 0 10 34536.4 3355.11 1
-4 0 -10 36746.7 4051.11 4
4 0 11 83453.5 5774.47 1
-4 0 -11 85571.2 6498.10 4
-4 0 -11 84901.4 5519.95 2
-4 0 -12 25061.9 3612.51 4
4 0 12 19004.9 2829.67 1
-4 0 -13 -224.421 696.687 4
4 0 13 -191.460 565.628 1
-4 0 -14 15847.5 2958.61 4
4 0 14 15156.5 2820.44 1
-4 0 -15 25269.3 4006.36 4
4 0 15 24640.0 3743.11 1
-4 0 -16 11509.4 2700.15 4
4 0 16 9842.61 2459.18 1
4 1 -10 909.212 1098.83 3
-4 -1 10 19.0456 777.126 6
-4 -1 9 13089.4 2353.61 1
4 1 -9 13315.5 2633.59 3
-4 -1 9 11563.0 2242.95 6
-4 -1 8 35765.4 3755.15 1
4 1 -8 41879.6 4586.43 3
-4 -1 8 41070.8 4093.19 6
-4 -1 7 41244.7 3810.65 1
4 1 -7 47447.9 4740.70 3
-4 -1 7 50199.3 4400.01 6
-4 -1 6 4231.69 1236.90 6
4 1 -6 2309.24 1008.27 3
-4 -1 5 25492.1 2544.13 1
4 1 -5 26262.5 3272.52 3
-4 -1 5 30548.0 3204.38 6
-4 -1 4 59337.4 3612.32 1
4 1 -4 55300.5 4682.63 3
-4 -1 3 87114.6 4104.50 1
4 1 -3 90605.9 5906.87 3
-4 -1 2 29945.8 1896.59 1
4 1 -2 36533.3 3492.35 3
-4 -1 1 7181.44 627.519 1
4 1 -1 11369.2 1867.27 3
4 1 0 39241.6 3520.10 3
4 1 1 129648. 6850.42 3
4 1 2 64235.8 4564.30 3
-4 -1 -3 538.588 280.004 5
4 1 3 245.237 434.478 3
-4 -1 -4 97290.4 6060.91 4
4 1 4 101417. 5941.18 3
-4 -1 -5 127181. 7047.19 4
4 1 5 122701. 4331.35 1
4 1 5 141800. 7162.04 3
-4 -1 -6 37954.8 3703.51 4
4 1 6 34913.4 2255.47 1
4 1 6 38626.2 3586.70 3
-4 -1 -7 7189.93 1632.77 4
4 1 7 6029.74 1003.26 1
4 1 7 6797.45 1515.27 3
4 1 8 48163.7 3353.93 1
-4 -1 -8 53965.8 4673.50 4
4 1 8 55366.4 4550.49 3
4 1 9 68378.9 4418.06 1
-4 -1 -9 76604.2 5794.17 4
4 1 10 76831.0 5089.48 1
-4 -1 -10 88509.9 6411.15 4
-4 -1 -11 -927.447 1061.97 4
4 1 11 864.565 681.001 1
-4 -1 -12 5025.35 1739.18 4
4 1 12 7970.36 1761.02 1
-4 -1 -13 19151.8 3145.39 4
4 1 13 24506.8 3326.68 1
-4 -1 -14 31082.0 4160.25 4
4 1 14 29232.3 3817.92 1
-4 -1 -15 3372.02 1728.49 4
4 1 15 2109.82 1111.87 1
-4 -1 -16 8490.97 2353.97 4
4 1 16 6476.73 2033.24 1
-4 -2 10 49369.3 5035.62 1
4 2 -10 37055.9 4656.36 3
-4 -2 10 39656.8 4667.24 6
-4 -2 9 16261.5 2774.85 1
4 2 -9 18748.1 3134.50 3
-4 -2 9 17860.0 2984.12 6
-4 -2 8 214.154 708.033 1
4 2 -8 -267.230 530.935 3
-4 -2 7 3295.25 1150.53 1
4 2 -7 6687.54 1685.80 3
-4 -2 7 4405.20 1456.79 6
4 2 -6 48262.5 4498.70 3
-4 -2 6 43046.4 4208.17 6
-4 -2 6 47139.2 3918.25 1
4 2 -5 45065.6 4227.23 3
-4 -2 5 49758.6 4362.39 6
-4 -2 5 44551.8 3565.05 1
-4 -2 4 13304.0 2177.14 6
-4 -2 4 12740.7 1719.59 1
4 2 -4 17326.6 2475.85 3
-4 -2 3 400.896 631.964 6
-4 -2 3 1421.72 608.202 1
4 2 -3 1213.61 691.078 3
4 2 -2 86909.2 5452.11 3
-4 -2 2 78207.7 3745.48 1
4 2 -1 26862.6 2883.89 3
-4 -2 1 24893.1 1611.93 1
4 2 0 29308.2 2976.97 3
-4 -2 0 28495.0 1426.95 1
-4 -2 0 34164.1 1429.15 1
4 2 1 1475.69 740.035 3
4 2 2 77016.1 4949.34 3
-4 -2 -3 138101. 7292.61 4
4 2 3 154634. 7370.19 3
-4 -2 -4 118668. 4858.91 5
-4 -2 -4 111660. 6418.71 4
4 2 4 113010. 6247.75 3
-4 -2 -5 3712.54 725.047 5
-4 -2 -5 5128.93 1378.53 4
4 2 5 2580.30 894.688 3
4 2 5 3334.03 578.894 1
-4 -2 -6 45725.8 4033.22 4
4 2 6 42559.1 2575.32 1
4 2 6 42674.9 3721.26 3
-4 -2 -7 88107.9 5960.66 4
4 2 7 79390.8 4174.74 1
4 2 7 91932.5 5753.87 3
-4 -2 -8 52026.6 4622.55 4
4 2 8 54513.1 3570.12 1
4 2 8 51558.8 4372.91 3
4 2 9 11735.2 1734.95 1
-4 -2 -9 12101.9 2205.75 4
4 2 10 20798.4 2506.66 1
-4 -2 -10 20706.8 3140.95 4
4 2 11 49858.5 4235.66 1
-4 -2 -11 60441.5 5419.94 4
4 2 12 41104.8 4043.13 1
-4 -2 -12 47164.4 4908.78 4
-4 -2 -13 5164.50 1765.85 4
4 2 13 6393.98 1742.09 1
-4 -2 -14 5280.37 1778.98 4
4 2 14 1466.04 1105.68 1
-4 -2 -15 20209.9 3492.69 4
4 2 15 16597.4 3045.92 1
4 2 16 23688.7 3748.91 1
-4 -3 9 3506.52 1309.36 1
-4 -3 9 3947.91 1578.24 6
4 3 -8 25993.1 3437.56 3
-4 -3 8 29518.8 3636.93 1
-4 -3 8 31554.5 3993.64 6
4 3 -7 47279.1 4537.73 3
-4 -3 7 47939.7 4816.58 6
-4 -3 7 52154.2 4602.47 1
-4 -3 6 19997.9 2698.98 1
4 3 -6 28629.1 3298.19 3
-4 -3 6 28450.6 3512.44 6
-4 -3 5 -719.930 765.595 6
-4 -3 5 213.860 383.853 1
4 3 -5 61.6271 476.000 3
-4 -3 4 20045.4 2825.45 6
4 3 -4 18456.6 2575.66 3
4 3 -3 144896. 7458.08 3
-4 -3 3 148986. 8062.52 6
4 3 -2 59705.3 4337.09 3
-4 -3 2 63146.8 4818.77 6
4 3 -1 139.551 519.036 3
4 3 0 19965.4 2354.92 3
-4 -3 0 17368.4 1524.14 1
4 3 1 157348. 7316.27 3
-4 -3 -1 150882. 5252.23 1
-4 -3 -2 88352.0 5350.22 4
-4 -3 -2 87034.4 3331.90 1
4 3 2 96979.3 5372.86 3
-4 -3 -3 13326.3 1051.43 1
-4 -3 -3 14441.4 2095.77 4
4 3 3 11828.8 1804.77 3
-4 -3 -4 39023.9 2920.61 5
-4 -3 -4 35777.8 3430.27 4
4 3 4 42881.9 3521.44 3
-4 -3 -4 41475.5 2165.26 1
-4 -3 -5 125945. 5882.66 5
-4 -3 -5 136654. 7297.49 4
-4 -3 -5 129618. 5075.58 1
-4 -3 -6 39127.1 2933.19 5
-4 -3 -6 35480.9 3578.80 4
4 3 6 37861.5 3430.87 3
4 3 6 36884.3 2570.19 1
4 3 7 6065.52 1085.35 1
-4 -3 -7 5322.56 1083.01 5
-4 -3 -7 3081.49 1085.18 4
4 3 7 6743.83 1501.85 3
-4 -3 -8 2156.26 900.538 4
4 3 8 1714.28 678.482 1
-4 -3 -9 76887.3 5842.50 4
4 3 9 75823.3 4812.79 1
4 3 10 107271. 6219.74 1
4 3 11 25259.8 3009.74 1
4 3 12 -1461.11 820.109 1
4 3 13 30285.5 3693.24 1
4 3 14 29417.4 3832.84 1
4 3 15 13663.3 2732.60 1
4 3 16 2786.75 1373.90 1
-4 -4 8 5770.01 1698.93 1
-4 -4 8 5215.12 1802.89 6
-4 -4 7 595.370 648.838 1
-4 -4 7 233.606 863.642 6
-4 -4 6 9263.76 2306.77 6
4 4 -5 59923.9 4576.60 3
-4 -4 5 51435.1 5009.50 6
4 4 -4 54504.1 4228.55 3
-4 -4 4 57569.3 5113.92 6
-4 -4 3 115.362 703.019 6
4 4 -3 1445.80 685.522 3
4 4 -2 42967.7 3486.63 3
-4 -4 2 42068.2 4132.21 6
4 4 -1 38393.7 3220.73 3
-4 -4 1 38597.1 3840.72 6
4 4 0 67308.7 4290.71 3
-4 -4 0 61553.7 4822.17 6
4 4 1 7164.95 1356.14 3
-4 -4 -2 18029.0 2257.11 4
4 4 2 15249.0 1933.95 3
-4 -4 -3 61929.0 4444.63 4
4 4 3 65538.0 4262.65 3
-4 -4 -4 67669.9 4797.76 4
4 4 4 75403.9 4696.77 3
-4 -4 -5 8386.06 1508.17 5
-4 -4 -5 5943.11 1470.58 4
4 4 5 10837.0 1697.73 3
-4 -4 -6 11378.6 1763.85 5
-4 -4 -6 10924.1 1983.05 4
4 4 6 12026.8 1869.28 3
-4 -4 -7 29567.6 2898.43 5
-4 -4 -7 28201.5 3305.47 4
4 4 7 28503.7 2649.22 1
-4 -4 -8 77316.8 5060.11 5
4 4 8 80624.6 4913.80 1
4 4 9 40888.2 3581.79 1
4 4 10 2549.44 1027.58 1
4 4 11 30212.5 3375.60 1
4 4 12 79154.4 5987.78 1
4 4 13 11454.7 2322.06 1
4 4 14 1232.71 1028.82 1
4 4 15 2965.33 1570.00 1
-4 -5 7 32109.1 4432.55 6
-4 -5 6 39977.4 4758.07 6
-4 -5 5 7627.15 2012.40 6
-4 -5 4 7301.46 2113.43 6
-4 -5 3 65133.7 5625.24 6
-4 -5 2 42027.1 4363.81 6
-4 -5 1 4968.31 1533.60 6
4 5 -1 3069.73 814.933 3
-4 -5 0 9807.35 1993.63 6
4 5 0 7485.62 1281.51 3
4 5 1 48335.2 3399.01 3
-4 -5 -1 42888.9 4123.51 6
-4 -5 -2 110924. 6098.77 4
4 5 2 115192. 5690.61 3
-4 -5 -2 116317. 6925.58 6
-4 -5 -3 60216.0 4367.86 4
4 5 3 57659.9 3875.58 3
-4 -5 -3 60832.0 4750.95 6
-4 -5 -4 3612.57 1048.46 4
4 5 4 1836.62 742.703 3
-4 -5 -5 62417.3 4737.00 5
-4 -5 -5 75515.0 5192.65 4
4 5 5 62971.0 4329.70 3
-4 -5 -6 82310.0 5525.08 5
-4 -5 -6 85263.2 5828.66 4
4 5 7 39881.1 3346.67 1
-4 -5 -7 37617.6 3644.26 5
-4 -5 -8 8707.36 1758.00 5
4 5 8 8684.63 1677.72 1
-4 -5 -9 58022.9 4701.11 5
4 5 9 47618.3 4088.93 1
4 5 10 100054. 6446.12 1
4 5 11 51637.2 4683.42 1
4 5 12 685.721 681.485 1
4 5 13 19316.5 3129.96 1
4 5 14 18155.2 3107.19 1
-4 -6 6 6825.72 2392.90 6
4 6 -5 52475.3 5583.99 2
-4 -6 5 53198.0 5706.39 6
4 6 -4 46324.5 5089.01 2
-4 -6 4 54608.1 5583.82 6
4 6 -3 3969.67 1557.64 2
-4 -6 3 5505.57 1787.25 6
-4 -6 2 3775.53 1423.67 6
-4 -6 1 25251.9 3441.49 6
-4 -6 0 43786.2 4478.34 6
-4 -6 -1 27414.3 3447.13 6
-4 -6 -2 460.511 591.509 6
-4 -6 -2 626.224 469.358 4
-4 -6 -3 31402.1 3113.01 4
-4 -6 -3 32261.4 3551.32 6
-4 -6 -4 47377.1 3995.69 4
-4 -6 -4 51119.4 4465.83 6
-4 -6 -5 52645.5 4626.87 5
-4 -6 -5 49467.2 4211.98 4
-4 -6 -5 40484.1 3929.59 6
-4 -6 -6 100.748 616.237 6
-4 -6 -6 -197.780 428.666 5
-4 -6 -7 28709.5 3436.08 5
-4 -6 -8 50172.3 4620.21 5
-4 -6 -9 40856.6 4252.68 5
4 6 9 47033.9 4292.31 1
-4 -6 -10 2830.15 1169.62 5
4 6 10 4055.58 1331.96 1
4 6 11 6671.85 1735.06 1
4 6 12 46626.8 4810.81 1
4 6 13 15011.5 2825.84 1
4 7 -4 924.402 828.015 2
-4 -7 4 1623.92 1240.88 6
4 7 -3 10716.8 2498.95 2
-4 -7 3 17386.5 3277.84 6
4 7 -2 24308.6 3642.40 2
-4 -7 2 31183.1 4157.22 6
4 7 -1 18484.5 3129.26 2
-4 -7 1 19064.6 3174.65 6
4 7 0 1434.62 972.354 2
-4 -7 0 -619.963 1001.96 6
-4 -7 -1 23282.1 3348.47 6
-4 -7 -2 93522.4 6820.99 6
-4 -7 -3 60592.1 4420.59 4
-4 -7 -3 59818.4 5163.51 6
-4 -7 -4 132.398 694.078 6
-4 -7 -4 106.211 443.852 4
-4 -7 -5 22914.4 3048.66 6
-4 -7 -5 24317.7 3418.74 5
-4 -7 -5 16597.7 2412.04 4
-4 -7 -6 52796.1 5036.63 5
-4 -7 -6 47425.2 4468.45 6
-4 -7 -7 27640.1 3624.77 5
-4 -7 -7 27696.3 3244.08 6
-4 -7 -8 12344.8 2146.85 6
-4 -7 -8 12772.8 2548.64 5
-4 -7 -9 5557.50 1359.85 6
-4 -7 -9 7525.24 1905.31 5
-4 -7 -10 41610.7 4687.37 5
4 7 10 44223.7 4485.55 1
4 7 11 35485.8 4187.21 1
4 8 -3 10306.4 2589.57 2
4 8 -2 -1499.74 1037.36 2
-4 -8 2 68.9758 1036.51 6
4 8 -1 8885.87 2255.84 2
-4 -8 1 8208.02 2347.37 6
4 8 0 48145.5 5172.56 2
-4 -8 0 51350.8 5455.53 6
4 8 1 28032.1 3782.41 2
-4 -8 -1 28347.0 3945.57 6
4 8 2 7080.93 1864.04 2
-4 -8 -2 3565.75 1467.55 6
-4 -8 -3 6523.23 1725.98 6
-4 -8 -4 36609.7 4173.20 6
-4 -8 -5 51227.9 5285.82 5
-4 -8 -5 41575.4 3990.41 4
-4 -8 -5 45865.2 4688.60 6
-4 -8 -6 4717.02 1650.84 5
-4 -8 -6 4340.67 1424.15 6
-4 -8 -7 8796.55 2242.67 5
-4 -8 -7 7588.49 1814.25 6
-4 -8 -8 41636.7 4839.57 5
-4 -8 -8 44667.8 4248.11 6
-4 -8 -9 42993.0 4972.92 5
-4 -8 -10 20973.6 3497.36 5
-4 -8 -11 -4.96236 559.028 5
4 9 0 -151.866 986.262 2
-4 -9 0 1957.98 1183.78 6
4 9 1 8881.14 2224.05 2
-4 -9 -1 9304.00 2536.16 6
4 9 2 17608.2 3133.13 2
-4 -9 -2 26593.7 3932.66 6
4 9 3 34150.3 4109.73 2
-4 -9 -3 34871.9 4372.79 6
-4 -9 -4 18871.8 3318.78 6
-4 -9 -5 1122.90 989.268 5
-4 -9 -5 -1714.38 1058.56 6
-4 -9 -6 5522.78 1977.53 5
-4 -9 -6 6013.14 1730.54 6
-4 -9 -7 37918.6 4838.87 5
-4 -9 -7 33762.9 3981.02 6
-4 -9 -8 23189.3 3842.91 5
-4 -9 -9 305.137 546.515 5
-4 -9 -10 7280.72 2280.57 5
-4 -9 -11 36078.0 4954.28 5
4 10 2 13287.5 2774.36 2
-4 -10 -4 20112.3 3399.37 6
-4 -10 -5 28556.5 4064.83 6
5 -8 -3 2751.84 1131.65 3
5 -8 -2 7724.57 2207.79 3
5 -8 -1 18796.6 3351.86 3
5 -8 0 258.230 920.520 3
5 -7 -5 13482.5 3069.96 3
5 -7 -4 41032.0 5192.77 3
5 -7 -3 28632.0 4187.10 3
5 -7 -2 3711.51 1594.36 3
5 -7 -1 12750.8 2754.14 3
5 -7 0 43200.7 4954.96 3
5 -7 1 21427.6 3426.49 3
5 -7 2 6318.59 1893.93 3
5 -7 3 7021.71 1957.60 3
5 -7 4 10522.3 2348.02 3
5 -6 -6 47764.4 5733.33 3
5 -6 -5 21476.3 3707.38 3
5 -6 -4 7209.34 2103.70 3
5 -6 -3 2657.95 1518.87 3
5 -6 -2 23584.1 3597.14 3
5 -6 -1 37575.7 4576.45 3
5 -6 0 11411.4 2523.66 3
5 -6 1 2094.98 1237.71 3
5 -6 2 22908.5 3451.94 3
5 -6 3 28699.0 3846.57 3
5 -6 4 12686.8 2569.38 3
5 -6 5 4410.39 1403.32 3
-5 6 -6 18131.2 3492.01 2
5 -6 6 11624.8 2466.12 3
5 -6 7 35875.1 4362.70 3
5 -6 8 14849.8 2836.20 3
5 -5 -7 46553.9 5696.16 3
5 -5 -6 4010.02 1610.04 3
5 -5 -5 7400.67 2054.81 3
5 -5 -4 20139.4 3517.60 3
5 -5 -3 32398.1 4290.04 3
5 -5 -2 10859.2 2452.30 3
5 -5 -1 -292.132 636.765 3
5 -5 0 24746.4 3541.63 3
5 -5 1 77349.2 6491.60 3
5 -5 2 22090.5 3339.34 3
5 -5 3 133.200 689.559 3
5 -5 4 11805.8 2447.96 3
5 -5 5 57113.6 5457.85 3
5 -5 6 43734.2 4739.15 3
5 -5 7 2919.85 1443.76 3
-5 5 -8 25710.1 4068.77 2
5 -5 8 28930.8 3898.25 3
5 -5 9 36240.2 4512.74 3
-5 5 -9 38685.2 5101.27 2
5 -4 -8 15427.6 3318.09 3
5 -4 -7 76.6638 883.005 3
5 -4 -6 33572.0 4597.73 3
5 -4 -5 25427.3 3921.95 3
5 -4 -4 22805.1 3626.47 3
5 -4 -3 712.011 866.048 3
5 -4 -2 17558.7 3047.05 3
5 -4 -1 70414.6 6128.96 3
5 -4 0 58682.5 5499.65 3
5 -4 1 4516.33 1512.07 3
5 -4 2 19242.0 3039.65 3
5 -4 3 32322.7 3978.76 3
5 -4 4 57402.5 5345.89 3
5 -4 5 9987.45 2193.88 3
5 -4 6 5870.11 1778.84 3
5 -4 7 24299.7 3497.87 3
5 -4 8 42358.5 4678.85 3
-5 4 -9 3979.41 1617.91 2
5 -4 9 6950.86 1999.63 3
-5 4 -10 1147.05 1053.47 2
-5 4 -11 12344.4 2733.40 2
5 -3 -8 9971.82 2626.54 3
5 -3 -7 52384.8 5867.90 3
5 -3 -6 35058.1 4608.05 3
5 -3 -5 4841.26 1562.33 3
5 -3 -4 7796.29 2095.64 3
5 -3 -3 33808.8 4241.22 3
5 -3 -2 64832.9 5850.83 3
5 -3 -1 3922.12 1469.40 3
5 -3 0 19830.8 3084.52 3
5 -3 1 96166.4 6973.20 3
5 -3 2 47063.4 4747.61 3
5 -3 3 2473.20 1186.28 3
5 -3 4 2423.18 933.174 3
5 -3 5 51220.9 4948.55 3
5 -3 6 48657.1 4832.19 3
5 -3 7 24332.9 3442.44 3
5 -3 8 5163.04 1568.90 3
5 -3 9 23498.0 3457.19 3
5 -3 10 32525.1 4230.13 3
-5 3 -10 35225.0 4432.60 2
-5 3 -11 22855.8 3606.02 2
-5 3 -12 -1124.64 863.762 2
5 -2 -9 23006.9 3994.91 3
5 -2 -8 17548.6 3375.58 3
5 -2 -7 -809.258 991.458 3
5 -2 -6 14625.7 2919.25 3
5 -2 -5 32829.3 4287.12 3
5 -2 -4 16720.6 2943.96 3
5 -2 -3 8441.73 2052.87 3
5 -2 -2 15028.5 2713.93 3
5 -2 -1 77372.2 6221.81 3
5 -2 0 57409.1 5241.21 3
5 -2 1 37339.1 4140.75 3
5 -2 2 2802.86 1087.38 3
5 -2 3 30708.3 3728.02 3
5 -2 4 62693.3 5429.83 3
5 -2 5 24447.1 3300.21 3
5 -2 6 7.50976 560.898 3
5 -2 7 20592.1 3101.00 3
5 -2 8 67153.7 5804.22 3
5 -2 9 35218.2 4211.32 3
5 -2 10 17.0872 771.239 3
-5 2 -11 14915.7 2773.46 2
5 -1 -9 4779.28 1771.10 3
5 -1 -8 6258.54 2102.23 3
5 -1 -7 60444.3 6063.95 3
-5 1 7 56656.3 4864.98 6
5 -1 -6 87749.7 7255.49 3
5 -1 -5 19091.7 3189.94 3
5 -1 -4 4490.16 1659.51 3
5 -1 -3 47985.9 4880.88 3
5 -1 -2 71733.1 5963.45 3
5 -1 -1 8823.56 1987.01 3
5 -1 0 502.906 636.658 3
5 -1 1 52584.8 4858.65 3
5 -1 2 77408.8 6000.22 3
5 -1 3 35100.1 3887.11 3
5 -1 4 10931.4 2159.19 3
5 -1 5 28459.3 3523.24 3
5 -1 6 105974. 7151.70 3
5 -1 7 65666.7 5590.17 3
5 -1 8 8816.60 1979.54 3
5 -1 9 14481.7 2618.84 3
-5 1 -10 58995.3 5691.05 4
5 -1 10 47376.1 5036.41 3
-5 1 -11 23598.7 3657.43 4
-5 1 -12 -337.636 976.111 4
-5 1 -13 9472.82 2583.64 4
-5 1 -14 20401.9 3623.82 4
5 0 -10 1304.49 1017.89 3
5 0 -9 11607.6 2758.07 3
-5 0 8 24545.9 3284.40 6
5 0 -8 22722.9 3759.95 3
-5 0 7 723.966 693.974 6
5 0 -7 -456.470 973.161 3
-5 0 6 912.830 804.948 6
5 0 -6 1093.94 1211.33 3
5 0 -5 14734.9 2736.59 3
5 0 -4 38325.6 4423.12 3
5 0 -3 23230.1 3289.89 3
5 0 -2 1049.26 734.703 3
5 0 -1 26155.6 3362.06 3
5 0 0 71181.2 5650.28 3
5 0 1 100026. 6756.83 3
5 0 2 1641.05 1006.15 3
5 0 3 23171.4 3106.05 3
5 0 4 70970.1 5533.26 3
5 0 5 30915.7 3592.28 3
5 0 6 1212.56 682.599 3
5 0 7 14756.8 2534.81 3
-5 0 -8 53310.6 5209.58 4
5 0 8 49418.7 4784.11 3
-5 0 -9 70783.6 6273.90 4
5 0 9 77890.8 6174.30 3
-5 0 -10 4197.11 1638.79 4
5 0 10 2901.50 1276.44 3
-5 0 -11 3060.19 1326.07 4
-5 0 -12 22249.2 3587.61 4
-5 0 -13 46329.1 5411.67 4
-5 0 -14 9386.90 2521.27 4
5 1 -10 13360.5 2972.43 3
5 1 -9 12802.6 2842.03 3
-5 -1 9 14129.6 2760.28 6
5 1 -8 219.279 676.367 3
-5 -1 8 2928.22 1237.75 6
5 1 -7 35851.6 4515.58 3
-5 -1 7 34477.1 4080.71 6
5 1 -6 69276.8 6130.17 3
-5 -1 6 55426.6 5115.80 6
5 1 -5 38458.5 4462.31 3
-5 -1 5 44500.1 4360.90 6
5 1 -4 -262.555 663.261 3
5 1 -3 20722.5 3061.78 3
5 1 -2 38793.5 4112.72 3
5 1 -1 41813.0 4232.59 3
5 1 0 12909.9 2286.17 3
5 1 1 24374.6 3163.83 3
5 1 2 81208.8 5872.24 3
5 1 3 110270. 6946.24 3
5 1 4 21282.4 2929.23 3
5 1 5 17847.1 2659.18 3
-5 -1 -6 71924.6 5872.11 4
5 1 6 80391.1 5926.24 3
-5 -1 -7 87977.4 6623.18 4
5 1 7 98152.2 6710.77 3
-5 -1 -8 43590.2 4639.83 4
5 1 8 48292.4 4656.54 3
-5 -1 -9 1646.86 1029.98 4
5 1 9 250.203 623.746 3
-5 -1 -10 41166.3 4756.67 4
-5 -1 -11 29903.8 4116.26 4
-5 -1 -12 17456.8 3304.06 4
-5 -1 -13 2382.27 1407.46 4
-5 -1 -14 6773.44 2199.10 4
5 2 -9 6517.45 2065.40 3
-5 -2 9 6760.11 1998.81 6
5 2 -8 27669.9 4013.70 3
-5 -2 8 25140.9 3711.76 6
5 2 -7 5685.31 1810.14 3
-5 -2 7 11726.0 2500.63 6
-5 -2 6 7825.74 2014.26 6
5 2 -6 5767.87 1882.47 3
-5 -2 5 6009.61 1684.54 6
5 2 -5 8048.11 2082.13 3
5 2 -4 63137.4 5478.43 3
-5 -2 4 76457.4 5884.56 6
5 2 -3 55398.0 4938.34 3
-5 -2 3 45696.5 4471.74 6
5 2 -2 4104.36 1345.43 3
5 2 -1 6440.87 1640.46 3
5 2 0 82905.9 5901.08 3
5 2 1 79900.6 5721.21 3
5 2 2 26625.8 3167.42 3
5 2 3 7046.59 1665.30 3
5 2 4 36119.7 3749.81 3
-5 -2 -5 11102.6 2141.77 4
5 2 5 7732.06 1724.91 3
-5 -2 -6 15158.5 2565.30 4
5 2 6 12928.9 2242.82 3
-5 -2 -7 3044.85 1244.10 4
5 2 7 166.194 521.543 3
-5 -2 -8 26199.3 3527.70 4
5 2 8 26914.0 3364.30 3
-5 -2 -9 87941.5 6878.21 4
5 2 9 93611.5 6673.36 3
-5 -2 -10 27703.0 3827.78 4
-5 -2 -11 857.610 816.019 4
-5 -2 -12 21871.7 3576.89 4
-5 -2 -13 41890.9 5115.23 4
-5 -2 -14 17415.2 3389.21 4
-5 -3 9 18018.6 3400.88 6
-5 -3 8 6444.41 1924.16 6
-5 -3 7 4708.70 1718.43 6
5 3 -6 37511.1 4248.19 3
-5 -3 6 41381.1 4751.77 6
5 3 -5 50745.0 4888.15 3
-5 -3 5 56802.6 5391.50 6
-5 -3 4 6558.84 1781.50 6
5 3 -4 6199.16 1632.30 3
-5 -3 3 2589.00 1286.53 6
5 3 -3 5683.12 1580.05 3
-5 -3 2 17447.5 2791.44 6
5 3 -2 17323.4 2550.22 3
5 3 -1 53845.6 4595.65 3
5 3 0 21998.1 2867.30 3
5 3 1 4727.52 1300.13 3
5 3 2 36378.0 3652.17 3
5 3 3 135176. 7516.28 3
-5 -3 -4 22722.6 2218.55 5
-5 -3 -4 20084.8 2810.64 4
5 3 4 20344.0 2713.41 3
-5 -3 -5 -273.126 665.632 4
5 3 5 3.03639 485.409 3
-5 -3 -6 22078.0 3153.78 4
5 3 6 27855.0 3235.37 3
-5 -3 -7 93021.1 6743.50 4
5 3 7 97814.2 6465.78 3
-5 -3 -8 67982.8 5770.86 4
5 3 8 63320.4 5247.79 3
-5 -3 -9 3818.19 1411.87 4
-5 -3 -10 15692.7 3005.19 4
-5 -3 -11 53450.0 5585.67 4
-5 -3 -12 17834.0 3249.84 4
-5 -3 -13 944.207 998.948 4
-5 -4 7 28061.9 4187.25 6
-5 -4 6 8676.50 2332.54 6
-5 -4 5 4966.64 1871.06 6
-5 -4 4 52936.5 5321.44 6
5 4 -3 42199.4 4106.04 3
-5 -4 3 51327.6 5127.77 6
-5 -4 2 6952.77 1829.97 6
5 4 -2 4458.55 1290.66 3
-5 -4 1 308.468 614.339 6
5 4 -1 -147.484 473.018 3
5 4 0 36829.3 3581.68 3
-5 -4 0 29874.2 3655.31 6
5 4 1 64911.2 4795.50 3
5 4 2 56705.5 4498.31 3
5 4 3 1474.84 786.839 3
-5 -4 -4 15490.4 2460.56 4
5 4 4 20210.3 2608.77 3
-5 -4 -5 24872.0 2672.60 5
-5 -4 -5 32236.4 3659.41 4
5 4 5 28230.8 3142.13 3
-5 -4 -6 60273.6 4206.32 5
-5 -4 -6 66480.3 5437.50 4
5 4 6 65079.3 5020.94 3
-5 -4 -7 9258.35 2085.45 4
5 4 7 12739.4 2218.58 3
-5 -4 -8 20794.4 3133.26 4
-5 -4 -9 85460.0 6751.91 4
-5 -4 -10 56039.2 5576.32 4
-5 -4 -11 3135.00 1462.75 4
-5 -4 -12 9153.69 2358.02 4
-5 -4 -13 10031.1 2427.72 4
-5 -5 5 22304.4 3690.61 6
-5 -5 4 19755.6 3419.00 6
-5 -5 3 -237.895 676.504 6
-5 -5 2 7122.81 2000.75 6
-5 -5 1 35641.2 4248.15 6
-5 -5 0 50127.8 4972.49 6
-5 -5 -1 6636.41 1769.41 6
5 5 1 6726.05 1520.81 3
-5 -5 -2 6345.47 1722.95 6
5 5 2 10700.5 1841.29 3
-5 -5 -3 73385.0 5460.37 4
5 5 3 78246.0 5185.22 3
-5 -5 -4 43587.6 4265.56 4
5 5 4 50510.9 4128.15 3
-5 -5 -5 8277.22 1692.12 5
-5 -5 -5 4340.83 1551.56 4
5 5 5 7098.75 1545.23 3
-5 -5 -6 7603.08 1642.93 5
-5 -5 -6 5691.14 1637.80 4
5 5 6 5851.26 1439.73 3
-5 -5 -7 36562.8 3595.73 5
-5 -5 -7 33130.5 3937.11 4
-5 -5 -8 49042.7 4912.98 4
-5 -5 -9 14910.0 2747.72 4
-5 -5 -10 -286.618 841.019 4
-5 -5 -11 19366.1 3423.54 4
-5 -5 -12 24654.0 3965.46 4
-5 -6 3 30808.5 4342.64 6
-5 -6 2 15130.4 2945.24 6
-5 -6 1 6965.61 2032.86 6
-5 -6 0 10171.7 2343.20 6
-5 -6 -1 56470.8 5458.22 6
-5 -6 -2 48994.0 4948.26 6
-5 -6 -3 5267.69 1616.26 6
-5 -6 -3 6087.84 1523.83 4
-5 -6 -4 7032.48 1881.73 6
-5 -6 -4 10309.9 2047.94 4
-5 -6 -5 45259.6 4374.66 5
-5 -6 -5 37605.5 4016.60 4
-5 -6 -5 38857.6 4219.68 6
-5 -6 -6 39315.9 4054.58 5
-5 -6 -6 32074.6 3794.52 4
-5 -6 -7 23640.4 3169.13 5
-5 -6 -7 21598.5 3178.82 4
-5 -6 -8 3534.39 1226.31 5
-5 -6 -8 5562.29 1642.65 4
-5 -6 -9 37580.0 4468.94 4
-5 -6 -10 31765.0 4187.55 4
-5 -6 -11 28380.9 4133.80 4
-5 -6 -12 492.845 887.486 4
-5 -7 1 42476.4 5159.47 6
-5 -7 0 35646.5 4568.05 6
-5 -7 -1 10537.4 2415.62 6
-5 -7 -2 -534.785 1077.16 6
-5 -7 -3 23269.3 3521.35 6
-5 -7 -4 40842.2 4569.99 6
-5 -7 -5 16992.9 2844.29 6
-5 -7 -5 15300.2 2784.22 5
-5 -7 -5 14050.1 2396.48 4
-5 -7 -6 1378.03 964.431 6
-5 -7 -6 -318.800 712.072 5
-5 -7 -6 -271.360 881.796 4
-5 -7 -7 7214.57 1889.73 6
-5 -7 -7 6125.06 1780.68 5
-5 -7 -7 10683.6 2245.07 4
-5 -7 -8 49966.0 4985.96 5
-5 -7 -8 46184.5 4854.33 4
-5 -7 -8 45295.5 4568.83 6
-5 -7 -9 24363.9 3278.13 6
-5 -7 -9 27666.9 3718.10 5
-5 -7 -9 25696.8 3706.98 4
-5 -7 -10 9680.99 2317.11 4
-5 -7 -11 11118.2 2562.72 4
-5 -8 -2 32835.2 4424.47 6
-5 -8 -3 9751.50 2304.22 6
-5 -8 -4 464.523 784.985 6
-5 -8 -5 12933.1 2589.48 6
-5 -8 -5 10541.1 2478.73 5
-5 -8 -6 42963.7 4951.68 5
-5 -8 -6 34047.2 4357.06 6
-5 -8 -7 30544.4 3962.44 6
-5 -8 -7 31620.7 4227.34 5
-5 -8 -7 30013.3 3848.98 4
-5 -8 -8 94.6531 680.096 6
-5 -8 -8 99.2521 598.542 5
-5 -8 -8 421.697 646.554 4
-5 -8 -9 5015.01 1677.48 5
-5 -8 -9 2849.50 1456.72 4
-5 -8 -10 29430.3 4140.04 4
-5 -9 -5 23320.0 4013.46 5
-5 -9 -5 27956.0 4101.11 6
-5 -9 -6 3159.61 1369.55 5
-5 -9 -6 1331.73 1134.29 6
-5 -9 -7 7343.46 2307.77 5
-5 -9 -7 6576.14 1974.68 6
-5 -9 -8 13729.7 2938.65 5
-5 -9 -9 29613.0 4413.47 5
-5 -9 -9 26055.0 3867.02 4
6 -5 -2 26199.6 4170.41 3
6 -5 -1 45609.8 5459.15 3
6 -5 0 4651.93 1727.85 3
6 -5 1 3944.69 1527.93 3
6 -5 2 31962.1 4473.28 3
6 -5 3 21208.2 3615.35 3
6 -5 4 7676.77 2190.98 3
6 -5 5 -1159.93 973.778 3
6 -5 6 14182.9 2865.06 3
6 -4 -4 15752.6 3314.38 3
6 -4 -3 18178.3 3541.27 3
6 -4 -2 13907.9 2973.90 3
6 -4 -1 3721.86 1369.72 3
6 -4 0 22465.0 3679.69 3
6 -4 1 31151.2 4321.15 3
6 -4 2 17332.9 3310.62 3
6 -4 3 1467.81 973.922 3
6 -4 4 16665.8 3146.01 3
6 -4 5 39499.9 4889.83 3
6 -4 6 11823.1 2635.43 3
6 -4 7 1056.91 698.061 3
6 -3 -5 42065.7 5466.42 3
6 -3 -4 15617.2 3288.18 3
6 -3 -3 3340.58 1760.68 3
6 -3 -2 29359.8 4291.19 3
6 -3 -1 51221.1 5588.38 3
6 -3 0 27244.0 4085.83 3
6 -3 1 248.752 792.095 3
6 -3 2 14998.8 2922.98 3
6 -3 3 45453.8 5131.22 3
6 -3 4 44201.0 5029.08 3
6 -3 5 6587.22 2030.13 3
6 -3 6 6266.49 1921.89 3
6 -3 7 61939.4 6117.96 3
6 -3 8 46623.6 5304.67 3
6 -2 -5 -1081.85 1028.80 3
6 -2 -4 22049.4 3773.38 3
6 -2 -3 33526.7 4573.60 3
6 -2 -2 16395.0 3094.09 3
6 -2 -1 2963.09 1387.22 3
6 -2 0 6195.52 1906.13 3
6 -2 1 26168.5 3863.53 3
6 -2 2 19791.9 3288.94 3
6 -2 3 11751.4 2552.90 3
6 -2 4 15465.1 2923.43 3
6 -2 5 28103.6 3945.15 3
6 -2 6 30168.3 4109.72 3
6 -2 7 10221.6 2413.34 3
6 -2 8 4010.70 1512.63 3
6 -2 9 17504.7 3278.23 3
-6 1 6 2225.59 1193.38 6
6 -1 -6 -886.195 890.094 3
6 -1 -5 29943.1 4443.69 3
6 -1 -4 24148.7 3955.71 3
6 -1 -3 -4.95089 826.954 3
6 -1 -2 6061.75 1980.25 3
6 -1 -1 42133.0 4913.49 3
6 -1 0 76807.5 6673.38 3
6 -1 1 3929.01 1351.51 3
6 -1 2 5013.00 1761.18 3
6 -1 3 61570.8 5816.24 3
6 -1 4 55766.2 5543.61 3
6 -1 5 9558.26 2191.16 3
6 -1 6 -1078.35 830.931 3
6 -1 7 42658.8 4850.01 3
6 -1 8 49615.6 5307.64 3
6 -1 9 11732.2 2613.02 3
6 -1 10 -812.142 832.509 3
-6 0 7 26549.2 3692.99 6
6 0 -7 17493.1 3493.50 3
-6 0 6 31016.1 3961.40 6
6 0 -6 28757.4 4305.10 3
6 0 -5 504.873 763.474 3
6 0 -4 7579.04 2131.15 3
6 0 -3 22797.2 3623.09 3
6 0 -2 30288.2 4170.65 3
6 0 -1 20589.4 3311.51 3
6 0 0 250.785 837.733 3
6 0 1 32857.0 4149.50 3
6 0 2 51086.7 5201.06 3
6 0 3 17356.2 2986.19 3
6 0 4 8701.99 2041.29 3
6 0 5 14477.0 2718.67 3
6 0 6 42873.5 4747.51 3
6 0 7 45718.1 4982.45 3
6 0 8 -1027.81 858.852 3
6 0 9 6246.91 1836.75 3
6 0 10 23319.7 3752.53 3
-6 -1 7 22617.3 3684.92 6
6 1 -7 23057.6 4013.20 3
-6 -1 6 188.410 999.325 6
6 1 -6 -483.232 835.051 3
-6 -1 5 24991.4 3659.33 6
6 1 -5 25759.2 3944.11 3
-6 -1 4 21183.6 3315.02 6
6 1 -4 26495.1 4010.75 3
6 1 -3 14110.1 2870.02 3
6 1 -2 2262.90 1083.73 3
6 1 -1 38537.2 4499.09 3
6 1 0 70757.4 6168.45 3
6 1 1 23125.5 3423.37 3
6 1 2 -319.844 673.366 3
6 1 3 21660.4 3234.53 3
6 1 4 21438.4 3323.09 3
6 1 5 26312.2 3614.54 3
6 1 6 16844.3 2920.63 3
6 1 7 8922.25 2175.03 3
6 1 8 40546.9 4636.17 3
-6 -1 -9 32759.7 4482.77 4
6 1 9 42353.1 4787.57 3
-6 -1 -10 7134.73 2288.28 4
6 1 10 4879.89 1612.77 3
-6 -1 -11 6328.39 2060.18 4
6 2 -7 17195.2 3386.30 3
6 2 -6 29703.2 4217.89 3
-6 -2 6 38908.8 4768.24 6
-6 -2 5 1995.65 1462.65 6
6 2 -5 3327.59 1497.67 3
-6 -2 4 366.929 674.396 6
6 2 -4 -279.092 813.400 3
-6 -2 3 21751.6 3342.83 6
6 2 -3 15242.4 2891.13 3
6 2 -2 36331.1 4340.31 3
6 2 -1 24081.9 3481.57 3
6 2 0 6472.82 1731.44 3
6 2 1 15960.4 2785.71 3
6 2 2 55074.7 5181.64 3
6 2 3 23354.1 3347.91 3
6 2 4 1064.50 939.738 3
6 2 5 12504.3 2475.06 3
6 2 6 74371.2 6140.61 3
6 2 7 62272.8 5659.95 3
-6 -2 -8 9251.46 2325.46 4
6 2 8 13572.9 2614.47 3
-6 -2 -9 9783.69 2480.88 4
6 2 9 12069.8 2514.74 3
-6 -2 -10 23137.7 3781.68 4
6 2 10 29958.0 4040.93 3
-6 -2 -11 20235.3 3718.31 4
-6 -3 5 16225.7 3174.25 6
-6 -3 4 15332.9 3067.56 6
6 3 -4 19980.3 3225.73 3
-6 -3 3 13726.3 2832.93 6
6 3 -3 12129.0 2435.47 3
-6 -3 2 -65.8827 910.767 6
6 3 -2 1933.84 1056.04 3
6 3 -1 11099.1 2316.03 3
6 3 0 52127.5 5012.69 3
6 3 1 50343.6 4846.04 3
6 3 2 11618.9 2256.51 3
6 3 3 1160.12 799.438 3
6 3 4 12228.9 2310.64 3
6 3 5 73413.4 5950.49 3
6 3 6 31320.2 3868.37 3
-6 -3 -7 -683.317 791.463 4
6 3 7 1314.19 1060.56 3
-6 -3 -8 26908.2 4024.26 4
6 3 8 32237.9 4031.21 3
-6 -3 -9 43123.0 5120.28 4
6 3 9 43851.2 4795.02 3
-6 -3 -10 5582.55 1980.41 4
-6 -3 -11 2082.91 1160.35 4
-6 -4 3 -955.497 998.914 6
-6 -4 2 21967.9 3618.76 6
-6 -4 1 45378.6 5115.03 6
-6 -4 0 7440.44 2100.13 6
6 4 0 8907.75 1968.89 3
6 4 1 4898.31 1459.86 3
6 4 2 52142.5 4788.70 3
6 4 3 26215.0 3445.89 3
6 4 4 2084.25 940.964 3
6 4 5 6517.96 1689.98 3
-6 -4 -6 40452.3 4748.58 4
6 4 6 39799.1 4275.59 3
-6 -4 -7 43244.1 4943.96 4
6 4 7 43743.3 4550.01 3
-6 -4 -8 32395.5 4293.14 4
6 4 8 29449.6 3786.49 3
-6 -4 -9 -754.808 832.026 4
-6 -4 -10 6569.03 2074.92 4
-6 -5 1 2880.63 1631.07 6
-6 -5 0 24694.8 3788.44 6
-6 -5 -1 37084.9 4560.22 6
-6 -5 -2 32933.9 4209.57 6
6 5 4 12504.7 2277.80 3
6 5 5 52947.8 4810.92 3
-6 -5 -6 34424.6 4298.43 4
6 5 6 34356.0 3883.45 3
-6 -5 -7 -503.050 877.681 4
6 5 7 675.238 547.485 3
-6 -5 -8 7538.66 2011.11 4
-6 -5 -9 28190.8 4183.99 4
-6 -5 -10 28242.7 4193.24 4
-6 -6 -2 17185.6 3250.32 6
-6 -6 -3 16640.2 3042.39 6
-6 -6 -4 9388.67 2318.75 6
-6 -6 -5 7951.09 2057.30 6
-6 -6 -5 6693.12 1928.76 4
-6 -6 -6 11322.9 2431.74 4
-6 -6 -7 33066.5 4262.48 4
-6 -6 -8 39887.1 4870.32 4
-6 -6 -9 13448.4 2882.50 4
-6 -7 -5 31456.1 4268.44 6
-6 -7 -6 19154.8 3365.64 6
-6 -7 -6 18969.0 3185.26 4
-6 -7 -7 3480.23 1477.67 6
-6 -7 -7 2904.76 1418.59 4
-6 -7 -8 324.874 778.364 6
-6 -7 -8 -44.0303 834.684 4
-6 -7 -9 17457.8 3106.65 6
7 -1 1 45746.9 5531.98 3
7 -1 2 23203.8 3823.20 3
7 -1 3 91.6203 852.779 3
7 -1 4 1699.48 1313.08 3
7 0 -1 21892.0 3806.67 3
7 0 0 18082.6 3544.67 3
7 0 1 882.893 1077.75 3
7 0 2 5503.48 1801.84 3
7 0 3 24018.2 3967.97 3
7 0 4 20036.2 3509.14 3
7 0 5 11158.4 2664.81 3
7 1 -2 26053.2 4143.62 3
7 1 -1 17955.1 3357.99 3
7 1 0 996.141 820.783 3
7 1 1 25192.6 3939.71 3
7 1 2 25979.8 3988.81 3
7 1 3 11767.7 2685.84 3
7 1 4 325.327 704.911 3
7 1 5 22836.7 3677.33 3
7 1 6 52312.1 5685.32 3
7 2 -3 6434.75 1976.44 3
7 2 -2 -687.011 900.583 3
7 2 -1 17680.9 3278.02 3
7 2 0 28913.2 4224.21 3
7 2 1 8675.27 2252.74 3
7 2 2 -1501.17 1053.99 3
7 2 3 18807.6 3281.42 3
7 2 4 40569.6 4873.88 3
7 2 5 33462.9 4437.59 3
7 2 6 211.280 967.474 3
7 2 7 15004.2 2918.54 3
7 3 -1 23340.0 3677.90 3
7 3 0 -2968.89 1380.81 3
7 3 1 17479.6 3205.47 3
7 3 2 22786.6 3602.91 3
7 3 3 7834.03 2086.19 3
7 3 4 3028.34 1521.40 3
7 3 5 9441.97 2302.39 3
7 3 6 37546.6 4609.61 3
7 3 7 23213.2 3652.01 3
7 4 2 2384.71 1088.59 3
7 4 3 11074.7 2404.93 3
7 4 4 43377.3 4847.43 3
7 4 5 46713.9 5025.64 3
7 4 6 6368.22 2008.80 3
7 4 7 -550.863 957.667 3
7 4 8 18426.4 3280.44 3
7 5 7 25927.5 3778.41 3
7 5 8 15495.3 2994.50 3
