#------------------------------------------------------------------------------
#$Date: 2022-09-08 02:04:43 +0300 (Thu, 08 Sep 2022) $
#$Revision: 277723 $
#$URL: file:///home/coder/svn-repositories/cod/cif/7/71/11/7711196.cif $
#------------------------------------------------------------------------------
#
# This file is available in the Crystallography Open Database (COD),
# http://www.crystallography.net/
#
# All data on this site have been placed in the public domain by the
# contributors.
#
data_7711196
loop_
_publ_author_name
'Herrera, Susana'
'Rivero, Kennett I.'
'Guzm\'an, Alexis'
'Cede\~no, Jonathan'
'Miksovska, Jaroslava'
'Raptis, Raphael G.'
_publ_section_title
;
 Mononuclear, hexanuclear and polymeric indium(iii) pyrazolido complexes;
 structural characterization, dynamic solution studies and luminescent
 properties
;
_journal_name_full               'Dalton Transactions'
_journal_paper_doi               10.1039/D2DT01901A
_journal_year                    2022
_chemical_formula_moiety         'C9 H9 Cl6 In N6'
_chemical_formula_sum            'C9 H9 Cl6 In N6'
_chemical_formula_weight         528.74
_chemical_name_common            mer-[InCl3(4-Cl-pzH)3]
_chemical_name_systematic        InCl3(N2C3ClH3)3
_space_group_crystal_system      triclinic
_space_group_IT_number           2
_space_group_name_Hall           '-P 1'
_space_group_name_H-M_alt        'P -1'
_atom_sites_solution_hydrogens   mixed
_audit_creation_date             2021-11-05
_audit_creation_method
;
Olex2 1.3
(compiled 2020.11.12 svn.r5f609507 for OlexSys, GUI svn.r6408)
;
_audit_update_record
;
2022-08-22 deposited with the CCDC.	2022-09-01 downloaded from the CCDC.
;
_cell_angle_alpha                78.541(5)
_cell_angle_beta                 89.430(5)
_cell_angle_gamma                87.010(5)
_cell_formula_units_Z            2
_cell_length_a                   6.8851(11)
_cell_length_b                   10.5525(18)
_cell_length_c                   12.437(2)
_cell_measurement_reflns_used    9915
_cell_measurement_temperature    296
_cell_measurement_theta_max      28.40
_cell_measurement_theta_min      2.83
_cell_volume                     884.4(3)
_computing_cell_refinement       'SAINT V8.38A (Bruker, 2016)'
_computing_data_collection       'Bruker APEX II'
_computing_data_reduction        'SAINT V8.38A (Bruker, 2016)'
_computing_molecular_graphics    'Olex2 1.3 (Dolomanov et al., 2009)'
_computing_publication_material  'Olex2 1.3 (Dolomanov et al., 2009)'
_computing_structure_refinement  'SHELXL 2018/3 (Sheldrick, 2015)'
_computing_structure_solution    'ShelXT (Sheldrick, 2015)'
_diffrn_ambient_temperature      296
_diffrn_detector_type            'Photon 100 Detector'
_diffrn_measured_fraction_theta_full 0.995
_diffrn_measured_fraction_theta_max 0.996
_diffrn_measurement_device       'three-circle diffractometer'
_diffrn_measurement_device_type  'Bruker APEX-II CCD'
_diffrn_measurement_method       '\w scans'
_diffrn_radiation_type           MoK\a
_diffrn_radiation_wavelength     0.71073
_diffrn_reflns_av_R_equivalents  0.0198
_diffrn_reflns_av_unetI/netI     0.0160
_diffrn_reflns_Laue_measured_fraction_full 0.995
_diffrn_reflns_Laue_measured_fraction_max 0.996
_diffrn_reflns_limit_h_max       8
_diffrn_reflns_limit_h_min       -8
_diffrn_reflns_limit_k_max       13
_diffrn_reflns_limit_k_min       -13
_diffrn_reflns_limit_l_max       15
_diffrn_reflns_limit_l_min       -15
_diffrn_reflns_number            12966
_diffrn_reflns_point_group_measured_fraction_full 0.995
_diffrn_reflns_point_group_measured_fraction_max 0.996
_diffrn_reflns_theta_full        25.000
_diffrn_reflns_theta_max         27.099
_diffrn_reflns_theta_min         2.827
_exptl_absorpt_coefficient_mu    2.244
_exptl_absorpt_correction_T_max  0.7457
_exptl_absorpt_correction_T_min  0.6611
_exptl_absorpt_correction_type   multi-scan
_exptl_absorpt_process_details
;
SADABS-2016/2 (Bruker,2016) was used for absorption correction.
wR2(int) was 0.0660 before and 0.0412 after correction.
The Ratio of minimum to maximum transmission is 0.8865.
The \l/2 correction factor is Not present.
;
_exptl_crystal_colour            'clear colourless'
_exptl_crystal_colour_lustre     clear
_exptl_crystal_colour_primary    colourless
_exptl_crystal_density_diffrn    1.986
_exptl_crystal_description       prism
_exptl_crystal_F_000             512
_exptl_crystal_size_max          0.346
_exptl_crystal_size_mid          0.236
_exptl_crystal_size_min          0.233
_refine_diff_density_max         0.749
_refine_diff_density_min         -0.881
_refine_diff_density_rms         0.074
_refine_ls_extinction_coef       0.0294(9)
_refine_ls_extinction_expression Fc^*^=kFc[1+0.001xFc^2^\l^3^/sin(2\q)]^-1/4^
_refine_ls_extinction_method     'SHELXL-2018/3 (Sheldrick 2018)'
_refine_ls_goodness_of_fit_ref   1.106
_refine_ls_hydrogen_treatment    mixed
_refine_ls_matrix_type           full
_refine_ls_number_parameters     204
_refine_ls_number_reflns         3883
_refine_ls_number_restraints     0
_refine_ls_restrained_S_all      1.106
_refine_ls_R_factor_all          0.0259
_refine_ls_R_factor_gt           0.0238
_refine_ls_shift/su_max          0.002
_refine_ls_shift/su_mean         0.000
_refine_ls_structure_factor_coef Fsqd
_refine_ls_weighting_details
'w=1/[\s^2^(Fo^2^)+(0.0191P)^2^+0.9542P] where P=(Fo^2^+2Fc^2^)/3'
_refine_ls_weighting_scheme      calc
_refine_ls_wR_factor_gt          0.0540
_refine_ls_wR_factor_ref         0.0554
_reflns_Friedel_coverage         0.000
_reflns_number_gt                3643
_reflns_number_total             3883
_reflns_threshold_expression     'I > 2\s(I)'
_cod_data_source_file            d2dt01901a2.cif
_cod_data_source_block           sh030_0m_a
_cod_database_code               7711196
_shelx_shelxl_version_number     2018/3
_shelx_space_group_comment
;
The symmetry employed for this shelxl refinement is uniquely defined
by the following loop, which should always be used as a source of
symmetry information in preference to the above space-group names.
They are only intended as comments.
;
_shelx_estimated_absorpt_t_max   0.623
_shelx_estimated_absorpt_t_min   0.511
_olex2_refinement_description
;
1. Fixed Uiso
 At 1.2 times of:
  All C(H) groups, All N(H) groups
2.a Aromatic/amide H refined with riding coordinates:
 N4(H4), N6(H6), C4(H4A), C6(H6A), C3(H3), C1(H1), C7(H7), C9(H9)
;
_smtbx_masks_void_probe_radius   1.2
_smtbx_masks_void_truncation_radius 1.2
_shelx_res_file
;
TITL SH030_0m_a.res in P-1
    sh030_0m_a.res
    created by SHELXL-2018/3 at 10:16:45 on 05-Nov-2021
REM Old TITL SH030_0m in P-1
REM SHELXT solution in P-1: R1 0.115, Rweak 0.009, Alpha 0.055
REM <I/s> 0.000 for 0 systematic absences, Orientation as input
REM Formula found by SHELXT: C11 N2 Cl3 In
CELL 0.71073 6.8851 10.5525 12.4369 78.541 89.43 87.01
ZERR 2 0.0011 0.0018 0.002 0.005 0.005 0.005
LATT 1
SFAC C H Cl In N
UNIT 18 18 12 2 12

L.S. 50
PLAN  5
SIZE 0.233 0.236 0.346
TEMP 22.85
CONF
LIST 6
MORE -1
BOND $H
fmap 2
acta 50
SHEL 10 0.78
OMIT 1 3 1
OMIT 1 2 1
REM <olex2.extras>
REM <HklSrc "%./SH030_0m_a.hkl">
REM </olex2.extras>

WGHT    0.019100    0.954200
EXTI    0.029367
FVAR       0.67218
IN1   4    0.169484    0.320894    0.798136    11.00000    0.02784    0.03278 =
         0.02942   -0.00458    0.00155   -0.00022
CL6   3    0.429096    0.185032    0.901885    11.00000    0.03885    0.04818 =
         0.03650    0.00158   -0.00396    0.00734
CL5   3   -0.037799    0.336303    0.957227    11.00000    0.04405    0.05431 =
         0.04219   -0.01754    0.01428   -0.00512
CL4   3   -0.057972    0.461530    0.668053    11.00000    0.03983    0.05266 =
         0.04333   -0.00485   -0.00867    0.01423
CL2   3    0.378183    0.854766    0.831093    11.00000    0.05231    0.03758 =
         0.06340   -0.00835   -0.00945   -0.00541
CL1   3    0.752884    0.185896    0.464052    11.00000    0.10567    0.21375 =
         0.04602    0.00093    0.02154    0.10068
CL3   3   -0.161567   -0.154119    0.678245    11.00000    0.06659    0.06283 =
         0.09581   -0.04355    0.02166   -0.02192
N3    5    0.336932    0.494875    0.813878    11.00000    0.03185    0.03881 =
         0.03846   -0.00601   -0.00132   -0.00324
N4    5    0.518221    0.493088    0.854612    11.00000    0.03103    0.04262 =
         0.04718   -0.00445   -0.00283    0.00189
AFIX  43
H4    2    0.594374    0.424784    0.870544    11.00000   -1.20000
AFIX   0
N1    5    0.342681    0.298467    0.643075    11.00000    0.03527    0.04204 =
         0.02700   -0.00081    0.00156    0.00573
N2    5    0.297025    0.365579    0.542270    11.00000    0.04267    0.05305 =
         0.03217    0.00067   -0.00186    0.01288
N5    5    0.012301    0.141498    0.782714    11.00000    0.03384    0.03596 =
         0.03849   -0.00396    0.00268   -0.00624
N6    5   -0.095933    0.083123    0.868505    11.00000    0.04416    0.05132 =
         0.04156   -0.01064    0.00576   -0.01056
AFIX  43
H6    2   -0.113189    0.111255    0.928402    11.00000   -1.20000
AFIX   0
C4    1    0.268220    0.617033    0.801275    11.00000    0.03176    0.03936 =
         0.03988   -0.00603   -0.00147   -0.00148
AFIX  43
H4A   2    0.145015    0.647409    0.774962    11.00000   -1.20000
AFIX   0
C5    1    0.407192    0.692258    0.833112    11.00000    0.03655    0.03610 =
         0.03518   -0.00393    0.00179   -0.00641
C6    1    0.564477    0.610359    0.867058    11.00000    0.03476    0.04416 =
         0.04874   -0.00540   -0.00456   -0.00893
AFIX  43
H6A   2    0.681291    0.632208    0.893709    11.00000   -1.20000
AFIX   0
C3    1    0.422881    0.339675    0.466908    11.00000    0.05028    0.07134 =
         0.02930   -0.00181    0.00336    0.01302
AFIX  43
H3    2    0.419802    0.374706    0.392134    11.00000   -1.20000
AFIX   0
C2    1    0.556195    0.252156    0.520905    11.00000    0.04944    0.08685 =
         0.03324   -0.00481    0.00750    0.02374
C1    1    0.501070    0.227896    0.630205    11.00000    0.04779    0.07479 =
         0.03174    0.00106    0.00406    0.02432
AFIX  43
H1    2    0.566349    0.170296    0.686125    11.00000   -1.20000
AFIX   0
C7    1    0.005299    0.069608    0.709174    11.00000    0.03813    0.04536 =
         0.04368   -0.00808    0.00283   -0.00468
AFIX  43
H7    2    0.067206    0.086035    0.641390    11.00000   -1.20000
AFIX   0
C8    1   -0.108617   -0.035659    0.746892    11.00000    0.03049    0.04002 =
         0.05518   -0.01284    0.00089   -0.00193
C9    1   -0.171280   -0.022221    0.848347    11.00000    0.03954    0.04622 =
         0.05718   -0.00442    0.00568   -0.01093
AFIX  43
H9    2   -0.251756   -0.076806    0.894591    11.00000   -1.20000
AFIX   0
H2    2    0.205812    0.411759    0.536629    11.00000    0.05762
HKLF 4




REM  SH030_0m_a.res in P-1
REM wR2 = 0.0554, GooF = S = 1.106, Restrained GooF = 1.106 for all data
REM R1 = 0.0238 for 3643 Fo > 4sig(Fo) and 0.0259 for all 3883 data
REM 204 parameters refined using 0 restraints

END

WGHT      0.0191      0.9542

REM Highest difference peak  0.749,  deepest hole -0.881,  1-sigma level  0.074
Q1    1   0.6462  0.1217  0.4616  11.00000  0.05    0.75
Q2    1   0.7616  0.2382  0.4747  11.00000  0.05    0.51
Q3    1   0.3803  0.8723  0.7560  11.00000  0.05    0.35
Q4    1   0.1038  0.2820  0.7790  11.00000  0.05    0.35
Q5    1   0.2001  0.2898  0.8556  11.00000  0.05    0.33
;
_shelx_res_checksum              31213
_shelx_hkl_file
;
  -1   0   0  536.35    9.10
  -1   0   0  536.45    9.20
  -1   0   0  527.45    9.30
   1   0   0  538.95    9.20
   1   0   0  533.45    9.00
   1   0   0  525.45    9.30
  -2   0   0  122.09    3.10
  -2   0   0  121.39    2.80
  -2   0   0  121.99    2.60
   2   0   0  122.79    3.10
   2   0   0  124.49    2.60
  -3   0   0  894.91   16.10
  -3   0   0  897.81   15.70
   3   0   0  907.81   16.60
   3   0   0  902.01   15.70
  -4   0   0  301.77    6.60
  -4   0   0  305.67    6.10
   4   0   0  285.57    8.30
  -5   0   0  711.83   14.20
  -5   0   0  744.23   13.50
   5   0   0  715.43   15.00
  -6   0   0  378.26    9.10
   6   0   0  387.26   10.00
  -7   0   0   94.19    3.70
  -7   0   0   97.59    4.70
   7   0   0   95.89    5.50
  -8   0   0  170.58    6.60
   8   0   0  168.08    8.00
  -9   0   0  148.29    7.10
   9   0   0  151.48    8.80
   9  -1   0    0.10    2.70
  -9   1   0    7.20    2.30
   8  -1   0  398.46   12.00
  -8   1   0  377.76    9.10
  -8   1   0  394.66   10.40
   7  -1   0  481.95   12.60
  -7   1   0  482.65   11.30
  -7   1   0  464.65   10.30
   6  -1   0  332.37    9.20
  -6   1   0  336.97    7.60
  -6   1   0  342.37    8.40
   5  -1   0  838.52   17.20
  -5   1   0  866.91   15.80
  -5   1   0  848.22   16.30
  -4   1   0 2562.74   43.80
  -4   1   0 2543.85   43.50
   3  -1   0    8.40    1.50
  -3   1   0    8.50    1.30
  -3   1   0    9.00    1.00
   2  -1   0 1024.70   17.70
   2  -1   0 1031.70   18.10
   2  -1   0 1036.60   17.10
   2  -1   0 1022.70   17.60
  -2   1   0 1012.90   17.10
  -2   1   0 1025.70   17.70
  -2   1   0 1025.50   18.00
  -2   1   0 1000.50   17.60
   1  -1   0 1513.85   25.10
   1  -1   0 1552.74   25.30
   1  -1   0 1488.75   25.50
   1  -1   0 1482.35   25.30
  -1   1   0 1532.35   25.30
  -1   1   0 1517.15   25.10
  -1   1   0 1480.95   25.30
  -1   1   0 1504.15   25.50
  -1  -1   0 1568.94   26.20
  -1  -1   0 1636.14   26.50
   1   1   0 1529.15   26.20
   1   1   0 1559.44   26.50
  -2  -1   0 1443.56   24.50
  -2  -1   0 1494.85   25.30
  -2  -1   0 1464.75   24.50
  -2  -1   0 1455.35   25.10
   2   1   0 1490.15   24.60
   2   1   0 1454.45   25.40
   2   1   0 1480.65   24.50
  -3  -1   0    4.10    1.10
  -3  -1   0    4.40    0.70
   3   1   0    6.00    0.80
  -4  -1   0 1574.54   27.80
  -4  -1   0 1565.04   26.80
   4   1   0 1585.14   26.80
  -5  -1   0 1161.08   20.10
  -5  -1   0 1133.69   21.30
   5   1   0 1143.69   22.00
  -6  -1   0    7.40    1.50
  -6  -1   0    5.30    1.40
   6   1   0    3.80    1.40
  -7  -1   0  276.37    7.90
  -7  -1   0  249.58    6.80
   7   1   0  275.07    8.70
  -8  -1   0    1.30    1.90
   8   1   0    1.20    2.10
  -9  -1   0  140.29    7.20
   9   1   0  148.09    8.80
   9  -2   0   41.40    7.30
  -9   2   0   40.60    5.50
   8  -2   0    1.80    2.20
  -8   2   0    4.40    1.30
  -8   2   0    5.50    1.80
   7  -2   0  226.58    8.10
  -7   2   0  219.68    6.30
  -7   2   0  223.68    7.00
   6  -2   0  103.49    5.30
  -6   2   0  102.89    4.30
  -6   2   0  101.59    3.90
   5  -2   0   40.90    3.40
  -5   2   0   40.90    2.70
  -5   2   0   39.90    2.40
   4  -2   0  929.01   17.90
  -4   2   0  904.61   16.90
  -4   2   0  919.61   16.80
   3  -2   0 2067.59   35.60
   3  -2   0 2049.99   34.10
  -3   2   0 2003.20   34.10
  -3   2   0 2001.10   34.90
  -3   2   0 2066.29   34.90
   2  -2   0  743.73   12.80
   2  -2   0  765.02   13.20
   2  -2   0  740.13   13.60
   2  -2   0  735.33   13.20
  -2   2   0  742.33   13.60
  -2   2   0  729.43   12.80
  -2   2   0  735.73   13.10
  -2   2   0  736.83   13.20
   1  -2   0  474.45    8.20
   1  -2   0  449.86    8.30
   1  -2   0  475.65    8.40
   1  -2   0  452.45    8.50
   1  -2   0  464.25    8.30
  -1   2   0  478.75    8.50
  -1   2   0  465.35    8.30
  -1   2   0  454.55    8.40
  -1   2   0  456.75    8.20
   0  -2   0 2547.25   43.60
   0  -2   0 2659.93   43.50
   0  -2   0 2533.45   43.70
   0   2   0 2701.83   43.70
   0   2   0 2667.33   43.50
   0   2   0 2551.94   43.60
   0   2   0 2663.53   43.70
  -1  -2   0 3473.95   56.59
  -1  -2   0 3112.39   56.69
  -1  -2   0 3388.56   56.79
   1   2   0 3675.23   56.89
   1   2   0 3361.06   56.79
   1   2   0 3137.59   56.49
   1   2   0 3682.43   56.79
  -2  -2   0  154.58    3.70
  -2  -2   0  154.98    3.70
  -2  -2   0  157.98    3.20
   2   2   0  151.98    3.70
   2   2   0  163.48    3.20
   2   2   0  152.68    3.70
  -3  -2   0  233.38    5.30
  -3  -2   0  233.08    4.50
   3   2   0  230.78    5.50
   3   2   0  237.28    4.60
  -4  -2   0  183.28    3.70
  -4  -2   0  192.78    3.70
  -4  -2   0  166.78    6.60
   4   2   0  186.48    3.70
  -5  -2   0 2710.73   45.20
  -5  -2   0 2669.03   46.70
   5   2   0 2712.53   45.10
   5   2   0 2648.44   47.40
  -6  -2   0  142.69    5.10
  -6  -2   0  137.09    3.50
   6   2   0  137.49    5.60
  -7  -2   0   29.30    3.60
   7   2   0   29.80    3.90
  -8  -2   0   39.20    5.60
   8   2   0   37.80    4.90
  -9  -2   0   15.40    5.00
   9   2   0   10.10    3.10
   8  -3   0  116.19    5.40
   8  -3   0  105.19    7.10
  -8   3   0  111.09    5.80
  -8   3   0  118.89    5.10
   7  -3   0   25.80    4.70
  -7   3   0   27.90    3.10
  -7   3   0   33.30    3.70
   6  -3   0  358.16    9.90
  -6   3   0  359.46    8.60
  -6   3   0  350.26    8.70
   5  -3   0  192.68    6.30
  -5   3   0  195.68    5.40
  -5   3   0  201.38    5.60
   4  -3   0  304.87    6.00
   4  -3   0  297.67    7.70
   4  -3   0  307.57    6.90
  -4   3   0  321.57    6.00
  -4   3   0  308.37    6.90
  -4   3   0  307.47    7.00
   3  -3   0 1593.54   28.00
   3  -3   0 1606.64   28.60
   3  -3   0 1614.74   27.30
  -3   3   0 1608.94   27.30
  -3   3   0 1614.34   28.00
  -3   3   0 1591.94   27.90
   2  -3   0 1182.98   21.10
   2  -3   0 1216.58   21.50
   2  -3   0 1209.08   20.70
   2  -3   0 1217.18   21.00
  -2   3   0 1214.98   20.70
  -2   3   0 1199.18   21.00
   1  -3   0 1009.50   18.40
   1  -3   0 1036.80   18.30
   1  -3   0 1045.00   18.20
   1  -3   0 1074.99   18.10
  -1   3   0 1063.89   18.20
  -1   3   0 1086.69   18.40
  -1   3   0 1042.10   18.20
  -1   3   0 1038.80   18.30
   0  -3   0  158.98    3.40
   0  -3   0  183.58    3.80
   0  -3   0  157.08    3.50
   0   3   0  163.08    3.40
   0   3   0  159.48    3.60
   0   3   0  162.08    3.50
   0   3   0  157.68    3.70
  -1  -3   0 2684.13   45.20
  -1  -3   0 2661.53   45.70
  -1  -3   0 2735.63   45.60
  -1  -3   0 2772.32   45.90
   1   3   0 2733.13   45.70
   1   3   0 2708.73   45.60
   1   3   0 2646.14   45.20
   1   3   0 2824.32   45.90
  -2  -3   0  380.86    7.20
  -2  -3   0  383.66    7.60
  -2  -3   0  373.86    7.60
   2   3   0  390.76    7.30
   2   3   0  384.96    7.70
  -3  -3   0  396.66    8.20
  -3  -3   0  383.06    7.40
   3   3   0  398.66    7.50
   3   3   0  399.36    8.40
  -4  -3   0    5.20    1.60
   4   3   0    9.40    1.80
   4   3   0    5.20    1.30
  -5  -3   0   50.89    2.00
  -5  -3   0   53.39    3.10
   5   3   0   57.29    3.40
  -6  -3   0  593.84   13.00
   6   3   0  601.44   13.70
  -7  -3   0  113.89    5.30
   7   3   0  109.09    5.80
  -8  -3   0   49.00    4.70
   8   3   0   49.50    5.40
  -9  -3   0   95.59    6.60
   9   3   0   79.89    7.30
   8  -4   0   15.70    3.90
   8  -4   0   13.10    3.00
  -8   4   0   19.40    4.90
  -8   4   0   17.20    4.40
   7  -4   0    5.10    2.20
   7  -4   0   10.20    3.20
  -7   4   0   11.00    3.50
  -7   4   0    3.80    1.30
   6  -4   0   16.40    4.00
   6  -4   0   17.70    2.90
  -6   4   0   17.10    2.80
  -6   4   0   22.70    3.10
   5  -4   0 1059.99   21.10
   5  -4   0 1044.90   20.00
  -5   4   0 1053.99   20.00
  -5   4   0 1063.39   19.90
  -5   4   0 1041.10   18.40
   4  -4   0   39.80    3.20
   4  -4   0   40.70    2.40
  -4   4   0   46.10    2.60
  -4   4   0   44.30    2.50
  -4   4   0   41.00    1.80
   3  -4   0  455.15    9.30
   3  -4   0  457.35    9.90
  -3   4   0  457.85    9.20
  -3   4   0  467.55    8.80
   2  -4   0 1949.90   33.60
   2  -4   0 1937.11   33.90
  -2   4   0 1932.11   33.60
  -2   4   0 1966.40   33.20
   1  -4   0 1297.67   23.20
   1  -4   0 1312.57   23.30
  -1   4   0 1294.07   23.10
  -1   4   0 1337.67   23.10
  -1   4   0 1294.97   23.10
  -1   4   0 1447.46   24.20
   0  -4   0 1221.08   21.40
   0  -4   0 1195.08   21.20
   0  -4   0 1210.08   21.00
   0   4   0 1214.78   21.40
   0   4   0 1231.98   21.00
   0   4   0 1227.98   21.30
   0   4   0 1236.18   21.30
  -1  -4   0 3107.89   52.19
  -1  -4   0 3110.19   51.39
  -1  -4   0 3038.90   51.99
   1   4   0 3092.49   51.99
   1   4   0 3090.69   51.39
   1   4   0 3071.69   51.99
  -2  -4   0  513.95   10.10
  -2  -4   0  521.25   10.00
   2   4   0  512.15   10.10
   2   4   0  512.65    9.70
  -3  -4   0  108.49    3.50
   3   4   0  105.29    3.10
   3   4   0  107.39    3.60
  -4  -4   0  515.85   10.90
   4   4   0  509.55   11.10
   4   4   0  530.05    9.90
  -5  -4   0  143.09    4.90
   5   4   0  144.29    3.90
   5   4   0  145.69    5.30
  -6  -4   0   77.49    4.20
   6   4   0   79.49    4.70
  -7  -4   0  370.96    9.90
   7   4   0  370.36   10.70
  -8  -4   0   32.60    4.70
   8   4   0   29.00    5.20
   8  -5   0   -1.70    2.30
  -8   5   0   -1.00    1.40
  -8   5   0    2.20    2.20
   7  -5   0  117.69    5.30
  -7   5   0  119.19    5.60
  -7   5   0  112.19    5.10
   6  -5   0  358.36   10.30
   6  -5   0  353.86    9.00
  -6   5   0  364.16    9.10
  -6   5   0  354.96    9.00
   5  -5   0    9.90    2.50
   5  -5   0   13.10    3.60
  -5   5   0    3.20    0.80
  -5   5   0    5.90    1.40
   4  -5   0 1142.09   22.90
   4  -5   0 1187.68   22.70
  -4   5   0 1194.88   22.10
  -4   5   0 1222.68   21.10
   3  -5   0   18.30    1.90
  -3   5   0   15.10    1.50
  -3   5   0   13.80    1.80
   2  -5   0  636.84   12.60
   2  -5   0  647.34   12.40
  -2   5   0  643.74   12.40
  -2   5   0  645.74   12.10
   1  -5   0 2430.86   42.00
   1  -5   0 2436.76   41.90
  -1   5   0 2452.75   41.80
  -1   5   0 2462.05   41.80
   0  -5   0 1342.77   23.70
   0  -5   0 1306.37   23.50
   0   5   0 1356.76   23.60
   0   5   0 1350.76   23.20
  -1  -5   0   19.00    1.90
  -1  -5   0   19.60    1.20
  -1  -5   0   22.30    1.70
   1   5   0   22.80    1.30
   1   5   0   20.40    1.60
  -2  -5   0 1230.98   21.20
  -2  -5   0 1247.78   22.60
  -2  -5   0 1272.27   22.50
   2   5   0 1261.87   22.50
   2   5   0 1263.47   22.20
   2   5   0 1257.37   21.30
  -3  -5   0  162.98    4.70
   3   5   0  161.78    4.70
   3   5   0  160.38    4.20
  -4  -5   0  147.79    4.80
   4   5   0  150.08    5.00
   4   5   0  148.29    4.10
  -5  -5   0  272.07    7.50
   5   5   0  285.47    8.00
   5   5   0  313.07    6.70
  -6  -5   0  692.53   15.00
   6   5   0  689.03   15.40
  -7  -5   0  220.68    7.50
   7   5   0  232.48    8.20
  -8  -5   0   88.39    5.90
   8   5   0   91.49    6.80
   8  -6   0   62.59    5.00
   8  -6   0   67.09    7.20
  -8   6   0   66.29    5.20
   7  -6   0    2.30    2.30
   7  -6   0    3.10    1.50
  -7   6   0    1.30    1.40
   6  -6   0  206.28    6.70
   6  -6   0  206.08    7.80
  -6   6   0  215.88    6.80
   5  -6   0  916.81   18.40
   5  -6   0  936.11   19.50
  -5   6   0  953.90   18.70
   4  -6   0    9.20    2.90
   4  -6   0    3.10    1.20
  -4   6   0    2.50    1.10
   3  -6   0    4.60    1.80
   3  -6   0   11.20    2.70
  -3   6   0    5.70    1.80
   2  -6   0  972.80   18.30
   2  -6   0  963.90   18.10
  -2   6   0  964.60   18.00
   1  -6   0   24.50    2.20
   1  -6   0   26.00    2.20
  -1   6   0   18.70    2.10
  -1   6   0   22.60    1.90
   0  -6   0 4659.33   79.09
   0  -6   0 4721.73   79.29
   0   6   0 4606.44   79.89
   0   6   0 4806.32   78.79
  -1  -6   0  319.17    7.20
  -1  -6   0  311.37    7.00
   1   6   0  327.87    6.50
  -2  -6   0  145.99    3.30
  -2  -6   0  148.59    4.30
  -2  -6   0  141.29    4.60
   2   6   0  144.69    4.30
   2   6   0  163.58    3.40
  -3  -6   0 1790.92   31.80
  -3  -6   0 1815.62   31.70
   3   6   0 1653.63   31.70
   3   6   0 1829.52   31.80
  -4  -6   0  584.24   12.60
   4   6   0  604.44   12.80
   4   6   0  603.14   11.90
  -5  -6   0   36.50    3.30
   5   6   0   38.80    3.50
   5   6   0   34.10    2.90
  -6  -6   0  381.46   10.00
   6   6   0  380.16    8.60
   6   6   0  377.26   10.30
  -7  -6   0  188.48    7.00
  -8  -6   0   24.00    4.50
   8   6   0   14.40    5.30
   7  -7   0   61.69    4.70
   7  -7   0   71.39    6.30
  -7   7   0   74.49    5.20
   6  -7   0   31.60    3.80
   6  -7   0   27.20    4.60
   5  -7   0  284.27    8.70
   5  -7   0  284.67    7.90
  -5   7   0  291.07    8.00
  -5   7   0  277.17    6.80
   4  -7   0 1947.71   35.90
   4  -7   0 1964.20   35.30
  -4   7   0 1994.00   35.50
  -4   7   0 1929.01   34.40
   3  -7   0    1.00    1.00
   3  -7   0    1.90    1.30
  -3   7   0   -1.00    0.90
  -3   7   0   -0.20    0.70
   2  -7   0  107.99    4.10
   2  -7   0  106.79    4.20
  -2   7   0  101.49    3.60
  -2   7   0   99.39    3.80
   1  -7   0  945.41   17.60
   1  -7   0  897.31   17.20
  -1   7   0  914.61   17.10
  -1   7   0  906.71   17.20
   0  -7   0    2.60    0.90
   0  -7   0    2.20    1.00
   0   7   0    1.50    0.70
   0   7   0    0.70    0.80
  -1  -7   0 1025.90   19.00
  -1  -7   0 1031.30   19.30
   1   7   0 1054.89   18.50
   1   7   0 1012.40   19.10
  -2  -7   0  812.02   16.00
   2   7   0  839.62   14.70
   2   7   0  812.02   15.70
  -3  -7   0    1.90    1.00
  -3  -7   0    1.20    1.10
   3   7   0    2.10    0.90
   3   7   0    0.40    0.90
  -4  -7   0  349.37    9.00
   4   7   0  381.06    8.50
   4   7   0  383.36    9.30
  -5  -7   0  924.91   18.90
   5   7   0  926.71   17.80
   5   7   0  932.61   19.20
  -6  -7   0   86.99    4.70
   6   7   0   77.99    4.30
   6   7   0   84.79    5.10
  -7  -7   0   77.19    5.20
   7   7   0   79.99    5.70
  -8  -7   0   23.00    4.80
   8   7   0   23.20    5.90
   7  -8   0   26.90    6.30
   6  -8   0    7.00    1.80
  -6   8   0    5.90    1.70
   5  -8   0    4.30    2.00
   5  -8   0    0.50    1.40
  -5   8   0    3.50    1.30
  -5   8   0    1.30    1.00
   4  -8   0  374.56   10.00
   4  -8   0  368.16    9.30
  -4   8   0  377.46    8.70
  -4   8   0  365.16    9.40
   3  -8   0  766.92   15.90
   3  -8   0  788.52   16.20
  -3   8   0  789.02   15.90
  -3   8   0  773.92   15.30
   2  -8   0  228.78    6.50
   2  -8   0  230.88    6.60
  -2   8   0  225.68    6.30
  -2   8   0  221.38    6.10
   1  -8   0  398.86    9.20
   1  -8   0  398.46    9.00
  -1   8   0  378.66    8.80
  -1   8   0  395.06    8.80
   0  -8   0  627.54   13.00
   0  -8   0  607.44   13.70
   0   8   0  639.54   12.30
   0   8   0  610.04   12.70
  -1  -8   0  185.98    5.70
  -1  -8   0  186.18    5.40
   1   8   0  189.68    4.80
   1   8   0  185.58    5.50
  -2  -8   0   52.79    3.20
  -2  -8   0   48.40    3.30
   2   8   0   50.49    2.30
   2   8   0   52.99    3.10
   2   8   0   50.29    3.10
  -3  -8   0  152.08    5.10
  -3  -8   0  149.79    5.30
   3   8   0  153.88    5.00
   3   8   0  151.18    5.20
  -5  -8   0  396.16   10.30
   5   8   0  397.56    9.60
   5   8   0  405.16   10.50
  -6  -8   0   61.69    4.50
   6   8   0   54.29    4.70
   6   8   0   61.59    4.30
  -7  -8   0   50.19    5.10
   7   8   0   55.99    5.40
   6  -9   0    9.60    2.70
  -6   9   0    8.10    2.00
   5  -9   0   72.79    5.90
   5  -9   0   62.89    4.80
  -5   9   0   79.49    4.80
  -5   9   0   72.89    4.10
   4  -9   0   49.00    4.30
   4  -9   0   48.40    4.80
  -4   9   0   46.20    4.00
  -4   9   0   45.80    3.30
   3  -9   0  404.56   10.10
   3  -9   0  415.36   10.50
  -3   9   0  416.56    9.70
  -3   9   0  415.26   10.10
   2  -9   0   14.60    3.10
   2  -9   0   21.20    3.30
  -2   9   0   17.60    2.80
  -2   9   0   22.70    2.80
   1  -9   0   11.80    2.90
   1  -9   0   14.50    3.00
  -1   9   0   13.50    2.40
  -1   9   0    9.00    2.40
   0  -9   0  105.49    4.50
   0  -9   0  104.89    4.30
   0   9   0  103.19    3.90
   0   9   0  105.89    4.30
  -1  -9   0 1008.10   19.60
  -1  -9   0  994.80   19.20
   1   9   0  989.10   19.40
   1   9   0 1006.50   18.50
  -2  -9   0    8.10    2.80
   2   9   0   11.10    2.60
   2   9   0    6.20    1.40
   2   9   0    6.60    2.00
  -3  -9   0   25.30    3.20
  -3  -9   0   19.50    3.10
   3   9   0   22.60    3.00
   3   9   0   18.00    2.90
   3   9   0   20.00    2.10
  -4  -9   0   79.89    4.70
   4   9   0   81.09    4.50
   4   9   0   87.99    4.40
  -5  -9   0    4.40    1.60
   5   9   0    2.90    1.50
   5   9   0    4.50    1.70
  -6  -9   0  140.39    6.50
   6   9   0  140.39    6.20
  -7  -9   0   25.40    5.10
   7   9   0   39.60    5.60
  -6  10   0    9.90    2.40
   5 -10   0   72.39    6.50
  -5  10   0   71.89    4.30
  -5  10   0   54.29    5.00
   4 -10   0   75.89    5.70
   4 -10   0   72.69    5.00
  -4  10   0   81.69    4.80
  -4  10   0   77.69    4.40
   3 -10   0  133.39    6.20
   3 -10   0  131.89    5.80
  -3  10   0  141.39    5.30
  -3  10   0  142.59    5.70
   2 -10   0  234.08    7.40
   2 -10   0  240.68    7.50
  -2  10   0  237.58    7.10
  -2  10   0  246.08    7.20
   1 -10   0   45.60    3.80
   1 -10   0   38.60    3.70
  -1  10   0   30.40    3.10
  -1  10   0   32.40    3.40
   0 -10   0   12.90    3.00
   0 -10   0    9.30    3.00
   0  10   0    9.40    2.70
   0  10   0   11.10    2.60
  -1 -10   0  430.16   10.20
  -1 -10   0  442.46   10.60
   1  10   0  438.56   10.50
   1  10   0  436.66    9.60
  -2 -10   0  627.34   14.10
  -2 -10   0  637.44   13.80
   2  10   0  655.43   14.10
   2  10   0  670.93   14.10
  -3 -10   0    5.00    1.60
  -3 -10   0    3.40    1.50
   3  10   0    4.00    1.40
   3  10   0    2.10    1.30
  -4 -10   0  109.59    5.60
   4  10   0  114.49    5.20
   4  10   0  113.09    5.40
  -5 -10   0   73.19    5.10
   5  10   0   58.59    4.80
   5  10   0   74.29    4.80
  -6 -10   0    0.90    1.90
   6  10   0   -1.20    1.90
   6  10   0    1.50    2.00
   5 -11   0   38.70    6.70
  -5  11   0   34.90    4.30
   4 -11   0   90.79    6.60
   4 -11   0   83.79    5.60
  -4  11   0   75.79    5.50
   3 -11   0  221.58    8.10
   3 -11   0  198.78    7.40
  -3  11   0  206.58    7.10
  -3  11   0  210.68    7.40
   2 -11   0    3.90    1.80
   2 -11   0    3.70    1.90
  -2  11   0    4.40    1.50
  -2  11   0    1.00    1.30
   1 -11   0   27.80    4.00
   1 -11   0   35.60    4.00
  -1  11   0   29.40    3.60
  -1  11   0   31.90    3.70
   0 -11   0  306.57    8.50
   0 -11   0  301.57    8.50
   0  11   0  308.17    8.70
   0  11   0  304.77    8.00
  -1 -11   0   13.00    3.50
  -1 -11   0   19.30    3.70
   1  11   0   15.00    3.60
   1  11   0   17.00    3.00
  -2 -11   0  196.58    7.00
  -2 -11   0  206.88    6.90
   2  11   0  196.18    5.90
   2  11   0  205.28    7.00
   2  11   0  206.58    6.80
  -3 -11   0   51.39    4.20
  -3 -11   0   51.59    4.40
   3  11   0   47.00    4.10
   3  11   0   42.70    4.30
  -4 -11   0    7.20    2.10
   4  11   0    4.50    1.80
  -5 -11   0  126.49    6.50
   5  11   0  108.49    6.20
   5  11   0  103.39    6.80
   4 -12   0   22.90    7.00
  -4  12   0   15.00    4.60
   3 -12   0    4.10    2.00
   3 -12   0   16.40    5.70
  -3  12   0    6.70    2.00
  -3  12   0   15.10    4.20
   2 -12   0  215.58    7.90
   2 -12   0  233.18    8.20
  -2  12   0  226.18    7.90
  -2  12   0  237.38    7.80
   1 -12   0    4.20    1.90
  -1  12   0    3.40    1.60
  -1  12   0    2.70    1.60
   0 -12   0   70.89    5.00
   0 -12   0   63.99    4.70
   0  12   0   65.09    4.50
   0  12   0   64.19    5.00
  -1 -12   0   96.29    5.40
  -1 -12   0   92.59    5.20
   1  12   0  101.29    5.50
   1  12   0   86.89    4.70
  -2 -12   0  147.69    6.50
  -2 -12   0  149.79    6.40
   2  12   0  149.88    6.60
   2  12   0  148.29    6.00
  -3 -12   0  136.89    6.20
  -3 -12   0  132.49    6.60
   3  12   0  133.79    6.10
   3  12   0  136.89    6.50
  -4 -12   0   61.39    5.50
   4  12   0   69.29    8.10
   4  12   0   52.09    5.50
  -5 -12   0    4.10    2.30
   2 -13   0    4.60    2.20
   2 -13   0    2.50    2.40
  -2  13   0    4.90    1.90
  -2  13   0    1.40    1.70
   1 -13   0  171.78    7.00
   1 -13   0  182.58    7.90
  -1  13   0  184.68    7.10
  -1  13   0  183.28    7.60
   0 -13   0   70.59    6.40
   0 -13   0   73.59    6.00
   0  13   0   81.39    5.70
   0  13   0   75.29    5.30
  -1 -13   0   37.80    4.60
  -1 -13   0   34.50    5.20
   1  13   0   43.00    5.30
  -2 -13   0   71.49    5.40
  -2 -13   0   63.89    5.90
   2  13   0   65.09    4.70
   2  13   0   62.19    6.00
  -3 -13   0   15.30    4.90
   3  13   0    8.10    2.30
   3  13  -1   42.30    6.00
   3  13  -1   45.20    5.30
  -3 -13   1   46.70    5.50
  -3 -13   1   39.90    5.80
   2  13  -1    3.30    2.10
   2  13  -1    1.10    2.10
  -2 -13   1    3.20    2.00
   1  13  -1  111.49    6.60
  -1 -13   1  100.69    6.80
  -1 -13   1  101.49    6.40
   0  13  -1  117.99    6.10
   0  13  -1  115.39    6.80
   0 -13   1  127.39    7.00
   0 -13   1  121.79    5.90
  -1  13  -1   33.40    5.40
  -1  13  -1   38.80    4.90
   1 -13   1   53.09    6.90
  -2  13  -1    1.60    2.00
  -2  13  -1    0.50    1.90
   2 -13   1    1.50    2.60
   4  12  -1   38.80    5.10
   4  12  -1   33.10    5.50
  -4 -12   1   24.80    5.10
  -4 -12   1   30.00    4.80
   3  12  -1  106.59    6.00
   3  12  -1  116.99    5.80
  -3 -12   1  110.89    6.10
  -3 -12   1  105.49    6.00
   2  12  -1    7.90    2.00
   2  12  -1    8.50    1.90
  -2 -12   1    7.40    2.20
   1  12  -1   52.09    5.00
   1  12  -1   49.90    4.30
  -1 -12   1   51.19    5.00
  -1 -12   1   58.79    4.40
   0  12  -1  144.99    6.30
   0  12  -1  135.59    5.60
   0 -12   1  138.59    6.00
   0 -12   1  137.99    6.60
  -1  12  -1  306.07    8.80
  -1  12  -1  304.97    9.20
   1 -12   1  312.17    9.40
   1 -12   1  298.07    8.70
  -2  12  -1    2.60    1.60
   2 -12   1   -0.10    2.20
   2 -12   1    1.50    1.70
  -3  12  -1    6.50    2.00
   3 -12   1    8.20    3.50
   5  11  -1  112.79    6.70
   5  11  -1  121.79    6.50
  -5 -11   1  133.99    6.60
   4  11  -1   14.50    5.00
  -4 -11   1    7.70    2.10
  -4 -11   1   12.60    3.80
   3  11  -1    5.70    1.70
   3  11  -1    5.70    2.60
  -3 -11   1    5.90    2.00
  -3 -11   1    5.80    1.70
   2  11  -1   92.69    5.10
   2  11  -1   95.09    5.20
  -2 -11   1  100.69    5.00
  -2 -11   1   85.99    5.30
   1  11  -1  151.68    5.90
   1  11  -1  149.88    5.10
  -1 -11   1  150.28    5.80
  -1 -11   1  146.59    6.00
   0  11  -1   35.60    3.80
   0  11  -1   29.50    3.50
   0 -11   1   36.70    4.30
   0 -11   1   41.30    3.70
  -1  11  -1  172.28    6.40
  -1  11  -1  168.88    6.10
   1 -11   1  164.98    6.10
   1 -11   1  169.28    6.70
  -2  11  -1   56.19    4.20
  -2  11  -1   64.09    4.90
   2 -11   1   57.79    5.10
   2 -11   1   52.29    4.50
  -3  11  -1    0.50    1.40
   3 -11   1   -1.20    1.60
  -4  11  -1   73.39    5.50
  -4  11  -1   89.09    5.00
   4 -11   1   75.59    8.00
  -5  11  -1  114.69    6.70
   6  10  -1   51.09    5.60
   6  10  -1   62.49    5.50
  -6 -10   1   62.99    5.20
   5  10  -1    4.10    2.30
   5  10  -1    1.00    1.60
  -5 -10   1    2.80    1.80
   4  10  -1   58.59    4.40
   4  10  -1   71.69    4.70
  -4 -10   1   60.59    4.60
  -4 -10   1   69.49    4.50
   3  10  -1  198.48    6.70
   3  10  -1  206.98    7.00
  -3 -10   1  199.68    6.80
  -3 -10   1  203.78    6.90
   2  10  -1   17.50    3.20
  -2 -10   1   15.60    3.50
  -2 -10   1   24.40    3.40
   1  10  -1  414.06    9.20
   1  10  -1  419.66   10.20
  -1 -10   1  416.36   10.00
  -1 -10   1  421.76   10.20
   0  10  -1   34.70    3.30
   0  10  -1   31.50    3.00
   0 -10   1   36.60    3.80
   0 -10   1   38.90    3.40
  -1  10  -1   -0.40    1.10
  -1  10  -1   -1.00    1.10
   1 -10   1    2.20    1.30
   1 -10   1    1.10    1.50
  -2  10  -1  656.43   14.30
  -2  10  -1  677.63   14.40
   2 -10   1  678.13   15.00
   2 -10   1  647.84   14.20
  -3  10  -1   46.30    3.70
  -3  10  -1   42.00    3.90
   3 -10   1   45.70    4.80
  -4  10  -1    2.90    1.50
  -4  10  -1    1.10    1.20
   4 -10   1   -2.80    1.90
   4 -10   1    0.60    1.70
  -5  10  -1  164.98    7.00
  -5  10  -1  169.38    6.10
   5 -10   1  168.58    8.20
   7   9  -1    1.40    2.40
  -7  -9   1    3.10    2.00
   6   9  -1  223.68    7.50
   6   9  -1  220.88    8.30
  -6  -9   1  219.88    8.00
   5   9  -1  332.37    9.70
   5   9  -1  327.57    8.80
  -5  -9   1  317.97    9.90
   4   9  -1    3.90    1.30
   4   9  -1    4.10    1.50
  -4  -9   1    8.30    2.90
  -4  -9   1    3.60    1.50
   3   9  -1  159.28    5.80
   3   9  -1  156.38    5.60
  -3  -9   1  158.98    5.70
  -3  -9   1  154.58    5.70
   2   9  -1  987.20   19.10
   2   9  -1  963.40   17.60
  -2  -9   1  970.50   19.10
  -2  -9   1  964.80   19.10
   1   9  -1   74.49    3.30
   1   9  -1   77.59    3.90
  -1  -9   1   72.49    3.90
  -1  -9   1   84.09    4.10
   0   9  -1  551.84   11.50
   0   9  -1  565.24   12.10
   0  -9   1  548.65   11.90
   0  -9   1  564.34   12.20
  -1   9  -1  223.58    6.50
  -1   9  -1  229.18    6.30
   1  -9   1  228.38    6.80
   1  -9   1  223.78    6.50
  -2   9  -1   11.70    2.80
  -2   9  -1    8.10    1.50
   2  -9   1   12.70    2.90
  -3   9  -1  308.67    8.00
  -3   9  -1  309.77    8.30
   3  -9   1  300.87    8.10
   3  -9   1  302.47    8.90
  -4   9  -1  326.07    8.30
  -4   9  -1  324.97    8.90
   4  -9   1  337.07    9.90
   4  -9   1  319.17    8.60
  -5   9  -1    1.40    1.50
  -5   9  -1    0.30    1.20
   5  -9   1    2.50    2.10
  -6   9  -1  113.19    5.90
   6  -9   1  105.99    7.70
   7   8  -1   45.70    5.50
  -7  -8   1   49.10    4.90
   6   8  -1   15.30    3.90
   6   8  -1   12.30    3.80
  -6  -8   1    8.60    2.00
   5   8  -1  249.88    7.10
   5   8  -1  255.57    8.10
  -5  -8   1  250.27    7.80
   4   8  -1 1184.48   22.30
   4   8  -1 1198.48   23.30
  -4  -8   1 1177.28   23.00
  -4  -8   1 1176.68   23.00
   3   8  -1   27.20    2.90
   3   8  -1   29.00    2.80
  -3  -8   1   22.10    2.90
  -3  -8   1   23.00    2.80
   2   8  -1  187.78    5.60
   2   8  -1  192.08    4.60
  -2  -8   1  204.58    5.80
  -2  -8   1  183.98    5.70
   1   8  -1  822.62   16.40
   1   8  -1  862.31   15.60
  -1  -8   1  827.72   16.50
  -1  -8   1  844.22   16.40
   0   8  -1  403.16    9.20
   0   8  -1  410.06    8.80
   0  -8   1  406.16    9.10
   0  -8   1  408.46    9.40
  -1   8  -1  160.68    4.80
  -1   8  -1  158.68    5.00
   1  -8   1  154.98    5.30
   1  -8   1  155.98    5.10
  -2   8  -1  328.07    8.00
  -2   8  -1  326.07    8.10
   2  -8   1  328.97    8.00
   2  -8   1  333.97    8.60
  -3   8  -1    0.70    0.90
  -3   8  -1    0.30    1.20
   3  -8   1    1.30    1.30
   3  -8   1   -1.20    1.50
  -4   8  -1  407.56    9.30
  -4   8  -1  405.66   10.10
   4  -8   1  410.46   10.80
   4  -8   1  396.66    9.70
  -5   8  -1  159.88    7.20
  -5   8  -1  163.58    5.20
   5  -8   1  158.38    7.00
   5  -8   1  150.58    5.80
  -6   8  -1   -0.40    1.40
   6  -8   1    3.20    2.20
  -7   8  -1  242.08    8.70
   7  -8   1  230.98   10.10
   8   7  -1   97.99    7.40
  -8  -7   1   94.79    6.30
   7   7  -1    2.60    2.00
  -7  -7   1    1.10    1.70
   6   7  -1  193.98    6.10
   6   7  -1  192.18    7.40
  -6  -7   1  199.48    6.90
   5   7  -1   29.60    3.70
   5   7  -1   23.90    3.20
  -5  -7   1   32.40    3.50
   4   7  -1   44.70    3.50
   4   7  -1   48.40    3.10
  -4  -7   1   44.80    3.40
   3   7  -1  165.98    5.40
   3   7  -1  173.58    5.00
  -3  -7   1  168.58    5.40
  -3  -7   1  171.08    5.30
   2   7  -1   40.50    2.70
   2   7  -1   39.50    1.90
  -2  -7   1   42.80    2.80
  -2  -7   1   42.70    2.90
   1   7  -1  809.52   14.20
   1   7  -1  783.12   15.00
  -1  -7   1  760.92   16.00
  -1  -7   1  735.73   16.10
   0   7  -1 1464.05   26.70
   0   7  -1 1510.15   26.30
   0  -7   1 1479.95   26.60
  -1   7  -1   47.40    2.70
  -1   7  -1   51.59    2.70
   1  -7   1   52.49    2.80
   1  -7   1   52.49    3.10
  -2   7  -1    1.00    0.80
  -2   7  -1    0.80    0.80
   2  -7   1    1.50    0.90
   2  -7   1    2.00    1.10
  -3   7  -1  447.46    9.50
  -3   7  -1  437.46   10.00
   3  -7   1  437.56    9.90
   3  -7   1  444.86   10.60
  -4   7  -1    1.10    1.10
   4  -7   1    1.30    1.60
   4  -7   1    1.80    1.30
  -5   7  -1   79.29    3.60
  -5   7  -1   84.19    4.20
   5  -7   1   74.49    4.10
   5  -7   1   75.69    5.40
  -6   7  -1   68.39    4.60
   6  -7   1   63.49    4.30
   6  -7   1   74.79    5.60
  -7   7  -1    4.20    1.80
   7  -7   1    8.50    2.80
   8   6  -1  106.39    7.50
  -8  -6   1  110.39    6.40
   7   6  -1    3.70    2.00
  -7  -6   1    2.20    1.60
   6   6  -1   73.99    3.90
   6   6  -1   74.59    4.80
  -6  -6   1   79.59    4.50
   5   6  -1  458.85    9.70
   5   6  -1  456.75   11.20
  -5  -6   1  463.25   10.80
   4   6  -1  683.23   14.30
   4   6  -1  667.33   13.20
  -4  -6   1  676.33   14.00
   3   6  -1  443.96   10.00
   3   6  -1  444.56    9.30
  -3  -6   1  441.76    9.80
  -3  -6   1  451.65    9.90
   2   6  -1  124.49    2.90
   2   6  -1  119.69    3.90
  -2  -6   1  117.99    4.50
  -2  -6   1  116.09    4.40
  -2  -6   1  119.39    2.80
   1   6  -1   63.09    2.20
  -1  -6   1   65.49    2.90
  -1  -6   1   63.09    2.80
   0   6  -1 1874.01   32.10
   0   6  -1 1855.91   32.90
   0  -6   1 1859.51   32.40
   0  -6   1 1847.22   32.70
  -1   6  -1 2717.03   47.30
  -1   6  -1 2795.52   47.20
   1  -6   1 2692.13   47.40
   1  -6   1 2804.42   47.20
   2  -6   1    2.40    0.80
   2  -6   1    1.50    1.30
  -3   6  -1   27.90    2.10
  -3   6  -1   22.20    2.30
   3  -6   1   27.60    3.10
   3  -6   1   33.20    2.40
  -4   6  -1  839.32   16.70
  -4   6  -1  842.32   15.80
   4  -6   1  841.32   17.50
  -5   6  -1   35.40    2.60
  -5   6  -1   36.00    3.30
   5  -6   1   37.50    3.20
   5  -6   1   39.50    4.30
  -6   6  -1  167.58    6.10
   6  -6   1  158.88    7.20
   6  -6   1  163.98    5.70
  -7   6  -1   10.40    3.50
   7  -6   1    9.90    2.60
   7  -6   1   13.90    3.50
  -8   6  -1   26.60    4.60
   8   5  -1    2.90    2.30
   7   5  -1  334.37   11.00
   6   5  -1    7.30    2.40
  -6  -5   1    8.60    2.80
   5   5  -1  535.55   12.30
   5   5  -1  528.95   10.50
  -5  -5   1  521.95   11.80
   4   5  -1  845.92   16.80
   4   5  -1  832.52   15.40
  -4  -5   1  830.82   16.40
   3   5  -1  486.05   10.50
   3   5  -1  484.05    9.60
  -3  -5   1  498.15   10.70
  -3  -5   1  480.15   10.20
   2   5  -1  242.88    5.60
   2   5  -1  256.27    6.10
   2   5  -1  249.48    4.70
  -2  -5   1  243.38    5.80
  -2  -5   1  239.18    5.90
   1   5  -1  557.24   10.70
   1   5  -1  564.64   10.00
  -1  -5   1  550.04   10.00
  -1  -5   1  548.75   10.70
  -1  -5   1  539.15   10.80
   0   5  -1  213.98    4.70
   0   5  -1  207.98    5.00
   0  -5   1  209.48    5.10
   0  -5   1  213.48    5.00
  -1   5  -1  517.95   10.20
  -1   5  -1  521.45   10.20
   1  -5   1  536.65   10.20
   1  -5   1  527.15   10.60
  -2   5  -1  489.75    9.70
   2  -5   1  503.85   10.50
   2  -5   1  505.95    9.90
  -3   5  -1    0.40    0.60
  -3   5  -1    0.30    0.50
   3  -5   1   -0.10    1.10
   3  -5   1    0.20    0.60
  -4   5  -1  488.95   10.60
  -4   5  -1  505.65    9.80
   4  -5   1  494.55   10.20
   4  -5   1  483.05   11.40
  -5   5  -1 1391.66   25.30
  -5   5  -1 1403.66   25.90
  -5   5  -1 1390.76   24.40
   5  -5   1 1372.26   25.40
   5  -5   1 1359.66   26.80
  -6   5  -1   53.59    3.70
  -6   5  -1   55.69    3.80
   6  -5   1   49.99    3.50
   6  -5   1   60.29    5.10
  -7   5  -1    4.80    1.80
  -7   5  -1    2.20    1.40
   7  -5   1    2.80    2.20
   7  -5   1    3.10    1.50
  -8   5  -1  126.39    6.00
  -8   5  -1  141.79    6.80
   8  -5   1  138.79    8.30
   8  -5   1  117.99    5.70
   8   4  -1   25.80    5.40
  -8  -4   1   33.80    4.70
   7   4  -1   31.70    4.50
  -7  -4   1   35.50    3.90
   6   4  -1  281.27    8.40
  -6  -4   1  279.87    7.80
   5   4  -1    5.70    1.70
   5   4  -1    1.50    1.20
  -5  -4   1    2.40    1.00
   4   4  -1  701.53   14.50
   4   4  -1  726.73   13.10
  -4  -4   1  712.43   14.20
   3   4  -1 2076.29   36.30
   3   4  -1 2074.99   35.30
  -3  -4   1 2025.90   36.20
  -3  -4   1 2087.49   36.20
   2   4  -1   50.19    2.00
   2   4  -1   53.29    2.30
  -2  -4   1   51.19    2.30
  -2  -4   1   53.39    2.30
   1   4  -1  209.08    4.70
   1   4  -1  217.08    4.20
  -1  -4   1  207.08    4.70
  -1  -4   1  212.48    4.10
  -1  -4   1  205.78    4.80
   0   4  -1 2859.41   48.00
   0   4  -1 2835.92   47.80
   0   4  -1 2802.32   48.00
   0  -4   1 2871.11   47.80
   0  -4   1 2846.52   48.30
   0  -4   1 2855.11   48.00
  -1   4  -1 2407.26   40.30
  -1   4  -1 2393.26   40.50
  -1   4  -1 2381.66   40.50
   1  -4   1 2339.57   40.40
   1  -4   1 2389.86   40.90
  -2   4  -1  944.51   17.00
  -2   4  -1  930.11   16.60
   2  -4   1  952.00   17.50
   2  -4   1  913.81   16.50
   2  -4   1  934.01   16.70
  -3   4  -1   55.99    2.50
  -3   4  -1   56.79    2.10
   3  -4   1   57.39    3.60
   3  -4   1   60.99    2.30
  -4   4  -1   12.90    2.00
  -4   4  -1   12.10    1.30
  -4   4  -1   13.50    1.90
   4  -4   1   12.50    1.70
  -5   4  -1 1830.42   32.40
  -5   4  -1 1832.92   31.30
  -5   4  -1 1802.72   32.70
   5  -4   1 1812.42   32.50
   5  -4   1 1835.72   33.90
  -6   4  -1  773.52   15.60
  -6   4  -1  795.92   15.90
   6  -4   1  757.42   15.70
   6  -4   1  775.12   17.30
  -7   4  -1    1.20    1.60
  -7   4  -1    2.20    1.20
   7  -4   1    2.00    2.30
   7  -4   1    0.40    1.40
  -8   4  -1    0.50    1.50
  -8   4  -1    1.60    2.00
   8  -4   1    0.70    1.70
   8  -4   1   -1.00    2.30
   9   3  -1   52.29    6.70
  -9  -3   1   52.19    6.00
   8   3  -1  211.88    8.60
  -8  -3   1  211.58    7.80
   7   3  -1  227.28    7.90
  -7  -3   1  225.18    7.40
   6   3  -1  173.98    6.30
  -6  -3   1  164.38    5.60
   5   3  -1  918.61   15.90
   5   3  -1  891.11   18.20
  -5  -3   1  902.91   15.70
  -5  -3   1  907.61   17.60
   4   3  -1  283.97    5.60
   4   3  -1  277.07    7.00
  -4  -3   1  276.17    6.70
  -4  -3   1  263.07    5.40
   3   3  -1  372.36    7.20
   3   3  -1  378.36    8.20
  -3  -3   1  387.36    8.00
  -3  -3   1  374.56    7.20
   2   3  -1 5501.15   98.09
   2   3  -1 5976.10   98.89
  -2  -3   1 6280.87   98.19
  -2  -3   1 6122.99   98.69
  -2  -3   1 5675.13   98.69
   1   3  -1   62.59    1.50
   1   3  -1   61.39    1.90
   1   3  -1   59.59    2.10
  -1  -3   1   62.09    2.10
  -1  -3   1   61.99    1.90
  -1  -3   1   58.19    2.00
  -1  -3   1   62.19    1.50
   0   3  -1 1403.36   24.00
   0   3  -1 1435.66   24.40
   0   3  -1 1407.46   24.20
   0   3  -1 1436.76   24.20
   0  -3   1 1363.96   24.40
   0  -3   1 1407.76   24.20
   0  -3   1 1414.96   24.10
   0  -3   1 1438.66   24.00
  -1   3  -1 2415.86   40.60
  -1   3  -1 2416.16   41.20
  -1   3  -1 2440.76   40.90
  -1   3  -1 2474.55   40.90
   1  -3   1 2418.96   40.70
   1  -3   1 2363.36   41.20
   1  -3   1 2434.06   40.80
  -2   3  -1  842.92   14.80
  -2   3  -1  797.72   15.10
   2  -3   1  898.91   15.30
   2  -3   1  832.52   14.90
   2  -3   1  823.32   15.60
   2  -3   1  853.11   14.80
  -3   3  -1 1486.85   25.90
  -3   3  -1 1524.65   25.60
  -3   3  -1 1477.55   26.30
   3  -3   1 1484.95   26.00
   3  -3   1 1501.05   27.00
  -4   3  -1  197.08    4.90
  -4   3  -1  194.38    4.20
  -4   3  -1  193.58    5.10
   4  -3   1  190.68    4.80
   4  -3   1  193.18    5.90
  -5   3  -1  183.98    4.00
  -5   3  -1  177.98    5.20
  -5   3  -1  177.48    5.10
   5  -3   1  172.78    6.10
  -6   3  -1  233.78    6.50
  -6   3  -1  227.48    6.50
   6  -3   1  234.98    7.90
  -7   3  -1  388.86    9.70
  -7   3  -1  395.76    9.50
   7  -3   1  380.96   11.20
  -8   3  -1   43.40    3.80
  -8   3  -1   52.09    4.70
   8  -3   1   40.70    5.90
   8  -3   1   56.39    4.30
   9   2  -1  130.59    8.40
  -9  -2   1  135.99    7.40
   8   2  -1    1.40    2.10
  -8  -2   1    7.30    1.90
   7   2  -1   19.30    3.90
  -7  -2   1   15.80    3.30
   6   2  -1  710.73   15.50
  -6  -2   1  711.03   14.80
  -6  -2   1  699.63   12.70
   5   2  -1  434.96   10.30
   5   2  -1  432.86    8.10
  -5  -2   1  441.16    9.80
  -5  -2   1  462.55    8.20
   4   2  -1 2362.86   41.30
  -4  -2   1 2334.67   40.80
   3   2  -1  362.56    7.90
   3   2  -1  376.86    6.80
  -3  -2   1  367.16    6.70
  -3  -2   1  367.56    7.60
   2   2  -1    1.30    0.50
   2   2  -1    2.60    0.70
   1   2  -1 1799.32   30.80
   1   2  -1 1790.52   30.00
   1   2  -1 1852.31   30.60
   1   2  -1 1783.22   30.40
  -1  -2   1 1849.02   30.50
  -1  -2   1 1784.12   30.80
  -1  -2   1 1831.82   30.60
   0   2  -1 2716.23   45.40
   0   2  -1 2732.53   45.40
   0   2  -1 2842.72   45.70
   0   2  -1 2789.22   45.50
   0  -2   1 2671.73   45.40
   0  -2   1 2520.05   45.30
   0  -2   1 2686.03   45.70
   0  -2   1 2860.01   45.50
  -1   2  -1 1235.88   21.00
  -1   2  -1 1247.38   21.40
  -1   2  -1 1231.78   20.80
  -1   2  -1 1248.38   21.20
   1  -2   1 1276.77   21.00
   1  -2   1 1215.58   20.90
   1  -2   1 1201.88   21.40
   1  -2   1 1235.48   20.80
  -2   2  -1 6546.54  114.99
  -2   2  -1 6249.07  115.19
  -2   2  -1 6447.76  114.89
   2  -2   1 7595.34  115.99
   2  -2   1 7553.34  114.99
   2  -2   1 7279.27  114.99
  -3   2  -1 3146.59   52.79
  -3   2  -1 3114.39   52.29
  -3   2  -1 3099.69   52.99
   3  -2   1 3230.18   52.29
   3  -2   1 3069.29   53.59
  -4   2  -1  101.49    2.40
  -4   2  -1   97.49    3.10
  -4   2  -1   96.49    3.10
   4  -2   1   94.29    3.90
  -5   2  -1  681.73   13.30
  -5   2  -1  679.93   13.30
   5  -2   1  669.23   14.50
  -6   2  -1  257.57    6.90
  -6   2  -1  251.97    6.60
   6  -2   1  254.87    8.10
  -7   2  -1  242.78    7.40
  -7   2  -1  258.77    6.90
   7  -2   1  249.68    8.60
  -8   2  -1   44.50    3.60
  -8   2  -1   41.80    4.30
   8  -2   1   35.30    5.70
   9   1  -1   70.39    7.40
  -9  -1   1   83.39    6.20
   8   1  -1  161.88    7.60
  -8  -1   1  148.59    7.40
   7   1  -1   12.20    3.70
  -7  -1   1   17.30    3.30
  -7  -1   1   18.90    1.90
   6   1  -1  856.81   18.10
  -6  -1   1  867.01   17.20
  -6  -1   1  861.31   15.60
   5   1  -1 1499.25   28.10
  -5  -1   1 1536.45   26.10
  -5  -1   1 1503.35   27.40
   4   1  -1    0.70    0.50
  -4  -1   1    0.70    0.40
  -4  -1   1    1.80    0.80
   3   1  -1  659.13   11.30
   3   1  -1  649.43   12.60
  -3  -1   1  646.14   12.20
  -3  -1   1  659.63   11.30
   2   1  -1  846.62   14.20
   2   1  -1  841.92   15.00
   2   1  -1  867.51   14.30
   2   1  -1  840.62   14.90
  -2  -1   1  817.72   14.90
  -2  -1   1  842.22   14.20
  -2  -1   1  853.61   14.20
   1   1  -1  163.18    3.50
   1   1  -1  170.88    3.10
   1   1  -1  164.28    3.40
  -1  -1   1  166.38    3.10
   0   1  -1 2122.89   34.50
   0   1  -1 1978.90   34.40
   0   1  -1 2137.79   34.60
   0  -1   1 1950.40   34.40
   0  -1   1 2051.79   34.70
   0  -1   1 2227.38   34.50
  -1   1  -1 3096.59   52.19
  -1   1  -1 3265.17   52.69
  -1   1  -1 2824.32   52.09
  -1   1  -1 3275.67   52.39
   1  -1   1 3414.16   52.39
   1  -1   1 3155.88   52.59
   1  -1   1 2888.21   51.99
   1  -1   1 3265.87   52.19
  -2   1  -1  722.73   12.60
  -2   1  -1  739.73   12.80
  -2   1  -1  733.13   13.00
  -2   1  -1  724.83   13.40
   2  -1   1  739.23   13.50
   2  -1   1  735.43   13.00
   2  -1   1  742.63   12.80
  -3   1  -1 2024.20   34.70
  -3   1  -1 2021.60   34.00
  -3   1  -1 2015.50   34.60
   3  -1   1 2078.49   35.50
  -4   1  -1  226.28    5.30
  -4   1  -1  221.28    5.10
   4  -1   1  218.18    6.20
  -5   1  -1  257.07    6.40
   5  -1   1  257.07    7.30
  -6   1  -1  700.43   14.00
  -6   1  -1  715.13   14.50
   6  -1   1  733.03   16.00
  -7   1  -1   89.29    3.90
  -7   1  -1   94.29    4.60
   7  -1   1   89.19    5.50
  -8   1  -1   40.20    4.20
  -8   1  -1   35.60    3.30
   8  -1   1   44.30    5.70
  -9   1  -1   26.50    5.30
   9  -1   1   30.40    6.70
   9   0  -1    3.80    2.80
  -9   0   1    1.90    2.10
   8   0  -1  198.98    8.50
   7   0  -1   22.00    3.80
  -7   0   1   20.70    3.40
  -7   0   1   18.50    2.40
   6   0  -1   -0.60    1.20
  -6   0   1    0.70    1.10
  -6   0   1    0.40    0.60
   5   0  -1 1692.53   31.40
  -5   0   1 1720.43   30.80
  -5   0   1 1743.73   29.80
  -4   0   1  393.56    8.40
  -4   0   1  409.26    7.80
   3   0  -1   67.69    2.00
  -3   0   1   66.49    2.30
  -3   0   1   69.29    1.90
   2   0  -1 2473.65   40.80
  -2   0   1 2460.75   41.40
  -2   0   1 2415.96   40.90
   1   0  -1 2049.89   34.00
   1   0  -1 2007.10   34.00
   1   0  -1 2028.00   33.70
   1   0  -1 2098.49   34.00
  -1   0   1 2113.39   34.00
  -1   0   1 1898.31   33.70
  -1   0  -1 2899.81   48.30
  -1   0  -1 2646.84   48.20
  -1   0  -1 3170.48   48.60
   1   0   1 3002.00   48.30
   1   0   1 2838.42   48.20
  -2   0  -1    6.00    0.70
  -2   0  -1    6.60    1.00
  -2   0  -1    6.70    0.80
   2   0   1    7.70    0.90
   2   0   1    6.70    0.80
   2   0   1    5.40    1.00
  -3   0  -1  374.86    7.10
  -3   0  -1  361.16    7.20
   3   0   1  358.96    7.00
   3   0   1  375.76    7.80
  -4   0  -1 2011.90   33.70
  -4   0  -1 1925.31   34.10
  -5   0  -1  233.98    5.30
  -5   0  -1  227.58    5.80
   5   0   1  225.98    6.70
  -6   0  -1  103.59    3.40
  -6   0  -1   87.29    4.00
   6   0   1   87.09    4.80
  -7   0  -1  223.38    6.00
  -7   0  -1  233.38    7.10
   7   0   1  234.88    8.10
  -8   0  -1   57.99    4.60
  -8   0  -1   57.79    3.40
   8   0   1   56.49    5.80
  -9   0  -1   19.30    5.00
   9   0   1    8.60    3.20
   9  -1  -1   97.29    8.00
  -9   1   1   90.39    6.40
   8  -1  -1   75.29    6.20
  -8   1   1   80.49    5.70
  -8   1   1   67.89    3.70
   7  -1  -1  129.69    6.20
  -7   1   1  119.89    4.30
  -7   1   1  126.59    5.30
   6  -1  -1   -0.80    1.30
  -6   1   1   -1.00    1.00
  -6   1   1   -0.50    0.70
   5  -1  -1  180.68    5.80
  -5   1   1  178.68    5.30
  -5   1   1  185.78    4.60
  -4   1   1 2644.14   44.90
  -4   1   1 2577.54   44.40
   3  -1  -1 2100.39   37.50
  -3   1   1 2196.88   36.90
  -3   1   1 2223.78   37.30
   2  -1  -1 2066.39   34.40
   2  -1  -1 1998.80   34.50
   2  -1  -1 2049.79   34.80
  -2   1   1 2058.39   34.70
  -2   1   1 2060.19   34.60
  -2   1   1 2013.60   34.40
   1  -1  -1 3501.85   58.59
   1  -1  -1 3921.81   58.59
   1  -1  -1 3246.58   58.29
  -1   1   1 3130.69   58.29
  -1   1   1 3845.82   58.69
  -1  -1  -1  236.98    4.30
  -1  -1  -1  236.08    4.50
  -1  -1  -1  239.98    4.30
  -1  -1  -1  235.98    4.50
  -1  -1  -1  241.08    4.40
   1   1   1  233.88    4.30
   1   1   1  236.58    4.50
   1   1   1  234.18    4.50
   1   1   1  242.78    4.30
  -2  -1  -1  792.12   13.90
  -2  -1  -1  781.42   14.10
  -2  -1  -1  769.42   13.50
  -2  -1  -1  791.22   13.50
   2   1   1  782.52   14.10
   2   1   1  794.92   13.50
   2   1   1  807.22   13.90
  -3  -1  -1   83.69    1.90
  -3  -1  -1   79.99    2.10
  -3  -1  -1   79.69    2.50
   3   1   1   78.19    2.10
   3   1   1   77.99    2.80
  -4  -1  -1 1049.49   18.20
  -4  -1  -1 1058.09   18.90
   4   1   1 1011.70   20.50
  -5  -1  -1 1022.70   17.90
  -5  -1  -1 1010.40   18.80
   5   1   1  981.40   19.60
  -6  -1  -1  658.83   13.70
  -6  -1  -1  658.93   12.50
   6   1   1  661.33   14.70
  -7  -1  -1    7.60    2.10
  -8  -1  -1  213.48    7.40
   8   1   1  208.98    8.50
   9   1   1    1.40    2.80
   9  -2  -1  171.48    9.50
  -9   2   1  161.58    7.60
   8  -2  -1  326.87   10.90
  -8   2   1  313.47    8.30
  -8   2   1  319.17   10.40
   7  -2  -1   37.00    4.80
  -7   2   1   35.80    3.70
  -7   2   1   36.30    3.00
   6  -2  -1  336.47    9.30
  -6   2   1  333.57    8.40
  -6   2   1  333.77    7.80
   5  -2  -1   39.30    3.20
  -5   2   1   36.40    2.60
  -5   2   1   39.30    2.30
  -4   2   1  591.44   11.70
  -4   2   1  589.24   11.40
   3  -2  -1 1580.24   26.40
   3  -2  -1 1562.74   27.80
  -3   2   1 1596.94   27.30
  -3   2   1 1541.65   26.40
  -3   2   1 1593.94   27.50
   2  -2  -1  602.24   10.30
   2  -2  -1  580.74   10.90
   2  -2  -1  588.04   11.00
   2  -2  -1  602.84   11.10
  -2   2   1  608.04   11.10
  -2   2   1  613.74   10.90
  -2   2   1  592.04   10.40
  -2   2   1  597.84   11.00
   1  -2  -1    4.40    0.80
   1  -2  -1    5.50    0.80
  -1   2   1    5.10    0.60
  -1   2   1    4.20    0.70
   0  -2  -1 2688.03   41.80
   0  -2  -1 2577.94   41.70
   0  -2  -1 2305.37   41.40
   0   2   1 2362.16   41.40
   0   2   1 2653.03   42.00
   0   2   1 2425.36   41.70
  -1  -2  -1 5612.54   93.99
  -1  -2  -1 5486.05   94.49
  -1  -2  -1 6414.26   94.29
  -1  -2  -1 5966.70   94.29
   1   2   1 5315.67   93.99
   1   2   1 5349.86   94.19
   1   2   1 5732.43   94.29
   1   2   1 5669.93   94.19
  -2  -2  -1  338.57    6.80
  -2  -2  -1  343.57    6.10
  -2  -2  -1  344.47    6.40
  -2  -2  -1  352.26    6.10
  -2  -2  -1  341.07    6.80
   2   2   1  353.76    6.90
   2   2   1  345.87    6.40
  -3  -2  -1  119.39    2.70
  -3  -2  -1  114.29    3.30
  -3  -2  -1  118.09    2.50
  -3  -2  -1  115.29    2.60
   3   2   1  118.69    2.60
   3   2   1  116.79    3.50
  -4  -2  -1 1594.14   28.00
  -4  -2  -1 1552.14   26.70
  -4  -2  -1 1557.84   26.80
   4   2   1 1601.34   26.80
  -5  -2  -1 1128.69   19.60
  -5  -2  -1 1111.39   19.20
  -5  -2  -1 1134.39   21.00
   5   2   1 1112.39   21.60
  -6  -2  -1  545.45   11.90
  -6  -2  -1  560.04   10.40
   6   2   1  535.05   12.60
  -7  -2  -1   96.49    3.20
  -7  -2  -1  104.69    4.80
   7   2   1   95.19    5.40
  -8  -2  -1   15.80    4.90
   8   2   1    7.10    2.30
  -9  -2  -1  294.47    9.90
   9   2   1  296.57   11.20
   8  -3  -1  141.29    7.90
  -8   3   1  137.39    7.30
  -8   3   1  139.29    5.50
   7  -3  -1  520.15   13.50
  -7   3   1  512.65   12.20
  -7   3   1  527.85   11.60
   6  -3  -1   11.60    3.50
  -6   3   1   11.30    2.70
   5  -3  -1  364.96    9.30
  -5   3   1  373.36    8.30
  -5   3   1  372.36    8.50
   4  -3  -1 2523.35   41.30
   4  -3  -1 2522.35   43.40
   4  -3  -1 2395.06   43.70
  -4   3   1 2415.26   42.80
  -4   3   1 2434.66   41.30
  -4   3   1 2515.75   42.90
   3  -3  -1  217.88    5.50
   3  -3  -1  217.18    5.20
   3  -3  -1  219.08    4.40
  -3   3   1  223.38    5.20
  -3   3   1  222.78    5.20
  -3   3   1  220.98    4.40
   2  -3  -1 2572.14   44.70
   2  -3  -1 2667.03   44.00
   2  -3  -1 2592.64   44.60
  -2   3   1 2564.64   44.00
  -2   3   1 2569.44   44.50
  -2   3   1 2819.22   45.40
  -2   3   1 2606.34   44.50
   1  -3  -1  638.94   11.70
   1  -3  -1  615.94   11.50
   1  -3  -1  649.24   11.30
   1  -3  -1  642.74   11.40
  -1   3   1  639.64   11.50
  -1   3   1  620.44   11.50
  -1   3   1  628.94   11.30
  -1   3   1  657.43   11.40
   0  -3  -1   48.50    1.60
   0  -3  -1   52.59    1.50
   0   3   1   53.09    1.50
   0   3   1   53.09    1.90
   0   3   1   51.29    1.60
  -1  -3  -1 7413.36  129.99
  -1  -3  -1 8215.08  129.79
   1   3   1 7636.24  129.99
   1   3   1 8417.06  130.09
   1   3   1 7611.04  129.79
  -2  -3  -1 4393.06   74.19
  -2  -3  -1 4640.34   75.09
  -2  -3  -1 4644.54   75.19
  -2  -3  -1 4403.56   74.29
  -2  -3  -1 4594.84   74.69
   2   3   1 4481.25   75.09
   2   3   1 4641.74   74.99
   2   3   1 4228.78   74.19
   2   3   1 4349.26   74.79
  -3  -3  -1   24.40    1.40
  -3  -3  -1   24.60    1.00
  -3  -3  -1   23.70    1.80
   3   3   1   26.10    1.50
   3   3   1   23.80    1.80
  -4  -3  -1  328.27    6.10
  -4  -3  -1  339.07    6.10
  -4  -3  -1  332.87    7.50
   4   3   1  317.87    8.50
  -5  -3  -1  398.16    9.10
  -5  -3  -1  390.96    7.30
  -5  -3  -1  388.96    7.40
   5   3   1  390.56    9.40
   5   3   1  392.96    7.50
  -6  -3  -1    0.10    1.10
  -6  -3  -1    4.30    1.20
   6   3   1   -0.60    1.20
  -7  -3  -1  192.28    6.50
   7   3   1  188.28    7.20
  -8  -3  -1   77.19    5.30
   8   3   1   63.19    5.70
  -9  -3  -1   35.40    5.50
   9   3   1   34.20    6.70
   8  -4  -1   -2.00    2.40
   8  -4  -1   -1.70    1.80
  -8   4   1   -1.60    2.00
   7  -4  -1  153.28    6.10
   7  -4  -1  150.68    7.20
  -7   4   1  154.98    6.10
  -7   4   1  155.98    5.60
   6  -4  -1  848.02   18.30
   6  -4  -1  839.92   17.30
  -6   4   1  846.32   17.10
  -6   4   1  858.11   17.00
   5  -4  -1  167.98    5.20
   5  -4  -1  157.98    5.90
  -5   4   1  166.68    5.20
  -5   4   1  155.18    3.60
  -5   4   1  151.88    5.00
   4  -4  -1  730.43   14.70
   4  -4  -1  699.03   14.30
  -4   4   1  728.93   14.00
  -4   4   1  705.23   15.10
  -4   4   1  738.73   13.00
   3  -4  -1 1795.12   31.00
   3  -4  -1 1758.22   30.70
  -3   4   1 1777.52   30.60
  -3   4   1 1754.12   29.80
  -3   4   1 1644.94   31.30
   2  -4  -1 1055.49   19.10
   2  -4  -1 1087.29   19.20
  -2   4   1 1041.50   19.00
  -2   4   1 1060.39   18.60
   1  -4  -1  607.14   11.40
   1  -4  -1  593.94   11.00
  -1   4   1  604.24   11.00
  -1   4   1  604.24   11.00
  -1   4   1  585.34   11.10
   0  -4  -1  765.32   13.70
   0  -4  -1  780.12   13.80
   0  -4  -1  791.72   14.40
   0   4   1  762.12   14.00
   0   4   1  787.82   13.90
   0   4   1  791.32   13.80
  -1  -4  -1  192.48    3.90
  -1  -4  -1  192.58    4.20
  -1  -4  -1  190.48    4.70
   1   4   1  203.78    4.30
   1   4   1  194.28    4.40
   1   4   1  191.98    4.00
  -2  -4  -1 4160.18   68.19
  -2  -4  -1 4089.29   69.29
   2   4   1 4135.09   69.09
   2   4   1 4113.89   68.99
   2   4   1 4068.19   68.29
  -3  -4  -1  668.73   12.90
   3   4   1  663.63   12.90
   3   4   1  665.33   12.30
  -4  -4  -1    3.30    1.00
   4   4   1    3.90    0.70
   4   4   1    4.90    1.80
  -5  -4  -1  899.01   17.70
   5   4   1  913.21   18.10
  -6  -4  -1  757.42   15.80
   6   4   1  750.02   16.30
  -7  -4  -1   30.30    3.70
   7   4   1   29.00    4.20
  -8  -4  -1   71.59    5.30
   8   4   1   62.29    5.80
   8  -5  -1   68.09    5.20
   8  -5  -1   62.79    6.60
  -8   5   1   57.59    4.60
  -8   5   1   62.19    5.70
   7  -5  -1   56.09    5.50
   7  -5  -1   69.09    4.40
  -7   5   1   62.59    4.80
  -7   5   1   61.69    4.00
   6  -5  -1   70.39    4.10
   6  -5  -1   67.29    5.00
  -6   5   1   64.89    4.20
  -6   5   1   63.09    3.90
   5  -5  -1  653.33   14.40
   5  -5  -1  659.93   13.80
  -5   5   1  660.43   13.60
  -5   5   1  640.84   12.10
  -5   5   1  654.53   13.60
   4  -5  -1  127.49    4.90
   4  -5  -1  127.69    4.40
  -4   5   1  127.59    3.50
  -4   5   1  126.59    4.30
   3  -5  -1 1376.16   24.70
   3  -5  -1 1368.56   24.80
  -3   5   1 1357.96   23.80
  -3   5   1 1340.87   24.50
   2  -5  -1 1412.46   25.30
   2  -5  -1 1406.06   25.10
  -2   5   1 1437.46   25.10
  -2   5   1 1394.66   24.70
   1  -5  -1  110.39    3.10
   1  -5  -1  103.29    3.40
  -1   5   1   98.29    3.00
  -1   5   1  100.49    3.00
   0  -5  -1  115.19    3.60
   0  -5  -1  116.39    3.10
   0   5   1  112.69    3.20
   0   5   1  111.59    3.10
   0   5   1  132.99    3.20
  -1  -5  -1 4109.69   70.89
  -1  -5  -1 4183.08   70.59
  -1  -5  -1 4160.18   71.49
   1   5   1 4012.60   70.59
   1   5   1 4249.57   71.29
   1   5   1 4706.03   71.89
  -2  -5  -1    6.40    1.50
   2   5   1    8.50    1.40
   2   5   1   12.30    1.20
  -3  -5  -1  306.07    7.30
   3   5   1  312.37    6.80
   3   5   1  323.67    7.20
  -4  -5  -1   62.49    3.30
   4   5   1   56.69    3.20
   4   5   1   62.59    2.80
  -5  -5  -1  183.48    5.80
   5   5   1  177.08    5.90
   5   5   1  181.78    4.90
  -6  -5  -1  770.62   16.30
   6   5   1  758.72   16.60
  -7  -5  -1  280.67    8.50
   7   5   1  279.67    9.10
  -8  -5  -1   17.40    4.40
   8   5   1   18.70    5.00
   8  -6  -1   63.99    6.90
   8  -6  -1   62.09    5.40
  -8   6   1   45.40    4.70
   7  -6  -1  113.39    5.60
   7  -6  -1  101.99    6.80
  -7   6   1   99.59    5.20
   6  -6  -1    4.90    2.10
  -6   6   1    3.30    1.40
   5  -6  -1  553.04   12.40
   5  -6  -1  560.54   13.10
  -5   6   1  553.74   12.30
  -5   6   1  575.44   12.20
   4  -6  -1   67.39    4.10
   4  -6  -1   69.59    3.60
  -4   6   1   76.39    2.80
  -4   6   1   68.09    3.40
   3  -6  -1   12.60    3.20
   3  -6  -1    9.10    2.10
  -3   6   1    8.20    1.50
  -3   6   1    7.50    1.90
   2  -6  -1    2.60    0.90
   2  -6  -1    3.10    1.00
  -2   6   1    0.80    0.60
  -2   6   1    2.40    0.80
   1  -6  -1 2508.45   43.50
   1  -6  -1 2465.65   42.90
  -1   6   1 2526.45   43.00
  -1   6   1 2513.75   43.00
   0   6   1    4.50    1.50
   0   6   1    4.20    1.50
  -1  -6  -1   28.00    2.20
  -1  -6  -1   25.80    1.80
   1   6   1   26.10    1.90
   1   6   1   26.70    1.60
  -2  -6  -1  988.60   17.60
  -2  -6  -1 1006.50   19.00
  -2  -6  -1 1010.00   18.40
   2   6   1 1022.10   18.50
   2   6   1 1036.50   17.70
  -3  -6  -1   93.19    3.90
   3   6   1   96.79    3.70
   3   6   1   92.59    4.20
  -4  -6  -1  117.19    4.50
   4   6   1  120.79    4.40
   4   6   1  113.39    4.00
  -5  -6  -1   12.80    2.80
   5   6   1    9.70    2.80
   5   6   1   15.50    2.50
  -6  -6  -1    8.80    3.00
   6   6   1    9.30    3.30
  -7  -6  -1   88.59    5.30
   7   6   1   95.69    5.80
  -8  -6  -1   72.19    5.60
   8   6   1   75.69    6.70
   7  -7  -1   19.90    5.60
  -7   7   1   13.70    4.00
   6  -7  -1   34.10    4.00
  -6   7   1   30.80    4.10
   5  -7  -1  159.38    6.40
   5  -7  -1  153.58    5.80
  -5   7   1  156.98    5.70
  -5   7   1  149.09    4.60
   4  -7  -1  195.38    6.10
   4  -7  -1  204.78    6.60
  -4   7   1  194.38    6.10
  -4   7   1  186.88    5.30
   3  -7  -1  581.14   12.50
   3  -7  -1  588.84   12.60
  -3   7   1  582.94   11.70
  -3   7   1  595.74   12.40
   2  -7  -1   27.70    2.70
   2  -7  -1   31.40    2.80
  -2   7   1   25.50    2.20
  -2   7   1   28.00    2.30
   1  -7  -1  328.67    7.40
  -1   7   1  341.17    7.60
  -1   7   1  350.66    7.70
   0  -7  -1 1077.19   19.50
   0   7   1 1116.19   19.60
   0   7   1 1033.00   19.70
  -1  -7  -1   29.10    2.20
   1   7   1   29.40    1.90
   1   7   1   25.20    2.30
  -2  -7  -1  930.41   16.60
  -2  -7  -1  827.12   17.00
   2   7   1  936.71   16.70
   2   7   1  859.01   15.70
   2   7   1  836.72   16.60
  -3  -7  -1   45.10    1.60
  -3  -7  -1   46.90    3.10
   3   7   1   50.29    2.90
   3   7   1   48.30    1.90
   3   7   1   46.30    2.80
  -4  -7  -1   24.90    3.10
   4   7   1   24.40    2.70
   4   7   1   29.10    2.80
  -5  -7  -1  348.07    9.20
   5   7   1  343.97    9.10
   5   7   1  336.97    8.30
  -6  -7  -1  265.17    8.10
   6   7   1  256.77    7.10
   6   7   1  267.97    8.30
  -7  -7  -1    0.90    1.50
   7   7   1    3.00    2.20
  -8  -7  -1   84.89    6.10
   8   7   1   82.29    7.00
   7  -8  -1   17.30    5.90
  -7   8   1   12.10    4.20
   6  -8  -1   76.89    5.10
   6  -8  -1   78.29    6.00
  -6   8   1   80.89    4.90
   5  -8  -1  103.89    5.90
   5  -8  -1  104.69    5.10
  -5   8   1  106.19    4.10
  -5   8   1  105.59    4.80
   4  -8  -1  110.69    5.10
   4  -8  -1  103.39    5.30
  -4   8   1  102.89    4.10
  -4   8   1  103.19    4.70
   3  -8  -1  317.07    8.30
   3  -8  -1  318.37    8.40
  -3   8   1  302.97    7.50
  -3   8   1  314.17    8.00
   2  -8  -1  193.38    5.80
   2  -8  -1  185.78    6.00
  -2   8   1  188.18    5.60
  -2   8   1  188.18    5.30
   1  -8  -1    3.80    1.10
  -1   8   1    6.60    1.90
  -1   8   1    2.90    1.00
   0  -8  -1 1722.13   30.20
   0  -8  -1 1717.73   31.10
   0   8   1 1687.53   30.60
   0   8   1 1706.13   30.20
  -1  -8  -1  630.64   12.40
  -1  -8  -1  621.94   13.10
   1   8   1  619.24   12.80
   1   8   1  621.74   12.00
  -2  -8  -1  154.38    5.70
  -2  -8  -1  165.38    5.40
   2   8   1  160.88    4.20
   2   8   1  161.88    5.00
   2   8   1  162.88    5.10
  -3  -8  -1  265.17    7.40
  -3  -8  -1  261.27    6.90
   3   8   1  274.87    5.70
   3   8   1  264.57    7.00
   3   8   1  267.67    7.00
  -4  -8  -1  988.10   19.80
   4   8   1  976.50   19.00
   4   8   1  982.20   19.40
  -5  -8  -1   36.50    3.60
   5   8   1   33.00    3.70
   5   8   1   32.90    3.60
  -6  -8  -1   24.60    4.10
   6   8   1   26.50    4.00
   6   8   1   23.00    3.70
  -7  -8  -1  255.37    8.70
   7   8   1  242.58    9.00
   6  -9  -1    3.60    2.40
   5  -9  -1   55.49    4.70
   5  -9  -1   50.69    5.40
  -5   9   1   57.79    4.50
  -5   9   1   53.39    3.60
   4  -9  -1 1131.29   22.50
   4  -9  -1 1130.89   22.50
  -4   9   1 1100.79   21.30
  -4   9   1 1127.69   22.30
   3  -9  -1  249.28    7.40
   3  -9  -1  245.18    7.60
  -3   9   1  235.98    6.80
  -3   9   1  243.18    7.20
   2  -9  -1   64.09    3.80
   2  -9  -1   61.69    4.10
  -2   9   1   62.59    3.60
  -2   9   1   60.19    3.60
   1  -9  -1   57.39    3.40
   1  -9  -1   51.99    3.90
  -1   9   1   52.59    3.10
  -1   9   1   49.00    3.20
   0  -9  -1  327.47    7.80
   0  -9  -1  329.67    8.60
   0   9   1  339.07    8.30
   0   9   1  330.37    7.70
  -1  -9  -1  827.02   15.90
  -1  -9  -1  815.72   16.70
   1   9   1  809.32   16.30
   1   9   1  811.72   15.50
  -2  -9  -1  602.94   13.40
  -2  -9  -1  622.54   12.70
   2   9   1  612.04   12.70
   2   9   1  610.34   11.80
   2   9   1  600.74   13.00
  -3  -9  -1  116.89    4.80
  -3  -9  -1  124.49    5.10
   3   9   1  119.99    4.90
   3   9   1  124.39    4.70
   3   9   1  124.69    3.60
  -4  -9  -1  118.19    5.40
   4   9   1  119.19    5.10
   4   9   1  123.39    5.00
  -5  -9  -1  329.37    9.30
   5   9   1  326.77    8.80
   5   9   1  324.77    9.10
  -6  -9  -1   24.30    4.30
   6   9   1   29.80    4.40
   6   9   1   24.40    4.10
  -7  -9  -1   52.59    5.60
   7   9   1   44.00    5.60
   6 -10  -1   64.99    7.30
  -6  10   1   54.19    5.30
   5 -10  -1   14.60    5.30
   5 -10  -1    0.60    1.80
  -5  10   1    0.20    1.70
  -5  10   1    2.30    1.40
   4 -10  -1   26.10    4.40
   4 -10  -1   32.10    4.70
  -4  10   1   20.30    3.60
  -4  10   1   29.20    3.30
   3 -10  -1  842.32   18.00
   3 -10  -1  841.62   17.60
  -3  10   1  831.82   17.10
  -3  10   1  859.11   17.70
   2 -10  -1  163.58    5.90
   2 -10  -1  163.98    6.30
  -2  10   1  159.98    5.80
  -2  10   1  161.18    5.90
   1 -10  -1    4.10    1.40
   1 -10  -1    1.30    1.50
  -1  10   1    1.10    1.10
  -1  10   1    2.50    1.30
   0 -10  -1  250.57    7.60
   0 -10  -1  249.08    6.80
   0  10   1  247.28    7.10
   0  10   1  243.08    6.60
  -1 -10  -1  126.89    5.40
  -1 -10  -1  121.99    4.80
   1  10   1  116.79    4.40
   1  10   1  126.69    5.10
  -2 -10  -1   87.09    4.30
  -2 -10  -1   85.39    4.80
   2  10   1   88.99    4.70
   2  10   1   90.09    4.10
   2  10   1   85.79    3.90
  -3 -10  -1  257.17    7.40
  -3 -10  -1  259.67    7.90
   3  10   1  267.97    7.80
   3  10   1  267.17    7.50
  -4 -10  -1   10.70    3.60
   4  10   1    4.50    1.60
   4  10   1    5.50    1.50
  -5 -10  -1   82.99    5.20
   5  10   1   82.59    4.90
   5  10   1   80.79    5.20
  -6 -10  -1  117.79    6.50
   6  10   1  112.29    6.30
   6  10   1  118.19    6.20
   5 -11  -1   86.39    7.40
  -5  11   1   69.09    5.80
   4 -11  -1   27.80    4.70
   4 -11  -1   27.50    5.20
  -4  11   1   30.80    4.50
  -4  11   1   31.10    3.90
   3 -11  -1   55.09    5.10
   3 -11  -1   76.29    5.50
  -3  11   1   67.89    4.40
  -3  11   1   67.69    4.80
   2 -11  -1  193.88    7.20
   2 -11  -1  193.98    6.90
  -2  11   1  202.38    6.80
  -2  11   1  200.48    6.80
   1 -11  -1   82.79    5.00
   1 -11  -1   74.99    4.60
  -1  11   1   80.99    4.50
  -1  11   1   77.69    4.30
   0 -11  -1   62.39    4.50
   0 -11  -1   56.49    4.10
   0  11   1   53.29    4.00
   0  11   1   52.99    3.80
  -1 -11  -1  584.04   12.70
  -1 -11  -1  586.24   13.60
   1  11   1  593.64   13.40
   1  11   1  578.04   12.30
  -2 -11  -1   72.79    4.50
  -2 -11  -1   74.19    4.80
   2  11   1   76.79    4.10
   2  11   1   77.49    4.30
   2  11   1   74.09    4.90
  -3 -11  -1   21.30    3.90
  -3 -11  -1   17.10    3.70
   3  11   1   19.00    3.30
   3  11   1   17.90    3.80
  -4 -11  -1   17.80    4.40
   4  11   1   16.70    3.80
   4  11   1   17.90    4.30
  -5 -11  -1   27.80    4.50
   5  11   1   23.00    4.10
   5  11   1   19.60    4.60
  -6 -11  -1  100.29    6.70
   6  11   1   99.19    6.40
   6  11   1  103.39    6.70
   4 -12  -1    2.70    2.70
   4 -12  -1   23.20    7.20
  -4  12   1    3.60    2.00
   3 -12  -1   80.89    5.90
   3 -12  -1   85.79    6.50
  -3  12   1   93.89    5.40
  -3  12   1   96.59    5.70
   2 -12  -1   47.90    5.20
   2 -12  -1   48.70    5.10
  -2  12   1   52.69    4.50
  -2  12   1   49.10    4.80
   1 -12  -1  131.19    6.10
   1 -12  -1  136.99    6.50
  -1  12   1  139.99    6.30
  -1  12   1  133.19    5.80
   0 -12  -1   -1.10    1.60
   0 -12  -1    1.10    1.80
   0  12   1   -0.80    1.30
   0  12   1   -2.00    1.30
  -1 -12  -1    2.40    1.70
  -1 -12  -1    3.20    1.70
   1  12   1    1.10    1.40
   1  12   1    0.40    1.40
  -2 -12  -1  213.98    9.50
  -2 -12  -1  245.18    7.70
   2  12   1  255.97    8.30
   2  12   1  239.48    7.30
  -3 -12  -1   49.00    5.00
  -3 -12  -1   48.40    4.90
   3  12   1   46.10    4.30
   3  12   1   47.80    5.10
  -4 -12  -1   13.50    4.90
   4  12   1   12.70    4.00
  -5 -12  -1   34.70    5.20
   5  12   1   39.70    4.80
   5  12   1   27.20    5.40
   2 -13  -1   49.60   10.10
  -2  13   1   77.79    6.00
  -2  13   1   70.19    5.70
  -1  13   1    2.80    1.90
  -1  13   1    0.40    1.80
   0 -13  -1   61.89    6.90
   0  13   1   90.99    5.90
   0  13   1   78.89    5.20
  -1 -13  -1    1.00    3.60
   1  13   1    2.00    1.80
   1  13   1   -0.60    1.70
  -2 -13  -1   30.30    5.20
   2  13   1   35.30    5.50
  -3 -13  -1   78.39    6.10
   3  13   1   77.29    6.40
   2  13  -2    7.20    2.30
   2  13  -2    5.70    2.40
  -2 -13   2    9.70    2.70
  -2 -13   2   15.10    4.60
   1  13  -2   -0.40    1.90
  -1 -13   2    1.10    2.40
   0  13  -2  290.77    9.60
   0  13  -2  288.87    8.70
   0 -13   2  282.97    9.80
  -1  13  -2   47.00    5.40
  -1  13  -2   44.30    5.10
   1 -13   2   41.40    6.10
   4  12  -2  199.88    8.20
   4  12  -2  196.38    8.10
  -4 -12   2  194.38    8.50
  -4 -12   2  205.18    7.90
   3  12  -2    2.00    1.90
   3  12  -2   13.80    4.20
  -3 -12   2    4.50    1.90
  -3 -12   2   -0.60    2.20
   2  12  -2   74.19    5.40
   2  12  -2   75.99    6.20
  -2 -12   2   78.89    4.90
  -2 -12   2   68.99    5.60
   1  12  -2    3.00    1.70
   1  12  -2    5.20    1.70
  -1 -12   2    6.10    2.20
  -1 -12   2   10.10    3.60
   0  12  -2    2.90    1.60
   0  12  -2   15.00    4.50
   0 -12   2    4.60    2.30
  -1  12  -2  288.77    9.00
  -1  12  -2  276.87    8.40
   1 -12   2  269.47    8.70
   1 -12   2  269.37    9.10
  -2  12  -2   42.10    4.60
  -2  12  -2   51.19    5.10
  -3  12  -2    6.30    2.10
  -3  12  -2    8.20    2.10
   3 -12   2    4.70    2.90
   5  11  -2    5.70    2.40
  -5 -11   2    3.40    2.00
   4  11  -2  122.19    6.10
   4  11  -2  109.39    6.20
  -4 -11   2  113.79    5.90
  -4 -11   2  102.89    7.60
   3  11  -2  191.08    7.10
   3  11  -2  175.18    7.90
  -3 -11   2  181.08    6.60
  -3 -11   2  181.78    7.20
  -2 -11   2   34.80    4.40
  -2 -11   2   42.00    3.80
   1  11  -2  145.79    5.30
  -1 -11   2  152.78    5.70
  -1 -11   2  155.58    6.60
   0  11  -2  432.76   10.20
   0 -11   2  425.46   10.30
   0 -11   2  448.86   11.40
  -1  11  -2    0.50    1.30
   1 -11   2    1.30    1.80
  -2  11  -2   55.39    4.20
  -2  11  -2   49.90    4.70
   2 -11   2   66.69    4.30
   2 -11   2   53.79    5.20
  -3  11  -2   40.90    4.30
  -3  11  -2   34.50    4.20
   3 -11   2   40.50    5.70
  -4  11  -2   -0.30    1.50
  -4  11  -2    0.00    1.80
   6  10  -2   21.20    5.30
   6  10  -2   17.20    4.90
  -6 -10   2   13.80    4.50
   5  10  -2   76.99    5.70
   5  10  -2   77.69    5.10
  -5 -10   2   72.09    5.20
   4  10  -2   60.59    4.50
   4  10  -2   54.59    4.90
  -4 -10   2   52.59    4.90
  -4 -10   2   64.59    4.50
   3  10  -2   90.19    4.80
   3  10  -2   89.49    5.00
  -3 -10   2   85.59    5.10
  -3 -10   2   90.29    4.80
   2  10  -2  371.26    9.50
  -2 -10   2  361.76    9.30
  -2 -10   2  365.06    9.70
   1  10  -2   19.80    2.80
   1  10  -2   24.40    3.20
  -1 -10   2   23.40    3.60
  -1 -10   2   30.90    3.10
   0  10  -2   64.69    4.00
   0  10  -2   66.89    3.60
   0 -10   2   63.79    4.50
   0 -10   2   61.89    3.70
  -1  10  -2  690.33   14.40
  -1  10  -2  681.53   14.80
   1 -10   2  662.63   14.00
   1 -10   2  704.53   15.30
  -2  10  -2   18.80    3.50
  -2  10  -2   28.30    3.70
   2 -10   2   23.50    3.50
  -3  10  -2    3.40    1.30
  -3  10  -2    1.80    1.40
   3 -10   2   -0.20    1.60
   3 -10   2    5.30    2.10
  -4  10  -2    5.10    1.50
  -4  10  -2    3.90    1.70
   4 -10   2    3.40    2.50
  -5  10  -2    4.70    1.90
   5 -10   2   16.10    6.10
  -7  -9   2   56.19    5.60
   6   9  -2   37.90    5.10
   6   9  -2   38.00    4.80
  -6  -9   2   36.20    4.50
   5   9  -2   75.89    5.10
   5   9  -2   71.59    4.60
  -5  -9   2   50.79    7.40
   4   9  -2   82.99    4.60
   4   9  -2   76.69    4.90
  -4  -9   2   80.69    4.70
  -4  -9   2   81.99    5.10
   3   9  -2  118.29    5.10
   3   9  -2  123.49    5.40
  -3  -9   2  121.09    5.40
  -3  -9   2  125.69    5.10
   2   9  -2   37.30    3.50
   2   9  -2   33.60    2.50
  -2  -9   2   39.60    3.60
  -2  -9   2   35.70    3.30
   1   9  -2  251.27    7.00
   1   9  -2  250.17    6.20
  -1  -9   2  244.28    7.20
  -1  -9   2  251.67    6.80
   0   9  -2  122.69    4.30
   0   9  -2  124.39    4.80
   0  -9   2  124.69    4.50
   0  -9   2  127.09    5.20
  -1   9  -2  145.39    5.30
  -1   9  -2  146.79    5.00
   1  -9   2  143.59    4.80
   1  -9   2  147.59    5.70
  -2   9  -2  512.45   11.50
  -2   9  -2  513.65   11.60
   2  -9   2  505.85   11.10
   2  -9   2  521.65   12.20
  -3   9  -2   13.10    3.10
  -3   9  -2   19.00    3.00
   3  -9   2   14.10    4.00
   3  -9   2    9.90    3.10
  -4   9  -2   56.49    3.70
  -4   9  -2   50.19    4.70
   4  -9   2   56.19    5.00
  -5   9  -2   45.70    3.80
  -5   9  -2   45.10    4.50
   5  -9   2   60.69    6.40
  -6   9  -2   -0.20    1.70
   6  -9   2    4.50    3.00
   7   8  -2   25.10    5.30
  -7  -8   2   32.40    4.60
   6   8  -2   19.00    3.90
   6   8  -2   20.00    4.50
  -6  -8   2   13.50    3.80
   5   8  -2   81.29    4.40
   5   8  -2   76.39    5.20
  -5  -8   2   85.29    4.60
   4   8  -2  555.44   13.10
   4   8  -2  552.94   12.00
  -4  -8   2  552.34   12.50
  -4  -8   2  556.64   12.90
   3   8  -2  157.38    5.70
   3   8  -2  152.88    5.10
  -3  -8   2  151.78    5.60
  -3  -8   2  152.58    5.30
   2   8  -2   19.10    2.70
   2   8  -2   20.60    1.80
  -2  -8   2   23.00    2.90
  -2  -8   2   21.20    2.60
   1   8  -2  120.79    4.40
   1   8  -2  124.69    3.70
  -1  -8   2  122.09    4.70
  -1  -8   2  113.29    4.20
   0   8  -2  474.05   10.50
   0   8  -2  479.45    9.90
   0  -8   2  476.25   10.10
   0  -8   2  470.95   10.70
  -1   8  -2    1.00    0.90
  -1   8  -2    1.50    0.90
   1  -8   2    0.70    1.00
   1  -8   2    2.50    1.30
  -2   8  -2  406.36    9.40
  -2   8  -2  409.86    9.50
   2  -8   2  407.76   10.00
   2  -8   2  404.56    9.00
  -3   8  -2  572.94   12.20
  -3   8  -2  574.34   12.60
   3  -8   2  565.24   13.20
  -4   8  -2   15.00    2.70
  -4   8  -2   20.70    3.00
   4  -8   2   15.30    3.00
   4  -8   2   16.50    4.20
  -5   8  -2   21.90    4.20
  -5   8  -2   30.50    3.10
   5  -8   2   25.00    4.70
  -6   8  -2  344.57   10.10
   6  -8   2  358.86   11.50
   7   7  -2   14.90    4.90
  -7  -7   2   10.40    3.70
   6   7  -2   98.49    5.80
   6   7  -2   95.39    4.70
  -6  -7   2  100.69    5.50
   5   7  -2  674.13   13.70
   5   7  -2  694.83   15.60
  -5  -7   2  673.63   14.80
   4   7  -2   37.10    2.90
   4   7  -2   35.40    3.40
  -4  -7   2   38.40    3.60
  -4  -7   2   36.30    3.20
   3   7  -2   24.60    2.80
   3   7  -2   22.30    2.60
  -3  -7   2   21.60    2.80
  -3  -7   2   24.80    2.60
   2   7  -2  655.73   13.10
   2   7  -2  671.83   11.90
  -2  -7   2  647.04   13.10
  -2  -7   2  631.64   13.40
   1   7  -2  298.47    7.30
   1   7  -2  306.87    6.50
  -1  -7   2  305.17    7.60
   0   7  -2 1261.17   23.60
   0   7  -2 1307.47   23.40
   0  -7   2 1306.17   23.30
   0  -7   2 1307.27   24.10
  -1   7  -2  259.37    6.30
  -1   7  -2  262.27    6.50
   1  -7   2  265.57    6.20
   1  -7   2  264.47    7.00
  -2   7  -2  275.17    7.10
  -2   7  -2  281.37    7.00
   2  -7   2  290.17    7.70
   2  -7   2  301.07    6.80
  -3   7  -2  900.51   17.20
  -3   7  -2  889.61   17.60
   3  -7   2  895.31   18.30
   3  -7   2  896.61   17.00
  -4   7  -2  243.18    6.40
  -4   7  -2  238.78    7.00
   4  -7   2  240.18    7.90
  -5   7  -2    2.90    1.20
   5  -7   2    2.60    1.30
   5  -7   2    1.20    1.90
  -6   7  -2    4.60    1.50
   6  -7   2    6.50    3.10
  -7   7  -2  277.37    9.20
   7  -7   2  297.57   11.00
   8   6  -2   38.30    6.00
  -8  -6   2   49.70    5.50
   7   6  -2   69.09    5.60
  -7  -6   2   63.49    4.70
   6   6  -2    3.50    1.80
   6   6  -2    4.80    1.30
  -6  -6   2    4.20    1.50
   5   6  -2  105.49    4.00
   5   6  -2  106.09    5.00
  -5  -6   2  100.39    4.60
   4   6  -2 2139.39   37.70
   4   6  -2 2176.38   39.20
  -4  -6   2 2172.18   38.90
  -4  -6   2 2182.78   38.70
   3   6  -2   47.80    3.10
   3   6  -2   42.60    2.60
  -3  -6   2   41.40    2.70
  -3  -6   2   50.09    3.20
   2   6  -2   34.70    1.50
   2   6  -2   33.30    2.40
  -2  -6   2   35.20    2.70
  -2  -6   2   30.00    1.40
  -2  -6   2   31.80    2.80
   1   6  -2 1201.78   20.70
   1   6  -2 1153.48   21.40
  -1  -6   2 1181.68   21.20
   0   6  -2  702.13   13.70
   0   6  -2  728.93   13.40
   0  -6   2  724.23   13.40
   0  -6   2  712.73   14.30
  -1   6  -2 1231.38   21.90
   1  -6   2 1122.89   23.20
   1  -6   2 1264.57   21.50
  -2   6  -2  196.38    5.20
  -2   6  -2  180.18    4.90
   2  -6   2  192.08    4.80
   2  -6   2  182.28    5.70
  -3   6  -2  185.98    5.50
  -3   6  -2  190.98    5.10
   3  -6   2  196.08    6.30
   3  -6   2  200.48    5.20
  -4   6  -2   56.79    3.00
  -4   6  -2   58.09    3.40
   4  -6   2   61.99    3.00
   4  -6   2   60.09    4.50
  -5   6  -2  717.93   14.10
  -5   6  -2  740.53   15.30
   5  -6   2  727.33   16.40
   5  -6   2  706.33   14.50
  -6   6  -2   67.49    4.10
  -6   6  -2   67.49    4.10
   6  -6   2   56.39    3.70
   6  -6   2   63.69    5.40
  -7   6  -2  148.29    6.40
   7  -6   2  149.79    7.80
   8   5  -2  201.68    9.00
  -8  -5   2  207.68    8.10
   7   5  -2    1.10    2.20
  -7  -5   2    2.90    1.60
   6   5  -2  391.06   10.80
   6   5  -2  409.06    8.50
  -6  -5   2  393.76   10.00
   5   5  -2  103.19    4.80
   5   5  -2  102.89    3.50
  -5  -5   2  100.79    4.30
   4   5  -2  116.19    3.60
   4   5  -2  109.49    4.50
  -4  -5   2  110.69    4.10
   3   5  -2 1579.74   27.40
   3   5  -2 1523.35   28.40
  -3  -5   2 1542.15   27.90
  -3  -5   2 1589.84   28.30
   2   5  -2  732.33   13.80
   2   5  -2  749.23   12.80
  -2  -5   2  731.63   12.80
  -2  -5   2  745.93   14.00
  -2  -5   2  737.43   14.30
   1   5  -2  991.20   17.20
   1   5  -2  988.80   17.80
  -1  -5   2  979.50   17.10
  -1  -5   2  964.00   18.10
  -1  -5   2  985.10   17.70
   0   5  -2 3961.00   66.19
   0   5  -2 3966.70   66.59
   0  -5   2 3981.20   66.19
   0  -5   2 3866.51   66.89
  -1   5  -2  786.92   14.70
  -1   5  -2  807.12   14.90
  -1   5  -2  790.92   14.50
   1  -5   2  792.92   15.30
   1  -5   2  827.52   14.50
  -2   5  -2   76.49    2.80
  -2   5  -2   79.19    3.00
  -2   5  -2   74.29    2.90
   2  -5   2   79.69    2.90
   2  -5   2   79.49    2.70
  -3   5  -2  719.03   14.10
  -3   5  -2  704.63   13.70
   3  -5   2  737.93   13.50
   3  -5   2  711.13   14.80
  -4   5  -2    2.50    1.00
   4  -5   2    5.90    1.80
   4  -5   2    1.30    1.40
  -5   5  -2  442.86    9.90
  -5   5  -2  451.75   10.30
   5  -5   2  445.06    9.70
   5  -5   2  437.46   11.40
  -6   5  -2  245.38    7.30
  -6   5  -2  242.98    6.80
   6  -5   2  239.98    8.50
   6  -5   2  233.98    6.70
  -7   5  -2  117.09    8.00
  -7   5  -2  111.39    5.40
   7  -5   2  114.09    4.80
   7  -5   2  116.79    7.00
  -8   5  -2  100.29    5.70
   8  -5   2   90.19    7.80
   8   4  -2  255.07    9.60
  -8  -4   2  242.88    8.50
   7   4  -2  445.26   12.20
  -7  -4   2  436.46   11.20
   6   4  -2    5.80    1.60
   6   4  -2   10.80    2.00
  -6  -4   2    8.60    2.70
   5   4  -2  204.38    6.50
   5   4  -2  204.18    4.80
  -5  -4   2  199.98    6.00
   4   4  -2  728.83   13.30
   4   4  -2  723.23   14.90
  -4  -4   2  726.63   14.40
   3   4  -2   72.19    2.60
   3   4  -2   88.99    4.20
   2   4  -2  642.04   12.50
   2   4  -2  623.74   11.70
  -2  -4   2  625.64   12.20
  -2  -4   2  619.74   11.90
   1   4  -2   86.89    2.60
   1   4  -2   91.69    2.20
  -1  -4   2   88.39    3.00
  -1  -4   2   89.89    2.70
  -1  -4   2   91.39    2.20
   0   4  -2  156.08    3.70
   0   4  -2  151.98    3.50
   0   4  -2  152.18    3.80
   0  -4   2  154.08    3.50
   0  -4   2  153.58    4.10
  -1   4  -2 4438.26   73.09
  -1   4  -2 4443.96   73.59
  -1   4  -2 4385.86   73.49
   1  -4   2 4370.66   74.09
   1  -4   2 4291.77   73.09
  -2   4  -2 1031.20   18.80
  -2   4  -2 1048.00   18.60
   2  -4   2 1053.89   18.30
   2  -4   2 1053.19   18.10
   2  -4   2 1033.30   19.40
  -3   4  -2  143.69    3.70
   3  -4   2  140.39    4.80
   3  -4   2  143.89    3.70
  -4   4  -2  856.21   16.90
  -4   4  -2  895.31   16.30
  -4   4  -2  897.71   16.10
   4  -4   2  905.41   16.40
   4  -4   2  861.31   17.70
  -5   4  -2  878.51   17.10
  -5   4  -2  851.71   17.30
  -5   4  -2  888.61   15.80
   5  -4   2  852.21   18.10
  -6   4  -2  151.98    4.10
  -6   4  -2  156.58    5.30
  -6   4  -2  164.78    5.60
   6  -4   2  162.08    6.70
   6  -4   2  153.38    5.20
  -7   4  -2   40.20    3.60
  -7   4  -2   38.80    3.90
   7  -4   2   36.60    3.60
   7  -4   2   36.80    8.10
  -8   4  -2   10.30    3.60
  -8   4  -2    9.20    2.30
   8  -4   2   17.50    5.80
   8  -4   2   12.60    3.50
   8   3  -2   -2.10    2.20
  -8  -3   2    1.20    1.80
   7   3  -2   91.09    5.70
  -7  -3   2   95.19    4.90
   6   3  -2   64.99    4.30
  -6  -3   2   60.79    3.80
   5   3  -2  105.49    2.80
   5   3  -2  101.19    4.50
  -5  -3   2  105.49    2.70
  -5  -3   2   99.09    4.00
   4   3  -2 1019.40   17.80
   4   3  -2 1014.90   19.60
  -4  -3   2 1015.40   19.10
  -4  -3   2 1035.00   17.80
   3   3  -2 4828.62   82.29
   3   3  -2 4856.51   80.99
  -3  -3   2 4809.52   82.09
  -3  -3   2 4956.60   81.89
   2   3  -2   67.59    2.70
   2   3  -2   68.99    2.10
  -2  -3   2   68.09    2.60
  -2  -3   2   69.09    2.40
   1   3  -2   79.99    2.30
   1   3  -2   76.09    2.40
   1   3  -2   77.19    1.90
  -1  -3   2   76.99    2.20
  -1  -3   2   75.79    1.90
  -1  -3   2   78.39    2.60
   0   3  -2   18.90    1.30
   0   3  -2   17.60    1.10
   0  -3   2   20.70    1.10
   0  -3   2   17.10    1.10
   0  -3   2   15.90    1.50
  -1   3  -2  157.08    3.60
  -1   3  -2  155.68    3.20
  -1   3  -2  153.88    3.70
   1  -3   2  158.18    3.30
   1  -3   2  154.38    4.10
  -2   3  -2 3670.63   61.59
  -2   3  -2 3728.43   61.99
   2  -3   2 3753.62   61.19
   2  -3   2 3639.44   61.29
   2  -3   2 3591.44   62.39
  -3   3  -2  281.47    5.60
  -3   3  -2  264.77    6.00
  -3   3  -2  265.07    5.50
   3  -3   2  256.17    5.40
   3  -3   2  270.77    5.60
   3  -3   2  252.77    6.60
  -4   3  -2  160.88    4.60
  -4   3  -2  166.68    3.90
  -4   3  -2  166.38    4.30
   4  -3   2  156.48    5.40
   4  -3   2  164.68    4.20
  -5   3  -2  192.58    4.30
  -5   3  -2  182.38    5.40
  -5   3  -2  180.68    5.10
   5  -3   2  183.58    6.40
  -6   3  -2  262.47    6.90
  -6   3  -2  273.17    7.10
  -6   3  -2  250.37    5.50
   6  -3   2  266.77    8.50
  -7   3  -2   -1.00    1.10
  -7   3  -2    1.40    1.40
   7  -3   2   -0.60    1.70
  -8   3  -2   23.60    4.30
  -8   3  -2   23.50    3.50
   8  -3   2   21.80    5.30
   8  -3   2   28.10    3.60
   9   2  -2  220.58   10.20
  -9  -2   2  219.78    8.80
   8   2  -2    2.50    2.20
  -8  -2   2    2.80    1.90
   7   2  -2   36.10    4.40
  -7  -2   2   39.90    3.90
   6   2  -2  204.68    7.10
  -6  -2   2  213.38    6.40
  -6  -2   2  204.58    4.50
   5   2  -2  544.65   12.20
  -5  -2   2  543.55    9.80
  -5  -2   2  540.55   11.60
   4   2  -2 1366.16   24.90
   4   2  -2 1331.77   22.80
  -4  -2   2 1371.26   22.80
  -4  -2   2 1313.67   24.30
   3   2  -2 1189.48   22.00
   3   2  -2 1215.78   20.70
  -3  -2   2 1199.88   21.60
  -3  -2   2 1239.88   20.60
   2   2  -2 1282.47   21.70
   2   2  -2 1253.17   22.50
  -2  -2   2 1290.77   22.40
  -2  -2   2 1281.57   21.70
  -2  -2   2 1254.57   22.20
   1   2  -2  634.54   11.80
   1   2  -2  649.14   11.10
   1   2  -2  657.13   11.50
   1   2  -2  647.24   11.40
   1   2  -2  650.33   11.10
  -1  -2   2  651.23   11.50
  -1  -2   2  661.43   11.40
  -1  -2   2  661.13   11.10
  -1  -2   2  624.14   11.80
   0   2  -2  583.74   10.40
   0   2  -2  586.04   10.50
   0   2  -2  594.14   10.20
   0   2  -2  592.84   10.80
   0  -2   2  581.94   10.80
   0  -2   2  604.44   10.40
   0  -2   2  584.94   10.50
   0  -2   2  582.54   10.10
  -1   2  -2    4.10    0.80
  -1   2  -2    4.30    0.90
  -1   2  -2    4.90    1.30
  -2   2  -2  284.67    5.90
  -2   2  -2  292.47    5.70
  -2   2  -2  295.67    5.40
   2  -2   2  287.07    5.70
   2  -2   2  279.37    6.40
   2  -2   2  289.27    5.40
   2  -2   2  292.77    5.40
  -3   2  -2  888.01   15.70
  -3   2  -2  908.71   15.60
  -3   2  -2  875.41   16.20
   3  -2   2  884.41   15.60
   3  -2   2  881.11   16.90
  -4   2  -2   38.90    2.00
  -4   2  -2   37.20    1.60
  -4   2  -2   36.60    2.50
   4  -2   2   37.30    2.90
  -5   2  -2  186.08    5.20
  -5   2  -2  182.18    5.10
  -5   2  -2  193.38    4.10
   5  -2   2  183.18    6.20
  -6   2  -2 2000.80   35.50
  -6   2  -2 1973.70   35.40
   6  -2   2 2012.70   37.30
  -7   2  -2   96.19    4.70
  -7   2  -2   93.09    4.30
   7  -2   2   87.59    5.80
  -8   2  -2    0.00    1.60
  -8   2  -2   -0.70    1.20
   8  -2   2   -3.50    2.20
   9   1  -2   -2.90    2.70
  -9  -1   2   -0.50    2.00
   8   1  -2  177.48    8.10
  -8  -1   2  178.68    7.10
   7   1  -2  117.79    6.00
  -7  -1   2  116.59    5.40
  -7  -1   2  118.69    5.10
   6   1  -2    3.50    1.40
  -6  -1   2    5.20    1.40
  -6  -1   2    7.10    1.50
   5   1  -2  889.51   17.90
  -5  -1   2  916.01   15.90
  -5  -1   2  871.61   17.20
   4   1  -2  143.69    3.20
  -4  -1   2  133.79    4.10
  -4  -1   2  140.49    3.20
   3   1  -2   66.99    1.60
   3   1  -2   67.09    1.70
   3   1  -2   62.09    2.60
  -3  -1   2   66.39    1.70
  -3  -1   2   64.29    2.40
   2   1  -2 4733.93   80.29
   2   1  -2 5247.88   81.39
   2   1  -2 4502.85   80.39
  -2  -1   2 4967.60   80.39
  -2  -1   2 4666.43   80.39
  -2  -1   2 5036.20   81.29
   1   1  -2  130.09    3.00
   1   1  -2  127.29    2.80
   1   1  -2  125.59    2.50
   1   1  -2  127.99    2.70
   1   1  -2  133.79    2.60
  -1  -1   2  126.29    2.80
  -1  -1   2  130.59    2.50
  -1  -1   2  128.69    2.70
   0   1  -2  720.13   12.10
   0   1  -2  724.73   12.70
   0   1  -2  729.63   12.50
   0   1  -2  714.83   12.40
   0  -1   2  731.83   12.50
   0  -1   2  705.33   12.10
   0  -1   2  698.43   12.60
   0  -1   2  750.52   12.40
  -1   1  -2 6387.06   97.19
  -1   1  -2 5359.16   96.79
  -1   1  -2 6063.29   96.69
   1  -1   2 5553.14   97.09
  -2   1  -2 6759.72  110.79
  -2   1  -2 6055.49  110.29
  -2   1  -2 6491.85  110.49
   2  -1   2 7414.76  111.49
   2  -1   2 6655.03  110.39
  -3   1  -2  948.31   16.30
  -3   1  -2  931.91   16.50
  -3   1  -2  950.40   16.80
   3  -1   2  944.61   16.50
   3  -1   2  929.31   17.50
  -4   1  -2  183.48    4.60
  -4   1  -2  188.38    3.90
  -4   1  -2  183.18    4.50
   4  -1   2  180.08    5.40
  -5   1  -2    7.80    1.20
  -5   1  -2    9.70    1.70
   5  -1   2    7.80    2.60
  -6   1  -2  170.18    5.00
  -6   1  -2  163.58    5.30
   6  -1   2  168.68    6.50
  -7   1  -2 1006.20   19.80
  -7   1  -2 1003.60   19.30
   7  -1   2 1004.60   21.60
  -8   1  -2   55.69    4.40
  -8   1  -2   48.00    3.60
   8  -1   2   52.59    5.70
   9   0  -2  164.78    9.20
  -9   0   2  157.98    7.60
   8   0  -2   53.79    5.70
  -8   0   2   49.80    4.60
   7   0  -2  116.29    6.10
  -7   0   2  116.19    3.90
  -7   0   2  124.89    5.30
   6   0  -2  976.10   20.10
  -6   0   2  989.50   19.40
  -6   0   2  987.00   17.90
   5   0  -2    2.70    1.20
  -5   0   2    2.70    0.70
  -5   0   2    0.50    1.00
  -4   0   2 3259.37   52.39
  -4   0   2 2957.10   55.79
   3   0  -2  139.59    3.20
  -3   0   2  144.99    3.20
  -3   0   2  140.49    3.70
   2   0  -2   99.59    3.10
   2   0  -2   96.89    2.30
   2   0  -2   95.49    2.70
  -2   0   2  102.09    2.70
  -2   0   2   96.79    2.30
   1   0  -2 4431.86   73.29
   1   0  -2 4925.71   73.49
   1   0  -2 4219.28   73.49
   1   0  -2 4806.12   73.49
  -1   0   2 4158.38   73.19
  -1   0   2 3995.60   73.39
   0   0  -2 2811.12   45.20
   0   0  -2 2777.42   45.10
   0   0  -2 2561.94   45.00
   0   0  -2 2678.03   45.00
   0   0   2 3126.79   45.20
   0   0   2 2620.34   45.10
   0   0   2 2498.15   44.90
   0   0   2 2643.54   45.10
  -1   0  -2    7.00    0.90
  -1   0  -2    7.50    0.50
   1   0   2    6.70    0.70
   1   0   2    7.30    0.60
   1   0   2    7.00    0.90
  -2   0  -2  486.65    8.80
  -2   0  -2  472.25    9.20
  -2   0  -2  480.45    8.60
   2   0   2  477.55    8.80
   2   0   2  490.95    8.70
   2   0   2  483.15    9.30
  -3   0  -2 3142.49   52.59
  -3   0  -2 3120.59   52.59
   3   0   2 3127.19   53.49
  -4   0  -2    0.20    0.60
  -4   0  -2    1.30    0.50
   4   0   2    0.00    0.90
  -5   0  -2  626.44   12.60
  -5   0  -2  661.63   11.30
  -5   0  -2  652.53   12.30
  -5   0  -2  629.74   11.40
   5   0   2  629.34   13.70
  -6   0  -2  358.26    8.50
  -6   0  -2  353.66    7.90
   6   0   2  357.56    9.70
  -7   0  -2   14.80    3.30
  -7   0  -2   16.30    2.50
   7   0   2   13.10    3.90
  -8   0  -2  169.48    5.40
  -8   0  -2  175.48    6.70
   8   0   2  176.38    8.10
  -9   0  -2   54.69    5.60
   9   0   2   45.90    7.10
   9  -1  -2  134.09    9.00
  -9   1   2  113.99    6.80
   8  -1  -2  419.76   12.50
  -8   1   2  395.26   12.30
  -8   1   2  398.66   11.30
   7  -1  -2   27.00    4.30
  -7   1   2   23.00    2.50
  -7   1   2   32.90    3.50
   6  -1  -2   85.69    4.80
  -6   1   2   88.49    4.20
  -6   1   2   90.69    3.40
   5  -1  -2  566.84   12.50
  -5   1   2  577.84   12.10
  -5   1   2  587.44   11.20
   4  -1  -2  442.86   12.80
  -4   1   2  503.25    9.30
   3  -1  -2 2074.39   36.40
  -3   1   2 2113.69   36.30
  -3   1   2 2132.19   35.80
   2  -1  -2 2870.01   49.50
   2  -1  -2 2985.30   49.20
  -2   1   2 2988.40   49.50
  -2   1   2 2904.71   49.50
  -2   1   2 2953.90   49.20
   1  -1  -2    8.30    0.90
  -1   1   2    6.80    0.80
   0  -1  -2 1443.96   23.70
   0  -1  -2 1411.76   23.70
   0  -1  -2 1343.37   23.30
   0   1   2 1401.46   23.70
   0   1   2 1420.16   23.70
  -1  -1  -2 3451.75   53.99
  -1  -1  -2 3108.69   53.99
  -1  -1  -2 3157.38   53.89
  -1  -1  -2 3275.57   53.99
   1   1   2 3471.95   53.99
   1   1   2 3203.78   53.99
   1   1   2 2974.80   53.89
   1   1   2 3299.27   53.99
  -2  -1  -2   42.90    1.80
  -2  -1  -2   42.60    1.40
  -2  -1  -2   40.70    1.60
   2   1   2   42.80    1.40
   2   1   2   45.50    1.80
   2   1   2   41.90    1.70
  -3  -1  -2 2911.61   49.50
  -3  -1  -2 2909.51   49.10
  -3  -1  -2 2940.31   49.00
   3   1   2 2904.61   49.99
   3   1   2 2968.80   49.20
  -4  -1  -2 1226.38   20.90
  -4  -1  -2 1242.78   21.20
  -4  -1  -2 1235.28   21.70
   4   1   2 1141.19   25.40
  -5  -1  -2    0.30    0.80
  -5  -1  -2    1.30    0.50
  -5  -1  -2    0.60    0.50
   5   1   2   -0.10    1.10
  -6  -1  -2  206.48    5.90
   6   1   2  208.78    6.90
  -7  -1  -2  491.75   11.30
  -7  -1  -2  477.05   10.10
   7   1   2  491.65   12.60
  -8  -1  -2   53.69    4.60
   8   1   2   52.59    5.60
  -9  -1  -2   11.80    2.60
   9   1   2   21.60    6.30
   8  -2  -2   79.79    6.70
  -8   2   2   78.89    4.00
  -8   2   2   75.19    5.30
   7  -2  -2  536.75   13.50
  -7   2   2  539.75   12.60
  -7   2   2  522.25   11.50
   6  -2  -2    2.20    1.50
  -6   2   2    5.70    1.40
  -6   2   2    3.20    1.00
   5  -2  -2  715.83   15.10
  -5   2   2  748.43   14.00
  -5   2   2  708.43   14.50
  -4   2   2 3857.71   64.79
  -4   2   2 3813.92   68.09
   3  -2  -2   36.70    2.10
  -3   2   2   27.70    1.60
  -3   2   2   30.80    1.90
   2  -2  -2    2.70    1.00
   2  -2  -2    3.50    0.70
   2  -2  -2    4.40    1.00
  -2   2   2    3.60    1.10
  -2   2   2    3.40    0.90
  -2   2   2    3.20    0.70
   1  -2  -2  403.86    7.30
   1  -2  -2  392.36    7.70
   1  -2  -2  409.46    7.60
   1  -2  -2  414.56    7.30
   1  -2  -2  407.66    7.80
  -1   2   2  408.46    7.70
  -1   2   2  399.46    7.70
  -1   2   2  407.06    7.60
  -1   2   2  426.66    7.40
  -1   2   2  414.16    7.30
   0  -2  -2   28.30    1.30
   0  -2  -2   33.40    1.20
   0   2   2   31.80    1.20
  -1  -2  -2  989.10   16.60
  -1  -2  -2  944.61   16.20
  -1  -2  -2  936.31   16.70
  -1  -2  -2  953.90   16.40
   1   2   2  938.91   16.30
   1   2   2  960.30   16.40
   1   2   2  959.90   16.70
  -2  -2  -2 1598.74   27.70
  -2  -2  -2 1614.54   27.20
  -2  -2  -2 1583.14   27.70
  -2  -2  -2 1590.44   27.20
  -2  -2  -2 1652.63   27.50
   2   2   2 1572.84   27.70
   2   2   2 1681.43   27.90
  -3  -2  -2 1612.34   27.60
  -3  -2  -2 1637.84   27.70
  -3  -2  -2 1684.53   27.60
  -3  -2  -2 1614.54   28.20
   3   2   2 1638.34   27.60
   3   2   2 1564.14   28.50
  -4  -2  -2 2109.59   36.00
  -4  -2  -2 2039.10   35.10
  -4  -2  -2 2062.39   35.10
  -5  -2  -2  473.15    9.00
  -5  -2  -2  461.85    8.70
  -5  -2  -2  463.55   10.00
   5   2   2  458.75   10.60
  -6  -2  -2    2.20    0.60
  -6  -2  -2    1.60    1.10
   6   2   2    0.20    1.20
  -7  -2  -2   47.70    2.60
  -7  -2  -2   49.90    3.90
   7   2   2   35.50    4.30
  -8  -2  -2  233.58    7.70
   8   2   2  228.18    8.90
  -9  -2  -2    5.20    2.30
   9   2   2    2.80    2.90
   8  -3  -2   58.29    6.10
   8  -3  -2   59.69    5.00
  -8   3   2   55.59    3.80
  -8   3   2   55.69    5.00
   7  -3  -2   78.79    5.60
  -7   3   2   70.59    3.90
  -7   3   2   78.49    4.60
   6  -3  -2   -1.20    1.50
  -6   3   2    2.70    1.30
   5  -3  -2    9.20    2.70
  -5   3   2   11.20    2.30
  -5   3   2    8.00    1.90
   4  -3  -2  515.35   10.70
   4  -3  -2  494.65   11.90
  -4   3   2  523.15   10.70
  -4   3   2  510.55   11.10
   3  -3  -2 4279.57   69.29
   3  -3  -2 4233.78   70.59
   3  -3  -2 4127.89   70.49
  -3   3   2 4172.78   70.39
  -3   3   2 4030.70   69.29
  -3   3   2 4170.08   70.19
   2  -3  -2  480.55    9.40
   2  -3  -2  481.25    9.20
   2  -3  -2  473.15    8.70
  -2   3   2  476.15    9.20
  -2   3   2  466.85    9.30
  -2   3   2  473.05    9.00
  -2   3   2  483.15    8.70
   1  -3  -2  353.16    6.80
   1  -3  -2  361.96    7.30
   1  -3  -2  339.97    7.20
   1  -3  -2  367.16    6.70
  -1   3   2  351.26    6.90
  -1   3   2  364.86    6.80
  -1   3   2  369.06    6.60
   0  -3  -2  806.52   13.90
   0  -3  -2  837.42   14.50
   0  -3  -2  807.82   14.50
   0  -3  -2  832.82   14.90
   0   3   2  844.12   14.60
   0   3   2  836.52   14.80
   0   3   2  825.82   14.50
   0   3   2  816.12   13.90
  -1  -3  -2 1405.56   24.90
  -1  -3  -2 1470.75   24.40
  -1  -3  -2 1425.46   24.60
   1   3   2 1445.56   24.30
   1   3   2 1465.85   24.70
   1   3   2 1397.36   25.00
   1   3   2 1447.36   24.30
   1   3   2 1439.66   24.50
  -2  -3  -2 3855.81   64.19
  -2  -3  -2 3835.42   63.49
  -2  -3  -2 3932.51   63.49
  -2  -3  -2 3859.21   63.89
   2   3   2 3849.91   63.79
   2   3   2 3775.92   63.89
   2   3   2 3646.14   63.39
   2   3   2 3759.02   63.89
  -3  -3  -2  483.05    9.60
  -3  -3  -2  482.85    8.70
  -3  -3  -2  482.15    8.70
   3   3   2  476.45    9.60
  -4  -3  -2   19.90    1.20
  -4  -3  -2   18.20    2.10
  -4  -3  -2   16.40    1.30
  -5  -3  -2  636.94   13.20
  -5  -3  -2  653.23   11.80
   5   3   2  646.14   13.70
  -6  -3  -2  277.47    7.50
  -6  -3  -2  266.07    5.80
   6   3   2  286.07    8.20
  -7  -3  -2   79.59    4.40
   7   3   2   72.49    4.90
  -8  -3  -2   85.29    8.60
   8   3   2   89.99    6.20
  -9  -3  -2   59.29    5.80
   9   3   2   49.60    6.60
   8  -4  -2  109.59    7.60
   8  -4  -2   97.09    5.80
  -8   4   2  102.29    5.10
  -8   4   2  100.59    6.00
   7  -4  -2  334.87   10.30
   7  -4  -2  323.47    9.40
  -7   4   2  337.37    8.70
  -7   4   2  333.07    9.20
   6  -4  -2   78.79    5.00
   6  -4  -2   80.59    4.20
  -6   4   2   73.79    3.80
  -6   4   2   86.99    4.40
   5  -4  -2  142.39    5.00
   5  -4  -2  152.48    5.60
  -5   4   2  149.79    5.00
  -5   4   2  145.39    4.70
   4  -4  -2  165.98    5.00
   4  -4  -2  161.18    3.90
   4  -4  -2  166.78    5.30
  -4   4   2  169.98    3.80
  -4   4   2  167.18    4.80
  -4   4   2  166.58    5.00
   3  -4  -2 2024.20   35.00
   3  -4  -2 2022.40   34.90
  -3   4   2 1932.91   35.90
  -3   4   2 1974.40   33.90
  -3   4   2 2014.00   34.90
   2  -4  -2 1290.87   23.20
   2  -4  -2 1296.47   22.90
  -2   4   2 1284.17   22.50
  -2   4   2 1328.07   23.00
   1  -4  -2  261.57    5.30
   1  -4  -2  262.87    6.00
  -1   4   2  271.87    5.30
  -1   4   2  262.07    5.50
  -1   4   2  268.97    5.70
   0  -4  -2  530.75   10.40
   0  -4  -2  532.65    9.40
   0   4   2  536.85   10.00
   0   4   2  522.55    9.80
   0   4   2  535.35    9.40
  -1  -4  -2 2254.57   38.10
  -1  -4  -2 2262.87   38.90
  -1  -4  -2 2266.27   38.00
   1   4   2 2285.37   38.20
   1   4   2 2238.48   38.50
   1   4   2 2256.07   38.00
   1   4   2 2277.67   38.00
  -2  -4  -2  545.95   10.10
  -2  -4  -2  523.55   10.30
  -2  -4  -2  513.75    9.40
   2   4   2  524.55   10.00
   2   4   2  514.85    9.80
   2   4   2  508.55    9.40
   2   4   2  506.45    9.80
  -3  -4  -2   57.89    2.70
  -3  -4  -2   57.29    1.80
  -3  -4  -2   59.69    1.70
   3   4   2   59.69    2.60
   3   4   2   56.99    2.30
  -4  -4  -2   41.90    1.60
  -4  -4  -2   50.19    2.80
  -4  -4  -2   45.10    1.50
   4   4   2   40.50    2.70
  -5  -4  -2  176.78    4.00
  -5  -4  -2  176.38    3.80
  -5  -4  -2  175.38    5.50
   5   4   2  173.38    5.70
  -6  -4  -2  319.07    8.50
   6   4   2  327.87    9.10
  -7  -4  -2  172.58    6.30
   7   4   2  179.18    7.20
  -8  -4  -2   36.40    4.40
   8  -5  -2  184.58    8.90
   8  -5  -2  204.08    7.80
  -8   5   2  193.38    8.00
  -8   5   2  191.48    6.80
   7  -5  -2  266.87    9.50
   7  -5  -2  274.67    8.50
  -7   5   2  285.87    8.10
  -7   5   2  281.97    8.60
   6  -5  -2  229.08    7.20
   6  -5  -2  227.28    8.00
  -6   5   2  234.28    7.20
  -6   5   2  237.58    6.90
   5  -5  -2   91.39    4.70
   5  -5  -2   97.29    4.30
  -5   5   2   91.89    4.20
  -5   5   2   92.89    4.00
  -5   5   2   89.79    2.90
   4  -5  -2  439.36   10.00
   4  -5  -2  449.95   10.20
  -4   5   2  443.66    9.70
  -4   5   2  448.16    8.70
  -4   5   2  443.96    9.80
   3  -5  -2  125.99    4.40
  -3   5   2  134.99    4.10
  -3   5   2  122.49    3.40
   2  -5  -2  947.21   17.30
   2  -5  -2  937.91   17.80
  -2   5   2  933.91   17.10
  -2   5   2  986.80   17.60
   1  -5  -2   57.19    2.70
   1  -5  -2   60.29    2.20
  -1   5   2   63.59    2.40
  -1   5   2   64.09    2.20
  -1   5   2   59.09    2.20
   0  -5  -2   19.60    1.20
   0  -5  -2   18.00    1.90
   0   5   2   13.50    1.40
   0   5   2   15.10    1.20
   0   5   2   17.70    1.40
  -1  -5  -2 2846.12   50.09
  -1  -5  -2 2928.31   49.20
   1   5   2 3000.40   49.30
   1   5   2 2946.71   49.20
   1   5   2 2914.61   49.70
   1   5   2 2924.71   49.30
  -2  -5  -2 4488.15   74.49
  -2  -5  -2 4350.86   73.19
   2   5   2 4344.47   73.29
   2   5   2 4389.06   73.79
   2   5   2 4409.96   73.99
  -3  -5  -2   47.60    2.80
  -3  -5  -2   46.20    1.70
  -3  -5  -2   55.29    1.70
   3   5   2   54.39    2.50
   3   5   2   50.99    2.50
   3   5   2   52.29    1.80
  -4  -5  -2   30.20    2.70
   4   5   2   32.80    2.30
   4   5   2   31.60    2.60
  -5  -5  -2  454.95   10.40
   5   5   2  450.35   10.50
  -6  -5  -2   55.09    3.90
   6   5   2   51.29    4.10
  -7  -5  -2  458.45   11.60
   7   5   2  467.75   12.20
  -8  -5  -2  116.09    6.00
   8   5   2  109.39    7.00
   8  -6  -2    1.20    2.90
   8  -6  -2   18.40    4.90
  -8   6   2    5.70    2.50
  -8   6   2    7.20    1.80
  -7   6   2   17.60    3.60
  -7   6   2   25.20    4.40
   6  -6  -2 1090.19   22.70
   6  -6  -2 1106.29   22.10
  -6   6   2 1104.79   21.80
   5  -6  -2   20.80    3.10
   5  -6  -2   16.60    3.50
  -5   6   2    9.20    2.80
  -5   6   2   15.30    1.90
   4  -6  -2  496.05   11.30
   4  -6  -2  507.95   11.40
  -4   6   2  515.45   10.10
  -4   6   2  516.75   11.10
   3  -6  -2  711.63   14.20
   3  -6  -2  705.73   14.50
  -3   6   2  723.63   13.50
  -3   6   2  709.93   14.20
   2  -6  -2  844.32   15.80
  -2   6   2  851.01   16.10
  -2   6   2  842.22   15.70
   1  -6  -2  900.91   17.50
   1  -6  -2  915.11   16.50
  -1   6   2  931.81   16.90
  -1   6   2  907.11   16.80
   0  -6  -2  713.63   14.10
   0  -6  -2  724.23   13.00
   0   6   2  694.93   13.00
   0   6   2  719.93   13.40
   0   6   2  725.93   13.60
  -1  -6  -2    9.60    2.00
  -1  -6  -2    8.50    1.30
   1   6   2    8.30    1.30
   1   6   2    6.80    1.70
  -2  -6  -2 1109.69   19.90
  -2  -6  -2 1105.59   20.70
   2   6   2 1106.19   19.90
   2   6   2 1128.49   19.60
  -3  -6  -2 4094.39   70.59
  -3  -6  -2 4117.19   68.79
   3   6   2 4183.08   70.09
   3   6   2 4171.68   70.09
   3   6   2 4091.69   68.89
  -4  -6  -2   17.40    2.60
   4   6   2   17.10    2.30
  -5  -6  -2  207.18    6.50
   5   6   2  212.18    5.80
   5   6   2  217.38    6.50
  -6  -6  -2  515.05   12.20
   6   6   2  510.15   12.40
  -7  -6  -2   96.79    7.00
   7   6   2  108.89    5.90
  -8  -6  -2   41.90    5.00
   8   6   2   32.70    5.70
   7  -7  -2   -0.40    2.30
  -7   7   2   -1.10    1.60
   6  -7  -2    7.80    2.20
   6  -7  -2    9.20    3.60
  -6   7   2   10.20    3.30
   5  -7  -2  305.57    8.90
   5  -7  -2  302.37    8.60
  -5   7   2  302.17    7.10
  -5   7   2  309.27    8.40
   4  -7  -2  149.49    5.50
   4  -7  -2  151.08    5.70
  -4   7   2  147.79    5.30
  -4   7   2  148.29    4.50
   3  -7  -2  343.97    8.60
   3  -7  -2  341.17    8.30
  -3   7   2  330.27    7.60
  -3   7   2  344.77    8.30
   2  -7  -2 1558.94   28.30
   2  -7  -2 1550.24   27.40
  -2   7   2 1509.75   27.40
  -2   7   2 1525.45   27.70
   1  -7  -2 1563.54   27.70
   1  -7  -2 1616.64   29.10
  -1   7   2 1563.84   28.20
  -1   7   2 1611.34   28.30
   0  -7  -2   72.69    2.60
   0  -7  -2   69.69    3.60
   0   7   2   66.89    3.00
   0   7   2   71.19    2.80
  -1  -7  -2  919.81   16.60
  -1  -7  -2  927.51   17.90
   1   7   2  918.21   17.30
   1   7   2  906.01   16.70
  -2  -7  -2  547.55   11.90
  -2  -7  -2  555.94   10.90
   2   7   2  547.05   11.40
   2   7   2  574.04   11.10
   2   7   2  562.84   10.60
  -3  -7  -2  330.97    6.80
  -3  -7  -2  309.97    8.00
   3   7   2  329.77    6.50
   3   7   2  313.67    7.60
  -4  -7  -2  179.08    6.10
   4   7   2  194.38    5.60
   4   7   2  191.38    5.80
  -5  -7  -2  165.28    6.00
   5   7   2  160.38    5.40
   5   7   2  171.78    5.90
  -6  -7  -2  155.58    6.20
   6   7   2  146.79    6.20
  -7  -7  -2  276.77    9.00
  -8  -7  -2   16.20    4.90
   8   7   2   28.00    5.50
   7  -8  -2  153.68    8.10
   7  -8  -2  147.69    7.10
  -7   8   2  142.09    6.70
   6  -8  -2   93.09    5.50
   6  -8  -2   88.89    6.30
  -6   8   2   91.39    5.20
   5  -8  -2   32.80    3.90
   5  -8  -2   29.00    4.40
  -5   8   2   31.20    2.90
  -5   8   2   28.70    3.40
   4  -8  -2  507.55   11.90
   4  -8  -2  521.55   12.20
  -4   8   2  524.05   11.90
  -4   8   2  498.85   10.80
   3  -8  -2  138.39    5.50
   3  -8  -2  149.69    5.30
  -3   8   2  136.39    4.60
  -3   8   2  134.09    5.00
   2  -8  -2   26.80    3.30
   2  -8  -2   26.50    2.80
  -2   8   2   24.50    2.50
  -2   8   2   24.40    2.70
   1  -8  -2 1040.50   18.70
   1  -8  -2 1011.40   19.80
  -1   8   2 1003.90   19.00
  -1   8   2  975.60   19.00
   0  -8  -2   30.10    3.20
   0  -8  -2   30.20    2.20
   0   8   2   22.60    2.40
   0   8   2   22.40    2.40
  -1  -8  -2    1.20    1.20
  -1  -8  -2    0.60    0.80
   1   8   2   -0.30    0.90
  -2  -8  -2  280.47    7.70
  -2  -8  -2  297.97    6.80
   2   8   2  280.87    7.20
   2   8   2  289.27    6.40
   2   8   2  298.97    6.80
  -3  -8  -2  519.25   11.90
   3   8   2  529.15   11.20
   3   8   2  528.95   11.40
   3   8   2  531.85   10.10
  -4  -8  -2  310.07    8.60
   4   8   2  311.37    8.00
   4   8   2  305.77    8.00
  -5  -8  -2   10.00    1.90
   5   8   2   17.30    3.20
   5   8   2   15.50    3.10
  -6  -8  -2   41.90    5.10
   6   8   2   38.00    3.90
   6   8   2   42.10    4.10
  -7  -8  -2   36.70    4.80
   7   8   2   21.70    4.70
   6  -9  -2    6.10    2.90
  -6   9   2    2.10    1.60
   5  -9  -2   97.89    6.00
   5  -9  -2   90.59    5.40
  -5   9   2   94.59    5.10
  -5   9   2   92.19    4.20
   4  -9  -2   89.59    5.10
   4  -9  -2   90.79    5.20
  -4   9   2   78.39    4.10
  -4   9   2   75.99    4.60
   3  -9  -2  335.27    8.70
   3  -9  -2  347.17    9.40
  -3   9   2  340.17    8.40
  -3   9   2  339.57    8.90
   2  -9  -2   56.09    3.60
   2  -9  -2   55.09    4.20
  -2   9   2   60.79    3.40
  -2   9   2   57.19    3.60
   1  -9  -2    9.40    3.10
   1  -9  -2    9.50    2.50
  -1   9   2   12.00    2.30
  -1   9   2   13.20    2.40
   0  -9  -2  431.56    9.20
   0  -9  -2  427.76   10.50
   0   9   2  438.86    9.90
   0   9   2  426.96    9.40
  -1  -9  -2  104.59    3.80
  -1  -9  -2  112.19    4.90
   1   9   2  102.09    4.50
   1   9   2   99.39    3.90
  -2  -9  -2  134.09    4.70
  -2  -9  -2  136.59    5.50
   2   9   2  139.59    4.60
   2   9   2  134.79    5.10
   2   9   2  146.19    4.30
  -3  -9  -2  363.36    9.60
   3   9   2  384.26    7.90
   3   9   2  379.86    9.20
   3   9   2  368.46    8.80
  -4  -9  -2  110.59    5.30
   4   9   2  110.69    4.70
   4   9   2  112.69    5.00
  -5  -9  -2   11.10    3.50
   5   9   2   10.90    3.40
   5   9   2   14.30    3.30
  -6  -9  -2   67.39    5.20
   6   9   2   66.59    4.90
   6   9   2   70.29    4.90
  -7  -9  -2    3.70    2.10
   7   9   2    1.10    2.10
   6 -10  -2   17.90    6.50
   6 -10  -2   14.80    5.00
   5 -10  -2   69.29    5.90
   5 -10  -2   51.59    5.40
  -5  10   2   57.49    3.90
  -5  10   2   50.49    4.80
   4 -10  -2   85.49    5.50
   4 -10  -2   86.19    5.50
  -4  10   2   84.59    4.40
  -4  10   2   82.09    5.00
   3 -10  -2    1.00    1.70
   3 -10  -2    1.70    1.70
  -3  10   2    0.20    1.40
  -3  10   2   -0.60    1.30
   2 -10  -2  281.57    7.60
   2 -10  -2  279.57    8.50
  -2  10   2  281.57    7.90
  -2  10   2  281.27    7.80
   1 -10  -2    0.20    1.20
   1 -10  -2   -0.10    1.40
  -1  10   2   -0.10    1.00
  -1  10   2   -0.10    1.10
   0 -10  -2   63.49    4.50
   0 -10  -2   61.59    3.70
   0  10   2   64.19    4.00
   0  10   2   63.29    3.50
  -1 -10  -2  563.34   13.10
  -1 -10  -2  569.64   11.70
   1  10   2  554.24   11.70
   1  10   2  574.04   12.70
  -2 -10  -2  159.88    5.30
  -2 -10  -2  167.08    6.40
   2  10   2  161.18    5.10
   2  10   2  169.38    5.30
   2  10   2  164.98    6.00
  -3 -10  -2   38.00    4.10
   3  10   2   35.20    3.30
   3  10   2   36.90    3.80
   3  10   2   35.80    2.90
  -4 -10  -2   92.09    5.10
   4  10   2   87.29    4.50
   4  10   2   85.79    4.90
   5  10   2    0.90    1.50
   5  10   2   11.20    3.60
  -6 -10  -2   19.20    4.70
   6  10   2    9.80    2.00
   6  10   2   11.80    3.00
   5 -11  -2    6.00    2.50
   5 -11  -2   17.80    5.70
  -5  11   2    0.70    1.80
  -5  11   2    4.50    1.50
   4 -11  -2  114.79    6.60
   4 -11  -2  107.79    6.40
  -4  11   2  118.59    5.40
  -4  11   2  117.59    5.80
   3 -11  -2  124.79    6.10
   3 -11  -2  121.99    6.20
  -3  11   2  126.69    5.90
  -3  11   2  118.79    5.50
   2 -11  -2    7.70    1.90
   2 -11  -2   12.80    4.10
  -2  11   2   12.10    3.60
  -2  11   2   12.60    3.10
   1 -11  -2   77.29    5.20
   1 -11  -2   80.29    4.40
  -1  11   2   85.69    4.80
  -1  11   2   81.89    4.40
   0 -11  -2  108.79    5.70
   0 -11  -2  105.39    4.70
   0  11   2  112.19    5.00
   0  11   2  108.49    4.70
  -1 -11  -2  274.37    8.50
  -1 -11  -2  286.77    7.50
   1  11   2  280.57    7.50
   1  11   2  283.17    8.30
  -2 -11  -2  266.17    8.50
  -2 -11  -2  254.17    7.20
   2  11   2  268.17    8.10
   2  11   2  258.47    7.20
   2  11   2  267.67    7.10
  -3 -11  -2   37.00    4.30
   3  11   2   33.10    3.60
   3  11   2   32.90    3.90
  -4 -11  -2    2.40    1.70
   4  11   2   -0.50    1.60
   4  11   2   -1.20    1.40
  -5 -11  -2  190.78    7.90
   5  11   2  188.38    7.80
   5  11   2  188.38    7.00
  -6 -11  -2    8.40    2.50
   6  11   2    4.00    2.20
   6  11   2    6.40    2.10
   4 -12  -2    1.30    2.40
  -4  12   2    4.60    1.90
  -4  12   2    3.00    1.90
   3 -12  -2  250.47    9.00
  -3  12   2  249.28    8.30
  -3  12   2  249.88    8.40
   2 -12  -2  379.66   10.40
   2 -12  -2  375.86   10.90
  -2  12   2  381.96   10.50
  -2  12   2  382.86   10.40
   1 -12  -2   38.80    4.40
   1 -12  -2   34.40    4.70
  -1  12   2   34.10    4.10
  -1  12   2   37.20    4.40
   0 -12  -2   14.80    3.80
   0 -12  -2    8.30    2.10
   0  12   2   16.00    3.50
   0  12   2    8.30    1.80
  -1 -12  -2  127.59    5.50
  -1 -12  -2  119.39    6.10
   1  12   2  119.09    5.20
   1  12   2  122.09    5.00
   1  12   2  124.59    6.10
  -2 -12  -2   35.30    4.20
   2  12   2   39.00    3.60
   2  12   2   32.70    4.50
   2  12   2   30.50    4.20
  -3 -12  -2  272.87    9.20
   3  12   2  260.67    7.80
   3  12   2  281.37    9.00
   4  12   2    9.80    2.10
   4  12   2   14.00    3.60
  -5 -12  -2    2.30    2.30
   5  12   2    6.40    2.20
   3 -13  -2    0.50    2.40
  -3  13   2    2.00    2.10
  -3  13   2    1.80    1.90
   2 -13  -2  137.69    7.40
  -2  13   2  152.08    7.20
  -2  13   2  153.38    7.00
   1 -13  -2  232.68    8.90
  -1  13   2  240.68    8.50
  -1  13   2  236.08    8.10
   0 -13  -2    0.90    2.00
   0  13   2   -0.80    1.70
   0  13   2   -1.50    1.60
  -1 -13  -2  114.59    6.40
   1  13   2  100.19    6.50
   1  13   2  114.29    5.70
  -2 -13  -2   77.39    6.10
   2  13   2   93.39    6.20
   3  13   2   -0.90    1.90
   0 -14  -2    1.60    2.20
   0  14   2    2.20    2.10
   0  14   2    0.80    2.10
  -1 -14  -2    5.40    2.40
   1  14   2    4.60    2.20
   1  13  -3  133.79    7.40
  -1 -13   3  138.39    7.80
   0  13  -3    1.70    2.10
   0 -13   3    1.00    2.50
   3  12  -3  156.08    7.30
   3  12  -3  158.68    7.30
  -3 -12   3  140.89    7.60
  -3 -12   3  145.19    6.50
   2  12  -3    1.40    1.80
  -2 -12   3    3.00    1.60
  -2 -12   3    4.70    2.20
   1  12  -3    0.50    1.60
  -1 -12   3    4.20    1.60
  -1 -12   3    0.80    2.20
   0  12  -3  224.58    8.10
   0  12  -3  217.78    7.20
   0 -12   3  203.18   10.30
  -1  12  -3   38.30    5.00
   1 -12   3   37.00    5.40
  -2  12  -3   29.80    5.10
  -2  12  -3   47.20    4.80
   2 -12   3   37.20    5.90
  -3  12  -3   18.50    5.00
   3 -12   3   14.50    3.40
   5  11  -3   29.60    5.80
   5  11  -3   41.00    5.50
  -5 -11   3   41.20    5.00
   4  11  -3   -0.80    1.80
   4  11  -3   -1.80    2.10
  -4 -11   3    3.80    2.20
  -4 -11   3    2.00    1.70
   3  11  -3   23.40    7.00
  -3 -11   3   32.30    3.90
   2  11  -3   38.40    4.30
  -2 -11   3   33.60    4.70
  -2 -11   3   31.40    3.70
   1  11  -3    7.60    1.60
   1  11  -3    4.70    1.60
  -1 -11   3   13.10    3.30
  -1 -11   3    7.60    2.20
   0  11  -3  183.88    6.90
   0  11  -3  183.08    6.20
   0 -11   3  192.98    7.50
   0 -11   3  179.08    5.90
  -1  11  -3  187.68    6.50
  -1  11  -3  184.48    6.90
   1 -11   3  185.18    7.00
   1 -11   3  190.18    7.50
  -2  11  -3   10.90    3.80
   2 -11   3    5.30    2.20
  -3  11  -3   28.00    4.40
   3 -11   3   29.00    6.10
  -4  11  -3  159.48    7.40
  -4  11  -3  165.28    7.10
   4 -11   3  179.78    9.10
   6  10  -3   -2.40    2.30
  -6 -10   3    1.40    1.90
   5  10  -3   42.30    5.50
   5  10  -3   46.30    4.70
  -5 -10   3   37.80    4.50
   4  10  -3  223.08    7.30
  -4 -10   3  222.48    7.50
  -4 -10   3  211.48    9.60
   3  10  -3   60.39    4.50
   3  10  -3   69.09    4.90
  -3 -10   3   68.69    5.00
  -3 -10   3   60.59    4.20
   2  10  -3  130.09    5.60
   2  10  -3  118.29    4.80
  -2 -10   3  128.29    5.90
  -2 -10   3  128.79    5.20
   1  10  -3   43.70    3.70
   1  10  -3   41.90    3.20
  -1 -10   3   43.90    4.20
  -1 -10   3   46.00    3.40
   0  10  -3   16.30    3.40
   0  10  -3   16.50    2.90
   0 -10   3   14.90    2.90
   0 -10   3    9.40    2.00
  -1  10  -3  342.27    8.70
  -1  10  -3  342.57    9.10
   1 -10   3  315.17    8.00
   1 -10   3  343.47    9.70
  -2  10  -3  553.24   12.70
  -2  10  -3  541.45   12.80
   2 -10   3  566.04   14.80
   2 -10   3  577.34   13.90
   3 -10   3   16.20    4.80
  -4  10  -3   12.50    3.90
   4 -10   3   25.40    5.30
  -5  10  -3  256.27    8.10
  -5  10  -3  245.98    8.90
   5 -10   3  261.47   10.40
   6   9  -3  157.98    7.70
   6   9  -3  148.29    6.60
  -6  -9   3  161.68    6.90
   5   9  -3    2.00    1.50
   5   9  -3    1.50    2.10
  -5  -9   3    0.00    1.90
   4   9  -3  192.58    6.50
   4   9  -3  194.68    7.40
  -4  -9   3  199.58    7.20
  -4  -9   3  193.08    6.70
   3   9  -3  686.43   14.60
   3   9  -3  676.93   15.50
  -3  -9   3  686.03   14.60
  -3  -9   3  692.83   15.40
   2   9  -3  544.75   10.60
   2   9  -3  535.15   12.10
  -2  -9   3  537.85   11.90
  -2  -9   3  542.35   12.60
   1   9  -3  173.58    5.80
   1   9  -3  170.18    4.90
  -1  -9   3  171.38    6.20
  -1  -9   3  167.88    5.30
   0   9  -3   66.99    3.40
   0   9  -3   69.09    4.00
   0  -9   3   64.89    4.30
   0  -9   3   72.89    3.50
  -1   9  -3  210.98    6.60
  -1   9  -3  216.58    6.30
   1  -9   3  215.88    5.90
   1  -9   3  216.98    7.20
  -2   9  -3  149.59    5.50
  -2   9  -3  145.79    5.50
   2  -9   3  138.29    6.70
   2  -9   3  167.98    6.70
  -3   9  -3  254.67    7.40
  -3   9  -3  258.17    7.70
   3  -9   3  261.27    8.50
  -4   9  -3    1.90    1.20
  -4   9  -3    0.70    1.30
   4  -9   3    1.20    1.90
  -5   9  -3  141.09    6.40
  -5   9  -3  151.58    5.80
   5  -9   3  147.29    7.90
  -6   9  -3  220.38    8.60
   6  -9   3  227.38   10.30
   7   8  -3   56.79    6.20
  -7  -8   3   58.09    5.20
   6   8  -3   18.30    4.50
   6   8  -3   13.80    4.20
  -6  -8   3   15.20    3.80
   5   8  -3  338.77    9.90
   5   8  -3  332.57    8.60
  -5  -8   3  332.37    9.20
   4   8  -3   18.40    3.90
   4   8  -3   21.70    3.20
  -4  -8   3   20.00    3.20
  -4  -8   3   23.80    3.90
   3   8  -3  215.58    7.10
   3   8  -3  221.08    6.40
  -3  -8   3  212.78    6.40
  -3  -8   3  214.98    7.00
   2   8  -3  531.45   11.50
   2   8  -3  535.35   10.10
  -2  -8   3  519.45   11.30
  -2  -8   3  516.95   12.00
   1   8  -3  203.58    6.00
   1   8  -3  206.48    5.80
  -1  -8   3  198.08    5.60
  -1  -8   3  205.98    6.50
   0   8  -3    6.50    2.20
   0  -8   3   15.40    3.60
  -1   8  -3  890.41   17.60
  -1   8  -3  887.21   17.30
   1  -8   3  902.31   18.30
   1  -8   3  900.41   16.70
  -2   8  -3  251.87    7.00
  -2   8  -3  253.87    7.00
   2  -8   3  260.67    7.80
   2  -8   3  263.67    6.30
  -3   8  -3  112.29    4.80
  -3   8  -3  110.89    4.50
   3  -8   3  107.89    4.00
   3  -8   3  113.99    5.70
  -4   8  -3    1.80    1.10
   4  -8   3   -1.10    1.60
  -5   8  -3   50.89    4.30
  -5   8  -3   44.90    3.60
   5  -8   3   50.69    8.50
  -6   8  -3  136.39    6.40
   6  -8   3  134.09    8.10
   7   7  -3  101.19    6.60
  -7  -7   3  103.59    5.80
   6   7  -3  215.08    6.40
  -6  -7   3  200.48   10.30
   5   7  -3   72.29    4.00
   5   7  -3   77.49    4.90
  -5  -7   3   73.69    4.30
   4   7  -3  225.68    6.20
   4   7  -3  226.88    7.30
  -4  -7   3  225.08    6.70
  -4  -7   3  231.58    7.30
   3   7  -3  395.16    9.90
   3   7  -3  392.86    9.00
  -3  -7   3  398.26    9.20
  -3  -7   3  398.66    9.80
   2   7  -3    8.50    1.50
  -2  -7   3    7.40    2.60
   1   7  -3  804.62   14.60
   1   7  -3  809.62   15.60
  -1  -7   3  756.62   15.70
  -1  -7   3  797.82   16.00
   0   7  -3   60.79    2.80
   0   7  -3   62.79    3.00
   0  -7   3   59.89    2.60
   0  -7   3   61.09    3.60
  -1   7  -3   89.79    3.50
  -1   7  -3   90.49    3.60
   1  -7   3   92.49    4.30
   1  -7   3   93.09    3.10
  -2   7  -3 1761.82   31.70
  -2   7  -3 1772.92   31.70
   2  -7   3 1741.83   32.50
   2  -7   3 1793.72   30.80
  -3   7  -3  601.54   12.40
  -3   7  -3  601.34   12.90
   3  -7   3  595.34   11.80
   3  -7   3  604.24   13.70
  -4   7  -3  105.49    4.00
  -4   7  -3  102.09    4.50
   4  -7   3   94.99    5.70
   4  -7   3   92.99    3.90
  -5   7  -3    1.00    1.00
  -5   7  -3    0.00    1.20
   5  -7   3   -2.80    1.80
  -6   7  -3   45.80    4.10
  -6   7  -3   36.20    4.10
   6  -7   3   47.80    5.80
  -7   7  -3  113.69    6.40
   7  -7   3  119.69    8.20
   8   6  -3   53.79    6.70
  -8  -6   3   53.29    5.80
  -7  -6   3   10.40    3.70
   6   6  -3   68.89    4.00
   6   6  -3   73.79    5.10
  -6  -6   3   74.69    4.40
   5   6  -3  479.05   10.10
   5   6  -3  472.15   11.90
  -5  -6   3  468.45   11.10
   4   6  -3   17.30    2.50
   4   6  -3   21.60    3.10
  -4  -6   3   23.70    2.60
  -4  -6   3   22.60    3.30
   3   6  -3  495.75   10.30
   3   6  -3  485.45   11.20
  -3  -6   3  496.45   11.10
  -3  -6   3  489.55   10.60
   2   6  -3   55.69    1.90
   2   6  -3   49.40    2.80
  -2  -6   3   55.19    2.00
  -2  -6   3   52.59    3.30
  -2  -6   3   54.49    2.80
   1   6  -3  126.89    4.10
   1   6  -3  131.39    3.50
  -1  -6   3  129.19    3.80
  -1  -6   3  128.99    4.50
   0   6  -3 1839.32   32.90
   0   6  -3 1886.81   32.50
   0  -6   3 1890.41   33.50
   0  -6   3 1875.61   32.30
  -1   6  -3   19.90    2.00
  -1   6  -3   17.30    2.00
   1  -6   3   17.80    2.60
   1  -6   3   18.90    1.60
  -2   6  -3  268.07    6.60
  -2   6  -3  275.27    6.60
   2  -6   3  269.97    7.40
   2  -6   3  280.37    6.00
  -3   6  -3  404.76    9.30
  -3   6  -3  397.06    8.80
   3  -6   3  402.46   10.10
   3  -6   3  408.96    8.30
  -4   6  -3  260.07    7.20
  -4   6  -3  261.47    6.50
   4  -6   3  259.17    6.20
   4  -6   3  253.37    8.10
  -5   6  -3   18.60    2.90
  -5   6  -3   17.60    2.30
   5  -6   3   13.60    2.60
   5  -6   3   14.30    4.20
  -6   6  -3  222.58    6.00
   6  -6   3  236.18   12.60
  -7   6  -3   98.79    5.70
   7  -6   3   95.39    7.30
   8   5  -3   94.99    7.20
  -8  -5   3  104.79    6.40
   7   5  -3  185.68    7.90
  -7  -5   3  207.58    7.40
   6   5  -3   64.59    3.30
   6   5  -3   57.39    4.60
  -6  -5   3   64.29    3.90
   5   5  -3   52.69    2.80
   5   5  -3   50.19    3.90
  -5  -5   3   48.30    3.40
   4   5  -3  275.27    6.30
   4   5  -3  273.97    7.60
  -4  -5   3  280.67    7.50
  -4  -5   3  268.67    7.10
   3   5  -3  137.49    4.10
   3   5  -3  134.39    4.80
  -3  -5   3  135.59    4.30
  -3  -5   3  135.99    4.70
   2   5  -3  602.34   10.60
   2   5  -3  588.64   11.60
  -2  -5   3  583.04   12.10
  -2  -5   3  592.14   10.60
  -2  -5   3  602.64   11.60
   1   5  -3  627.74   12.70
   1   5  -3  655.63   11.70
  -1  -5   3  642.54   13.00
  -1  -5   3  653.63   12.10
   0   5  -3   58.29    2.20
   0  -5   3   60.39    2.90
   0  -5   3   59.19    2.10
  -1   5  -3  490.05   11.40
  -1   5  -3  527.25    9.70
  -1   5  -3  517.25   10.20
   1  -5   3  531.85    9.60
  -2   5  -3  519.05   10.30
  -2   5  -3  513.25   10.40
   2  -5   3  515.15    9.50
   2  -5   3  506.65   11.10
   2  -5   3  493.85    9.30
  -3   5  -3   30.10    2.20
  -3   5  -3   28.40    2.50
   3  -5   3   33.70    2.00
   3  -5   3   32.40    3.20
   3  -5   3   35.00    2.00
  -4   5  -3 1321.07   23.80
  -4   5  -3 1315.27   24.60
   4  -5   3 1347.07   23.60
   4  -5   3 1310.97   25.60
  -5   5  -3    5.10    1.30
   5  -5   3    2.60    1.70
   5  -5   3    4.20    1.70
  -6   5  -3    2.20    1.20
  -6   5  -3    7.60    2.10
   6  -5   3    0.50    1.10
   6  -5   3    2.00    2.00
  -7   5  -3  208.88    7.20
   7  -5   3  197.28    8.90
  -8   5  -3   44.30    4.90
   8  -5   3   41.80    7.10
  -8  -4   3   15.00    4.50
   6   4  -3   29.00    3.70
  -6  -4   3   33.10    3.30
   5   4  -3   50.29    2.40
   5   4  -3   51.69    3.70
  -5  -4   3   52.39    3.20
   4   4  -3 1516.75   26.60
   4   4  -3 1535.55   28.40
  -4  -4   3 1530.05   27.70
   3   4  -3 1155.48   21.90
   3   4  -3 1184.08   20.70
  -3  -4   3 1140.29   21.50
  -3  -4   3 1184.48   21.80
   2   4  -3   99.79    3.00
   2   4  -3  102.99    2.30
   2   4  -3  103.59    2.40
  -2  -4   3  102.09    3.20
  -2  -4   3  108.39    2.40
  -2  -4   3   97.69    3.50
   1   4  -3  283.97    5.50
   1   4  -3  281.77    6.00
  -1  -4   3  274.67    5.50
  -1  -4   3  280.07    5.80
  -1  -4   3  267.57    6.40
   0   4  -3 1560.74   26.30
   0   4  -3 1553.54   26.70
   0   4  -3 1535.75   26.40
   0  -4   3 1506.75   26.10
   0  -4   3 1493.95   27.10
  -1   4  -3 1351.86   22.80
  -1   4  -3 1334.77   23.50
  -1   4  -3 1305.57   23.50
   1  -4   3 1369.16   24.20
   1  -4   3 1330.57   22.70
  -2   4  -3  483.45   10.50
  -2   4  -3  486.35    9.60
   2  -4   3  502.15    8.90
   2  -4   3  469.75   11.20
   2  -4   3  497.35    8.70
  -3   4  -3    1.50    0.70
  -3   4  -3    2.00    0.60
   3  -4   3    2.10    1.10
   3  -4   3    2.00    0.60
   3  -4   3    4.10    1.30
  -4   4  -3   82.19    2.90
  -4   4  -3   74.19    3.50
   4  -4   3   79.19    4.30
   4  -4   3   79.89    2.80
  -5   4  -3 1118.99   21.30
  -5   4  -3 1158.28   20.40
   5  -4   3 1092.89   22.50
   5  -4   3 1090.49   20.30
  -6   4  -3   61.89    3.80
  -6   4  -3   63.29    3.80
   6  -4   3   67.29    5.00
   6  -4   3   58.29    3.40
  -7   4  -3    0.30    1.20
  -7   4  -3   -1.60    1.60
   7  -4   3    1.60    2.10
   7  -4   3   -1.50    1.30
  -8   4  -3  173.48    6.80
   8  -4   3  183.18    9.00
   8   3  -3  364.46   11.80
  -8  -3   3  364.16   10.70
   7   3  -3   16.30    4.10
  -7  -3   3   15.90    3.50
   6   3  -3   96.29    5.20
  -6  -3   3  103.49    4.60
   5   3  -3    3.30    0.70
   5   3  -3    2.30    1.30
  -5  -3   3    7.10    2.10
   4   3  -3    1.30    0.60
   4   3  -3    0.40    1.00
  -4  -3   3    1.30    0.80
   3   3  -3 4375.16   73.09
  -3  -3   3 4372.16   73.89
   2   3  -3 2333.67   39.80
   2   3  -3 2281.47   38.10
   2   3  -3 2309.07   38.80
   2   3  -3 2277.77   38.20
  -2  -3   3 2285.47   39.10
  -2  -3   3 2238.58   39.50
   1   3  -3  220.48    4.40
   1   3  -3  215.58    4.70
   1   3  -3  213.28    4.70
  -1  -3   3  225.78    4.40
  -1  -3   3  210.98    5.10
  -1  -3   3  223.78    4.60
   0   3  -3  738.33   13.60
   0   3  -3  745.13   13.40
   0   3  -3  760.42   13.20
   0  -3   3  752.62   14.10
   0  -3   3  785.72   14.00
   0  -3   3  753.32   13.10
  -1   3  -3 5527.85   90.89
  -1   3  -3 5496.65   90.89
   1  -3   3 5311.67   91.39
  -2   3  -3  555.34   10.80
  -2   3  -3  572.34   10.60
   2  -3   3  555.14   11.40
  -3   3  -3 1488.35   26.00
  -3   3  -3 1513.15   25.60
  -3   3  -3 1488.15   26.60
   3  -3   3 1488.65   25.60
   3  -3   3 1475.75   27.30
   3  -3   3 1506.25   25.40
  -4   3  -3 1160.58   20.20
  -4   3  -3 1108.39   20.90
  -4   3  -3 1172.98   20.20
   4  -3   3 1103.39   21.90
   4  -3   3 1145.69   20.20
  -5   3  -3  214.18    5.00
  -5   3  -3  211.98    5.40
  -5   3  -3  210.28    5.90
   5  -3   3  206.08    7.00
  -6   3  -3  312.47    7.90
  -6   3  -3  278.97    6.90
  -6   3  -3  301.27    7.40
   6  -3   3  296.67    9.20
  -7   3  -3  264.57    7.40
  -7   3  -3  270.87    7.60
  -8   3  -3    9.70    3.40
  -8   3  -3    6.00    2.20
   8  -3   3    3.30    2.30
   8   2  -3  167.98    8.20
  -8  -2   3  174.38    7.20
   7   2  -3  366.36   10.80
  -7  -2   3  368.96    9.80
   6   2  -3  248.68    7.90
  -6  -2   3  252.57    7.20
   5   2  -3  819.62   17.00
  -5  -2   3  826.72   16.30
   4   2  -3 1201.58   22.80
   4   2  -3 1229.28   20.80
  -4  -2   3 1203.28   22.20
  -4  -2   3 1219.98   20.70
   3   2  -3  140.09    3.20
   3   2  -3  135.49    4.20
  -3  -2   3  134.59    3.10
  -3  -2   3  128.79    3.80
  -3  -2   3  138.49    4.10
   2   2  -3 3133.99   53.09
   2   2  -3 3024.20   51.69
   2   2  -3 3147.08   52.09
   2   2  -3 3084.09   51.79
  -2  -2   3 3117.59   52.49
  -2  -2   3 3099.79   52.89
  -2  -2   3 3180.98   52.09
   1   2  -3  938.21   15.90
   1   2  -3  893.61   16.00
   1   2  -3  906.51   15.70
   1   2  -3  911.51   15.70
  -1  -2   3  900.61   16.40
  -1  -2   3  898.91   15.90
  -1  -2   3  893.21   15.90
  -1  -2   3  954.80   15.80
   0   2  -3  146.49    3.30
   0   2  -3  146.59    2.90
   0   2  -3  144.29    3.40
   0  -2   3  149.59    2.90
   0  -2   3  151.38    3.30
  -1   2  -3 5909.51  103.39
  -1   2  -3 6619.14  103.49
   1  -2   3 6139.29  103.89
  -2   2  -3 2753.82   45.80
  -2   2  -3 2714.93   46.00
   2  -2   3 2664.83   46.50
  -3   2  -3 1293.17   22.20
  -3   2  -3 1284.17   23.00
  -3   2  -3 1305.67   22.50
   3  -2   3 1279.47   23.70
   3  -2   3 1317.17   22.20
  -4   2  -3    1.00    0.70
  -4   2  -3    0.80    0.60
  -4   2  -3    1.20    0.50
   4  -2   3    1.90    1.10
  -5   2  -3  243.88    6.30
  -5   2  -3  254.27    5.40
  -5   2  -3  242.78    5.90
   5  -2   3  241.18    7.40
  -6   2  -3   26.80    1.90
  -6   2  -3   25.20    3.00
  -6   2  -3   23.60    2.80
   6  -2   3   21.30    4.00
  -7   2  -3  201.58    6.20
  -7   2  -3  197.38    6.30
   7  -2   3  187.58    7.90
  -8   2  -3  140.69    5.60
  -8   2  -3  138.09    6.10
   8  -2   3  132.99    7.60
   9   1  -3   64.39    7.20
  -9  -1   3   67.69    6.20
   8   1  -3    5.00    2.30
  -8  -1   3   11.90    4.10
   7   1  -3  462.95   12.30
  -7  -1   3  466.05   11.50
   6   1  -3  911.91   19.00
  -6  -1   3  894.11   16.30
  -6  -1   3  913.61   18.30
   5   1  -3   77.89    4.00
  -5  -1   3   80.49    2.50
  -5  -1   3   79.69    3.60
   4   1  -3   52.09    1.90
   4   1  -3   50.69    3.00
  -4  -1   3   59.59    1.90
  -4  -1   3   52.49    2.70
   3   1  -3 2670.03   46.10
   3   1  -3 2736.63   44.60
   3   1  -3 2690.23   44.70
  -3  -1   3 2611.64   44.70
  -3  -1   3 2649.24   45.60
   2   1  -3  307.57    5.70
   2   1  -3  307.87    6.50
   2   1  -3  304.87    5.70
  -2  -1   3  293.87    6.20
  -2  -1   3  301.07    5.60
   1   1  -3  406.96    7.30
   1   1  -3  388.36    7.70
   1   1  -3  400.16    7.20
   1   1  -3  401.56    7.20
   1   1  -3  394.76    7.30
  -1  -1   3  386.76    7.60
  -1  -1   3  409.76    7.20
  -1  -1   3  394.86    7.30
   0   1  -3   69.69    1.60
   0   1  -3   76.19    2.20
   0   1  -3   69.19    1.90
   0  -1   3   67.59    2.10
   0  -1   3   69.99    1.90
   0  -1   3   69.79    1.60
  -1   1  -3  545.95   10.00
  -1   1  -3  556.64   10.30
  -1   1  -3  548.05    9.90
   1  -1   3  548.55   10.00
   1  -1   3  535.15   10.20
  -2   1  -3 5633.34   88.49
  -2   1  -3 5492.15   88.69
  -2   1  -3 4773.02   87.79
   2  -1   3 5493.65   89.09
   2  -1   3 5174.08   87.79
  -3   1  -3 1842.22   31.30
  -3   1  -3 1830.32   31.70
  -3   1  -3 1781.12   31.10
   3  -1   3 1887.61   31.20
   3  -1   3 1841.22   32.50
  -4   1  -3   12.60    1.30
  -4   1  -3   10.60    1.50
   4  -1   3    8.80    2.30
  -5   1  -3  237.38    6.00
  -5   1  -3  242.48    5.90
  -5   1  -3  247.38    5.20
   5  -1   3  239.38    7.20
  -6   1  -3  693.83   13.90
  -6   1  -3  702.13   14.00
  -6   1  -3  687.23   12.60
   6  -1   3  700.23   15.70
  -7   1  -3    8.60    3.00
  -7   1  -3   11.30    2.60
   7  -1   3    5.80    2.00
  -8   1  -3   48.10    3.80
  -8   1  -3   59.09    4.50
   8  -1   3   46.20    5.80
   9   0  -3   54.69    7.40
  -9   0   3   49.10    5.50
   8   0  -3  143.09    7.60
  -8   0   3  143.19    6.50
   7   0  -3   27.20    4.20
  -7   0   3   31.80    3.80
  -7   0   3   28.40    2.40
   6   0  -3    1.60    1.40
  -6   0   3    1.20    1.20
  -6   0   3    1.40    0.70
   5   0  -3  796.72   16.40
  -5   0   3  810.92   14.80
  -5   0   3  813.42   16.00
   4   0  -3   52.79    2.90
  -4   0   3   55.99    2.00
  -4   0   3   53.49    2.70
   3   0  -3 1429.06   24.40
   3   0  -3 1467.95   25.50
  -3   0   3 1413.96   24.50
  -3   0   3 1405.26   25.20
   2   0  -3 5036.40   77.29
   2   0  -3 4537.55   77.79
   2   0  -3 4497.95   76.89
  -2   0   3 4505.35   77.19
  -2   0   3 4650.23   77.69
   1   0  -3 3679.03   58.79
   1   0  -3 3656.83   58.69
   1   0  -3 3567.34   58.59
  -1   0   3 3302.77   58.59
  -1   0   3 3371.96   58.69
  -1   0   3 3539.65   58.69
   0   0  -3 4915.21   72.19
   0   0  -3 4057.39   72.09
   0   0  -3 4780.92   72.19
   0   0  -3 4122.29   71.79
   0   0  -3 4271.27   71.79
   0   0   3 4253.47   72.09
   0   0   3 3952.80   71.79
  -1   0  -3  903.51   15.20
  -1   0  -3  930.11   15.70
  -1   0  -3  910.81   15.90
   1   0   3  869.11   15.80
   1   0   3  899.11   15.70
   1   0   3  891.41   15.30
  -2   0  -3   23.30    1.10
  -2   0  -3   23.50    1.30
   2   0   3   25.20    1.70
   2   0   3   24.60    1.20
  -3   0  -3  834.12   15.00
  -3   0  -3  825.62   14.70
   3   0   3  820.82   15.60
   3   0   3  828.82   14.70
  -4   0  -3  749.73   14.00
  -4   0  -3  781.52   13.60
  -4   0  -3  770.62   14.20
   4   0   3  737.13   15.10
  -5   0  -3   26.20    3.80
  -5   0  -3   27.30    2.10
  -5   0  -3   33.20    1.70
   5   0   3   30.30    3.00
  -6   0  -3  318.37    7.80
  -6   0  -3  322.47    6.40
  -6   0  -3  324.07    7.60
   6   0   3  327.87    9.20
  -7   0  -3  540.25   11.60
  -7   0  -3  544.15   12.10
   7   0   3  549.54   13.80
  -8   0  -3   20.90    3.10
  -8   0  -3   17.30    3.90
   8   0   3   16.30    5.00
  -9   0  -3    7.90    2.40
   9   0   3    7.10    2.80
  -9   1   3   30.40    5.20
   8  -1  -3  164.98    8.10
  -8   1   3  173.28    7.10
   7  -1  -3  202.28    7.90
  -7   1   3  206.28    5.70
  -7   1   3  215.98    7.10
   6  -1  -3   -1.10    1.30
  -6   1   3    2.00    0.80
  -6   1   3   -0.60    1.20
   5  -1  -3    3.20    1.20
  -5   1   3    6.00    1.40
  -5   1   3    3.90    1.20
   4  -1  -3  610.24   14.40
  -4   1   3  648.54   11.90
  -4   1   3  639.94   12.60
   3  -1  -3  390.96    8.20
  -3   1   3  383.16    8.00
  -3   1   3  392.16    7.60
   2  -1  -3 1023.50   18.70
   2  -1  -3 1080.49   18.90
   2  -1  -3 1103.69   18.60
  -2   1   3 1077.69   18.80
  -2   1   3 1072.49   18.60
  -2   1   3 1059.59   18.90
   1  -1  -3 4162.38   64.69
   1  -1  -3 4119.09   64.69
   1  -1  -3 3868.51   64.39
   1  -1  -3 3818.02   64.49
   1  -1  -3 3819.62   64.69
  -1   1   3 3665.43   64.39
  -1   1   3 3629.64   64.49
  -1   1   3 3909.91   64.69
   0  -1  -3   21.60    1.10
   0  -1  -3   22.20    0.90
   0   1   3   20.10    0.80
   0   1   3   20.40    1.00
  -1  -1  -3  384.56    7.00
  -1  -1  -3  377.46    7.00
  -1  -1  -3  368.56    7.00
  -1  -1  -3  378.16    7.10
   1   1   3  383.36    7.00
   1   1   3  382.76    7.10
   1   1   3  375.06    7.10
   1   1   3  365.36    7.00
  -2  -1  -3 2493.55   42.20
  -2  -1  -3 2482.05   42.50
  -2  -1  -3 2539.65   42.30
  -2  -1  -3 2459.75   42.30
   2   1   3 2569.54   42.30
   2   1   3 2503.45   42.60
   2   1   3 2513.05   42.30
  -3  -1  -3   22.10    1.40
  -3  -1  -3   22.30    1.60
   3   1   3   20.60    1.90
  -4  -1  -3  528.25   10.30
  -4  -1  -3  529.15   10.10
   4   1   3  514.15   12.10
  -5  -1  -3  170.48    4.30
  -5  -1  -3  170.28    4.80
   5   1   3  170.08    5.70
  -6  -1  -3    3.20    0.90
  -6  -1  -3    1.60    0.60
   6   1   3    5.50    1.60
  -7  -1  -3  813.12   16.60
  -7  -1  -3  792.42   15.70
   7   1   3  825.42   18.20
  -8  -1  -3  161.48    6.50
  -8  -1  -3  170.28    6.40
   8   1   3  158.08    7.80
  -9  -1  -3   -1.20    2.10
   9   1   3    5.20    2.90
   8  -2  -3   79.49    6.60
  -8   2   3   70.79    5.20
  -8   2   3   81.69    4.00
   7  -2  -3  204.08    7.80
  -7   2   3  200.28    6.00
  -7   2   3  209.78    7.00
   6  -2  -3   55.19    4.40
  -6   2   3   65.09    3.90
  -6   2   3   63.49    3.00
   5  -2  -3  430.26   10.20
  -5   2   3  435.26    9.10
  -5   2   3  436.76    9.90
  -4   2   3 1399.76   25.50
  -4   2   3 1411.16   24.90
   3  -2  -3 1562.74   26.70
   3  -2  -3 1591.64   28.00
  -3   2   3 1623.74   28.00
  -3   2   3 1579.24   27.60
   2  -2  -3   13.80    1.20
   2  -2  -3   13.00    1.00
  -2   2   3   11.50    1.10
  -2   2   3   13.50    1.20
   1  -2  -3 3482.95   58.49
   1  -2  -3 3399.76   57.99
   1  -2  -3 3501.65   58.59
   1  -2  -3 3644.24   58.29
   1  -2  -3 3579.54   58.79
   1  -2  -3 3279.47   57.99
  -1   2   3 3575.14   58.69
  -1   2   3 3569.94   58.69
  -1   2   3 3411.66   58.09
  -1   2   3 3511.15   58.59
   0  -2  -3 2087.29   35.50
   0  -2  -3 2098.89   35.40
   0  -2  -3 2130.79   35.70
   0   2   3 2079.99   35.60
   0   2   3 2101.29   35.50
  -1  -2  -3 2485.55   42.50
  -1  -2  -3 2502.85   42.00
  -1  -2  -3 2575.54   42.30
   1   2   3 2517.75   42.30
   1   2   3 2550.64   42.50
   1   2   3 2467.85   42.00
  -2  -2  -3  217.98    4.70
  -2  -2  -3  212.58    4.50
  -2  -2  -3  210.68    4.70
  -2  -2  -3  209.98    4.70
  -2  -2  -3  209.28    4.50
   2   2   3  224.58    5.50
   2   2   3  217.68    4.70
  -3  -2  -3 4007.50   66.79
  -3  -2  -3 3915.51   66.29
   3   2   3 3968.60   66.99
  -4  -2  -3  306.27    6.30
  -4  -2  -3  309.37    7.00
  -5  -2  -3  683.53   12.70
  -5  -2  -3  681.93   13.50
   5   2   3  667.23   14.20
  -6  -2  -3    8.70    2.40
   6   2   3    3.40    1.50
  -7  -2  -3   16.20    3.20
  -7  -2  -3    9.10    2.20
   7   2   3    7.20    2.00
  -8  -2  -3  273.97    8.50
   8   2   3  273.07    9.80
  -9  -2  -3   66.29    5.80
   9   2   3   60.79    7.00
   8  -3  -3  566.54   15.10
   8  -3  -3  572.14   14.20
  -8   3   3  541.35   12.50
  -8   3   3  571.84   14.00
   7  -3  -3   -0.80    1.80
   7  -3  -3    1.20    1.50
  -7   3   3    0.80    1.00
  -7   3   3    2.40    1.50
   6  -3  -3  162.18    5.80
   6  -3  -3  168.18    6.40
  -6   3   3  167.08    5.10
  -6   3   3  167.18    5.90
   5  -3  -3  487.75   11.10
   5  -3  -3  471.55   10.80
  -5   3   3  478.45   10.70
  -5   3   3  486.25   10.20
   4  -3  -3  439.36    9.80
  -4   3   3  458.75    9.40
  -4   3   3  453.85    9.80
   3  -3  -3 2206.78   38.00
   3  -3  -3 2208.88   38.30
   3  -3  -3 2169.28   36.90
  -3   3   3 2171.18   37.80
  -3   3   3 2212.88   38.10
   2  -3  -3 1061.29   18.60
   2  -3  -3 1065.29   19.20
   2  -3  -3 1058.59   18.30
  -2   3   3 1056.29   18.80
  -2   3   3 1066.79   18.60
  -2   3   3 1040.50   18.40
  -2   3   3 1053.39   19.00
   1  -3  -3  503.75    9.60
   1  -3  -3  540.15   10.20
   1  -3  -3  534.75    9.30
  -1   3   3  538.65    9.30
  -1   3   3  511.75    9.90
  -1   3   3  539.45    9.80
   0  -3  -3  663.03   12.20
   0  -3  -3  660.53   12.60
   0  -3  -3  725.63   12.90
   0   3   3  684.43   13.20
   0   3   3  679.33   12.30
   0   3   3  668.53   12.30
  -1  -3  -3 3508.45   58.59
  -1  -3  -3 3568.04   59.49
  -1  -3  -3 3668.43   59.09
   1   3   3 3452.35   58.49
   1   3   3 3593.64   59.09
   1   3   3 3552.24   59.19
   1   3   3 3351.46   58.49
  -2  -3  -3  340.07    7.10
  -2  -3  -3  346.67    6.60
  -2  -3  -3  334.07    6.70
  -2  -3  -3  326.87    6.50
   2   3   3  339.87    6.70
   2   3   3  342.07    6.60
  -3  -3  -3 1507.45   27.30
  -3  -3  -3 1562.14   26.60
  -3  -3  -3 1588.94   26.70
   3   3   3 1545.95   27.30
  -4  -3  -3 1682.33   30.10
  -4  -3  -3 1725.63   28.60
   4   3   3 1574.04   32.70
  -5  -3  -3    4.80    1.30
  -5  -3  -3    0.20    0.90
   5   3   3   -0.30    1.00
  -6  -3  -3  186.28    4.50
  -6  -3  -3  179.28    5.70
   6   3   3  177.58    6.40
  -7  -3  -3  432.16   10.60
   7   3   3  438.16   11.80
   8   3   3   13.50    4.90
   8  -4  -3   14.40    4.70
   8  -4  -3   10.60    3.00
  -8   4   3   22.60    4.80
  -8   4   3   18.90    3.60
   7  -4  -3  398.76   11.30
   7  -4  -3  402.56   10.80
  -7   4   3  397.96   10.50
  -7   4   3  404.26    9.80
   6  -4  -3  409.06   10.80
   6  -4  -3  416.26   10.40
  -6   4   3  419.16   10.30
  -6   4   3  414.86    9.70
   5  -4  -3   12.90    3.10
   5  -4  -3   13.60    2.50
  -5   4   3   14.00    2.70
  -5   4   3   13.80    2.20
   4  -4  -3 1336.47   25.40
   4  -4  -3 1406.56   23.90
   4  -4  -3 1369.66   25.60
  -4   4   3 1397.66   25.10
  -4   4   3 1398.66   25.40
  -4   4   3 1397.36   23.90
   3  -4  -3 2344.27   40.10
  -3   4   3 2287.27   39.30
   2  -4  -3 1201.78   21.00
   2  -4  -3 1165.08   21.60
  -2   4   3 1195.58   20.90
  -2   4   3 1209.78   20.90
  -2   4   3 1197.98   21.30
   1  -4  -3 1501.65   25.10
   1  -4  -3 1445.76   26.20
  -1   4   3 1413.96   25.70
  -1   4   3 1510.35   25.60
  -1   4   3 1512.45   25.00
   0  -4  -3   70.19    2.80
   0   4   3   81.39    2.50
   0   4   3   75.79    2.40
  -1  -4  -3 2200.88   38.90
   1   4   3 2263.97   38.60
   1   4   3 2250.87   37.70
   1   4   3 2262.37   37.70
   1   4   3 2298.17   38.30
  -2  -4  -3 2315.57   39.30
  -2  -4  -3 2330.27   40.10
  -2  -4  -3 2316.37   39.30
   2   4   3 2365.86   39.80
   2   4   3 2325.77   39.40
   2   4   3 2296.27   39.30
   2   4   3 2301.57   39.30
  -3  -4  -3 1275.37   22.30
  -3  -4  -3 1303.77   22.40
  -3  -4  -3 1304.67   23.40
   3   4   3 1287.17   23.00
  -4  -4  -3  568.64   12.00
  -4  -4  -3  596.74   10.70
  -5  -4  -3  963.50   16.90
  -5  -4  -3  946.41   18.50
   5   4   3  951.80   18.80
  -6  -4  -3   82.99    4.30
  -6  -4  -3   87.99    2.80
   6   4   3   82.39    4.70
  -7  -4  -3   19.80    3.40
   7   4   3   12.40    3.90
  -8  -4  -3  355.16   10.10
   8   4   3  354.36   11.20
   8  -5  -3    5.90    3.00
  -8   5   3    9.00    2.40
  -8   5   3   13.70    3.80
   7  -5  -3   31.40    4.10
   7  -5  -3   27.70    4.80
  -7   5   3   36.70    3.60
  -7   5   3   29.40    4.20
   6  -5  -3  323.07    9.40
   6  -5  -3  310.57    8.80
  -6   5   3  323.87    8.90
  -6   5   3  318.07    8.30
   5  -5  -3   20.70    2.90
   5  -5  -3   19.70    3.40
  -5   5   3   23.10    1.70
  -5   5   3   27.10    3.10
  -5   5   3   21.60    2.60
   4  -5  -3  285.07    7.50
   4  -5  -3  281.17    7.40
  -4   5   3  296.47    6.20
  -4   5   3  283.07    7.40
  -4   5   3  287.67    7.20
   3  -5  -3 2506.45   43.00
   3  -5  -3 2467.45   43.40
  -3   5   3 2458.45   43.00
  -3   5   3 2483.35   42.30
   2  -5  -3  397.26    8.60
   2  -5  -3  397.06    7.80
  -2   5   3  390.16    7.80
  -2   5   3  331.57    9.80
   1  -5  -3  533.55    9.70
   1  -5  -3  527.25   11.00
  -1   5   3  528.75   10.30
  -1   5   3  542.35    9.70
  -1   5   3  523.85   10.30
   0  -5  -3  625.94   12.70
   0  -5  -3  642.34   11.10
   0   5   3  636.44   12.00
   0   5   3  649.83   11.20
  -1  -5  -3  994.90   18.70
   1   5   3 1018.10   17.90
   1   5   3  984.10   17.30
   1   5   3 1000.70   17.30
   1   5   3 1018.40   18.30
  -2  -5  -3  160.18    4.70
   2   5   3  165.88    3.90
   2   5   3  166.78    3.90
   2   5   3  163.78    4.00
   2   5   3  163.38    4.40
  -3  -5  -3  769.02   13.60
  -3  -5  -3  754.12   14.10
  -3  -5  -3  737.53   14.70
   3   5   3  743.13   13.50
   3   5   3  765.52   14.30
   3   5   3  753.52   14.20
  -4  -5  -3  582.84   12.40
  -4  -5  -3  608.54   10.80
   4   5   3  587.54   12.20
  -5  -5  -3    2.40    1.20
   5   5   3    2.90    1.10
  -6  -5  -3  569.64   13.00
   6   5   3  578.84   13.30
  -7  -5  -3    2.40    1.50
   7   5   3    1.70    1.80
  -8  -5  -3   11.10    4.10
   8   5   3    0.80    2.20
   8  -6  -3   27.90    6.30
  -8   6   3   39.50    4.60
  -8   6   3   30.10    5.80
   7  -6  -3  259.77   10.60
  -7   6   3  266.27    8.20
  -7   6   3  255.27    9.90
   6  -6  -3    3.80    1.90
   6  -6  -3    9.80    3.50
  -6   6   3    4.20    1.70
  -6   6   3    3.10    1.30
   5  -6  -3  208.48    6.90
   5  -6  -3  205.78    6.70
  -5   6   3  208.58    6.30
  -5   6   3  201.08    5.00
   4  -6  -3    1.40    1.30
   4  -6  -3    1.20    1.10
  -4   6   3    0.80    0.70
  -4   6   3    1.50    0.90
   3  -6  -3    7.20    2.40
   3  -6  -3    5.60    1.20
  -3   6   3   10.00    2.00
  -3   6   3    7.60    1.50
   2  -6  -3 3115.69   53.99
   2  -6  -3 3104.29   52.79
  -2   6   3 3127.59   52.99
  -2   6   3 3080.99   53.29
   1  -6  -3  687.33   12.60
  -1   6   3  689.13   12.50
  -1   6   3  700.03   13.30
   0  -6  -3   98.89    2.60
   0  -6  -3   99.79    4.00
   0   6   3   99.19    3.50
   0   6   3   99.79    3.10
   0   6   3  101.69    2.70
  -1  -6  -3    8.60    1.20
   1   6   3    6.40    1.40
   1   6   3    7.30    1.00
  -2  -6  -3 1048.00   20.00
   2   6   3 1070.59   19.60
   2   6   3 1071.69   18.90
   2   6   3 1049.30   18.80
  -3  -6  -3  237.88    5.00
  -3  -6  -3  222.68    6.30
   3   6   3  225.28    5.60
   3   6   3  218.38    4.90
   3   6   3  214.18    5.80
  -4  -6  -3  101.79    2.80
  -4  -6  -3  100.89    3.40
  -4  -6  -3   99.59    4.30
   4   6   3  104.79    3.80
   4   6   3   99.99    3.90
  -5  -6  -3    5.30    1.40
   5   6   3   10.80    2.70
  -6  -6  -3  284.87    8.40
   6   6   3  289.07    8.50
   7   6   3  171.08    7.00
  -8  -6  -3   52.79    5.10
   8   6   3   45.70    5.70
   7  -7  -3  207.48    8.90
   7  -7  -3  209.58    8.10
  -7   7   3  215.38    7.40
   6  -7  -3  266.87    8.90
   6  -7  -3  274.27    8.70
  -6   7   3  268.17    8.40
   5  -7  -3   34.40    4.00
   5  -7  -3   30.30    3.80
  -5   7   3   21.20    2.50
  -5   7   3   26.80    3.20
   4  -7  -3   48.80    3.70
   4  -7  -3   49.30    3.90
  -4   7   3   44.30    2.70
  -4   7   3   47.70    3.20
   3  -7  -3   10.80    2.70
   3  -7  -3   13.10    2.70
  -3   7   3    8.20    2.00
  -3   7   3   10.00    2.20
   2  -7  -3  279.67    7.50
   2  -7  -3  271.57    6.40
  -2   7   3  277.57    6.90
  -2   7   3  274.37    6.70
   1  -7  -3 1073.29   19.20
   1  -7  -3 1083.19   20.90
  -1   7   3 1081.59   20.00
  -1   7   3 1088.59   20.00
   0  -7  -3   46.80    3.30
   0  -7  -3   47.00    2.00
   0   7   3   46.30    2.60
   0   7   3   43.10    2.10
  -1  -7  -3  222.98    6.50
  -1  -7  -3  242.28    5.20
   1   7   3  241.78    5.60
   1   7   3  239.58    5.10
   1   7   3  228.88    6.00
  -2  -7  -3 1350.66   25.80
   2   7   3 1410.66   24.60
   2   7   3 1411.66   24.60
   2   7   3 1406.26   25.40
  -3  -7  -3  108.29    4.60
   3   7   3  119.19    4.30
   3   7   3  124.39    3.90
   3   7   3  118.99    3.40
  -4  -7  -3    1.30    0.70
  -4  -7  -3   -1.00    1.20
   4   7   3   -0.60    1.00
   4   7   3    0.90    1.00
  -5  -7  -3  264.17    7.90
   5   7   3  269.77    7.60
  -6  -7  -3   12.50    3.40
   6   7   3   15.50    3.50
  -7  -7  -3  145.79    6.70
   7   7   3  140.79    6.80
  -8  -7  -3   28.50    5.20
   8   7   3   26.10    5.50
   7  -8  -3   21.30    5.40
  -7   8   3   21.50    4.20
   6  -8  -3  112.49    6.50
   6  -8  -3  114.39    6.20
  -6   8   3  113.29    5.50
   5  -8  -3  371.06   10.00
   5  -8  -3  368.16   10.20
  -5   8   3  347.67    8.30
  -5   8   3  367.26    9.60
   4  -8  -3   74.59    4.50
   4  -8  -3   75.59    4.60
  -4   8   3   69.19    4.00
  -4   8   3   68.79    3.40
   3  -8  -3  346.67    9.30
   3  -8  -3  350.16    8.40
  -3   8   3  341.67    8.10
  -3   8   3  340.87    8.60
   2  -8  -3  956.60   17.70
   2  -8  -3  941.61   19.10
  -2   8   3  943.21   18.30
  -2   8   3  940.01   18.10
   1  -8  -3  373.46    7.80
   1  -8  -3  371.26    9.40
  -1   8   3  360.86    8.50
  -1   8   3  367.26    8.50
   0  -8  -3   97.79    3.20
   0  -8  -3   94.49    4.60
   0   8   3   94.09    3.80
   0   8   3   95.19    3.60
  -1  -8  -3   10.00    1.70
  -1  -8  -3    6.00    1.50
   1   8   3    6.30    2.10
   1   8   3    8.80    1.50
   1   8   3    5.10    1.80
  -2  -8  -3   99.49    4.40
   2   8   3   93.09    3.30
   2   8   3   99.89    3.30
   2   8   3   97.09    4.00
  -3  -8  -3 2057.49   37.70
   3   8   3 2066.69   35.80
   3   8   3 2113.89   37.20
  -4  -8  -3  251.57    7.50
  -4  -8  -3  240.48    5.30
   4   8   3  249.68    6.80
   4   8   3  247.88    7.00
   4   8   3  245.98    5.50
  -5  -8  -3   27.20    3.80
   5   8   3   30.80    3.40
   5   8   3   27.70    3.30
  -6  -8  -3   35.20    5.00
   6   8   3   41.90    4.20
  -7  -8  -3   44.60    5.20
   7   8   3   42.20    5.90
   6  -9  -3    6.20    2.50
   6  -9  -3    9.60    2.30
   5  -9  -3  369.86   10.50
   5  -9  -3  353.36   10.10
  -5   9   3  351.26    9.70
  -5   9   3  335.57    8.50
   4  -9  -3  218.68    7.20
   4  -9  -3  217.28    7.70
  -4   9   3  213.48    6.30
  -4   9   3  215.68    7.00
   3  -9  -3  150.78    6.10
   3  -9  -3  143.99    5.30
  -3   9   3  135.79    5.00
  -3   9   3  138.19    5.40
   2  -9  -3  335.47    9.30
   2  -9  -3  318.97    7.80
  -2   9   3  336.87    8.30
  -2   9   3  339.57    8.50
   1  -9  -3  478.45   11.60
   1  -9  -3  474.75    9.80
  -1   9   3  470.15   10.50
  -1   9   3  472.15   10.60
   0  -9  -3    2.60    1.00
   0  -9  -3    8.70    3.20
   0   9   3    0.70    1.00
   0   9   3    2.70    1.00
  -1  -9  -3  538.75   12.60
  -1  -9  -3  543.55   10.70
   1   9   3  528.15   11.80
   1   9   3  539.15   11.20
   1   9   3  559.34   10.80
  -2  -9  -3   69.99    3.20
  -2  -9  -3   71.69    4.30
   2   9   3   66.59    2.90
   2   9   3   68.09    3.80
  -3  -9  -3   62.49    4.20
   3   9   3   58.59    3.00
   3   9   3   57.39    3.30
   3   9   3   57.59    4.00
  -4  -9  -3  658.93   15.00
   4   9   3  667.43   14.30
   4   9   3  677.43   14.10
  -5  -9  -3  105.09    5.60
   5   9   3   96.19    5.00
   5   9   3   96.19    4.90
  -6  -9  -3   37.60    4.70
   6   9   3   49.60    4.50
  -7  -9  -3  145.69    7.50
   7   9   3  153.78    7.30
   6 -10  -3   58.59    8.60
  -6  10   3   49.70    5.10
   5 -10  -3   -0.80    2.40
   5 -10  -3    2.70    2.20
  -5  10   3   -0.70    1.30
  -5  10   3    3.10    1.60
   4 -10  -3  171.18    7.00
   4 -10  -3  185.18    7.40
  -4  10   3  181.68    6.10
  -4  10   3  188.08    6.80
   3 -10  -3  350.96   10.20
   3 -10  -3  337.57    8.90
  -3  10   3  347.27    9.30
  -3  10   3  346.87    8.90
   2 -10  -3   22.30    4.00
   2 -10  -3   26.80    3.30
  -2  10   3   22.60    3.30
  -2  10   3   20.50    3.20
   1 -10  -3  374.26    8.40
   1 -10  -3  367.46   10.10
  -1  10   3  357.76    9.00
  -1  10   3  371.66    9.30
   0 -10  -3  530.55   12.80
   0 -10  -3  527.05   10.70
   0  10   3  522.35   11.40
   0  10   3  532.85   12.00
  -1 -10  -3    1.00    1.50
  -1 -10  -3   -0.80    1.10
   1  10   3    0.60    1.10
   1  10   3    0.40    1.00
   1  10   3   -1.10    1.10
  -2 -10  -3  342.77    9.60
  -2 -10  -3  344.47    8.30
   2  10   3  343.97    8.00
   2  10   3  344.07    8.00
   2  10   3  355.16    9.20
  -3 -10  -3  403.86   10.60
   3  10   3  410.96   10.30
   3  10   3  404.86    9.70
   3  10   3  393.26    9.30
  -4 -10  -3   24.10    3.90
   4  10   3   14.50    3.50
   4  10   3   23.40    3.30
  -5 -10  -3   63.39    5.40
   5  10   3   66.79    4.40
   5  10   3   62.89    4.80
  -6 -10  -3   35.20    5.10
   6  10   3   32.80    4.40
   5 -11  -3   71.19    6.30
  -5  11   3   74.69    5.80
   4 -11  -3    5.90    2.30
   4 -11  -3    0.60    2.50
  -4  11   3    3.00    1.70
  -4  11   3    0.90    1.50
   3 -11  -3  139.89    6.90
   3 -11  -3  150.18    6.20
  -3  11   3  137.69    5.80
  -3  11   3  140.39    6.20
   2 -11  -3   74.09    4.60
   2 -11  -3   67.39    5.30
  -2  11   3   67.09    4.50
  -2  11   3   68.89    4.50
   1 -11  -3   62.39    5.00
   1 -11  -3   56.49    3.90
  -1  11   3   61.59    4.30
  -1  11   3   62.39    4.20
   0 -11  -3  331.17    8.00
   0 -11  -3  324.87    9.80
   0  11   3  340.47    9.10
   0  11   3  331.77    8.60
  -1 -11  -3  187.08    7.30
  -1 -11  -3  190.68    5.80
   1  11   3  191.88    6.80
   1  11   3  184.08    6.00
   1  11   3  188.98    5.40
  -2 -11  -3    0.80    1.40
  -2 -11  -3   -0.30    1.60
   2  11   3    1.80    1.30
   2  11   3   -2.10    1.30
   2  11   3    0.00    1.10
  -3 -11  -3   13.60    3.80
   3  11   3    9.10    2.80
   3  11   3    5.80    1.70
  -4 -11  -3  260.67    8.80
   4  11   3  242.78    7.40
   4  11   3  251.27   10.00
  -5 -11  -3    1.60    2.00
   5  11   3    0.20    1.80
   5  11   3    0.90    1.60
  -6 -11  -3   67.39    6.20
   6  11   3   60.49    6.20
   6  11   3   75.49    6.10
   4 -12  -3   16.20    5.60
  -4  12   3   19.80    4.30
  -4  12   3   16.20    4.90
   3 -12  -3   -0.40    2.60
  -3  12   3    0.00    1.60
  -3  12   3   -0.60    1.40
   2 -12  -3  211.48    8.40
  -2  12   3  221.98    7.70
  -2  12   3  225.08    7.80
   1 -12  -3   60.59    5.40
  -1  12   3   66.19    4.70
  -1  12   3   62.09    4.80
   0 -12  -3   15.90    4.50
   0  12   3   18.70    3.80
   0  12   3   12.50    3.60
  -1 -12  -3   22.90    4.40
   1  12   3   20.50    4.30
   1  12   3   29.50    3.80
  -2 -12  -3  134.49    7.10
   2  12   3  137.69    5.40
   2  12   3  138.09    6.40
  -3 -12  -3    2.00    2.10
   3  12   3   -0.60    1.80
  -4 -12  -3   33.20    5.10
   4  12   3   21.30    4.70
  -5 -12  -3   57.09    6.40
   5  12   3   62.69    5.80
   3 -13  -3   36.70    6.50
  -3  13   3   47.80    5.80
  -3  13   3   37.40    5.20
   2 -13  -3   30.70    5.80
  -2  13   3   44.60    5.10
  -2  13   3   37.30    5.10
   1 -13  -3   45.80    5.70
  -1  13   3   33.90    4.80
  -1  13   3   35.70    5.10
   0 -13  -3   37.50    5.20
   0  13   3   31.10    4.60
   0  13   3   34.90    5.00
  -1 -13  -3   23.00    5.10
   1  13   3   15.10    4.30
   1  13   3   16.90    4.90
  -2 -13  -3   80.59    6.40
   2  13   3   95.89    6.20
  -3 -13  -3   38.90    5.80
   3  13   3   27.70    5.70
  -4 -13  -3    4.70    2.40
   4  13   3   -1.00    2.00
   0 -14  -3    7.10    2.50
   0  14   3    1.90    2.10
   0  14   3    7.00    2.20
  -1 -14  -3   41.20    6.00
   1  14   3   31.70    5.60
   3  12  -4  128.99    7.40
   3  12  -4  118.29    6.90
  -3 -12   4  125.29    7.60
  -3 -12   4  125.79    6.20
   2  12  -4   85.49    6.20
  -2 -12   4   73.19    4.60
  -2 -12   4   77.69    6.60
   1  12  -4   20.10    5.20
  -1 -12   4   22.30    5.70
   0  12  -4   14.70    4.40
   0  12  -4   24.70    5.00
   0 -12   4   12.00    2.90
  -1  12  -4  120.69    6.10
  -1  12  -4  139.69    6.90
   1 -12   4  128.39    7.40
  -2  12  -4    4.50    2.00
  -2  12  -4    2.30    1.90
   2 -12   4    3.60    2.60
   4  11  -4  135.59    6.60
   4  11  -4  134.99    7.40
  -4 -11   4  129.09    6.00
  -4 -11   4  138.79    7.10
   3  11  -4   51.09    4.90
   3  11  -4   54.49    5.30
  -3 -11   4   54.59    4.40
  -3 -11   4   50.89    5.30
   2  11  -4    6.30    1.80
  -2 -11   4   14.50    5.30
  -2 -11   4   11.60    3.30
   1  11  -4  277.47    7.60
   1  11  -4  275.47    8.70
  -1 -11   4  284.07   10.40
  -1 -11   4  264.47    7.60
   0  11  -4   71.59    4.60
   0  11  -4   81.19    5.30
   0 -11   4   91.39    6.50
  -1  11  -4   16.60    3.80
  -1  11  -4   17.30    4.00
  -2  11  -4   69.79    5.20
  -2  11  -4   67.79    4.80
   2 -11   4   72.19    6.00
  -3  11  -4   82.89    5.60
  -3  11  -4   89.29    5.80
   3 -11   4   93.39    7.60
  -4  11  -4   61.69    5.50
   4 -11   4   70.59    8.30
   5  10  -4   34.20    6.60
  -5 -10   4   23.70    4.40
   4  10  -4   -0.30    1.70
   4  10  -4    1.30    2.00
  -4 -10   4    0.00    1.90
  -4 -10   4    1.00    1.60
   3  10  -4  385.06   10.10
   3  10  -4  376.66   11.30
  -3 -10   4  370.26    9.70
  -3 -10   4  381.76   10.80
   2  10  -4   69.89    4.50
  -2 -10   4   60.99    5.00
  -2 -10   4   54.79    3.90
   1  10  -4   10.30    2.90
   1  10  -4    4.80    1.50
  -1 -10   4    5.50    1.40
  -1 -10   4   12.00    3.90
   0  10  -4  104.49    5.20
   0  10  -4  114.19    4.70
   0 -10   4  105.59    4.20
   0 -10   4  105.69    5.80
  -1  10  -4  264.17    8.00
  -1  10  -4  268.07    7.70
   1 -10   4  274.27    8.80
  -2  10  -4  126.69    5.40
   2 -10   4  129.89    6.80
  -3  10  -4   27.60    4.00
  -3  10  -4   22.20    3.80
   3 -10   4   38.50    6.40
  -4  10  -4   47.40    4.90
  -4  10  -4   41.00    4.50
   4 -10   4   52.59    6.50
  -5  10  -4   52.89    5.10
  -5  10  -4   50.59    5.40
   5 -10   4   49.80    7.20
   6   9  -4    3.40    2.40
  -6  -9   4    0.50    1.80
   5   9  -4   14.10    4.70
   5   9  -4   27.20    4.20
  -5  -9   4   20.00    3.80
   4   9  -4   39.50    3.90
   4   9  -4   31.40    4.40
  -4  -9   4   30.20    4.40
  -4  -9   4   39.50    3.70
   3   9  -4   17.50    3.90
   3   9  -4   11.10    3.30
  -3  -9   4   10.20    3.10
  -3  -9   4   15.40    3.80
   2   9  -4  691.23   13.20
   2   9  -4  698.13   14.80
  -2  -9   4  679.03   14.20
  -2  -9   4  687.63   15.40
   1   9  -4    1.60    1.10
   1   9  -4    1.20    1.00
  -1  -9   4    0.80    1.60
  -1  -9   4   -0.60    1.00
   0   9  -4    1.90    1.10
   0   9  -4    0.30    1.10
   0  -9   4    6.30    2.40
   0  -9   4    0.80    1.60
  -1   9  -4  338.17    8.40
  -1   9  -4  334.67    8.70
   1  -9   4  306.37    9.30
   1  -9   4  348.17    9.70
  -2   9  -4  246.68    7.30
  -2   9  -4  237.28    7.10
   2  -9   4  253.07    8.40
  -3   9  -4   10.70    3.20
  -3   9  -4    9.60    3.10
  -4   9  -4  173.48    6.10
  -4   9  -4  157.78    6.50
   4  -9   4  169.68    9.10
  -5   9  -4   45.10    4.40
  -5   9  -4   46.50    5.00
   5  -9   4   59.59    6.80
   7   8  -4   33.90    6.30
  -7  -8   4   50.09    5.30
   6   8  -4  162.08    7.80
   6   8  -4  161.68    7.70
  -6  -8   4  165.18    6.80
   5   8  -4    3.10    1.40
   5   8  -4   -0.60    2.70
  -5  -8   4    9.10    3.20
   4   8  -4  267.97    7.50
   4   8  -4  270.37    8.60
  -4  -8   4  274.67    8.50
  -4  -8   4  269.77    7.70
   3   8  -4  222.78    6.60
   3   8  -4  222.18    7.50
  -3  -8   4  223.58    6.60
  -3  -8   4  221.28    7.40
   2   8  -4   18.90    2.00
   2   8  -4   18.60    2.90
  -2  -8   4   21.50    2.70
  -2  -8   4   19.70    3.40
   1   8  -4    8.60    2.10
   1   8  -4    6.90    2.40
  -1  -8   4    6.30    2.10
  -1  -8   4    3.80    1.50
   0   8  -4   51.39    3.30
   0   8  -4   50.69    3.00
   0  -8   4   54.39    3.80
   0  -8   4   47.80    2.60
  -1   8  -4  105.29    4.20
  -1   8  -4  106.99    4.30
   1  -8   4  100.09    5.20
   1  -8   4  100.19    3.40
  -2   8  -4 1165.38   22.30
  -2   8  -4 1190.38   22.30
   2  -8   4 1162.18   23.20
   2  -8   4 1147.59   20.70
  -3   8  -4  129.89    5.30
  -3   8  -4  127.99    4.90
   3  -8   4  127.19    6.20
  -4   8  -4    4.40    1.40
  -4   8  -4    9.50    2.80
   4  -8   4    3.60    1.90
  -5   8  -4  139.19    5.50
  -5   8  -4  132.59    6.20
   5  -8   4  146.49    7.80
  -6   8  -4   70.49    5.40
   6  -8   4   75.39    7.50
   7   7  -4   -0.80    2.20
   6   7  -4  247.08    8.30
   6   7  -4  236.98    8.70
  -6  -7   4  248.78    8.00
   5   7  -4    9.60    3.10
   5   7  -4   15.20    3.70
  -5  -7   4    7.50    1.60
   4   7  -4   57.79    4.50
   4   7  -4   62.99    3.60
  -4  -7   4   60.69    4.50
  -4  -7   4   60.19    3.70
   3   7  -4  539.75   11.50
   3   7  -4  538.25   12.70
  -3  -7   4  533.05   12.40
  -3  -7   4  531.15   11.50
   2   7  -4  762.72   13.70
   2   7  -4  753.02   15.00
  -2  -7   4  739.73   15.70
  -2  -7   4  746.63   14.70
   1   7  -4   30.90    2.10
   1   7  -4   32.60    2.70
  -1  -7   4   36.70    2.30
  -1  -7   4   35.30    3.20
   0   7  -4   33.60    2.60
   0   7  -4   35.30    2.40
   0  -7   4   33.30    3.20
   0  -7   4   36.60    2.10
  -1   7  -4  114.89    4.10
  -1   7  -4  114.29    4.00
   1  -7   4  111.29    3.30
   1  -7   4  111.89    5.00
  -2   7  -4   21.30    2.80
  -2   7  -4   26.90    2.70
   2  -7   4   32.80    2.10
   2  -7   4   27.30    3.60
  -3   7  -4 1235.28   22.90
  -3   7  -4 1226.88   23.30
   3  -7   4 1223.18   24.30
   3  -7   4 1212.88   21.60
  -4   7  -4    3.40    1.10
  -4   7  -4    3.60    1.30
   4  -7   4    5.70    2.00
  -5   7  -4    1.30    1.00
   5  -7   4    0.40    2.00
  -6   7  -4  297.47    9.20
  -6   7  -4  290.07    7.80
   6  -7   4  310.67   11.10
  -7   7  -4  103.89    6.10
   7  -7   4  124.49    8.80
   7   6  -4   79.29    6.20
  -7  -6   4   87.19    5.40
   6   6  -4   17.70    4.60
   6   6  -4   16.90    4.10
  -6  -6   4   18.00    3.40
   5   6  -4  351.76    9.80
   5   6  -4  333.97    8.00
  -5  -6   4  351.16    9.10
   4   6  -4  364.96    8.40
   4   6  -4  365.76    9.80
  -4  -6   4  379.96    9.60
  -4  -6   4  362.16    8.90
   3   6  -4  563.54   12.70
   3   6  -4  568.44   11.60
  -3  -6   4  571.54   11.80
  -3  -6   4  557.34   12.50
   2   6  -4  720.43   14.10
   2   6  -4  735.83   13.00
  -2  -6   4  693.83   14.80
  -2  -6   4  736.83   14.00
   1   6  -4 2165.38   36.60
   1   6  -4 2086.09   37.40
  -1  -6   4 2173.58   36.80
  -1  -6   4 2107.49   38.00
   0   6  -4   15.50    1.90
   0   6  -4   16.10    2.00
   0  -6   4   14.00    1.50
   0  -6   4   14.70    2.50
  -1   6  -4  822.52   14.90
  -1   6  -4  817.52   15.60
  -1   6  -4  824.02   15.80
   1  -6   4  843.62   14.70
   1  -6   4  801.02   16.50
  -2   6  -4  346.17    8.00
  -2   6  -4  338.77    7.90
   2  -6   4  332.47    8.80
   2  -6   4  328.37    6.60
   2  -6   4  348.47    6.70
  -3   6  -4   25.60    2.90
  -3   6  -4   29.00    2.60
   3  -6   4   30.20    3.80
   3  -6   4   32.40    2.10
  -4   6  -4  194.98    6.10
  -4   6  -4  192.38    5.50
   4  -6   4  194.18    7.10
   4  -6   4  186.48    4.80
  -5   6  -4    1.00    1.10
  -5   6  -4    8.60    2.30
   5  -6   4    2.80    1.80
  -6   6  -4  116.69    4.30
  -6   6  -4  107.79    5.30
   6  -6   4  112.99    7.00
  -7   6  -4  335.97   10.10
   7  -6   4  342.17   12.00
   8   5  -4    9.00    2.90
   7   5  -4  416.06   12.20
  -7  -5   4  400.66   11.00
   6   5  -4  499.55   13.00
  -6  -5   4  507.45   12.10
   5   5  -4  114.69    5.50
  -5  -5   4  118.29    4.70
   4   5  -4  197.48    6.50
   4   5  -4  198.98    5.30
  -4  -5   4  205.28    6.50
  -4  -5   4  193.18    5.80
   3   5  -4  281.67    7.60
   3   5  -4  284.67    6.60
  -3  -5   4  291.77    7.00
   2   5  -4   73.79    2.60
   2   5  -4   80.09    2.30
   2   5  -4   76.59    3.10
  -2  -5   4   74.29    3.60
  -2  -5   4   80.79    2.90
  -2  -5   4   75.09    2.40
   1   5  -4 1916.01   33.00
   1   5  -4 1952.60   33.70
  -1  -5   4 1895.81   34.30
  -1  -5   4 1944.21   33.20
   0   5  -4  541.05   10.60
   0   5  -4  545.05   11.00
   0   5  -4  553.04   10.60
   0  -5   4  533.55   11.50
   0  -5   4  570.24   10.20
  -1   5  -4   59.69    3.00
  -1   5  -4   70.09    2.30
  -1   5  -4   60.69    2.60
   1  -5   4   61.19    3.20
   1  -5   4   65.69    1.90
  -2   5  -4  636.34   12.60
  -2   5  -4  634.04   12.40
   2  -5   4  612.84   13.20
  -3   5  -4 2065.39   37.60
  -3   5  -4 2178.28   37.30
   3  -5   4 2147.19   38.60
  -4   5  -4    2.10    1.10
  -4   5  -4    1.60    0.90
   4  -5   4   12.30    3.60
   4  -5   4    4.20    0.90
  -5   5  -4  124.39    5.00
  -5   5  -4  122.39    4.10
   5  -5   4  119.79    3.80
   5  -5   4  119.29    6.10
  -6   5  -4  139.09    5.50
  -6   5  -4  133.49    4.30
   6  -5   4  129.19    6.70
  -7   5  -4    4.70    1.70
   7  -5   4    1.80    2.40
   8   4  -4  241.08   10.00
  -8  -4   4  246.18    8.90
   7   4  -4    3.40    2.10
  -7  -4   4    4.00    1.70
   6   4  -4   56.29    4.60
   5   4  -4  371.76    9.70
   5   4  -4  349.07    7.40
  -5  -4   4  351.06    8.80
   4   4  -4   23.20    2.70
   4   4  -4   23.90    2.00
  -4  -4   4   24.10    2.80
  -4  -4   4   23.90    2.40
   3   4  -4 1104.99   19.80
   3   4  -4 1089.49   21.10
  -3  -4   4 1120.19   21.00
  -3  -4   4 1110.99   20.40
   2   4  -4 1229.38   21.50
   2   4  -4 1168.58   20.70
   2   4  -4 1208.78   20.70
  -2  -4   4 1229.68   20.80
  -2  -4   4 1228.18   21.60
  -2  -4   4 1175.18   22.20
   1   4  -4 1342.47   23.30
   1   4  -4 1362.46   23.90
  -1  -4   4 1341.97   24.40
  -1  -4   4 1355.86   23.50
   0   4  -4  871.41   16.10
   0   4  -4  878.71   15.40
   0   4  -4  867.11   15.80
   0  -4   4  870.11   16.60
   0  -4   4  882.71   15.20
  -1   4  -4 1375.36   23.60
  -1   4  -4 1328.77   23.60
   1  -4   4 1273.17   24.50
  -2   4  -4  208.88    5.30
   2  -4   4  208.78    6.00
  -3   4  -4  773.52   14.80
  -3   4  -4  753.52   14.30
   3  -4   4  741.83   15.50
  -4   4  -4 1922.21   33.10
  -4   4  -4 1846.62   33.80
   4  -4   4 1902.91   34.90
   4  -4   4 1884.21   32.40
  -5   4  -4   20.60    2.30
  -5   4  -4   18.20    2.70
  -5   4  -4   19.90    2.20
   5  -4   4   19.00    2.00
   5  -4   4   15.50    3.60
  -6   4  -4   23.90    3.50
  -6   4  -4   30.70    3.30
  -6   4  -4   21.70    2.40
   6  -4   4   27.80    2.60
   6  -4   4   15.80    4.20
  -7   4  -4   34.00    6.00
   7  -4   4   24.90    5.30
   8  -4   4   -0.60    2.80
   8   3  -4  124.79    7.70
  -8  -3   4  129.29    6.60
   6   3  -4    0.10    1.30
  -6  -3   4    2.30    1.30
   5   3  -4   47.00    3.60
   5   3  -4   46.50    2.20
  -5  -3   4   49.50    3.10
   4   3  -4 1004.90   17.50
   4   3  -4  975.50   19.40
  -4  -3   4  966.50   18.60
   3   3  -4  455.75    8.90
   3   3  -4  458.75   10.10
  -3  -3   4  457.15   10.00
   2   3  -4 1249.57   21.40
   2   3  -4 1263.67   22.00
   2   3  -4 1249.68   21.40
  -2  -3   4 1229.18   22.10
  -2  -3   4 1265.67   22.80
   1   3  -4    1.30    0.50
   1   3  -4    3.60    1.20
   1   3  -4    1.90    0.50
  -1  -3   4    0.50    0.40
  -1  -3   4    1.40    0.70
   0   3  -4  510.75    9.00
   0   3  -4  493.45    9.70
   0   3  -4  506.05    9.50
   0  -3   4  491.65   10.10
   0  -3   4  507.95    8.90
  -1   3  -4  334.87    7.00
  -1   3  -4  329.97    6.90
  -2   3  -4  434.76    8.80
  -2   3  -4  435.56    8.60
   2  -3   4  408.96    9.30
  -3   3  -4    2.00    0.60
  -3   3  -4    0.70    0.70
   3  -3   4    1.70    1.10
  -4   3  -4  748.43   13.40
  -4   3  -4  730.03   14.60
  -4   3  -4  752.52   13.90
   4  -3   4  750.22   13.50
   4  -3   4  711.33   15.50
  -5   3  -4  285.47    7.20
  -5   3  -4  265.17    6.20
   5  -3   4  264.27    8.10
   5  -3   4  257.17    6.10
  -6   3  -4   29.90    3.10
  -6   3  -4   19.60    2.80
  -6   3  -4   29.20    3.00
   6  -3   4   28.70    4.40
   6  -3   4   27.70    2.50
  -7   3  -4  116.99    5.10
  -7   3  -4  110.69    5.00
   7  -3   4  111.19    6.70
   7  -3   4  115.19    4.50
  -8   3  -4  220.18    7.50
   8  -3   4  224.18    9.90
   8   2  -4    5.30    2.50
  -8  -2   4    2.60    1.90
   7   2  -4   50.39    4.90
  -7  -2   4   52.59    4.30
   6   2  -4  498.65   12.30
  -6  -2   4  490.95   11.50
   5   2  -4    6.50    1.50
  -5  -2   4    6.00    2.10
   4   2  -4  245.08    4.80
   4   2  -4  241.18    6.80
   4   2  -4  247.08    5.00
  -4  -2   4  245.78    4.80
  -4  -2   4  238.08    6.20
   3   2  -4 1261.57   20.80
   3   2  -4 1275.47   21.10
   3   2  -4 1073.39   24.90
   3   2  -4 1251.67   20.80
  -3  -2   4 1125.09   24.70
  -3  -2   4 1267.17   20.80
  -3  -2   4 1248.48   21.90
   2   2  -4   96.89    2.50
   2   2  -4   95.79    2.40
   2   2  -4   95.69    3.40
   2   2  -4   94.79    2.70
  -2  -2   4   93.69    3.20
  -2  -2   4   88.39    2.80
   1   2  -4  254.07    5.20
   1   2  -4  255.67    5.40
   1   2  -4  258.07    5.20
   1   2  -4  258.87    5.20
  -1  -2   4  269.47    5.30
  -1  -2   4  256.77    5.20
   0   2  -4 1805.92   30.30
   0   2  -4 1777.22   30.90
   0   2  -4 1839.22   31.10
   0  -2   4 1789.42   30.30
   0  -2   4 1853.31   31.50
  -1   2  -4   60.89    2.20
  -1   2  -4   59.59    2.10
   1  -2   4   58.49    2.50
  -2   2  -4 2687.93   44.70
  -2   2  -4 2605.44   44.90
   2  -2   4 2600.94   45.40
  -3   2  -4  739.83   12.70
  -3   2  -4  732.03   13.40
  -3   2  -4  699.23   14.60
   3  -2   4  742.03   12.60
   3  -2   4  698.13   14.70
  -4   2  -4    9.80    1.50
  -4   2  -4    7.90    1.40
  -4   2  -4   10.80    1.80
   4  -2   4   12.10    2.70
  -5   2  -4  840.42   15.30
  -5   2  -4  834.22   16.30
  -5   2  -4  813.22   15.40
   5  -2   4  825.12   17.50
  -6   2  -4  143.19    4.70
  -6   2  -4  140.79    3.90
  -6   2  -4  147.19    5.10
   6  -2   4  142.09    6.30
  -7   2  -4    2.80    1.50
  -7   2  -4    1.30    1.20
   8  -2   4   75.49    6.60
   8   1  -4  155.28    7.90
  -8  -1   4  151.28    6.90
   7   1  -4   51.29    4.90
  -7  -1   4   47.40    4.20
   6   1  -4  351.86    9.70
  -6  -1   4  338.87    7.20
  -6  -1   4  353.06    9.10
   5   1  -4  143.09    5.40
  -5  -1   4  152.78    3.70
  -5  -1   4  152.78    5.00
   4   1  -4   52.09    2.10
   4   1  -4   50.59    3.00
   4   1  -4   53.99    1.70
  -4  -1   4   56.79    1.90
  -4  -1   4   51.69    2.80
   3   1  -4 1911.71   32.30
   3   1  -4 1896.11   32.20
   3   1  -4 1930.91   33.70
  -3  -1   4 1904.71   33.20
  -3  -1   4 1902.01   32.40
   2   1  -4 3301.27   54.19
   2   1  -4 3203.18   54.99
   2   1  -4 3304.57   54.19
  -2  -1   4 3181.78   54.09
  -2  -1   4 3186.38   54.59
  -2  -1   4 3240.38   54.89
   1   1  -4  107.79    2.80
   1   1  -4  111.39    2.80
   1   1  -4  109.69    2.70
   1   1  -4  104.49    2.70
  -1  -1   4  109.49    2.70
  -1  -1   4  106.59    3.00
  -1  -1   4  109.29    2.70
   0   1  -4   12.60    1.10
   0   1  -4   12.40    0.80
   0   1  -4   11.60    1.10
   0   1  -4   11.60    1.10
   0   1  -4   11.90    1.50
   0  -1   4   10.50    1.30
   0  -1   4   11.50    0.80
   0  -1   4   11.00    1.10
  -1   1  -4 2659.43   46.10
  -1   1  -4 2747.43   46.10
   1  -1   4 2786.22   46.50
  -2   1  -4  514.05    9.70
  -2   1  -4  511.75    9.90
   2  -1   4  510.35   10.30
  -3   1  -4 1079.79   19.00
  -3   1  -4 1087.49   19.80
  -3   1  -4 1122.79   19.50
   3  -1   4 1124.09   19.00
   3  -1   4 1097.79   20.50
  -4   1  -4    5.80    1.70
  -4   1  -4    2.50    0.70
  -4   1  -4    4.00    1.30
   4  -1   4    3.00    1.10
  -5   1  -4  183.98    5.30
  -5   1  -4  192.08    4.60
  -5   1  -4  186.08    4.80
   5  -1   4  183.98    6.30
  -6   1  -4  890.91   17.20
  -6   1  -4  877.11   16.80
  -6   1  -4  857.91   15.90
   6  -1   4  885.01   18.90
  -7   1  -4  257.97    7.10
  -7   1  -4  253.97    7.10
   7  -1   4  251.37    8.90
  -8   1  -4   17.30    4.10
  -8   1  -4   11.90    3.30
   8  -1   4   10.40    2.60
   8   0  -4  224.98    9.20
  -8   0   4  236.88    8.20
   7   0  -4  530.75   13.40
  -7   0   4  499.95   10.50
  -7   0   4  509.45   12.40
   6   0  -4  545.85   13.10
  -6   0   4  546.05   10.90
  -6   0   4  560.14   12.50
   5   0  -4  139.79    5.20
  -5   0   4  140.39    4.90
  -5   0   4  147.29    3.90
   4   0  -4    3.40    1.00
  -4   0   4    2.90    0.90
   3   0  -4    9.50    1.60
   3   0  -4   10.50    1.00
  -3   0   4   12.50    1.10
  -3   0   4   10.10    1.60
   2   0  -4  695.23   13.00
   2   0  -4  723.83   12.80
   2   0  -4  746.63   13.60
  -2   0   4  748.23   13.50
  -2   0   4  728.63   13.00
  -2   0   4  721.93   13.30
   1   0  -4 9746.72  148.89
   1   0  -4 9999.00  148.89
   1   0  -4 9757.32  148.99
  -1   0   4 8376.76  148.79
  -1   0   4 8028.00  148.79
  -1   0   4 8033.70  148.69
   0   0  -4   51.99    1.50
   0   0  -4   47.00    1.80
   0   0  -4   48.30    1.50
   0   0  -4   46.40    1.70
   0   0   4   47.40    1.70
   0   0   4   49.30    1.80
   0   0   4   50.59    1.50
  -1   0  -4 2037.00   34.90
  -1   0  -4 2018.60   34.80
  -1   0  -4 2085.19   34.30
   1   0   4 2049.89   34.90
   1   0   4 2052.19   34.20
  -2   0  -4 4285.17   72.39
  -2   0  -4 4162.68   71.69
   2   0   4 4525.45   71.79
   2   0   4 4300.17   72.69
  -3   0  -4   22.90    1.40
  -3   0  -4   21.30    1.60
   3   0   4   25.00    1.50
   3   0   4   21.90    2.10
  -4   0  -4  176.98    4.30
  -4   0  -4  173.88    5.20
   4   0   4  178.98    5.50
  -5   0  -4  540.15   10.90
  -5   0  -4  557.74   11.20
  -5   0  -4  553.34   10.40
   5   0   4  537.75   12.40
  -6   0  -4   23.80    2.00
  -6   0  -4   26.70    2.70
  -6   0  -4   26.30    2.60
   6   0   4   30.90    4.00
  -7   0  -4  132.19    4.70
  -7   0  -4  126.49    5.10
   7   0   4  125.29    6.40
  -8   0  -4  156.58    5.60
  -8   0  -4  147.89    6.10
   8   0   4  153.08    7.80
   8  -1  -4   39.40    5.60
  -8   1   4   25.70    4.60
   7  -1  -4  408.66   11.20
  -7   1   4  377.46    8.80
  -7   1   4  402.26   10.50
   6  -1  -4 1130.59   22.70
  -6   1   4 1131.59   22.10
  -6   1   4 1125.19   20.70
   5  -1  -4  716.33   15.20
  -5   1   4  754.42   13.90
  -5   1   4  732.43   14.90
   4  -1  -4  341.77    8.00
  -4   1   4  334.07    7.80
  -4   1   4  340.27    7.10
   3  -1  -4 2466.65   43.30
  -3   1   4 2579.94   43.40
  -3   1   4 2501.25   42.80
   2  -1  -4 1592.24   27.80
  -2   1   4 1630.94   27.90
  -2   1   4 1589.94   27.60
   1  -1  -4 3160.08   52.89
   1  -1  -4 3195.88   52.59
   1  -1  -4 3155.88   52.89
   1  -1  -4 3149.88   52.69
   1  -1  -4 3160.98   52.99
  -1   1   4 3074.49   52.79
  -1   1   4 3176.08   52.89
  -1   1   4 3099.39   52.59
   0  -1  -4   41.80    1.50
   0  -1  -4   35.20    1.50
   0  -1  -4   37.80    1.50
   0  -1  -4   35.80    1.60
   0   1   4   35.30    1.40
   0   1   4   38.90    1.30
  -1  -1  -4  183.98    4.10
  -1  -1  -4  185.98    4.00
   1   1   4  189.38    4.20
   1   1   4  184.18    3.90
   1   1   4  179.18    4.00
  -2  -1  -4 2328.87   39.90
  -2  -1  -4 2379.16   40.20
   2   1   4 2333.07   40.40
   2   1   4 2426.06   40.00
  -3  -1  -4 3806.02   64.69
  -3  -1  -4 3874.61   64.49
   3   1   4 3847.52   65.29
  -4  -1  -4  718.53   13.50
  -4  -1  -4  720.13   13.50
   4   1   4  720.03   14.50
  -5  -1  -4   24.30    2.30
  -5  -1  -4   22.90    2.00
   5   1   4   20.30    2.80
  -6  -1  -4  771.42   14.90
  -6  -1  -4  762.72   15.20
  -6  -1  -4  754.82   14.00
   6   1   4  780.62   16.70
  -7  -1  -4    2.00    1.00
  -7  -1  -4    0.60    1.40
   7   1   4    1.20    1.70
  -8  -1  -4  118.19    5.70
  -8  -1  -4  103.29    4.40
   8   1   4  114.99    6.90
   8  -2  -4  149.69    7.80
  -8   2   4  142.39    6.30
  -8   2   4  150.88    6.90
   7  -2  -4   35.60    4.60
  -7   2   4   34.10    3.90
  -7   2   4   32.90    3.10
   6  -2  -4   59.89    4.50
  -6   2   4   62.89    4.00
  -6   2   4   64.29    3.10
   5  -2  -4  611.94   13.30
  -5   2   4  617.94   13.00
  -5   2   4  607.84   12.10
   4  -2  -4  470.65   11.40
  -4   2   4  503.55    9.80
  -4   2   4  485.25   10.40
   3  -2  -4   42.40    2.30
   3  -2  -4   42.20    1.60
  -3   2   4   49.20    2.40
  -3   2   4   38.00    2.00
   2  -2  -4 3758.52   63.19
   2  -2  -4 3730.33   62.59
   2  -2  -4 3767.62   62.39
   2  -2  -4 3754.42   62.69
  -2   2   4 3684.23   62.59
  -2   2   4 3723.53   62.89
  -2   2   4 3732.93   63.09
   1  -2  -4 5290.37   86.99
   1  -2  -4 5202.88   87.79
   1  -2  -4 5023.50   86.99
  -1   2   4 5125.19   87.59
  -1   2   4 5610.24   87.79
   0  -2  -4   35.70    1.10
   0  -2  -4   36.10    1.80
   0   2   4   37.50    1.10
   0   2   4   30.50    1.50
   0   2   4   37.20    1.60
  -1  -2  -4   18.30    1.10
  -1  -2  -4   17.30    1.20
  -1  -2  -4   23.00    1.60
   1   2   4   21.30    1.10
   1   2   4   17.80    1.40
   1   2   4   17.10    1.20
  -2  -2  -4  134.59    3.40
  -2  -2  -4  132.39    3.40
  -2  -2  -4  131.49    3.30
   2   2   4  128.39    3.40
   2   2   4  129.49    3.40
  -3  -2  -4  870.91   16.00
  -3  -2  -4  878.31   15.90
   3   2   4  893.61   16.40
  -4  -2  -4 3558.84   59.89
  -4  -2  -4 3588.04   59.59
   4   2   4 3434.06   61.89
  -5  -2  -4   79.09    2.80
  -5  -2  -4   79.39    3.40
   5   2   4   79.29    4.10
  -6  -2  -4   55.49    3.20
  -6  -2  -4   52.39    2.70
   6   2   4   48.10    4.10
  -7  -2  -4  315.67    8.30
  -7  -2  -4  307.07    7.50
   7   2   4  315.67    9.70
  -8  -2  -4  124.79    5.90
   8   2   4  123.79    7.30
   8  -3  -4    1.30    1.90
   8  -3  -4    0.40    2.40
  -8   3   4    0.70    2.10
  -8   3   4    1.70    1.30
   7  -3  -4  272.27    8.60
   7  -3  -4  282.87    9.20
  -7   3   4  273.87    7.40
  -7   3   4  274.27    8.50
   6  -3  -4   35.80    3.50
   6  -3  -4   31.10    3.90
  -6   3   4   36.80    3.60
  -6   3   4   40.00    2.90
   5  -3  -4   19.70    2.60
   5  -3  -4   17.40    3.00
  -5   3   4   23.70    2.80
  -5   3   4   21.50    2.20
   4  -3  -4  808.32   16.10
   4  -3  -4  802.82   14.20
  -4   3   4  821.82   15.50
  -4   3   4  821.42   16.00
   3  -3  -4   43.20    1.90
   3  -3  -4   46.30    2.30
  -3   3   4   40.60    2.20
   2  -3  -4 2239.38   35.90
   2  -3  -4 1991.60   36.00
   2  -3  -4 2067.19   35.30
  -2   3   4 2068.99   36.00
  -2   3   4 2072.19   35.20
  -2   3   4 2004.90   35.70
   1  -3  -4 1165.08   21.30
   1  -3  -4 1195.78   20.10
   1  -3  -4 1202.28   20.10
  -1   3   4 1203.38   20.10
  -1   3   4 1177.88   21.00
   0  -3  -4 3105.29   52.99
   0   3   4 3131.69   52.69
  -1  -3  -4   30.40    1.90
  -1  -3  -4   32.90    1.20
   1   3   4   29.80    1.60
   1   3   4   32.30    1.20
  -2  -3  -4  146.19    4.00
  -2  -3  -4  152.68    3.60
  -2  -3  -4  147.39    3.70
   2   3   4  149.09    3.60
   2   3   4  144.19    3.60
  -3  -3  -4  503.45   10.20
  -3  -3  -4  513.15    9.70
   3   3   4  509.75   10.10
  -4  -3  -4   81.09    4.10
  -4  -3  -4   88.89    2.70
  -5  -3  -4  108.69    3.20
  -5  -3  -4  107.29    4.10
   5   3   4  109.69    4.50
  -6  -3  -4   69.79    3.70
  -6  -3  -4   66.49    3.40
   6   3   4   63.59    4.40
  -7  -3  -4   95.59    4.70
  -7  -3  -4   91.09    3.60
   7   3   4   93.39    5.70
  -8  -3  -4  178.78    7.80
   8   3   4  168.88    8.00
   8  -4  -4   16.40    5.80
   8  -4  -4   27.70    5.00
  -8   4   4   30.90    5.10
  -8   4   4   41.10    4.30
   7  -4  -4   42.00    4.50
   7  -4  -4   41.60    4.90
  -7   4   4   50.09    4.40
  -7   4   4   45.90    3.60
   6  -4  -4  350.16    9.60
   6  -4  -4  353.76    9.90
  -6   4   4  355.16    8.70
  -6   4   4  352.06    9.40
   5  -4  -4    5.20    1.50
   5  -4  -4    9.20    2.50
  -5   4   4    9.10    2.20
  -5   4   4    8.70    2.70
   4  -4  -4  166.18    5.30
   4  -4  -4  165.38    6.20
  -4   4   4  166.08    4.90
  -4   4   4  168.68    5.30
   3  -4  -4  947.71   18.30
   3  -4  -4  974.40   17.70
  -3   4   4  961.90   18.20
  -3   4   4  956.50   17.80
   2  -4  -4  556.74   10.10
   2  -4  -4  510.75   10.80
  -2   4   4  533.85    9.90
  -2   4   4  525.55   10.10
  -2   4   4  531.15   10.50
   1  -4  -4  287.37    6.80
  -1   4   4  294.87    6.40
  -1   4   4  305.07    5.40
  -1   4   4  297.87    6.30
   0  -4  -4 2198.98   38.10
   0   4   4 2154.98   37.50
   0   4   4 2221.68   37.60
  -1  -4  -4   17.90    2.00
   1   4   4   19.90    1.60
  -2  -4  -4  244.68    5.20
  -2  -4  -4  250.47    6.00
   2   4   4  252.97    5.50
   2   4   4  252.67    5.20
  -3  -4  -4  658.83   13.10
  -3  -4  -4  667.93   12.30
   3   4   4  666.03   12.70
   3   4   4  667.23   12.30
  -4  -4  -4  237.78    5.30
  -4  -4  -4  235.88    6.20
  -5  -4  -4  133.19    4.80
  -5  -4  -4  135.79    3.60
   5   4   4  136.49    5.00
  -6  -4  -4   38.90    3.40
  -6  -4  -4   36.70    2.20
   6   4   4   38.40    3.80
  -7  -4  -4    0.50    1.40
   7   4   4   -0.20    1.60
  -8  -4  -4  139.69    6.60
   8   4   4  149.29    7.40
   8  -5  -4  107.99    7.80
   8  -5  -4  104.39    6.60
  -8   5   4  105.59    6.90
  -8   5   4  125.29    5.70
   7  -5  -4  366.36   10.80
  -7   5   4  368.96    9.40
  -7   5   4  305.17   14.20
   6  -5  -4   34.60    3.80
   6  -5  -4   33.90    4.40
  -6   5   4   30.30    3.20
  -6   5   4   32.60    3.80
   5  -5  -4  277.97    7.90
   5  -5  -4  277.17    8.00
  -5   5   4  278.77    7.80
  -5   5   4  278.57    7.40
   4  -5  -4  604.94   13.20
   4  -5  -4  630.34   12.90
  -4   5   4  609.54   13.00
  -4   5   4  619.64   12.70
   3  -5  -4  537.25   11.80
   3  -5  -4  567.04   11.20
  -3   5   4  572.64   10.80
  -3   5   4  543.45   11.40
   2  -5  -4  969.00   18.80
   2  -5  -4 1010.60   17.50
  -2   5   4  953.20   18.00
  -2   5   4  982.60   17.70
  -2   5   4  962.00   17.20
   1  -5  -4   27.90    2.40
  -1   5   4   26.40    1.80
  -1   5   4   30.70    1.90
   0  -5  -4  104.79    3.80
   0   5   4  107.79    3.20
   0   5   4  100.59    3.30
  -1  -5  -4 3794.82   64.49
   1   5   4 3831.42   63.99
   1   5   4 3700.33   63.69
  -2  -5  -4   49.70    3.30
   2   5   4   48.00    2.40
   2   5   4   47.80    1.90
   2   5   4   52.79    2.20
   2   5   4   49.60    1.90
  -3  -5  -4  160.38    5.00
  -3  -5  -4  161.38    4.00
   3   5   4  157.38    4.00
   3   5   4  160.78    4.30
  -4  -5  -4  853.51   16.80
  -4  -5  -4  883.71   15.50
   4   5   4  828.72   17.50
  -5  -5  -4  737.83   13.60
  -5  -5  -4  722.83   15.20
   5   5   4  755.62   15.30
  -6  -5  -4  348.87    7.30
  -6  -5  -4  353.06    9.30
   6   5   4  363.16    9.60
  -7  -5  -4  119.39    5.50
   7   5   4  125.49    6.10
  -8  -5  -4   69.79    5.10
   8   5   4   58.79    5.90
   7  -6  -4  294.47   10.00
   7  -6  -4  295.27    9.60
  -7   6   4  307.77    8.90
  -7   6   4  312.77    9.60
   6  -6  -4  250.57    8.10
   6  -6  -4  239.88    8.30
  -6   6   4  244.78    7.90
  -6   6   4  241.88    7.40
   5  -6  -4   96.79    5.00
   5  -6  -4   99.19    4.90
  -5   6   4  107.19    4.50
   4  -6  -4    2.00    1.30
   4  -6  -4    1.20    1.10
  -4   6   4    0.10    0.70
  -4   6   4   -0.10    0.80
   3  -6  -4  879.61   17.80
   3  -6  -4  886.11   16.80
  -3   6   4  914.31   16.60
  -3   6   4  890.61   17.30
   2  -6  -4   87.99    3.00
   2  -6  -4   84.19    3.90
  -2   6   4   82.19    3.20
  -2   6   4   84.69    3.50
   1  -6  -4 2973.10   49.90
   1  -6  -4 2962.10   51.89
  -1   6   4 2947.91   51.09
  -1   6   4 3040.60   49.90
   0  -6  -4  430.46   10.10
   0   6   4  460.25    9.20
   0   6   4  441.56   10.10
  -1  -6  -4   11.50    2.40
   1   6   4   10.40    0.90
   1   6   4    7.70    1.00
   1   6   4   10.70    1.70
   1   6   4    9.70    1.50
  -2  -6  -4 1589.14   29.60
   2   6   4 1627.54   29.20
   2   6   4 1640.94   28.20
   2   6   4 1648.64   28.60
   2   6   4 1670.03   28.20
  -3  -6  -4  647.34   12.10
  -3  -6  -4  631.94   13.30
   3   6   4  647.74   12.30
   3   6   4  632.64   12.00
   3   6   4  630.54   12.80
  -4  -6  -4   42.00    2.00
  -4  -6  -4   42.00    3.20
   4   6   4   41.50    2.80
  -5  -6  -4  792.52   16.20
  -5  -6  -4  733.63   13.90
   5   6   4  784.32   15.90
  -6  -6  -4   75.99    4.70
   6   6   4   79.09    4.60
   7   6   4    2.70    1.80
  -8  -6  -4  120.99    6.40
   8   6   4  113.89    7.10
   7  -7  -4    4.90    2.30
  -7   7   4    4.10    1.70
   6  -7  -4  368.56   10.50
   6  -7  -4  373.56   10.60
  -6   7   4  353.96   11.80
   5  -7  -4  373.96   10.30
   5  -7  -4  381.76    9.90
  -5   7   4  370.36    8.20
  -5   7   4  383.46    9.70
   4  -7  -4    7.80    3.00
   4  -7  -4    5.30    1.50
  -4   7   4    3.90    1.10
  -4   7   4    6.90    2.00
   3  -7  -4 1111.69   21.80
   3  -7  -4 1105.39   20.50
  -3   7   4 1089.39   21.10
  -3   7   4 1120.19   20.50
   2  -7  -4 1560.94   29.20
   2  -7  -4 1584.54   27.50
  -2   7   4 1548.84   28.40
  -2   7   4 1578.24   28.10
   1  -7  -4    1.50    1.20
   1  -7  -4    1.70    0.70
  -1   7   4    1.70    0.60
  -1   7   4    0.30    0.80
  -1   7   4    0.40    0.80
   0  -7  -4  275.27    5.30
   0  -7  -4  265.27    7.30
   0   7   4  272.27    5.40
   0   7   4  270.57    6.70
   0   7   4  268.47    6.50
  -1  -7  -4  612.84   13.20
   1   7   4  598.44   11.10
   1   7   4  624.44   12.10
   1   7   4  629.24   11.10
   1   7   4  597.74   12.50
  -2  -7  -4  559.94   12.00
   2   7   4  515.95   11.20
   2   7   4  519.15   10.60
   2   7   4  549.35   10.30
  -3  -7  -4  299.57    7.90
   3   7   4  298.97    7.50
   3   7   4  298.17    6.80
   3   7   4  292.37    6.50
  -4  -7  -4  785.92   16.50
  -4  -7  -4  805.62   14.70
   4   7   4  789.72   14.70
   4   7   4  813.12   15.90
   4   7   4  805.42   15.70
  -5  -7  -4    1.00    0.80
  -5  -7  -4    0.50    1.40
   5   7   4    0.90    1.20
  -6  -7  -4  400.66   10.70
   6   7   4  417.16   10.50
  -7  -7  -4   17.90    4.30
   7   7   4   20.00    4.10
  -8  -7  -4   -0.60    2.10
   8   7   4   -2.40    2.40
   7  -8  -4   39.50    6.60
   7  -8  -4   49.50    5.90
  -7   8   4   57.19    5.10
   6  -8  -4    6.40    2.40
  -6   8   4    7.20    1.80
   5  -8  -4   64.49    5.00
   5  -8  -4   60.39    5.00
  -5   8   4   52.99    3.30
  -5   8   4   63.19    4.20
   4  -8  -4   98.59    4.80
   4  -8  -4  106.19    5.30
  -4   8   4   94.99    4.50
  -4   8   4   93.99    3.90
   3  -8  -4    6.70    1.60
   3  -8  -4    8.70    2.90
  -3   8   4    6.90    2.30
  -3   8   4    5.70    1.30
   2  -8  -4 1398.76   26.60
   2  -8  -4 1402.06   24.60
  -2   8   4 1371.16   25.40
  -2   8   4 1360.46   25.60
   1  -8  -4 1471.25   25.30
   1  -8  -4 1455.75   27.70
  -1   8   4 1462.55   26.60
  -1   8   4 1438.76   26.60
   0  -8  -4   20.70    3.20
   0  -8  -4   20.80    1.70
   0   8   4   19.90    2.30
   0   8   4   22.30    2.40
   0   8   4   17.80    1.80
  -1  -8  -4    4.20    1.40
  -1  -8  -4    4.90    0.90
   1   8   4    3.70    1.00
   1   8   4    2.10    1.00
   1   8   4    3.70    0.80
  -2  -8  -4  478.55   11.30
   2   8   4  491.05    9.50
   2   8   4  480.05   10.20
   2   8   4  487.65   10.80
  -3  -8  -4    3.30    1.50
   3   8   4    2.20    0.90
   3   8   4    2.10    1.30
   3   8   4    2.80    0.90
  -4  -8  -4  618.44   13.80
  -4  -8  -4  600.14   11.70
   4   8   4  613.64   12.80
   4   8   4  616.54   11.80
   4   8   4  619.44   13.20
  -5  -8  -4   95.99    5.20
   5   8   4   88.49    4.50
  -6  -8  -4   19.10    4.60
   6   8   4   24.10    3.90
  -7  -8  -4  155.98    7.50
   6  -9  -4  189.48    8.20
   6  -9  -4  177.78    7.90
  -6   9   4  185.28    7.40
   5  -9  -4  138.79    6.70
   5  -9  -4  138.69    6.70
  -5   9   4  135.99    5.00
  -5   9   4  136.59    6.00
   4  -9  -4  142.19    6.50
   4  -9  -4  138.99    5.80
  -4   9   4  132.39    5.70
  -4   9   4  130.99    5.00
   3  -9  -4    8.00    2.00
   3  -9  -4    9.40    3.10
  -3   9   4    4.20    1.30
  -3   9   4    4.60    1.20
   2  -9  -4    1.50    1.50
   2  -9  -4    0.10    1.00
  -2   9   4    8.40    2.60
  -2   9   4   -0.20    1.00
   1  -9  -4  219.18    7.40
   1  -9  -4  224.58    5.30
  -1   9   4  224.38    6.50
  -1   9   4  221.38    6.40
   0  -9  -4  548.15   12.90
   0  -9  -4  546.75   10.30
   0   9   4  544.55   11.90
   0   9   4  536.75   11.60
  -1  -9  -4    1.00    0.80
  -1  -9  -4    1.50    1.40
   1   9   4   -0.50    1.00
   1   9   4    0.60    0.70
   1   9   4   -0.70    0.90
  -2  -9  -4   97.59    5.00
   2   9   4  103.09    3.90
   2   9   4  104.99    3.40
   2   9   4   99.09    4.50
  -3  -9  -4  389.56   10.30
   3   9   4  391.76    9.60
   3   9   4  379.56    9.00
  -4  -9  -4   40.60    4.20
  -4  -9  -4   44.00    3.30
   4   9   4   35.10    3.30
   4   9   4   29.40    3.80
   4   9   4   34.00    2.80
  -5  -9  -4   30.10    4.20
   5   9   4   30.40    3.50
   5   9   4   26.10    3.80
  -6  -9  -4   23.80    4.30
   6   9   4   24.40    3.90
  -7  -9  -4   38.30    5.90
   7   9   4   45.10    5.10
   6 -10  -4   67.59    6.50
  -6  10   4   79.49    5.90
   5 -10  -4  139.59    7.50
   5 -10  -4  136.89    7.10
  -5  10   4  146.89    6.20
  -5  10   4  150.78    6.70
   4 -10  -4  122.39    6.70
   4 -10  -4  118.89    6.00
  -4  10   4  125.19    5.20
  -4  10   4  120.29    5.70
   3 -10  -4   48.80    4.10
   3 -10  -4   54.99    5.00
  -3  10   4   45.20    4.00
  -3  10   4   47.30    3.80
   2 -10  -4   12.50    4.00
   2 -10  -4   13.50    2.90
  -2  10   4   12.10    3.00
   1 -10  -4   12.70    2.50
  -1  10   4    9.10    3.00
   0 -10  -4  330.87    9.60
   0 -10  -4  333.57    7.30
   0  10   4  347.17    8.60
   0  10   4  347.47    9.00
  -1 -10  -4   75.19    5.00
  -1 -10  -4   72.59    3.20
   1  10   4   71.29    4.40
   1  10   4   70.29    3.80
   1  10   4   69.99    2.70
  -2 -10  -4    2.90    1.60
   2  10   4    1.30    0.80
   2  10   4    1.70    1.20
  -3 -10  -4  323.47    9.50
   3  10   4  325.07    7.70
   3  10   4  334.97    9.00
   3  10   4  319.47    7.80
  -4 -10  -4  100.09    5.50
   4  10   4   99.29    4.40
   4  10   4   99.59    5.10
  -5 -10  -4    0.70    1.90
   5  10   4   -0.40    1.50
   5  10   4    0.00    1.50
  -6 -10  -4    2.30    2.00
   6  10   4    3.40    1.80
   5 -11  -4   97.99    7.00
  -5  11   4  100.89    6.40
   4 -11  -4  248.08    9.30
  -4  11   4  249.18    7.70
  -4  11   4  255.47    8.50
  -3  11   4   19.20    3.60
  -3  11   4   22.00    4.00
   2 -11  -4   71.69    5.50
  -2  11   4   73.39    4.70
  -2  11   4   73.79    4.50
   1 -11  -4  472.35   12.70
  -1  11   4  491.45   11.70
  -1  11   4  477.75   11.40
   0 -11  -4   23.60    4.60
   0  11   4   16.10    3.40
   0  11   4   17.50    3.60
  -1 -11  -4  196.68    7.60
   1  11   4  200.58    7.00
   1  11   4  196.18    6.30
  -2 -11  -4    0.60    1.70
   2  11   4   -1.00    1.30
   2  11   4    2.40    1.30
  -3 -11  -4    2.30    2.90
   3  11   4    2.60    1.50
   3  11   4   -0.70    1.40
  -4 -11  -4  270.67    9.20
  -5 -11  -4  165.98    7.90
   5  11   4  158.28    6.90
  -6 -11  -4    7.60    2.60
   4 -12  -4    8.70    2.70
  -4  12   4    7.50    1.90
   3 -12  -4  224.78    8.90
  -3  12   4  232.08    8.30
  -3  12   4  229.68    7.80
   2 -12  -4    2.10    3.70
  -2  12   4   -1.00    1.50
  -2  12   4    1.40    1.70
   1 -12  -4  115.49    7.10
  -1  12   4  124.09    5.60
  -1  12   4  117.39    5.90
   0 -12  -4  162.88    7.70
   0  12   4  168.58    6.70
   0  12   4  171.38    6.30
   1  12   4   44.00    4.20
   1  12   4   52.79    4.80
  -2 -12  -4  132.39    6.90
   2  12   4  129.29    6.40
   2  12   4  136.69    5.60
  -3 -12  -4  113.29    6.60
   3  12   4  107.99    6.10
  -4 -12  -4    3.10    2.10
   4  12   4   -0.50    1.80
  -5 -12  -4  134.19    8.00
   5  12   4  132.99    7.00
   3 -13  -4   48.80    6.40
  -3  13   4   39.00    5.70
  -3  13   4   28.00    5.30
   2 -13  -4  120.39    7.50
  -2  13   4  124.19    6.70
  -2  13   4  135.19    6.70
   1 -13  -4   44.80    6.00
  -1  13   4   42.10    5.00
  -1  13   4   49.40    5.30
   0 -13  -4  100.29    6.90
   0  13   4   91.29    5.60
   0  13   4   99.89    6.00
  -1 -13  -4  151.88    7.60
   1  13   4  148.59    6.50
   1  13   4  154.68    7.20
  -2 -13  -4    1.30    2.30
   2  13   4    4.90    2.00
  -3 -13  -4   17.20    5.50
   3  13   4    8.10    2.30
   0 -14  -4   27.50    6.10
   0  14   4   25.10    5.30
  -1 -14  -4    0.50    2.40
   2  12  -5   11.70    2.60
  -2 -12   5   16.60    6.30
   1  12  -5   64.19    6.00
  -1 -12   5   78.39    7.10
   0  12  -5   58.59    5.60
   0  12  -5   52.69    5.10
   0 -12   5   45.40    6.90
  -1  12  -5   19.50    5.00
   1 -12   5   19.40    6.10
   4  11  -5   -0.30    1.90
   4  11  -5    3.50    2.50
  -4 -11   5    1.60    2.30
  -4 -11   5    0.20    1.80
   3  11  -5   46.00    5.50
   3  11  -5   35.90    5.10
  -3 -11   5   37.50    3.90
  -3 -11   5   30.40    5.60
   2  11  -5   45.90    5.10
  -2 -11   5   43.20    3.80
  -2 -11   5   47.30    5.70
   1  11  -5   12.60    4.40
  -1 -11   5   24.10    5.10
   0  11  -5  204.38    7.80
   0  11  -5  209.78    7.00
   0 -11   5  221.38    8.70
  -1  11  -5   -0.90    1.50
  -1  11  -5   -1.50    1.40
   1 -11   5    1.50    2.20
  -2  11  -5    2.50    1.70
  -2  11  -5    2.20    1.70
   2 -11   5    2.20    2.40
  -3  11  -5  218.38    8.30
  -3  11  -5  222.08    8.20
   3 -11   5  207.18    9.80
  -5 -10   5    9.00    2.60
  -5 -10   5   13.10    4.10
   4  10  -5  143.79    7.60
   4  10  -5  153.18    6.50
  -4 -10   5  142.89    7.20
   3  10  -5   46.80    5.20
   3  10  -5   45.10    4.80
  -3 -10   5   50.79    5.10
  -3 -10   5   47.70    3.90
   2  10  -5  193.88    8.90
  -2 -10   5  200.28    6.40
  -2 -10   5  191.58    9.50
   1  10  -5  160.58    5.50
  -1 -10   5  158.38    6.80
  -1 -10   5  158.68    5.20
   0  10  -5    3.00    1.80
   0  10  -5    1.00    1.40
   0 -10   5    1.30    1.80
  -1  10  -5  185.58    6.50
  -1  10  -5  197.58    7.00
   1 -10   5  194.38    7.80
  -2  10  -5   -1.90    1.20
  -2  10  -5   -1.70    1.30
   2 -10   5    2.60    2.20
  -3  10  -5    3.10    1.80
  -3  10  -5    3.10    1.60
   3 -10   5    2.70    2.70
  -4  10  -5  269.07    8.80
  -4  10  -5  277.67    9.30
   4 -10   5  302.57   11.20
   6   9  -5   44.00    6.80
  -6  -9   5   57.09    5.00
   5   9  -5   -1.40    1.50
   5   9  -5    0.40    2.10
  -5  -9   5    0.00    1.60
  -5  -9   5   -1.50    2.00
   4   9  -5   76.59    5.70
   4   9  -5   70.49    4.70
  -4  -9   5   82.09    4.50
  -4  -9   5   77.89    5.50
   3   9  -5  335.47   10.30
   3   9  -5  342.67    9.10
  -3  -9   5  330.07    9.90
  -3  -9   5  336.37    8.70
   2   9  -5  102.69    4.90
   2   9  -5  102.49    4.20
  -2  -9   5  103.99    5.60
  -2  -9   5  104.69    4.40
   1   9  -5  280.17    7.10
   1   9  -5  283.57    8.00
  -1  -9   5  291.67    8.90
  -1  -9   5  280.47    7.10
   0   9  -5  121.99    4.70
   0   9  -5  122.79    5.30
   0  -9   5  119.89    4.10
   0  -9   5  129.19    6.00
  -1   9  -5    0.70    1.10
  -1   9  -5    0.60    1.20
   1  -9   5    2.20    1.80
  -2   9  -5   73.49    4.30
  -2   9  -5   77.69    4.20
   2  -9   5   73.19    5.70
  -3   9  -5  118.89    7.90
  -3   9  -5  115.49    5.20
  -4   9  -5   20.30    4.20
   4  -9   5   22.80    5.50
  -5   9  -5  158.98    7.20
  -5   9  -5  162.08    6.50
   5  -9   5  165.58    9.00
   6   8  -5   82.89    6.80
  -6  -8   5   87.69    5.40
   5   8  -5  221.98    8.40
   5   8  -5  218.28    6.90
  -5  -8   5  218.18    7.50
  -5  -8   5  214.28    8.00
   4   8  -5   18.40    3.90
  -4  -8   5    9.90    3.70
  -4  -8   5   10.60    2.90
   3   8  -5  585.34   12.80
   3   8  -5  578.54   14.20
  -3  -8   5  579.44   12.60
  -3  -8   5  579.44   13.70
   2   8  -5  357.16    9.00
   2   8  -5  358.56    7.60
  -2  -8   5  347.07    9.60
  -2  -8   5  353.16    8.30
   1   8  -5   18.00    2.80
   1   8  -5   15.00    2.40
  -1  -8   5   11.10    3.50
  -1  -8   5   18.90    2.40
   0   8  -5  241.38    6.30
   0   8  -5  237.48    6.80
   0  -8   5  225.88    6.20
   0  -8   5  233.28    7.50
  -1   8  -5  428.56    9.70
  -1   8  -5  418.06   10.00
   1  -8   5  418.36   10.90
   1  -8   5  410.06    8.30
  -2   8  -5    2.20    1.20
  -2   8  -5    2.20    1.00
   2  -8   5    3.70    1.80
  -3   8  -5  209.88    6.50
  -3   8  -5  211.48    6.90
   3  -8   5  209.38    7.80
  -4   8  -5  166.38    5.90
  -4   8  -5  163.48    7.60
  -5   8  -5   12.10    3.40
  -5   8  -5    4.90    1.70
   5  -8   5    4.30    2.60
  -6   8  -5  184.68    7.90
  -6   8  -5  212.78    8.30
   6  -8   5  216.98   10.20
   7   7  -5  181.48    8.90
  -7  -7   5  180.28    7.70
   6   7  -5   47.00    5.40
  -6  -7   5   62.29    4.80
   5   7  -5  119.59    6.30
   5   7  -5  115.29    4.90
  -5  -7   5  113.59    5.10
   4   7  -5  102.79    4.40
   4   7  -5   91.19    5.20
  -4  -7   5   89.89    4.40
  -4  -7   5   94.69    5.10
   3   7  -5  176.28    6.70
   3   7  -5  177.78    5.60
  -3  -7   5  179.08    6.50
  -3  -7   5  178.98    5.50
   2   7  -5  672.73   12.60
   2   7  -5  684.03   14.00
  -2  -7   5  673.53   13.50
  -2  -7   5  676.83   14.70
   1   7  -5  371.46    8.70
   1   7  -5  348.17    8.80
  -1  -7   5  385.56    8.20
  -1  -7   5  372.66    9.50
   0   7  -5   48.80    2.80
   0   7  -5   42.80    3.00
   0  -7   5   47.30    3.60
   0  -7   5   53.39    2.30
  -1   7  -5  134.09    4.80
  -1   7  -5  138.19    4.70
   1  -7   5  134.79    5.80
   1  -7   5  140.49    3.50
  -2   7  -5 1267.47   23.60
  -2   7  -5 1281.17   23.70
   2  -7   5 1205.68   24.40
  -3   7  -5    3.20    1.10
   3  -7   5    3.00    1.70
  -4   7  -5   32.30    3.50
  -4   7  -5   35.90    3.20
   4  -7   5   32.20    4.80
  -5   7  -5   74.49    4.90
  -5   7  -5   79.29    4.30
   5  -7   5   84.79    6.40
  -6   7  -5    1.40    1.60
  -6   7  -5   10.30    3.00
   6  -7   5   -0.50    2.50
   7   6  -5   41.70    5.80
  -7  -6   5   53.69    5.10
   6   6  -5  316.57   10.10
   5   6  -5  263.17    8.50
   5   6  -5  260.37    6.80
  -5  -6   5  260.47    7.60
   4   6  -5   99.79    4.00
   4   6  -5  105.69    5.10
  -4  -6   5  104.29    4.30
  -4  -6   5  100.59    5.00
   3   6  -5   16.80    2.40
   3   6  -5    9.60    2.90
  -3  -6   5   12.80    2.90
  -3  -6   5   11.40    2.20
   2   6  -5   76.19    2.70
   2   6  -5   74.29    3.50
  -2  -6   5   78.69    3.20
  -2  -6   5   77.79    4.00
   1   6  -5  729.03   13.40
   1   6  -5  699.43   14.10
  -1  -6   5  687.03   14.70
  -1  -6   5  719.53   13.40
   0   6  -5  485.45   10.50
   0   6  -5  508.55   10.20
   0  -6   5  503.75    9.40
   0  -6   5  479.05   11.20
  -1   6  -5    3.30    1.00
  -1   6  -5    6.50    1.80
   1  -6   5    3.60    1.30
  -2   6  -5  306.97    7.60
  -2   6  -5  311.97    7.70
   2  -6   5  307.07    8.50
  -3   6  -5  897.01   17.50
  -3   6  -5  919.11   17.90
   3  -6   5  891.51   18.80
  -4   6  -5   74.79    3.70
  -4   6  -5   74.09    4.10
   4  -6   5   76.49    5.10
  -5   6  -5  152.08    5.80
  -5   6  -5  149.39    5.00
   5  -6   5  144.09    7.00
  -6   6  -5  147.19    6.40
  -6   6  -5  150.58    5.20
   6  -6   5  161.68    8.10
  -7   6  -5   15.50    4.40
   7  -6   5   32.20    6.90
   8   5  -5   75.09    7.40
  -8  -5   5   65.79    6.00
   7   5  -5    5.80    2.30
  -7  -5   5    5.80    1.90
   6   5  -5  160.58    7.10
  -6  -5   5  165.88    6.30
   5   5  -5  478.15   10.00
   5   5  -5  478.05   12.10
  -5  -5   5  479.95   11.20
   4   5  -5    0.50    1.30
   4   5  -5    1.10    0.90
  -4  -5   5    1.70    1.20
  -4  -5   5    1.70    1.00
   3   5  -5  243.58    5.10
   3   5  -5  246.08    6.00
   3   5  -5  245.28    7.30
  -3  -5   5  246.18    6.30
  -3  -5   5  242.28    7.00
   2   5  -5 2021.10   33.70
   2   5  -5 2003.60   34.70
  -2  -5   5 1978.40   34.40
  -2  -5   5 1898.41   35.50
   1   5  -5   29.10    2.40
   1   5  -5   32.90    2.00
  -1  -5   5   31.40    2.70
  -1  -5   5   32.30    1.90
   0   5  -5   69.19    2.80
   0   5  -5   68.29    3.00
   0   5  -5   68.39    2.80
   0  -5   5   73.09    2.20
   0  -5   5   66.19    3.50
  -1   5  -5  176.98    4.90
  -1   5  -5  179.38    4.90
   1  -5   5  167.88    5.40
  -2   5  -5   47.30    2.70
  -2   5  -5   42.70    2.70
   2  -5   5   37.70    3.30
  -3   5  -5 1317.77   24.00
  -3   5  -5 1318.37   24.40
   3  -5   5 1293.97   25.30
  -4   5  -5  299.77    7.80
  -4   5  -5  296.77    7.20
   4  -5   5  283.47    8.80
  -5   5  -5    0.70    1.10
  -5   5  -5    0.90    0.90
   5  -5   5    1.60    1.70
  -6   5  -5   47.20    3.20
   6  -5   5   41.80    5.60
  -7   5  -5  331.47    9.80
   7  -5   5  323.97   11.50
   8   4  -5   69.29    6.90
  -8  -4   5   65.79    5.80
   7   4  -5  144.69    7.40
  -7  -4   5  149.09    6.50
   6   4  -5   19.60    4.00
  -6  -4   5   25.40    3.40
   5   4  -5   63.49    4.40
   5   4  -5   59.29    2.90
  -5  -4   5   60.89    3.70
   4   4  -5  295.27    8.30
   4   4  -5  289.07    6.60
  -4  -4   5  304.37    8.20
  -4  -4   5  291.17    7.40
   3   4  -5  182.18    4.20
   3   4  -5  186.88    5.90
   3   4  -5  186.78    5.50
   3   4  -5  197.68    4.00
  -3  -4   5  188.78    5.80
  -3  -4   5  192.18    5.20
   2   4  -5  751.02   13.10
  -2  -4   5  736.53   13.70
  -2  -4   5  703.03   14.60
   1   4  -5 2424.66   39.80
   1   4  -5 2181.08   41.00
  -1  -4   5 2316.47   40.90
  -1  -4   5 2404.66   39.70
   0   4  -5  402.26    7.60
   0   4  -5  394.16    8.40
   0   4  -5  393.86    8.10
   0  -4   5  398.86    9.00
   0  -4   5  404.46    7.40
  -1   4  -5  126.89    3.80
   1  -4   5  122.29    4.30
  -2   4  -5  191.28    5.00
  -2   4  -5  184.38    5.10
   2  -4   5  181.88    5.70
  -3   4  -5  139.29    4.30
  -3   4  -5  136.29    4.50
   3  -4   5  133.09    5.30
  -4   4  -5 1653.53   29.50
  -4   4  -5 1693.43   30.40
   4  -4   5 1635.84   31.20
  -5   4  -5  383.06    9.40
  -5   4  -5  369.26    8.40
   5  -4   5  366.76   10.40
   5  -4   5  384.46    8.60
  -6   4  -5   31.50    3.50
  -6   4  -5   30.40    2.70
   6  -4   5   22.90    4.40
  -7   4  -5  172.38    6.70
   7  -4   5  162.08    8.00
  -8   4  -5  154.88    6.80
   8  -4   5  135.39    8.70
   8   3  -5   59.69    6.50
  -8  -3   5   45.30    5.20
   7   3  -5  226.08    8.70
  -7  -3   5  233.08    7.80
   6   3  -5  157.28    6.70
  -6  -3   5  167.38    6.00
   5   3  -5  254.07    7.80
   5   3  -5  257.67    5.70
  -5  -3   5  254.17    7.10
   4   3  -5  233.38    6.90
   4   3  -5  231.28    5.30
  -4  -3   5  231.08    6.20
  -4  -3   5  232.48    6.70
   3   3  -5 1566.14   26.60
   3   3  -5 1543.15   28.60
   3   3  -5 1582.24   27.20
   3   3  -5 1563.84   26.50
  -3  -3   5 1541.15   27.70
  -3  -3   5 1553.54   28.40
   2   3  -5   43.90    1.70
   2   3  -5   40.40    2.10
   2   3  -5   49.00    2.50
  -2  -3   5   38.60    2.00
  -2  -3   5   42.40    2.70
   1   3  -5 2343.17   39.50
   1   3  -5 2314.57   39.10
  -1  -3   5 2280.87   38.90
  -1  -3   5 2256.77   40.00
   0   3  -5 2282.17   38.40
   0   3  -5 2233.28   37.40
   0   3  -5 2248.68   38.20
   0  -3   5 2192.38   37.30
   0  -3   5 2194.98   38.90
  -1   3  -5  107.99    3.30
  -1   3  -5  107.19    3.30
   1  -3   5  105.79    3.70
  -2   3  -5  465.15    9.60
   2  -3   5  456.45   10.10
  -3   3  -5 1517.25   27.30
  -3   3  -5 1523.65   26.80
   3  -3   5 1501.15   28.00
  -4   3  -5  124.59    4.40
  -4   3  -5  124.99    4.00
   4  -3   5  129.09    3.10
   4  -3   5  129.09    5.50
  -5   3  -5    3.60    1.20
  -5   3  -5    7.20    2.10
  -5   3  -5    6.70    1.10
   5  -3   5   11.20    1.60
   5  -3   5    9.80    3.40
  -6   3  -5   10.70    2.80
  -6   3  -5    9.40    2.40
  -6   3  -5   10.70    2.80
   6  -3   5    5.80    2.00
   6  -3   5   12.10    2.60
  -7   3  -5    9.70    3.50
   7  -3   5    8.30    2.30
  -8   3  -5  228.28    8.00
   8  -3   5  246.58   10.30
   8   2  -5   63.29    6.50
  -8  -2   5   58.39    5.30
   6   2  -5  374.96   10.40
  -6  -2   5  379.26    9.70
   5   2  -5 1422.46   24.00
   5   2  -5 1392.66   26.80
  -5  -2   5 1389.36   24.00
  -5  -2   5 1378.86   26.00
   4   2  -5  355.16    7.00
   4   2  -5  354.26    6.80
   4   2  -5  343.77    8.70
   4   2  -5  341.07    6.70
  -4  -2   5  352.06    6.70
  -4  -2   5  336.27    8.00
   3   2  -5   81.19    2.60
   3   2  -5   79.29    2.40
   3   2  -5   83.79    3.60
   3   2  -5   81.99    2.60
  -3  -2   5   78.29    3.40
  -3  -2   5   83.49    2.30
   2   2  -5  855.51   15.00
   2   2  -5  782.62   14.40
   2   2  -5  797.22   14.20
  -2  -2   5  770.82   14.60
  -2  -2   5  778.12   15.20
   1   2  -5   66.49    2.30
   1   2  -5   67.99    2.20
   1   2  -5   61.19    2.30
  -1  -2   5   60.09    2.60
  -1  -2   5   66.79    2.10
   0   2  -5  323.47    5.90
   0   2  -5  320.47    6.70
   0   2  -5  316.07    6.60
   0  -2   5  319.27    5.90
   0  -2   5  319.57    7.10
  -1   2  -5 2305.87   38.60
  -1   2  -5 2234.48   38.60
   1  -2   5 2207.58   39.00
  -2   2  -5  487.05    9.50
  -2   2  -5  477.55    9.60
   2  -2   5  457.75   10.00
  -3   2  -5  482.75    9.50
  -3   2  -5  464.45    9.80
   3  -2   5  457.75   10.40
  -4   2  -5 2242.28   39.20
  -4   2  -5 2210.08   37.70
   4  -2   5 2208.98   37.70
   4  -2   5 2245.58   40.20
  -5   2  -5  169.18    4.70
  -5   2  -5  172.58    5.40
  -5   2  -5  171.78    4.50
   5  -2   5  172.28    6.40
  -6   2  -5  193.48    5.10
  -6   2  -5  190.88    6.10
   6  -2   5  184.08    7.20
  -7   2  -5   12.80    3.10
  -7   2  -5    7.80    1.80
   7  -2   5    4.90    2.10
  -8   2  -5   17.40    3.70
   8  -2   5   18.00    5.50
   8   1  -5    5.90    2.50
  -8  -1   5    2.70    2.00
   7   1  -5  698.43   16.50
  -7  -1   5  675.73   16.80
   6   1  -5  335.67    9.60
  -6  -1   5  336.97    8.90
  -6  -1   5  323.67    7.00
   5   1  -5   22.30    3.30
  -5  -1   5   22.70    2.60
  -5  -1   5   29.40    1.80
   4   1  -5  798.12   16.10
   4   1  -5  793.12   14.10
  -4  -1   5  819.22   14.50
  -4  -1   5  792.32   15.60
   3   1  -5 1104.39   19.20
  -3  -1   5 1072.99   21.00
  -3  -1   5 1090.49   21.40
  -3  -1   5 1143.79   19.40
   2   1  -5 1616.84   28.00
   2   1  -5 1546.95   27.00
   2   1  -5 1568.54   27.10
  -2  -1   5 1562.34   27.70
  -2  -1   5 1600.64   27.40
  -2  -1   5 1539.35   27.00
   1   1  -5 1572.64   26.80
   1   1  -5 1536.05   26.70
   1   1  -5 1524.65   26.50
  -1  -1   5 1533.85   26.50
  -1  -1   5 1562.24   26.70
  -1  -1   5 1565.14   27.10
   0   1  -5 1796.72   29.90
   0   1  -5 1783.02   30.60
   0   1  -5 1739.03   29.80
   0   1  -5 1793.82   30.60
   0  -1   5 1776.92   30.80
   0  -1   5 1771.12   29.90
  -1   1  -5  126.29    3.40
   1  -1   5  124.39    3.60
  -2   1  -5 2533.95   43.10
  -2   1  -5 2541.25   43.30
   2  -1   5 2495.55   43.60
  -3   1  -5  118.49    3.40
  -3   1  -5  117.69    2.70
  -3   1  -5  116.09    3.80
   3  -1   5  122.89    2.90
   3  -1   5  111.79    4.90
   4  -1   5  123.49    4.80
  -5   1  -5 1352.56   25.00
  -5   1  -5 1360.66   24.10
  -5   1  -5 1375.66   25.10
   5  -1   5 1369.36   26.30
  -6   1  -5   73.99    3.90
  -6   1  -5   76.69    3.60
   6  -1   5   74.79    5.10
  -7   1  -5    9.90    2.80
  -7   1  -5   10.10    3.20
   7  -1   5   11.80    3.80
  -8   1  -5   81.99    4.90
   8  -1   5   78.89    6.50
   8   0  -5    1.80    2.40
  -8   0   5   -0.80    1.70
   7   0  -5    4.70    2.00
  -7   0   5    2.80    1.60
   6   0  -5 1115.19   22.30
  -6   0   5 1111.09   21.60
  -6   0   5 1044.60   20.70
   5   0  -5   67.19    4.00
  -5   0   5   75.49    2.70
  -5   0   5   71.09    3.70
   4   0  -5   41.30    1.60
   4   0  -5   38.50    3.00
  -4   0   5   44.10    2.60
  -4   0   5   40.50    2.00
   3   0  -5   11.00    1.70
   3   0  -5   11.20    1.20
  -3   0   5    9.10    1.80
  -3   0   5    9.60    1.30
   2   0  -5 2815.42   47.90
   2   0  -5 2817.52   47.20
  -2   0   5 2776.22   47.70
  -2   0   5 2768.62   47.30
  -2   0   5 2833.82   47.80
   1   0  -5   39.30    1.70
  -1   0   5   36.50    1.60
  -1   0   5   37.20    1.70
  -1   0   5   37.40    1.70
   0   0  -5  485.35    9.30
   0   0  -5  490.75    8.90
   0   0  -5  462.05    9.20
   0   0  -5  491.45    8.80
   0   0   5  489.85    9.30
   0   0   5  495.85    9.30
  -1   0  -5 1090.99   18.30
  -1   0  -5 1068.79   19.00
  -1   0  -5 1036.40   18.10
   1   0   5 1072.79   19.00
   1   0   5 1054.59   18.20
  -2   0  -5   27.60    1.20
  -2   0  -5   28.90    1.70
   2   0   5   30.40    2.10
   2   0   5   30.00    1.30
  -3   0  -5 1126.79   19.50
  -3   0  -5 1141.29   20.40
   3   0   5 1125.89   20.90
   3   0   5 1109.89   19.60
  -4   0  -5  291.77    6.20
  -4   0  -5  296.87    6.90
   4   0   5  296.47    7.60
  -5   0  -5  346.67    8.00
  -5   0  -5  348.07    7.40
  -5   0  -5  340.17    7.50
   5   0   5  338.47    9.00
  -6   0  -5  487.95   10.60
  -6   0  -5  475.35   10.30
  -6   0  -5  474.35    9.90
   6   0   5  486.35   12.20
  -7   0  -5   32.20    3.10
  -7   0  -5   28.90    3.40
   7   0   5   18.80    4.30
  -8   0  -5    0.00    1.20
   8   0   5   -0.70    2.20
   8  -1  -5    8.70    2.60
  -8   1   5    8.30    2.30
   7  -1  -5  104.39    6.00
  -7   1   5   94.89    5.20
  -7   1   5   88.59    3.90
   6  -1  -5   19.40    3.80
  -6   1   5   17.00    2.50
  -6   1   5   16.40    3.20
   5  -1  -5  174.98    5.90
  -5   1   5  172.08    5.60
   4  -1  -5  126.19    4.40
   4  -1  -5  123.69    2.90
  -4   1   5  125.39    3.60
  -4   1   5  124.09    4.30
   3  -1  -5  327.37    7.30
  -3   1   5  324.27    6.70
  -3   1   5  305.87    9.30
   2  -1  -5 4318.67   73.49
   2  -1  -5 4345.57   73.39
  -2   1   5 4378.66   73.19
  -2   1   5 4445.86   73.49
  -2   1   5 4338.17   73.19
   1  -1  -5  419.16    7.80
   1  -1  -5  403.26    8.00
  -1   1   5  407.76    7.80
  -1   1   5  397.66    8.00
  -1   1   5  411.96    8.00
   0  -1  -5  251.17    5.10
   0  -1  -5  240.08    5.10
   0  -1  -5  254.17    5.30
   0   1   5  247.08    5.10
   0   1   5  250.67    5.00
   0   1   5  245.08    5.30
  -1  -1  -5  470.85    9.00
  -1  -1  -5  474.75    8.80
   1   1   5  467.35    9.10
   1   1   5  460.95    8.90
   1   1   5  474.85    8.80
  -2  -1  -5  115.39    3.40
  -2  -1  -5  116.89    3.00
   2   1   5  126.19    3.60
   2   1   5  129.19    3.20
  -3  -1  -5  806.22   15.00
  -3  -1  -5  818.62   14.60
   3   1   5  798.82   15.40
  -4  -1  -5  152.48    4.50
  -4  -1  -5  155.78    4.10
   4   1   5  151.78    5.10
  -5  -1  -5  353.46    8.00
   5   1   5  355.76    9.20
  -6  -1  -5  125.99    4.00
  -6  -1  -5  137.99    4.60
  -6  -1  -5  133.19    4.50
   6   1   5  135.49    5.90
  -7  -1  -5  245.48    7.10
  -7  -1  -5  241.98    6.80
   7   1   5  243.28    8.60
  -8  -1  -5    1.80    1.20
  -8  -1  -5    3.20    1.90
   8   1   5    2.10    2.40
   8  -2  -5   37.70    6.10
  -8   2   5   43.20    5.00
   7  -2  -5  383.26   11.00
  -7   2   5  380.16   10.50
  -7   2   5  372.06    9.00
   6  -2  -5  342.47    9.50
  -6   2   5  340.77    8.10
  -6   2   5  343.67    9.20
   5  -2  -5  206.08    6.40
  -5   2   5  206.38    6.20
  -5   2   5  209.78    5.60
   4  -2  -5  279.47    6.90
   4  -2  -5  265.67    5.30
  -4   2   5  279.67    6.90
  -4   2   5  239.08    8.10
   3  -2  -5  301.37    6.70
   3  -2  -5  289.47    5.90
  -3   2   5  293.87    7.00
  -3   2   5  296.07    6.50
   2  -2  -5  212.18    4.80
   2  -2  -5  206.48    5.20
  -2   2   5  206.78    4.90
  -2   2   5  213.38    5.10
   1  -2  -5 5192.38   83.59
   1  -2  -5 5045.90   82.69
   1  -2  -5 4756.02   82.69
  -1   2   5 4708.13   82.59
  -1   2   5 5186.08   83.39
   0  -2  -5  877.01   15.80
   0  -2  -5  870.21   15.00
   0   2   5  846.32   14.90
   0   2   5  874.01   15.70
  -1  -2  -5    5.90    1.10
  -1  -2  -5    8.40    1.40
  -1  -2  -5    5.70    1.10
   1   2   5    6.30    1.20
   1   2   5    4.10    1.00
   1   2   5    5.80    1.20
  -2  -2  -5  555.94   10.60
  -2  -2  -5  560.64   10.80
   2   2   5  565.64   10.80
   2   2   5  568.94   10.70
  -3  -2  -5 1886.61   33.00
  -3  -2  -5 1887.31   32.90
   3   2   5 1953.60   33.50
  -4  -2  -5  876.61   16.40
  -4  -2  -5  882.71   16.40
   4   2   5  898.21   17.20
  -5  -2  -5  176.18    5.00
  -5  -2  -5  177.38    4.80
   5   2   5  173.58    5.90
  -6  -2  -5    0.70    0.90
  -6  -2  -5    3.10    1.20
   6   2   5    3.10    1.50
  -7  -2  -5  159.38    5.70
  -7  -2  -5  155.58    5.10
   7   2   5  159.98    6.90
  -8  -2  -5  185.88    7.00
   8   2   5  186.68    8.60
   8  -3  -5   97.39    6.40
   8  -3  -5   93.09    7.00
  -8   3   5   89.29    4.60
  -8   3   5   87.29    6.20
   7  -3  -5  109.69    6.10
  -7   3   5   95.29    8.50
  -7   3   5  107.09    4.70
   6  -3  -5  528.15   12.50
   6  -3  -5  510.95   12.40
  -6   3   5  519.25   11.20
  -6   3   5  510.55   12.20
   5  -3  -5 1695.53   31.30
   5  -3  -5 1710.73   31.60
  -5   3   5 1730.53   31.40
  -5   3   5 1669.33   30.50
   4  -3  -5  113.09    4.40
   4  -3  -5  113.19    3.10
   4  -3  -5  113.69    4.30
  -4   3   5  112.39    4.20
  -4   3   5  113.29    3.90
   3  -3  -5  764.22   14.10
   3  -3  -5  728.93   14.70
  -3   3   5  762.32   14.60
  -3   3   5  721.33   15.00
   2  -3  -5  329.67    6.60
   2  -3  -5  335.07    6.60
   2  -3  -5  322.77    7.40
  -2   3   5  322.87    7.10
  -2   3   5  326.57    6.50
  -2   3   5  332.87    7.40
   1  -3  -5  107.49    2.50
   1  -3  -5  111.59    2.50
   1  -3  -5  108.09    3.50
  -1   3   5  102.59    3.20
   0  -3  -5 3835.02   64.99
   0   3   5 3841.72   64.69
  -1  -3  -5  282.17    6.40
  -1  -3  -5  287.67    5.30
   1   3   5  279.47    5.30
   1   3   5  274.77    6.10
  -2  -3  -5 1547.95   27.10
  -2  -3  -5 1521.05   27.20
  -2  -3  -5 1587.14   26.70
   2   3   5 1543.15   27.00
   2   3   5 1537.65   26.70
  -3  -3  -5 3609.64   61.69
  -3  -3  -5 3652.93   61.49
   3   3   5 3643.94   61.69
  -4  -3  -5  616.94   11.60
  -4  -3  -5  574.84   13.00
   4   3   5  595.24   13.40
  -5  -3  -5    1.00    0.80
  -5  -3  -5   -0.60    0.90
   5   3   5   -0.10    1.20
  -6  -3  -5  236.28    6.70
  -6  -3  -5  231.58    6.00
   6   3   5  229.98    7.50
  -7  -3  -5   70.49    3.40
  -7  -3  -5   71.89    4.40
   7   3   5   74.59    5.20
  -8  -3  -5   80.29    5.30
   8   3   5   61.79    6.20
   8  -4  -5   44.20    5.70
   8  -4  -5   48.80    6.50
   7  -4  -5   87.19    5.70
   7  -4  -5   82.49    6.10
  -7   4   5   90.09    4.50
  -7   4   5   86.79    6.80
   6  -4  -5  240.38    7.80
   6  -4  -5  248.88    8.00
  -6   4   5  235.98    6.90
  -6   4   5  239.58    7.60
   5  -4  -5 1002.90   20.30
   5  -4  -5 1006.50   20.00
  -5   4   5 1028.10   20.20
  -5   4   5 1019.70   19.50
   4  -4  -5  538.45   12.80
   4  -4  -5  555.94   12.20
  -4   4   5  573.54   12.20
  -4   4   5  573.74   11.70
   3  -4  -5    5.40    1.90
   3  -4  -5    5.50    1.80
   2  -4  -5  686.43   12.20
   2  -4  -5  701.23   12.40
  -2   4   5  639.14   13.80
  -2   4   5  687.23   12.30
   1  -4  -5 2396.76   41.80
  -1   4   5 2407.86   41.40
   0  -4  -5    2.60    0.90
   0   4   5    1.30    0.60
  -1  -4  -5 1371.76   24.60
   1   4   5 1352.66   24.10
  -2  -4  -5  390.36    8.50
  -2  -4  -5  385.66    8.00
  -2  -4  -5  388.16    7.50
   2   4   5  401.66    7.50
   2   4   5  374.26    7.90
  -3  -4  -5   46.50    2.10
   3   4   5   44.80    2.30
   3   4   5   44.50    2.20
  -4  -4  -5 2292.17   39.30
  -4  -4  -5 2273.67   40.10
  -5  -4  -5  467.85   10.40
  -5  -4  -5  461.35    9.70
   5   4   5  469.35   10.80
  -6  -4  -5   87.89    3.50
  -6  -4  -5   94.59    4.40
   6   4   5   92.49    4.90
  -7  -4  -5  155.48    6.00
   7   4   5  149.79    6.80
  -8  -4  -5  146.39    6.50
   8   4   5  133.19    7.30
   8  -5  -5   20.20    6.30
  -8   5   5   11.90    2.70
  -8   5   5   18.20    4.00
   7  -5  -5   72.79    5.80
   7  -5  -5   74.19    5.50
  -7   5   5   76.39    5.40
  -7   5   5   64.79    4.30
   6  -5  -5  255.07    8.30
   6  -5  -5  250.17    8.20
  -6   5   5  254.97    8.00
  -6   5   5  245.78    7.30
   5  -5  -5   33.70    3.50
   5  -5  -5   29.60    3.70
  -5   5   5   35.30    3.00
  -5   5   5   35.70    3.50
   4  -5  -5  677.33   14.50
   4  -5  -5  683.93   14.10
  -4   5   5  687.93   14.40
  -4   5   5  680.43   13.90
   3  -5  -5 1038.60   18.50
   3  -5  -5  982.00   19.50
  -3   5   5  994.30   19.00
   2  -5  -5   70.39    2.50
   2  -5  -5   68.09    3.40
  -2   5   5   66.99    2.20
  -2   5   5   65.59    3.00
  -1   5   5  982.90   18.00
   0  -5  -5 5452.75   92.09
   0   5   5 5425.26   91.29
   0   5   5 5435.86   91.39
   1   5   5   40.80    2.20
  -2  -5  -5   65.99    4.10
  -2  -5  -5   69.19    2.30
   2   5   5   73.49    2.70
   2   5   5   74.69    2.20
   2   5   5   73.09    2.20
  -3  -5  -5    8.30    1.40
  -3  -5  -5   10.30    2.40
   3   5   5    7.20    1.60
   3   5   5    6.10    1.60
  -4  -5  -5   37.60    2.10
  -4  -5  -5   36.30    3.10
  -5  -5  -5  813.62   16.60
  -5  -5  -5  798.62   15.10
   5   5   5  820.52   16.50
  -6  -5  -5  118.39    5.20
   6   5   5  123.99    5.50
  -7  -5  -5   12.70    3.40
   7   5   5   10.30    2.10
  -8  -5  -5  160.98    7.00
   8   5   5  148.89    7.90
   7  -6  -5   48.30    5.10
  -7   6   5   45.70    5.20
  -7   6   5   40.70    4.30
   6  -6  -5  613.04   14.30
   6  -6  -5  603.94   14.50
  -6   6   5  606.64   13.60
  -6   6   5  597.44   14.20
   5  -6  -5   60.99    4.30
   5  -6  -5   53.79    4.30
  -5   6   5   67.09    3.80
   4  -6  -5   48.20    3.70
   4  -6  -5   56.49    3.80
  -4   6   5   55.49    3.30
   2  -6  -5  516.55   11.70
   2  -6  -5  544.45   10.10
  -2   6   5  540.85    9.90
  -2   6   5  515.55   11.50
  -2   6   5  522.35   11.10
   1  -6  -5   51.39    3.30
  -1   6   5   44.00    2.60
  -1   6   5   44.30    2.70
   0  -6  -5  841.62   17.00
   0   6   5  869.11   16.30
   0   6   5  858.31   17.20
  -1  -6  -5 1292.27   24.00
   1   6   5 1250.07   23.20
   1   6   5 1281.67   23.00
  -2  -6  -5  116.69    4.60
   2   6   5  121.39    3.10
   2   6   5  113.99    3.00
   2   6   5  120.19    3.70
   2   6   5  116.29    4.10
  -3  -6  -5  191.88    6.00
  -3  -6  -5  203.48    5.00
   3   6   5  203.68    4.90
   3   6   5  196.38    5.00
  -4  -6  -5  286.87    6.30
  -4  -6  -5  271.07    7.50
   4   6   5  274.37    7.70
  -5  -6  -5   14.90    2.00
  -5  -6  -5   13.70    3.30
   5   6   5   13.10    2.80
  -6  -6  -5   77.99    4.60
   6   6   5   77.69    4.60
   7   6   5   99.29    5.70
  -8  -6  -5   16.80    4.70
   8   6   5    6.70    2.40
   7  -7  -5   98.19    6.50
  -7   7   5   89.09    5.50
   6  -7  -5   51.39    5.20
   5  -7  -5   42.80    4.40
   5  -7  -5   33.70    4.30
  -5   7   5   47.40    3.70
   4  -7  -5  128.69    5.00
   4  -7  -5  129.79    5.70
  -4   7   5  136.29    5.10
  -4   7   5  130.49    4.30
   3  -7  -5   44.90    3.10
  -3   7   5   40.50    3.00
  -3   7   5   37.70    2.70
   2  -7  -5  450.95    8.80
   2  -7  -5  438.96   10.70
  -2   7   5  437.76    9.60
  -2   7   5  425.96    9.90
  -2   7   5  470.35    8.90
   1  -7  -5  639.74   13.90
  -1   7   5  637.64   13.10
  -1   7   5  653.83   13.00
   0  -7  -5   18.80    3.00
   0   7   5   17.00    2.20
   0   7   5   15.10    2.30
  -1  -7  -5  553.54   12.50
   1   7   5  577.74   11.60
   1   7   5  573.94   11.90
  -2  -7  -5   44.00    3.60
   2   7   5   49.40    2.10
   2   7   5   49.50    2.00
   2   7   5   45.10    3.00
   2   7   5   44.60    3.10
  -3  -7  -5   94.19    4.60
   3   7   5   98.49    3.30
   3   7   5   95.99    3.40
   3   7   5   96.29    4.00
  -4  -7  -5  121.29    3.70
  -4  -7  -5  115.99    5.10
   4   7   5  117.99    4.40
   4   7   5  117.19    3.90
  -5  -7  -5  595.64   13.60
  -5  -7  -5  565.14   11.30
   5   7   5  610.24   12.90
  -6  -7  -5    3.90    1.60
   6   7   5    8.70    3.30
  -7  -7  -5   10.70    2.30
   7   7   5   15.40    4.00
  -8  -7  -5    2.50    2.10
   7  -8  -5   99.49    7.50
   7  -8  -5  105.59    7.20
  -7   8   5  105.19    6.20
   6  -8  -5  212.68    8.20
   6  -8  -5  222.28    8.80
  -6   8   5  221.08    7.80
   5  -8  -5    8.10    2.10
  -5   8   5   12.50    3.30
   4  -8  -5  102.49    5.50
   4  -8  -5  107.49    4.80
  -4   8   5  100.19    4.70
  -4   8   5  106.39    4.20
   3  -8  -5  151.48    4.80
   3  -8  -5  154.18    6.20
  -3   8   5  152.38    5.40
  -3   8   5  157.88    5.00
   2  -8  -5   37.20    3.90
   2  -8  -5   39.90    2.50
  -2   8   5   35.60    3.10
  -2   8   5   30.40    2.90
   1  -8  -5 1075.39   21.30
  -1   8   5 1039.70   20.20
  -1   8   5 1059.49   20.20
   0  -8  -5    1.10    1.30
   0   8   5    1.90    0.90
   0   8   5    2.70    0.90
  -1  -8  -5    1.40    1.40
   1   8   5    1.00    0.90
   1   8   5    1.60    0.90
  -2  -8  -5  537.85   12.70
   2   8   5  563.44   12.20
   2   8   5  563.44   10.50
   2   8   5  557.24   11.50
  -3  -8  -5  465.05   11.10
   3   8   5  458.45    9.30
   3   8   5  458.85   10.40
   3   8   5  404.56   11.90
  -4  -8  -5   61.79    2.80
  -4  -8  -5   69.89    4.50
   4   8   5   68.79    3.60
   4   8   5   64.79    3.30
  -5  -8  -5   80.29    5.00
   5   8   5   65.59    4.10
  -6  -8  -5  165.08    7.10
   6   8   5  184.08    6.70
  -7  -8  -5    2.30    2.10
   7   8   5    3.20    2.10
   6  -9  -5   79.19    6.70
   6  -9  -5   76.59    6.40
  -6   9   5   83.29    5.60
   5  -9  -5  648.24   14.70
  -5   9   5  650.33   14.20
  -5   9   5  645.24   14.90
   4  -9  -5    0.50    1.70
   4  -9  -5   -1.80    1.70
  -4   9   5    0.70    1.30
  -4   9   5   -0.20    1.10
   3  -9  -5   95.49    4.30
   3  -9  -5  100.39    5.50
  -3   9   5  101.39    4.40
  -3   9   5   93.29    4.60
   2  -9  -5  412.36    8.60
   2  -9  -5  435.66   11.30
  -2   9   5  421.66   10.10
  -2   9   5  436.16   10.00
   1  -9  -5   65.09    4.60
  -1   9   5   66.89    3.80
  -1   9   5   66.89    3.80
   0  -9  -5  629.74   14.30
   0   9   5  612.54   13.00
   0   9   5  622.14   13.40
  -1  -9  -5  439.36   11.10
   1   9   5  430.36    9.70
   1   9   5  446.26   10.40
  -2  -9  -5    2.50    1.50
   2   9   5    2.50    1.10
   2   9   5    6.60    2.30
   2   9   5    6.50    1.60
  -3  -9  -5  469.55   11.70
   3   9   5  478.65   11.20
   3   9   5  464.65   10.10
   3   9   5  454.55    9.60
  -4  -9  -5  270.27    8.40
  -4  -9  -5  231.28    7.40
   4   9   5  261.87    7.60
   4   9   5  259.97    6.90
  -5  -9  -5   19.00    6.10
   5   9   5   24.50    3.60
  -6  -9  -5  208.68    8.10
   6   9   5  206.28    7.10
  -7  -9  -5   51.59    6.00
   7   9   5   40.80    5.00
   5 -10  -5   62.49    6.20
  -5  10   5   72.69    5.30
   4 -10  -5  209.78    9.00
  -4  10   5  210.88    6.70
  -4  10   5  216.78    7.60
   3 -10  -5   39.80    4.90
  -3  10   5   37.20    3.50
  -3  10   5   45.80    4.10
   2 -10  -5  142.29    6.70
  -2  10   5  149.39    5.70
  -2  10   5  146.89    5.60
   1 -10  -5  796.72   17.80
  -1  10   5  794.72   16.50
  -1  10   5  795.12   16.60
   0 -10  -5  149.19    6.60
   0  10   5  139.79    5.20
   0  10   5  146.29    5.70
  -1 -10  -5   33.10    4.30
   1  10   5   27.90    3.40
   1  10   5   31.80    3.10
  -2 -10  -5  348.47    9.90
   2  10   5  348.57    9.20
   2  10   5  352.46    8.50
  -3 -10  -5    2.20    1.70
   3  10   5    0.90    1.30
   3  10   5   -0.60    1.30
  -4 -10  -5  189.18   10.50
   4  10   5  189.48    6.70
   4  10   5  184.78    6.20
  -5 -10  -5  144.39    7.10
   5  10   5  145.59    6.90
  -6 -10  -5   52.39    5.70
   5 -11  -5   89.89    7.10
  -5  11   5  105.29    6.50
   4 -11  -5   15.00    5.40
  -4  11   5   25.30    4.70
  -4  11   5   23.30    3.70
  -3  11   5   15.60    3.90
  -3  11   5   11.30    3.40
   2 -11  -5    2.20    2.00
  -2  11   5    2.60    1.40
  -2  11   5    5.10    1.60
   1 -11  -5  172.58    7.50
  -1  11   5  164.38    6.30
  -1  11   5  156.78    6.30
   0 -11  -5  933.51   20.50
   0  11   5  955.10   19.60
   0  11   5  942.21   19.00
  -1 -11  -5   26.40    4.70
   1  11   5   29.60    3.70
   1  11   5   34.10    3.40
  -2 -11  -5    2.60    1.80
   2  11   5    2.40    1.40
   2  11   5    1.30    1.30
  -3 -11  -5   83.19    6.60
   3  11   5   77.99    5.80
   3  11   5   78.69    4.40
  -4 -11  -5   83.89    6.10
   4  11   5   75.99    5.40
  -5 -11  -5   51.49    5.70
   4 -12  -5  108.69    7.80
  -4  12   5  123.29    6.80
  -4  12   5  121.29    6.00
   3 -12  -5    5.40    2.60
  -3  12   5    3.80    1.70
  -3  12   5    6.40    2.00
   2 -12  -5  104.99    6.90
  -2  12   5   92.29    5.50
  -2  12   5   85.89    5.50
   1 -12  -5    3.20    2.30
  -1  12   5    3.00    1.70
  -1  12   5    3.40    1.60
   0 -12  -5    4.70    2.60
   0  12   5    1.90    1.50
   0  12   5    2.60    1.60
  -1 -12  -5  146.29    7.10
   1  12   5  142.99    5.70
   1  12   5  141.39    6.40
  -2 -12  -5   28.50    5.10
   2  12   5   16.10    4.00
   2  12   5   20.80    4.10
  -3 -12  -5   31.70    5.40
   3  12   5   31.20    4.70
  -4 -12  -5   63.29    6.30
   4  12   5   54.19    5.30
  -5 -12  -5   53.59    6.80
   2 -13  -5   -4.50    2.40
  -2  13   5   -0.70    1.80
  -2  13   5   -0.40    2.00
   1 -13  -5   30.70    5.90
  -1  13   5   49.40    5.10
  -1  13   5   45.30    5.20
   0 -13  -5   23.50    5.90
   0  13   5   20.30    4.50
  -1 -13  -5   56.79    6.40
   1  13   5   49.20    5.20
   1  13   5   65.09    4.90
  -2 -13  -5    5.20    2.60
   2  13   5   14.10    4.50
   2  13   5    6.20    2.60
  -3 -13  -5    4.40    2.40
   3  13   5    2.50    2.10
   0 -14  -5   46.90    6.80
   0  14   5   28.90    5.40
   0  14   5   28.90    5.50
  -1 -14  -5   78.19    7.10
   1  14   5   64.49    5.80
   1  14   5   54.29    5.90
   3  11  -6    3.90    2.50
   3  11  -6    3.30    2.00
  -3 -11   6    3.50    1.80
  -3 -11   6    0.20    2.50
   2  11  -6   90.69    6.10
  -2 -11   6   90.89    7.20
   1  11  -6  319.07   10.00
  -1 -11   6  324.97   11.00
   0  11  -6   17.50    4.50
   0  11  -6    6.10    1.90
   0 -11   6    7.30    2.70
  -1  11  -6    6.40    1.90
  -1  11  -6    7.70    2.00
   1 -11   6    5.30    2.60
  -2  11  -6   48.70    5.20
  -2  11  -6   43.70    5.00
   2 -11   6   42.00    6.60
   4  10  -6   41.20    5.20
   4  10  -6   41.00    5.80
  -4 -10   6   41.90    4.20
  -4 -10   6   38.80    5.70
   3  10  -6   65.99    5.10
   3  10  -6   48.50    5.80
  -3 -10   6   51.99    5.60
  -3 -10   6   58.69    4.10
  -2 -10   6    9.90    2.50
  -2 -10   6    7.50    1.50
   1  10  -6  192.48    6.30
   1  10  -6  190.98    7.10
  -1 -10   6  194.98    8.00
   0  10  -6  472.95   12.10
   0  10  -6  471.05   11.10
   0 -10   6  482.85   12.90
  -1  10  -6   -1.10    1.40
  -1  10  -6    1.50    1.40
   1 -10   6    3.00    2.10
  -2  10  -6   40.30    4.30
  -2  10  -6   36.30    4.10
   2 -10   6   38.70    5.60
  -3  10  -6   78.89    5.60
  -3  10  -6   84.59    5.50
   3 -10   6   92.69    7.70
  -4  10  -6    5.00    1.90
  -4  10  -6    1.60    2.10
   4 -10   6    7.80    3.20
   5   9  -6   76.49    6.30
   5   9  -6   79.99    6.40
  -5  -9   6   88.89    6.60
  -5  -9   6   84.19    5.20
   4   9  -6   91.49    5.20
   4   9  -6   96.59    6.20
  -4  -9   6   96.99    4.80
  -4  -9   6  101.39    6.40
   3   9  -6   62.79    5.70
   3   9  -6   67.09    4.60
  -3  -9   6   66.49    5.60
  -3  -9   6   77.09    4.20
   2   9  -6  206.68    7.00
  -2  -9   6  200.68    6.10
  -2  -9   6  201.18    7.80
   1   9  -6    0.00    1.20
   1   9  -6    0.50    1.20
  -1  -9   6    1.30    1.10
  -1  -9   6    0.90    1.80
   0   9  -6   94.19    4.60
   0   9  -6  106.09    5.10
   0  -9   6  112.09    5.90
  -1   9  -6  110.99    5.10
  -1   9  -6  117.09    5.20
   1  -9   6  105.49    6.00
  -2   9  -6    4.00    1.50
   2  -9   6    4.80    4.00
  -3   9  -6  161.28    6.40
  -3   9  -6  160.58    6.30
   3  -9   6  162.38    8.30
  -4   9  -6  309.27    9.70
  -4   9  -6  298.67    8.90
   4  -9   6  305.97   10.90
  -5   9  -6    1.00    1.70
  -5   9  -6    3.00    2.00
   5  -9   6    0.70    2.90
   6   8  -6    2.10    2.60
   5   8  -6  120.79    5.50
   5   8  -6  108.49    6.70
  -5  -8   6  113.69    7.80
  -5  -8   6  106.39    6.50
   4   8  -6  126.69    7.50
   4   8  -6  122.99    5.40
  -4  -8   6  119.79    5.00
  -4  -8   6  137.79   10.10
   3   8  -6   23.20    3.50
   3   8  -6   21.40    4.20
  -3  -8   6   15.50    2.80
  -3  -8   6   19.80    4.00
   2   8  -6  113.39    4.40
   2   8  -6  119.99    4.90
  -2  -8   6  126.89    5.80
  -2  -8   6  116.29    4.30
   1   8  -6   55.09    3.20
   1   8  -6   49.80    3.50
  -1  -8   6   53.79    4.40
  -1  -8   6   47.80    2.90
   0   8  -6   81.69    4.20
   0   8  -6   84.79    4.00
   0  -8   6   82.89    5.00
   0  -8   6   84.89    3.00
  -1   8  -6  368.16    9.10
  -1   8  -6  365.36    9.30
   1  -8   6  371.06   10.30
  -2   8  -6   41.90    3.70
  -2   8  -6   45.30    3.60
   2  -8   6   50.79    5.00
  -3   8  -6    2.70    1.30
  -4   8  -6  114.29    5.10
  -4   8  -6  115.89    5.70
   4  -8   6  108.09    7.00
  -5   8  -6  454.35   12.10
   5  -8   6  450.95   13.60
   6   7  -6  253.27    9.70
  -6  -7   6  254.57    8.40
   5   7  -6   21.90    4.20
   5   7  -6   18.40    3.60
  -5  -7   6   18.40    3.30
  -5  -7   6   15.40    3.90
   4   7  -6    9.00    3.00
   4   7  -6   11.60    3.50
  -4  -7   6    9.90    3.60
  -4  -7   6   15.50    2.90
   3   7  -6  511.25   12.90
   3   7  -6  501.85   11.20
  -3  -7   6  499.85   11.10
  -3  -7   6  511.45   12.40
   2   7  -6   13.00    2.10
   2   7  -6   19.40    2.80
  -2  -7   6   22.30    3.50
  -2  -7   6   16.00    2.30
   1   7  -6  597.34   11.90
   1   7  -6  593.14   12.80
  -1  -7   6  603.94   11.70
  -1  -7   6  583.44   13.60
   0   7  -6  324.27    7.70
   0   7  -6  311.07    8.10
   0  -7   6  314.97    6.60
   0  -7   6  309.07    8.80
  -1   7  -6  209.58    6.30
  -1   7  -6  211.98    6.10
   1  -7   6  209.58    7.20
  -2   7  -6  364.16    9.00
  -2   7  -6  377.46    9.20
   2  -7   6  359.06   10.00
  -3   7  -6   39.80    3.60
  -3   7  -6   39.00    3.30
   3  -7   6   40.60    4.30
  -4   7  -6   16.80    3.30
  -4   7  -6   14.30    2.90
   4  -7   6   21.10    4.40
  -5   7  -6  149.59    6.50
  -5   7  -6  138.09    5.50
   5  -7   6  141.29    7.60
  -6   7  -6  141.39    5.50
  -6   7  -6  150.28    6.80
   6  -7   6  150.08    8.80
   7   6  -6   10.90    2.90
   6   6  -6   97.79    6.50
  -6  -6   6   99.39    5.50
   5   6  -6  518.85   11.10
   5   6  -6  500.35   13.20
  -5  -6   6  510.65   12.80
  -5  -6   6  513.85   12.00
   4   6  -6   19.30    2.80
   4   6  -6   14.40    3.60
  -4  -6   6   14.10    2.60
  -4  -6   6   18.00    3.50
   3   6  -6   53.99    2.30
   3   6  -6   46.50    4.10
   3   6  -6   51.79    3.20
  -3  -6   6   51.79    3.10
  -3  -6   6   49.30    3.90
   2   6  -6  731.53   13.50
   2   6  -6  734.13   14.70
  -2  -6   6  717.03   15.50
  -2  -6   6  722.43   14.10
   1   6  -6   48.20    3.10
   1   6  -6   40.90    3.30
  -1  -6   6   44.10    3.60
  -1  -6   6   47.60    2.30
   0   6  -6  624.24   12.40
   0   6  -6  620.04   12.90
   0  -6   6  602.54   13.60
   0  -6   6  634.04   11.40
  -1   6  -6  495.95   10.60
  -1   6  -6  489.05   10.80
   1  -6   6  495.35   11.80
  -2   6  -6    5.90    1.30
  -2   6  -6    4.20    1.10
   2  -6   6    5.50    1.60
  -3   6  -6    5.70    1.20
  -3   6  -6    8.10    2.60
   3  -6   6    5.40    1.60
  -4   6  -6  255.97    7.00
  -4   6  -6  246.28    7.40
   4  -6   6  247.38    8.50
  -5   6  -6   72.59    5.40
  -5   6  -6   68.59    3.90
   5  -6   6   69.19    7.30
  -6   6  -6  414.16   11.20
  -6   6  -6  386.46    9.70
   6  -6   6  409.86   12.80
   7   5  -6  221.18    9.50
  -7  -5   6  221.18    8.20
   6   5  -6   69.39    5.60
  -6  -5   6   69.19    5.70
   5   5  -6   24.40    4.10
   5   5  -6   25.80    3.00
  -5  -5   6   24.90    3.30
   4   5  -6  139.19    5.80
   4   5  -6  137.29    4.50
  -4  -5   6  137.99    5.70
  -4  -5   6  144.59    5.00
   3   5  -6   41.90    3.70
   3   5  -6   42.90    2.80
   3   5  -6   43.90    2.00
  -3  -5   6   42.80    3.50
  -3  -5   6   42.40    2.70
   2   5  -6  780.92   14.10
   2   5  -6  773.62   15.00
  -2  -5   6  747.43   15.80
   1   5  -6 2612.54   45.30
   1   5  -6 2647.34   44.70
  -1  -5   6 2559.94   46.10
  -1  -5   6 2611.44   44.40
   0   5  -6   44.40    2.60
   0   5  -6   40.40    2.50
   0   5  -6   41.50    2.70
   0  -5   6   44.70    1.70
   0  -5   6   42.20    3.20
  -1   5  -6   14.30    2.30
  -1   5  -6   15.40    2.10
   1  -5   6   16.10    2.80
  -2   5  -6 1185.68   22.20
  -2   5  -6 1211.78   22.30
   2  -5   6 1186.68   23.30
  -3   5  -6   97.39    4.20
  -3   5  -6   99.59    4.00
   3  -5   6   89.59    5.00
  -4   5  -6  203.08    6.40
  -4   5  -6  209.38    5.90
   4  -5   6  188.18    7.30
  -5   5  -6  136.49    4.90
  -5   5  -6  144.99    5.50
   5  -5   6  142.09    6.80
  -6   5  -6   65.59    4.70
  -6   5  -6   54.39    3.70
   6  -5   6   70.19    6.20
  -7   5  -6  103.69    6.10
   7  -5   6  106.59    7.90
   8   4  -6   47.70    7.10
  -8  -4   6   38.50    5.40
   7   4  -6  140.89    7.50
  -7  -4   6  135.39    6.40
   6   4  -6  325.87   10.10
  -6  -4   6  324.77    9.10
   5   4  -6  448.26   10.40
   5   4  -6  468.65   11.90
  -5  -4   6  478.75   11.00
   4   4  -6  148.39    5.80
   4   4  -6  145.59    4.40
  -4  -4   6  154.38    5.70
  -4  -4   6  150.08    5.00
   3   4  -6  209.58    5.40
   3   4  -6  223.98    4.70
   3   4  -6  208.68    6.60
  -3  -4   6  209.28    6.40
  -3  -4   6  212.78    5.60
   2   4  -6  488.85   10.10
   2   4  -6  510.85    9.50
  -2  -4   6  486.85    9.90
  -2  -4   6  485.65   10.90
   1   4  -6  296.77    6.30
   1   4  -6  278.27    6.70
  -1  -4   6  288.17    6.00
  -1  -4   6  282.37    7.30
   0   4  -6 1086.29   20.10
   0   4  -6 1102.89   18.90
   0   4  -6 1067.79   20.50
   0  -4   6 1088.99   18.70
   0  -4   6 1096.49   20.80
  -1   4  -6   11.60    1.90
  -1   4  -6   11.00    1.90
   1  -4   6   10.00    2.30
  -2   4  -6   18.10    2.30
  -2   4  -6   21.50    2.20
   2  -4   6   14.80    2.70
  -3   4  -6 1094.89   20.60
  -3   4  -6 1122.59   21.00
   3  -4   6 1096.49   21.80
  -4   4  -6  657.63   13.20
  -4   4  -6  653.83   13.70
   4  -4   6  632.34   14.70
  -5   4  -6   86.59    4.40
  -5   4  -6   86.79    3.80
   5  -4   6   85.29    5.50
  -6   4  -6   84.39    5.10
  -6   4  -6   80.49    3.90
   6  -4   6   86.89    7.00
  -7   4  -6    0.50    1.60
   7  -4   6    4.70    2.40
   8   3  -6   95.09    7.60
  -8  -3   6   95.89    6.00
   7   3  -6    0.80    1.90
  -7  -3   6   -1.40    1.60
   6   3  -6  107.79    5.90
  -6  -3   6  109.39    5.10
   5   3  -6  468.35   11.80
   5   3  -6  455.95    9.20
  -5  -3   6  457.85   10.70
   4   3  -6 1715.13   29.10
   4   3  -6 1691.23   31.80
   4   3  -6 1734.43   29.80
  -4  -3   6 1712.33   31.60
  -4  -3   6 1683.03   30.80
   3   3  -6   24.30    2.70
   3   3  -6   24.00    2.10
   3   3  -6   26.20    1.60
  -3  -3   6   24.60    2.20
  -3  -3   6   26.80    2.60
   2   3  -6  508.25    9.60
   2   3  -6  497.15   10.80
  -2  -3   6  507.55   10.90
  -2  -3   6  501.45    9.90
   1   3  -6  792.52   14.30
   1   3  -6  750.72   15.50
  -1  -3   6  792.82   14.00
  -1  -3   6  764.42   15.20
   0   3  -6  133.09    4.10
   0   3  -6  141.29    3.90
   0   3  -6  142.99    3.20
   0  -3   6  147.39    3.10
  -1   3  -6  867.11   16.10
  -1   3  -6  858.71   16.10
   1  -3   6  834.22   16.50
  -2   3  -6    5.20    1.70
  -2   3  -6    1.00    0.60
   2  -3   6    0.80    1.00
  -3   3  -6  520.95   10.70
  -3   3  -6  512.35   11.00
   3  -3   6  519.95   11.80
  -4   3  -6 1475.25   26.90
  -4   3  -6 1441.06   26.10
   4  -3   6 1433.26   27.70
  -5   3  -6   50.19    3.50
  -5   3  -6   49.50    2.90
   5  -3   6   50.59    4.50
  -6   3  -6    0.10    1.20
  -6   3  -6    1.80    1.00
   6  -3   6   -1.90    1.60
  -7   3  -6  199.58    7.10
   7  -3   6  198.18    8.50
  -8   3  -6   20.60    4.60
   8  -3   6   24.30    6.40
   8   2  -6   20.20    6.20
  -8  -2   6   18.70    4.70
   7   2  -6   81.19    6.10
  -7  -2   6   74.69    4.90
   6   2  -6   61.09    4.90
  -6  -2   6   54.19    4.10
   5   2  -6   66.19    2.70
   5   2  -6   67.89    4.40
   5   2  -6   70.79    2.60
  -5  -2   6   65.39    2.30
  -5  -2   6   67.59    3.80
   4   2  -6  908.41   16.20
   4   2  -6  886.81   18.20
   4   2  -6  887.01   16.20
  -4  -2   6  902.21   17.50
  -4  -2   6  920.01   16.10
   3   2  -6   54.69    3.30
   3   2  -6   51.39    2.40
   3   2  -6   50.49    2.10
  -3  -2   6   52.99    2.70
  -3  -2   6   56.49    3.20
  -3  -2   6   55.89    2.10
   2   2  -6  477.55    9.20
   2   2  -6  480.05    9.50
  -2  -2   6  480.45    9.50
  -2  -2   6  481.95   11.00
   1   2  -6 1297.97   23.30
   1   2  -6 1366.36   23.60
  -1  -2   6 1334.27   24.00
  -1  -2   6 1308.27   23.00
   0   2  -6 1168.08   20.10
   0   2  -6 1212.08   21.20
   0   2  -6 1185.28   21.00
   0  -2   6 1170.88   21.50
   0  -2   6 1156.48   20.10
  -1   2  -6   29.00    1.90
  -1   2  -6   26.10    2.40
   1  -2   6   32.70    2.30
  -2   2  -6  278.17    6.50
  -2   2  -6  287.87    6.70
   2  -2   6  281.27    7.10
  -3   2  -6  377.26    8.40
  -3   2  -6  381.76    8.20
   3  -2   6  366.56    9.00
  -4   2  -6  229.58    6.30
  -4   2  -6  225.88    5.80
   4  -2   6  233.08    7.20
  -5   2  -6  999.60   17.60
  -5   2  -6  985.00   19.20
  -5   2  -6  966.00   18.40
   5  -2   6  987.50   20.50
  -6   2  -6   16.50    3.00
  -6   2  -6    9.40    2.40
   6  -2   6   10.70    2.20
  -7   2  -6   17.90    3.30
   7  -2   6   10.00    2.40
  -8   2  -6  307.57    9.20
   8  -2   6  314.27   11.50
   8   1  -6   80.59    7.00
  -8  -1   6   77.09    5.70
  -7  -1   6   12.80    3.60
   6   1  -6  388.86   10.60
  -6  -1   6  378.66    9.70
  -6  -1   6  369.66    7.90
   5   1  -6   31.00    3.60
   5   1  -6   36.60    2.00
  -5  -1   6   36.20    2.00
  -5  -1   6   32.30    3.10
   4   1  -6  178.98    4.30
   4   1  -6  181.18    5.90
  -4  -1   6  189.08    4.50
  -4  -1   6  174.48    5.40
   3   1  -6 1003.30   18.90
   3   1  -6  955.30   17.50
  -3  -1   6  969.70   18.20
  -3  -1   6 1006.40   18.60
  -3  -1   6  968.60   17.50
   2   1  -6  495.75    9.60
   2   1  -6  489.25    9.60
   2   1  -6  511.15   10.50
  -2  -1   6  483.15    9.70
  -2  -1   6  491.95   10.20
  -2  -1   6  492.85    9.50
   1   1  -6  270.77    5.90
   1   1  -6  273.27    6.00
  -1  -1   6  287.97    5.80
  -1  -1   6  268.57    6.30
  -1  -1   6  266.47    5.90
   0   1  -6 4540.45   76.89
   0   1  -6 4546.65   75.99
   0   1  -6 4527.35   76.19
   0   1  -6 4702.33   76.99
   0  -1   6 4580.44   77.09
   0  -1   6 4564.94   76.09
  -1   1  -6 2440.56   42.20
  -1   1  -6 2491.95   42.20
   1  -1   6 2445.66   42.50
  -2   1  -6  635.64   13.60
  -2   1  -6  680.93   12.80
   2  -1   6  684.43   13.30
  -3   1  -6  137.79    4.20
  -3   1  -6  127.89    4.50
   3  -1   6  135.39    4.70
  -4   1  -6  235.28    6.20
  -4   1  -6  235.38    5.80
  -4   1  -6  239.58    5.00
   4  -1   6  230.58    6.90
   4  -1   6  229.28    5.10
  -5   1  -6  228.48    6.50
  -5   1  -6  230.78    5.90
  -5   1  -6  229.08    5.40
   5  -1   6  231.78    7.40
  -6   1  -6  267.47    6.50
  -6   1  -6  271.77    7.40
   6  -1   6  269.77    8.70
  -7   1  -6    0.60    1.20
   7  -1   6    2.00    2.10
  -8   1  -6   63.09    4.60
   8  -1   6   64.59    6.40
   8   0  -6   67.49    6.50
  -8   0   6   69.29    5.60
   7   0  -6  275.37    9.50
  -7   0   6  267.37    8.90
   6   0  -6  181.08    6.90
  -6   0   6  167.08    4.90
  -6   0   6  177.18    6.30
   5   0  -6 1291.47   24.90
  -5   0   6 1270.57   24.30
  -5   0   6 1299.97   23.10
   4   0  -6  496.85    9.30
   4   0  -6  491.45   11.00
  -4   0   6  489.65   10.70
  -4   0   6  507.75    9.90
   3   0  -6  152.08    3.90
   3   0  -6  155.78    5.50
  -3   0   6  174.08    4.20
  -3   0   6  149.09    4.50
   2   0  -6 1298.57   23.40
   2   0  -6 1310.07   24.10
  -2   0   6 1473.95   23.80
  -2   0   6 1316.67   23.80
  -2   0   6 1321.97   23.90
   1   0  -6  904.71   16.20
   1   0  -6  876.41   16.00
  -1   0   6  889.31   15.90
  -1   0   6  882.71   16.10
  -1   0   6  880.21   16.10
   0   0  -6 2257.97   38.50
   0   0  -6 2263.27   39.10
   0   0  -6 2307.27   38.40
   0   0   6 2275.07   39.00
   0   0   6 2283.47   39.10
  -1   0  -6 1519.45   26.30
  -1   0  -6 1535.45   27.30
  -1   0  -6 1575.54   26.50
   1   0   6 1596.94   27.40
   1   0   6 1553.94   26.40
  -2   0  -6  527.35    9.20
  -2   0  -6  516.85   10.30
   2   0   6  509.45   10.40
   2   0   6  508.95    9.30
  -3   0  -6   13.80    1.80
  -3   0  -6   12.10    1.20
   3   0   6   10.10    2.80
   3   0   6   12.50    1.50
  -4   0  -6 1419.96   24.90
  -4   0  -6 1391.26   25.20
  -4   0  -6 1372.56   24.10
   4   0   6 1366.26   25.90
  -5   0  -6  484.05   10.00
  -5   0  -6  479.65   10.50
  -5   0  -6  476.15    9.70
   5   0   6  482.25   11.60
  -6   0  -6   27.40    3.00
  -6   0  -6   27.50    2.90
  -6   0  -6   35.80    2.70
   6   0   6   29.10    4.10
  -7   0  -6   34.40    3.70
  -7   0  -6   28.40    3.20
   8   0   6   10.20    2.60
   8  -1  -6   -1.60    2.30
  -8   1   6   -0.80    1.70
   7  -1  -6  189.18    7.60
  -7   1   6  179.58    7.40
  -7   1   6  173.28    5.30
   6  -1  -6  420.26   10.90
  -6   1   6  397.36    9.00
  -6   1   6  414.66   10.50
   5  -1  -6    0.40    1.20
  -5   1   6    1.10    1.10
  -5   1   6    0.60    0.80
   4  -1  -6  585.94   10.60
   4  -1  -6  566.14   12.20
  -4   1   6  588.54   11.40
  -4   1   6  575.54   12.20
   3  -1  -6 2111.39   36.40
  -3   1   6 2051.29   35.80
  -3   1   6 2049.79   36.30
   2  -1  -6   37.30    2.10
   2  -1  -6   34.00    2.00
  -2   1   6   35.50    2.00
  -2   1   6   37.10    2.00
  -2   1   6   33.90    2.10
   1  -1  -6 1823.02   31.50
  -1   1   6 1817.62   31.60
  -1   1   6 1805.12   31.20
  -1   1   6 1832.82   31.50
   0  -1  -6 1465.35   25.90
   0  -1  -6 1463.45   25.60
   0  -1  -6 1567.04   26.20
   0  -1  -6 1453.25   25.50
   0   1   6 1442.56   25.80
   0   1   6 1488.05   25.50
   0   1   6 1427.06   25.40
  -1  -1  -6   41.50    2.00
  -1  -1  -6   38.50    2.00
   1   1   6   37.90    2.00
   1   1   6   41.00    1.90
   1   1   6   37.50    1.60
  -2  -1  -6 2359.86   40.40
  -2  -1  -6 2359.86   41.20
   2   1   6 2416.96   41.10
   2   1   6 2422.56   40.60
  -3  -1  -6   99.79    3.50
  -3  -1  -6  105.39    3.00
   3   1   6  106.99    3.80
  -4  -1  -6   74.69    2.80
  -4  -1  -6   74.89    3.20
   4   1   6   75.49    3.80
  -5  -1  -6 1234.48   22.80
  -5  -1  -6 1213.58   23.00
   5   1   6 1255.67   24.00
  -6  -1  -6  700.83   14.30
  -6  -1  -6  745.13   14.80
  -6  -1  -6  711.73   14.00
   6   1   6  739.03   16.30
  -7  -1  -6   70.89    4.00
  -7  -1  -6   74.99    4.20
   7   1   6   71.69    5.40
  -8  -1  -6   22.40    3.30
  -8  -1  -6   13.90    4.40
   8  -2  -6  129.59    6.90
   8  -2  -6  138.19    7.70
  -8   2   6  133.79    7.00
   7  -2  -6    2.60    1.90
  -7   2   6    2.00    1.20
  -7   2   6    5.30    1.80
   6  -2  -6  354.16    9.80
  -6   2   6  351.66    9.50
  -6   2   6  355.76    8.40
   5  -2  -6 1343.67   25.50
  -5   2   6 1339.37   24.50
  -5   2   6 1344.77   25.40
   4  -2  -6  101.09    4.10
   4  -2  -6   99.19    4.10
  -4   2   6  102.29    3.60
  -4   2   6  103.39    4.00
   3  -2  -6  421.06    8.80
   3  -2  -6  406.36    9.20
  -3   2   6  410.66    9.00
  -3   2   6  409.66    8.60
   2  -2  -6 1110.69   20.60
   2  -2  -6 1128.79   20.10
  -2   2   6 1124.89   20.30
  -2   2   6 1139.59   20.60
   1  -2  -6  152.18    3.60
   1  -2  -6  154.38    3.60
   1  -2  -6  150.28    4.20
  -1   2   6  162.38    3.60
  -1   2   6  148.89    4.10
   0  -2  -6 1143.79   20.50
   0  -2  -6 1171.78   19.80
   0   2   6 1152.28   20.50
   0   2   6 1114.99   19.70
  -1  -2  -6  205.88    4.90
  -1  -2  -6  209.18    4.60
  -1  -2  -6  197.18    4.90
   1   2   6  197.78    4.90
   1   2   6  198.58    4.40
  -2  -2  -6  730.33   13.60
  -2  -2  -6  741.73   13.90
   2   2   6  738.33   13.90
   2   2   6  730.13   13.60
  -3  -2  -6 1473.95   28.10
  -3  -2  -6 1535.75   26.60
   3   2   6 1539.85   27.10
  -4  -2  -6  767.72   14.90
  -4  -2  -6  788.22   14.70
   4   2   6  776.72   15.60
  -5  -2  -6   26.90    2.50
  -5  -2  -6   34.70    2.50
   5   2   6   33.10    3.30
  -6  -2  -6  205.98    6.10
  -6  -2  -6  222.58    6.00
   6   2   6  218.98    7.50
  -7  -2  -6  197.58    6.50
  -7  -2  -6  205.58    6.10
   7   2   6  203.28    7.90
  -8  -2  -6   -0.70    1.60
  -8  -2  -6   -1.00    1.80
   8  -3  -6  114.59    7.90
   8  -3  -6  119.29    7.00
  -8   3   6  113.59    7.00
  -8   3   6  109.59    7.80
   7  -3  -6   13.30    4.40
   7  -3  -6   11.20    4.10
  -7   3   6    8.90    2.10
  -7   3   6   12.70    3.10
   6  -3  -6   15.80    3.80
   6  -3  -6   21.80    3.50
  -6   3   6   14.60    2.60
  -6   3   6   18.00    3.50
   5  -3  -6  567.54   13.00
   5  -3  -6  568.44   12.70
  -5   3   6  580.54   12.90
  -5   3   6  582.54   12.10
   4  -3  -6  556.74   12.30
   4  -3  -6  567.84   11.80
  -4   3   6  549.35   12.00
  -4   3   6  560.74   11.60
   3  -3  -6   11.00    2.00
   3  -3  -6   11.30    1.90
  -3   3   6    9.10    1.80
  -3   3   6   14.30    2.20
   2  -3  -6  225.28    5.50
   2  -3  -6  221.18    4.90
  -2   3   6  200.68    5.40
   1  -3  -6 3194.08   52.49
   1  -3  -6 3109.79   53.79
   1  -3  -6 3149.98   52.49
  -1   3   6 3117.09   53.59
   0  -3  -6  711.23   13.70
   0   3   6  700.53   13.40
  -1  -3  -6  577.04   10.10
  -1  -3  -6  562.84   11.20
   1   3   6  551.74   10.00
   1   3   6  539.15   10.90
  -2  -3  -6  880.51   16.70
  -2  -3  -6  980.70   17.00
  -2  -3  -6  877.31   16.60
   2   3   6  881.01   16.10
   2   3   6  887.51   16.70
  -3  -3  -6   50.79    2.50
  -3  -3  -6   54.29    2.80
   3   3   6   52.29    2.70
  -4  -3  -6  433.46    9.60
  -4  -3  -6  443.26    9.20
   4   3   6  439.46    9.80
  -5  -3  -6  103.99    4.10
  -5  -3  -6   99.29    3.70
   5   3   6   98.39    4.50
  -6  -3  -6   11.70    2.80
  -6  -3  -6    6.80    2.30
   6   3   6   12.50    3.40
  -7  -3  -6  287.47    8.20
  -7  -3  -6  289.47    7.50
   7   3   6  313.27    9.50
  -8  -3  -6   10.40    4.00
   8   3   6    0.50    2.40
   8  -4  -6   83.89    7.50
   8  -4  -6  107.39    7.00
  -8   4   6   96.89    6.70
  -8   4   6   87.49    5.80
   7  -4  -6   49.40    4.90
   7  -4  -6   54.39    5.50
  -7   4   6   52.69    4.00
  -7   4   6   53.09    4.90
   6  -4  -6  388.56   10.70
   6  -4  -6  395.36   10.50
  -6   4   6  403.66    9.80
  -6   4   6  394.26   10.50
   5  -4  -6  109.39    5.00
   5  -4  -6  112.99    4.90
  -5   4   6  110.49    5.00
  -5   4   6  113.19    4.50
   4  -4  -6  493.25   10.90
   4  -4  -6  488.25   11.40
  -4   4   6  497.25   10.80
  -4   4   6  500.55   11.30
   3  -4  -6   96.99    4.00
   3  -4  -6   98.19    3.40
  -3   4   6   97.99    3.70
  -3   4   6   98.39    4.00
   2  -4  -6  132.19    3.30
   2  -4  -6  124.09    4.30
   2  -4  -6  127.19    3.30
  -2   4   6  125.39    4.00
   1  -4  -6  963.80   18.40
  -1   4   6  953.50   19.10
   0  -4  -6 1340.17   24.20
   0   4   6 1306.97   23.70
   1   4   6   17.00    1.80
  -2  -4  -6   31.30    2.60
  -2  -4  -6   35.60    1.90
  -2  -4  -6   32.40    2.10
   2   4   6   37.60    1.80
   2   4   6   34.40    2.10
  -3  -4  -6  842.02   15.50
  -3  -4  -6  777.02   16.90
   3   4   6  824.02   15.50
   3   4   6  837.32   15.40
  -4  -4  -6  129.69    4.00
  -4  -4  -6  126.19    4.50
   4   4   6  129.59    5.20
  -5  -4  -6   92.49    4.10
  -5  -4  -6   94.99    3.60
   5   4   6   96.69    4.50
  -6  -4  -6  112.29    5.00
  -6  -4  -6  107.19    4.00
   6   4   6  115.99    5.40
  -7  -4  -6    0.10    1.00
  -7  -4  -6    1.80    1.40
   7   4   6    0.60    1.80
  -8  -4  -6  271.87    8.80
   8   4   6  260.67    9.70
   7  -5  -6   21.60    4.70
   7  -5  -6   13.10    5.00
  -7   5   6   18.20    4.80
  -7   5   6   13.60    3.30
   6  -5  -6  120.89    6.10
   6  -5  -6  119.99    5.90
  -6   5   6  120.69    5.80
  -6   5   6  119.69    5.10
   5  -5  -6  690.13   15.50
   5  -5  -6  687.13   14.80
  -5   5   6  696.63   14.60
  -5   5   6  705.53   15.30
   4  -5  -6  131.99    5.30
   4  -5  -6  144.39    5.90
  -4   5   6  129.19    4.80
  -4   5   6  126.89    5.20
   3  -5  -6   56.39    3.40
   3  -5  -6   62.29    2.90
  -3   5   6   67.59    3.30
   2  -5  -6  294.27    5.90
   2  -5  -6  289.57    7.60
   2  -5  -6  308.97    6.10
  -2   5   6  297.87    7.20
  -2   5   6  292.57    5.90
   1  -5  -6   17.90    2.40
  -1   5   6   17.90    2.00
   0  -5  -6 3103.49   53.19
   0   5   6 2988.20   53.29
  -1  -5  -6 1555.44   30.30
   1   5   6 1655.43   28.70
  -2  -5  -6   11.60    2.50
   2   5   6   13.30    1.80
   2   5   6   18.30    1.40
   2   5   6   13.90    1.40
  -3  -5  -6  167.18    5.40
  -3  -5  -6  156.38    5.00
   3   5   6  166.38    4.40
   3   5   6  156.28    4.70
  -4  -5  -6  661.83   13.70
  -4  -5  -6  652.63   13.00
  -5  -5  -6   -0.50    1.30
  -5  -5  -6    2.30    0.90
   5   5   6    1.20    1.30
  -6  -5  -6  199.98    6.60
  -6  -5  -6  186.98    5.30
   6   5   6  204.88    6.90
  -7  -5  -6   63.89    4.60
   7   5   6   61.69    4.90
  -8  -5  -6   10.50    2.40
   8   5   6    9.20    2.60
   7  -6  -6  295.37   10.10
   7  -6  -6  293.57   10.10
  -7   6   6  299.87    9.80
  -7   6   6  300.77    8.90
   6  -6  -6   12.30    3.60
   6  -6  -6   21.20    4.60
  -6   6   6   13.40    3.30
   5  -6  -6  733.63   16.50
   5  -6  -6  745.13   15.70
  -5   6   6  752.82   15.70
   4  -6  -6  842.42   17.40
   4  -6  -6  836.02   17.90
  -4   6   6  873.41   17.20
   3  -6  -6   97.49    3.60
   3  -6  -6   90.49    4.50
  -3   6   6   91.29    3.90
   2  -6  -6  505.45    9.50
   2  -6  -6  507.25   11.70
   2  -6  -6  536.35    9.70
  -2   6   6  509.25   11.00
  -2   6   6  519.35    9.50
   1  -6  -6  714.93   14.90
  -1   6   6  712.23   14.20
   0  -6  -6    2.40    1.20
   0   6   6    1.40    0.80
  -1  -6  -6  374.16    9.20
   1   6   6  383.26    8.50
  -2  -6  -6  584.14   12.60
   2   6   6  608.74   10.60
   2   6   6  562.74   12.40
   2   6   6  575.74   10.50
  -3  -6  -6  175.18    5.80
  -3  -6  -6  172.18    5.00
   3   6   6  181.58    4.60
   3   6   6  170.18    5.60
  -4  -6  -6 1065.99   21.00
  -4  -6  -6 1095.79   19.90
  -5  -6  -6  592.14   11.90
  -5  -6  -6  595.14   13.40
   5   6   6  610.44   13.00
  -6  -6  -6   23.90    3.60
  -6  -6  -6   26.10    2.80
   6   6   6   23.40    3.70
  -7  -6  -6   27.50    5.70
   7   6   6   25.40    4.40
  -8  -6  -6   49.70    5.30
   8   6   6   38.70    5.70
   7  -7  -6   35.10    5.60
  -7   7   6   29.00    4.50
   6  -7  -6   57.89    5.40
   6  -7  -6   58.09    5.70
  -6   7   6   58.19    4.40
   5  -7  -6    0.50    1.70
   5  -7  -6   -1.70    1.50
  -5   7   6    2.90    1.30
   4  -7  -6  354.86    8.80
   4  -7  -6  360.06   10.10
  -4   7   6  367.56    9.20
   3  -7  -6  883.31   16.40
   3  -7  -6  855.91   18.30
  -3   7   6  881.31   17.60
   2  -7  -6  210.18    6.80
   2  -7  -6  211.38    4.70
  -2   7   6  205.58    6.10
  -2   7   6  222.18    5.40
  -2   7   6  206.68    5.80
   1  -7  -6  375.36    9.50
  -1   7   6  368.46    8.50
  -1   7   6  367.96    8.70
   0  -7  -6 2148.89   38.80
   0   7   6 2136.19   37.70
   0   7   6 2123.79   37.80
  -1  -7  -6  403.36   10.10
   1   7   6  408.16    9.00
   1   7   6  398.86    9.20
  -2  -7  -6  490.35   11.50
   2   7   6  492.35   10.40
  -3  -7  -6   47.60    3.80
  -3  -7  -6   40.80    2.70
   3   7   6   44.40    2.90
   3   7   6   43.30    2.30
  -4  -7  -6   94.59    4.90
  -4  -7  -6   92.79    3.60
   4   7   6   87.49    3.70
  -5  -7  -6  669.23   14.70
  -5  -7  -6  615.04   12.60
   5   7   6  658.93   13.80
  -6  -7  -6  331.67    9.50
   6   7   6  335.57    9.30
  -7  -7  -6    5.00    2.00
   7   7   6    1.70    1.80
   6  -8  -6   30.60    5.50
   6  -8  -6   43.80    5.80
  -6   8   6   30.40    4.40
   5  -8  -6  376.06    9.90
   5  -8  -6  382.56   12.00
   4  -8  -6   66.79    4.80
   4  -8  -6   62.69    4.30
  -4   8   6   71.29    4.10
   3  -8  -6    5.90    1.80
   3  -8  -6    6.90    1.40
  -3   8   6   13.40    2.60
   2  -8  -6  912.31   19.10
  -2   8   6  902.71   17.60
  -2   8   6  888.71   18.00
   1  -8  -6   -0.50    1.40
  -1   8   6    0.20    1.00
  -1   8   6   -1.10    1.00
   0  -8  -6   44.60    3.90
   0   8   6   45.20    3.10
   0   8   6   44.30    3.00
  -1  -8  -6  864.51   18.30
   1   8   6  894.31   17.20
   1   8   6  897.91   17.60
  -2  -8  -6  587.34   13.60
   2   8   6  595.24   12.80
   2   8   6  586.14   12.20
  -3  -8  -6  144.59    6.00
   3   8   6  145.89    4.70
   3   8   6  144.39    4.10
  -4  -8  -6  118.59    5.50
  -4  -8  -6  103.69    4.00
   4   8   6  101.09    4.20
   4   8   6   98.59    4.10
  -5  -8  -6   62.09    4.80
   5   8   6   52.89    3.80
  -6  -8  -6   29.70    4.50
   6   8   6   38.40    4.20
  -7  -8  -6  123.29    6.90
   7   8   6  124.79    6.40
   6  -9  -6   75.59    6.70
  -6   9   6   86.89    5.80
   5  -9  -6   76.19    6.00
  -5   9   6   70.49    5.00
   4  -9  -6  124.59    6.50
  -4   9   6  122.79    4.70
  -4   9   6  114.29    7.00
   3  -9  -6   59.99    4.80
  -3   9   6   66.29    3.70
  -3   9   6   67.49    4.20
   2  -9  -6    3.20    1.70
  -2   9   6    8.20    2.90
  -2   9   6    4.00    1.30
   1  -9  -6   98.69    5.50
  -1   9   6  101.29    4.50
  -1   9   6  108.79    4.60
   0  -9  -6   51.79    4.50
   0   9   6   48.10    3.40
   0   9   6   41.00    3.50
  -1  -9  -6  174.28    6.80
   1   9   6  179.68    5.70
   1   9   6  176.68    6.00
  -2  -9  -6  465.95   11.90
   2   9   6  471.25   11.00
   2   9   6  468.05   10.40
  -3  -9  -6   63.49    4.90
   3   9   6   61.79    3.70
   3   9   6   68.29    4.30
   3   9   6   64.49    2.90
  -4  -9  -6    1.90    1.60
  -4  -9  -6    3.70    1.10
   4   9   6    3.80    1.30
   4   9   6    3.10    1.20
  -5  -9  -6  133.49    8.60
   5   9   6  162.38    5.60
  -6  -9  -6    8.10    2.40
   6   9   6    6.50    2.00
  -7  -9  -6   13.80    5.30
   5 -10  -6   61.29    6.40
  -5  10   6   79.69    5.40
   4 -10  -6   25.90    5.10
  -4  10   6   25.90    4.10
  -4  10   6   19.10    3.30
   3 -10  -6   74.29    5.80
  -3  10   6   80.69    5.50
  -3  10   6   87.59    4.40
   2 -10  -6   18.30    4.20
  -2  10   6   16.80    3.40
  -2  10   6   11.40    3.00
   1 -10  -6  100.89    5.90
  -1  10   6  100.59    4.90
  -1  10   6   95.19    4.80
   0 -10  -6  333.67   10.10
   0  10   6  330.07    8.70
   0  10   6  330.67    8.90
  -1 -10  -6  137.29    6.30
   1  10   6  134.59    5.20
   1  10   6  130.69    5.50
  -2 -10  -6   43.70    4.60
   2  10   6   45.70    3.80
   2  10   6   35.50    3.50
  -3 -10  -6  116.09    6.10
   3  10   6  115.39    5.50
   3  10   6  118.99    4.70
  -4 -10  -6   36.40    6.50
   4  10   6   38.40    4.40
  -5 -10  -6    4.10    2.10
  -6 -10  -6   95.89    7.20
   5 -11  -6  184.28    9.20
  -5  11   6  178.38    8.10
   4 -11  -6   53.29    6.20
  -4  11   6   63.09    5.50
  -4  11   6   64.29    4.40
  -3  11   6   13.40    3.40
  -3  11   6   19.80    4.20
   2 -11  -6   14.60    3.40
  -2  11   6   17.70    6.00
   1 -11  -6  189.78    7.90
  -1  11   6  183.28    6.70
  -1  11   6  177.38    6.60
   0 -11  -6  212.08    8.20
   0  11   6  208.48    6.90
   0  11   6  202.48    7.10
  -1 -11  -6   94.29    6.10
   1  11   6   88.69    4.70
   1  11   6   99.39    5.00
  -2 -11  -6   -0.80    1.90
   2  11   6   -1.00    1.30
   2  11   6    4.10    1.40
  -3 -11  -6   43.60    5.40
   3  11   6   40.30    5.40
   3  11   6   37.60    3.90
  -4 -11  -6  174.68    8.00
  -5 -11  -6    1.80    2.30
   4 -12  -6  155.78    9.00
  -4  12   6  173.58    8.10
  -4  12   6  167.88    6.80
   3 -12  -6   40.20    6.40
  -3  12   6   37.90    4.70
  -3  12   6   40.00    5.30
   2 -12  -6   50.59    6.00
  -2  12   6   60.09    5.10
  -2  12   6   53.59    4.80
   1 -12  -6  113.49    7.20
  -1  12   6  126.19    6.00
  -1  12   6  111.39    7.50
   0 -12  -6   82.99    6.30
   0  12   6   84.19    5.10
   0  12   6   95.69    5.40
  -1 -12  -6   30.90    5.40
   1  12   6   38.70    4.50
   1  12   6   41.20    4.30
  -2 -12  -6  193.58    8.20
   2  12   6  186.58    6.70
   2  12   6  178.58    7.30
  -3 -12  -6    5.50    2.30
   3  12   6    4.00    2.00
  -4 -12  -6   66.39    6.60
   4  12   6   57.59    5.60
   2 -13  -6   39.50    6.70
  -2  13   6   60.29    5.60
  -2  13   6   50.79    5.30
   1 -13  -6    2.80    2.60
  -1  13   6    4.30    2.00
   0 -13  -6  338.67   11.60
   0  13   6  338.57   10.20
   0  13   6  337.57    9.90
  -1 -13  -6   85.79    6.80
   1  13   6   89.89    5.60
   1  13   6  105.09    6.40
  -2 -13  -6   -2.30    2.40
   2  13   6    2.50    1.90
  -3 -13  -6   53.49    6.70
   3  13   6   51.89    5.80
   2  11  -7   22.70    5.40
  -2 -11   7   39.80    6.60
   1  11  -7  148.89    7.50
  -1 -11   7  158.98    8.40
   0  11  -7   60.59    5.80
   0  11  -7   46.30    5.00
   0 -11   7   62.79    6.90
  -1  11  -7    0.80    1.90
  -1  11  -7    0.50    1.90
   1 -11   7    2.40    2.60
   4  10  -7   14.80    5.60
  -4 -10   7   16.30    3.70
  -4 -10   7   21.90    5.90
   3  10  -7   25.80    5.80
   3  10  -7   38.60    5.10
  -3 -10   7   32.20    4.40
  -3 -10   7   24.90    5.80
   2  10  -7   63.69    5.30
  -2 -10   7   65.19    6.40
   1  10  -7   16.70    4.40
   1  10  -7   18.30    4.10
  -1 -10   7   26.70    5.50
   0  10  -7   76.59    5.40
   0  10  -7   69.29    4.70
   0 -10   7   86.89    6.50
  -1  10  -7   71.99    6.10
  -1  10  -7   76.29    5.00
   1 -10   7   62.89    6.10
  -2  10  -7   15.10    4.30
  -2  10  -7   16.20    4.30
  -3  10  -7   76.29    5.80
  -3  10  -7   75.59    5.80
   3 -10   7   68.39    8.20
   5   9  -7   89.19    6.20
   5   9  -7   79.39    7.20
  -5  -9   7   81.59    7.30
  -5  -9   7   89.99    5.60
   4   9  -7  194.78    8.50
   4   9  -7  205.18    7.60
  -4  -9   7  202.28    6.70
  -4  -9   7  203.28    8.60
   3   9  -7   15.00    4.90
   3   9  -7   25.60    4.10
  -3  -9   7   20.30    4.90
  -3  -9   7   21.80    3.30
   2   9  -7  243.68    8.80
  -2  -9   7  239.98    6.60
  -2  -9   7  242.68    9.00
   1   9  -7  230.48    6.70
   1   9  -7  234.38    7.80
  -1  -9   7  215.08    9.50
   0   9  -7  131.49    5.30
   0   9  -7  124.89    5.80
   0  -9   7  130.89   10.10
  -1   9  -7   63.69    4.40
  -1   9  -7   62.89    4.40
   1  -9   7   61.29    5.40
  -2   9  -7   34.10    3.90
   2  -9   7   28.70    5.30
  -3   9  -7   22.00    4.20
  -3   9  -7   20.90    4.30
   3  -9   7   25.10    6.30
  -4   9  -7  221.98    8.40
  -4   9  -7  207.18    7.80
   4  -9   7  220.78   10.00
   5   8  -7   42.10    4.80
   5   8  -7   40.20    5.60
  -5  -8   7   35.30    5.50
  -5  -8   7   48.00    4.40
   4   8  -7   63.19    4.80
   4   8  -7   62.59    5.50
  -4  -8   7   57.19    5.30
  -4  -8   7   65.89    4.10
   3   8  -7  181.48   11.90
   3   8  -7  201.38    6.60
  -3  -8   7  201.38    6.20
   2   8  -7    1.50    1.20
   2   8  -7    0.30    1.20
  -2  -8   7    1.50    1.10
  -2  -8   7    0.90    1.70
   1   8  -7   35.70    3.30
   1   8  -7   40.40    3.60
  -1  -8   7   36.70    2.60
  -1  -8   7   33.00    4.40
   0   8  -7  776.72   15.70
   0   8  -7  778.02   16.40
   0  -8   7  774.22   17.40
  -1   8  -7   84.89    4.50
  -1   8  -7   87.39    4.60
   1  -8   7   86.79    5.50
  -2   8  -7   88.59    4.70
  -2   8  -7   90.79    4.80
   2  -8   7  102.59    6.30
  -3   8  -7   41.90    5.00
   3  -8   7   32.90    5.60
  -4   8  -7   87.39    5.10
  -4   8  -7   83.69    5.60
   4  -8   7   82.79    6.70
  -5   8  -7   83.89    5.30
  -5   8  -7   75.19    6.00
   5  -8   7   77.79    7.70
   6   7  -7  141.99    8.30
  -6  -7   7  143.99    6.60
   5   7  -7  104.39    5.30
   5   7  -7  111.29    6.70
  -5  -7   7  104.59    6.30
  -5  -7   7  104.09    5.40
   4   7  -7  249.28    7.40
  -4  -7   7  254.87    7.30
   3   7  -7   14.60    3.10
  -3  -7   7   12.30    3.80
  -3  -7   7   13.50    2.50
   2   7  -7  147.09    4.60
   2   7  -7  145.79    5.40
  -2  -7   7  148.89    6.20
  -2  -7   7  140.49    4.60
   1   7  -7   13.70    2.60
   1   7  -7   20.80    3.10
  -1  -7   7   18.60    2.00
  -1  -7   7   17.70    3.80
   0   7  -7  100.09    4.30
   0   7  -7  102.69    4.70
   0  -7   7  101.39    5.40
   0  -7   7   98.69    3.20
  -1   7  -7 1351.36   25.80
  -1   7  -7 1390.76   25.60
   1  -7   7 1340.67   26.80
  -2   7  -7  108.39    4.80
  -2   7  -7  103.09    4.70
   2  -7   7  107.29    6.00
  -3   7  -7   84.29    4.40
  -3   7  -7   84.59    4.70
   3  -7   7   83.69    5.50
  -4   7  -7  154.58    6.30
  -4   7  -7  156.28    5.80
   4  -7   7  143.79    7.20
  -5   7  -7  124.59    6.30
  -5   7  -7  124.69    6.90
   5  -7   7  119.69    7.60
  -6   7  -7   39.60    4.10
   6  -7   7   28.10    7.00
   7   6  -7   67.19    7.30
  -7  -6   7   82.29    6.00
   6   6  -7   64.89    6.40
  -6  -6   7   80.59    5.10
   5   6  -7  113.99    6.60
   5   6  -7  123.19    5.00
  -5  -6   7  117.79    5.20
  -5  -6   7  112.89    6.20
   4   6  -7  348.47    8.60
   4   6  -7  345.97   10.20
  -4  -6   7  342.37    8.80
  -4  -6   7  344.87    9.90
   3   6  -7  123.19    4.70
   3   6  -7  127.89    3.70
   3   6  -7  125.19    5.90
  -3  -6   7  127.79    5.70
  -3  -6   7  127.69    4.50
   2   6  -7   -0.40    1.10
   2   6  -7    0.70    1.00
  -2  -6   7    0.70    1.30
  -2  -6   7    5.00    1.90
   1   6  -7  817.12   15.50
   1   6  -7  815.92   16.30
  -1  -6   7  804.52   17.10
  -1  -6   7  792.82   14.90
   0   6  -7  141.89    4.80
   0   6  -7  128.19    4.50
   0  -6   7  129.39    3.30
   0  -6   7  127.49    5.40
  -1   6  -7  142.59    5.10
  -1   6  -7  138.79    4.90
   1  -6   7  144.49    6.00
  -2   6  -7  178.18    5.90
  -2   6  -7  179.68    5.80
   2  -6   7  177.28    6.70
  -3   6  -7   21.20    3.00
  -3   6  -7   23.70    3.20
   3  -6   7   21.80    3.90
  -4   6  -7    1.00    1.10
  -4   6  -7    0.80    1.30
   4  -6   7    3.70    1.80
  -5   6  -7  557.74   12.50
  -5   6  -7  556.04   13.40
   5  -6   7  552.54   14.80
  -6   6  -7   62.39    4.20
  -6   6  -7   65.99    5.40
   6  -6   7   62.69    7.30
   7   5  -7   -3.20    2.40
  -7  -5   7   -0.30    1.90
   6   5  -7  207.58    8.50
  -6  -5   7  199.98    7.30
   5   5  -7   44.20    4.80
   5   5  -7   39.30    3.50
  -5  -5   7   48.30    3.80
   4   5  -7   24.60    2.80
   4   5  -7   21.30    3.70
  -4  -5   7   21.20    3.50
  -4  -5   7   18.30    2.70
   3   5  -7  192.68    4.60
   3   5  -7  185.38    5.60
   3   5  -7  186.18    6.90
  -3  -5   7  191.98    6.60
  -3  -5   7  195.18    5.50
   2   5  -7  583.74   11.10
   2   5  -7  570.14   12.00
  -2  -5   7  564.74   11.40
  -2  -5   7  575.64   12.90
   1   5  -7  261.27    6.30
   1   5  -7  268.17    6.90
  -1  -5   7  255.27    7.40
  -1  -5   7  265.17    5.80
   0   5  -7   87.69    3.20
   0   5  -7   86.59    3.50
   0   5  -7   90.69    3.80
   0  -5   7   88.39    2.40
   0  -5   7   88.29    4.40
  -1   5  -7  649.34   13.20
  -1   5  -7  647.74   13.30
   1  -5   7  634.54   14.20
  -2   5  -7   80.19    4.00
  -2   5  -7   77.09    3.80
   2  -5   7   83.39    4.50
  -3   5  -7  364.26    8.90
  -3   5  -7  375.56    9.20
   3  -5   7  373.26   10.10
  -4   5  -7    1.20    1.00
  -4   5  -7   -0.10    1.20
   4  -5   7    0.60    1.60
  -5   5  -7   92.09    4.30
  -6   5  -7  538.55   12.30
  -6   5  -7  563.54   13.60
   6  -5   7  551.54   15.20
  -7   5  -7   28.80    5.00
   7  -5   7   26.40    7.00
   7   4  -7    7.40    2.50
  -7  -4   7    7.20    2.10
   6   4  -7   11.50    4.10
  -6  -4   7    9.80    2.30
   5   4  -7  418.66   11.50
   5   4  -7  429.46    9.20
  -5  -4   7  423.76   10.40
   4   4  -7   49.70    3.00
   4   4  -7   46.90    4.20
   4   4  -7   43.90    2.20
  -4  -4   7   51.39    3.30
  -4  -4   7   48.40    3.90
   3   4  -7   35.60    3.60
   3   4  -7   32.20    2.00
   3   4  -7   35.30    2.60
  -3  -4   7   33.60    3.20
  -3  -4   7   38.50    2.60
   2   4  -7  399.76    8.90
   2   4  -7  418.06    8.30
  -2  -4   7  396.06    9.60
  -2  -4   7  395.06    8.60
   1   4  -7  947.01   17.70
   1   4  -7  917.91   17.80
  -1  -4   7  915.41   18.20
  -1  -4   7  919.91   16.60
   0   4  -7  711.43   14.00
   0   4  -7  693.23   12.60
   0   4  -7  712.03   13.70
   0  -4   7  690.63   14.60
   0  -4   7  715.13   12.40
  -1   4  -7  501.85   10.50
  -1   4  -7  489.95   10.50
   1  -4   7  483.85   11.10
  -2   4  -7  130.29    4.40
  -2   4  -7  132.79    4.60
   2  -4   7  125.69    5.10
  -3   4  -7   28.80    3.00
  -3   4  -7   32.30    2.80
   3  -4   7   30.00    3.60
  -4   4  -7  211.18    6.00
  -4   4  -7  200.58    6.30
   4  -4   7  195.98    7.30
  -5   4  -7   25.40    2.80
  -5   4  -7   21.30    3.40
   5  -4   7   26.30    4.60
  -6   4  -7   29.10    3.90
  -6   4  -7   25.10    3.30
   6  -4   7   35.40    5.50
  -7   4  -7  170.88    7.30
   7  -4   7  180.98    9.00
   7   3  -7   73.39    6.40
  -7  -3   7   75.99    5.10
   6   3  -7   12.30    4.00
  -6  -3   7   12.80    3.30
   5   3  -7   31.50    4.60
   5   3  -7   36.20    4.20
  -5  -3   7   32.80    3.40
   4   3  -7  726.23   13.30
   4   3  -7  719.33   13.90
   4   3  -7  716.53   15.80
  -4  -3   7  719.03   14.70
  -4  -3   7  732.93   15.50
   3   3  -7  158.28    4.10
   3   3  -7  159.48    4.50
   3   3  -7  159.18    5.60
  -3  -3   7  154.18    4.70
  -3  -3   7  154.48    5.30
   2   3  -7   85.59    3.30
   2   3  -7   83.89    2.90
  -2  -3   7   81.89    3.80
  -2  -3   7   84.19    3.00
   1   3  -7  903.21   17.00
   1   3  -7  907.71   16.70
  -1  -3   7  931.31   16.30
  -1  -3   7  878.81   17.60
   0   3  -7  741.73   14.20
   0   3  -7  748.23   14.50
   0  -3   7  758.82   13.10
   0  -3   7  726.33   14.90
  -1   3  -7  143.49    4.40
  -1   3  -7  145.39    4.40
   1  -3   7  137.69    4.70
  -2   3  -7  912.31   17.50
  -2   3  -7  904.11   17.30
   2  -3   7  911.31   18.10
  -3   3  -7  564.04   12.00
  -3   3  -7  562.34   11.70
   3  -3   7  551.84   12.70
  -4   3  -7  138.79    5.20
  -4   3  -7  142.59    4.70
   4  -3   7  147.99    6.10
  -5   3  -7   54.19    3.70
  -5   3  -7   52.69    3.20
   5  -3   7   60.99    4.80
  -6   3  -7  194.88    7.00
  -6   3  -7  197.68    5.90
   6  -3   7  198.58   12.10
  -7   3  -7  108.09    5.70
   7  -3   7  101.09    7.00
   8   2  -7  123.79    8.40
  -8  -2   7  118.99    6.50
   7   2  -7   -0.70    2.10
  -7  -2   7   -2.50    1.50
   6   2  -7  563.94   14.20
  -6  -2   7  556.04   13.10
   5   2  -7  780.12   14.30
   5   2  -7  771.62   16.90
   5   2  -7  774.52   14.20
  -5  -2   7  780.72   16.10
  -5  -2   7  739.73   14.00
   4   2  -7   31.70    2.40
   4   2  -7   44.20    3.60
  -4  -2   7   37.50    3.30
  -4  -2   7   33.50    3.00
   3   2  -7  717.43   15.10
   3   2  -7  720.03   13.50
   3   2  -7  721.73   13.90
  -3  -2   7  735.73   14.90
  -3  -2   7  739.83   14.30
  -3  -2   7  734.33   13.50
   2   2  -7  111.09    3.30
  -2  -2   7  107.99    3.40
  -2  -2   7  107.59    4.00
   1   2  -7  101.49    3.50
   1   2  -7   99.99    3.30
  -1  -2   7  101.59    2.90
  -1  -2   7   96.39    3.80
   0   2  -7 5289.07   94.59
   0   2  -7 5641.94   92.79
   0   2  -7 5579.04   92.69
   0   2  -7 5741.53   93.99
   0  -2   7 5627.04   92.69
   0  -2   7 5632.84   94.99
  -1   2  -7  192.58    5.10
  -1   2  -7  187.18    5.10
   1  -2   7  182.08    5.30
  -2   2  -7    5.60    1.80
  -2   2  -7    3.30    0.90
   2  -2   7    7.40    2.10
  -3   2  -7  656.43   13.00
  -3   2  -7  656.03   13.30
   3  -2   7  642.54   13.90
  -4   2  -7  532.55   11.10
  -4   2  -7  532.15   11.60
   4  -2   7  525.95   12.40
  -5   2  -7    0.50    0.90
  -5   2  -7   -1.20    1.00
   5  -2   7    3.60    1.80
  -6   2  -7   88.89    4.60
  -6   2  -7   83.79    3.70
   6  -2   7   80.19    5.40
  -7   2  -7   97.29    5.20
   7  -2   7  106.49    6.80
   8   1  -7  103.09    7.90
  -8  -1   7   86.69    6.30
   7   1  -7  166.98    7.70
  -7  -1   7  166.98    6.70
   6   1  -7   95.59    5.50
  -6  -1   7   88.39    4.70
   5   1  -7  576.54   10.70
   5   1  -7  570.44   13.30
  -5  -1   7  543.75   11.00
  -5  -1   7  559.44   12.50
   4   1  -7 1844.42   34.00
   4   1  -7 1861.01   32.00
  -4  -1   7 1856.01   32.20
  -4  -1   7 1859.41   33.40
   3   1  -7   57.89    3.40
   3   1  -7   57.59    2.50
   3   1  -7   52.39    2.50
  -3  -1   7   53.89    2.30
  -3  -1   7   53.49    3.10
  -3  -1   7   53.59    2.80
   2   1  -7    7.80    1.70
   2   1  -7    6.40    1.50
  -2  -1   7    7.50    1.50
  -2  -1   7    7.80    1.40
   1   1  -7  599.74   11.30
   1   1  -7  607.54   11.80
   1   1  -7  597.04   11.60
  -1  -1   7  594.84   12.00
  -1  -1   7  601.34   11.60
  -1  -1   7  605.14   11.30
   0   1  -7  570.54   11.30
   0   1  -7  580.54   10.50
   0   1  -7  566.94   10.30
   0  -1   7  572.34   11.50
  -1   1  -7 1702.53   29.70
  -1   1  -7 1682.03   29.70
   1  -1   7 1649.63   29.70
  -2   1  -7  342.77    7.60
   2  -1   7  335.47    8.00
  -3   1  -7   70.89    3.00
  -3   1  -7   69.79    3.20
   3  -1   7   68.69    3.60
  -4   1  -7  625.14   12.60
  -4   1  -7  631.04   13.00
   4  -1   7  623.34   13.80
  -5   1  -7 1012.50   17.90
  -5   1  -7 1004.10   19.60
  -5   1  -7  999.50   18.90
   5  -1   7  991.90   20.60
  -6   1  -7    8.80    2.80
  -6   1  -7    0.00    1.00
   6  -1   7    1.60    1.70
  -7   1  -7  126.49    5.70
   7  -1   7  133.09    7.20
  -8   1  -7   40.80    4.50
   8  -1   7   38.70    6.50
   8   0  -7   74.99    7.30
  -8   0   7   77.69    5.90
   7   0  -7   -1.30    2.30
  -7   0   7   -2.60    1.50
   6   0  -7  163.68    6.70
  -6   0   7  160.28    6.00
  -6   0   7  151.98    4.80
   5   0  -7   64.79    2.50
   5   0  -7   66.89    4.40
  -5   0   7   64.79    3.10
  -5   0   7   65.09    3.80
   4   0  -7  168.38    5.70
   4   0  -7  172.08    4.30
  -4   0   7  172.78    4.60
  -4   0   7  171.18    5.40
   3   0  -7 1752.52   30.80
   3   0  -7 1783.72   32.00
  -3   0   7 1810.72   31.80
  -3   0   7 1780.82   31.10
  -3   0   7 1765.12   31.70
   2   0  -7  153.78    4.20
   2   0  -7  151.08    4.50
   2   0  -7  154.08    4.10
  -2   0   7  153.98    4.30
  -2   0   7  155.88    4.40
  -2   0   7  155.68    4.10
   1   0  -7 1989.80   34.30
   1   0  -7 1968.70   34.00
  -1   0   7 1931.31   34.20
  -1   0   7 1976.30   33.90
  -1   0   7 1964.20   34.10
   0   0  -7 1549.14   26.70
   0   0  -7 1558.04   26.90
   0   0  -7 1550.14   27.50
   0   0   7 1542.65   27.50
   0   0   7 1577.34   27.40
  -1   0  -7   44.70    1.80
  -1   0  -7   50.39    2.10
   1   0   7   47.80    2.50
  -2   0  -7  113.69    2.70
  -2   0  -7  105.49    3.70
   2   0   7  112.19    3.80
   2   0   7  103.79    2.60
  -3   0  -7    4.90    1.20
  -3   0  -7    1.90    0.80
   3   0   7    1.90    0.70
   3   0   7    3.30    1.10
  -4   0  -7   11.80    1.60
  -4   0  -7    9.90    2.10
  -4   0  -7    8.10    1.90
   4   0   7   10.80    2.80
  -5   0  -7  970.00   18.50
  -5   0  -7  976.20   17.80
  -5   0  -7  993.70   19.10
   5   0   7  982.20   20.10
  -6   0  -7  212.08    5.80
  -6   0  -7  208.28    5.80
  -6   0  -7  210.18    6.60
   6   0   7  213.08    7.80
  -7   0  -7   37.30    3.70
   7   0   7   38.40    5.30
  -8   0  -7   77.79    4.90
   8   0   7   86.69    7.10
   8  -1  -7  138.99    8.00
  -8   1   7  135.99    7.00
   7  -1  -7   16.30    5.60
  -7   1   7   26.00    4.00
   6  -1  -7  118.09    5.90
  -6   1   7  111.99    4.30
  -6   1   7  116.39    5.20
   5  -1  -7   87.99    4.50
   5  -1  -7   86.39    2.80
  -5   1   7   93.39    3.60
  -5   1   7   88.39    4.20
   4  -1  -7   14.60    1.80
   4  -1  -7   15.20    2.60
  -4   1   7   12.10    2.00
  -4   1   7   11.30    2.30
   3  -1  -7  414.26    9.40
   3  -1  -7  417.06   10.20
  -3   1   7  427.96    9.30
  -3   1   7  429.06    9.10
   2  -1  -7  548.15   11.10
   2  -1  -7  540.55   11.00
  -2   1   7  557.74   11.00
  -2   1   7  549.85   11.00
  -2   1   7  555.14   10.80
   1  -1  -7  652.03   12.60
  -1   1   7  673.13   12.70
  -1   1   7  658.03   12.40
  -1   1   7  658.03   12.50
   0  -1  -7  396.66    8.50
   0  -1  -7  403.36    8.20
   0   1   7  402.96    8.00
  -1  -1  -7 4354.26   73.19
  -1  -1  -7 4436.86   73.39
  -1  -1  -7 4295.47   74.89
   1   1   7 4222.78   74.69
   1   1   7 4544.05   73.59
   1   1   7 4391.66   73.19
  -2  -1  -7   47.10    2.50
  -2  -1  -7   48.00    2.10
   2   1   7   48.40    2.10
   2   1   7   49.70    2.50
  -3  -1  -7   19.10    1.60
  -3  -1  -7   15.40    1.90
  -4  -1  -7   85.89    3.00
  -4  -1  -7   78.19    3.50
   4   1   7   87.29    4.10
  -5  -1  -7   25.50    2.80
  -5  -1  -7   27.40    2.60
   5   1   7   24.80    3.50
  -6  -1  -7  770.32   15.60
  -6  -1  -7  746.73   14.80
  -6  -1  -7  744.93   14.80
   6   1   7  767.02   17.00
  -7  -1  -7   18.80    3.10
  -7  -1  -7   26.10    3.70
  -8  -1  -7   14.40    4.80
   8   1   7    6.30    2.50
   8  -2  -7   61.09    6.90
   8  -2  -7   67.79    6.00
  -8   2   7   61.19    6.00
   7  -2  -7  128.49    6.60
   7  -2  -7  125.49    6.50
  -7   2   7  126.49    6.20
  -7   2   7  127.09    4.80
   6  -2  -7  137.19    6.00
   6  -2  -7  131.29    5.90
  -6   2   7  134.29    4.80
  -6   2   7  135.69    5.80
   5  -2  -7  586.64   10.80
   5  -2  -7  579.64   13.10
   5  -2  -7  594.74   13.30
  -5   2   7  592.04   13.10
  -5   2   7  584.24   12.10
   4  -2  -7  420.26    9.60
   4  -2  -7  406.96    9.90
  -4   2   7  419.66    9.20
  -4   2   7  425.66    9.80
   3  -2  -7 1042.20   19.20
   3  -2  -7 1017.00   19.70
  -3   2   7 1019.40   19.10
  -3   2   7 1040.70   19.50
   2  -2  -7 1216.28   21.20
   2  -2  -7 1157.08   22.80
  -2   2   7 1166.38   22.60
   1  -2  -7  166.98    4.70
   1  -2  -7  180.78    4.80
   1  -2  -7  176.68    4.20
  -1   2   7  173.58    4.90
  -1   2   7  175.28    4.10
   0  -2  -7  523.75   10.60
   0  -2  -7  525.75   10.40
   0  -2  -7  504.05    9.80
   0   2   7  523.95   10.50
   0   2   7  518.35    9.70
  -1  -2  -7 1006.80   18.20
  -1  -2  -7  994.80   19.30
   1   2   7 1012.80   17.70
   1   2   7  960.50   19.20
  -2  -2  -7 1176.68   21.50
  -2  -2  -7 1186.98   21.10
   2   2   7 1161.48   21.00
  -3  -2  -7    2.00    0.80
  -3  -2  -7   -0.60    0.70
   3   2   7    1.10    0.90
  -4  -2  -7  530.85   10.50
  -4  -2  -7  515.85   10.90
   4   2   7  502.85   11.20
  -5  -2  -7  307.87    7.40
  -5  -2  -7  321.57    7.80
   5   2   7  312.37    8.50
  -6  -2  -7    0.80    1.10
  -6  -2  -7    1.20    1.20
   6   2   7    1.10    1.60
  -7  -2  -7   94.29    4.50
  -7  -2  -7   90.79    4.70
   7   2   7   90.09    5.80
  -8  -2  -7   29.30    5.10
  -8  -2  -7   17.50    3.30
   8   2   7   18.60    5.40
   8  -3  -7    3.50    2.40
   8  -3  -7   -0.80    2.60
  -8   3   7    4.30    2.30
   7  -3  -7   57.09    5.10
   7  -3  -7   50.69    5.40
  -7   3   7   64.09    5.10
  -7   3   7   54.59    4.00
   6  -3  -7  161.68    6.50
   6  -3  -7  163.38    6.40
  -6   3   7  158.38    5.50
  -6   3   7  158.78    6.30
   5  -3  -7   -1.20    1.20
   5  -3  -7    0.60    1.40
  -5   3   7    0.50    1.30
  -5   3   7   -1.00    1.00
   4  -3  -7 1075.09   20.40
   4  -3  -7 1055.79   21.10
  -4   3   7 1080.69   20.30
  -4   3   7 1086.79   20.90
   3  -3  -7  406.66    8.70
   3  -3  -7  400.86    9.50
  -3   3   7  412.06    9.00
  -3   3   7  410.76    9.40
   2  -3  -7   33.30    2.00
   2  -3  -7   29.20    2.50
  -2   3   7   32.30    2.30
   1  -3  -7  176.58    3.90
   1  -3  -7  179.08    5.10
   1  -3  -7  178.88    4.00
  -1   3   7  177.18    5.20
   0  -3  -7  505.45   10.30
   0  -3  -7  510.55    9.00
   0   3   7  502.65    8.80
   0   3   7  433.66   12.10
  -1  -3  -7    2.40    0.90
  -1  -3  -7    1.70    0.70
  -1  -3  -7   -0.30    1.10
  -2  -3  -7 1880.11   33.00
  -2  -3  -7 1870.51   32.90
   2   3   7 1854.41   33.00
   2   3   7 1881.21   32.30
  -3  -3  -7  973.90   18.40
  -3  -3  -7  991.90   18.20
   3   3   7  980.10   18.20
  -4  -3  -7   -0.10    0.70
  -4  -3  -7    0.60    1.00
   4   3   7    0.10    1.00
  -5  -3  -7  164.08    5.20
  -5  -3  -7  169.78    5.10
   5   3   7  161.78    5.80
  -6  -3  -7  689.53   14.50
  -6  -3  -7  690.83   14.20
   6   3   7  719.03   15.80
  -7  -3  -7   -0.40    1.20
  -7  -3  -7    1.40    1.60
   7   3   7    2.30    1.90
  -8  -3  -7   17.90    4.50
   7  -4  -7   -0.70    2.20
   7  -4  -7    3.10    1.80
  -7   4   7    1.90    2.00
  -7   4   7    4.40    1.40
   6  -4  -7   88.49    5.30
   6  -4  -7   85.79    4.90
  -6   4   7   77.79    4.10
  -6   4   7   73.29    4.80
   5  -4  -7  949.60   19.80
   5  -4  -7  958.40   19.20
  -5   4   7  968.90   18.90
  -5   4   7  971.60   19.70
   4  -4  -7  303.77    8.40
   4  -4  -7  299.67    7.50
  -4   4   7  307.87    7.70
  -4   4   7  298.67    8.10
   3  -4  -7  442.46   10.40
   3  -4  -7  456.55    9.30
  -3   4   7  444.36   10.20
  -3   4   7  457.25    9.90
   2  -4  -7 1989.80   33.90
   2  -4  -7 1949.01   33.80
   2  -4  -7 1985.20   35.60
  -2   4   7 2011.40   35.10
   1  -4  -7   19.00    2.30
  -1   4   7   16.30    2.00
   0  -4  -7 1747.33   31.20
   0   4   7 1688.73   30.50
  -1  -4  -7 1294.57   23.60
   1   4   7 1263.57   23.20
  -2  -4  -7  368.36    8.70
  -2  -4  -7  373.56    7.50
  -2  -4  -7  375.06    8.40
   2   4   7  379.86    7.40
   2   4   7  374.86    8.30
  -3  -4  -7  658.03   13.30
  -3  -4  -7  658.13   13.10
   3   4   7  654.03   13.10
   3   4   7  664.03   12.80
  -4  -4  -7  217.78    6.20
  -4  -4  -7  225.38    5.90
   4   4   7  234.98    6.30
  -5  -4  -7    1.20    1.20
  -5  -4  -7    1.40    0.90
   5   4   7    0.80    1.30
  -6  -4  -7  198.28    6.40
  -6  -4  -7  195.08    5.80
   6   4   7  199.78    7.10
  -7  -4  -7  368.36    9.80
  -7  -4  -7  365.16    8.80
   7   4   7  380.46   10.70
  -8  -4  -7    1.80    2.10
   8   4   7    5.40    2.50
   7  -5  -7  214.78    8.60
   7  -5  -7  200.78    8.60
  -7   5   7  212.28    8.30
   6  -5  -7    6.60    2.10
  -6   5   7   13.70    3.20
   5  -5  -7  175.08    6.20
   5  -5  -7  174.28    6.60
  -5   5   7  179.38    6.00
  -5   5   7  180.38    6.60
   4  -5  -7 1746.93   32.80
   4  -5  -7 1783.52   32.90
  -4   5   7 1746.73   32.10
   3  -5  -7    1.60    1.20
   3  -5  -7    1.60    1.00
  -3   5   7    1.80    1.00
   2  -5  -7    0.70    0.70
   2  -5  -7   -0.10    1.00
   2  -5  -7    1.50    0.70
  -2   5   7    0.60    0.70
   1  -5  -7  905.81   18.10
  -1   5   7  930.61   17.60
   0  -5  -7  950.10   18.60
   0   5   7  949.51   18.00
  -1  -5  -7  588.34   12.50
   1   5   7  584.44   12.00
  -2  -5  -7  432.46    8.40
  -2  -5  -7  438.06   10.10
  -2  -5  -7  443.76    9.70
   2   5   7  438.96    9.50
   2   5   7  466.75    8.40
  -3  -5  -7  291.07    7.60
  -3  -5  -7  291.67    7.10
   3   5   7  305.87    6.70
   3   5   7  286.97    7.10
  -4  -5  -7  108.09    4.50
  -4  -5  -7   99.99    3.80
   4   5   7   97.29    4.80
  -5  -5  -7  708.53   14.90
  -5  -5  -7  691.93   14.00
   5   5   7  714.73   14.80
  -6  -5  -7    3.70    1.60
  -6  -5  -7    3.60    1.10
   6   5   7    2.10    1.60
  -7  -5  -7   84.69    5.20
   7   5   7   91.99    5.60
  -8  -5  -7   99.39    6.30
   8   5   7   99.69    7.10
   7  -6  -7    2.40    2.60
   7  -6  -7    1.50    2.30
  -7   6   7    2.00    1.60
   6  -6  -7   49.40    5.00
   6  -6  -7   39.80    5.00
  -6   6   7   44.90    4.10
   5  -6  -7  107.79    5.70
   5  -6  -7   98.59    5.10
  -5   6   7  100.49    4.90
   4  -6  -7    1.50    1.50
  -4   6   7    3.40    1.20
   3  -6  -7  729.73   13.70
   3  -6  -7  702.43   15.60
  -3   6   7  719.93   14.80
   2  -6  -7  107.79    4.80
  -2   6   7  103.29    4.20
   1  -6  -7  288.07    7.90
  -1   6   7  279.07    7.10
   0  -6  -7  949.51   19.10
   0   6   7  964.20   18.30
  -1  -6  -7  996.50   19.80
   1   6   7 1002.00   18.90
  -2  -6  -7    0.50    1.30
   2   6   7   -1.10    0.80
  -3  -6  -7  180.18    6.00
  -3  -6  -7  170.38    5.20
   3   6   7  179.78    4.60
   3   6   7  174.98    5.20
  -4  -6  -7   22.80    3.30
  -4  -6  -7   16.80    2.40
  -5  -6  -7  206.48    5.80
  -5  -6  -7  208.78    6.80
   5   6   7  202.38    6.40
  -6  -6  -7   90.89    3.80
  -6  -6  -7   96.89    5.00
   6   6   7   88.79    5.00
  -7  -6  -7   71.49    5.70
   7   6   7   60.39    5.20
   7  -7  -7  108.69    9.70
   7  -7  -7  134.49    7.90
  -7   7   7  124.69    6.50
   6  -7  -7   34.70    5.50
   6  -7  -7   47.70    5.50
  -6   7   7   44.30    4.40
   5  -7  -7   61.59    5.10
   5  -7  -7   58.59    4.80
  -5   7   7   67.59    4.50
   4  -7  -7  213.28    7.60
  -4   7   7  215.18    6.90
   3  -7  -7   94.19    5.00
   3  -7  -7   90.99    3.60
  -3   7   7   88.09    4.30
   2  -7  -7    2.90    1.50
  -2   7   7    1.30    1.00
   1  -7  -7    2.40    1.40
  -1   7   7    1.50    1.00
   0  -7  -7  123.19    5.40
   0   7   7  116.29    4.50
  -1  -7  -7 1189.78   23.50
   1   7   7 1208.78   22.50
  -2  -7  -7   33.80    3.70
   2   7   7   35.70    2.90
  -4  -7  -7  447.96   10.90
  -4  -7  -7  437.16    9.60
   4   7   7  414.06   10.10
   4   7   7  434.36    9.70
  -5  -7  -7   31.90    4.30
  -5  -7  -7   34.40    2.90
   5   7   7   22.20    3.40
  -6  -7  -7   67.89    4.80
   6   7   7   59.59    4.50
  -7  -7  -7   12.60    4.70
   6  -8  -7    6.50    2.60
  -6   8   7    3.00    1.80
   5  -8  -7  109.69    6.40
  -5   8   7  111.89    5.70
   4  -8  -7  574.94   14.40
  -4   8   7  584.84   13.50
   3  -8  -7  664.73   13.40
   3  -8  -7  669.33   15.50
  -3   8   7  654.33   14.40
   2  -8  -7  170.68    6.70
  -2   8   7  167.88    5.80
   1  -8  -7    3.80    1.60
  -1   8   7    4.60    1.20
   0  -8  -7   12.90    3.40
   0   8   7   12.90    2.70
  -1  -8  -7  243.48    7.90
   1   8   7  243.68    6.70
  -2  -8  -7  916.71   19.20
   2   8   7  921.81   17.90
  -3  -8  -7   63.09    3.40
  -3  -8  -7   64.99    4.70
   3   8   7   65.49    3.50
   3   8   7   62.59    2.70
  -4  -8  -7  165.18    6.50
  -4  -8  -7  161.08    5.10
   4   8   7  152.78    5.70
   4   8   7  162.78    5.40
  -5  -8  -7  126.69    6.20
  -5  -8  -7  125.39    4.40
   5   8   7  120.79    4.90
  -6  -8  -7   39.70    5.10
   6   8   7   43.80    4.30
  -7  -8  -7   26.50    5.20
   7   8   7   17.80    4.20
   6  -9  -7  175.38    8.70
  -6   9   7  165.88    7.70
   5  -9  -7    7.80    2.50
  -5   9   7    8.00    2.00
  -4   9   7  168.58    6.80
   3  -9  -7  514.85   13.40
  -3   9   7  523.75   12.40
   2  -9  -7  139.49    6.50
  -2   9   7  151.88    5.30
  -2   9   7  154.68    5.80
   1  -9  -7    0.60    1.70
  -1   9   7    0.60    1.00
  -1   9   7    1.50    1.20
   0  -9  -7  371.36   10.40
   0   9   7  366.76    9.20
   0   9   7  375.96    9.40
  -1  -9  -7  235.28    8.00
   1   9   7  238.18    7.10
   1   9   7  229.28    6.70
  -2  -9  -7   65.69    5.20
   2   9   7   75.49    4.00
  -3  -9  -7  157.28    6.70
   3   9   7  155.38    5.40
  -4  -9  -7    8.60    2.60
  -4  -9  -7    3.50    1.70
   4   9   7    3.00    1.30
  -5  -9  -7  213.48    8.10
  -6  -9  -7  302.57   10.10
   5 -10  -7   58.09    6.80
  -5  10   7   65.49    5.60
   4 -10  -7   81.29    6.60
  -4  10   7   96.49    5.80
  -3  10   7   44.10    3.70
  -3  10   7   51.29    4.90
   2 -10  -7  249.48    9.00
  -2  10   7  239.18    7.70
  -2  10   7  247.48    7.50
   1 -10  -7   75.59    5.60
  -1  10   7   82.19    4.70
  -1  10   7   84.79    4.50
   0 -10  -7   56.39    5.00
   0  10   7   55.79    4.10
   0  10   7   57.19    4.00
  -1 -10  -7  586.74   14.50
   1  10   7  598.44   13.10
   1  10   7  587.24   13.50
  -2 -10  -7  477.05   12.70
   2  10   7  481.25   11.70
   2  10   7  492.05   11.10
  -3 -10  -7   71.79    5.50
   3  10   7   79.79    4.30
  -4 -10  -7   41.90    3.40
  -4 -10  -7   55.79    5.30
   4  10   7   45.90    4.20
  -5 -10  -7   31.20    5.40
  -6 -10  -7    9.90    2.80
   4 -11  -7  186.88    9.10
  -4  11   7  200.28    8.00
   3 -11  -7   42.60    6.10
  -3  11   7   45.50    4.70
  -3  11   7   37.20    3.90
   2 -11  -7   10.70    2.70
  -2  11   7   18.90    4.10
  -2  11   7   19.00    3.50
  -1  11   7  342.37    9.50
  -1  11   7  342.67    9.60
   0 -11  -7  124.19    7.70
   0  11   7  133.39    5.60
   0  11   7  130.79    5.90
  -1 -11  -7   19.00    7.40
   1  11   7   16.90    4.60
   1  11   7   20.50    3.60
  -2 -11  -7  127.29    6.90
   2  11   7  131.89    6.80
   2  11   7  124.69    5.50
  -3 -11  -7  242.58    9.20
   3  11   7  250.77    7.50
  -4 -11  -7   -0.30    2.10
  -5 -11  -7   76.79    6.80
   3 -12  -7   99.49    7.80
  -3  12   7  102.69    5.90
  -3  12   7  107.59    6.60
   2 -12  -7   50.29    6.20
  -2  12   7   58.89    5.30
  -2  12   7   58.89    4.80
   1 -12  -7    8.10    2.60
  -1  12   7    8.10    1.90
  -1  12   7    7.10    2.00
   0 -12  -7   18.50    5.30
   0  12   7   26.10    4.30
   0  12   7   25.60    4.00
  -1 -12  -7  103.19    7.00
   1  12   7  102.09    5.60
   1  12   7  106.29    6.00
  -2 -12  -7    2.50    2.20
   2  12   7   -0.40    1.60
   2  12   7    1.20    1.70
  -3 -12  -7   73.29    6.50
   3  12   7   68.49    6.20
  -4 -12  -7   33.00    6.30
   2 -13  -7   -0.30    3.00
  -2  13   7   -1.10    2.00
  -2  13   7    3.70    2.00
   1 -13  -7   39.90    6.70
  -1  13   7   43.00    5.30
  -1  13   7   41.40    5.30
   0 -13  -7    7.30    2.60
   0  13   7    5.90    2.10
   0  13   7    7.70    2.10
  -1 -13  -7   55.59    6.80
   1  13   7   58.49    5.60
   1  13   7   38.50    6.00
  -2 -13  -7   24.10    5.60
   2  13   7   17.70    5.10
  -3 -13  -7    8.90    3.00
   3  10  -8    2.50    2.90
   3  10  -8    8.90    2.20
  -3 -10   8   17.60    6.20
   2  10  -8    1.40    1.90
  -2 -10   8    1.50    2.60
   1  10  -8  204.68    8.10
  -1 -10   8  194.18    9.00
   0  10  -8   34.10    4.70
   0  10  -8   48.40    5.10
   0 -10   8   51.09    6.40
  -1  10  -8   49.99    5.10
  -1  10  -8   53.09    5.20
   1 -10   8   46.00    6.50
  -2  10  -8   53.89    5.50
  -2  10  -8   48.70    5.40
   2 -10   8   46.50    7.10
   4   9  -8   26.30    5.50
  -4  -9   8   17.40    5.50
   3   9  -8  112.39    7.50
   3   9  -8  126.39    6.20
  -3  -9   8  126.39    7.20
   2   9  -8   12.20    4.10
  -2  -9   8   16.40    4.90
   1   9  -8   13.50    3.60
   1   9  -8   14.10    4.20
  -1  -9   8   18.40    4.80
   0   9  -8  135.99    6.10
   0   9  -8  133.29    5.70
   0  -9   8  139.49    7.00
  -1   9  -8    0.10    1.50
  -1   9  -8    2.20    1.50
   1  -9   8    1.60    2.10
  -2   9  -8    4.80    1.70
   2  -9   8    9.00    2.60
  -3   9  -8  306.67    9.50
  -3   9  -8  307.07    9.70
   3  -9   8  305.37   11.60
   5   8  -8  229.38   10.00
  -5  -8   8  230.38    7.90
  -5  -8   8  243.68    9.80
   4   8  -8  124.29    7.00
   4   8  -8  126.49    9.20
  -4  -8   8  121.19    6.90
  -4  -8   8  131.39    5.50
   3   8  -8   61.49    4.90
   3   8  -8   60.89    6.00
  -3  -8   8   73.49    5.80
  -3  -8   8   63.89    3.90
   2   8  -8    3.50    1.40
   2   8  -8    3.90    1.70
  -2  -8   8    1.90    1.10
  -2  -8   8    3.40    2.00
   1   8  -8  144.69    6.00
   1   8  -8  152.98    5.30
   0   8  -8   91.69    4.70
  -1   8  -8  256.17    9.30
  -1   8  -8  292.67    8.00
   1  -8   8  258.27   10.90
  -2   8  -8   15.90    3.50
  -2   8  -8   11.90    3.50
   2  -8   8   11.00    2.50
  -3   8  -8    7.50    1.80
  -3   8  -8   11.40    4.00
   3  -8   8   16.20    5.70
  -4   8  -8  268.77    8.70
  -4   8  -8  286.27    9.40
   4  -8   8  269.07   10.50
   6   7  -8   24.80    6.20
   5   7  -8   37.50    5.80
   5   7  -8   38.10    4.60
  -5  -7   8   36.00    5.60
  -5  -7   8   40.50    4.70
   4   7  -8  253.27    9.30
   4   7  -8  257.97    7.70
  -4  -7   8  255.07    9.00
  -4  -7   8  265.57    7.60
   3   7  -8  216.98    6.70
  -3  -7   8  204.98    9.70
  -3  -7   8  201.68    6.20
   2   7  -8   22.60    3.10
   2   7  -8   26.30    3.40
  -2  -7   8   28.90    4.00
  -2  -7   8   26.90    2.60
   1   7  -8  121.29    5.20
   1   7  -8  115.59    4.50
  -1  -7   8  116.89    5.90
  -1  -7   8  117.59    3.90
   0   7  -8  212.18    6.80
   0   7  -8  213.48    6.30
   0  -7   8  205.78    7.50
  -1   7  -8   -1.00    1.20
  -1   7  -8   -1.00    1.10
   1  -7   8    1.50    1.60
  -2   7  -8  239.78    7.40
  -2   7  -8  240.38    7.40
   2  -7   8  246.78    8.60
   3  -7   8   13.20    4.70
  -4   7  -8   18.60    3.70
  -4   7  -8   19.40    4.30
   4  -7   8   25.80    5.50
  -5   7  -8  253.87    8.10
  -5   7  -8  256.47    9.00
   5  -7   8  243.98   10.20
   6   6  -8   71.99    6.60
  -6  -6   8   69.79    5.30
   5   6  -8   54.09    4.50
   5   6  -8   62.89    5.70
  -5  -6   8   52.89    5.40
  -5  -6   8   50.39    4.20
   4   6  -8   78.99    6.90
   4   6  -8   75.19    4.40
  -4  -6   8   73.89    4.10
  -4  -6   8   64.39    6.00
   3   6  -8  156.08    5.70
   3   6  -8  158.48    4.60
   3   6  -8  157.08    6.90
  -3  -6   8  154.68    5.10
  -3  -6   8  163.58    6.60
   2   6  -8   86.49    3.70
   2   6  -8   85.99    4.20
  -2  -6   8   87.69    3.50
  -2  -6   8   86.19    4.90
   1   6  -8   96.09    4.00
   1   6  -8   96.49    4.40
  -1  -6   8   95.99    3.30
  -1  -6   8  100.69    5.30
   0   6  -8 1081.39   21.00
   0   6  -8 1085.69   20.40
   0  -6   8 1046.70   21.80
  -1   6  -8  508.75   11.70
  -1   6  -8  510.35   11.40
   1  -6   8  510.45   12.60
  -2   6  -8   20.70    3.10
  -2   6  -8   14.40    3.10
   2  -6   8   26.70    4.20
  -3   6  -8   19.50    3.20
  -3   6  -8   16.60    3.40
   3  -6   8   25.60    4.00
  -4   6  -8   59.59    4.50
  -4   6  -8   73.89    4.20
   4  -6   8   59.49    5.50
  -5   6  -8   93.59    5.30
  -5   6  -8   97.69    5.90
   5  -6   8   93.99    7.00
  -6   6  -8  104.89    5.50
  -6   6  -8  132.69    6.70
   6  -6   8  118.39    8.80
   7   5  -8  115.09    8.10
  -7  -5   8  120.69    6.70
   6   5  -8    0.90    2.30
  -6  -5   8    3.10    1.80
   5   5  -8  358.16   11.70
   5   5  -8  386.96    9.00
  -5  -5   8  376.96    9.80
  -5  -5   8  367.96   11.00
   4   5  -8   97.49    4.40
   4   5  -8   99.19    5.70
  -4  -5   8   99.89    5.30
  -4  -5   8   93.29    4.40
   3   5  -8    1.20    0.90
   3   5  -8   -0.20    1.10
   3   5  -8   -1.10    1.40
  -3  -5   8    2.70    1.10
  -3  -5   8    1.90    1.40
   2   5  -8  587.34   12.40
   2   5  -8  578.84   11.50
  -2  -5   8  581.24   13.30
  -2  -5   8  570.24   11.60
   1   5  -8    3.70    1.00
   1   5  -8    3.40    1.00
  -1  -5   8    6.60    1.60
  -1  -5   8    9.10    2.90
   0   5  -8  104.09    4.30
   0   5  -8  105.49    4.10
   0  -5   8  105.99    4.90
  -1   5  -8  439.66   10.00
  -1   5  -8  435.76   10.10
   1  -5   8  438.06   11.00
  -2   5  -8 1053.69   20.50
  -2   5  -8 1088.19   20.60
   2  -5   8 1017.90   21.20
  -3   5  -8   86.49    4.20
  -3   5  -8   86.69    4.50
   3  -5   8   84.89    5.00
  -4   5  -8   32.50    3.30
  -4   5  -8   31.90    3.60
   4  -5   8   38.40    4.50
  -5   5  -8  274.47    8.60
  -5   5  -8  274.27    7.80
   5  -5   8  281.57   10.00
  -6   5  -8    2.20    1.70
   6  -5   8    3.20    2.70
   7   4  -8   29.60    6.40
  -7  -4   8   22.60    4.60
   6   4  -8  237.88    9.00
  -6  -4   8  242.78    8.00
   5   4  -8   56.09    3.60
   5   4  -8   50.89    4.80
  -5  -4   8   54.19    4.00
   4   4  -8  557.34   13.60
   4   4  -8  545.45   11.70
   4   4  -8  567.14   10.80
  -4  -4   8  575.34   13.40
  -4  -4   8  579.54   12.40
   3   4  -8  654.53   14.80
   3   4  -8  644.24   12.30
   3   4  -8  639.64   13.10
  -3  -4   8  642.44   14.30
  -3  -4   8  632.74   13.10
   2   4  -8  379.36    8.70
   2   4  -8  353.66    8.90
  -2  -4   8  379.96    8.30
  -2  -4   8  378.76    9.50
   1   4  -8  353.16    7.90
   1   4  -8  346.77    8.30
  -1  -4   8  354.76    9.00
  -1  -4   8  344.77    7.20
   0   4  -8  240.38    6.50
   0   4  -8  243.58    6.30
   0  -4   8  234.58    7.00
  -1   4  -8   66.69    3.60
  -1   4  -8   68.89    3.50
   1  -4   8   71.09    4.20
  -2   4  -8 1130.99   21.40
  -2   4  -8 1125.09   21.30
   2  -4   8 1084.69   21.90
  -3   4  -8  523.95   11.80
  -3   4  -8  521.45   11.60
   3  -4   8  526.35   12.70
  -4   4  -8  130.29    4.90
  -4   4  -8  118.79    5.20
   4  -4   8  124.69    6.10
  -5   4  -8  167.08    5.60
  -6   4  -8  181.28    7.10
  -6   4  -8  181.18    6.10
   6  -4   8  176.98    8.50
  -7   4  -8   -0.50    1.80
   7  -4   8    0.90    2.80
   7   3  -8   -2.10    2.40
  -7  -3   8    0.20    1.90
   6   3  -8   27.50    4.70
   5   3  -8  474.75   12.50
   5   3  -8  489.85   10.20
  -5  -3   8  490.35   11.50
   4   3  -8   13.90    2.10
   4   3  -8   16.60    2.60
   4   3  -8   11.30    3.50
  -4  -3   8   17.30    3.30
  -4  -3   8   12.30    2.50
   3   3  -8  448.56    9.10
   3   3  -8  440.66    9.60
   3   3  -8  444.36   11.00
  -3  -3   8  452.65   10.70
  -3  -3   8  451.55    9.80
   2   3  -8  553.04   11.40
  -2  -3   8  551.74   12.20
   1   3  -8   77.69    3.20
   1   3  -8   71.69    3.30
  -1  -3   8   75.99    3.70
  -1  -3   8   75.79    2.70
   0   3  -8  294.07    6.00
   0   3  -8  302.87    7.40
   0   3  -8  306.17    7.20
   0   3  -8  318.67    6.10
   0  -3   8  307.77    7.90
  -1   3  -8  245.68    6.40
  -1   3  -8  247.08    6.40
   1  -3   8  232.28    6.80
  -2   3  -8  170.78    5.40
  -2   3  -8  172.98    5.30
   2  -3   8  170.68    5.80
  -3   3  -8  619.14   13.00
  -3   3  -8  619.34   13.30
   3  -3   8  631.94   14.00
  -4   3  -8    4.60    1.10
  -4   3  -8    5.00    1.30
   4  -3   8    6.20    1.90
  -5   3  -8   21.70    3.30
  -5   3  -8   25.80    2.90
   5  -3   8   30.40    4.40
  -6   3  -8  319.17    8.30
  -6   3  -8  320.77    9.40
   6  -3   8  324.07   10.70
  -7   3  -8  274.27    9.00
   7  -3   8  283.57   10.70
   7   2  -8   51.89    6.10
  -7  -2   8   57.29    5.00
   6   2  -8   46.40    4.90
  -6  -2   8   51.69    4.20
   5   2  -8  302.97    6.90
   5   2  -8  304.87    9.30
  -5  -2   8  304.47    8.40
  -5  -2   8  307.57    6.70
   4   2  -8  183.38    6.60
   4   2  -8  182.98    4.80
   4   2  -8  187.98    5.10
  -4  -2   8  178.38    5.70
  -4  -2   8  188.88    6.40
  -4  -2   8  188.38    4.70
   3   2  -8   16.30    2.20
   3   2  -8   14.80    2.70
   3   2  -8   14.80    1.90
  -3  -2   8   12.80    2.50
  -3  -2   8   15.90    2.20
   2   2  -8   19.30    2.30
   2   2  -8   22.50    2.20
  -2  -2   8   21.70    2.60
  -2  -2   8   19.60    1.90
   1   2  -8  899.41   17.20
   1   2  -8  918.91   17.10
  -1  -2   8  911.81   17.70
  -1  -2   8  909.91   16.50
   0   2  -8    7.40    2.00
   0   2  -8    9.90    2.00
   0   2  -8   10.30    1.50
   0   2  -8    5.40    1.40
   0  -2   8    8.10    2.20
   0  -2   8    7.90    1.30
  -1   2  -8  699.43   13.90
  -1   2  -8  702.13   13.80
   1  -2   8  682.63   14.10
  -2   2  -8  698.53   14.20
  -2   2  -8  719.33   14.10
   2  -2   8  701.43   14.60
  -3   2  -8    6.70    2.40
  -3   2  -8    1.80    0.90
   3  -2   8    0.50    1.20
  -4   2  -8  384.36    9.40
  -4   2  -8  385.46    9.00
   4  -2   8  373.96   10.10
  -5   2  -8    7.60    2.40
  -5   2  -8    4.70    1.40
   5  -2   8    5.00    1.90
  -6   2  -8    2.20    1.10
  -6   2  -8    1.70    1.60
   6  -2   8    4.10    2.50
  -7   2  -8  214.48    7.70
   7  -2   8  210.78    9.00
   7   1  -8   88.19    6.50
  -7  -1   8   79.69    5.30
   6   1  -8   47.20    4.80
  -6  -1   8   35.40    3.80
   5   1  -8    0.60    0.90
   5   1  -8   -0.20    1.40
   5   1  -8    1.90    1.90
  -5  -1   8    1.30    1.00
  -5  -1   8    0.00    1.30
   4   1  -8  968.70   17.80
   4   1  -8  984.50   19.50
   4   1  -8  911.81   19.10
  -4  -1   8  962.80   18.80
   3   1  -8  373.86    8.30
   3   1  -8  371.96    8.30
   3   1  -8  375.66    9.20
  -3  -1   8  372.96    8.40
  -3  -1   8  384.96    9.00
  -3  -1   8  379.66    8.60
   2   1  -8  309.57    7.10
  -2  -1   8  306.47    7.30
  -2  -1   8  307.87    7.50
   1   1  -8  183.08    4.60
   1   1  -8  175.58    5.00
   1   1  -8  176.18    5.00
  -1  -1   8  179.88    4.40
  -1  -1   8  178.88    5.20
   0   1  -8 1826.32   31.70
   0   1  -8 1806.82   31.70
   0   1  -8 1797.82   30.70
   0   1  -8 1743.43   30.40
   0  -1   8 1767.72   33.10
  -1   1  -8    2.70    0.90
  -1   1  -8    2.20    0.80
   1  -1   8    6.20    1.90
  -2   1  -8  625.34   12.80
  -2   1  -8  645.74   13.00
   2  -1   8  640.24   13.20
  -3   1  -8  260.67    6.60
  -3   1  -8  257.37    6.80
   3  -1   8  252.47    7.20
  -4   1  -8   61.49    3.30
  -4   1  -8   59.69    3.60
   4  -1   8   61.69    4.30
  -5   1  -8  142.99    4.90
  -5   1  -8  134.59    5.30
   5  -1   8  137.19    6.20
  -6   1  -8   94.19    4.10
  -6   1  -8   97.89    4.90
   6  -1   8   94.39    5.90
  -7   1  -8   -2.40    1.40
   7  -1   8    1.00    2.30
  -8   0   8  150.08    7.50
   7   0  -8   39.40    5.60
  -7   0   8   40.70    4.40
   6   0  -8  211.58    7.80
  -6   0   8  201.18    5.60
  -6   0   8  215.08    7.10
   5   0  -8  243.48    7.80
   5   0  -8  246.98    5.70
  -5   0   8  246.48    7.40
  -5   0   8  245.78    6.30
   4   0  -8   40.30    3.60
   4   0  -8   33.10    2.50
  -4   0   8   40.30    3.20
  -4   0   8   39.30    2.50
   3   0  -8    6.10    2.00
   3   0  -8   10.10    2.60
  -3   0   8    6.20    1.70
  -3   0   8    6.20    2.10
   2   0  -8 1051.39   21.20
   2   0  -8 1090.19   21.10
  -2   0   8 1120.49   20.90
   1   0  -8   36.60    2.20
   1   0  -8   34.80    2.40
  -1   0   8   36.90    2.00
  -1   0   8   31.70    2.20
  -1   0   8   34.80    2.30
   0   0  -8 1393.96   25.50
   0   0  -8 1423.46   24.80
   0   0   8 1423.76   25.50
   0   0   8 1418.16   25.30
  -1   0  -8 2489.95   41.50
  -1   0  -8 2468.05   41.20
  -1   0  -8 2406.56   42.50
   1   0   8 2419.36   42.30
  -3   0  -8  224.88    6.20
  -3   0  -8  232.18    4.70
   3   0   8  222.18    6.40
   3   0   8  227.08    4.80
  -4   0  -8  590.14   10.80
  -4   0  -8  581.84   12.10
  -4   0  -8  581.84   12.50
   4   0   8  587.54   13.10
  -5   0  -8   49.90    3.30
  -5   0  -8   50.99    3.50
  -5   0  -8   42.20    2.60
   5   0   8   51.19    4.40
  -6   0  -8   52.19    3.90
  -6   0  -8   51.69    3.40
   6   0   8   44.90    4.90
   7   0   8  140.69    7.50
  -8   0  -8   -0.80    1.70
   8   0   8   -4.20    2.40
   8  -1  -8   21.70    6.90
   8  -1  -8   33.30    6.00
  -8   1   8   41.70    5.80
   7  -1  -8  371.16   11.50
  -7   1   8  374.26   10.70
   6  -1  -8   11.20    3.80
  -6   1   8   16.00    3.20
  -6   1   8   13.90    2.60
   5  -1  -8  277.17    6.10
   5  -1  -8  289.57    8.20
  -5   1   8  266.37    6.90
  -5   1   8  278.27    7.90
   4  -1  -8 1426.56   25.00
   4  -1  -8 1430.96   26.50
   4  -1  -8 1403.76   26.60
  -4   1   8 1404.16   25.70
  -4   1   8 1420.56   26.50
   3  -1  -8  448.36   10.10
   3  -1  -8  451.75   10.00
  -3   1   8  448.86    9.60
  -3   1   8  451.05   10.00
   2  -1  -8  989.30   18.80
   2  -1  -8  972.50   18.50
  -2   1   8  997.20   18.60
  -2   1   8 1019.90   18.40
  -2   1   8 1004.00   18.70
   1  -1  -8    7.50    1.70
   1  -1  -8    6.50    1.90
  -1   1   8    9.80    1.60
  -1   1   8    9.20    1.80
   0  -1  -8   72.09    2.80
   0   1   8   63.89    2.90
   0   1   8   66.09    2.60
  -1  -1  -8 1964.40   33.60
  -1  -1  -8 1929.31   34.30
   1   1   8 1995.60   34.40
   1   1   8 1883.51   33.70
  -2  -1  -8  622.64   12.80
  -2  -1  -8  641.54   11.80
   2   1   8  636.24   12.60
  -3  -1  -8    4.30    1.50
   3   1   8    4.30    1.20
  -4  -1  -8  125.69    4.60
  -4  -1  -8  129.79    3.70
   4   1   8  130.59    5.00
  -5  -1  -8 1198.98   21.90
  -5  -1  -8 1229.08   23.20
   5   1   8 1229.68   24.10
  -6  -1  -8   44.70    3.60
  -6  -1  -8   50.89    3.40
  -6  -1  -8   46.70    3.40
   6   1   8   44.60    4.40
  -7  -1  -8   34.80    3.70
   7   1   8   31.70    5.10
  -8  -1  -8   48.10    4.60
   8   1   8   56.29    6.80
   7  -2  -8    5.10    2.10
  -7   2   8    3.40    1.30
  -7   2   8    4.90    2.10
   6  -2  -8   84.69    5.10
   6  -2  -8   90.29    5.50
  -6   2   8   89.09    4.20
  -6   2   8   86.19    5.00
   5  -2  -8   57.69    4.20
   5  -2  -8   52.69    2.70
   5  -2  -8   60.19    4.20
  -5   2   8   54.19    3.90
  -5   2   8   54.89    3.30
   4  -2  -8  495.25   11.60
   4  -2  -8  503.45   11.30
  -4   2   8  511.45   11.40
  -4   2   8  511.95   10.90
   3  -2  -8 1715.13   30.80
   3  -2  -8 1698.13   31.20
  -3   2   8 1726.13   30.80
  -3   2   8 1728.23   31.10
   2  -2  -8 1880.01   33.30
   2  -2  -8 1857.61   32.50
  -2   2   8 1893.41   32.40
  -2   2   8 1827.72   32.90
  -2   2   8 1842.82   33.00
   1  -2  -8  373.36    8.30
  -1   2   8  371.86    8.30
  -1   2   8  376.36    7.60
   0  -2  -8  678.93   13.20
   0  -2  -8  667.63   13.40
   0   2   8  679.33   12.40
   0   2   8  662.03   13.30
  -1  -2  -8  875.91   16.10
  -1  -2  -8  861.31   16.50
   1   2   8  834.32   15.50
   1   2   8  854.21   16.40
  -2  -2  -8  502.15   10.80
  -2  -2  -8  514.75   10.30
   2   2   8  514.95   10.30
  -3  -2  -8  820.32   15.20
  -3  -2  -8  814.62   16.00
  -4  -2  -8    4.40    1.00
   4   2   8    3.90    1.30
  -5  -2  -8  344.57    8.10
  -5  -2  -8  357.36    8.70
   5   2   8  365.26    9.40
  -6  -2  -8  364.26    9.10
  -6  -2  -8  367.06    8.70
   6   2   8  370.46   10.20
  -7  -2  -8   43.40    4.00
  -7  -2  -8   51.99    4.60
  -7  -2  -8   53.69    4.20
   7   2   8   45.90    6.80
  -8  -2  -8   23.50    4.00
   8   2   8   26.40    5.80
   7  -3  -8  231.28    8.80
   7  -3  -8  207.78   10.60
  -7   3   8  225.98    8.40
  -7   3   8  234.08    7.10
   6  -3  -8    5.70    2.00
  -6   3   8    6.90    2.30
   5  -3  -8  474.95   11.20
   5  -3  -8  464.45   11.70
  -5   3   8  484.25   10.80
  -5   3   8  464.45   11.40
   4  -3  -8   54.69    3.70
   4  -3  -8   50.39    3.50
  -4   3   8   46.80    3.10
  -4   3   8   47.20    3.40
   3  -3  -8  329.47    8.50
   3  -3  -8  339.37    7.70
  -3   3   8  336.97    8.30
  -3   3   8  339.37    8.10
   2  -3  -8 1224.88   23.20
   2  -3  -8 1250.07   22.00
  -2   3   8 1245.68   22.90
   1  -3  -8  138.69    4.70
   1  -3  -8  131.59    3.70
   1  -3  -8  140.39    3.50
  -1   3   8  134.79    4.30
  -1   3   8  142.29    3.40
   0  -3  -8   95.89    3.80
   0  -3  -8   89.39    3.00
   0   3   8   96.49    2.60
   0   3   8   89.49    3.50
  -1  -3  -8 1775.52   31.30
  -1  -3  -8 1739.23   31.50
  -1  -3  -8 1811.62   30.30
   1   3   8 1726.33   30.10
   1   3   8 1734.93   31.30
  -2  -3  -8  602.14   12.40
  -2  -3  -8  603.14   12.20
   2   3   8  612.04   11.60
   2   3   8  595.34   12.30
  -3  -3  -8   94.59    3.80
  -3  -3  -8   83.29    3.60
   3   3   8   88.09    3.40
  -4  -3  -8    2.20    1.00
  -4  -3  -8    0.70    1.00
   4   3   8    3.10    1.20
  -5  -3  -8   71.19    3.70
  -5  -3  -8   72.69    3.70
   5   3   8   66.29    4.20
  -6  -3  -8  260.47    7.30
  -6  -3  -8  268.17    7.30
   6   3   8  273.47    8.40
  -7  -3  -8  171.98    6.40
  -7  -3  -8  176.78    6.00
   7   3   8  163.38    9.10
   8   3   8    8.10    2.70
   7  -4  -8   72.39    6.30
   7  -4  -8   88.09    6.00
  -7   4   8   86.29    4.80
  -7   4   8   84.59    5.90
   6  -4  -8   52.39    4.70
   6  -4  -8   50.89    4.90
  -6   4   8   44.70    4.50
  -6   4   8   51.19    3.70
   5  -4  -8    1.80    1.40
   5  -4  -8    1.00    1.40
  -5   4   8    2.00    1.40
  -5   4   8   -0.70    1.00
   4  -4  -8  176.58    6.20
   4  -4  -8  174.78    5.50
  -4   4   8  172.68    6.10
  -4   4   8  174.58    5.60
   3  -4  -8  247.28    6.10
   3  -4  -8  248.38    7.20
  -3   4   8  248.18    6.70
   2  -4  -8   94.79    3.00
   2  -4  -8   91.29    4.20
  -2   4   8   91.29    3.80
   1  -4  -8  625.04   10.90
   1  -4  -8  596.54   12.80
  -1   4   8  599.84   12.50
   0  -4  -8  121.89    4.60
  -1  -4  -8  277.07    7.10
  -1  -4  -8  305.57    5.80
  -1  -4  -8  273.97    8.30
   1   4   8  283.57    7.00
  -2  -4  -8 2065.79   36.60
  -2  -4  -8 2038.40   36.80
   2   4   8 2063.39   36.50
   2   4   8 2090.89   35.40
  -3  -4  -8  334.67    8.10
  -3  -4  -8  343.37    8.20
   3   4   8  352.56    7.70
  -4  -4  -8    1.20    0.90
  -4  -4  -8    1.10    1.20
   4   4   8    2.10    1.20
  -5  -4  -8    1.80    1.00
  -5  -4  -8    1.80    1.30
   5   4   8   -1.00    1.20
  -6  -4  -8   61.99    4.30
  -6  -4  -8   68.99    3.90
   6   4   8   65.69    4.50
  -7  -4  -8   98.69    4.60
  -7  -4  -8   98.39    5.30
   7   4   8  102.09    6.00
  -8  -4  -8  130.49    6.70
   7  -5  -8    6.30    2.10
   7  -5  -8    4.20    2.60
  -7   5   8    4.80    2.20
   6  -5  -8  185.78    7.40
   6  -5  -8  166.78    7.10
  -6   5   8  180.28    7.20
  -6   5   8  175.88    6.50
   5  -5  -8  316.67    9.30
   5  -5  -8  309.67    8.50
  -5   5   8  313.67    9.10
  -5   5   8  310.27    8.50
   4  -5  -8  459.95   10.40
   4  -5  -8  461.85   11.60
  -4   5   8  467.05   10.90
   3  -5  -8  423.36   10.60
   3  -5  -8  424.86    8.90
  -3   5   8  423.76    9.80
   2  -5  -8   27.50    3.10
   2  -5  -8   35.70    2.00
   2  -5  -8   43.20    2.20
  -2   5   8   36.00    2.70
   1  -5  -8   52.69    3.60
  -1   5   8   51.49    3.10
   0  -5  -8  711.73   14.80
   0   5   8  713.63   14.30
  -1  -5  -8   76.39    4.00
   1   5   8   71.59    3.50
  -2  -5  -8  204.68    6.00
  -2  -5  -8  203.88    4.70
  -2  -5  -8  216.68    6.40
   2   5   8  205.88    5.90
   2   5   8  220.18    4.60
  -3  -5  -8  340.87    8.20
  -3  -5  -8  348.57    8.70
   3   5   8  353.46    8.40
   3   5   8  353.16    7.60
  -4  -5  -8   55.29    3.30
  -4  -5  -8   60.19    3.70
   4   5   8   54.09    3.40
  -5  -5  -8  190.98    6.30
  -5  -5  -8  186.48    5.70
   5   5   8  181.18    6.10
  -6  -5  -8  280.87    8.30
  -6  -5  -8  273.97    7.40
   6   5   8  294.67    8.70
  -7  -5  -8   43.20    4.70
   7   5   8   52.69    5.10
   7  -6  -8   42.20    6.00
   7  -6  -8   39.30    6.30
  -7   6   8   31.70    4.60
   6  -6  -8   92.39    6.20
   6  -6  -8   93.89    6.20
  -6   6   8   98.59    6.60
   5  -6  -8   19.90    4.10
   5  -6  -8   29.20    4.00
  -5   6   8   26.30    3.50
   4  -6  -8  123.59    6.00
  -4   6   8  128.39    5.20
   3  -6  -8  184.28    6.70
   3  -6  -8  185.38    5.00
  -3   6   8  185.58    6.00
   2  -6  -8  817.12   17.10
  -2   6   8  803.42   16.30
   1  -6  -8  440.96   10.70
  -1   6   8  429.16    9.90
   0  -6  -8  302.27    8.30
   0   6   8  294.77    7.60
  -1  -6  -8  519.45   12.00
   1   6   8  517.35   11.30
  -2  -6  -8  259.87    6.90
  -2  -6  -8  262.37    7.50
   2   6   8  261.67    6.90
  -3  -6  -8  310.67    7.70
  -3  -6  -8  302.57    8.30
   3   6   8  310.07    7.70
   3   6   8  297.07    6.60
  -4  -6  -8  652.53   13.40
  -4  -6  -8  644.54   14.10
  -5  -6  -8    4.10    1.20
  -5  -6  -8   12.10    3.50
   5   6   8    3.60    1.50
  -6  -6  -8   10.00    3.70
  -6  -6  -8    8.10    2.70
   6   6   8    4.20    1.80
  -7  -6  -8  267.77    9.00
   7   6   8  279.77    9.00
   6  -7  -8   46.90    6.00
  -6   7   8   51.79    4.60
   5  -7  -8   18.60    4.40
   5  -7  -8   21.40    4.50
  -5   7   8   20.80    4.30
   4  -7  -8  945.81   18.50
   4  -7  -8  952.60   20.50
  -4   7   8  943.51   19.40
   3  -7  -8  555.94   13.60
   3  -7  -8  565.14   11.00
  -3   7   8  560.34   12.70
   2  -7  -8   32.20    3.90
  -2   7   8   31.20    3.00
   1  -7  -8  463.55   11.60
  -1   7   8  476.75   10.80
   0  -7  -8  583.94   13.60
   0   7   8  593.84   12.60
  -1  -7  -8  316.97    9.00
   1   7   8  322.87    8.00
  -2  -7  -8  256.27    7.90
   2   7   8  259.57    7.00
  -3  -7  -8  335.27    9.10
  -3  -7  -8  341.57    8.40
   3   7   8  331.37    8.30
   3   7   8  326.37    7.00
  -4  -7  -8   17.40    3.80
  -4  -7  -8   23.20    2.90
   4   7   8   19.70    2.60
   4   7   8   19.10    3.00
  -5  -7  -8  334.07    8.10
  -5  -7  -8  328.47    9.40
   5   7   8  316.57    8.30
  -6  -7  -8    7.10    2.20
  -7  -7  -8    7.80    2.30
   7   7   8    6.30    2.10
   6  -8  -8   31.30    5.80
  -6   8   8   33.60    4.80
   5  -8  -8    8.10    2.30
  -5   8   8   11.10    3.70
   4  -8  -8   15.10    4.30
  -4   8   8   14.90    3.40
   3  -8  -8  687.63   16.20
  -3   8   8  694.73   15.20
   2  -8  -8  332.97    9.80
  -2   8   8  334.17    8.90
   1  -8  -8   29.60    4.20
  -1   8   8   30.40    3.10
   0  -8  -8  104.09    5.60
   0   8   8  114.39    4.70
  -1  -8  -8  438.06   11.40
   1   8   8  433.76   10.20
  -2  -8  -8    0.80    1.60
   2   8   8    0.90    1.10
  -3  -8  -8  415.66   10.90
  -3  -8  -8  414.16    9.80
   3   8   8  404.76    9.70
  -4  -8  -8   66.89    5.00
  -4  -8  -8   78.19    3.90
   4   8   8   72.89    4.10
  -5  -8  -8    2.70    1.20
  -5  -8  -8    2.80    1.70
  -6  -8  -8  154.88    7.20
  -7  -8  -8   83.09    6.60
   5  -9  -8  123.19    7.30
  -5   9   8  135.69    6.50
   4  -9  -8   72.79    6.00
  -4   9   8   76.99    4.90
   3  -9  -8    3.70    1.90
  -3   9   8    3.30    1.50
   2  -9  -8  190.38    7.70
  -2   9   8  200.28    6.80
   1  -9  -8   39.50    4.70
  -1   9   8   49.10    3.80
   0  -9  -8   14.80    3.90
   0   9   8   13.50    3.10
  -1  -9  -8  509.85   13.00
   1   9   8  517.55   11.80
  -2  -9  -8  511.75   13.00
   2   9   8  508.75   11.70
  -3  -9  -8   38.80    3.40
  -3  -9  -8   37.00    4.60
   3   9   8   39.60    3.60
  -4  -9  -8   32.40    4.70
  -4  -9  -8   29.70    3.30
   4   9   8   28.00    3.60
  -5  -9  -8   75.39    5.80
  -6  -9  -8   29.50    5.60
   5 -10  -8   -1.90    2.50
  -5  10   8    1.60    1.90
   4 -10  -8   53.79    5.90
  -4  10   8   58.59    5.30
   3 -10  -8  325.17   10.70
  -3  10   8  316.87    9.50
   2 -10  -8   23.40    5.90
  -2  10   8   23.30    4.00
  -1  10   8   16.00    3.30
   0 -10  -8    1.90    1.90
   0  10   8    1.50    1.40
  -1 -10  -8    4.60    2.10
   1  10   8    4.70    1.50
  -2 -10  -8  354.06   10.80
   2  10   8  362.46    9.30
   3  10   8   31.20    3.80
  -4 -10  -8    3.30    1.20
  -4 -10  -8   -0.30    2.10
   4  10   8    1.20    1.60
  -5 -10  -8   23.50    5.40
  -6 -10  -8   58.39    6.90
   4 -11  -8   46.70    6.70
  -4  11   8   54.59    5.70
   3 -11  -8   72.79    6.90
  -3  11   8   79.59    5.70
   2 -11  -8  271.97   10.20
  -2  11   8  282.07    9.10
   1 -11  -8   -1.10    2.00
   0 -11  -8   56.79    5.70
   0  11   8   61.09    4.60
  -1 -11  -8    2.90    2.30
   1  11   8    2.60    1.50
  -2 -11  -8   15.60    4.90
  -3 -11  -8  114.79    7.10
   3  11   8  117.09    5.70
  -4 -11  -8   34.30    5.80
  -5 -11  -8   25.90    6.30
   3 -12  -8   11.90    3.20
  -3  12   8   16.20    5.30
   2 -12  -8  204.88    9.50
  -2  12   8  214.68    8.40
   1 -12  -8   70.49    6.80
  -1  12   8   75.19    5.30
   0 -12  -8   -0.20    2.20
   0  12   8    2.10    1.60
   0  12   8   -1.30    1.50
  -1 -12  -8  109.89    7.40
   1  12   8  104.99    5.70
  -2 -12  -8  182.88    8.70
   2  12   8  174.38    6.80
  -3 -12  -8    1.50    2.60
   3  12   8    4.80    2.00
  -4 -12  -8   59.69    6.90
   1 -13  -8  102.79    8.00
  -1  13   8  108.79    6.40
  -1  13   8   95.09    6.50
   0 -13  -8  101.09    7.80
   0  13   8  102.39    6.50
   0  13   8   90.49    6.10
  -1 -13  -8    0.50    2.40
   1  13   8    0.80    1.90
  -2 -13  -8   59.79    7.10
   2  13   8   51.29    6.60
   1  10  -9    5.00    2.00
  -1 -10   9   10.00    3.00
   0  10  -9   96.89    6.60
   0  10  -9  100.59    6.20
   0 -10   9  110.89    8.20
   3   9  -9   27.80    5.10
  -3  -9   9   22.30    5.80
   2   9  -9  134.69    6.60
  -2  -9   9  134.09    7.60
   1   9  -9  105.89    5.50
   1   9  -9  102.09    5.90
  -1  -9   9  100.99    6.60
   0   9  -9   31.80    4.60
   0   9  -9   26.20    4.30
   0  -9   9   30.80    5.50
  -1   9  -9   53.89    4.90
  -1   9  -9   49.60    4.90
   1  -9   9   39.90    5.90
  -2   9  -9  124.89    6.70
  -2   9  -9  116.09    6.30
   2  -9   9  115.29    7.90
   4   8  -9  190.28    8.80
   4   8  -9  187.28    7.50
  -4  -8   9  190.88    8.60
  -4  -8   9  189.18    6.50
   3   8  -9   37.60    4.60
   3   8  -9   24.80    5.50
  -3  -8   9   35.00    5.40
   2   8  -9    2.30    1.50
  -2  -8   9   -1.40    1.80
   1   8  -9   74.99    4.50
   1   8  -9   66.49    4.90
  -1  -8   9   80.89    5.80
   0   8  -9  137.89    6.10
   0   8  -9  128.69    5.60
   0  -8   9  135.79    6.80
  -1   8  -9   86.49    5.30
  -1   8  -9   80.79    4.90
   1  -8   9   90.99    6.20
  -2   8  -9  145.89    6.20
  -2   8  -9  143.69    6.40
   2  -8   9  139.19    7.70
  -3   8  -9  203.48    7.70
  -3   8  -9  203.88    7.70
   3  -8   9  215.58    9.70
   4  -8   9   21.60    7.10
   5   7  -9   45.70    6.50
   5   7  -9   45.40    5.20
  -5  -7   9   41.70    4.60
  -5  -7   9   59.69    6.30
   4   7  -9   27.60    4.20
   4   7  -9   27.80    4.90
   3   7  -9  368.46    9.60
   3   7  -9  358.16   11.40
  -3  -7   9  338.57    8.60
  -3  -7   9  363.66   10.90
   2   7  -9   29.50    3.40
   2   7  -9   36.10    3.70
  -2  -7   9   30.60    5.10
   1   7  -9    0.20    1.20
   1   7  -9    2.20    1.30
  -1  -7   9   -0.70    1.80
   0   7  -9  323.17    8.40
   0   7  -9  307.37    8.90
   0  -7   9  306.67    9.80
  -1   7  -9  285.07    8.10
  -2   7  -9   39.30    4.10
  -2   7  -9   29.90    3.80
   2  -7   9   30.10    5.10
  -3   7  -9   83.49    5.30
  -3   7  -9   91.09    5.40
   3  -7   9   96.79    6.90
  -4   7  -9   93.19    5.50
  -4   7  -9  102.39    6.10
   4  -7   9  108.09    7.30
  -5   7  -9   -0.60    2.00
  -5   7  -9   -0.60    1.60
   5  -7   9    0.10    2.90
   6   6  -9    9.20    3.00
  -6  -6   9   12.40    4.30
   5   6  -9  100.99    5.30
   5   6  -9   96.09    6.70
  -5  -6   9   82.59    6.10
   4   6  -9  259.57    7.50
   4   6  -9  241.98    9.00
  -4  -6   9  244.98    7.40
  -4  -6   9  247.88    8.60
   3   6  -9   14.00    3.40
   3   6  -9    7.30    2.30
  -3  -6   9   19.10    3.80
  -3  -6   9   11.80    2.80
   2   6  -9  132.39    5.30
   2   6  -9  127.29    4.60
  -2  -6   9  133.89    6.10
  -2  -6   9  130.19    4.30
   1   6  -9  163.98    5.80
   1   6  -9  160.38    5.30
  -1  -6   9  158.78    6.60
   0   6  -9   14.70    3.10
   0   6  -9   14.10    3.00
   0  -6   9   12.70    3.60
  -1   6  -9  396.66   10.00
  -1   6  -9  388.66    9.70
   1  -6   9  390.66   10.80
  -2   6  -9   39.40    3.70
  -2   6  -9   39.90    3.80
   2  -6   9   42.10    4.80
  -4   6  -9  265.17    8.70
  -4   6  -9  270.77    8.40
   4  -6   9  265.67    9.70
  -5   6  -9  288.07    9.40
  -5   6  -9  271.37    8.50
   5  -6   9  283.57   10.70
   6   5  -9   46.10    6.40
  -6  -5   9   42.30    4.60
   5   5  -9   20.40    4.80
   5   5  -9   12.90    3.70
  -5  -5   9    8.40    2.10
  -5  -5   9   10.40    3.30
   4   5  -9  161.38    5.60
   4   5  -9  147.29    7.90
  -4  -5   9  149.88    7.50
  -4  -5   9  157.48    5.60
   3   5  -9  935.01   20.00
   3   5  -9  888.01   18.00
   3   5  -9  886.91   16.90
  -3  -5   9  907.21   19.30
  -3  -5   9  898.01   17.60
   2   5  -9   11.10    2.70
  -2  -5   9   10.20    2.20
   1   5  -9   44.40    3.20
   1   5  -9   41.00    3.30
  -1  -5   9   42.40    4.00
  -1  -5   9   39.80    2.20
   0   5  -9  111.69    4.70
   0   5  -9  107.39    4.30
   0  -5   9  107.09    5.30
  -1   5  -9   48.10    3.50
  -1   5  -9   45.80    3.50
   1  -5   9   45.80    4.20
  -2   5  -9  311.27    8.40
  -2   5  -9  312.67    8.50
   2  -5   9  320.07    9.40
  -3   5  -9   12.20    3.20
  -3   5  -9    8.00    1.60
  -4   5  -9    1.40    1.40
  -4   5  -9    3.10    1.20
   4  -5   9   -1.80    1.80
  -5   5  -9  158.28    6.90
   5  -5   9  171.88    8.00
  -6   5  -9  174.18    7.40
  -6   5  -9  166.78    6.50
   6  -5   9  161.48    9.20
   6   4  -9   11.40    2.80
  -6  -4   9   19.20    3.90
   5   4  -9   34.60    5.30
   5   4  -9   45.60    3.80
  -5  -4   9   39.40    3.80
   4   4  -9   72.79    3.90
   4   4  -9   76.49    5.40
  -4  -4   9   73.89    4.00
  -4  -4   9   73.19    4.90
   3   4  -9  229.18    6.70
   3   4  -9  242.28    6.10
   3   4  -9  234.98    8.10
  -3  -4   9  236.68    6.40
  -3  -4   9  245.18    7.70
   2   4  -9  476.05   10.20
   2   4  -9  487.35   10.90
  -2  -4   9  503.45   11.80
  -2  -4   9  478.35   10.10
   1   4  -9    3.40    1.10
   1   4  -9    2.60    1.10
  -1  -4   9    0.60    1.30
   0   4  -9   92.29    4.10
   0   4  -9   92.09    3.90
   0  -4   9   90.19    4.60
  -1   4  -9  564.84   12.40
  -1   4  -9  567.54   12.20
   1  -4   9  563.64   13.10
  -2   4  -9  123.79    5.00
  -2   4  -9  115.59    4.90
   2  -4   9  133.99    5.70
  -3   4  -9  177.68    6.00
  -3   4  -9  184.58    6.20
   3  -4   9  183.88    6.90
  -4   4  -9   85.69    4.30
  -4   4  -9   77.79    4.70
   4  -4   9   83.69    5.20
  -5   4  -9   36.10    3.90
  -5   4  -9   34.90    3.50
   5  -4   9   31.70    5.30
  -6   4  -9  270.07    8.00
  -6   4  -9  268.57    9.00
   6  -4   9  267.37   10.40
   7   3  -9   87.09    7.40
  -7  -3   9   86.29    5.90
   6   3  -9   93.09    6.50
  -6  -3   9   92.59    5.20
   5   3  -9  104.99    5.90
   5   3  -9   94.69    4.30
  -5  -3   9   97.99    4.90
   4   3  -9  395.96   11.00
   4   3  -9  403.26    9.20
  -4  -3   9  399.16   10.40
  -4  -3   9  402.66    9.70
   3   3  -9    0.30    1.00
   3   3  -9    0.50    1.50
   3   3  -9    1.30    1.00
  -3  -3   9    3.20    1.40
  -3  -3   9    3.10    1.10
   2   3  -9  616.84   12.70
   2   3  -9  601.14   12.20
  -2  -3   9  617.04   13.50
  -2  -3   9  601.84   12.10
   1   3  -9  172.78    5.10
   1   3  -9  174.48    5.40
  -1  -3   9  175.18    4.40
  -1  -3   9  176.68    5.90
   0   3  -9   66.79    3.40
   0   3  -9   67.59    3.40
   0  -3   9   62.19    3.70
  -1   3  -9 1172.28   22.20
  -1   3  -9 1166.88   22.20
   1  -3   9 1183.08   22.90
  -2   3  -9 1338.07   24.80
  -2   3  -9 1334.47   24.70
   2  -3   9 1265.37   25.10
  -3   3  -9   23.10    3.00
  -3   3  -9   17.90    2.90
   3  -3   9   19.70    3.50
  -4   3  -9   29.90    3.00
  -4   3  -9   33.20    3.40
   4  -3   9   40.10    4.30
  -5   3  -9   21.50    2.90
  -6   3  -9   36.90    4.40
  -6   3  -9   33.70    3.60
   6  -3   9   24.90    5.70
  -7   3  -9  101.59    6.20
   7  -3   9  116.29    8.40
   7   2  -9   69.49    6.80
  -7  -2   9   62.29    5.40
   6   2  -9  276.47    9.60
  -6  -2   9  279.27    8.60
   5   2  -9   55.89    4.20
   5   2  -9   53.09    3.40
   5   2  -9   56.99    4.90
  -5  -2   9   50.89    3.80
   4   2  -9  714.13   14.20
   4   2  -9  717.23   14.00
   4   2  -9  729.13   16.20
  -4  -2   9  712.63   15.00
  -4  -2   9  735.33   15.80
  -4  -2   9  721.83   13.90
   3   2  -9  518.75   12.20
   3   2  -9  507.45   10.80
   3   2  -9  515.55   10.70
  -3  -2   9  516.85   11.10
  -3  -2   9  520.45   11.90
   2   2  -9  323.97    7.80
   2   2  -9  323.77    7.60
  -2  -2   9  324.57    7.40
  -2  -2   9  329.67    8.40
   1   2  -9   30.90    2.60
   1   2  -9   26.40    2.70
   1   2  -9   33.90    2.20
  -1  -2   9   31.40    2.90
  -1  -2   9   28.80    2.00
   0   2  -9  180.08    5.30
   0   2  -9  178.18    5.20
   0   2  -9  178.48    4.20
   0   2  -9  171.48    4.10
   0  -2   9  173.68    5.50
  -1   2  -9   10.40    2.30
   1  -2   9    1.90    1.20
  -2   2  -9  236.08    6.60
  -2   2  -9  242.68    6.70
   2  -2   9  225.78    6.90
  -3   2  -9 1804.52   33.10
  -3   2  -9 1832.22   32.90
   3  -2   9 1807.32   33.60
  -4   2  -9   -1.10    1.10
  -4   2  -9    1.40    1.10
   4  -2   9    0.60    1.50
  -5   2  -9   89.69    4.70
  -5   2  -9   96.19    4.20
   5  -2   9   98.09    5.90
  -6   2  -9  153.78    6.30
  -6   2  -9  146.09    5.40
   6  -2   9  153.88    7.70
  -7   2  -9   20.80    4.70
   7  -2   9   36.10    6.60
   7   1  -9   39.80    6.20
  -7  -1   9   37.70    4.70
   6   1  -9   -2.50    1.90
  -6  -1   9   -1.30    1.60
   5   1  -9  345.67    7.80
   5   1  -9  348.87    8.20
   5   1  -9  351.76   10.00
  -5  -1   9  355.56    9.40
  -5  -1   9  340.47    7.90
   4   1  -9  197.38    6.90
   4   1  -9  207.08    5.50
   4   1  -9  196.68    5.60
  -4  -1   9  192.48    5.40
  -4  -1   9  203.68    6.30
   3   1  -9  856.81   16.50
   3   1  -9  861.61   16.50
   3   1  -9  855.91   17.60
  -3  -1   9  859.01   16.90
  -3  -1   9  881.31   16.50
  -3  -1   9  879.31   17.40
   2   1  -9  383.26    8.60
   2   1  -9  381.96    8.60
   2   1  -9  380.96    8.50
  -2  -1   9  381.26    9.00
  -2  -1   9  384.86    8.50
  -2  -1   9  384.86    8.40
   1   1  -9  759.52   14.40
   1   1  -9  766.12   15.00
   1   1  -9  759.62   15.10
  -1  -1   9  769.72   15.30
  -1  -1   9  778.02   14.40
   0   1  -9  207.18    5.70
   0   1  -9  202.28    5.70
   0   1  -9  216.98    5.00
   0  -1   9  201.48    5.80
  -1   1  -9  769.62   15.20
  -1   1  -9  758.52   15.20
   1  -1   9  772.12   15.40
  -2   1  -9   51.49    3.10
  -2   1  -9   49.70    3.00
   2  -1   9   48.80    3.30
  -3   1  -9  196.98    5.90
  -3   1  -9  192.08    6.00
   3  -1   9  197.08    6.50
  -4   1  -9  475.25   11.20
  -4   1  -9  486.35   10.90
   4  -1   9  481.45   11.70
  -5   1  -9   15.40    2.90
  -5   1  -9   12.80    3.00
   5  -1   9   23.20    4.20
  -6   1  -9   63.79    3.90
   6  -1   9   66.59    6.90
  -7   1  -9  308.97    9.40
   7  -1   9  313.17   11.10
   7   0  -9  279.77   10.20
  -7   0   9  286.87    9.40
   6   0  -9   13.20    4.10
  -6   0   9    6.70    2.00
   5   0  -9   22.70    3.90
   5   0  -9   22.70    2.90
  -5   0   9   23.20    2.60
  -5   0   9   17.60    3.20
   4   0  -9  466.75    9.70
   4   0  -9  466.15   11.20
  -4   0   9  465.65   10.80
  -4   0   9  466.65   10.00
   3   0  -9    2.00    1.00
   3   0  -9    2.50    1.30
   3   0  -9    2.70    1.10
   3   0  -9    8.50    2.30
  -3   0   9    3.90    1.00
  -3   0   9    2.90    1.10
   2   0  -9   50.99    3.00
   2   0  -9   53.89    2.90
   2   0  -9   51.59    3.40
   2   0  -9   54.59    3.00
  -2   0   9   63.99    3.00
  -2   0   9   52.29    2.80
  -2   0   9   49.80    3.00
   1   0  -9 1096.29   20.00
   1   0  -9 1082.49   20.40
   1   0  -9 1095.29   20.40
  -1   0   9 1123.69   19.90
  -1   0   9 1065.09   20.40
  -1   0   9 1092.19   20.40
   0   0  -9  367.76    8.50
   0   0  -9  375.26    7.80
  -1   0  -9  144.89    3.90
  -1   0  -9  138.49    3.70
  -1   0  -9  139.49    4.60
   1   0   9  139.59    4.50
  -2   0  -9  513.05   11.10
   2   0   9  519.45   11.20
  -3   0  -9  706.83   14.60
  -3   0  -9  724.03   14.50
   3   0   9  698.03   14.70
  -4   0  -9  450.65   10.20
  -4   0  -9  440.56   10.50
   4   0   9  452.65   10.90
  -5   0  -9   52.79    3.50
  -5   0  -9   53.39    3.90
   5   0   9   51.99    4.60
  -6   0  -9    2.30    1.20
  -6   0  -9    2.40    1.30
   6   0   9    3.80    1.80
  -7   0  -9   35.30    4.20
   7   0   9   34.20    5.50
   7  -1  -9   19.30    4.70
   7  -1  -9   14.80    5.50
  -7   1   9   12.30    4.60
   6  -1  -9   41.60    4.80
   6  -1  -9   37.90    4.80
  -6   1   9   45.10    3.20
  -6   1   9   39.50    4.60
   5  -1  -9  199.38    6.90
   5  -1  -9  200.28    7.00
   5  -1  -9  197.18    5.20
  -5   1   9  189.38    6.60
  -5   1   9  196.68    5.70
   4  -1  -9   43.20    3.60
   4  -1  -9   41.90    3.50
   4  -1  -9   41.10    3.40
  -4   1   9   41.90    2.90
  -4   1   9   39.70    3.40
   3  -1  -9 1560.04   28.70
   3  -1  -9 1536.35   28.40
   3  -1  -9 1560.24   27.70
  -3   1   9 1560.04   28.10
  -3   1   9 1547.95   28.40
   2  -1  -9  144.49    4.80
   2  -1  -9  155.18    4.90
  -2   1   9  151.88    4.70
  -2   1   9  153.08    4.70
   1  -1  -9   37.00    2.70
   1  -1  -9   34.40    2.50
  -1   1   9   38.10    2.50
  -1   1   9   35.00    2.20
   0  -1  -9  889.41   17.30
   0  -1  -9  903.01   16.80
   0   1   9  898.51   17.30
   0   1   9  903.81   16.80
  -1  -1  -9  316.17    6.90
  -1  -1  -9  298.97    7.50
   1   1   9  303.37    7.00
  -2  -1  -9  415.76    9.70
  -2  -1  -9  444.16    8.60
   2   1   9  421.06    9.50
  -3  -1  -9   75.99    3.70
  -3  -1  -9   77.79    2.70
   3   1   9   70.69    3.70
  -4  -1  -9  235.48    5.50
  -4  -1  -9  238.38    6.80
   4   1   9  243.28    7.20
  -5  -1  -9  172.78    6.00
  -5  -1  -9  170.98    4.90
   5   1   9  177.08    6.60
  -6  -1  -9   88.59    4.30
  -6  -1  -9   85.69    4.60
   6   1   9   88.59    5.40
  -7  -1  -9    5.90    2.30
  -7  -1  -9    0.20    1.60
   7   1   9    0.50    2.30
   7  -2  -9  198.48    8.60
   7  -2  -9  202.28    8.40
  -7   2   9  212.48    8.30
   6  -2  -9   23.90    4.40
   6  -2  -9   22.50    4.10
  -6   2   9   25.20    3.10
  -6   2   9   26.40    3.90
   5  -2  -9   39.40    4.00
   5  -2  -9   39.30    2.90
   5  -2  -9   41.10    3.80
  -5   2   9   39.80    3.10
  -5   2   9   46.40    3.80
   4  -2  -9    1.20    1.30
   4  -2  -9    0.80    1.40
  -4   2   9   -0.80    1.10
  -4   2   9   -0.30    0.90
   3  -2  -9  239.48    6.90
   3  -2  -9  241.18    6.60
  -3   2   9  248.08    6.90
  -3   2   9  240.98    6.50
   2  -2  -9  283.17    6.70
   2  -2  -9  272.37    7.10
  -2   2   9  281.57    7.00
  -2   2   9  274.47    7.00
  -2   2   9  284.07    6.50
   1  -2  -9    2.30    1.10
  -1   2   9    1.30    0.70
  -1   2   9   -0.50    0.80
   0  -2  -9   20.00    2.40
   0  -2  -9   16.00    2.20
   0   2   9   18.80    1.70
   0   2   9   17.60    2.20
  -1  -2  -9  513.25   11.10
  -1  -2  -9  512.05   10.60
   1   2   9  510.25   11.00
   1   2   9  518.75   10.20
  -2  -2  -9  510.85   11.20
  -2  -2  -9  521.85   10.50
   2   2   9  517.15   10.60
  -3  -2  -9  230.88    6.50
  -3  -2  -9  243.88    5.80
   3   2   9  241.38    6.40
  -4  -2  -9  618.54   11.90
  -4  -2  -9  586.34   12.80
   4   2   9  595.74   13.00
  -5  -2  -9   12.10    2.80
  -5  -2  -9   11.40    2.90
   5   2   9   13.30    3.40
  -6  -2  -9   13.60    3.20
  -6  -2  -9   12.50    3.20
  -7  -2  -9   48.00    5.00
  -7  -2  -9   52.49    4.20
   7   2   9   38.20    5.20
   7  -3  -9   59.19    6.30
   7  -3  -9   65.39    6.10
  -7   3   9   60.69    4.20
  -7   3   9   63.09    5.80
   6  -3  -9  139.89    6.50
   6  -3  -9  138.59    6.60
  -6   3   9  146.49    5.60
  -6   3   9  136.79    6.30
   5  -3  -9   68.19    4.50
   5  -3  -9   71.49    4.50
   5  -3  -9   67.69    4.00
  -5   3   9   66.19    3.80
  -5   3   9   65.79    4.40
   4  -3  -9  676.73   14.90
   4  -3  -9  660.73   14.00
  -4   3   9  678.23   14.70
  -4   3   9  679.63   14.10
   3  -3  -9  614.44   12.30
   3  -3  -9  582.94   13.10
  -3   3   9  602.44   12.70
  -3   3   9  592.94   13.00
   2  -3  -9   19.10    2.80
   2  -3  -9   17.20    2.00
  -2   3   9   16.50    2.40
   1  -3  -9  433.16    8.60
   1  -3  -9  428.36    9.80
  -1   3   9  419.66    9.60
  -1   3   9  449.46    8.50
   0  -3  -9    0.30    1.30
   0  -3  -9    0.50    0.90
   0   3   9    1.50    0.60
   0   3   9    1.80    0.90
  -1  -3  -9  765.32   15.40
  -1  -3  -9  763.32   15.10
   1   3   9  778.22   14.00
   1   3   9  748.33   15.20
  -2  -3  -9 2485.95   42.30
  -2  -3  -9 2397.56   42.60
   2   3   9 2389.16   42.60
   2   3   9 2399.56   41.60
  -3  -3  -9   28.70    2.80
   3   3   9   29.80    3.20
  -4  -3  -9   29.60    3.00
  -4  -3  -9   29.40    2.70
   4   3   9   29.70    3.00
  -5  -3  -9  229.38    6.40
  -5  -3  -9  231.98    6.80
   5   3   9  237.08    7.30
  -6  -3  -9   35.00    3.60
  -6  -3  -9   32.40    3.50
   6   3   9   30.90    4.10
  -7  -3  -9   44.00    4.00
   7   3   9   53.19    5.40
   7  -4  -9   18.50    5.30
  -7   4   9   17.30    5.00
   6  -4  -9  427.46   12.10
   6  -4  -9  403.86   11.10
  -6   4   9  428.76   10.60
  -6   4   9  417.36   11.60
   5  -4  -9   34.60    4.10
   5  -4  -9   33.60    4.00
  -5   4   9   37.70    3.90
  -5   4   9   37.30    3.50
   4  -4  -9  278.27    8.30
   4  -4  -9  269.37    7.30
  -4   4   9  275.27    8.10
  -4   4   9  274.57    7.60
   3  -4  -9 1074.09   19.70
   3  -4  -9 1069.09   21.30
  -3   4   9 1056.29   20.60
   2  -4  -9  857.91   15.60
   2  -4  -9  836.62   17.30
  -2   4   9  858.01   16.90
   1  -4  -9   12.50    2.70
   1  -4  -9   11.30    1.60
   1  -4  -9    9.90    1.90
  -1   4   9    9.30    2.10
   0  -4  -9  338.47    8.40
   0   4   9  332.27    8.10
  -1  -4  -9  279.17    6.00
  -1  -4  -9  279.07    7.50
  -1  -4  -9  282.67    7.40
   1   4   9  288.47    5.70
   1   4   9  276.57    7.20
  -2  -4  -9  102.89    4.20
  -2  -4  -9  104.69    4.50
   2   4   9  105.59    4.30
   2   4   9  102.59    3.20
  -3  -4  -9 1286.37   23.90
  -3  -4  -9 1250.57   23.60
   3   4   9 1267.67   22.90
  -4  -4  -9    1.60    1.00
  -4  -4  -9    2.20    1.30
   4   4   9    0.90    1.20
  -5  -4  -9   16.90    3.20
  -5  -4  -9   12.60    2.90
   5   4   9   16.50    3.30
  -6  -4  -9  414.66   10.00
  -6  -4  -9  411.86   10.20
   6   4   9  409.16   10.80
  -7  -4  -9  160.98    6.60
  -7  -4  -9  164.18    6.00
   7  -5  -9   81.79    6.70
  -7   5   9   87.49    5.30
  -7   5   9   79.59    6.70
   6  -5  -9  142.59    7.10
   6  -5  -9  155.58    7.30
  -6   5   9  159.38    7.20
  -6   5   9  155.68    6.20
   5  -5  -9  127.69    6.50
   5  -5  -9  136.69    5.80
  -5   5   9  136.99    5.50
   4  -5  -9  108.19    4.70
   4  -5  -9  110.29    5.60
  -4   5   9  108.09    4.90
   3  -5  -9  204.88    7.00
   3  -5  -9  204.68    5.30
  -3   5   9  198.78    6.30
   2  -5  -9  764.22   16.30
   2  -5  -9  773.12   13.80
  -2   5   9  762.32   15.70
   1  -5  -9 2390.86   42.60
  -1   5   9 2339.17   41.90
   0  -5  -9   98.09    4.60
   0   5   9   94.99    4.10
  -1  -5  -9  337.67    8.70
   1   5   9  330.77    8.20
  -2  -5  -9  704.03   14.60
  -2  -5  -9  702.23   14.80
   2   5   9  702.63   12.70
   2   5   9  696.53   14.40
  -3  -5  -9   10.40    3.00
  -3  -5  -9   13.00    2.70
   3   5   9   10.00    2.60
   3   5   9    9.70    2.10
  -4  -5  -9  130.29    4.90
  -4  -5  -9  134.09    5.20
   4   5   9  128.89    4.70
  -5  -5  -9   29.00    3.20
  -5  -5  -9   39.50    3.80
   5   5   9   37.90    3.60
  -6  -5  -9   70.79    4.20
  -6  -5  -9   68.89    4.80
   6   5   9   69.49    4.80
  -7  -5  -9  233.68    8.10
  -7  -5  -9  255.37    9.10
   7   5   9  226.58   10.30
   6  -6  -9  211.78   10.10
   6  -6  -9  220.98    9.00
  -6   6   9  214.48    7.50
   5  -6  -9    8.00    2.10
  -5   6   9   14.90    3.30
   4  -6  -9   28.80    4.30
  -4   6   9   33.80    3.40
   3  -6  -9   92.99    5.20
   3  -6  -9  103.29    3.80
  -3   6   9   95.79    4.60
  -2   6   9    9.10    2.70
   1  -6  -9  333.67    9.20
  -1   6   9  339.57    8.50
   0  -6  -9  135.79    5.80
   0   6   9  134.39    4.90
  -1  -6  -9    0.70    1.30
   1   6   9    0.90    0.90
  -2  -6  -9  521.65   11.70
  -2  -6  -9  514.65   12.10
   2   6   9  519.55   11.50
  -3  -6  -9  528.25   12.20
  -3  -6  -9  538.05   11.80
   3   6   9  543.95   11.80
   3   6   9  503.65   10.20
  -4  -6  -9   23.20    3.60
  -4  -6  -9   25.80    3.10
  -5  -6  -9    8.10    2.80
  -5  -6  -9   11.70    3.70
   5   6   9    5.70    1.50
  -6  -6  -9   79.49    4.20
  -6  -6  -9   70.79    5.00
   6   6   9   68.99    4.70
  -7  -6  -9   19.30    5.00
   7   6   9   23.50    4.30
  -6   7   9   -1.60    1.50
   5  -7  -9  137.69    7.20
  -5   7   9  132.79    6.10
   4  -7  -9    2.10    1.80
  -4   7   9    2.60    1.40
   3  -7  -9  279.47    8.90
  -3   7   9  279.77    8.00
   2  -7  -9  302.57    9.20
  -2   7   9  307.77    8.40
   1  -7  -9   97.49    5.30
  -1   7   9   93.29    4.40
   0  -7  -9  396.46   10.60
   0   7   9  401.66    9.70
  -1  -7  -9    1.80    1.60
   1   7   9    0.30    1.10
  -2  -7  -9  117.29    5.60
  -2  -7  -9  110.99    4.80
   2   7   9  118.29    4.80
  -3  -7  -9  326.67    9.20
  -3  -7  -9  329.97    8.50
   3   7   9  323.57    8.50
  -4  -7  -9  561.04   12.30
  -4  -7  -9  543.75   13.10
  -5  -7  -9    0.80    1.70
  -5  -7  -9    8.20    2.90
  -6  -7  -9   10.40    3.40
  -7  -7  -9   33.90    5.60
   6  -8  -9    2.70    2.70
  -6   8   9    3.60    2.00
   5  -8  -9   99.39    6.50
  -5   8   9   85.69    5.60
   4  -8  -9  113.89    6.50
  -4   8   9  108.69    5.60
   3  -8  -9    2.60    1.80
  -3   8   9    3.00    1.40
   2  -8  -9  472.85   12.40
  -2   8   9  472.15   11.40
   1  -8  -9   47.80    4.70
  -1   8   9   47.70    3.70
   0  -8  -9   18.70    4.00
   0   8   9   25.40    3.10
  -1  -8  -9  119.89    6.10
   1   8   9  126.69    5.10
  -2  -8  -9  124.59    6.10
   2   8   9  116.59    5.00
  -3  -8  -9    9.20    2.10
   3   8   9   15.50    3.30
  -4  -8  -9  116.19    5.00
  -4  -8  -9  111.49    6.10
   4   8   9  115.49    5.20
  -5  -8  -9   22.20    5.60
  -5  -8  -9   17.20    3.20
  -6  -8  -9    1.10    2.20
   5  -9  -9   -1.80    2.30
  -5   9   9    0.00    1.70
   4  -9  -9   52.79    5.90
  -4   9   9   54.99    4.90
   3  -9  -9  211.48    8.60
  -3   9   9  220.08    7.80
  -2   9   9   10.30    3.30
   1  -9  -9  107.99    6.20
  -1   9   9  108.59    5.20
   0  -9  -9  175.68    7.40
   0   9   9  183.18    6.30
  -1  -9  -9   43.20    4.80
   1   9   9   50.29    3.90
  -2  -9  -9  263.37    9.00
   2   9   9  254.27    7.60
  -3  -9  -9   93.69    4.70
  -3  -9  -9  104.79    6.00
   3   9   9   98.99    5.00
  -4  -9  -9    0.30    1.30
   4   9   9    1.10    1.50
  -5  -9  -9  229.38    8.80
  -6  -9  -9    7.00    2.70
   4 -10  -9    2.80    2.40
  -4  10   9    1.40    2.00
   3 -10  -9  228.48    9.20
  -3  10   9  223.98    8.10
   2 -10  -9  407.86   12.30
  -2  10   9  401.66   10.80
  -1  10   9   -0.80    1.40
   0 -10  -9  120.19    6.70
   0  10   9  122.19    5.50
  -1 -10  -9  396.26   11.90
   1  10   9  404.36   10.40
   2  10   9    6.30    1.60
  -3 -10  -9  194.68    6.70
  -3 -10  -9  197.88    8.20
   3  10   9  200.58    6.90
  -4 -10  -9   70.29    6.30
  -4 -10  -9   64.39    4.30
   4  10   9   65.69    5.00
  -5 -10  -9   22.00    5.70
   4 -11  -9   43.20    6.90
  -4  11   9   34.40    5.90
   3 -11  -9   16.90    6.00
  -3  11   9   26.20    4.70
   2 -11  -9   96.49    7.00
  -2  11   9  103.39    6.00
   1 -11  -9  427.46   13.00
  -1  11   9  420.76   11.40
   0 -11  -9   -4.00    2.10
   0  11   9    0.10    2.90
  -1 -11  -9   41.60    5.70
   1  11   9   53.29    4.60
  -2 -11  -9  210.48    9.00
   2  11   9  199.58    7.20
  -3 -11  -9   57.99    6.40
  -3 -11  -9   57.79    4.40
   3  11   9   63.29    4.90
  -4 -11  -9   35.70    6.30
   2 -12  -9   41.90    6.80
  -2  12   9   51.39    5.70
   1 -12  -9    9.80    3.00
  -1  12   9   14.60    4.70
   0 -12  -9   22.40    6.30
   0  12   9   27.30    4.40
  -1 -12  -9    7.60    2.80
   1  12   9    5.70    2.00
  -2 -12  -9   71.89    6.80
  -3 -12  -9   95.79    7.70
   3  12   9   95.29    6.00
   0  13   9   17.70    5.00
  -1 -13  -9   -1.10    2.80
   1  13   9    1.10    2.00
   2   9 -10    2.00    2.00
  -2  -9  10    0.00    2.70
   1   9 -10   57.19    5.70
  -1  -9  10   54.59    6.60
   0   9 -10    4.60    1.90
   0  -9  10    5.30    2.80
  -1   9 -10    2.70    1.90
   1  -9  10    4.30    2.60
   3   8 -10   92.99    7.50
   3   8 -10   96.49    6.10
  -3  -8  10  103.59    7.10
   2   8 -10  102.79    6.00
  -2  -8  10  116.39    7.30
   1   8 -10   64.29    4.90
   1   8 -10   74.19    5.50
  -1  -8  10   80.39    6.30
   0   8 -10  105.89    5.60
   0   8 -10   99.69    5.80
   0  -8  10  113.79    6.90
  -1   8 -10   17.50    4.30
  -1   8 -10    7.60    1.90
   1  -8  10    8.70    2.50
  -2   8 -10    4.30    1.90
  -2   8 -10    3.40    1.80
   2  -8  10    4.30    2.60
  -3   8 -10  116.79    6.70
  -3   8 -10  112.29    6.70
   3  -8  10  117.69    8.70
   4   7 -10   99.29    7.00
   4   7 -10   92.49    5.90
  -4  -7  10   92.29    4.80
  -4  -7  10   94.79    6.60
   3   7 -10    4.00    1.80
   3   7 -10    5.10    2.50
  -3  -7  10    6.40    2.30
   2   7 -10  134.39    6.30
   2   7 -10  145.79    5.70
  -2  -7  10  148.89    7.30
   1   7 -10  162.48    5.90
   1   7 -10  156.68    6.50
  -1  -7  10  170.08    7.40
   0   7 -10   50.29    4.50
   0   7 -10   55.09    4.30
   0  -7  10   50.79    5.20
  -1   7 -10  207.28    7.50
  -1   7 -10  216.58    7.20
   1  -7  10  216.18    8.40
  -2   7 -10   80.39    5.20
  -2   7 -10   76.29    5.10
   2  -7  10   81.99    6.30
  -3   7 -10   -0.90    1.60
  -3   7 -10   -0.70    1.80
   3  -7  10   -1.00    2.40
  -4   7 -10   47.80    5.50
  -4   7 -10   41.10    5.10
   5   6 -10    5.50    2.50
   5   6 -10   14.20    4.60
  -5  -6  10    3.90    1.80
  -5  -6  10    1.10    2.20
   4   6 -10   85.29    6.30
   4   6 -10   83.79    5.10
  -4  -6  10   89.69    6.00
  -4  -6  10   84.89    4.60
   3   6 -10  147.19    7.50
   3   6 -10  148.19    6.00
  -3  -6  10  149.69    7.10
  -3  -6  10  148.19    5.20
   2   6 -10    1.90    1.30
   2   6 -10    0.70    1.40
   1   6 -10  165.78    5.70
   1   6 -10  158.88    6.20
  -1  -6  10  157.78    6.90
   0   6 -10  335.67    8.80
   0   6 -10  344.57    9.40
   0  -6  10  342.47   10.00
  -1   6 -10   28.30    3.60
   1  -6  10   35.30    5.70
  -2   6 -10   37.80    4.10
  -2   6 -10   32.60    3.90
   2  -6  10   29.80    5.00
  -3   6 -10  148.49    6.30
  -3   6 -10  145.09    6.40
   3  -6  10  144.29    7.40
  -4   6 -10   71.19    5.40
  -4   6 -10   73.19    5.60
   4  -6  10   76.29    6.50
  -5   6 -10   76.19    5.40
  -5   6 -10   87.99    6.30
   5  -6  10   68.69    7.00
   6   5 -10   53.79    7.40
  -6  -5  10   53.79    5.10
   5   5 -10   54.89    4.60
   5   5 -10   45.30    5.70
  -5  -5  10   46.70    5.20
   4   5 -10   58.29    4.40
   4   5 -10   58.29    5.70
  -4  -5  10   53.19    5.10
  -4  -5  10   56.49    4.00
   3   5 -10  252.47    9.40
   3   5 -10  247.38    6.60
   3   5 -10  249.28    7.40
  -3  -5  10  239.48    6.80
  -3  -5  10  248.18    8.70
   2   5 -10  536.85   12.20
   2   5 -10  522.35   11.20
  -2  -5  10  541.85   13.10
  -2  -5  10  498.85   10.80
   1   5 -10   14.90    3.00
   1   5 -10   13.50    3.00
   0   5 -10    9.00    2.90
   0   5 -10   16.20    3.10
   0  -5  10   11.30    3.40
  -1   5 -10  800.02   16.90
  -1   5 -10  786.92   16.60
   1  -5  10  815.52   17.70
  -2   5 -10   15.50    3.10
  -2   5 -10   21.00    3.40
   2  -5  10   21.20    4.10
  -3   5 -10  137.69    6.80
   3  -5  10  174.78   11.00
  -4   5 -10  291.87    8.60
  -4   5 -10  282.07    8.90
   4  -5  10  287.47    9.90
  -5   5 -10   36.10    4.30
  -5   5 -10   26.50    4.80
   5  -5  10   18.40    5.90
   6   4 -10   41.80    6.50
  -6  -4  10   52.79    4.70
   5   4 -10   73.59    4.80
   5   4 -10   76.79    6.20
  -5  -4  10   73.49    5.40
  -5  -4  10   74.09    4.40
   4   4 -10  175.58    6.00
   4   4 -10  170.58    7.90
  -4  -4  10  176.68    7.50
  -4  -4  10  173.08    5.90
   3   4 -10  229.98    8.30
   3   4 -10  224.98    6.80
   3   4 -10  225.18    6.30
  -3  -4  10  224.68    6.50
  -3  -4  10  232.98    7.70
   2   4 -10  274.87    7.60
   2   4 -10  274.97    7.10
  -2  -4  10  266.67    6.70
  -2  -4  10  280.57    8.40
   1   4 -10  187.98    6.10
   1   4 -10  191.58    5.00
   1   4 -10  191.98    5.80
  -1  -4  10  180.48    4.60
  -1  -4  10  184.88    6.70
   0   4 -10   17.90    2.80
   0   4 -10   17.30    3.00
   0  -4  10   12.10    3.20
  -1   4 -10  111.59    4.80
  -1   4 -10  111.39    4.80
   1  -4  10  111.29    5.40
  -2   4 -10  271.47    7.80
  -2   4 -10  277.57    7.90
   2  -4  10  283.47    8.70
  -3   4 -10   68.99    4.30
  -3   4 -10   78.69    4.60
   3  -4  10   75.89    5.00
  -4   4 -10   88.99    4.60
  -4   4 -10   83.79    5.10
   4  -4  10   80.69    6.30
  -5   4 -10  222.48    8.20
  -5   4 -10  235.68    8.10
   5  -4  10  226.08    9.10
  -6   4 -10    5.30    2.10
   6  -4  10    7.10    3.00
   6   3 -10  118.39    7.10
  -6  -3  10  113.99    5.90
   5   3 -10   72.69    6.00
   5   3 -10   62.29    4.30
  -5  -3  10   66.59    4.40
   4   3 -10   47.10    3.70
   4   3 -10   52.19    3.40
   4   3 -10   48.20    4.90
  -4  -3  10   44.30    4.30
  -4  -3  10   43.60    3.50
   3   3 -10  630.84   13.00
   3   3 -10  653.53   13.60
   3   3 -10  634.74   15.00
  -3  -3  10  652.23   13.50
  -3  -3  10  656.23   14.70
   2   3 -10  414.36    9.80
   2   3 -10  416.56    9.40
  -2  -3  10  427.46   10.60
  -2  -3  10  413.26    9.10
   1   3 -10   50.79    3.50
   1   3 -10   52.79    2.80
   1   3 -10   56.29    3.30
  -1  -3  10   47.40    2.40
  -1  -3  10   50.69    3.90
   0   3 -10   47.30    3.40
   0   3 -10   45.20    3.30
   0  -3  10   35.80    3.50
  -1   3 -10  196.28    6.10
  -1   3 -10  194.28    6.10
   1  -3  10  191.98    6.60
  -2   3 -10  478.75   11.20
  -2   3 -10  480.55   11.20
   2  -3  10  483.95   11.70
  -3   3 -10  227.28    7.10
  -3   3 -10  219.68    6.80
   3  -3  10  223.38    7.60
  -4   3 -10   13.70    3.40
   4  -3  10   12.10    3.80
  -5   3 -10   44.90    3.50
  -5   3 -10   43.60    4.30
   5  -3  10   45.70    5.50
  -6   3 -10  319.87    9.60
  -6   3 -10  287.97    9.70
   6  -3  10  310.07   11.10
  -7  -2  10   68.59    5.80
   6   2 -10   -2.10    2.10
  -6  -2  10    0.30    1.60
   5   2 -10  126.59    6.30
   5   2 -10  117.99    4.80
  -5  -2  10  115.99    5.30
   4   2 -10    2.40    1.20
   4   2 -10    3.40    1.90
   4   2 -10    2.60    1.20
  -4  -2  10    3.30    1.60
  -4  -2  10    2.40    1.40
   3   2 -10  374.76    8.70
   3   2 -10  373.06    8.80
   3   2 -10  363.16    9.90
  -3  -2  10  377.66    8.90
  -3  -2  10  377.66    9.70
   2   2 -10 1045.90   20.10
   2   2 -10 1046.00   19.80
   2   2 -10 1053.59   19.70
  -2  -2  10 1053.19   20.70
  -2  -2  10 1045.20   19.60
   1   2 -10   71.69    3.10
   1   2 -10   68.79    3.50
   1   2 -10   59.79    3.70
  -1  -2  10   67.49    3.80
  -1  -2  10   70.89    2.80
   0   2 -10  246.58    5.40
   0   2 -10  229.28    6.50
   0   2 -10  237.28    6.70
   0  -2  10  238.58    6.90
  -1   2 -10   47.10    3.30
  -1   2 -10   41.60    3.30
   1  -2  10   44.00    3.60
  -2   2 -10  479.75   11.00
  -2   2 -10  474.25   10.90
   2  -2  10  463.95   11.20
  -3   2 -10   65.49    4.00
  -3   2 -10   70.49    4.10
   3  -2  10   59.29    4.40
  -4   2 -10  109.29    5.10
  -4   2 -10  107.79    4.80
   4  -2  10  112.39    5.70
  -5   2 -10   10.10    2.90
  -5   2 -10    4.80    1.50
   5  -2  10    2.30    3.50
  -6   2 -10   64.39    4.10
  -6   2 -10   59.99    5.10
   6  -2  10   71.19    6.70
   7   1 -10  151.68    8.50
  -7  -1  10  160.08    7.40
   6   1 -10   85.99    6.10
  -6  -1  10   94.29    5.50
   5   1 -10   26.40    3.30
   5   1 -10   23.20    4.30
   5   1 -10   24.30    3.30
  -5  -1  10   22.80    2.60
  -5  -1  10   28.10    3.50
   4   1 -10  275.77    8.40
   4   1 -10  277.07    7.20
   4   1 -10  270.27    7.00
  -4  -1  10  282.97    8.00
  -4  -1  10  275.47    7.00
  -4  -1  10  282.27    7.80
   3   1 -10    6.90    2.50
   3   1 -10    4.90    1.60
   3   1 -10    2.50    1.30
   3   1 -10    3.10    1.10
  -3  -1  10    4.40    1.40
  -3  -1  10    3.10    1.20
  -3  -1  10    2.70    0.90
   2   1 -10    0.10    1.00
   2   1 -10    2.60    1.20
   2   1 -10    2.50    1.10
  -2  -1  10    1.80    1.20
  -2  -1  10    2.70    1.00
  -2  -1  10    5.50    2.10
   1   1 -10  920.61   18.20
   1   1 -10  927.91   18.10
   1   1 -10  944.41   17.50
  -1  -1  10  969.20   17.40
  -1  -1  10  924.51   18.30
   0   1 -10  180.88    5.60
   0   1 -10  187.58    4.70
   0   1 -10  184.08    5.60
   0  -1  10  179.88    5.60
  -1   1 -10  151.68    5.10
  -1   1 -10  151.68    5.10
   1  -1  10  147.49    5.20
  -2   1 -10 1135.49   21.70
  -2   1 -10 1137.49   21.60
   2  -1  10 1102.79   21.70
  -3   1 -10  295.57    7.90
  -3   1 -10  288.67    8.00
   3  -1  10  288.57    8.20
  -4   1 -10    0.10    1.10
  -4   1 -10    2.90    1.30
   4  -1  10    2.50    1.60
  -5   1 -10   47.70    3.70
  -5   1 -10   41.20    3.90
   5  -1  10   49.20    4.80
  -6   1 -10    0.80    1.30
  -6   1 -10    0.90    1.50
   6  -1  10    1.20    1.90
  -7   1 -10  138.99    6.60
   7  -1  10  136.19    8.40
   7   0 -10   84.89    7.10
   7   0 -10   82.89    6.60
  -7   0  10   87.29    6.00
   6   0 -10  284.27    9.30
  -6   0  10  290.77    9.00
   5   0 -10  234.58    6.30
   5   0 -10  233.08    8.00
   5   0 -10  238.88    6.90
   5   0 -10  244.68    7.80
  -5   0  10  238.98    7.60
  -5   0  10  226.28    6.30
   4   0 -10   16.80    2.80
   4   0 -10   18.00    3.10
   4   0 -10   21.60    3.50
   4   0 -10   13.70    2.90
  -4   0  10   20.10    3.20
  -4   0  10   20.20    2.40
   3   0 -10  435.96    9.90
   3   0 -10  429.06   10.10
   3   0 -10  418.96    9.50
   3   0 -10  431.86   10.40
  -3   0  10  424.86    9.90
  -3   0  10  438.36    9.70
  -3   0  10  428.06   10.00
   2   0 -10  171.48    5.40
   2   0 -10  179.88    5.90
   2   0 -10  177.78    5.40
   2   0 -10  172.68    5.40
  -2   0  10  182.78    5.40
  -2   0  10  169.88    5.40
  -2   0  10  182.18    5.30
   1   0 -10  308.87    7.80
   1   0 -10  318.27    7.40
   1   0 -10  311.67    7.80
  -1   0  10  322.57    7.70
  -1   0  10  316.97    7.80
   0   0 -10  161.58    5.20
   0   0 -10  165.58    4.70
   0   0 -10  165.48    5.30
   0   0  10  167.38    5.10
  -1   0 -10   78.99    3.80
  -1   0 -10   84.19    3.20
  -1   0 -10   80.39    3.80
   1   0  10   79.19    3.70
  -2   0 -10   92.49    4.10
  -2   0 -10   89.29    4.10
   2   0  10   95.39    4.10
  -3   0 -10  946.81   18.70
  -3   0 -10  952.60   19.00
   3   0  10  958.10   19.00
  -4   0 -10  240.98    7.10
  -4   0 -10  241.78    7.30
   4   0  10  241.78    7.70
  -5   0 -10   64.99    4.40
  -5   0 -10   66.99    4.00
   5   0  10   66.89    5.00
  -6   0 -10   28.60    3.60
  -6   0 -10   29.20    4.00
   6   0  10   37.30    4.90
  -7   0 -10   89.79    5.70
   7   0  10   89.69    7.00
   7  -1 -10   37.80    6.40
   7  -1 -10   45.50    6.20
  -7   1  10   42.80    5.50
   6  -1 -10   25.60    4.80
   6  -1 -10   23.80    4.90
  -6   1  10   32.10    3.20
  -6   1  10   24.20    4.10
   5  -1 -10   41.50    4.00
   5  -1 -10   45.90    4.60
   5  -1 -10   40.90    4.20
  -5   1  10   39.10    4.00
  -5   1  10   43.00    3.20
   4  -1 -10  229.18    7.20
   4  -1 -10  229.38    7.30
   4  -1 -10  221.28    6.10
  -4   1  10  233.68    7.10
  -4   1  10  235.68    6.50
   3  -1 -10  391.96    9.70
   3  -1 -10  406.16    9.20
   3  -1 -10  402.96    9.80
  -3   1  10  413.76    9.40
  -3   1  10  411.66    9.40
  -3   1  10  418.66    9.80
   2  -1 -10 1088.29   21.00
   2  -1 -10 1107.59   21.20
   2  -1 -10 1130.09   21.30
  -2   1  10 1124.29   20.90
  -2   1  10 1125.49   21.10
  -2   1  10 1118.09   21.00
   1  -1 -10  841.82   16.20
   1  -1 -10  825.02   16.50
  -1   1  10  815.72   16.90
  -1   1  10  833.62   16.40
   0  -1 -10   37.80    2.80
   0  -1 -10   31.80    2.60
   0   1  10   32.80    2.80
  -1  -1 -10  614.44   13.00
  -1  -1 -10  614.84   12.10
   1   1  10  604.64   12.60
  -2  -1 -10   -1.30    0.90
  -2  -1 -10    1.00    1.00
   2   1  10    1.20    1.00
  -3  -1 -10  142.39    3.90
  -3  -1 -10  141.89    5.20
   3   1  10  141.79    5.20
  -4  -1 -10  924.61   18.70
  -4  -1 -10  915.81   16.70
   4   1  10  934.91   18.90
  -5  -1 -10  204.58    6.80
  -5  -1 -10  208.98    6.40
   5   1  10  201.48    7.30
  -6  -1 -10   89.39    4.60
   6   1  10   92.39    5.90
  -7  -1 -10   81.09    5.40
  -7  -1 -10   63.89    5.00
   7   1  10   61.99    6.00
   7  -2 -10  213.38    9.10
   7  -2 -10  207.08    9.20
  -7   2  10  214.58    8.50
   6  -2 -10  297.77    9.50
   6  -2 -10  287.77    9.60
  -6   2  10  285.67    7.90
  -6   2  10  281.67    9.10
   5  -2 -10   10.40    3.60
   5  -2 -10   12.60    3.90
  -5   2  10   16.00    2.70
  -5   2  10    9.70    3.20
   4  -2 -10  369.86    9.80
   4  -2 -10  367.86    8.50
   4  -2 -10  370.86    9.40
  -4   2  10  385.16    9.70
  -4   2  10  375.56    9.10
   3  -2 -10  943.41   18.90
   3  -2 -10  915.31   18.10
  -3   2  10  933.21   18.30
  -3   2  10  939.81   18.60
   2  -2 -10  607.24   13.30
   2  -2 -10  633.84   13.10
  -2   2  10  634.54   13.00
  -2   2  10  564.04   14.20
   1  -2 -10  504.25   10.90
   1  -2 -10  490.95   11.10
  -1   2  10  495.85   10.00
  -1   2  10  488.65   10.90
   0  -2 -10  358.06    9.50
   0  -2 -10  366.26    8.90
   0   2  10  376.26    8.80
   0   2  10  375.26    7.90
  -1  -2 -10   22.40    2.70
  -1  -2 -10   19.30    2.60
   1   2  10   23.80    2.70
   1   2  10   17.30    2.10
  -2  -2 -10  455.35    9.60
  -2  -2 -10  443.36   10.40
  -3  -2 -10  431.56   10.20
  -3  -2 -10  439.66    9.10
   3   2  10  424.46    9.80
  -4  -2 -10   41.20    3.50
  -4  -2 -10   41.20    3.00
   4   2  10   49.50    3.80
  -5  -2 -10  310.77    7.80
  -5  -2 -10  325.77    8.80
   5   2  10  327.47    9.10
  -6  -2 -10    3.70    1.40
   6   2  10    1.70    1.80
  -7  -2 -10    1.10    1.30
  -7  -2 -10    3.30    1.60
   7   2  10   -1.40    2.10
   7  -3 -10    3.50    2.40
   7  -3 -10    0.70    2.50
  -7   3  10   -0.10    1.70
  -7   3  10   -1.10    2.10
   6  -3 -10  146.69    7.10
   6  -3 -10  142.29    6.90
  -6   3  10  154.58    6.80
  -6   3  10  155.08    5.90
   5  -3 -10   26.80    3.90
   5  -3 -10   22.00    4.20
  -5   3  10   26.80    3.30
  -5   3  10   23.30    3.70
   4  -3 -10   47.20    3.90
   4  -3 -10   51.19    4.20
  -4   3  10   50.79    3.80
  -4   3  10   44.00    3.50
   3  -3 -10  385.86    8.90
   3  -3 -10  385.86    9.80
  -3   3  10  381.26    9.20
   2  -3 -10  365.16    8.10
   2  -3 -10  369.66    9.30
  -2   3  10  377.66    9.00
   1  -3 -10   86.69    3.10
   1  -3 -10   84.29    4.10
  -1   3  10   87.39    2.90
  -1   3  10   82.09    3.80
   0  -3 -10  336.17    8.30
   0  -3 -10  337.37    8.50
   0   3  10  327.47    8.20
   0   3  10  333.87    7.00
  -1  -3 -10  921.01   18.30
  -1  -3 -10  923.21   18.40
   1   3  10  944.41   17.00
   1   3  10  937.71   18.40
  -2  -3 -10   44.50    3.20
   2   3  10   43.60    3.30
   2   3  10   36.00    2.50
  -3  -3 -10  316.67    7.90
  -3  -3 -10  316.17    8.30
   3   3  10  323.77    7.70
  -4  -3 -10  262.57    6.80
  -4  -3 -10  269.77    7.60
   4   3  10  259.87    7.20
  -5  -3 -10    2.50    1.40
  -5  -3 -10    2.80    1.30
   5   3  10    2.40    1.50
  -6  -3 -10  132.99    5.60
   6   3  10  136.49    6.30
  -7  -3 -10    0.40    1.60
   7   3  10   -3.10    2.20
   7  -4 -10  227.08    9.50
   7  -4 -10  211.48    9.40
  -7   4  10  221.28    7.50
  -7   4  10  210.28    8.90
   6  -4 -10   49.60    5.50
   6  -4 -10   48.10    5.20
  -6   4  10   52.29    4.90
  -6   4  10   52.49    4.10
   5  -4 -10  125.29    5.80
  -5   4  10  130.39    5.40
   4  -4 -10  117.39    5.70
   4  -4 -10  123.49    5.10
  -4   4  10  124.09    5.00
   3  -4 -10   11.40    2.60
   3  -4 -10    8.90    3.30
   2  -4 -10  898.61   16.60
   2  -4 -10  913.21   18.50
  -2   4  10  889.91   17.90
   1  -4 -10   31.60    2.00
   1  -4 -10   28.20    3.10
  -1   4  10   27.40    2.80
   0  -4 -10    4.30    1.40
   0  -4 -10    4.30    1.50
   0   4  10    4.30    1.20
   0   4  10    6.60    1.30
  -1  -4 -10  155.68    5.60
  -1  -4 -10  157.18    5.40
   1   4  10  168.38    4.00
   1   4  10  158.08    5.40
  -2  -4 -10  586.24   12.70
  -2  -4 -10  594.24   12.70
   2   4  10  556.94   11.10
   2   4  10  591.14   12.80
  -3  -4 -10   66.59    3.90
  -3  -4 -10   72.59    3.90
   3   4  10   68.59    3.20
  -4  -4 -10   19.20    3.20
  -4  -4 -10   19.50    3.00
   4   4  10   23.70    3.00
  -5  -4 -10  102.59    4.90
  -5  -4 -10  110.39    4.90
   5   4  10  107.89    5.00
  -6  -4 -10   24.90    3.50
  -6  -4 -10   27.80    4.10
   6   4  10   23.00    4.30
  -7  -4 -10   82.29    5.30
   7   4  10   73.39    5.90
   6  -5 -10  253.27    9.40
   6  -5 -10  245.88    8.90
  -6   5  10  249.38    8.10
   5  -5 -10    5.00    2.10
   5  -5 -10   11.50    4.20
  -5   5  10    5.20    1.50
   4  -5 -10   24.80    4.10
   4  -5 -10   26.20    3.50
  -4   5  10   18.70    3.30
   3  -5 -10    7.50    2.60
   3  -5 -10   12.90    3.60
  -3   5  10    9.20    2.60
   2  -5 -10    8.00    2.10
   2  -5 -10   13.80    3.30
  -2   5  10    8.30    2.70
   1  -5 -10  372.56    9.70
  -1   5  10  353.66    9.00
   0  -5 -10  175.78    6.20
   0   5  10  175.78    5.80
  -1  -5 -10   83.29    4.50
  -1  -5 -10   79.39    4.10
   1   5  10   83.49    4.00
  -2  -5 -10  431.86   10.50
  -2  -5 -10  440.76   10.30
   2   5  10  402.56    8.20
   2   5  10  442.06   10.30
  -3  -5 -10  344.97    8.80
  -3  -5 -10  346.17    8.80
   3   5  10  342.97    8.80
   3   5  10  324.17    7.60
  -4  -5 -10    0.00    1.10
  -4  -5 -10    1.70    1.50
   4   5  10    0.40    1.20
  -5  -5 -10  291.47    8.20
  -5  -5 -10  281.17    8.00
   5   5  10  274.07    7.80
  -6  -5 -10   85.59    5.30
  -6  -5 -10   77.79    4.70
   6   5  10   74.99    5.00
  -7  -5 -10    3.00    2.10
   7   5  10    6.00    2.20
   6  -6 -10  145.09    7.90
  -6   6  10  125.19    6.30
   5  -6 -10  194.68    8.30
  -5   6  10  195.48    8.50
   4  -6 -10   42.90    4.50
  -4   6  10   45.40    4.00
   3  -6 -10  524.15   13.00
  -3   6  10  506.55   12.10
   2  -6 -10  971.40   20.40
  -2   6  10  982.70   19.60
   1  -6 -10   14.60    3.50
  -1   6  10   10.90    2.80
   0  -6 -10   25.50    3.90
   0   6  10   17.10    2.90
  -1  -6 -10  109.29    5.30
   1   6  10   88.39    4.40
  -2  -6 -10   24.80    3.80
  -2  -6 -10   21.00    3.10
   2   6  10   23.20    3.10
  -3  -6 -10  673.23   15.00
  -3  -6 -10  687.13   14.70
   3   6  10  704.63   14.80
  -4  -6 -10  166.08    6.00
  -4  -6 -10  166.38    6.30
   4   6  10  161.58    6.90
  -5  -6 -10    1.40    1.70
  -5  -6 -10    1.10    1.20
  -6  -6 -10   60.89    5.20
  -6  -6 -10   74.59    4.50
   6  -7 -10    0.20    2.70
  -6   7  10    1.30    1.80
   5  -7 -10   28.30    5.80
  -5   7  10   27.30    4.30
   4  -7 -10   88.79    5.90
   3  -7 -10   10.40    4.00
  -3   7  10   15.00    3.40
   2  -7 -10  357.56   10.30
  -2   7  10  355.86    9.40
   1  -7 -10  933.11   20.00
  -1   7  10  948.51   19.20
   0  -7 -10   93.39    5.50
   0   7  10   94.89    4.50
  -1  -7 -10  284.77    8.80
   1   7  10  291.97    8.10
  -2  -7 -10   11.10    3.90
  -2  -7 -10    8.90    3.00
   2   7  10    9.40    2.90
  -3  -7 -10   53.19    4.70
  -3  -7 -10   44.40    3.70
   3   7  10   47.00    3.90
  -4  -7 -10  435.96   11.40
  -4  -7 -10  424.86   10.50
  -5  -7 -10   53.29    4.90
  -5  -7 -10   55.09    4.10
  -6  -7 -10   19.70    5.00
  -6  -7 -10   16.00    3.60
   5  -8 -10  135.59    7.90
  -5   8  10  136.89    6.50
  -4   8  10   39.80    4.20
   2  -8 -10   50.39    4.90
  -2   8  10   44.90    4.00
   1  -8 -10  261.07    8.90
  -1   8  10  259.47    7.80
   0  -8 -10  535.85   13.60
   0   8  10  538.05   12.50
  -1  -8 -10   26.40    4.50
   1   8  10   27.30    3.50
  -2  -8 -10  227.48    7.20
  -2  -8 -10  229.58    8.10
   2   8  10  233.18    7.20
  -3  -8 -10  522.05   12.30
  -3  -8 -10  526.95   13.20
   3   8  10  522.95   12.30
  -4  -8 -10   21.90    4.50
  -4  -8 -10   27.50    3.60
   4   8  10   27.20    3.90
  -5  -8 -10   26.60    5.20
  -5  -8 -10   14.50    3.70
  -6  -8 -10   47.10    6.10
   5  -9 -10   79.69    7.30
  -5   9  10   88.49    5.80
   4  -9 -10   93.19    7.20
  -4   9  10   98.19    5.70
   3  -9 -10   25.10    5.20
  -3   9  10   32.30    4.30
   2  -9 -10  116.99    8.90
   1  -9 -10  161.18    7.50
  -1   9  10  152.28    6.10
   0  -9 -10   25.60    4.70
   0   9  10   36.20    3.80
  -1  -9 -10  207.58    8.20
   1   9  10  213.08    7.20
  -2  -9 -10    3.80    2.20
   2   9  10    2.90    1.40
  -3  -9 -10   33.20    4.90
  -3  -9 -10   41.90    3.80
   3   9  10   40.20    4.20
  -4  -9 -10  333.87    9.20
  -4  -9 -10  345.17   10.70
   4   9  10  333.77    9.30
  -5  -9 -10    6.70    1.60
  -5  -9 -10   13.80    5.20
   4 -10 -10   78.89    6.90
  -4  10  10   88.89    5.80
   3 -10 -10   25.20    5.90
  -3  10  10   18.60    4.70
   2 -10 -10   35.00    5.80
  -2  10  10   36.10    4.50
   1 -10 -10   88.99    6.60
  -1  10  10   86.79    5.30
   0 -10 -10   99.49    6.80
   0  10  10  100.89    5.70
  -1 -10 -10   27.40    5.40
   1  10  10   26.80    3.90
  -2 -10 -10   54.79    6.00
   2  10  10   61.09    4.70
  -3 -10 -10    6.30    1.70
  -3 -10 -10    7.30    2.40
   3  10  10   14.40    4.20
  -4 -10 -10   13.20    3.80
  -4 -10 -10    7.80    2.60
   4  10  10    8.50    2.10
  -5 -10 -10   72.09    6.90
   3 -11 -10   15.40    6.00
  -3  11  10   26.90    5.20
   2 -11 -10   33.10    6.60
  -2  11  10   39.10    5.10
   1 -11 -10  126.59    7.70
  -1  11  10  112.19    6.30
   0 -11 -10   57.89    6.40
   0  11  10   59.49    5.00
  -1 -11 -10   -0.50    2.20
   1  11  10    1.50    1.60
  -2 -11 -10   40.20    6.40
  -3 -11 -10   47.30    6.40
  -3 -11 -10   32.20    4.50
   3  11  10   44.30    5.00
  -4 -11 -10    3.00    2.60
   4  11  10    1.20    2.30
   2 -12 -10  129.79    8.50
  -2  12  10  113.19    7.20
   1 -12 -10    9.10    3.10
  -1  12  10   19.70    4.90
   0 -12 -10   21.00    6.30
   0  12  10   27.00    4.70
  -1 -12 -10  117.59    8.00
   1  12  10   98.69    6.20
  -2 -12 -10    0.50    2.60
   2  12  10    1.10    1.80
  -3 -12 -10   78.29    5.20
  -3 -12 -10   77.69    7.90
   3  12  10   78.49    6.40
   2   8 -11   18.10    5.00
  -2  -8  11   19.00    6.40
   1   8 -11  221.48    7.90
   1   8 -11  219.48    8.40
  -1  -8  11  224.48    9.50
   0   8 -11    2.70    2.00
   0   8 -11    4.10    2.00
   0  -8  11    2.40    2.40
  -1   8 -11   61.79    5.50
  -1   8 -11   42.90    5.30
   1  -8  11   46.10    6.50
   3   7 -11   70.29    7.10
   3   7 -11   75.79    5.60
  -3  -7  11   77.89    6.70
   2   7 -11   21.60    4.50
  -2  -7  11   24.30    5.30
   1   7 -11   28.30    4.50
   1   7 -11   15.70    4.50
  -1  -7  11   30.20    5.00
   0   7 -11  159.28    7.00
   0   7 -11  161.38    6.50
   0  -7  11  163.48    7.50
  -1   7 -11    0.80    1.60
  -1   7 -11   -0.10    1.50
   1  -7  11    2.20    2.00
  -2   7 -11  118.39    6.20
  -2   7 -11  120.49    6.30
   2  -7  11  113.19    7.30
  -3   7 -11  284.77    9.60
  -3   7 -11  275.67    9.50
   3  -7  11  285.37   10.90
   4   6 -11    9.00    2.90
   4   6 -11    7.00    1.90
  -4  -6  11   10.10    2.60
   3   6 -11   54.89    6.50
   3   6 -11   54.39    4.70
  -3  -6  11   63.79    5.80
   2   6 -11  259.27    7.50
   2   6 -11  251.87    8.20
  -2  -6  11  262.17    9.20
   1   6 -11  237.08    7.30
   1   6 -11  238.98    8.00
  -1  -6  11  233.08    8.50
   0   6 -11   76.09    4.70
   0   6 -11   76.09    5.10
   0  -6  11   71.79    5.50
  -1   6 -11   17.90    3.70
  -1   6 -11   23.20    4.00
   1  -6  11   27.80    4.60
  -2   6 -11    4.40    1.90
  -2   6 -11   14.70    3.90
   2  -6  11    6.70    2.30
  -3   6 -11   20.90    4.40
  -3   6 -11   17.70    4.50
   3  -6  11   12.60    2.90
  -4   6 -11  298.97   10.10
  -4   6 -11  293.77    9.70
   4  -6  11  324.97   11.70
   5   5 -11    9.40    2.80
  -5  -5  11   12.00    3.80
   4   5 -11   63.99    6.20
   4   5 -11   54.09    4.70
  -4  -5  11   60.79    4.10
  -4  -5  11   60.19    5.40
   3   5 -11   38.40    4.00
   3   5 -11   42.50    5.60
  -3  -5  11   26.30    3.10
  -3  -5  11   36.70    4.80
   2   5 -11  189.48    6.70
   2   5 -11  194.28    6.20
   1   5 -11  161.38    6.10
   1   5 -11  160.98    5.80
  -1  -5  11  154.48    6.70
   0   5 -11  240.18    8.10
   0   5 -11  233.98    7.30
   0  -5  11  243.68    8.30
  -1   5 -11    3.10    1.50
   1  -5  11    4.20    2.00
  -2   5 -11   88.99    5.00
   2  -5  11   91.89    6.20
  -3   5 -11    7.70    2.00
  -3   5 -11    5.70    1.60
   3  -5  11    7.00    2.40
  -4   5 -11   69.09    5.20
  -4   5 -11   63.39    5.50
   4  -5  11   82.69    6.60
  -5   5 -11  108.69    6.80
   5   4 -11   17.10    5.50
  -5  -4  11   12.50    3.80
  -5  -4  11    9.90    2.50
   4   4 -11   -0.30    1.40
   4   4 -11    2.30    2.10
  -4  -4  11   -0.50    1.70
   3   4 -11  174.28    5.70
   3   4 -11  171.68    7.50
   3   4 -11  179.48    6.20
  -3  -4  11  173.08    5.80
  -3  -4  11  175.58    7.10
   2   4 -11   56.69    3.90
   2   4 -11   48.50    3.90
   2   4 -11   56.59    3.70
  -2  -4  11   59.69    4.80
  -2  -4  11   48.50    3.10
   1   4 -11  255.87    7.30
   1   4 -11  262.67    7.70
  -1  -4  11  263.27    8.30
   0   4 -11  360.36    9.50
   0   4 -11  357.76    9.10
   0  -4  11  355.86    9.90
  -1   4 -11   83.99    4.50
  -1   4 -11   79.19    4.50
   1  -4  11   88.09    5.20
  -2   4 -11  142.09    5.80
  -2   4 -11  155.38    5.90
   2  -4  11  149.88    6.60
  -3   4 -11  146.19    7.70
  -3   4 -11  150.48    6.20
  -4   4 -11   77.59    4.80
  -4   4 -11   81.09    5.50
   4  -4  11   87.29    6.30
  -5   4 -11   38.70    5.00
  -5   4 -11   42.00    4.40
   5  -4  11   30.70    6.00
   6   3 -11   17.20    5.80
  -6  -3  11   13.00    4.20
   5   3 -11  132.69    8.30
   5   3 -11  127.39    7.20
   4   3 -11   25.30    3.70
   4   3 -11   27.10    5.50
   4   3 -11   33.70    3.70
  -4  -3  11   24.50    3.30
  -4  -3  11   28.10    4.80
   3   3 -11   33.60    4.30
   3   3 -11   25.80    3.40
   3   3 -11   26.30    3.20
  -3  -3  11   18.30    3.10
  -3  -3  11   26.20    3.80
   2   3 -11  496.45   11.40
   2   3 -11  495.45   10.80
   2   3 -11  493.05   11.00
  -2  -3  11  470.45   10.50
  -2  -3  11  507.95   12.20
   1   3 -11   75.49    4.10
   1   3 -11   69.59    4.20
   1   3 -11   75.39    3.50
  -1  -3  11   67.29    3.00
  -1  -3  11   74.99    4.60
   0   3 -11    7.60    2.80
   0   3 -11    9.20    2.90
   0  -3  11    6.00    1.70
  -1   3 -11  296.77    8.30
  -1   3 -11  295.07    8.10
   1  -3  11  294.97    8.70
  -2   3 -11  255.27    7.70
  -2   3 -11  251.67    7.60
   2  -3  11  259.07    8.20
  -3   3 -11  177.68    6.50
  -3   3 -11  171.78    6.20
   3  -3  11  183.48    7.00
  -4   3 -11   66.39    4.70
   4  -3  11   58.49    5.40
  -5   3 -11  219.38    8.10
  -5   3 -11  219.48    7.30
   5  -3  11  233.58    9.10
   6   2 -11  222.68    9.20
  -6  -2  11  218.68    8.10
   5   2 -11   16.20    4.70
  -5  -2  11   23.40    4.50
   4   2 -11   91.89    4.50
   4   2 -11   98.09    4.70
   4   2 -11   97.29    5.80
  -4  -2  11  104.19    5.40
  -4  -2  11   99.89    4.70
   3   2 -11  275.47    8.60
   3   2 -11  276.47    7.60
   3   2 -11  275.87    7.40
   3   2 -11  272.67    7.50
  -3  -2  11  279.47    8.20
  -3  -2  11  276.67    7.40
   2   2 -11    1.80    1.20
   2   2 -11    4.00    1.30
   2   2 -11    2.80    1.30
  -2  -2  11    4.10    1.50
  -2  -2  11    4.00    1.20
   1   2 -11  950.50   18.80
   1   2 -11  942.21   18.50
   1   2 -11  954.80   17.60
  -1  -2  11  919.11   17.40
  -1  -2  11  941.01   19.00
   0   2 -11   20.30    2.90
   0   2 -11   22.50    2.40
   0   2 -11   13.70    3.00
   0  -2  11   20.30    3.00
  -1   2 -11    5.00    1.40
  -1   2 -11    5.60    1.40
  -2   2 -11  691.93   14.90
  -2   2 -11  700.33   15.00
   2  -2  11  695.73   15.30
  -3   2 -11    8.30    3.10
   3  -2  11    9.90    3.50
  -4   2 -11   16.30    3.70
  -4   2 -11   10.10    3.10
   4  -2  11   21.30    3.80
  -5   2 -11  148.49    6.40
   5  -2  11  152.98    7.40
  -6   2 -11   65.49    4.60
  -6   2 -11   67.49    5.70
   6  -2  11   63.39    7.00
   6   1 -11  194.68    8.90
   6   1 -11  208.18    8.10
  -6  -1  11  200.08    7.70
   5   1 -11  242.18    7.50
   5   1 -11  226.08    7.90
   5   1 -11  229.38    8.40
  -5  -1  11  234.68    7.80
   4   1 -11   82.09    4.20
   4   1 -11   77.39    4.10
   4   1 -11   82.09    4.80
   4   1 -11   77.89    5.00
  -4  -1  11   81.79    4.60
  -4  -1  11   86.59    4.50
  -4  -1  11   82.49    3.90
   3   1 -11  132.29    5.20
   3   1 -11  126.49    5.60
   3   1 -11  126.29    4.90
   3   1 -11  130.39    4.90
  -3  -1  11  130.39    4.70
  -3  -1  11  129.69    5.30
  -3  -1  11  126.39    4.80
   2   1 -11  278.97    7.40
   2   1 -11  286.77    7.80
   2   1 -11  292.37    7.70
  -2  -1  11  302.37    8.00
  -2  -1  11  288.37    7.20
   1   1 -11    1.00    1.20
   1   1 -11    4.90    1.60
   1   1 -11   -1.60    1.10
  -1  -1  11    2.70    1.20
   0   1 -11  389.06    9.50
   0   1 -11  390.06    9.50
   0   1 -11  399.06    8.40
   0  -1  11  387.56    9.40
  -1   1 -11  121.39    4.90
  -1   1 -11  122.19    4.90
   1  -1  11  120.09    5.00
  -2   1 -11   17.00    3.00
  -2   1 -11   11.50    2.90
   2  -1  11   17.90    3.20
  -3   1 -11  465.55   11.10
  -3   1 -11  468.85   11.40
   3  -1  11  474.65   11.60
  -4   1 -11  101.09    4.90
  -4   1 -11  107.79    5.20
   4  -1  11  115.39    5.60
  -5   1 -11   19.50    3.80
  -5   1 -11   15.40    3.50
  -6   1 -11  280.97    9.10
  -6   1 -11  289.27    8.50
   6  -1  11  277.67   10.20
   6   0 -11    4.10    2.50
   6   0 -11    0.40    2.10
  -6   0  11    0.60    1.90
   5   0 -11   90.69    4.90
   5   0 -11   86.09    5.40
   5   0 -11   93.29    5.70
  -5   0  11   88.89    4.10
  -5   0  11   85.19    5.10
   4   0 -11  109.29    5.10
   4   0 -11  105.69    5.40
   4   0 -11  101.19    4.40
   4   0 -11  101.79    4.70
  -4   0  11  101.49    4.70
  -4   0  11  100.39    4.30
   3   0 -11    8.70    3.00
   3   0 -11    7.70    2.70
   3   0 -11    4.20    1.20
   3   0 -11    4.00    1.50
  -3   0  11    2.20    1.10
  -3   0  11    2.10    1.20
  -3   0  11    4.40    1.30
   2   0 -11 1333.57   25.30
   2   0 -11 1377.16   25.80
   2   0 -11 1319.27   25.10
   2   0 -11 1340.57   25.10
  -2   0  11 1344.77   25.30
  -2   0  11 1375.26   25.30
  -2   0  11 1369.26   25.00
   1   0 -11 1643.64   30.40
   1   0 -11 1661.83   30.60
   1   0 -11 1679.03   29.90
  -1   0  11 1666.83   30.30
  -1   0  11 1678.33   30.50
   0   0 -11   74.99    3.50
   0   0 -11   67.59    3.90
   0   0 -11   74.59    3.90
   0   0  11   70.19    3.60
  -1   0 -11   27.20    3.10
  -1   0 -11   40.40    3.20
  -1   0 -11   34.80    2.70
   1   0  11   36.30    3.10
  -2   0 -11  199.78    6.40
  -2   0 -11  201.78    6.30
   2   0  11  201.18    6.20
  -3   0 -11   19.80    3.20
  -3   0 -11   15.90    3.10
   3   0  11   14.70    3.30
  -4   0 -11  251.67    7.80
  -4   0 -11  245.68    7.40
   4   0  11  244.88    7.90
  -5   0 -11    4.60    1.50
  -5   0 -11    3.60    1.60
   5   0  11    4.50    1.90
  -6   0 -11    0.00    1.60
   6   0  11    1.50    2.20
   6  -1 -11  128.39    7.00
  -6   1  11  126.89    6.50
   5  -1 -11   85.09    5.60
   5  -1 -11   82.29    6.20
  -5   1  11   82.49    4.20
  -5   1  11   79.89    6.10
   4  -1 -11   22.80    3.10
   4  -1 -11   27.60    3.90
   4  -1 -11   33.90    3.90
   4  -1 -11   23.90    3.40
  -4   1  11   28.60    2.90
  -4   1  11   28.70    3.50
   3  -1 -11   10.20    2.90
   3  -1 -11   11.60    3.10
   3  -1 -11   10.80    2.70
   3  -1 -11    6.60    1.50
  -3   1  11    5.60    1.20
  -3   1  11    8.50    2.70
  -3   1  11    6.40    1.40
   2  -1 -11  209.88    6.30
   2  -1 -11  207.68    6.50
   2  -1 -11  211.88    6.40
   2  -1 -11  211.88    6.40
  -2   1  11  210.38    6.10
  -2   1  11  218.18    6.40
   1  -1 -11  260.57    7.30
   1  -1 -11  262.27    7.00
  -1   1  11  257.47    6.70
  -1   1  11  257.17    7.20
   0  -1 -11  861.31   16.40
   0  -1 -11  824.12   17.10
   0   1  11  848.62   17.00
   0   1  11  838.82   16.30
  -1  -1 -11   38.00    3.20
  -1  -1 -11   39.60    3.10
   1   1  11   35.40    2.80
  -2  -1 -11   11.60    2.80
  -2  -1 -11   15.20    2.40
   2   1  11   11.60    2.60
  -3  -1 -11  516.35   10.40
  -3  -1 -11  484.95   11.50
   3   1  11  478.25   11.30
  -4  -1 -11   35.80    3.70
   4   1  11   30.70    3.80
  -5  -1 -11  134.49    9.10
  -5  -1 -11  145.99    5.70
   5   1  11  144.19    6.30
  -6  -1 -11   12.00    3.90
  -6  -1 -11   18.20    3.90
   6   1  11   16.40    4.70
   6  -2 -11  140.49    7.30
   6  -2 -11  155.08    7.50
  -6   2  11  143.49    6.90
  -6   2  11  141.19    5.60
   5  -2 -11  157.68    6.80
  -5   2  11  168.18    5.90
   4  -2 -11  185.18    6.90
   4  -2 -11  180.68    6.50
   4  -2 -11  183.38    5.70
  -4   2  11  185.98    6.60
  -4   2  11  187.48    6.00
   3  -2 -11  260.27    7.60
   3  -2 -11  250.37    7.20
  -3   2  11  255.17    7.20
  -3   2  11  253.77    7.40
   2  -2 -11  307.17    7.70
   2  -2 -11  308.07    8.20
   2  -2 -11  309.27    8.40
  -2   2  11  307.67    7.30
  -2   2  11  308.27    8.00
   1  -2 -11   13.80    3.00
   1  -2 -11   17.60    3.00
  -1   2  11   18.00    2.80
   0  -2 -11  348.27    8.90
   0  -2 -11  349.07    8.50
   0   2  11  352.96    8.80
   0   2  11  354.16    8.00
  -1  -2 -11    5.30    1.40
   1   2  11    6.20    1.40
  -2  -2 -11   49.00    3.60
  -2  -2 -11   43.50    3.30
   2   2  11   49.10    3.10
  -3  -2 -11  707.83   13.70
  -3  -2 -11  714.93   15.20
   3   2  11  709.83   14.70
  -4  -2 -11  437.76   10.90
  -4  -2 -11  452.25   10.50
   4   2  11  432.26   10.60
  -5  -2 -11    1.20    1.50
   5   2  11    0.00    1.50
  -6  -2 -11    5.60    1.70
  -6  -2 -11    4.20    1.40
   6   2  11   16.60    4.90
   6  -3 -11   40.70    5.80
   6  -3 -11   34.20    5.60
  -6   3  11   43.70    3.90
  -6   3  11   30.80    5.00
   5  -3 -11  332.57   10.20
   5  -3 -11  315.27    9.30
  -5   3  11  326.17    9.70
  -5   3  11  317.87    8.70
   4  -3 -11  192.38    6.50
   4  -3 -11  203.98    7.20
  -4   3  11  195.78    7.00
  -4   3  11  200.48    6.50
   2  -3 -11  357.66    8.20
   2  -3 -11  353.16    9.30
  -2   3  11  363.66    9.10
   1  -3 -11  110.09    4.90
   1  -3 -11  111.09    4.80
   1  -3 -11  112.29    3.80
  -1   3  11  112.29    3.60
  -1   3  11  110.99    4.60
   0  -3 -11   77.79    4.30
   0  -3 -11   78.99    4.20
   0   3  11   74.09    2.90
   0   3  11   78.09    4.10
  -1  -3 -11  440.46   10.60
  -1  -3 -11  440.66   10.20
   1   3  11  451.05   10.60
   1   3  11  436.46    9.10
  -2  -3 -11   40.90    3.40
  -2  -3 -11   39.80    3.50
   2   3  11   34.40    2.80
  -3  -3 -11   40.70    3.40
  -3  -3 -11   38.20    3.50
   3   3  11   40.70    3.10
  -4  -3 -11  348.67    8.40
  -4  -3 -11  359.76    9.50
   4   3  11  351.06    9.00
  -5  -3 -11  419.46   10.80
   5   3  11  421.76   10.70
  -6  -3 -11   13.80    3.70
   6   3  11   11.10    4.20
   6  -4 -11  164.98    7.60
   6  -4 -11  164.38    7.80
  -6   4  11  154.48    6.50
  -6   4  11  159.88    7.70
   5  -4 -11   23.70    4.70
   5  -4 -11   24.20    4.70
  -5   4  11   26.80    4.30
  -5   4  11   17.00    3.40
   4  -4 -11   17.50    3.80
   4  -4 -11   20.90    3.90
  -4   4  11   18.30    3.20
   3  -4 -11  547.75   13.20
  -3   4  11  537.05   12.30
   2  -4 -11   17.90    2.50
   2  -4 -11   18.20    3.50
  -2   4  11   15.30    2.90
   1  -4 -11 1198.38   23.30
   1  -4 -11 1169.28   21.10
  -1   4  11 1211.38   23.10
   0  -4 -11  681.93   14.50
   0  -4 -11  671.03   14.60
   0   4  11  664.03   12.30
   0   4  11  663.23   14.30
  -1  -4 -11  187.08    6.30
  -1  -4 -11  173.68    6.20
   1   4  11  169.48    4.40
   1   4  11  186.18    6.10
  -2  -4 -11  246.08    7.30
  -2  -4 -11  247.08    7.30
   2   4  11  251.87    7.30
   2   4  11  235.58    5.80
  -3  -4 -11   70.79    4.20
  -3  -4 -11   68.59    4.10
   3   4  11   60.59    3.30
  -4  -4 -11   -0.50    1.30
  -4  -4 -11    1.30    1.20
   4   4  11    0.20    1.30
  -5  -4 -11  148.19    6.20
  -5  -4 -11  158.88    6.00
   5   4  11  163.58    6.10
  -6  -4 -11  132.39    6.10
   6   4  11  133.59    6.10
   6  -5 -11  174.78    8.60
  -6   5  11  166.98    6.80
   5  -5 -11  450.75   12.70
   4  -5 -11   22.00    4.50
  -4   5  11   13.30    3.40
   3  -5 -11   35.10    4.30
  -3   5  11   31.60    3.50
   2  -5 -11  551.64   13.30
  -2   5  11  560.44   12.60
   1  -5 -11    9.20    3.50
  -1   5  11    5.80    1.40
   0  -5 -11  182.58    6.70
   0   5  11  185.18    6.20
  -1  -5 -11  302.17    8.50
  -1  -5 -11  301.17    8.50
   1   5  11  305.07    8.30
  -2  -5 -11   24.20    3.90
  -2  -5 -11   23.30    3.30
   2   5  11   28.80    3.40
  -3  -5 -11   56.69    4.00
  -3  -5 -11   52.89    4.20
   3   5  11   58.29    3.10
  -4  -5 -11  283.07    8.30
  -4  -5 -11  280.67    8.00
   4   5  11  268.37    7.20
  -5  -5 -11    2.10    1.70
  -5  -5 -11    0.80    1.30
   5   5  11    9.50    3.40
  -6  -5 -11  147.19    6.70
  -6  -5 -11  138.99    8.90
   6   5  11  168.38    8.60
   6  -6 -11   68.79    7.30
  -6   6  11   69.09    5.40
   5  -6 -11   -0.80    2.20
  -5   6  11    2.00    1.60
   4  -6 -11   81.69    6.00
   3  -6 -11   76.29    5.20
  -3   6  11   74.19    4.50
   2  -6 -11  252.17    8.40
  -2   6  11  250.17    7.70
   1  -6 -11  625.94   14.60
  -1   6  11  607.24   13.70
   0  -6 -11   23.00    4.10
   0   6  11   21.30    3.30
  -1  -6 -11   31.00    4.10
  -1  -6 -11   33.40    3.60
   1   6  11   32.40    3.50
  -2  -6 -11  481.45   11.70
  -2  -6 -11  495.15   12.10
   2   6  11  486.45   11.60
  -3  -6 -11   12.20    3.80
   3   6  11   11.90    3.30
  -4  -6 -11  159.58    6.20
  -4  -6 -11  166.68    6.60
  -5  -6 -11  135.39    6.30
  -5  -6 -11  138.69    5.80
  -6  -6 -11   31.90    5.10
   5  -7 -11  108.49    7.50
  -5   7  11   97.59    5.90
   4  -7 -11   63.59    5.90
  -4   7  11   60.49    4.80
  -3   7  11    7.50    2.60
   2  -7 -11   95.49    5.90
  -2   7  11   98.29    5.10
   1  -7 -11  138.19    6.50
  -1   7  11  129.99    5.50
   0  -7 -11  306.37    9.50
   0   7  11  304.77    8.60
  -1  -7 -11    0.20    1.80
   1   7  11    0.00    1.40
  -2  -7 -11    1.70    1.40
  -2  -7 -11    1.70    1.80
   2   7  11    3.40    1.40
  -3  -7 -11  366.76    9.90
  -3  -7 -11  360.86   10.30
   3   7  11  373.36    9.90
  -4  -7 -11   34.20    3.90
  -4  -7 -11   45.90    4.90
  -5  -7 -11   22.00    4.80
  -5  -7 -11   28.10    3.80
  -6  -7 -11   28.80    5.70
   5  -8 -11  153.68    8.70
  -5   8  11  149.59    7.20
   4  -8 -11  133.99    7.60
  -4   8  11  143.69    6.70
   3  -8 -11   47.30    5.40
  -3   8  11   55.39    4.60
   2  -8 -11   79.49    7.60
   1  -8 -11   36.00    5.10
  -1   8  11   33.30    3.90
   0  -8 -11   14.10    4.60
   0   8  11   15.70    3.60
  -1  -8 -11    7.70    2.20
   1   8  11   15.70    3.60
  -2  -8 -11    1.60    1.90
  -2  -8 -11    1.50    1.40
   2   8  11    1.30    1.40
  -3  -8 -11  206.58    7.10
  -3  -8 -11  201.18    7.80
   3   8  11  206.78    7.20
  -4  -8 -11  101.89    5.30
  -4  -8 -11  106.49    6.70
  -5  -8 -11   14.90    3.90
  -5  -8 -11   27.70    5.30
   4  -9 -11   98.79    7.30
  -4   9  11   94.19    6.10
   3  -9 -11    5.50    2.50
  -3   9  11    5.50    1.80
   2  -9 -11  118.09    7.00
  -2   9  11  115.09    5.80
   1  -9 -11  343.67   12.00
  -1   9  11  344.47   10.10
   0  -9 -11   78.69    7.00
   0   9  11   91.29    5.20
  -1  -9 -11   39.60    5.30
   1   9  11   40.60    4.00
  -2  -9 -11   38.10    6.10
  -2  -9 -11   36.80    4.10
   2   9  11   43.30    4.10
  -3  -9 -11   -0.20    2.10
  -3  -9 -11    1.30    1.50
   3   9  11    0.10    1.60
  -4  -9 -11  147.49    7.40
  -4  -9 -11  144.09    6.30
   4   9  11  140.09    6.60
  -5  -9 -11  126.89    7.40
   3 -10 -11   98.79    7.50
  -3  10  11   95.09    6.30
   2 -10 -11    0.20    2.40
   1 -10 -11   89.59    6.80
  -1  10  11   82.89    5.40
   0 -10 -11  400.06   12.50
   0  10  11  409.86   11.00
  -1 -10 -11  162.48    8.10
   1  10  11  162.98    6.90
  -2 -10 -11   98.59    7.10
  -3 -10 -11   72.39    6.60
  -4 -10 -11   25.50    6.10
  -4 -10 -11   31.70    5.20
   2 -11 -11  122.79    8.50
  -2  11  11  112.99    6.80
   1 -11 -11   36.10    6.30
  -1  11  11   27.20    5.00
   0 -11 -11   48.50    6.60
   0  11  11   46.50    5.10
  -1 -11 -11  130.29    8.20
   1  11  11  135.49    6.50
  -2 -11 -11   59.59    7.10
   2  11  11   69.69    5.50
  -3 -11 -11   18.50    6.00
  -3 -11 -11    6.10    1.90
   3  11  11    4.20    2.00
   1 -12 -11   37.70    7.20
  -1  12  11   47.90    5.70
   0 -12 -11   99.59    8.10
   0  12  11   89.29    6.50
  -1 -12 -11    4.20    2.80
   1  12  11    3.00    2.20
   2   7 -12  109.19    6.40
  -2  -7  12  108.89    7.60
   1   7 -12   55.79    5.60
   1   7 -12   53.79    6.10
   0   7 -12    8.20    2.20
   0  -7  12   14.90    5.70
  -1   7 -12   61.59    5.40
  -1   7 -12   75.39    5.70
   1  -7  12   55.09    6.30
   3   6 -12    0.70    1.80
   3   6 -12    4.60    2.70
  -3  -6  12    0.10    2.00
   2   6 -12   26.70    4.70
   2   6 -12   25.90    4.60
  -2  -6  12   33.20    5.60
   1   6 -12  341.87    9.40
   1   6 -12  357.56   10.40
  -1  -6  12  344.17   10.90
   0   6 -12   67.49    5.40
   0  -6  12   69.39    5.90
  -1   6 -12   71.39    5.30
  -1   6 -12   73.99    5.50
   1  -6  12   66.79    5.90
  -2   6 -12   55.89    5.40
  -2   6 -12   73.89    5.50
   2  -6  12   61.49    6.40
  -3   6 -12  169.58    7.70
  -3   6 -12  170.58    7.60
   3  -6  12  157.88    8.90
   4   5 -12   -0.80    1.70
   4   5 -12    1.60    2.60
  -4  -5  12    0.00    2.10
   3   5 -12  177.08    6.90
   3   5 -12  162.68    8.20
  -3  -5  12  173.28    7.80
   2   5 -12    2.80    1.70
   2   5 -12    1.50    1.60
  -2  -5  12    0.70    2.00
   1   5 -12   23.20    4.00
   1   5 -12   21.00    3.90
  -1  -5  12   21.10    4.50
   0   5 -12  201.08    7.30
   0   5 -12  199.78    7.00
   0  -5  12  205.78    8.00
  -1   5 -12   48.40    4.60
  -1   5 -12   37.30    5.00
   1  -5  12   53.29    5.20
  -2   5 -12   34.10    4.30
  -2   5 -12   45.30    4.50
   2  -5  12   29.10    5.30
  -3   5 -12  130.99    6.80
  -3   5 -12  126.79    6.20
   3  -5  12  130.09    7.80
  -4   5 -12  230.48    8.40
  -4   5 -12  226.28    8.80
   4  -5  12  240.58   10.40
   5   4 -12  105.69    7.80
  -5  -4  12  100.19    6.80
  -5  -4  12  103.69    5.80
   4   4 -12  167.98    8.30
   4   4 -12  176.78    6.70
  -4  -4  12  168.98    7.60
  -4  -4  12  170.18    6.20
   3   4 -12   -0.70    1.60
   3   4 -12    2.10    1.50
   3   4 -12    1.40    2.10
   3   4 -12    0.10    1.70
  -3  -4  12    2.20    1.40
  -3  -4  12    0.00    1.70
   2   4 -12  182.88    6.30
   2   4 -12  183.98    6.70
   1   4 -12  195.18    8.10
   1   4 -12  200.08    6.70
  -1  -4  12  209.48    7.50
   0   4 -12   23.40    3.70
   0  -4  12   19.80    3.80
  -1   4 -12  146.39    6.30
  -1   4 -12  146.59    5.90
   1  -4  12  148.89    7.40
  -2   4 -12    1.10    1.30
  -2   4 -12    1.40    1.50
   2  -4  12    2.00    2.00
  -3   4 -12   74.79    5.00
  -3   4 -12   71.09    5.20
   3  -4  12   65.49    6.20
  -4   4 -12  382.46   11.10
  -4   4 -12  361.06   10.40
   4  -4  12  368.36   11.60
   5   3 -12    0.50    2.50
  -5  -3  12    2.80    1.80
   4   3 -12  114.79    6.90
   4   3 -12  112.69    5.70
   4   3 -12  124.09    5.50
  -4  -3  12  116.39    5.30
  -4  -3  12  117.09    6.00
   3   3 -12  142.59    5.60
   3   3 -12  141.89    6.90
   3   3 -12  135.09    5.70
   3   3 -12  133.29    5.80
  -3  -3  12  133.59    5.20
  -3  -3  12  134.89    7.00
   2   3 -12  129.69    5.50
   2   3 -12  119.59    5.00
   2   3 -12  132.39    5.20
  -2  -3  12  127.19    5.90
  -2  -3  12  111.89    4.40
   1   3 -12  223.48    7.10
   1   3 -12  224.58    7.00
  -1  -3  12  220.48    7.50
   0   3 -12  342.07    8.90
   0   3 -12  321.47    9.00
   0  -3  12  324.57    9.40
  -1   3 -12   -1.00    1.30
  -1   3 -12   -0.20    1.20
   1  -3  12    0.70    1.50
  -2   3 -12  127.29    7.20
   2  -3  12  138.29    6.50
  -3   3 -12    0.70    1.30
  -3   3 -12    0.80    1.50
   3  -3  12    4.20    3.30
  -4   3 -12    2.00    1.80
  -4   3 -12    0.80    1.40
   4  -3  12    2.90    2.20
  -5   3 -12  223.08    8.60
  -5   3 -12  231.08    7.90
   5  -3  12  230.58    9.50
   5   2 -12   74.59    6.50
   5   2 -12   83.49    5.70
  -5  -2  12   80.89    5.10
   4   2 -12   15.00    3.70
   4   2 -12   15.40    3.90
  -4  -2  12   11.90    3.50
   3   2 -12   33.20    3.80
   3   2 -12   32.50    3.80
   3   2 -12   33.30    3.60
   3   2 -12   30.80    4.20
  -3  -2  12   30.90    3.70
  -3  -2  12   31.70    3.30
   2   2 -12  210.68    6.80
   2   2 -12  217.28    6.60
   2   2 -12  210.48    6.40
  -2  -2  12  219.98    7.20
  -2  -2  12  202.48    6.00
   1   2 -12   27.30    3.50
   1   2 -12   28.90    3.40
  -1  -2  12   24.70    3.60
   0   2 -12  352.56    9.30
   0   2 -12  357.76    9.20
   0  -2  12  349.67    9.50
  -1   2 -12  581.64   13.20
  -1   2 -12  566.94   13.20
   1  -2  12  583.34   13.50
  -2   2 -12    5.40    1.40
  -2   2 -12   11.70    3.40
   2  -2  12    9.60    3.70
  -3   2 -12  182.98    7.10
   3  -2  12  190.28    7.20
  -4   2 -12   43.10    4.10
  -4   2 -12   45.20    4.50
   4  -2  12   44.20    4.90
  -5   2 -12    1.60    1.70
  -5   2 -12   -0.20    1.60
   5  -2  12   -1.90    2.00
   6   1 -12   -0.40    2.30
   6   1 -12   -4.30    2.40
  -6  -1  12   -1.10    2.00
   5   1 -12  193.58    8.40
   5   1 -12  202.28    7.80
  -5  -1  12  212.48    7.50
   4   1 -12  134.79    6.00
   4   1 -12  131.69    5.30
   4   1 -12  123.99    5.50
   4   1 -12  122.99    6.30
  -4  -1  12  144.79    5.90
  -4  -1  12  134.49    5.50
  -4  -1  12  125.99    5.00
   3   1 -12    2.70    1.50
   3   1 -12    2.30    1.30
   3   1 -12    1.70    1.80
   3   1 -12    0.10    1.30
  -3  -1  12    1.60    1.40
  -3  -1  12   -0.10    1.30
   2   1 -12   49.99    3.90
   2   1 -12   51.99    3.70
   2   1 -12   49.50    3.80
  -2  -1  12   50.19    3.80
  -2  -1  12   46.20    3.30
   1   1 -12  186.58    6.30
   1   1 -12  184.08    5.80
   1   1 -12  184.08    6.20
  -1  -1  12  188.68    6.30
   0   1 -12   40.90    3.60
   0   1 -12   40.40    3.60
   0   1 -12   42.00    3.20
   0  -1  12   41.30    3.60
  -1   1 -12  268.97    7.90
  -1   1 -12  261.97    7.80
   1  -1  12  277.97    7.90
  -2   1 -12  112.59    5.30
  -2   1 -12  114.09    5.10
   2  -1  12  114.59    5.40
  -3   1 -12    0.50    1.30
  -3   1 -12   -1.10    1.30
  -4   1 -12   63.99    4.70
  -4   1 -12   65.59    7.20
   4  -1  12   65.99    4.90
  -5   1 -12  123.59    6.10
  -5   1 -12  125.39    5.90
   5  -1  12  127.69    6.70
  -6   1 -12    2.10    2.00
   6   0 -12   94.39    6.50
   6   0 -12   86.29    7.20
  -6   0  12   93.59    6.10
   5   0 -12    4.30    2.20
   5   0 -12   -0.80    1.70
   5   0 -12    0.60    1.90
  -5   0  12    2.80    1.80
  -5   0  12   -1.20    1.20
   4   0 -12   31.70    3.80
   4   0 -12   23.20    3.60
   4   0 -12   35.90    4.60
   4   0 -12   30.00    4.20
  -4   0  12   28.40    3.20
  -4   0  12   23.20    3.50
   3   0 -12   12.50    3.30
   3   0 -12   13.60    3.30
   3   0 -12   15.50    3.80
  -3   0  12   11.30    2.90
  -3   0  12   15.00    3.00
   2   0 -12   55.39    4.00
   2   0 -12   60.79    4.40
   2   0 -12   58.79    3.90
   2   0 -12   60.29    4.00
  -2   0  12   61.19    3.70
  -2   0  12   56.99    3.70
   1   0 -12  674.83   14.50
   1   0 -12  670.73   13.90
   1   0 -12  678.83   14.60
  -1   0  12  687.83   14.30
   0   0 -12  435.06    9.60
   0   0 -12  423.06   10.50
   0   0 -12  426.56   10.40
   0   0  12  434.36   10.10
  -1   0 -12   10.40    3.00
  -1   0 -12    8.90    3.40
  -1   0 -12    8.30    2.80
   1   0  12    7.80    2.70
  -2   0 -12  114.99    5.20
  -2   0 -12  109.99    4.90
   2   0  12  113.29    5.00
  -3   0 -12  398.16   10.40
  -3   0 -12  392.36   10.20
   3   0  12  397.46   10.10
  -4   0 -12  153.98    6.40
  -4   0 -12  149.79    6.50
   4   0  12  150.28    6.30
  -5   0 -12   45.80    4.50
  -5   0 -12   44.00    4.40
   5   0  12   40.50    8.20
  -6   0 -12  172.48    7.40
  -6   0 -12  166.88    7.00
   6   0  12  168.88    8.10
   6  -1 -12  108.79    7.30
   6  -1 -12  115.59    7.10
  -6   1  12  103.79    6.50
   5  -1 -12  473.45   12.30
   5  -1 -12  457.75   12.40
   5  -1 -12  451.55   11.50
  -5   1  12  455.45   11.00
  -5   1  12  467.55   12.10
   4  -1 -12   12.70    3.60
   4  -1 -12    6.30    1.50
   4  -1 -12    4.80    1.80
   4  -1 -12    8.40    2.10
  -4   1  12    9.20    3.30
   3  -1 -12  391.76   10.00
   3  -1 -12  397.66   10.00
   3  -1 -12  382.16   10.00
   3  -1 -12  379.06    9.40
  -3   1  12  387.36    9.80
  -3   1  12  394.06    9.70
  -3   1  12  394.66    9.60
   2  -1 -12  242.68    7.30
   2  -1 -12  232.68    7.10
   2  -1 -12  245.98    7.10
   2  -1 -12  247.18    7.30
  -2   1  12  250.47    6.80
  -2   1  12  252.27    7.20
   1  -1 -12   74.29    4.30
   1  -1 -12   72.69    4.20
   1  -1 -12   76.39    4.40
  -1   1  12   80.39    4.20
  -1   1  12   76.39    3.80
   0  -1 -12  542.55   12.50
   0  -1 -12  540.55   11.70
   0   1  12  546.55   11.70
  -1  -1 -12    7.90    1.60
  -1  -1 -12   12.50    3.00
  -2  -1 -12   21.90    3.30
   2   1  12   25.10    3.10
  -3  -1 -12  172.98    6.30
   3   1  12  170.48    6.10
  -4  -1 -12  381.76   10.00
   4   1  12  387.26   10.10
  -5  -1 -12   -1.60    1.50
  -5  -1 -12    0.70    1.60
   5   1  12    3.00    1.70
  -6  -1 -12   80.69    5.40
  -6  -1 -12   86.29    5.50
   6   1  12   78.49    6.30
   6  -2 -12   26.90    5.50
  -6   2  12   17.20    4.90
  -6   2  12   29.50    3.80
   5  -2 -12   81.39    5.90
   5  -2 -12   87.69    6.00
  -5   2  12   85.99    4.70
  -5   2  12   81.99    5.40
   4  -2 -12  229.68    7.60
   4  -2 -12  239.08    7.90
   4  -2 -12  233.78    6.90
  -4   2  12  227.78    7.60
  -4   2  12  231.08    7.00
   3  -2 -12    6.10    1.60
   3  -2 -12    4.90    1.70
   3  -2 -12    4.20    1.30
   3  -2 -12    5.40    1.50
  -3   2  12   12.20    2.90
   2  -2 -12   99.79    4.90
   2  -2 -12  101.39    5.00
   2  -2 -12  101.89    4.60
  -2   2  12   98.39    4.00
  -2   2  12   98.99    4.60
   1  -2 -12  835.32   17.40
   1  -2 -12  837.32   17.10
  -1   2  12  845.32   16.30
  -1   2  12  838.32   17.30
   0  -2 -12  199.78    6.60
   0  -2 -12  193.38    6.30
   0   2  12  189.08    6.40
   0   2  12  203.08    5.60
  -1  -2 -12  167.08    5.70
  -1  -2 -12  167.58    6.10
   1   2  12  172.68    5.20
  -2  -2 -12  167.48    5.50
  -2  -2 -12  166.78    6.10
   2   2  12  155.18    5.30
  -3  -2 -12   66.19    4.30
   3   2  12   54.19    3.80
  -4  -2 -12  375.86   10.80
   4   2  12  391.76   10.00
  -5  -2 -12   31.60    4.60
   5   2  12   34.00    4.40
  -6  -2 -12    7.60    1.80
  -6  -2 -12   18.60    4.30
   6   2  12    6.90    2.30
   6  -3 -12  217.38    9.10
   6  -3 -12  227.58    9.30
  -6   3  12  215.78    8.70
  -6   3  12  205.98    7.30
   5  -3 -12  101.69    6.30
   5  -3 -12  112.29    6.40
  -5   3  12  113.29    5.20
  -5   3  12   95.99    6.00
   4  -3 -12   50.69    4.70
   4  -3 -12   56.39    4.80
  -4   3  12   56.19    4.00
   3  -3 -12  178.98    6.90
   3  -3 -12  179.48    6.10
  -3   3  12  183.38    6.30
   2  -3 -12    3.80    1.60
   2  -3 -12    5.90    1.50
   2  -3 -12    4.20    1.50
  -2   3  12    4.00    1.30
   1  -3 -12  298.37    8.60
   1  -3 -12  301.57    8.40
   1  -3 -12  300.17    7.20
  -1   3  12  305.17    8.30
  -1   3  12  292.77    6.90
   0  -3 -12 1121.99   21.80
   0  -3 -12 1109.29   22.20
   0   3  12 1137.19   22.10
   0   3  12 1099.49   20.30
  -1  -3 -12   55.69    4.10
  -1  -3 -12   50.79    4.00
   1   3  12   53.49    4.00
   1   3  12   51.49    2.80
  -2  -3 -12   47.10    3.90
  -2  -3 -12   47.90    3.80
   2   3  12   48.40    3.10
  -3  -3 -12   51.49    3.90
  -3  -3 -12   46.20    4.10
   3   3  12   55.79    3.60
  -4  -3 -12   65.19    4.60
   4   3  12   51.59    4.20
  -5  -3 -12   84.99    5.30
   5   3  12   87.09    5.30
  -6  -3 -12   20.60    4.30
   6  -4 -12  127.09    7.90
  -6   4  12  127.69    6.00
   5  -4 -12  125.19    7.10
  -5   4  12  123.19    6.00
  -4   4  12  274.07    8.20
   3  -4 -12   37.80    4.50
   3  -4 -12   36.90    3.90
  -3   4  12   32.40    3.60
   2  -4 -12   36.20    3.00
   2  -4 -12   36.60    4.00
  -2   4  12   39.50    3.50
   1  -4 -12    0.30    1.30
   1  -4 -12    0.70    1.50
   1  -4 -12    0.10    1.10
  -1   4  12   -0.50    1.10
   0  -4 -12  193.38    6.80
   0  -4 -12  194.58    6.70
   0   4  12  197.78    5.50
   0   4  12  193.18    6.60
  -1  -4 -12  701.73   15.10
  -1  -4 -12  705.93   15.40
   1   4  12  705.13   15.30
   1   4  12  696.03   13.30
  -2  -4 -12    0.30    1.60
  -2  -4 -12   -0.40    1.20
   2   4  12   -1.40    1.10
   2   4  12    1.90    1.00
  -3  -4 -12   80.69    4.50
  -3  -4 -12   87.29    4.80
   3   4  12   83.69    3.80
  -4  -4 -12  223.18    7.40
  -4  -4 -12  214.48    6.80
   4   4  12  208.58    6.50
  -5  -4 -12   67.19    5.10
   5   4  12   74.79    4.70
   6   4  12   39.90    6.10
   5  -5 -12  167.58    8.60
  -5   5  12  159.88    6.80
   4  -5 -12  220.38    8.70
   3  -5 -12   34.20    4.60
  -3   5  12   32.30    3.70
   2  -5 -12   36.10    4.30
  -2   5  12   35.10    3.50
   1  -5 -12  478.35   12.00
  -1   5  12  480.65   11.60
   0  -5 -12   21.40    4.10
   0  -5 -12   10.00    3.40
   0   5  12   12.00    3.20
  -1  -5 -12   24.10    3.40
  -1  -5 -12   29.60    4.20
   1   5  12   36.80    3.60
  -2  -5 -12   56.19    4.20
  -2  -5 -12   54.69    4.70
   2   5  12   53.89    4.30
  -3  -5 -12    1.10    1.60
  -3  -5 -12   -2.00    1.20
  -4  -5 -12   77.39    4.90
  -4  -5 -12   85.39    5.10
  -5  -5 -12  334.47    9.50
  -5  -5 -12  341.67    9.70
  -6  -5 -12   31.20    5.00
   5  -6 -12    0.40    2.40
  -5   6  12   -0.40    1.70
   4  -6 -12   29.70    5.60
  -4   6  12   33.40    4.30
   2  -6 -12  122.59    6.30
  -2   6  12  127.19    5.60
   1  -6 -12  213.58    7.80
  -1   6  12  214.28    7.10
   0  -6 -12  156.88    6.80
   0   6  12  158.08    6.10
  -1  -6 -12  185.08    7.30
  -1  -6 -12  185.48    6.80
   1   6  12  183.78    6.70
  -2  -6 -12   75.39    4.60
  -2  -6 -12   70.79    5.30
   2   6  12   76.09    4.70
  -3  -6 -12   34.70    4.20
  -3  -6 -12   47.80    4.60
   3   6  12   33.30    4.20
  -4  -6 -12    5.30    1.70
  -4  -6 -12    7.60    2.10
  -5  -6 -12   53.79    5.40
  -5  -6 -12   54.89    4.80
   5  -7 -12  290.97   11.30
  -5   7  12  305.27    9.70
   4  -7 -12   54.29    6.20
  -4   7  12   48.20    4.90
   3  -7 -12   18.60    4.90
  -3   7  12   25.40    3.90
   2  -7 -12  194.38    8.00
  -2   7  12  183.28    8.40
   1  -7 -12   80.79    5.60
  -1   7  12   75.59    4.80
   0  -7 -12  458.85   12.40
   0   7  12  478.95   11.80
  -1  -7 -12  187.28    7.50
  -1  -7 -12  190.98    7.10
   1   7  12  201.68    7.00
  -2  -7 -12   85.49    5.10
  -2  -7 -12   86.89    5.90
   2   7  12   90.69    5.20
  -3  -7 -12   54.19    5.20
  -3  -7 -12   49.70    4.40
   3   7  12   49.50    4.50
  -4  -7 -12  177.28    7.40
  -5  -7 -12    6.00    1.80
   4  -8 -12  174.18    8.90
  -4   8  12  173.28    7.30
   3  -8 -12   61.09    6.30
  -3   8  12   63.79    4.90
   2  -8 -12   22.70    5.20
  -2   8  12   33.20    4.20
   1  -8 -12  305.37   14.20
  -1   8  12  312.57    9.20
   0  -8 -12  114.19    6.50
  -1  -8 -12    4.20    2.20
   1   8  12    1.60    1.70
  -2  -8 -12  247.08    8.80
  -2  -8 -12  231.58    9.30
   2   8  12  254.27    8.90
  -3  -8 -12   60.29    5.60
  -4  -8 -12   31.20    5.50
  -4  -8 -12   20.80    4.10
  -5  -8 -12   80.69    5.50
  -5  -8 -12   94.99    6.90
   4  -9 -12   -1.80    2.80
  -4   9  12    0.30    1.90
   3  -9 -12   50.19    6.40
  -3   9  12   60.19    5.10
   2  -9 -12   18.90    5.70
   1  -9 -12   -2.70    2.20
  -1   9  12    2.30    1.60
   0  -9 -12  295.27   10.30
   0   9  12  303.07    9.30
  -1  -9 -12   64.89    6.10
   1   9  12   51.79    5.00
  -2  -9 -12   -1.60    1.60
  -2  -9 -12    1.10    2.20
   2   9  12   -1.70    1.50
  -3  -9 -12  103.39    5.60
  -3  -9 -12  107.59    7.00
   3   9  12  104.19    5.90
  -4  -9 -12   88.19    6.80
  -4  -9 -12   84.39    5.60
   4   9  12   75.69    6.00
   3 -10 -12    2.10    2.80
  -3  10  12    0.90    1.90
   2 -10 -12    7.00    2.80
  -2  10  12    2.00    2.00
   1 -10 -12   36.70    6.40
  -1  10  12   37.70    5.00
   0 -10 -12   -2.00    2.50
   0  10  12    1.20    1.80
  -1 -10 -12  128.69    7.90
   1  10  12  146.89    6.70
  -2 -10 -12    6.80    2.00
  -2 -10 -12    4.30    2.70
  -3 -10 -12    4.20    1.80
  -3 -10 -12    2.50    2.50
   3  10  12    3.00    2.00
   1 -11 -12   76.89    7.60
  -1  11  12   75.49    6.20
   0 -11 -12   43.00    7.30
   0  11  12   43.10    5.30
  -1 -11 -12   -1.00    2.80
   1  11  12    2.70    1.80
  -2 -11 -12    1.40    2.90
  -2 -11 -12    4.30    1.90
   2  11  12   14.20    4.90
   1   6 -13    5.70    2.20
  -1  -6  13    4.10    2.50
   0   6 -13  134.49    6.60
   0   6 -13  129.29    7.10
   0  -6  13  139.29    7.80
  -1   6 -13    3.50    2.00
  -1   6 -13    1.90    1.90
   1  -6  13    3.30    2.60
   3   5 -13    8.00    3.00
  -3  -5  13    5.00    2.40
   2   5 -13   98.09    5.90
   2   5 -13  112.49    5.90
  -2  -5  13   99.19    6.70
   1   5 -13  112.49    6.20
   1   5 -13  115.59    6.70
  -1  -5  13  119.19    7.00
   0   5 -13   -0.20    1.60
   0   5 -13    1.60    1.70
   0  -5  13   -0.40    2.10
  -1   5 -13  107.89    6.10
  -1   5 -13  103.79    5.90
   1  -5  13  100.59    6.60
  -2   5 -13   15.00    4.60
  -2   5 -13    8.50    1.90
   2  -5  13    6.60    2.60
   4   4 -13   53.09    5.60
   4   4 -13   69.89    6.90
  -4  -4  13   50.99    5.70
   3   4 -13   44.30    4.90
   3   4 -13   41.60    5.80
  -3  -4  13   45.70    5.00
   2   4 -13   21.00    4.20
   2   4 -13   26.50    4.10
  -2  -4  13   31.70    4.80
   1   4 -13  126.99    6.20
   1   4 -13  122.59    5.90
  -1  -4  13  138.89    6.70
   0   4 -13  288.97    9.10
   0  -4  13  297.37    9.50
  -1   4 -13   -1.10    1.40
  -1   4 -13    0.00    1.60
   1  -4  13    0.00    1.80
  -2   4 -13   24.20    4.20
  -2   4 -13   16.20    4.30
   2  -4  13   20.30    5.10
  -3   4 -13  208.68    8.20
  -3   4 -13  216.28    8.00
   3  -4  13  215.88    9.00
   4   3 -13   61.89    6.80
   4   3 -13   62.69    5.60
  -4  -3  13   75.29    5.60
  -4  -3  13   61.39    4.40
   3   3 -13  104.09    6.30
   3   3 -13  103.19    5.50
   3   3 -13  103.89    9.10
  -3  -3  13  106.29    5.90
   2   3 -13   32.10    4.20
   2   3 -13   28.90    4.90
  -2  -3  13   23.90    6.80
   1   3 -13   12.20    3.50
  -1  -3  13   10.60    3.60
   0   3 -13  198.18    7.00
   0   3 -13  193.48    7.10
   0  -3  13  199.68    7.30
  -1   3 -13  210.28    7.50
  -1   3 -13  217.28    8.00
   1  -3  13  208.68    8.80
  -2   3 -13   72.89    4.80
  -2   3 -13   64.59    5.00
   2  -3  13   70.89    5.50
  -3   3 -13   60.49    5.00
  -3   3 -13   67.59    5.00
   3  -3  13   66.99    5.90
  -4   3 -13  119.29    6.60
  -4   3 -13  115.79    6.10
   4  -3  13  127.39    7.50
   5   2 -13  223.08    9.60
   5   2 -13  243.88    8.90
  -5  -2  13  216.78    8.10
   4   2 -13  200.58    8.60
   4   2 -13  187.68    7.10
   4   2 -13  198.08    7.70
  -4  -2  13  194.28    6.90
  -4  -2  13  194.48    7.80
   3   2 -13   45.50    4.50
   3   2 -13   37.10    4.20
   3   2 -13   42.20    5.80
   3   2 -13   36.80    4.20
  -3  -2  13   41.10    7.00
  -3  -2  13   32.20    3.60
   2   2 -13   85.19    5.00
   2   2 -13   91.99    4.90
   2   2 -13   89.29    4.90
  -2  -2  13   90.79    5.20
   1   2 -13    6.90    1.70
   1   2 -13    5.80    1.70
  -1  -2  13   10.10    3.50
   0  -2  13   12.30    3.50
  -1   2 -13  104.19    5.70
  -1   2 -13  105.69    5.90
   1  -2  13  111.19    5.50
  -2   2 -13  187.28    7.30
  -2   2 -13  191.98    7.10
   2  -2  13  203.18    7.40
  -3   2 -13    5.80    1.70
  -3   2 -13    6.80    1.80
   3  -2  13    5.70    2.40
  -4   2 -13  129.59    6.60
  -4   2 -13  127.29    6.20
   4  -2  13  136.09    7.00
   5   1 -13    1.50    2.50
   5   1 -13   -3.30    2.00
  -5  -1  13   -2.70    1.70
   4   1 -13  128.49    6.10
   4   1 -13  140.79    6.50
   4   1 -13  134.69    5.90
  -4  -1  13  132.49    5.90
   3   1 -13  187.48    6.90
   3   1 -13  189.78    6.80
   3   1 -13  191.58    7.60
   3   1 -13  194.28    6.80
  -3  -1  13  197.28    6.50
  -3  -1  13  198.38    6.90
   2   1 -13   46.00    4.80
   2   1 -13   46.10    3.90
   2   1 -13   55.39    4.20
   2   1 -13   41.30    4.00
  -2  -1  13   42.70    3.90
   1   1 -13  346.87    9.30
   1   1 -13  330.77    8.90
   1   1 -13  336.27    9.20
  -1  -1  13  349.27    9.30
   0   1 -13  513.65   12.30
   0   1 -13  521.65   12.40
   0  -1  13  526.95   12.30
  -1   1 -13  110.19    5.40
  -1   1 -13  107.69    5.40
   1  -1  13  112.89    5.10
  -2   1 -13   97.89    7.10
  -2   1 -13  108.19    6.10
   2  -1  13  112.69    5.40
  -3   1 -13    1.60    1.40
  -3   1 -13    2.20    1.60
   3  -1  13    4.60    1.80
  -4   1 -13    5.60    1.90
  -4   1 -13   13.10    4.20
   4  -1  13    2.70    1.90
  -5   1 -13  147.29    6.90
  -5   1 -13  143.29    6.80
   5  -1  13  140.19    7.30
   5   0 -13  146.69    7.20
   5   0 -13  151.18    7.70
  -5   0  13  147.79    6.80
   4   0 -13   -0.20    2.00
   4   0 -13    1.10    1.60
   4   0 -13   -1.40    1.60
   4   0 -13    0.00    1.80
  -4   0  13    0.80    1.50
  -4   0  13   -1.60    1.20
   3   0 -13   10.40    3.70
   3   0 -13    0.50    1.50
   3   0 -13    1.30    1.50
   3   0 -13    2.20    1.80
  -3   0  13    0.20    1.40
  -3   0  13    1.30    1.30
  -3   0  13    1.10    1.20
   2   0 -13  217.28    6.90
   2   0 -13  220.08    6.90
   2   0 -13  215.78    7.40
   2   0 -13  218.48    7.20
  -2   0  13  215.08    6.80
   1   0 -13    9.60    3.50
   1   0 -13    3.90    1.60
   1   0 -13    4.60    1.50
   0   0 -13  116.99    5.40
   0   0 -13  123.89    5.60
   0   0  13  115.39    5.00
  -1   0 -13  373.06   10.00
  -1   0 -13  374.46   10.10
   1   0  13  386.56    9.70
  -2   0 -13  227.08    8.60
  -2   0 -13  222.38    8.50
   2   0  13  237.08    7.40
  -3   0 -13  107.59    5.50
  -3   0 -13   89.29    5.50
   3   0  13  104.49    5.30
  -4   0 -13   31.90    4.30
  -4   0 -13   31.80    4.40
   4   0  13   36.50    4.20
  -5   0 -13    6.50    1.80
  -5   0 -13    6.20    2.00
   5   0  13    5.30    2.20
   5  -1 -13   57.39    7.80
   5  -1 -13   58.39    5.50
   5  -1 -13   56.09    6.00
  -5   1  13   55.19    4.20
  -5   1  13   59.89    5.30
   4  -1 -13  263.17    8.40
   4  -1 -13  268.77    8.80
   4  -1 -13  257.87    8.00
   4  -1 -13  262.97    8.70
  -4   1  13  264.17    8.50
  -4   1  13  272.97    8.00
   3  -1 -13   72.09    4.60
   3  -1 -13   62.19    4.40
   3  -1 -13   63.89    4.70
   3  -1 -13   70.69    5.00
  -3   1  13   59.29    4.10
  -3   1  13   66.29    4.10
   2  -1 -13   19.80    3.80
   2  -1 -13   15.80    3.70
   2  -1 -13   18.20    3.20
   2  -1 -13   18.00    3.80
  -2   1  13   16.90    3.00
  -2   1  13   16.60    3.30
   1  -1 -13  394.26   10.20
   1  -1 -13  397.36    9.80
   1  -1 -13  391.46   10.00
  -1   1  13  389.06    9.40
  -1   1  13  395.86   10.10
   0  -1 -13   13.60    3.40
   0  -1 -13   15.00    3.60
   0  -1 -13   19.00    3.60
   0   1  13   17.10    2.90
  -1  -1 -13  246.58    7.70
  -1  -1 -13  230.08    7.60
   1   1  13  240.68    7.00
  -2  -1 -13  177.08    6.50
  -2  -1 -13  170.58    6.60
   2   1  13  172.58    6.00
  -3  -1 -13   81.89    5.70
  -3  -1 -13   62.49    4.80
   3   1  13   59.49    4.50
  -4  -1 -13   62.59    5.00
  -4  -1 -13   72.69    5.00
   4   1  13   57.29    4.60
  -5  -1 -13   80.89    5.40
  -5  -1 -13   77.69    5.60
   5   1  13   79.79    5.50
   5  -2 -13    9.30    2.70
   5  -2 -13   21.00    4.90
  -5   2  13    8.50    2.20
   4  -2 -13   93.59    5.50
   4  -2 -13  106.09    6.10
   4  -2 -13   94.79    5.70
  -4   2  13  103.39    5.10
   3  -2 -13  123.79    6.00
   3  -2 -13  116.59    5.60
   3  -2 -13  119.59    5.30
   3  -2 -13  112.09    5.60
  -3   2  13  121.49    5.30
   2  -2 -13    1.80    1.60
   2  -2 -13   -0.30    1.60
   2  -2 -13    2.80    1.50
  -2   2  13    2.00    1.20
  -2   2  13    0.20    1.30
   1  -2 -13    1.40    1.60
   1  -2 -13   11.40    3.40
   1  -2 -13    1.10    1.50
  -1   2  13    2.70    1.30
   0  -2 -13  120.69    5.50
   0  -2 -13  115.09    5.20
   0   2  13  110.99    4.40
   0   2  13  119.39    5.30
  -1  -2 -13   31.30    3.90
  -1  -2 -13   30.40    3.80
   1   2  13   30.30    3.10
  -2  -2 -13   87.59    5.00
   2   2  13   89.09    4.30
  -3  -2 -13  355.36   11.60
   3   2  13  364.66    9.20
  -4  -2 -13    3.60    1.70
   4   2  13   -0.60    1.60
  -5  -2 -13   36.30    5.00
  -5  -2 -13   33.20    4.40
   5   2  13   42.50    4.60
   5  -3 -13  143.69    7.70
  -5   3  13  149.39    6.30
   4  -3 -13  185.28    7.60
   4  -3 -13  178.58    9.80
   4  -3 -13  166.48    6.50
  -4   3  13  158.98    7.50
   3  -3 -13   23.90    4.00
   3  -3 -13   17.20    3.90
   3  -3 -13   17.10    4.40
  -3   3  13   23.40    3.40
   2  -3 -13   37.40    4.20
   2  -3 -13   32.40    4.00
   2  -3 -13   38.20    4.10
  -2   3  13   39.00    3.80
   1  -3 -13   84.19    5.10
   1  -3 -13   90.59    5.10
   1  -3 -13   88.29    4.40
  -1   3  13   85.79    3.60
  -1   3  13   91.39    4.80
   0  -3 -13  230.18    7.60
   0  -3 -13  221.88    7.30
   0   3  13  232.88    7.50
   0   3  13  216.98    5.90
  -1  -3 -13  595.54   13.20
  -1  -3 -13  601.74   14.00
   1   3  13  613.14   13.90
   1   3  13  579.14   12.00
  -2  -3 -13    1.00    1.70
  -2  -3 -13   -0.70    1.30
   2   3  13    1.10    1.20
  -3  -3 -13   24.40    5.90
   3   3  13   37.80    3.40
  -4  -3 -13  193.58    7.40
   4   3  13  177.58    6.30
  -5  -3 -13    4.10    1.90
   5   3  13    2.40    1.80
   5  -4 -13  170.78    8.50
  -5   4  13  143.79    6.50
   4  -4 -13  359.46   11.20
  -4   4  13  362.86   10.00
   3  -4 -13   51.99    4.90
  -3   4  13   60.69    5.30
   2  -4 -13  125.79    6.10
   2  -4 -13  122.49    5.80
  -2   4  13  125.09    5.50
   1  -4 -13  130.19    6.00
   1  -4 -13  127.19    5.80
  -1   4  13  124.99    5.60
   0  -4 -13  327.37    9.30
   0  -4 -13  322.57    9.40
   0   4  13  313.87    9.10
  -1  -4 -13   32.80    4.10
  -1  -4 -13   32.60    4.40
   1   4  13   31.00    3.90
  -2  -4 -13  149.39    6.20
  -2  -4 -13  143.69    6.10
  -3  -4 -13    7.30    2.70
  -4  -4 -13   28.10    4.30
  -5  -4 -13  181.48    7.50
   5  -5 -13   28.40    6.60
  -5   5  13   38.90    4.70
   4  -5 -13    0.10    2.20
  -4   5  13    0.10    1.70
  -3   5  13  150.28    6.40
   2  -5 -13   84.29    5.40
  -2   5  13   89.49    6.50
   1  -5 -13  120.19    5.80
   1  -5 -13  121.89    6.20
  -1   5  13  109.59    5.20
   0  -5 -13  612.04   14.40
   0  -5 -13  609.94   14.40
   0   5  13  607.14   14.10
  -1  -5 -13  270.97    8.40
  -1  -5 -13  266.97    8.60
   1   5  13  258.07    8.30
  -2  -5 -13   45.40    4.90
  -2  -5 -13   32.60    4.60
   2   5  13   42.50    4.40
  -3  -5 -13   37.70    4.60
  -3  -5 -13   35.10    5.20
  -4  -5 -13   73.79    5.00
  -4  -5 -13   83.59    5.50
  -5  -5 -13   89.59    6.10
   4  -6 -13   85.49    6.80
  -4   6  13  101.59    5.70
   3  -6 -13    8.40    2.50
  -3   6  13   18.50    4.20
   2  -6 -13   98.19    6.20
  -2   6  13   95.19    5.30
   1  -6 -13    1.40    1.80
  -1   6  13    1.80    2.20
   0  -6 -13    6.20    3.10
   0  -6 -13    4.70    2.30
   0   6  13    6.00    2.10
  -1  -6 -13  607.34   14.50
   1   6  13  577.84   15.70
  -2  -6 -13  216.28   11.10
  -2  -6 -13  226.68    8.10
  -3  -6 -13   23.50    4.60
  -3  -6 -13   11.70    4.10
  -4  -6 -13   33.60    5.10
  -4  -6 -13   34.10    4.50
  -5  -6 -13  128.49    6.80
   4  -7 -13  122.99    7.90
  -4   7  13  125.29    6.50
   3  -7 -13  241.28    9.60
  -3   7  13  250.67    8.50
   2  -7 -13   50.69    5.50
  -2   7  13   49.30    4.70
   1  -7 -13   75.79    5.90
  -1   7  13   70.29    4.90
   0  -7 -13   36.20    4.90
   0   7  13   26.40    4.10
  -1  -7 -13   25.90    5.10
  -1  -7 -13   21.30    4.10
   1   7  13   22.50    4.30
  -2  -7 -13   75.79    5.30
  -2  -7 -13   74.49    5.90
   2   7  13   68.79    5.20
  -3  -7 -13   54.09    5.50
  -3  -7 -13   49.10    4.80
   3   7  13   50.89    5.00
  -4  -7 -13   16.30    4.60
  -4  -7 -13   27.30    5.20
  -5  -7 -13   91.09    6.80
   3  -8 -13  135.49    8.20
  -3   8  13  137.89    6.70
   2  -8 -13   28.90    5.70
  -2   8  13   33.10    4.40
   1  -8 -13    0.30    2.30
  -1   8  13    2.40    1.60
   0  -8 -13   93.09    7.60
   0   8  13   95.39    5.70
  -1  -8 -13   87.19    5.50
   1   8  13   80.79    5.50
  -2  -8 -13    1.30    1.80
   2   8  13    1.40    1.80
  -3  -8 -13   62.29    6.20
  -3  -8 -13   76.49    5.50
   3   8  13   74.09    5.30
  -4  -8 -13    2.70    2.40
  -4  -8 -13   -2.80    1.70
   3  -9 -13   -1.20    2.60
  -3   9  13    5.80    2.00
   2  -9 -13   21.50    6.40
  -2   9  13   21.10    4.50
   1  -9 -13   64.99    6.80
  -1   9  13   56.49    5.30
   0  -9 -13   34.50    6.10
   0   9  13   35.50    4.90
  -1  -9 -13  148.29    7.90
  -1  -9 -13  141.39    7.00
   1   9  13  150.08    6.80
  -2  -9 -13   68.19    5.40
  -2  -9 -13   71.39    6.90
   2   9  13   67.09    5.60
  -3  -9 -13    3.30    1.90
  -3  -9 -13    2.40    2.60
   3   9  13    0.10    2.00
   2 -10 -13    1.50    2.90
  -2  10  13    3.20    1.90
   1 -10 -13   41.00    7.10
  -1  10  13   55.49    5.70
   0 -10 -13  142.19    8.80
   0  10  13  153.78    7.30
  -1 -10 -13   32.00    6.70
   1  10  13   38.70    5.50
  -2 -10 -13  109.59    7.90
  -2 -10 -13  115.29    6.70
   2  10  13  112.29    7.00
   0   5 -14  101.19    6.70
   0   5 -14   94.09    6.10
   0  -5  14  100.99    7.20
   2   4 -14   51.19    9.30
   2   4 -14   59.79    5.40
  -2  -4  14   60.29    5.80
   1   4 -14   19.70    4.70
   1   4 -14   24.80    4.90
  -1  -4  14   21.80    5.00
   0   4 -14  142.49    6.70
   0   4 -14  142.29    7.10
   0  -4  14  148.99    7.40
  -1   4 -14    4.20    2.00
  -1   4 -14    7.60    2.10
   1  -4  14   14.40    4.90
  -2   4 -14    0.10    1.80
  -2   4 -14    2.80    1.80
   2  -4  14    1.30    2.30
   3   3 -14   37.60    5.20
   3   3 -14   23.40    4.80
   3   3 -14   31.60    5.80
  -3  -3  14   27.40    4.80
   2   3 -14   17.00    4.50
   2   3 -14   18.30    5.20
  -2  -3  14   14.70    4.60
   1   3 -14  167.98    6.80
   1   3 -14  159.58    6.80
  -1  -3  14  161.78    7.20
   0   3 -14   62.59    5.20
   0   3 -14   57.99    5.20
   0  -3  14   55.99    5.40
  -1   3 -14  149.09    6.80
  -1   3 -14  138.99    6.60
   1  -3  14  146.49    6.90
  -2   3 -14  102.59    5.90
  -2   3 -14   83.69    5.90
   2  -3  14   98.49    6.50
  -3   3 -14    3.20    2.10
  -3   3 -14    3.20    1.80
   3  -3  14    5.80    2.60
   4   2 -14   18.10    5.20
   4   2 -14   25.10    6.60
   4   2 -14   30.00    6.10
  -4  -2  14   22.20    3.90
  -4  -2  14   20.90    5.00
   3   2 -14  223.18    7.90
   3   2 -14  222.68    8.90
   3   2 -14  229.08    7.80
  -3  -2  14  223.18    8.10
   2   2 -14    2.20    1.70
   2   2 -14   -1.50    1.50
   2   2 -14    0.10    2.50
  -2  -2  14    1.70    1.90
   1   2 -14  114.39    5.80
  -1  -2  14  114.39    6.50
   0   2 -14  120.99    6.10
   0   2 -14  115.49    6.00
   0  -2  14  116.29    5.90
  -1   2 -14   67.29    5.10
  -1   2 -14   76.79    5.30
  -2   2 -14   46.70    5.00
  -2   2 -14   51.49    4.80
   2  -2  14   52.79    5.00
  -3   2 -14    9.90    2.30
   3  -2  14   14.60    5.00
   4   1 -14    1.90    2.80
   4   1 -14    2.90    2.00
   4   1 -14    6.00    2.70
  -4  -1  14    4.10    2.00
  -4  -1  14   11.10    4.00
   3   1 -14    2.20    2.10
   3   1 -14    2.10    1.80
   3   1 -14    2.00    2.90
   2   1 -14   50.69    5.40
   2   1 -14   55.49    4.90
   2   1 -14   56.89    5.00
  -2  -1  14   58.99    4.40
   1   1 -14   -1.40    1.50
   1   1 -14    0.30    1.50
   0   1 -14  104.19    6.30
   0   1 -14  105.99    5.70
   0  -1  14  101.79    5.30
  -1   1 -14  543.45   13.40
  -1   1 -14  542.75   13.40
   1  -1  14  554.84   13.10
  -2   1 -14   20.10    4.30
  -2   1 -14   22.90    4.40
   2  -1  14   22.60    3.90
  -3   1 -14   19.50    4.40
  -3   1 -14    9.60    2.10
   3  -1  14   16.10    4.40
  -4   1 -14   92.09    6.20
  -4   1 -14   86.99    6.00
   4  -1  14  109.39    6.60
   4   0 -14  166.68    7.20
   4   0 -14  145.09    8.70
   4   0 -14  148.09    6.70
   4   0 -14  152.48    7.30
  -4   0  14  149.09    7.00
  -4   0  14  145.99    6.50
   3   0 -14  265.27    8.50
   3   0 -14  254.07    8.90
   3   0 -14  259.57    8.60
   3   0 -14  255.87    8.30
  -3   0  14  267.57    8.10
   2   0 -14   78.99    5.30
   2   0 -14   70.09    5.60
   2   0 -14   79.79    5.50
   2   0 -14   77.79    5.20
  -2   0  14   82.79    4.70
   1   0 -14   97.39    5.40
  -1   0  14   95.79    5.00
   0   0 -14    7.20    1.80
  -1   0 -14   12.90    4.00
  -1   0 -14   15.20    4.10
   1   0  14   10.40    3.50
  -2   0 -14  231.48    8.10
  -2   0 -14  233.18    8.20
   2   0  14  236.68    7.70
  -3   0 -14    1.80    1.70
  -3   0 -14   -0.50    1.70
   3   0  14    1.20    1.80
  -4   0 -14   48.10    5.00
  -4   0 -14   57.79    5.30
   4   0  14   73.09    5.40
   4  -1 -14  161.58    7.40
   4  -1 -14  169.38    7.80
   4  -1 -14  145.99   10.80
   4  -1 -14  150.18    6.70
  -4   1  14  146.59    7.70
   3  -1 -14  182.28    7.40
   3  -1 -14  193.28    7.50
   3  -1 -14  175.58    7.90
   3  -1 -14  167.88    6.70
  -3   1  14  160.58    7.60
  -3   1  14  179.38    6.40
   2  -1 -14  181.78    6.90
   2  -1 -14  170.78    6.90
   2  -1 -14  176.48    6.60
   2  -1 -14  176.08    6.90
  -2   1  14  172.98    6.10
  -2   1  14  175.68    6.50
   1  -1 -14    4.70    1.60
   1  -1 -14    5.00    1.90
   1  -1 -14   11.70    3.50
  -1   1  14    8.50    3.10
   0   1  14  177.08    6.10
  -1  -1 -14   50.89    4.60
  -1  -1 -14   38.90    4.50
   1   1  14   45.00    3.80
  -2  -1 -14   18.50    4.10
  -2  -1 -14   20.40    4.10
   2   1  14   11.70    3.60
  -3  -1 -14  167.88    7.20
  -3  -1 -14  166.08    6.90
   3   1  14  162.58    6.50
  -4  -1 -14   13.20    4.60
   4   1  14   14.40    4.00
   4  -2 -14   67.59    5.60
   4  -2 -14   72.29    6.20
   4  -2 -14   67.69    9.30
   4  -2 -14   63.59    5.40
  -4   2  14   71.49    4.90
   3  -2 -14   96.99    6.10
   3  -2 -14   99.39    5.40
   3  -2 -14  105.49    6.00
   3  -2 -14   87.49    9.00
  -3   2  14   93.89    6.60
   2  -2 -14  257.27   11.90
   2  -2 -14  245.18    8.10
   2  -2 -14  246.58    7.90
   2  -2 -14  239.98    7.70
  -2   2  14  255.67    7.00
  -2   2  14  237.68    9.70
   1  -2 -14   25.00    4.20
   1  -2 -14   28.40    4.80
   1  -2 -14   20.90    4.20
  -1   2  14   28.70    3.00
  -1   2  14   30.10    4.70
   0  -2 -14  133.49    6.10
   0   2  14  138.39    4.90
  -1  -2 -14  157.98    6.80
   1   2  14  155.18    5.30
  -2  -2 -14  389.46   10.80
   2   2  14  376.86    9.50
  -3  -2 -14   16.90    4.20
   3   2  14   22.70    3.70
  -4  -2 -14   24.20    4.60
  -4  -2 -14   32.10    5.00
   4   2  14   37.90    3.90
  -5  -2 -14    0.30    1.90
  -5  -2 -14   -0.20    2.00
   4  -3 -14  205.08    8.80
   4  -3 -14  197.18    8.10
   4  -3 -14  200.38    7.50
  -4   3  14  205.28    7.40
   3  -3 -14   55.69    5.00
   3  -3 -14   57.19    5.90
  -3   3  14   62.99    4.70
   2  -3 -14   22.00    4.80
   2  -3 -14   26.80    4.50
  -2   3  14   24.50    4.70
   1  -3 -14   70.39    5.30
   0  -3 -14  125.29    6.10
  -1  -3 -14   86.99    5.50
  -1  -3 -14   93.79    5.40
  -2  -3 -14  295.37    9.20
  -3  -3 -14  147.09    6.60
  -4  -3 -14    5.80    2.00
  -5  -3 -14   68.59    5.90
   4  -4 -14    3.10    2.50
  -4   4  14    2.20    1.80
   3  -4 -14  265.97    9.20
   3  -4 -14  265.57    9.60
  -3   4  14  284.37    8.50
   2  -4 -14   21.70    4.60
   2  -4 -14   21.90    4.40
  -2   4  14   24.20    4.10
   1  -4 -14    1.50    1.80
   1  -4 -14    3.00    1.80
  -1   4  14    3.40    1.60
   0  -4 -14  167.38    7.10
   0  -4 -14  169.48    6.90
   0   4  14  159.88    6.60
  -1  -4 -14  124.29    6.30
  -1  -4 -14  118.09    6.20
   1   4  14  121.89    6.10
  -2  -4 -14   25.60    4.80
  -2  -4 -14   20.50    4.20
  -3  -4 -14   98.59    5.90
  -4  -4 -14   89.19    6.20
   4  -5 -14   32.50    6.30
  -4   5  14   36.20    4.70
   3  -5 -14   -2.40    2.10
  -3   5  14    3.50    1.80
   2  -5 -14   37.10    5.10
   2  -5 -14   43.90    5.00
  -2   5  14   49.20    4.30
   1  -5 -14   46.90    5.30
   1  -5 -14   47.10    4.70
  -1   5  14   47.40    4.30
   0  -5 -14   -1.10    1.90
   0  -5 -14   -0.70    1.60
   0   5  14   -0.90    1.40
  -1  -5 -14  150.98    7.00
  -1  -5 -14  167.18    7.00
   1   5  14  164.78    6.90
  -2  -5 -14   39.00    5.30
  -2  -5 -14   35.20    4.50
   2   5  14   32.50    4.60
  -3  -5 -14    2.60    1.80
  -3  -5 -14    0.90    2.10
  -4  -5 -14  123.79    6.60
   4  -6 -14  167.88    8.90
  -4   6  14  155.98    7.30
   3  -6 -14  232.48    9.40
  -3   6  14  241.28    8.50
   2  -6 -14    9.10    2.60
  -2   6  14   17.00    4.00
   1  -6 -14   30.80    5.00
   1  -6 -14   27.00    4.60
  -1   6  14   29.40    3.90
   0  -6 -14   62.49    5.20
   0  -6 -14   59.19    5.80
   0   6  14   65.19    5.10
  -1  -6 -14    3.70    2.20
  -1  -6 -14    2.30    1.60
   1   6  14    2.00    1.70
  -2  -6 -14  205.68    8.00
  -2  -6 -14  199.38    8.10
   2   6  14  218.48    8.00
  -3  -6 -14   19.60    5.00
  -3  -6 -14    9.30    2.30
  -4  -6 -14    8.80    2.20
   3  -7 -14   83.19    7.20
  -3   7  14   92.89    6.10
   2  -7 -14  169.48    8.40
  -2   7  14  189.38    7.50
   1  -7 -14    5.50    2.30
  -1   7  14    3.70    1.70
   0  -7 -14  153.28    7.10
   0   7  14  154.18    6.90
  -1  -7 -14  136.29    7.40
  -1  -7 -14  123.89    6.60
   1   7  14  130.59    6.60
  -2  -7 -14    9.50    2.70
  -2  -7 -14   20.80    4.80
   2   7  14   10.00    2.30
  -3  -7 -14   98.39    6.20
  -3  -7 -14   91.19    6.50
  -4  -7 -14    9.10    3.30
  -4  -7 -14    6.90    2.20
   2  -8 -14   67.69    7.10
  -2   8  14   62.09    5.50
   1  -8 -14   11.40    2.90
   0  -8 -14    6.20    2.10
   0  -8 -14    6.80    2.70
   0   8  14   11.90    4.20
  -1  -8 -14  139.59    7.80
  -1  -8 -14  151.98    7.10
   1   8  14  150.68    7.20
  -2  -8 -14  310.37   10.00
  -2  -8 -14  304.57   10.60
   2   8  14  307.27    9.80
  -3  -8 -14    2.30    2.50
  -3  -8 -14    0.80    1.90
   3   8  14    1.50    2.00
   1  -9 -14    9.70    3.10
   0  -9 -14   30.90    6.40
   0   9  14   17.60    5.30
  -1  -9 -14   -1.50    2.60
  -1  -9 -14   -1.60    1.90
   1   9  14   -1.20    1.90
  -2  -9 -14  107.49    7.80
  -2  -9 -14   94.99    6.60
   2   9  14  107.59    6.90
   1   3 -15   19.90    5.10
   1   3 -15   22.20    5.10
   0   3 -15  132.69    7.00
   0   3 -15  137.89    6.90
   0  -3  15  131.19    6.90
  -1   3 -15   -2.70    1.80
  -1   3 -15    2.70    2.00
   1  -3  15   -0.80    2.10
   2   2 -15  142.59    6.80
   2   2 -15  126.89    8.00
   2   2 -15  137.69    6.90
  -2  -2  15  141.99    6.80
   1   2 -15   37.20    5.10
  -1  -2  15   39.50    5.00
   0   2 -15   15.70    4.80
   0  -2  15   18.00    4.40
  -1   2 -15  258.07    9.10
  -1   2 -15  260.17    9.10
   1  -2  15  255.17    8.80
  -2   2 -15    1.40    2.00
  -2   2 -15    0.20    1.90
   2  -2  15   12.40    4.60
   3   1 -15   12.60    2.50
  -3  -1  15   19.60    4.30
   2   1 -15   20.90    4.90
   2   1 -15   27.00    4.80
   2   1 -15   29.50    5.60
  -2  -1  15   23.60    4.20
   1   1 -15   36.10    4.90
   1   1 -15   36.30    4.80
   0   1 -15  143.89    7.00
   0   1 -15  151.88    6.90
   0  -1  15  154.08    7.40
  -1   1 -15   51.59    5.40
  -1   1 -15   50.49    5.30
  -2   1 -15   49.30    5.60
  -2   1 -15   68.39    5.90
   2  -1  15   60.39    5.20
  -3   1 -15   14.60    5.20
  -3   1 -15   15.40    5.20
   3  -1  15   27.90    5.20
   3   0 -15  220.58    8.70
   3   0 -15  217.68    8.30
   3   0 -15  217.68    8.10
  -3   0  15  200.48    9.20
   2   0 -15  224.18    8.20
   2   0 -15  239.98    8.70
   2   0 -15  234.28    8.30
  -2   0  15  220.48    7.50
   1   0 -15   58.99    5.30
   1   0 -15   66.89    5.20
  -1   0  15   63.39    4.70
   0   0 -15  162.58    7.00
   0   0 -15  152.88    6.80
   0   0  15  149.09    6.20
  -1   0 -15  147.99    7.10
  -1   0 -15  156.18    7.20
   1   0  15  140.69    6.00
  -2   0 -15   26.70    5.20
  -2   0 -15   23.40    4.70
  -3   0 -15   66.49    5.90
  -3   0 -15   80.19    6.10
   3   0  15   70.39    5.40
   3  -1 -15    4.00    2.10
   3  -1 -15   16.80    5.50
   3  -1 -15    5.40    2.60
  -3   1  15    6.10    1.80
  -3   1  15    5.50    2.70
   2  -1 -15   83.29    5.90
   2  -1 -15   72.99    5.50
   2  -1 -15   83.19    5.90
   2  -1 -15   76.89    6.10
  -2   1  15   79.69    4.50
   1  -1 -15   36.00    4.70
   1  -1 -15   26.60    5.30
   1  -1 -15   28.40    4.70
  -1   1  15   27.70    3.60
   0  -1 -15   36.10    5.00
   0  -1 -15   35.20    4.90
   0   1  15   28.50    3.60
  -1  -1 -15   96.59    6.00
  -1  -1 -15   96.89    6.00
   1   1  15  100.79    5.00
  -2  -1 -15  142.99    7.10
  -2  -1 -15  143.59    7.00
   2   1  15  131.99    5.60
  -3  -1 -15    1.70    1.90
   3  -2 -15  115.69    6.40
   3  -2 -15  107.69    8.00
   3  -2 -15  132.59    7.10
  -3   2  15  126.09    6.20
   2  -2 -15   42.80    5.00
   2  -2 -15   39.90    5.40
   2  -2 -15   44.30    4.90
  -2   2  15   49.60    4.70
   1  -2 -15   96.89    6.10
   1  -2 -15   90.59    5.40
   1  -2 -15   92.99    5.90
  -1   2  15   86.59    5.50
   0  -2 -15    3.40    1.90
   0  -2 -15   -2.30    1.70
  -1  -2 -15   22.90    4.50
  -2  -2 -15  287.77    9.50
  -2  -2 -15  291.27    9.60
  -3  -2 -15  151.88    7.00
  -3  -2 -15  148.99    7.30
  -4  -2 -15   25.20    5.50
  -4  -2 -15   28.00    5.30
   3  -3 -15  199.08    8.30
   3  -3 -15  193.08    7.60
   3  -3 -15  205.98    8.60
  -3   3  15  203.18    7.70
   2  -3 -15  101.39    6.30
   2  -3 -15  111.59    6.30
  -2   3  15  111.49    5.90
   1  -3 -15   23.60    4.90
   1  -3 -15   17.20    5.00
  -1   3  15   16.90    4.20
   0  -3 -15   80.59    6.10
   0  -3 -15   75.79    5.70
   0   3  15   80.89    5.40
  -1  -3 -15   17.50    4.40
  -2  -3 -15    3.60    1.90
  -3  -3 -15  105.09    6.30
  -4  -3 -15   11.20    2.40
   3  -4 -15   36.50    5.40
   3  -4 -15   33.30    6.10
  -3   4  15   42.20    5.10
   2  -4 -15  135.49    6.90
  -2   4  15  136.19    6.70
   1  -4 -15  211.58    8.30
   1  -4 -15  205.08    8.00
  -1   4  15  207.18    7.80
   0  -4 -15    1.00    1.80
   0  -4 -15    0.00    2.30
   0   4  15    1.60    1.60
  -1  -4 -15  172.98    8.10
  -1  -4 -15  174.58    7.60
  -2  -4 -15   67.59    5.40
  -3  -4 -15    0.30    1.80
   3  -5 -15   76.89    6.80
   3  -5 -15   78.39    6.40
  -3   5  15   84.69    5.70
   2  -5 -15    2.30    2.40
   2  -5 -15   -1.30    2.00
  -2   5  15    1.60    1.70
   1  -5 -15   64.99    5.60
   1  -5 -15   78.29    6.30
  -1   5  15   71.59    5.40
   0  -5 -15   89.49    5.60
   0  -5 -15   75.89    6.20
   0   5  15   84.19    5.60
  -1  -5 -15   13.90    4.80
  -1  -5 -15    7.70    2.70
  -2  -5 -15   79.99    5.90
  -3  -5 -15  237.68    8.90
   3  -6 -15  119.59    8.20
  -3   6  15  121.19    6.80
   2  -6 -15  140.09    7.90
   2  -6 -15  135.79    7.50
  -2   6  15  145.09    6.80
   1  -6 -15    6.20    2.70
   1  -6 -15    7.80    2.30
  -1   6  15    6.80    2.00
   0  -6 -15    9.10    3.20
   0  -6 -15   18.50    4.80
   0   6  15   17.00    4.60
  -1  -6 -15  131.69    7.50
  -1  -6 -15  141.39    7.00
   1   6  15  133.69    6.80
  -2  -6 -15    4.50    2.70
  -2  -6 -15    0.90    1.90
   2   6  15    1.80    1.90
  -3  -6 -15   80.19    6.20
   2  -7 -15   77.09    7.40
  -2   7  15   63.49    5.80
   1  -7 -15   88.09    6.40
   1  -7 -15   77.79    7.30
  -1   7  15   85.19    5.90
   0  -7 -15   -2.00    2.40
   0  -7 -15    1.80    1.90
   0   7  15    0.30    1.80
  -1  -7 -15   13.60    3.10
  -1  -7 -15   26.10    4.80
   1   7  15   20.80    4.80
  -2  -7 -15  109.19    7.60
  -2  -7 -15  104.69    6.90
   2   7  15  103.89    6.70
   1  -8 -15   -1.50    2.90
  -1   8  15    5.70    2.10
   0  -8 -15    2.00    2.10
   0  -8 -15    1.70    2.70
   0   8  15   -0.30    1.80
  -1  -8 -15   10.40    2.50
  -1  -8 -15    7.30    3.00
   1   8  15   22.30    5.30
   0   1 -16   38.70    5.60
   0   1 -16   31.40    5.50
   0  -1  16   38.30    5.00
   1   0 -16   45.80    5.50
   1   0 -16   44.90    5.60
   0   0 -16   35.00    5.30
   0   0 -16   36.70    5.50
  -1   0 -16   85.69    6.30
  -1   0 -16   83.89    6.40
   1   0  16   78.59    8.10
   2  -1 -16    2.40    2.20
   2  -1 -16    1.30    2.00
   1  -1 -16  164.98    7.70
   1  -1 -16  155.58    7.50
   0  -1 -16   12.70    2.60
   0  -1 -16   25.20    5.30
  -1  -1 -16    3.40    2.10
  -1  -1 -16    1.10    1.90
  -2  -1 -16   99.49    6.80
  -2  -1 -16  105.59    6.80
   2  -2 -16  154.48    7.30
   2  -2 -16  153.08    7.70
  -2   2  16  158.18    7.20
   1  -2 -16    2.20    2.20
   1  -2 -16    5.60    2.10
   0  -2 -16   25.00    5.40
   0  -2 -16   34.50    5.40
  -1  -2 -16  152.08    7.40
  -1  -2 -16  148.09    7.70
  -2  -2 -16   15.70    5.10
  -2  -2 -16   22.40    5.30
   2  -3 -16   82.29    8.30
   2  -3 -16   87.99    6.80
   2  -3 -16   83.29    5.90
  -2   3  16   75.89    5.90
   1  -3 -16  170.88    8.10
  -1   3  16  191.28    7.70
   0  -3 -16    4.90    2.20
  -1  -3 -16   69.79    6.00
  -2  -3 -16  151.58    7.70
   2  -4 -16   15.00    3.20
   2  -4 -16   28.20    5.60
  -2   4  16   21.30    4.90
   1  -4 -16    4.20    2.40
   1  -4 -16    6.60    2.80
  -1   4  16    3.30    2.00
   0  -4 -16   77.19    6.30
   0   4  16   72.39    5.70
  -1  -4 -16    1.70    2.00
  -2  -4 -16   83.59    6.50
   1  -5 -16   48.30    6.90
   1  -5 -16   48.90    5.90
  -1   5  16   42.00    5.30
   0  -5 -16   14.00    3.10
   0  -5 -16   27.30    5.80
   0   5  16   23.80    4.90
  -1  -5 -16    4.40    2.20
   1   5  16    4.30    2.10
  -2  -5 -16    1.70    2.10
  -1   6  16   81.39    6.20
   0  -6 -16  113.89    6.90
   0  -6 -16   97.89    7.60
   0   6  16  104.99    6.70
  -1  -6 -16   39.40    8.00
  -1  -6 -16   33.40    6.00
   1   6  16   45.50    5.80
   0   0   0    0.00    0.00

_computing_structure_solution     'SHELXT 2018/2 (Sheldrick, 2018)'
;
_shelx_hkl_checksum              88980
_olex2_submission_original_sample_id SH203
_olex2_submission_special_instructions 'No special instructions were received'
loop_
_space_group_symop_operation_xyz
'x, y, z'
'-x, -y, -z'
loop_
_atom_site_label
_atom_site_type_symbol
_atom_site_fract_x
_atom_site_fract_y
_atom_site_fract_z
_atom_site_U_iso_or_equiv
_atom_site_adp_type
_atom_site_occupancy
_atom_site_site_symmetry_order
_atom_site_calc_flag
_atom_site_refinement_flags_posn
_atom_site_refinement_flags_adp
_atom_site_refinement_flags_occupancy
_atom_site_disorder_assembly
_atom_site_disorder_group
In1 In 0.16948(2) 0.32089(2) 0.79814(2) 0.03029(7) Uani 1 1 d . . . . .
Cl6 Cl 0.42910(9) 0.18503(7) 0.90188(5) 0.04287(15) Uani 1 1 d . . . . .
Cl5 Cl -0.03780(10) 0.33630(7) 0.95723(6) 0.04576(16) Uani 1 1 d . . . . .
Cl4 Cl -0.05797(10) 0.46153(7) 0.66805(6) 0.04645(16) Uani 1 1 d . . . . .
Cl2 Cl 0.37818(11) 0.85477(7) 0.83109(7) 0.05115(18) Uani 1 1 d . . . . .
Cl1 Cl 0.7529(2) 0.18590(18) 0.46405(8) 0.1295(7) Uani 1 1 d . . . . .
Cl3 Cl -0.16157(14) -0.15412(9) 0.67824(9) 0.0707(3) Uani 1 1 d . . . . .
N3 N 0.3369(3) 0.4949(2) 0.81388(18) 0.0365(4) Uani 1 1 d . . . . .
N4 N 0.5182(3) 0.4931(2) 0.85461(19) 0.0410(5) Uani 1 1 d . . . . .
H4 H 0.594374 0.424784 0.870544 0.049 Uiso 1 1 calc R U . . .
N1 N 0.3427(3) 0.2985(2) 0.64307(16) 0.0359(5) Uani 1 1 d . . . . .
N2 N 0.2970(4) 0.3656(3) 0.54227(19) 0.0444(6) Uani 1 1 d . . . . .
N5 N 0.0123(3) 0.1415(2) 0.78271(18) 0.0364(5) Uani 1 1 d . . . . .
N6 N -0.0959(3) 0.0831(2) 0.8685(2) 0.0452(5) Uani 1 1 d . . . . .
H6 H -0.113189 0.111255 0.928402 0.054 Uiso 1 1 calc R U . . .
C4 C 0.2682(4) 0.6170(2) 0.8013(2) 0.0373(5) Uani 1 1 d . . . . .
H4A H 0.145015 0.647409 0.774962 0.045 Uiso 1 1 calc R U . . .
C5 C 0.4072(4) 0.6923(2) 0.8331(2) 0.0362(5) Uani 1 1 d . . . . .
C6 C 0.5645(4) 0.6104(3) 0.8671(2) 0.0428(6) Uani 1 1 d . . . . .
H6A H 0.681291 0.632208 0.893709 0.051 Uiso 1 1 calc R U . . .
C3 C 0.4229(4) 0.3397(3) 0.4669(2) 0.0520(7) Uani 1 1 d . . . . .
H3 H 0.419802 0.374706 0.392134 0.062 Uiso 1 1 calc R U . . .
C2 C 0.5562(5) 0.2522(4) 0.5209(2) 0.0585(9) Uani 1 1 d . . . . .
C1 C 0.5011(4) 0.2279(3) 0.6302(2) 0.0540(8) Uani 1 1 d . . . . .
H1 H 0.566349 0.170296 0.686125 0.065 Uiso 1 1 calc R U . . .
C7 C 0.0053(4) 0.0696(3) 0.7092(2) 0.0424(6) Uani 1 1 d . . . . .
H7 H 0.067206 0.086035 0.641390 0.051 Uiso 1 1 calc R U . . .
C8 C -0.1086(4) -0.0357(3) 0.7469(2) 0.0414(6) Uani 1 1 d . . . . .
C9 C -0.1713(4) -0.0222(3) 0.8483(3) 0.0482(7) Uani 1 1 d . . . . .
H9 H -0.251756 -0.076806 0.894591 0.058 Uiso 1 1 calc R U . . .
H2 H 0.206(5) 0.412(3) 0.537(3) 0.058(10) Uiso 1 1 d . . . . .
loop_
_atom_site_aniso_label
_atom_site_aniso_U_11
_atom_site_aniso_U_22
_atom_site_aniso_U_33
_atom_site_aniso_U_23
_atom_site_aniso_U_13
_atom_site_aniso_U_12
In1 0.02784(10) 0.03278(10) 0.02942(10) -0.00458(6) 0.00155(6) -0.00022(6)
Cl6 0.0389(3) 0.0482(4) 0.0365(3) 0.0016(3) -0.0040(2) 0.0073(3)
Cl5 0.0440(4) 0.0543(4) 0.0422(3) -0.0175(3) 0.0143(3) -0.0051(3)
Cl4 0.0398(3) 0.0527(4) 0.0433(3) -0.0049(3) -0.0087(3) 0.0142(3)
Cl2 0.0523(4) 0.0376(3) 0.0634(4) -0.0084(3) -0.0095(3) -0.0054(3)
Cl1 0.1057(9) 0.2137(16) 0.0460(5) 0.0009(7) 0.0215(5) 0.1007(10)
Cl3 0.0666(5) 0.0628(5) 0.0958(7) -0.0435(5) 0.0217(5) -0.0219(4)
N3 0.0319(10) 0.0388(11) 0.0385(11) -0.0060(9) -0.0013(8) -0.0032(8)
N4 0.0310(11) 0.0426(12) 0.0472(12) -0.0044(10) -0.0028(9) 0.0019(9)
N1 0.0353(11) 0.0420(11) 0.0270(10) -0.0008(8) 0.0016(8) 0.0057(9)
N2 0.0427(13) 0.0530(14) 0.0322(11) 0.0007(10) -0.0019(9) 0.0129(11)
N5 0.0338(11) 0.0360(11) 0.0385(11) -0.0040(9) 0.0027(9) -0.0062(8)
N6 0.0442(13) 0.0513(14) 0.0416(12) -0.0106(10) 0.0058(10) -0.0106(11)
C4 0.0318(12) 0.0394(13) 0.0399(13) -0.0060(11) -0.0015(10) -0.0015(10)
C5 0.0366(13) 0.0361(12) 0.0352(12) -0.0039(10) 0.0018(10) -0.0064(10)
C6 0.0348(13) 0.0442(14) 0.0487(15) -0.0054(12) -0.0046(11) -0.0089(11)
C3 0.0503(17) 0.071(2) 0.0293(13) -0.0018(13) 0.0034(11) 0.0130(14)
C2 0.0494(17) 0.087(2) 0.0332(14) -0.0048(15) 0.0075(12) 0.0237(16)
C1 0.0478(16) 0.075(2) 0.0317(13) 0.0011(13) 0.0041(12) 0.0243(15)
C7 0.0381(14) 0.0454(15) 0.0437(14) -0.0081(12) 0.0028(11) -0.0047(11)
C8 0.0305(12) 0.0400(13) 0.0552(16) -0.0128(12) 0.0009(11) -0.0019(10)
C9 0.0395(15) 0.0462(15) 0.0572(17) -0.0044(13) 0.0057(13) -0.0109(12)
loop_
_atom_type_symbol
_atom_type_description
_atom_type_scat_dispersion_real
_atom_type_scat_dispersion_imag
_atom_type_scat_source
C C 0.0033 0.0016 'International Tables Vol C Tables 4.2.6.8 and 6.1.1.4'
H H 0.0000 0.0000 'International Tables Vol C Tables 4.2.6.8 and 6.1.1.4'
Cl Cl 0.1484 0.1585 'International Tables Vol C Tables 4.2.6.8 and 6.1.1.4'
In In -0.7276 1.3100 'International Tables Vol C Tables 4.2.6.8 and 6.1.1.4'
N N 0.0061 0.0033 'International Tables Vol C Tables 4.2.6.8 and 6.1.1.4'
loop_
_geom_angle_atom_site_label_1
_geom_angle_atom_site_label_2
_geom_angle_atom_site_label_3
_geom_angle
_geom_angle_site_symmetry_1
_geom_angle_site_symmetry_3
_geom_angle_publ_flag
Cl6 In1 Cl5 95.88(3) . . ?
Cl6 In1 Cl4 170.94(2) . . ?
Cl5 In1 Cl4 93.07(3) . . ?
N3 In1 Cl6 87.93(6) . . ?
N3 In1 Cl5 93.50(6) . . ?
N3 In1 Cl4 90.13(6) . . ?
N3 In1 N1 90.77(8) . . ?
N3 In1 N5 177.79(8) . . ?
N1 In1 Cl6 86.52(5) . . ?
N1 In1 Cl5 175.17(6) . . ?
N1 In1 Cl4 84.65(5) . . ?
N5 In1 Cl6 90.12(6) . . ?
N5 In1 Cl5 87.74(6) . . ?
N5 In1 Cl4 91.64(6) . . ?
N5 In1 N1 88.07(8) . . ?
N4 N3 In1 126.51(16) . . ?
C4 N3 In1 127.12(17) . . ?
C4 N3 N4 105.6(2) . . ?
N3 N4 H4 124.2 . . ?
C6 N4 N3 111.5(2) . . ?
C6 N4 H4 124.2 . . ?
N2 N1 In1 123.39(16) . . ?
C1 N1 In1 131.23(17) . . ?
C1 N1 N2 105.3(2) . . ?
N1 N2 H2 117(3) . . ?
C3 N2 N1 112.2(2) . . ?
C3 N2 H2 130(3) . . ?
N6 N5 In1 118.87(17) . . ?
C7 N5 In1 135.12(18) . . ?
C7 N5 N6 105.9(2) . . ?
N5 N6 H6 124.3 . . ?
C9 N6 N5 111.4(2) . . ?
C9 N6 H6 124.3 . . ?
N3 C4 H4A 125.0 . . ?
N3 C4 C5 109.9(2) . . ?
C5 C4 H4A 125.0 . . ?
C4 C5 Cl2 125.3(2) . . ?
C6 C5 Cl2 128.5(2) . . ?
C6 C5 C4 106.2(2) . . ?
N4 C6 C5 106.7(2) . . ?
N4 C6 H6A 126.6 . . ?
C5 C6 H6A 126.6 . . ?
N2 C3 H3 127.0 . . ?
N2 C3 C2 106.1(2) . . ?
C2 C3 H3 127.0 . . ?
C3 C2 Cl1 126.1(2) . . ?
C3 C2 C1 106.6(3) . . ?
C1 C2 Cl1 127.4(2) . . ?
N1 C1 C2 109.8(2) . . ?
N1 C1 H1 125.1 . . ?
C2 C1 H1 125.1 . . ?
N5 C7 H7 125.0 . . ?
N5 C7 C8 110.1(2) . . ?
C8 C7 H7 125.0 . . ?
C7 C8 Cl3 126.8(2) . . ?
C9 C8 Cl3 127.5(2) . . ?
C9 C8 C7 105.7(2) . . ?
N6 C9 C8 106.8(2) . . ?
N6 C9 H9 126.6 . . ?
C8 C9 H9 126.6 . . ?
loop_
_geom_bond_atom_site_label_1
_geom_bond_atom_site_label_2
_geom_bond_distance
_geom_bond_site_symmetry_2
_geom_bond_publ_flag
In1 Cl6 2.4411(7) . ?
In1 Cl5 2.4547(7) . ?
In1 Cl4 2.4751(7) . ?
In1 N3 2.260(2) . ?
In1 N1 2.303(2) . ?
In1 N5 2.270(2) . ?
Cl2 C5 1.711(3) . ?
Cl1 C2 1.703(3) . ?
Cl3 C8 1.704(3) . ?
N3 N4 1.350(3) . ?
N3 C4 1.330(3) . ?
N4 H4 0.8600 . ?
N4 C6 1.332(4) . ?
N1 N2 1.343(3) . ?
N1 C1 1.315(3) . ?
N2 C3 1.329(4) . ?
N2 H2 0.77(4) . ?
N5 N6 1.358(3) . ?
N5 C7 1.302(4) . ?
N6 H6 0.8600 . ?
N6 C9 1.320(4) . ?
C4 H4A 0.9300 . ?
C4 C5 1.384(4) . ?
C5 C6 1.365(4) . ?
C6 H6A 0.9300 . ?
C3 H3 0.9300 . ?
C3 C2 1.350(4) . ?
C2 C1 1.385(4) . ?
C1 H1 0.9300 . ?
C7 H7 0.9300 . ?
C7 C8 1.395(4) . ?
C8 C9 1.361(4) . ?
C9 H9 0.9300 . ?
loop_
_geom_torsion_atom_site_label_1
_geom_torsion_atom_site_label_2
_geom_torsion_atom_site_label_3
_geom_torsion_atom_site_label_4
_geom_torsion
_geom_torsion_site_symmetry_1
_geom_torsion_site_symmetry_2
_geom_torsion_site_symmetry_3
_geom_torsion_site_symmetry_4
_geom_torsion_publ_flag
In1 N3 N4 C6 -171.08(18) . . . . ?
In1 N3 C4 C5 171.23(17) . . . . ?
In1 N1 N2 C3 177.5(2) . . . . ?
In1 N1 C1 C2 -176.9(2) . . . . ?
In1 N5 N6 C9 -177.52(19) . . . . ?
In1 N5 C7 C8 176.15(18) . . . . ?
Cl2 C5 C6 N4 179.2(2) . . . . ?
Cl1 C2 C1 N1 179.2(3) . . . . ?
Cl3 C8 C9 N6 -179.6(2) . . . . ?
N3 N4 C6 C5 0.0(3) . . . . ?
N3 C4 C5 Cl2 -179.48(19) . . . . ?
N3 C4 C5 C6 -0.6(3) . . . . ?
N4 N3 C4 C5 0.6(3) . . . . ?
N1 N2 C3 C2 -0.1(4) . . . . ?
N2 N1 C1 C2 0.7(4) . . . . ?
N2 C3 C2 Cl1 -179.4(3) . . . . ?
N2 C3 C2 C1 0.5(4) . . . . ?
N5 N6 C9 C8 1.1(3) . . . . ?
N5 C7 C8 Cl3 179.1(2) . . . . ?
N5 C7 C8 C9 0.3(3) . . . . ?
N6 N5 C7 C8 0.3(3) . . . . ?
C4 N3 N4 C6 -0.4(3) . . . . ?
C4 C5 C6 N4 0.4(3) . . . . ?
C3 C2 C1 N1 -0.8(5) . . . . ?
C1 N1 N2 C3 -0.4(4) . . . . ?
C7 N5 N6 C9 -0.8(3) . . . . ?
C7 C8 C9 N6 -0.8(3) . . . . ?
