#------------------------------------------------------------------------------
#$Date: 2022-09-07 01:50:44 +0300 (Wed, 07 Sep 2022) $
#$Revision: 277696 $
#$URL: file:///home/coder/svn-repositories/cod/cif/7/71/11/7711179.cif $
#------------------------------------------------------------------------------
#
# This file is available in the Crystallography Open Database (COD),
# http://www.crystallography.net/
#
# All data on this site have been placed in the public domain by the
# contributors.
#
data_7711179
loop_
_publ_author_name
'Fraunhofer, Christina'
'Paul, Theresa'
'Oeckler, Oliver'
_publ_section_title
;
 Temperature-dependent Cu and Ag ion mobility and associated changes of
 transport properties in pavonite-type Cu1.4Ag0.4Bi5.4Se9
;
_journal_name_full               'Dalton Transactions'
_journal_paper_doi               10.1039/D2DT01651F
_journal_year                    2022
_chemical_formula_sum            'Ag0.8 Bi10.8 Cu2.8 Se18'
_chemical_formula_weight         3942.47
_space_group_crystal_system      monoclinic
_space_group_IT_number           12
_space_group_name_Hall           '-C 2y'
_space_group_name_H-M_alt        'C 1 2/m 1'
_atom_sites_solution_primary     direct
_atom_sites_solution_secondary   difmap
_audit_creation_method           SHELXL-2017/1
_audit_update_record
;
2021-06-07 deposited with the CCDC.	2022-09-05 downloaded from the CCDC.
;
_cell_angle_alpha                90
_cell_angle_beta                 99.564(9)
_cell_angle_gamma                90
_cell_formula_units_Z            1
_cell_length_a                   13.7796(15)
_cell_length_b                   4.1972(5)
_cell_length_c                   15.3805(18)
_cell_measurement_reflns_used    10803
_cell_measurement_temperature    573(2)
_cell_measurement_theta_max      24.44
_cell_measurement_theta_min      2.08
_cell_volume                     877.18(18)
_computing_structure_refinement  'SHELXL-2017/1 (Sheldrick, 2017)'
_diffrn_ambient_temperature      573(2)
_diffrn_measured_fraction_theta_full 0.989
_diffrn_measured_fraction_theta_max 0.990
_diffrn_measurement_device_type  'Stoe Stadivari'
_diffrn_radiation_type           AgK\a
_diffrn_radiation_wavelength     0.56083
_diffrn_reflns_av_R_equivalents  0.0418
_diffrn_reflns_av_unetI/netI     0.0387
_diffrn_reflns_Laue_measured_fraction_full 0.989
_diffrn_reflns_Laue_measured_fraction_max 0.990
_diffrn_reflns_limit_h_max       16
_diffrn_reflns_limit_h_min       -13
_diffrn_reflns_limit_k_max       5
_diffrn_reflns_limit_k_min       -5
_diffrn_reflns_limit_l_max       17
_diffrn_reflns_limit_l_min       -19
_diffrn_reflns_number            4831
_diffrn_reflns_point_group_measured_fraction_full 0.989
_diffrn_reflns_point_group_measured_fraction_max 0.990
_diffrn_reflns_theta_full        19.664
_diffrn_reflns_theta_max         20.506
_diffrn_reflns_theta_min         2.119
_exptl_absorpt_coefficient_mu    40.534
_exptl_absorpt_correction_T_max  0.4966
_exptl_absorpt_correction_T_min  0.1734
_exptl_absorpt_correction_type   multi-scan
_exptl_absorpt_process_details   '(Blessing, 1995)'
_exptl_crystal_density_diffrn    7.463
_exptl_crystal_description       'irregular polyhedron'
_exptl_crystal_F_000             1627
_exptl_crystal_size_max          0.080
_exptl_crystal_size_mid          0.078
_exptl_crystal_size_min          0.042
_refine_diff_density_max         2.534
_refine_diff_density_min         -1.149
_refine_diff_density_rms         0.362
_refine_ls_extinction_coef       0.00151(16)
_refine_ls_extinction_expression Fc^*^=kFc[1+0.001xFc^2^\l^3^/sin(2\q)]^-1/4^
_refine_ls_extinction_method     'SHELXL-2017/1 (Sheldrick 2017)'
_refine_ls_goodness_of_fit_ref   1.028
_refine_ls_hydrogen_treatment    undef
_refine_ls_matrix_type           full
_refine_ls_number_parameters     75
_refine_ls_number_reflns         1012
_refine_ls_number_restraints     4
_refine_ls_restrained_S_all      1.026
_refine_ls_R_factor_all          0.0675
_refine_ls_R_factor_gt           0.0385
_refine_ls_shift/su_max          0.001
_refine_ls_shift/su_mean         0.000
_refine_ls_structure_factor_coef Fsqd
_refine_ls_weighting_details
'w=1/[\s^2^(Fo^2^)+(0.0547P)^2^] where P=(Fo^2^+2Fc^2^)/3'
_refine_ls_weighting_scheme      calc
_refine_ls_wR_factor_gt          0.0846
_refine_ls_wR_factor_ref         0.0959
_reflns_Friedel_coverage         0.000
_reflns_number_gt                726
_reflns_number_total             1012
_reflns_threshold_expression     'I > 2\s(I)'
_cod_data_source_file            d2dt01651f2.cif
_cod_data_source_block           CF215A_K3_300
_cod_original_sg_symbol_H-M      'C 2/m'
_cod_original_formula_sum        'Ag0.80 Bi10.80 Cu2.80 Se18'
_cod_database_code               7711179
_shelx_shelxl_version_number     2017/1
_shelx_space_group_comment
;
The symmetry employed for this shelxl refinement is uniquely defined
by the following loop, which should always be used as a source of
symmetry information in preference to the above space-group names.
They are only intended as comments.
;
_shelx_res_file
;
TITL CF215A_K3_300 in C2/m
    CF215A_K3_300.res
    created by SHELXL-2017/1 at 18:13:43 on 22-Jan-2021
CELL 0.56083  13.7796   4.1972  15.3805  90.0000  99.564  90.0000
ZERR    1.00   0.0015   0.0005   0.0018   0.0000   0.009   0.0000
LATT  7
SYMM -X, Y, -Z
SFAC CU SE AG BI
UNIT 2.8 18 0.8 10.8

L.S. 20
BOND
FMAP 2
PLAN 20

ACTA

SHEL 0.8 10000

OMIT 2 0 1
OMIT 2 0 2
OMIT 2 0 0

EXYZ BI1 AG1
EADP BI1 AG1

EXYZ BI2 AG2
EADP BI2 AG2

SUMP 6.8 0.001 4 2 4 4
SUMP 0.8 0.001 4 3 4 5
SUMP 2.8 0.001 4 6 4 8 4 9 4 10 4 11
SUMP 1 0.001 1 4 1 5 1 6

WGHT    0.054700
EXTI    0.001512
FVAR       0.03546   0.90452   0.06186   0.79545   0.13813   0.06641   0.89834
FVAR       0.10554   0.11822   0.22936   0.18047
BI1   4    0.451333    0.000000    0.189461    20.50000    0.04562    0.03906 =
         0.04038    0.00000    0.01011    0.00000
AG1   3    0.451333    0.000000    0.189461    30.50000    0.04562    0.03906 =
         0.04038    0.00000    0.01011    0.00000
BI2   4    0.151779    0.000000    0.063979    40.50000    0.03944    0.03813 =
         0.04912    0.00000    0.00907    0.00000
AG2   3    0.151779    0.000000    0.063979    50.50000    0.03944    0.03813 =
         0.04912    0.00000    0.00907    0.00000
CU2   1    0.141544    0.000000    0.013952    60.50000    0.14695
BI3   4    0.243253    0.000000    0.622186    10.50000    0.06405    0.05550 =
         0.04595    0.00000   -0.00532    0.00000
SE1A  2    0.402518    0.000000    0.359942    70.50000    0.03972    0.03599 =
         0.02700    0.00000    0.01317    0.00000
SE1B  2    0.384641    0.000000    0.324696   -70.50000    0.04803
SE2   2    0.793276    0.000000    0.124476    10.50000    0.03304    0.02965 =
         0.07124    0.00000    0.00012    0.00000
SE3   2    0.138311    0.000000    0.455669    10.50000    0.03505    0.03383 =
         0.03252    0.00000    0.00506    0.00000
SE4   2    0.094209    0.000000    0.230513    10.50000    0.03658    0.03481 =
         0.04300    0.00000    0.00079    0.00000
SE5   2    0.000000    0.500000    0.000000    10.25000    0.03378    0.03071 =
         0.03230    0.00000    0.00416    0.00000
CU3   1   -0.022789    0.000000    0.438089    80.50000    0.10213
CU4   1    0.452282    0.000000    0.534817    90.50000    0.05824
CU5   1    0.000000    0.313550    0.500000   100.50000    0.06520
CU6   1    0.490798    0.000000    0.512740   110.50000    0.03606
HKLF 4




REM  CF215A_K3_300 in C2/m
REM R1 =  0.0385 for     726 Fo > 4sig(Fo)  and  0.0675 for all    1012 data
REM     75 parameters refined using      4 restraints

END

WGHT      0.0547      0.0000

REM Highest difference peak  2.534,  deepest hole -1.149,  1-sigma level  0.362
Q1    1   0.5016  0.0000  0.2359  10.50000  0.05    2.53
Q2    1   0.2532  0.0000  0.6777  10.50000  0.05    2.33
Q3    1   0.8126  0.0000  0.0739  10.50000  0.05    2.28
Q4    1   0.1943  0.0000  0.5743  10.50000  0.05    2.02
Q5    1   0.1928  0.0000  0.1187  10.50000  0.05    1.82
Q6    1   0.4085  0.0000  0.1330  10.50000  0.05    1.76
Q7    1   0.4321  0.0000  0.4088  10.50000  0.05    1.62
Q8    1   0.1096  0.0000  0.0096  10.50000  0.05    1.53
Q9    1   0.2942  0.0000  0.6179  10.50000  0.05    1.31
Q10   1   0.1917  0.0000  0.5144  10.50000  0.05    1.25
Q11   1   0.3609  0.0000  0.3108  10.50000  0.05    1.25
Q12   1   0.0269  0.5000  0.0471  10.50000  0.05    1.20
Q13   1   0.0098  0.0000  0.3410  10.50000  0.05    1.14
Q14   1   0.0736  0.0000  0.1718  10.50000  0.05    1.11
Q15   1  -0.0225  0.1378  0.4675  11.00000  0.05    1.10
Q16   1   0.1357 -0.5000  0.2232  10.50000  0.05    1.02
Q17   1   0.2961  0.0000  0.2052  10.50000  0.05    1.01
Q18   1   0.3219  0.0000  0.7192  10.50000  0.05    0.90
Q19   1   0.3092  0.0000  0.4907  10.50000  0.05    0.88
Q20   1   0.0876  0.0000  0.4197  10.50000  0.05    0.87
;
_shelx_res_checksum              55614
_shelx_hkl_file
;
 -13  -1   2    0.10    0.84
  -7   3  -4    3.83    0.94
   5   1  -4  505.33    2.77
   0  -2   1    5.67    0.79
   5  -3  -2   22.47    0.97
  -4   2  -2   -0.13    0.70
   7   1  -6   36.51    1.16
   9   1  -8    1.65    1.05
 -10   0   2   10.00    0.82
  -1   1  -1    0.36    0.52
   3   1  -3  144.68    1.38
   4   2  -6    1.57    1.17
  -5   3  -5    1.90    1.05
  -3  -1   2  112.78    1.39
   1   1  -2  243.55    1.65
   2   0  -1    8.26    0.17
   7  -3  -3    0.12    0.66
  -7  -1   3    3.09    1.06
  -7   3  -5    1.09    0.90
  -6   2  -2  215.40    1.92
   0   2  -4   39.34    1.26
   1  -3   1   -0.99    1.09
   2   2  -5  351.39    3.00
 -13  -1   3    4.04    1.21
  -4  -2   3    0.61    1.04
   6  -2  -2    2.73    0.53
  -5   1   0    1.63    0.27
   4   2  -7   23.21    1.42
   5   1  -5   94.27    1.37
   9   1  -9   11.80    1.08
  -6   0   2   10.95    0.54
   5  -3  -1    2.66    0.73
   6   0  -4  243.51    1.40
  -5  -1   3  236.11    2.07
  -4   2  -3    7.91    0.92
   2   2  -6   25.28    1.38
   8   0  -6    7.59    0.56
  -6  -2   4  125.42    2.11
  -2  -2   3    6.67    0.94
   0   2  -5   85.24    1.65
   1  -3   2   -0.58    1.05
   3   1  -4   72.34    1.15
 -11  -1   4    0.32    1.00
  -9  -1   4    0.88    1.05
   3  -3   1  284.86    2.60
   7   1  -8   79.96    1.58
 -13  -1   4    3.99    1.04
  -6   2  -3    3.78    0.74
  -4  -2   4   21.00    1.31
  -1  -1   2  254.64    1.73
   1  -1   1   -0.52    0.54
   2   2  -7    4.40    1.25
   5   1  -6   -0.07    0.78
   7  -3  -2   11.92    0.73
  -7  -1   4    1.57    0.93
   1   1  -3    1.13    0.62
  -8   2  -3    8.78    0.82
  -4   2  -4   50.53    1.40
  -3  -1   3  147.33    1.56
   0   2  -6    0.86    1.01
   5  -3   0    1.27    0.74
 -10   0   3    2.65    0.71
  -6  -2   5   88.61    1.79
  -1   1  -2    8.55    0.59
   7   1  -9   96.89    1.80
   8   0  -7    5.99    0.73
   9  -1  -6    9.90    0.43
  10   0 -10    1.33    0.79
 -12   0   3    1.50    0.63
  -2  -2   4  214.68    2.32
   0  -2   3    0.55    0.86
 -11  -1   5    0.42    1.10
  -5  -1   4  494.58    2.94
   0   2  -7  115.15    1.96
   3  -3   2    5.58    1.01
   3   1  -5   48.06    0.96
 -13  -1   5   -0.52    1.17
  -9  -1   5  118.46    2.10
  -8   0   3  504.60    2.28
  -6   2  -4    1.26    0.77
  -4  -2   5   39.13    1.53
   6   0  -5  169.36    1.33
   7   1 -10  112.14    2.01
  -4   2  -5   57.76    1.49
   6  -2  -1    0.92    0.47
   7  -3  -1    7.57    0.70
  -8   2  -4   55.62    1.30
  -4   0   2   50.17    0.66
   5  -3   1   -0.37    0.87
   8  -2  -3  315.79    1.29
  -7  -1   5    8.45    1.08
   1   1  -4   12.65    0.78
  -6   2  -5   22.60    1.23
   3   1  -6  210.21    2.02
  -3  -1   4   74.69    1.29
  -2  -2   5  343.93    3.06
  -1  -1   3    0.46    0.67
   3  -3   3   -0.23    0.97
 -11  -1   6    8.53    1.04
  -8   2  -5    0.62    0.92
  -4  -2   6    3.78    0.85
   8   0  -9   13.65    1.04
  -9  -1   6    9.94    1.19
  -6   0   3   48.41    0.80
  -5  -1   5   93.86    1.54
  -1   1  -3   34.99    0.82
   6   0  -6   28.76    0.82
  -6   2  -6   -0.58    1.02
  -4   2  -7  106.22    1.99
   1  -1   2   10.25    0.66
   3   1  -7    9.03    0.97
   5  -3   2   14.59    1.08
   7  -3   0    9.98    0.74
 -10   0   4    1.11    0.71
  -8   2  -6   -0.47    0.94
  -5   1  -1    0.52    0.35
   1   1  -5   20.64    0.89
   8   0 -10   51.52    1.42
  -7  -1   6   36.50    1.32
  -6   2  -7   40.79    1.54
  -2  -2   6   25.36    1.31
   3  -3   4    7.98    1.09
   0  -2   5   88.88    1.70
 -11  -1   7   10.53    1.04
  -8   2  -7   -0.20    0.83
   4  -2   2    0.50    0.62
   8   0 -11    3.33    0.93
  -3  -1   5   47.55    1.48
 -11  -1  -1    8.51    0.79
  -6   0  -4    5.96    0.55
   2   0   0    3.26    0.10
  -9  -1   2    1.91    1.25
  10   0  -5    5.59    1.24
  -7  -1   4    0.65    1.42
  -1  -1   6  161.85    2.29
   8   0  -3  476.17    2.78
  10   0  -6    0.53    1.33
 -11  -1   0    3.86    0.89
   6  -2   9    2.58    1.39
  -9  -1   3   21.49    1.56
  -6   0 -12   21.80    1.46
  -6   0 -11   -0.17    1.23
  -6   0  -5   48.90    0.95
  -7  -1   5    8.56    1.61
  -6   0 -10   15.70    1.42
  -5  -1   6    0.67    1.47
   6   0  -2   11.40    0.61
   8   0  -4   74.77    1.46
  10   0  -8   95.93    2.25
  -6   0  -9    2.45    1.08
  -6   0  -8   91.15    1.81
  -6   0  -7   63.02    1.43
  -6   0  -6    2.98    0.77
  -1  -1   7  148.53    2.53
 -11  -1   1    3.84    1.03
  -3  -1   7   10.43    1.60
   4   0  -1  108.69    0.92
   7  -1   5    7.04    0.89
   8   0  -5    1.08    1.07
  -9  -1   4    0.85    1.43
  -4   0 -12    3.85    1.51
  -5  -1   7   14.89    1.77
  -4   0 -11    2.75    1.57
   8   0  -9   12.86    1.88
   8   0  -8   28.01    1.95
  -4   0 -10    5.71    1.43
  -3  -1   8    3.02    1.81
  -4   0  -9  106.93    2.23
  -5  -1   8    9.54    1.92
  -4   0  -8   85.50    1.93
  -2   0 -11   54.40    2.24
   6   0  -9   18.01    1.92
   9  -1   4    6.28    0.73
  -9  -1   6   10.55    1.96
  -4   0  -7  154.05    2.07
  -2   0 -10   16.23    1.81
  -1  -1   9   17.65    2.00
   4   0  -2   48.90    0.92
   6   0  -7    0.37    1.40
  -4   0  -5   90.03    1.36
  -4   0  -4   73.61    1.08
  -3  -1   9   20.79    2.23
   0   0 -10    1.34    1.61
   2   0 -10   23.94    1.93
   4   0 -10  314.23    3.86
 -11  -1   4    0.74    1.26
   4   0  -8  129.72    2.58
   4   0  -3    2.87    0.80
   0   0  -9   21.31    1.30
   2   0  -9   31.71    1.61
   4   0  -6    1.31    1.12
   4   0  -5   62.31    1.50
   4   0  -4   33.90    1.16
 -11  -1   5   -0.11    1.40
  -1  -1  10   66.66    2.20
   0   0  -8   -0.51    1.37
   2   0  -8  118.91    2.16
   2   0  -7    4.76    1.24
   2   0  -1    8.47    0.33
   3  -1   9    2.37    1.72
   0   0  -7  221.87    2.55
 -11  -1   6    8.08    1.54
  -2   0  -5  164.38    1.79
   0   0  -6    1.87    0.96
   2   0  -5  446.03    3.07
  -2   0  -4   89.57    1.21
   0   0  -5  133.07    1.77
  -2   0  -3  190.13    1.41
   0   0  -4   53.83    1.26
   9  -1   5    0.27    0.70
  11  -1   0    4.97    0.58
  -2   0  -2   72.53    0.70
   0   0  -3    3.09    0.70
  -2   0  -1   25.54    0.20
  11  -1  -6    8.52    1.51
   0   0  -2    6.31    0.32
  11  -1  -5   -0.46    1.02
  11  -1  -4    2.01    1.06
  11  -1  -1    4.42    0.67
 -13  -1   6    6.53    1.59
  -7  -1 -11    1.85    1.23
  -2   0   1    8.90    0.42
  11  -1  -3   75.89    1.52
  -2   0   2    8.78    0.68
   5  -1  11    0.07    1.29
   9  -1  -8    1.11    1.60
  -2   0   3   29.36    1.17
  -5  -1 -11   -1.20    1.49
  -4   0   3    2.53    0.89
  -2   0   4  382.23    2.77
   9  -1  -7   61.70    2.17
 -11   1   3   73.17    1.64
  -9   1   4   -0.40    0.81
  -3  -1  -9    1.34    1.42
  -2   2   8   73.52    1.32
  -1  -1  -9   37.29    1.37
  -1   3  10   26.04    1.33
   3  -1 -12   11.72    0.91
  -6   0   0   16.62    0.91
   2   2   7    0.09    1.05
   3  -1 -11    1.43    0.68
   7   1   1   13.43    1.23
  11   1  -3   77.01    2.04
  -1  -1  -8   29.24    1.15
 -10   0  -1    3.50    1.36
   1   1   4    0.41    0.54
   4   0  -2   45.79    0.65
   5   1   2   78.49    1.52
  -3  -1  -7   34.23    1.31
   3  -1 -10   39.92    0.91
   3   1   3    2.39    0.68
   8   0  -6    7.55    0.63
  11   1  -4    0.46    1.11
 -11   1   4    0.96    0.78
  -7   1   5    9.31    0.51
   0   2   7  119.09    1.66
 -13   1   3    3.29    0.92
  -5  -1  -6    4.21    1.21
  -3  -1  -6  127.17    1.91
  -1   3   9    6.07    1.02
   6   0  -4  252.44    1.56
   7   1   0   25.13    1.27
  -4   0   1  113.74    1.09
   2   0  -1    8.46    0.25
   3  -1  -9   23.01    0.77
  11   1  -5    1.33    1.18
  -8   0   1   35.69    1.14
   5  -1 -12   23.82    0.65
  -3  -1  -5   16.19    0.94
  -2   2   7    4.34    0.69
   5   1   1    0.81    0.75
   8   0  -7    6.10    0.68
 -13   1   4    2.08    0.94
  -3   3   9    4.40    0.66
   6   2   3    4.24    1.24
   7   1  -1   38.62    1.28
   9   1  -3   26.10    1.31
  11   1  -6   10.98    1.18
  -5  -1  -4    4.36    1.04
 -11   1   5    0.70    0.69
  -1  -1  -5  435.74    2.48
   0   2   6    1.51    0.77
   3   1   2   10.64    0.61
   5  -1 -11   14.52    0.56
  -3  -1  -4   16.76    0.88
  -1   3   8    7.00    0.84
   1   1   3   35.27    0.77
   9   1  -4    1.43    1.20
  11   1  -7   11.16    1.13
 -10   0   2    7.26    1.14
  -7  -1  -3   27.04    1.41
   1   3   7   41.08    1.43
   3  -1  -8    4.23    0.52
   6   0  -5  179.01    1.24
   5   1   0    3.25    0.67
 -12   0   2    5.11    1.03
  11   1  -8    8.98    1.04
  -7  -1  -2    5.81    1.08
  -3   3   8    1.73    0.68
   4   2   3    7.35    1.04
   9   1  -5  121.47    1.90
  -3  -1  -3    2.59    0.67
  -1  -1  -4    0.32    0.55
   6   2   1  277.15    2.87
  -2   2   6   24.15    0.83
   1   3   6   64.17    1.57
   2   2   4   36.87    1.15
  11   1  -9    8.21    1.02
 -12   0   3    1.09    1.06
 -10   0   3    1.52    0.86
  -8   0   3  486.24    2.79
  -4   0   2   51.10    0.76
   0  -2 -13    6.79    1.14
   0   2   5   86.73    1.31
   3   1   1  697.55    2.88
  -7  -1  -1   11.86    1.18
   5   1  -1    8.07    0.75
  -3   1  -7   42.53    1.09
  -1   1 -10   59.60    1.07
   0   0   4   46.34    0.31
   4   0  -7   58.23    0.77
   4   0  10    2.62    0.62
  -5   1  -3  358.80    2.78
   8   0  -9   12.39    1.02
   6   0  -8   52.26    1.09
   6   0  10   16.00    1.02
  -5   1  -4    3.94    0.96
  -5   1  10    8.39    0.77
   8   0  -8   29.73    1.24
  10   0  -8   91.49    2.06
  -7   1   3    2.01    1.20
   2   0   7    0.83    0.50
   4   0   8   84.84    1.56
   6   0  -7    0.61    0.78
  10   0  -7   59.97    2.00
  -7   1   1   39.82    1.66
  -7   1   2   20.99    1.08
  -5   1  11   12.52    0.88
  -1   1 -11    0.65    0.78
   0   0   3    3.18    0.13
   4   0  -6    0.76    0.46
   6   0   8   95.32    1.96
   8   0  -7    6.00    1.18
  -7   1  -1   13.57    1.46
  -5   1  -6    6.27    1.28
   2   0  -4  384.11    1.27
   8   0   7   -0.35    1.35
  10   0  -6    0.25    1.40
  -7   1   7   15.20    1.27
   2   0   6  106.76    1.24
   4   0   7  152.34    1.92
   6   0  -6   34.36    1.17
   8   0  -6    6.40    1.22
   8   0   6   -0.02    1.41
  10   0  -5    4.44    1.51
  -7   1   8   80.75    1.87
   4   0   6  201.31    2.12
   6   0   6    2.83    1.16
  10   0  -3    2.69    1.56
  -7   1   9   97.09    1.89
  -5   1  12   24.37    0.93
   8   0   3   26.31    1.72
   8   0   4  105.29    2.18
  -5   1  -8    2.24    1.27
   8   0  -2   34.26    1.76
   8   0   1   72.78    2.12
   8   0   2   92.43    2.33
  -7   1  10  110.58    2.03
  -1   1 -12    2.18    0.77
   2   0  -3   29.43    0.56
   4   0  -4   35.11    0.89
   8   0   0   30.14    1.72
  -9   1   5  122.28    2.67
  -9   1   6   10.59    1.64
   2   0   4   95.28    1.09
   4   0   4   77.43    1.40
   6   0  -3   48.25    1.33
   6   0   2  377.68    3.31
   6   0   3    0.98    0.85
  -5   1  -9   18.61    1.43
   4   0  -3    2.63    0.67
   4   0   3    7.67    0.84
   6   0  -2   10.41    0.83
   6   0  -1    3.58    0.94
   6   0   1  413.56    3.32
  -9   1   8    0.58    1.50
  -7   1  11   44.66    1.34
   2   0   3  206.18    1.48
   4   0  -2   43.97    1.02
   2   0  -2    8.12    0.37
   4   0   0    1.66    0.83
   4   0   1   -1.00    0.81
   4   0   2    2.13    0.55
  -9   1   9   11.41    1.19
  -5   1 -10   40.76    1.47
   2   0   2   72.15    0.84
  -7   1  12   -0.04    0.55
   2   0   1   33.02    0.56
  -3   1 -12   -0.27    0.62
   2   0   0    4.04    0.32
   9   1 -11    1.25    0.56
   1  -3  11    0.48    0.73
   3  -3   6   35.13    1.37
   6  -4   9    1.52    1.46
  10  -4   3    0.66    1.37
  12  -4   1   -0.53    1.43
  13  -5  10    0.37    1.74
  13  -3  -4    2.33    1.54
  14  -4   0    1.18    1.62
  15  -3  -5    0.52    1.30
  16  -4  -1    0.74    1.65
  19  -3  -6    0.36    1.69
  21  -3  -6    0.19    1.56
   1  -3  12   -0.07    0.70
   4  -2   0   -0.28    0.82
   5  -3   3  112.90    2.04
   6  -4  10    3.68    1.33
   9  -3  -1    2.08    1.22
   9  -1  -7   55.63    1.16
  12  -4   2   -1.07    1.49
  16  -4   0   -0.62    1.73
  16  -2  -8   -0.52    1.22
  17  -3  -5   -0.08    1.47
   0  -2   7  118.65    1.41
   2  -2   3  106.23    1.44
   3  -3   7    7.09    1.08
   6  -4  11    0.95    1.17
   6  -2  -2    2.84    0.86
   7  -3   1    5.70    1.10
   8  -4   7    0.48    1.30
  10  -4   4    0.43    1.26
  10  -2  -5    0.74    0.97
  11  -3  -2   92.28    2.26
  11  -1  -8    8.66    0.84
  13  -1  -9   -0.65    0.76
  14  -4   1    0.22    1.47
  14  -2  -7    8.75    1.38
  15  -3  -4    1.45    1.33
  18  -4   0   -0.13    1.91
  18  -2  -8   -0.12    1.27
  19  -3  -5    6.17    1.71
  21  -3  -5   -0.55    1.55
   5  -3   4    1.72    1.02
   6  -4  12    3.23    1.22
   6  -4  13    0.25    1.14
   6  -4  14   -0.55    1.27
   8  -4   8    2.92    1.29
  10  -4   5    2.99    1.38
  12  -2  -6    1.35    1.07
  14  -4   2    0.72    1.61
  16  -4   1    2.92    1.53
  17  -3  -4   -0.73    1.37
  18  -4   1    1.60    1.70
   7  -3   2    1.27    1.12
   8  -4   9    1.97    1.24
   8  -2  -3  312.96    2.89
   9  -3   0    3.81    1.20
  12  -4   4    4.05    1.53
  14  -4   3    0.65    1.58
  15  -3  -3    1.62    1.29
  16  -4   2    0.45    1.72
  16  -2  -7   20.28    1.61
  18  -4   2    2.20    1.58
  19  -3  -4    1.18    1.68
  21  -3  -4    1.69    1.58
   3  -3   9   -0.07    0.92
   4  -2   1    3.48    0.81
   6  -2  -1    0.90    0.85
   7  -1  -5    8.44    0.75
   8  -4  10   -0.20    1.27
   8  -4  11    1.52    1.36
  11  -3  -1    2.44    1.33
  14  -4   4   -0.51    1.55
  14  -2  -6   -0.29    1.10
  16  -4   3   -0.32    1.69
  17  -3  -3   -1.91    1.38
  18  -4   3    0.77    1.64
  18  -2  -7    0.98    1.24
  21  -3  -3   -1.09    1.61
   0  -2   8    0.65    0.59
   3  -3  10   14.10    1.11
   7  -3   3    9.26    1.20
   8  -4  12   -0.71    1.27
   8  -4  13   12.20    1.45
   8  -4  14    0.27    1.28
   9  -3   1    1.46    1.31
  10  -4   8    9.68    1.62
  10  -2  -4   -0.66    0.98
  12  -4   6    0.60    1.58
  12  -2  -5    3.69    1.22
  14  -4   5    1.82    1.65
  16  -4   4    0.78    1.68
  18  -4   4    1.48    1.56
  19  -3  -3   -0.08    1.65
   3  -3  11   15.51    1.20
   5  -3   6    1.26    0.93
   9  -1  -6   10.15    0.88
  10  -4   9    3.79    1.45
  10  -4  10   -1.25    1.36
  11  -3   0    1.19    1.31
  11  -1  -7   10.21    0.96
  13  -3  -1   -1.59    1.48
  13  -1  -8   27.98    1.16
  14  -4   6    0.36    1.67
  16  -4   5    0.16    1.68
  17  -3  -2    0.33    1.47
  18  -4   5    1.74    1.77
  19  -3  -2    1.07    1.46
  21  -3  -2   -0.40    1.61
   0  -2   9    8.40    0.78
   3  -3  12    1.79    0.98
   5  -3   7   11.20    1.14
   7  -3   4    5.22    1.16
   8  -2  -2   15.15    1.18
  10  -4  11    1.75    1.36
  10  -4  12    0.60    1.33
  10  -4  13    0.68    1.45
  12  -4   9   -0.39    1.42
  14  -4   7    0.63    1.61
  14  -2  -5    0.04    1.14
  16  -4   6    0.66    1.77
  16  -4   7   -0.37    1.80
  18  -2  -6    0.56    1.18
  20  -2  -6    1.48    1.44
  21  -3  -1   -0.83    1.67
   2  -2   5   82.93    1.37
   3  -3  13    0.74    0.91
   4  -2   2    0.04    0.58
   6  -2   0   11.30    1.07
  10  -4  14    0.04    1.27
  10  -4  15   -0.14    1.41
  11  -3   1    1.71    1.41
  12  -4  10   -0.33    1.56
  12  -4  11    0.98    1.57
  12  -2  -4   14.09    1.30
  13  -3   0    8.79    1.46
  15  -1  -8    2.20    1.09
  17  -3  -1   10.59    1.67
  19  -3  -1   -0.29    1.71
  22  -2  -5    4.49    1.53
   5  -3   8    0.72    1.03
   7  -3   5    2.37    1.00
  12  -4  12   -0.66    1.49
  12  -4  13    0.56    1.61
  12  -4  14    2.61    1.35
  12  -4  15   -0.67    1.47
  12  -4  16    0.31    1.28
  14  -4  10    3.07    1.69
  14  -4  11   -0.37    1.57
  14  -4  12   -0.67    1.44
  14  -4  13   -0.73    1.61
  15  -3   0    0.73    1.35
  16  -4   9    1.44    1.62
  16  -2  -5    2.67    1.43
  18  -2  -5    2.87    1.28
  19  -3   0   -2.66    1.56
  20  -2  -5    0.34    1.40
  21  -3   0   -0.34    1.69
   0  -2  10    0.85    0.62
   7  -1  -4    1.54    0.67
   8  -2  -1   14.41    1.20
   9  -3   4    1.43    1.27
  11  -3   2    0.40    0.92
  13  -3   1    1.28    1.22
  13  -1  -7   66.27    1.57
  14  -2  -4    0.02    1.23
  21  -3   1   -1.56    1.67
  22  -2  -4    2.67    1.53
   2  -2   6   49.94    1.15
   4  -2   3    7.92    0.90
   5  -3  10   12.24    1.21
   6  -2   1  279.70    2.59
   9  -1  -5  118.25    1.68
  10   0  -8   95.32    1.22
  11  -3   3    4.19    1.45
  11  -1  -6    9.74    1.00
  12  -2  -3    2.42    1.10
  13  -3   2    0.47    1.25
  15  -3   1    1.17    1.23
  16  -2  -4    1.72    1.35
  17  -3   1   -0.42    1.48
  18  -2  -4    2.40    1.40
  20  -2  -4    1.50    1.41
   0  -2  11   35.52    0.93
   5  -3  11   -0.01    1.06
   5  -3  12   27.87    1.45
   7  -3   7   18.01    1.32
   9  -3   5   -0.35    1.24
  15  -3   2    1.12    1.38
  15  -1  -7    1.47    0.99
  17  -3   2    1.71    1.45
  19  -3   2    0.63    1.78
  22  -2  -3    0.52    1.54
   0  -2  12   28.14    0.95
   7  -3   8   62.81    1.94
   8  -2   0    9.20    1.14
   9  -3   6   15.40    1.55
  11  -3   4    7.62    1.51
  13  -3   3    0.78    1.19
  14  -2  -3    1.38    1.24
  15  -3   3    9.51    1.58
  16  -2  -3   -0.79    1.47
  17  -3   3    1.43    1.53
  17  -1  -7    0.25    1.07
  18  -2  -3    0.58    1.49
  19  -3   3    0.27    1.67
  20  -2  -3   -0.04    1.44
  22  -2  -2   -0.87    1.56
   2  -2   7    0.64    0.70
   4  -2   4   50.62    1.28
   6  -2   2  214.17    2.33
   7  -3   9   -0.72    1.15
  10  -2  -1    5.28    1.10
  11  -3   5   13.39    1.70
  13  -3   4    5.36    1.37
  13  -1  -6    7.97    0.99
  15  -3   4   10.20    1.52
  17  -3   4    1.93    1.50
   7  -3  10    3.66    1.16
   7  -3  11    1.47    1.15
  11  -3   6   -0.23    1.30
  13  -3   5    0.79    1.39
  14  -2  -2   62.49    2.13
  15  -3   5    6.81    1.55
  18  -2  -2    0.67    1.30
  19  -3   5    0.61    1.51
  19  -3   6   -1.04    1.56
  20  -2  -2   -0.14    1.50
  22  -2  -1   -1.04    1.50
   2  -2   8   20.72    0.93
   7  -3  12   -0.30    1.29
   7  -3  13   -0.12    1.21
   7  -3  14    0.20    1.26
   7  -3  15    9.20    1.39
   7  -3  16   -0.62    1.18
   9  -3   9    3.81    1.49
   9  -1  -4    0.35    0.82
  11  -3   7    1.56    1.16
  11  -1  -5    0.10    0.84
  12  -2  -1   -0.87    1.17
  13  -3   6   -0.14    1.35
  15  -3   6    1.68    1.45
  15  -1  -6    4.31    1.10
  16  -2  -2    0.72    1.23
  17  -3   6    2.74    1.77
  17  -1  -6    3.60    1.34
  19  -3   7   -0.20    1.66
  19  -1  -6    8.15    1.34
  20  -2  -1    0.69    1.63
  22  -2   0   -0.61    1.47
   6  -2   3    3.72    1.03
   9  -3  10    2.38    1.33
   9  -3  11    2.81    1.14
  10  -2   0   29.25    1.38
  12   0  -8   32.39    0.95
  13  -3   7    0.97    1.38
  15  -3   7    3.38    1.61
  16  -2  -1   -0.09    1.20
  17  -3   7   -0.79    1.58
  17  -3   8    1.62    1.72
  18  -2  -1   -0.10    1.40
  22  -2   1    0.11    1.74
   2  -2   9   13.24    0.88
   9  -3  12    1.34    1.24
   9  -3  13    1.82    1.19
   9  -3  14    1.08    1.19
   9  -3  15   -0.15    1.19
   9  -3  16    0.35    1.19
   9  -3  17   -0.10    1.44
  11  -3  10    4.87    1.40
  12  -2   0    0.83    1.06
  13  -3   8    1.30    1.40
  13  -1  -5    0.05    0.92
  15  -3   8    1.14    1.45
  15  -3   9    0.16    1.56
  17  -3  10    0.62    1.61
  19  -1  -5    9.03    1.37
  20  -2   0    3.49    1.57
   2  -2  10    7.73    0.90
   5  -1  -1    7.36    0.56
   6  -2   4    0.26    1.00
   8  -2   2   41.60    1.25
  10  -2   1    3.30    1.12
  10   0  -7   58.48    1.16
  11  -3  11    3.82    1.32
  11  -3  12    0.30    1.34
  11  -3  13    2.65    1.37
  11  -3  14    4.80    1.43
  11  -3  15    0.08    1.41
  11  -3  16    0.11    1.43
  11  -3  17   -1.32    1.40
  13  -3  11   -0.05    1.61
  13  -3  12   -1.55    1.58
  13  -3  13   -1.12    1.41
  13  -3  14   -0.69    1.45
  13  -3  15    0.90    1.39
  13  -3  16    3.40    1.51
  13  -3  17    0.47    1.32
  15  -3  12    1.72    1.66
  15  -3  13    0.87    1.64
  15  -3  14    1.78    1.63
  15  -3  15   -2.13    1.53
  15  -1  -5    2.76    1.15
  17  -1  -5    0.96    1.19
  18  -2   0    1.00    1.29
  20  -2   1   -0.40    1.79
  21  -1  -4    1.51    1.48
  22  -2   2    0.81    1.58
  23  -1  -3    0.91    1.54
  11  -1  -4    2.53    0.91
  12  -2   1    2.81    1.17
  18  -2   1   -1.72    1.70
  19  -1  -4   -1.97    1.36
  20  -2   2    0.52    1.68
   2  -2  11   35.10    1.08
   8  -2   3   11.12    1.18
   9  -1  -3   23.02    1.08
  10  -2   2    1.09    1.13
  13  -1  -4    1.83    1.03
  14  -2   1   -0.53    1.47
  17  -1  -4    1.73    1.45
  21  -1  -3    0.59    1.53
  23  -1  -2    0.74    1.35
   2  -2  12  105.20    1.65
   2  -2  13    5.07    0.88
   4  -2   8   41.87    1.47
   6  -2   5   23.26    1.04
  12  -2   2    4.04    1.33
  14  -2   2    3.10    1.47
  15  -1  -4    1.81    1.27
  16  -2   2   -0.10    1.42
  18  -2   3    0.40    1.45
  19  -1  -3    0.63    1.43
  20  -2   4    0.36    1.80
  23  -1  -1   -0.41    1.66
   2  -2  14    2.88    0.72
   6  -2   6   -0.03    1.03
   8  -2   4   61.81    1.73
  10  -2   3    1.60    1.20
  16  -2   3   -0.34    1.32
  18  -2   4    1.77    1.60
  20  -2   5    0.46    1.93
  20  -2   6    1.78    1.61
  21  -1  -2    0.43    1.65
  23  -1   0   -0.71    1.55
   4  -2   9   55.47    1.47
   5  -1   0    2.37    0.58
   8  -2   5   -0.29    1.04
  10  -2   4    5.20    1.16
  13  -1  -3    2.61    1.16
  14  -2   3   -0.63    1.54
  14   0  -7   12.90    0.97
  15  -1  -3    3.48    1.23
  16  -2   4    2.36    1.37
  17  -1  -3    1.83    1.43
  18  -2   5    6.60    1.78
  19  -1  -2   -0.97    1.36
  20  -2   7    1.71    1.86
  21  -1  -1    0.93    1.66
  23  -1   1    2.17    1.84
   4  -2  10    0.02    0.87
  12  -2   4    8.20    1.58
  14  -2   4    0.37    1.34
  16  -2   5   -2.03    1.49
  18  -2   6    3.00    1.90
  18  -2   7   -1.58    1.92
  23  -1   2    0.32    1.73
   4  -2  11   -0.39    0.89
   4  -2  12    1.77    1.08
   6  -2   8   60.75    1.70
   8  -2   6   -0.60    1.12
  10  -2   5   11.93    1.51
  10   0  -6   -0.75    0.85
  12  -2   5   10.30    1.59
  14  -2   5   10.68    1.61
  16  -2   6    1.24    1.59
  17  -1  -2    1.43    1.57
  18  -2   8    1.08    1.78
  18  -2   9   -1.23    1.65
  19  -1  -1   -1.77    1.50
  21  -1   0    0.00    1.50
   4  -2  13    1.58    0.94
   4  -2  14   15.29    1.18
   4  -2  15    2.80    1.09
   6  -2   9    1.73    1.03
   8  -2   7    0.58    1.09
  10  -2   6    7.76    1.37
  11  -1  -2  230.55    2.74
  12  -2   6    9.69    1.72
  13  -1  -2   -0.08    1.16
  14  -2   6    4.61    1.52
  15  -1  -2    1.63    1.32
  16  -2   7    0.17    1.58
  16  -2   8    1.31    1.62
  16   0  -6   22.28    1.56
  18  -2  10   -1.01    1.73
  18  -2  11   -0.20    2.03
  19  -1   0   -0.63    1.64
  21  -1   1    0.98    1.85
   5  -1   1    0.69    0.61
   6  -2  10    9.87    1.24
   9  -1  -1    3.79    0.96
  10  -2   7    3.82    1.44
  12  -2   7    1.22    1.59
  12  -2  19   -0.34    1.50
  14  -2   7    0.73    1.50
  14  -2   8    1.65    1.39
  14  -2  17    1.57    1.66
  14  -2  18   -0.34    1.64
  14   0  -6    0.19    1.04
  16  -2   9    1.02    1.72
  16  -2  10    5.79    1.99
  16  -2  11   -1.15    1.90
  16  -2  14   -0.69    1.85
  16  -2  15    0.31    1.83
  17  -1  -1   22.45    1.83
  21  -1   2   -0.03    1.94
  24   0  -1   -0.73    1.44
   6  -2  11    0.08    1.09
   6  -2  12   11.61    1.32
   6  -2  13    2.40    1.19
   6  -2  14    0.56    1.20
   6  -2  15   -0.31    1.30
   6  -2  16    2.12    1.26
   7  -1   0   26.81    1.11
   8  -2   9   12.28    1.37
  10  -2   8   33.96    1.85
  10  -2  18    1.18    1.34
  12  -2   8    4.24    1.50
  12  -2   9    1.37    1.34
  12  -2  17    0.43    1.43
  12  -2  18    0.99    1.61
  13  -1  -1   -0.76    1.12
  14  -2  10    2.65    1.60
  14  -2  13    1.62    1.73
  14  -2  14    2.46    1.60
  14  -2  15    2.14    1.80
  14  -2  16   -0.52    1.62
  15  -1  -1    0.73    1.39
  17  -1   0   10.79    1.53
  19  -1   1    3.74    1.73
  20   0  -4   -0.65    1.40
  24   0   0   -2.31    1.70
   8  -2  10    1.03    1.15
   8  -2  11    5.59    1.43
   8  -2  12   -0.68    1.35
   8  -2  13   47.22    2.10
   8  -2  14    0.90    1.53
   8  -2  16    0.60    1.24
   8  -2  17    0.00    1.28
  10  -2  11    2.65    1.46
  10  -2  15    3.22    1.49
  10  -2  16    3.59    1.49
  12  -2  12    0.35    1.48
  12  -2  13    2.54    1.42
  12  -2  14    0.81    1.49
  12  -2  15   -0.56    1.58
  12  -2  16    3.99    1.58
  19  -1   2   -0.91    1.86
  22   0  -2    1.31    1.65
   9  -1   0    8.37    1.11
  10  -2  12    1.23    1.32
  10  -2  13    0.37    1.30
  10  -2  14    2.89    1.41
  15  -1   0   -0.43    1.37
  16   0  -5    2.99    1.23
  17  -1   1    1.47    1.42
  18   0  -4    0.96    1.42
  19  -1   3   -0.74    1.92
  20   0  -3    0.40    1.46
  21  -1   6   -0.28    2.10
  21  -1   7   -0.51    2.10
  22   0  -1    1.31    1.58
   7  -1   1   12.33    1.03
  10   0  -5    4.31    0.82
  11  -1   0    4.49    1.19
  12   0  -5    7.20    1.04
  14   0  -5    1.23    1.03
  13  -1   1    3.76    1.24
  16   0  -4    2.49    1.44
  18   0  -3    1.04    1.56
  19  -1   5   -0.04    1.69
  19  -1   6   -2.01    1.97
  20   0  -2    1.31    1.47
  22   0   0    0.56    1.61
   9  -1   1   -1.25    1.16
  11  -1   1    6.78    1.32
  15  -1   2    6.57    1.65
  17  -1   4    1.17    1.64
  19  -1   7   -0.21    1.74
  19  -1   8    1.13    1.93
  19  -1   9   -0.96    2.13
  19  -1  10    1.89    1.80
  19  -1  11    3.52    1.82
  20   0  -1    1.57    1.58
  22   0   1   -0.14    1.63
   7  -1   2    5.67    0.97
  13  -1   2    3.67    1.38
  14   0  -4    2.36    1.10
  15  -1   3   15.98    1.93
  17  -1   5   -0.23    1.65
  17  -1   6    8.28    1.82
  18   0  -2    0.85    1.32
  20   0   0   13.05    1.91
  22   0   2    0.33    1.75
  22   0   3    0.03    1.72
   5  -1   3  358.08    2.56
   9  -1   2  246.21    2.94
  11  -1   2   -0.76    1.18
  13  -1   3    0.81    1.46
  15  -1   4   15.74    1.80
  16   0  -3    0.64    1.37
  17  -1   7    1.41    1.73
  17  -1   8   -0.09    1.81
  17  -1   9    1.44    1.80
  17  -1  13    1.27    1.98
  22   0   4    0.97    1.98
   3  -1   5   15.74    0.79
  10   0  -4    0.39    0.87
  11  -1   3   10.41    1.35
  13  -1   4   13.04    1.53
  13  -1  20    0.14    1.60
  15  -1   5   14.00    1.73
  15  -1   6   -0.64    1.53
  15  -1  17   -0.79    1.90
  17  -1  10    0.82    1.78
  17  -1  11   -1.09    1.75
  17  -1  12    0.45    1.64
  18   0  -1    1.22    1.43
  20   0   1    3.25    1.71
  22   0   5   -0.94    1.75
  22   0   6    0.12    2.06
   5  -1   4    4.35    0.85
   7  -1   3   29.90    1.06
   9  -1   3   92.89    2.07
  11  -1  20    1.43    1.54
  13  -1   5    3.57    1.48
  13  -1  18   -0.69    1.51
  13  -1  19   -0.78    1.54
  14   0  -3    2.92    1.17
  15  -1   7    3.97    1.62
  15  -1   8    0.73    1.43
  15  -1  15    2.25    1.87
  15  -1  16    1.56    1.53
  16   0  -2   -1.69    1.45
  18   0   0   -0.85    1.51
  20   0   2    1.07    1.60
  23   1   0    1.86    1.77
  11  -1   4   14.55    1.45
  13  -1   6   -0.71    1.60
  13  -1  17    0.06    1.73
  15  -1   9    2.96    1.51
  15  -1  10   -0.23    1.67
  15  -1  11    3.32    1.71
  15  -1  12    1.76    1.80
  20   0   3   -1.49    1.59
  20   0   4   -0.69    1.89
   7  -1   4   10.99    0.84
   9  -1   4    4.48    0.88
  -7  -3   4    0.91    0.74
  -4  -6   0   -0.82    1.30
  -3  -3  -2    4.20    1.17
   1  -7  -4   -0.05    1.56
   2  -2  -6   26.93    1.16
   3  -5  -8   -0.08    1.29
   5  -5  -9    3.31    1.55
   5  -3  -9   28.85    1.50
   6  -6  -9    0.07    1.72
   6  -4 -10    0.79    1.26
   8  -6 -10    2.13    1.71
   8  -4 -11    1.12    1.23
   9  -5 -11   -0.28    1.36
   9  -3 -11    1.65    1.24
  10  -6 -11   -1.06    1.56
  -6  -4   2    0.29    0.90
  -5  -5   1   -0.08    1.21
  -4  -4  -1    1.83    1.07
  -3  -7   1   -0.14    1.47
  -3  -5  -2    2.87    1.40
  -2  -6  -2    1.76    1.38
  -2  -2  -2   65.68    1.25
  -1  -5  -4    1.45    1.28
  -1  -3  -4    0.52    1.14
   0  -6  -4    0.66    1.40
   2  -6  -6   -1.32    1.66
   7  -5 -10    5.66    1.63
  12  -4 -12    1.43    1.34
  12  -2 -11    2.23    0.95
  13  -5 -12    1.49    1.50
  13  -3 -12    1.48    1.26
  -5  -3   1    1.35    0.91
  -4  -6   1    0.42    1.18
  -2  -4  -3   19.84    1.42
  -1  -7  -1    1.09    1.41
   0  -4  -5   14.65    1.43
   0  -2  -4   39.38    1.21
   1  -7  -3   -1.72    1.68
   3  -5  -7    1.53    1.33
   4  -6  -7   -0.56    1.81
   4  -4  -8   13.00    1.59
   6  -6  -8    1.28    1.47
   8  -6  -9    1.16    1.89
  10  -4 -11    3.07    1.35
  11  -5 -11   -1.16    1.52
  14  -4 -12   -0.40    1.32
  15  -5 -12    3.17    1.53
  -3  -5  -1   40.29    1.85
  -2  -6  -1    0.56    1.28
   2  -6  -5   12.80    1.86
   3  -3  -7    3.26    1.24
   4  -2  -7   25.43    1.21
   5  -5  -8    0.79    1.45
   6  -4  -9    1.11    1.68
   8  -4 -10    8.40    1.47
   9  -5 -10    1.18    1.60
  10  -2 -10    2.30    0.96
  11  -3 -11    0.46    1.29
  11  -1  -9    9.10    0.81
  -7  -3   5    2.07    0.72
  -6  -4   3    1.30    1.05
  -5  -5   2    2.28    1.18
  -4  -6   2    0.95    1.20
  -4  -4   0    0.17    1.10
  -1  -7   0    0.20    1.54
  -1  -5  -3   -0.25    1.41
   0  -6  -3   -0.65    1.47
   1  -7  -2   -0.45    1.72
   1  -5  -5   -0.18    1.17
   2  -4  -6    6.55    1.34
   4  -6  -6   -0.79    1.59
   5  -3  -8    3.03    1.20
   6  -2  -8   30.72    1.44
   7  -5  -9    8.19    1.58
   8  -2  -9   10.37    1.07
   9  -3 -10    3.03    1.40
  12  -4 -11    1.26    1.49
  13  -5 -11    1.86    1.69
  -3  -3  -1  280.88    2.74
  -2  -4  -2   13.58    1.26
   0  -4  -4    6.10    1.33
   1  -3  -5    4.14    1.10
   3  -5  -6    6.44    1.64
   5  -1  -6    0.71    0.66
   7  -3  -9   45.96    1.73
   8  -6  -8   -0.65    1.94
  11  -5 -10    1.95    1.75
  13  -3 -11    2.07    1.25
  15  -5 -11   -0.66    1.68
  -5  -3   2   20.90    1.12
  -4  -6   3   -0.17    1.35
  -2  -6   0    0.59    1.42
  -1  -7   1    1.68    1.57
  -1  -3  -3    4.07    0.89
   0  -6  -2   -0.62    1.59
   1  -7  -1    0.22    1.74
   1  -5  -4   -0.70    1.30
   2  -2  -5  348.61    2.82
   3  -7  -3   -0.48    1.72
   4  -4  -7    3.05    1.56
   5  -5  -7   -0.70    1.52
   6  -4  -8    4.86    1.65
   7  -5  -8    8.88    1.49
   7  -1  -7   15.39    0.98
   9  -1  -8    1.47    0.80
  10  -4 -10    1.01    1.31
  12  -6  -9    1.62    1.97
  12  -2 -10   -0.14    0.96
  14  -4 -11    0.12    1.25
  -2  -2  -1   33.00    0.99
  -1  -5  -2   -0.66    1.51
   3  -3  -6   64.05    1.81
   4  -6  -5    0.50    1.76
   6  -6  -6    0.57    1.73
   8  -6  -7   -0.47    1.71
  11  -3 -10    6.16    1.35
  13  -5 -10   -1.12    1.69
  15  -5 -10    1.58    1.75
  -6  -4   4   22.33    1.20
  -4  -4   1    5.99    1.19
  -2  -6   1   -0.24    1.49
   0  -6  -1    2.06    1.41
   0  -2  -3    0.14    0.60
   1  -7   0    0.27    1.63
   2  -4  -5   88.10    2.34
   3  -7  -2   -0.07    1.64
   3  -5  -5    2.00    1.43
   4  -2  -6    2.51    1.01
   5  -3  -7    4.00    1.14
   9  -3  -9    4.55    1.35
  10  -2  -9   41.64    1.46
  11  -5  -9   -0.09    1.75
  12  -6  -8    0.78    1.74
  12  -4 -10   -0.53    1.26
  -3  -5   1    4.74    1.43
  -3  -3   0  148.30    2.08
  -2  -4  -1    4.03    1.23
  -1  -7   3    0.45    1.60
   0  -4  -3    0.15    1.32
   4  -6  -4    0.97    1.79
   4  -4  -6   -0.94    1.53
   5  -5  -6   -0.74    1.50
   6  -2  -7    0.52    1.04
   7  -5  -7    1.46    1.58
   7  -3  -8   29.65    1.55
   8  -2  -8   12.24    1.16
  10  -6  -7    0.63    1.80
  10  -4  -9   10.84    1.51
  13  -5  -9   -0.38    1.90
  13  -3 -10    2.72    1.16
  14  -4 -10    1.50    1.39
  -2  -6   2   -0.52    1.46
  -1  -5  -1   -0.20    1.41
  -1  -3  -2   -0.26    1.09
   1  -7   1    1.18    1.69
   3  -7  -1    0.28    1.69
   5  -7  -2    0.30    2.03
   6  -4  -7    0.73    1.62
  -6  -4   5   16.94    1.15
  -5  -3   3   77.23    1.41
  -4  -4   2    5.81    1.12
  -1  -7   4    0.13    1.44
   0  -6   0   24.68    1.92
   2  -4  -4   43.34    1.91
   3  -7   0    1.09    1.91
   3  -5  -4    3.24    1.39
   3  -3  -5   13.69    1.27
  11  -5  -8   -1.30    1.81
  11  -3  -9    2.75    1.32
  11  -1  -8    9.38    0.88
  12  -6  -7    1.48    1.95
  12  -4  -9    2.29    1.51
  12  -2  -9    4.00    1.07
  17  -5  -9   -0.33    1.52
  -3  -5   2    0.93    1.39
  -2  -6   3    1.28    1.49
  -2  -4   0    0.21    1.27
  -1  -5   0    1.28    1.39
   0  -4  -2    1.80    1.21
   1  -7   2   -1.72    1.72
   2  -2  -4  222.66    2.23
   4  -6  -3   -1.63    1.66
   5  -5  -5    7.72    1.71
   6  -6  -4    2.69    2.01
   7  -5  -6   -1.21    1.59
   8  -6  -5    2.73    1.96
   9  -5  -7    3.43    1.74
   9  -3  -8    0.56    1.36
  10  -6  -6    1.33    2.01
  10  -4  -8   18.61    1.67
  13  -5  -8    2.40    2.04
  14  -4  -9   -0.52    1.51
  -1  -7   5   -0.37    1.66
   0  -6   1    0.92    1.60
   3  -7   1    1.77    1.77
   4  -4  -5    5.73    1.45
   5  -3  -6    1.07    1.15
   6  -4  -6    4.93    1.56
   9  -1  -7   59.95    1.32
  10  -2  -8   61.73    1.66
  13  -3  -9   -1.26    1.41
  15  -5  -8   -2.49    1.89
  16  -4  -9   -0.11    1.58
  17  -5  -8   -0.86    1.54
  -3  -5   3    5.58    1.46
  -3  -3   1   40.60    1.32
   0  -2  -2    1.06    0.76
   1  -7   3    0.84    1.46
   1  -3  -3    0.04    1.17
   3  -5  -3    3.12    1.48
   4  -6  -2    0.28    1.75
   4  -2  -5   39.70    1.31
   6  -6  -3   -0.71    1.98
  10  -6  -5    0.81    2.03
  11  -5  -7    0.85    1.72
  12  -4  -8    3.11    1.61
  15  -3  -9    2.28    1.13
  -4  -4   3   -0.89    1.03
  -2  -6   4    3.53    1.40
  -1  -5   1    0.36    1.47
   0  -6   2   -1.12    1.57
   1  -7   4   -1.72    1.72
   2  -6   0    0.55    1.73
   2  -4  -3    1.38    1.37
   3  -7   2   -0.32    1.88
   5  -5  -4   28.03    1.91
   7  -5  -5   -0.30    1.60
   7  -1  -6   37.38    1.01
   8  -6  -4    2.00    1.84
   8  -2  -7    1.86    1.21
   9  -5  -6   -0.55    1.63
  11  -3  -8    2.95    1.41
  13  -5  -7    4.78    2.10
  14  -4  -8    0.78    1.72
  -5  -3   4  167.14    2.00
  -2  -4   1   -0.45    1.16
   3  -3  -4   20.52    1.48
   4  -6  -1    0.86    1.82
   4  -4  -4    2.97    1.41
   5  -7   1    0.09    2.06
   9  -3  -7   20.50    1.65
  10  -6  -4   -1.01    1.93
  10  -4  -7    7.80    1.69
  11  -5  -6    0.17    1.74
  12  -2  -8   16.61    1.27
  15  -5  -7    0.05    1.88
  16  -4  -8    1.63    1.65
  17  -5  -7   -0.11    1.77
  -3  -5   4    4.67    1.26
  -2  -6   5   11.84    1.58
   0  -6   3    2.55    1.60
   1  -7   5    3.07    1.76
   2  -6   1    0.70    1.64
   3  -7   3    0.98    1.83
   3  -5  -2    2.74    1.39
   5  -5  -3   11.42    1.68
   5  -3  -5   39.04    1.72
   6  -6  -2    0.24    1.91
   6  -4  -5   15.36    1.89
   8  -4  -6    0.37    1.70
   9  -5  -5    3.99    1.71
  13  -3  -8   11.64    1.43
  -4  -4   4    2.09    1.00
  -1  -5   2    6.44    1.50
   1  -3  -2   75.15    1.86
   2  -4  -2    1.41    1.40
   2  -2  -3    5.81    0.89
   5  -7   2   -0.73    2.03
   7  -5  -4    0.80    1.62
  12  -4  -7    2.80    1.48
  13  -5  -6   -2.13    1.99
  15  -5  -6   -2.23    1.87
  15  -3  -8    0.28    1.19
  -3  -3   2   20.23    1.19
  -2  -6   6    0.53    1.34
   1  -7   6    3.36    1.74
   2  -6   2    2.70    1.58
   3  -7   4    0.20    1.93
   3  -5  -1    4.93    1.40
   6  -6  -1    1.73    1.95
   8  -6  -2    1.30    2.03
  10  -6  -3    1.07    1.83
  10  -4  -6    0.29    1.55
  10  -2  -7   35.96    1.28
  11  -3  -7    5.19    1.42
  11  -1  -7   11.18    0.83
  14  -4  -7    1.75    1.70
  16  -4  -7    7.65    1.88
  17  -5  -6   -0.58    1.70
  -3  -5   5    0.42    1.27
  -2  -4   2    2.12    1.09
   0  -6   4   -0.70    1.46
   1  -7   7   -1.48    1.62
   1  -5   1   -1.44    1.72
   3  -7   5    0.79    1.94
   3  -3  -3   37.13    1.52
   4  -4  -3    0.96    1.33
   4  -2  -4   19.47    1.13
   5  -7   3    0.61    2.06
   5  -5  -2    2.48    1.62
   6  -4  -4   24.83    1.88
   7  -5  -3    0.89    1.47
   8  -4  -5    1.50    1.73
   8  -2  -6    7.67    1.20
   9  -5  -4   -0.55    1.73
  12  -6  -3    1.67    2.06
  13  -5  -5    0.01    1.72
  -5  -3   5   40.24    1.18
  -2  -6   7   -0.27    1.38
  -1  -5   3    0.17    1.40
   0  -2  -1    6.31    0.81
   5  -3  -4  172.63    2.61
   6  -6   0    0.40    1.98
   8  -6  -1   -0.01    1.70
   9  -3  -6    3.09    1.37
  10  -6  -2    1.93    2.01
  12  -4  -6    0.71    1.54
  13  -3  -7   31.14    1.81
  15  -5  -5   -1.38    2.03
  17  -5  -5   -1.02    1.99
  -4  -4   5    5.78    1.03
  -3  -5   6    6.46    1.53
   0  -6   5   -0.22    1.59
   1  -7   8    0.03    1.56
   2  -6   3    2.66    1.54
   2  -4  -1    0.78    1.37
   3  -7   6   -1.59    1.81
   3  -5   0   24.85    1.83
   7  -3  -5    1.94    0.89
   9  -1  -6   12.27    0.93
  10  -4  -5   -0.65    1.48
  12  -2  -7   13.37    1.21
  14  -4  -6    2.62    1.74
  15  -3  -7   -0.57    1.44
  16  -4  -6    4.76    1.85
  -2  -4   3    0.01    1.08
  -1  -5   4    0.74    1.41
   0  -4   1    3.46    1.25
   1  -5   2   -0.56    1.59
   1  -3  -1    0.35    1.16
   4  -4  -2    6.82    1.62
   5  -5  -1   -1.29    1.47
   6  -6   1    6.59    1.82
   7  -5  -2    1.63    1.75
   7  -1  -5    8.92    0.88
   8  -6   0    1.27    1.76
   8  -4  -4   12.99    2.05
   9  -5  -3   -1.87    1.80
  10  -6  -1    0.41    2.06
  11  -3  -6    4.14    1.47
  13  -5  -4   -0.81    1.96
  14  -2  -7    8.74    1.20
  15  -5  -4    1.86    2.11
  17  -5  -4    2.78    1.90
   0  -6   6   -0.79    1.50
   2  -6   4   -0.05    1.58
   3  -7   7   -1.19    1.57
   6  -4  -3    1.74    1.53
  10  -2  -6   -0.25    0.97
  11  -5  -3    6.83    1.92
  12  -6  -1   -0.46    2.11
  12  -4  -5    1.34    1.60
  -4  -4   6    0.50    1.12
  -3  -5   7    0.51    1.27
   2  -2  -2   12.30    0.93
   3  -7   8    0.35    1.89
   3  -5   1   39.85    2.15
   3  -3  -2   19.81    1.49
   4  -6   3   -0.01    1.97
   9  -5  -2    1.85    1.68
   9  -3  -5   39.09    1.85
  10  -6   0    1.07    2.14
  13  -5  -3    3.21    2.01
  13  -3  -6    1.33    1.48
  14  -4  -5    1.80    1.76
  16  -4  -5    0.96    1.69
  18  -4  -5    0.76    1.84
   0  -6   7    3.97    1.54
   1  -5   3   -1.06    1.67
   2  -6   5    1.76    1.73
   5  -5   0    1.00    1.51
   5  -3  -3   77.10    1.99
   6  -6   2    9.53    1.91
   7  -5  -1    0.47    1.72
   7  -3  -4   -0.16    1.24
   8  -6   1   -1.29    1.77
   8  -2  -5    0.79    1.20
  11  -1  -6    7.76    0.80
  12  -6   0   -2.61    2.14
  15  -5  -3   -0.89    2.21
  15  -3  -6   -0.15    1.56
  -5  -3   6   -0.82    0.73
  -3  -5   8   -0.60    1.44
   0  -6   8   -1.54    1.67
   0  -4   2   -0.76    1.13
   4  -4  -1    6.50    1.45
   4  -2  -3    0.53    0.68
   6  -4  -2   -1.77    1.58
  10  -6   1    0.36    2.19
  11  -5  -2   17.52    2.26
  11  -3  -5   -0.69    1.46
  12  -4  -4    2.26    1.64
  12  -2  -6    0.81    1.02
   0  -2   0 1000.00    3.99
   1  -5   4    0.69    1.74
   1  -3   0    1.49    1.12
   2  -6   6    1.55    1.61
   5  -5   1    1.27    1.62
   6  -6   3   -0.97    1.73
   7  -5   0    0.56    1.56
   8  -6   2    1.90    1.81
   9  -5  -1   -0.11    1.77
  12  -6   1    1.14    2.04
  13  -5  -2    1.87    1.98
  14  -4  -4   -0.23    1.75
  14  -2  -6    0.77    1.30
  15  -5  -2   -0.47    2.07
  16  -4  -4   -1.27    1.80
  17  -5  -2   -0.08    2.13
  18  -4  -4    1.37    1.73
  -4  -4   7    4.39    1.02
  -3  -3   4   19.26    1.10
  -1  -5   6    4.39    1.46
  -1  -3   2   68.12    1.64
   0  -6   9    1.40    1.68
   2  -6   7   -1.50    1.78
   4  -6   5    2.33    1.74
   8  -6   3    1.96    1.93
   9  -3  -4    1.22    1.35
  10  -6   2   -2.13    2.20
  11  -5  -1    0.00    1.75
  13  -3  -5   -0.34    1.57
  15  -3  -5    1.25    1.77
  -2  -4   5   87.85    2.07
   0  -4   3    0.01    1.18
   3  -3  -1   39.60    1.65
   4  -4   0    1.74    1.43
   7  -3  -3   -0.39    1.31
   8  -4  -2    5.48    1.94
   9  -5   0   -0.16    1.71
  10  -2  -5    1.18    1.05
  12  -6   2    0.82    2.15
  12  -4  -3    0.12    1.66
  17  -5  -1    2.24    1.86
  -1  -5   7    6.21    1.55
   0  -6  10    1.20    1.69
   1  -5   5   26.62    2.02
   2  -6   8    2.07    1.74
   2  -2  -1    9.59    0.90
   4  -6   6    4.03    1.95
   5  -5   2    1.62    1.69
   7  -5   1   -0.23    1.74
  10  -6   3   -0.45    2.27
  11  -3  -4    1.27    1.49
  14  -4  -3   -1.11    1.92
  15  -5  -1   -0.60    1.98
  16  -4  -3   -0.34    1.80
  18  -4  -3   -0.21    1.70
  -5  -3   7    3.67    0.84
  -4  -4   8   12.60    1.16
   0  -6  11    3.27    1.61
   8  -2  -4   42.40    1.53
  10  -4  -2    3.57    1.70
  11  -5   0    0.46    1.89
  12  -6   3    2.07    1.95
  12  -2  -5    3.20    1.23
  13  -3  -4    0.74    1.77
  17  -5   0    2.06    1.84
  -2  -4   6    7.40    1.34
  -1  -5   8    1.23    1.43
   0  -4   4    5.52    1.29
   1  -5   6   15.20    1.78
   3  -5   4    0.36    1.44
   4  -4   1    0.75    1.56
   4  -2  -2   36.51    1.29
   5  -5   3   15.22    1.97
   6  -2  -3   16.40    1.25
   7  -5   2    0.22    1.63
   7  -1  -4    2.63    0.71
   8  -6   5    0.92    2.10
   8  -4  -1    1.94    1.81
   9  -5   1    1.37    1.79
  10  -6   4    0.15    2.03
  12  -4  -2    1.49    1.62
  14  -2  -5    1.40    1.23
  15  -5   0   -1.51    2.23
  15  -3  -4    2.16    1.64
  17  -3  -4    0.87    1.65
  18  -4  -2    1.61    1.88
  -3  -3   5   13.53    1.06
  -1  -3   3    0.98    1.00
   2  -6  10   -0.31    1.90
   4  -6   8    2.14    1.94
   6  -4   0    2.21    1.13
   7  -3  -2   10.68    1.47
  10  -6   5    1.94    2.17
  11  -5   1    0.40    2.04
  11  -1  -5   -0.11    0.82
  14  -4  -2   18.96    2.07
  16  -4  -2   -0.27    1.87
  17  -5   1   -1.81    1.85
  -4  -4   9    5.55    1.17
  -1  -5   9    0.69    1.58
   0  -2   1    6.74    0.78
   5  -3  -1    1.82    1.28
   6  -6   7    0.62    2.12
   8  -6   6    0.82    2.06
   9  -5   2   15.13    2.15
  10  -4  -1    1.04    1.69
  10  -2  -4   -0.77    1.17
  15  -5   1   -1.02    2.28
   1  -5   7    6.74    1.66
   4  -6   9    0.75    1.73
   4  -4   2    1.71    1.29
   5  -5   4    0.41    1.54
   6  -6   8    0.40    2.10
   7  -5   3   -1.47    1.61
   8  -6   7    1.93    1.91
   8  -4   0    2.12    1.85
  10  -6   6    0.23    2.32
  11  -5   2   -0.02    1.95
  12  -4  -1   -0.05    1.64
  13  -3  -3    1.76    1.54
  13  -1  -5   -0.31    0.84
  15  -3  -3   -0.23    1.75
  16  -4  -1    0.29    1.62
  18  -4  -1   -0.34    1.75
  -5  -3   8    4.09    0.82
  -2  -4   7    0.68    1.13
  -1  -5  10    8.62    1.64
   0  -4   5   14.60    1.51
   1  -3   2    1.38    1.12
   2  -6  12    2.95    1.76
   3  -5   6    2.41    1.59
   4  -6  10   -0.93    1.96
   8  -2  -3  322.58    3.18
   9  -5   3   10.43    2.08
  10  -6   7   -0.10    1.96
  13  -5   2    2.52    2.04
  20  -4   0    1.61    1.88
   1  -5   8    0.63    1.50
   2  -6  13    0.68    1.72
   2  -2   0    5.66    0.88
   4  -6  11   -1.59    1.82
   5  -5   5    2.08    1.69
   6  -6   9    2.74    2.08
   7  -5   4    1.52    1.66
   7  -3  -1    6.30    1.33
   9  -1  -4    0.33    0.92
  10  -4   0    8.31    1.70
  11  -5   3    2.58    1.93
  14  -2  -4   -0.69    1.37
  16  -2  -4    0.81    1.28
  18  -4   0   -0.92    1.91
  -3  -3   6   64.36    1.43
  -1  -5  11   12.85    1.65
  -1  -3   4    3.78    1.06
   3  -5   7    0.05    1.51
   3  -3   1  277.41    3.13
   4  -4   3    1.54    1.34
   5  -3   0    1.29    1.29
   6  -6  10    2.11    1.99
   6  -2  -2    2.87    1.05
   8  -4   1    3.54    1.94
   9  -5   4   -1.60    1.83
  14  -4   0   -0.75    1.82
  16  -4   0    0.23    1.82
  17  -3  -2    0.94    1.57
  -2  -4   8   11.89    1.35
   0  -4   6    0.54    1.25
   1  -5   9    1.40    1.41
   2  -6  14    0.77    1.32
   4  -6  12   -1.45    1.79
   6  -6  11   -0.72    1.69
   6  -4   2   58.15    2.37
   7  -5   5    0.75    1.66
   8  -6  10   -0.92    1.84
  10  -4   1    0.50    1.34
  10  -2  -3    2.47    1.21
  11  -5   4    1.76    1.97
  13  -3  -2   -0.80    1.55
  15  -3  -2   -0.84    1.60
  18  -4   1    0.89    2.01
  -8   0 -14    0.60    2.00
  -8   0 -13   84.17    2.99
  -8   0  -9   24.64    1.61
  -8   0  -8   38.19    1.62
  -6   0 -19    2.59    2.27
  -4   0 -22   -1.06    2.90
  -2   0 -24    1.13    3.33
   0   0 -25    0.04    3.38
   2   0 -26    4.34    3.13
  12   0 -24   -2.33    2.78
  14   0 -22    1.57    2.41
  -8   0 -12    0.34    1.58
  -8   0 -10    1.32    1.36
  -6   0 -18    8.37    2.52
  -4   0 -21    9.20    2.90
  -2   0 -23   -0.12    3.08
   4   0 -26   -1.66    2.96
   6   0 -26    2.00    3.20
  10   0 -25    3.54    2.59
  12   0 -23   -1.95    2.86
  14   0 -21    1.20    2.25
  14   0 -20   -0.67    2.44
  -6   0 -17   13.79    2.65
  -4   0 -20    3.81    2.67
  -2   0 -22    0.73    2.86
   2   0 -24    0.99    2.74
   4   0 -25    0.95    3.26
   6   0 -25   -2.11    3.24
   8   0 -25    0.87    2.80
  10   0 -24   -2.94    3.10
  12   0 -22   -0.16    2.82
  14   0 -19    0.42    2.09
  14   0 -18   10.34    2.36
  -6   0 -16   -0.89    2.24
  -5  -1 -25    1.14    2.66
  -4   0 -19   -0.15    2.49
  -2   0 -21    0.08    2.41
   4   0 -24    0.53    3.02
   6   0 -24   -0.31    3.00
   8   0 -24   -0.62    2.61
  10   0 -23    2.43    2.98
  12   0 -21    0.97    2.51
  14   0 -17    0.42    2.11
  14   0 -16    0.76    1.97
  14   0 -15    0.38    2.02
  -6   0 -15    0.91    2.08
  -4   0 -18    1.25    2.36
  -2   0 -20   -3.82    2.88
   2   0 -23    2.63    2.70
   4   0 -23    1.78    3.13
  10   0 -22   -0.61    2.55
  12   0 -20    5.61    2.62
  12   0 -19    2.28    2.56
  -6   0 -14   -0.42    2.03
  -6   0 -13    3.80    2.09
  -4   0 -17    0.61    2.34
   2   0 -22    5.10    2.83
   4   0 -22    3.22    2.67
   6   0 -22    5.45    2.60
  10   0 -21    0.32    2.49
  -7  -1 -21    3.25    2.84
  -6   0 -12   21.99    1.91
  -5  -1 -23    2.63    2.75
  -4   0 -16   15.76    2.39
  -3  -1 -25    1.08    2.58
  -2   0 -19    4.03    2.41
   0   0 -20   -1.10    2.47
   2   0 -21   -1.86    2.86
   6   0 -21    1.02    2.41
  10   0 -20    1.03    2.20
  12   0 -17   -1.35    2.12
  12   0 -16    0.93    2.28
  15  -1 -23   -0.26    2.32
  -6   0 -11   -1.15    1.47
  -6   0 -10   16.54    1.63
  -6   0  -9    4.26    1.62
  -6   0  -8   90.48    2.22
  -6   0  -7   60.40    1.74
  -4   0 -15    6.66    2.10
  -3  -1 -24   -2.68    2.89
  -1  -1 -25    0.58    2.59
   0   0 -19    1.59    2.32
   2   0 -20   10.77    2.69
   4   0 -21    8.26    2.57
  10   0 -19   -0.10    2.09
  10   0 -18    1.81    1.90
  12   0 -15    4.99    1.97
  12   0 -14    8.38    2.04
  12   0  -9    9.26    1.39
  -7  -1 -20    2.36    2.24
  -5  -1 -22   -1.75    2.81
  -4   0 -14   28.44    2.34
  -2   0 -17   30.96    2.89
   0   0 -18    0.40    2.26
   3  -1 -26    0.94    3.05
   4   0 -20    2.33    2.24
   6   0 -20    5.81    2.32
  10   0 -17    2.90    2.25
  11  -1 -25   -0.21    2.84
  12   0 -13   41.34    2.30
  12   0 -12    5.45    1.61
  12   0 -10   -0.25    1.22
  13  -1 -24    0.36    2.20
  15  -1 -22   -0.89    2.10
  -7  -1 -19    4.57    2.21
  -5  -1 -21    0.86    2.17
  -4   0 -13    0.77    1.81
  -3  -1 -23   -2.64    3.03
  -2   0 -16    4.61    2.21
  -1  -1 -24    4.14    3.09
   6   0 -19   -0.05    2.10
  10   0 -16    8.04    2.21
  11  -1 -24    0.10    2.34
  13  -1 -23    3.56    2.45
  15  -1 -21    0.37    2.22
  -4   0 -12    5.60    1.65
   0   0 -17    2.40    2.35
   1  -1 -24   -0.89    2.68
   2   0 -18    0.00    2.62
   4   0 -18    3.77    2.63
   5  -1 -25   -1.74    3.10
   6   0 -18    0.06    2.33
   7  -1 -25   -0.61    2.96
   8   0 -17   -4.44    2.62
  10   0 -14    7.91    2.22
  10   0  -6   -0.02    1.19
  13  -1 -22    3.43    2.66
  -7  -1 -18    0.46    2.22
  -5  -1 -20    1.51    2.53
  -4   0 -11    2.54    1.84
  -1  -1 -23    0.97    2.76
   0   0 -16   65.08    3.10
   4   0 -17   32.85    3.13
   5  -1 -24    2.07    2.56
   6   0 -17   -2.35    2.45
   7  -1 -24    1.34    2.86
   8   0 -16    0.53    2.33
  10   0 -13    2.43    1.72
  10   0 -12   12.85    1.99
  10   0  -7   62.12    1.87
  11  -1 -23    1.46    2.74
  13  -1 -21    0.53    2.19
  -7  -1 -17    5.01    2.23
  -5  -1 -19    7.28    2.64
  -4   0 -10    6.22    1.65
  -4   0  -9  104.00    2.55
  -3  -1 -21   -1.56    2.53
  -1  -1 -22    2.04    2.86
   0   0 -15    6.16    2.28
   1  -1 -23    2.65    2.88
   2   0 -16    0.26    2.30
   4   0 -16    1.41    2.48
   6   0 -16    6.62    2.36
   8   0 -15   -0.27    2.13
  10   0 -11   20.14    1.76
  10   0 -10    1.42    1.32
  10   0  -9   62.56    1.92
  10   0  -8   98.51    2.03
  11  -1 -22    1.37    2.69
  -6  -2 -23    1.60    2.59
  -4  -2 -24    1.54    2.84
  -4   0  -8   87.22    2.17
  -4   0  -7  149.06    2.38
  -3  -1 -20   -0.32    2.91
   0   0 -14    0.00    2.00
   1  -1 -22   -2.05    2.75
   2   0 -15    1.37    2.28
   4   0 -15    4.41    2.27
   5  -1 -23    3.35    3.17
   6   0 -15   94.06    3.17
   7  -1 -23    0.24    3.13
   8   0 -14   -1.10    1.90
   8   0 -13    0.52    1.67
   9  -1 -22    0.80    2.42
  11  -1 -21    3.94    2.34
  13  -1 -20    3.46    2.06
  -7  -1 -16    0.08    2.37
  -6  -2 -22    0.04    2.69
  -5  -1 -18    5.12    2.39
  -2  -2 -25   -0.90    2.95
  -1  -1 -21    6.04    2.69
   0   0 -13   10.21    2.12
   3  -1 -22    1.95    2.82
   4   0 -14    0.68    1.88
   5  -1 -22    2.89    2.53
   6   0 -14   22.13    2.25
   7  -1 -22    3.48    2.85
   8   0 -12   15.23    1.96
  13  -1 -19    1.23    2.32
  -7  -1 -15   33.99    2.72
  -4  -2 -23    2.34    2.65
  -3  -1 -19   -1.12    2.43
  -1  -1 -20    7.01    2.72
   0  -2 -25    4.36    3.13
   1  -1 -21   -0.16    2.72
   2   0 -13   57.93    2.84
   4   0 -13    0.11    1.83
   6   0 -13    2.99    1.98
   8   0 -11    5.08    1.77
   8   0 -10   53.81    2.45
   9  -1 -21    8.12    2.81
  11  -1 -20   -1.04    2.42
  13  -1 -18   -0.84    2.26
  -6  -2 -21   -0.34    3.00
  -5  -1 -17    3.15    2.68
  -2  -2 -24   -0.11    2.64
   2   0 -12    5.26    1.92
   3  -1 -21    2.59    2.74
   5  -1 -21   -0.02    3.07
   8   0  -9   13.21    1.72
   8   0  -8   29.55    1.71
   8   0  -7    5.75    1.57
   8   0  -6    7.83    1.31
   9  -1 -20   -2.84    2.58
  11  -1 -19    4.27    2.60
  12  -2 -24    1.77    2.80
  13  -1 -17   -2.58    2.17
  -7  -1 -14   -2.00    2.08
  -5  -1 -16    5.77    2.76
  -4  -2 -22    1.99    3.12
  -3  -1 -18    0.04    2.51
   0  -2 -24    0.72    3.22
   1  -1 -20    1.25    2.59
   3  -1 -20    4.67    2.62
   4  -2 -25    1.30    3.23
   4   0 -12   33.06    1.90
   6  -2 -25   -4.15    3.12
   7  -1 -20   -2.80    2.72
  11  -1 -18   10.43    2.61
  12  -2 -23   -2.73    2.90
  13  -1 -16    0.39    2.34
  14  -2 -22    3.52    2.52
  -9  -1 -10    3.22    1.70
  -6  -2 -20   -1.45    2.88
  -2   0  -7   -0.92    1.18
   0   0 -10    2.46    1.30
   1  -1 -19    4.75    2.66
   2  -2 -24   -1.40    3.50
   2   0 -11    8.92    1.59
   4   0 -11   20.50    2.17
   9  -1 -19    7.65    2.58
  14  -2 -21   -0.42    2.66
  -7  -1 -13    0.18    1.97
  -4  -2 -21    6.33    3.20
  -2  -2 -22    2.60    2.84
   2   0 -10   24.76    2.00
   3  -1 -19    0.69    2.79
   4  -2 -24    4.33    3.08
   4   0 -10  301.48    3.94
   5  -1 -19    6.71    2.74
   6  -2 -24    0.01    2.93
   7  -1 -19    0.65    2.58
   9  -1 -18    0.87    2.35
  10  -2 -23    3.52    2.95
  11  -1 -17    2.97    2.45
  12  -2 -22   -0.99    2.94
  13  -1 -15   17.61    2.42
   2  -2 -23    0.30    3.15
   2   0  -9   32.64    2.04
   4   0  -9   15.50    1.80
   6  -2 -23    1.90    2.74
   7  -1 -18    1.16    2.34
   8  -2 -23   -1.68    3.10
  11  -1 -16    2.40    2.45
  13  -1 -14    0.01    2.03
  14  -2 -20    0.69    2.66
  -7  -1 -12    3.23    1.80
  -5  -3 -23    0.63    2.40
  -5  -1 -14   20.01    2.47
  -4  -2 -20    2.70    2.63
  -2  -2 -21   -0.20    2.65
   0   0  -7  218.80    2.64
   2   0  -8  116.49    2.40
   3  -1 -18    0.27    2.38
   4   0  -8  119.63    2.44
   5  -1 -18    0.69    2.29
   9  -1 -17   -0.14    2.57
  10  -2 -22    1.46    2.86
  12  -2 -21    2.46    2.93
  13  -1 -13   -0.26    1.77
  14  -2 -19    2.71    2.56
  -9  -1  -8   -0.65    1.34
  -6  -2 -18    9.37    2.57
  -3  -1 -15   -1.20    2.38
   1  -1 -17   -0.93    2.81
   2  -2 -22    1.06    3.07
   4  -2 -22   -2.56    2.98
   7  -1 -17    6.79    3.04
   8  -2 -22    1.60    2.99
   9  -1 -16   10.17    2.57
  10  -2 -21    0.01    2.43
  11  -1 -15   -1.12    2.03
  12  -2 -20    2.86    2.43
  13  -1 -12    3.90    1.73
  -8  -2 -16   -0.69    2.16
  -7  -1 -11    0.25    1.45
  -5  -3 -22    3.00    2.65
  -5  -1 -13   61.27    2.72
  -4  -2 -19   -0.53    2.49
  -3  -3 -23   -1.50    2.97
  -2  -2 -20    2.37    2.43
   3  -1 -17    0.58    2.54
   5  -1 -17    3.23    2.53
  11  -1 -14    1.14    2.00
  14  -2 -18    3.62    2.22
  -9  -1  -7   37.38    1.51
  -3  -1 -14    5.13    2.01
   1  -1 -16    7.86    2.33
   2  -2 -21    1.95    2.70
   4  -2 -21    2.70    2.54
   6  -2 -21    1.14    2.55
   9  -1 -15    3.88    2.02
  12  -2 -19    1.74    2.20
  15  -3 -21   -3.06    2.11
  -8  -2 -15   -2.12    1.99
  -7  -1 -10   12.58    1.44
  -6  -2 -17    8.99    2.26
  -5  -3 -21   -0.91    2.25
  -5  -1 -12   75.14    2.29
  -4  -2 -18   -0.89    1.92
  -3  -3 -22    2.29    2.34
  -2  -2 -19    4.56    2.10
   3  -1 -16   19.77    1.92
  11  -1 -13    5.27    1.84
  13  -3 -22   -0.38    1.90
  13  -1 -10    3.47    1.28
  14  -2 -17    1.23    1.84
  -3  -1 -13    3.93    1.48
   1  -1 -15    2.23    1.82
   2  -2 -20    6.27    2.19
   4  -2 -20   -1.14    2.31
   5  -1 -15    0.72    1.87
   6  -2 -20    0.91    2.24
  10  -2 -19    2.91    2.08
  11  -3 -22   -0.13    2.06
  11  -1 -12    5.23    1.42
  12  -2 -18    0.98    2.02
  15  -3 -20    0.92    2.02
   3   3  -9    3.42    1.66
   4   4 -16   -0.48    1.96
   6   4 -17   -0.35    2.10
   8   4 -18    3.31    2.66
  10   4 -21    0.36    2.68
  10   4 -20   -0.08    2.35
  11   3 -13    3.78    2.12
  13   1  -7   69.06    2.67
  13   3 -15    6.85    2.50
  14   2 -11    0.95    2.00
  15   3 -18    3.12    2.96
  17   1 -11    0.79    1.85
  21   1 -17   -1.39    2.28
  -1   3  -9    8.39    1.38
   1   3  -9    6.34    1.54
   4   4 -17    6.12    2.25
   6   2  -6   19.48    2.10
   6   4 -18    2.99    2.14
   8   0  -2   34.69    1.38
   8   2  -7    0.95    2.12
   8   4 -20    0.72    2.54
   8   4 -19    0.44    2.84
   9   3 -12    0.76    2.47
  10   0  -3    2.12    1.32
  10   2  -8   59.03    2.63
  13   3 -16    0.10    2.93
  15   1  -9    3.09    2.36
  15   3 -19    0.70    3.04
  16   2 -14   -1.31    2.83
  18   0 -10    3.80    2.04
  19   1 -14   -0.70    2.48
   4   4 -18   -1.87    2.45
   5   1  -3  230.44    2.63
   6   4 -19   -2.41    2.82
   8   4 -22    1.27    2.36
   8   4 -21    0.23    2.72
  11   3 -14   -1.14    2.35
  12   2 -10   -2.55    2.67
  13   3 -17    2.14    2.87
  14   0  -6    0.90    1.55
  14   2 -12   -2.36    2.45
  16   0  -8    1.41    1.69
  16   2 -15    1.51    2.40
  17   1 -12    0.75    2.29
  19   1 -15    2.16    2.58
  20   0 -13    0.66    2.35
   3   3 -10   10.87    1.99
   4   4 -19    1.02    2.88
   6   4 -21    1.80    2.31
   6   4 -20    3.27    2.55
   9   3 -13    5.96    2.37
  10   2  -9   45.13    2.88
  11   3 -15    2.36    2.56
  13  -1  -4    3.67    1.19
  13   1  -8   27.68    2.50
  13   3 -18    2.25    2.87
  15   1 -10    6.51    2.54
  19   1 -16    0.56    2.61
  20   0 -14    0.48    2.33
  -1   3 -10   12.69    1.74
   1   3 -10   22.34    2.03
   4   2  -6    1.71    1.79
   6   4 -22    0.51    2.67
   9   3 -14   24.68    2.92
  11   3 -16   -1.58    2.98
  12   0  -5    8.56    1.58
  12   2 -11    5.09    2.84
  16   2 -16    0.20    2.57
  17   1 -13   -0.32    2.51
  18   0 -11    2.90    2.19
   3   3 -11    1.41    2.23
   6   2  -7    0.23    1.57
   7   3 -13    1.47    2.83
  11   3 -17   -0.73    3.02
  13   3 -21    1.87    3.24
  13   3 -20    0.66    2.90
  14   0  -7   13.04    2.06
  14   2 -14    2.76    2.61
  16   0  -9    1.01    2.05
  16   2 -17    1.75    2.84
  19   1 -17   -0.19    2.44
  20   0 -15    2.31    2.23
   5   3 -12    9.96    2.52
  10   2 -10    0.99    2.15
  11   3 -18    0.85    3.21
  12   2 -12    2.51    2.67
  13   1  -9    1.25    2.12
  14   2 -15    2.43    2.69
  16   2 -19    0.81    2.78
  16   2 -18    0.76    2.66
  17   1 -14    0.51    2.32
  18   0 -12    9.64    2.22
  19   1 -19    2.14    2.76
  19   1 -18   -2.68    2.50
  20   0 -16    3.57    2.16
   7   3 -14    2.00    2.63
   8   2  -9   12.44    2.30
  10   0  -4    0.83    1.54
  12   2 -13   30.27    2.80
  14   2 -16   -2.38    2.59
  16   0 -10   -0.20    2.27
  17   1 -15    2.40    2.90
  20   0 -17    1.05    2.41
   0   2  -6    0.96    1.53
   3   3 -12    1.85    2.23
   4   2  -7   24.98    2.10
   5   3 -13    2.49    2.25
   7   1  -5    8.10    1.77
   7   3 -15   -0.06    2.46
   8   0  -3  507.63    3.84
  10   2 -11   11.26    2.68
  11   3 -22    1.40    3.10
  12   0  -6    0.73    1.67
  14   0  -8    2.64    2.08
  14   2 -17    2.98    2.75
  17   1 -16    2.36    2.79
  18   0 -13   -1.69    2.03
  20   0 -18    1.81    2.37
   1   3 -12    0.78    1.88
   5   3 -14    4.22    2.44
   8   2 -10   33.66    2.59
   9   3 -19    3.92    2.56
   9   3 -18    2.32    2.45
  12   2 -14    6.36    2.66
  13  -1  -5   -1.61    1.31
  14   2 -18    5.34    2.85
  15  -1  -7    1.89    1.36
  15   1 -13    9.41    2.45
  17   1 -17    3.43    3.02
  18   0 -14    2.42    2.16
  20   0 -19   -4.03    2.50
  -1   3 -12   -1.08    1.54
   5   3 -15    0.05    2.73
   7   3 -17    3.43    2.62
   9   3 -21    3.85    2.62
   9   3 -20   -2.13    3.03
  10   2 -12    4.03    2.45
  12   2 -15    4.88    2.42
  14   2 -19   -0.66    3.01
  16   0 -11   -1.17    2.37
  17   1 -18    2.86    2.89
   1   3 -13    7.33    2.18
   2   2  -7    4.07    1.65
   3   3 -14   -0.08    2.27
   4   2  -8   65.81    2.49
   6   2  -9   13.66    2.20
   7   3 -18    2.10    2.44
   9   1  -7   59.55    2.60
   9   3 -23    2.62    2.95
  10   2 -13    1.11    2.85
  11   1  -9   10.12    2.15
  12   2 -16    0.42    2.65
  14   2 -21   -0.33    3.18
  14   2 -20    1.57    2.72
  17   1 -19    0.60    2.92
  18   0 -15   -0.48    2.01
  -1   3 -13   14.38    1.80
   3   3 -15   27.86    2.87
   5   3 -17   -0.10    2.36
   5   3 -16    1.48    2.23
   7   3 -20    0.76    2.71
   7   3 -19    1.70    2.46
   8   2 -11    0.97    2.09
  10   0  -5    5.77    1.52
  12   0  -7   24.76    1.85
  14   2 -22    1.59    2.56
  15  -1  -8   -0.65    1.72
  16   0 -12    2.07    2.13
  18   0 -16    3.51    2.41
   1   3 -14    1.96    1.89
   3   3 -16    9.99    2.59
   5   3 -18    2.63    2.39
   6   2 -10    2.26    1.96
   7   3 -24   -1.28    2.65
   7   3 -23    1.79    2.71
   7   3 -22    0.84    2.89
   7   3 -21    0.07    2.58
  10   2 -14    5.64    2.48
  12   2 -18   -1.54    2.84
  17  -1 -11   -0.49    1.92
  18   0 -17   -0.54    2.54
   0   2  -7  113.76    2.24
   1   3 -15   -1.46    1.93
   3   3 -17   -1.17    2.37
   5   1  -5   92.12    2.12
   5   3 -20    3.57    2.18
   5   3 -19   -0.43    2.52
   9   1  -8    1.87    1.89
  10   2 -15    7.14    2.29
  11  -1  -4    1.05    1.09
  12   2 -20    3.48    3.01
  12   2 -19    2.86    2.60
  13  -1  -6    8.59    1.35
  13   1 -13    0.99    2.22
  14   0 -10    0.94    2.03
  18   0 -19   -0.08    2.46
  18   0 -18    0.48    2.55
   1   3 -16    3.78    2.00
   2   2  -8   71.15    2.24
   3   3 -18    1.54    2.22
   5   3 -25   -1.41    2.44
   5   3 -24    0.78    2.51
   5   3 -22   -1.79    2.74
   5   3 -21    2.88    2.66
   6   2 -11    8.53    1.91
   8   0  -4   80.01    1.90
   8   2 -13   -0.78    2.33
  10   2 -16    5.45    2.44
  12   0  -8   32.60    2.05
  12   2 -23    0.15    2.93
  12   2 -22    1.47    2.95
  13   1 -14   -0.04    2.07
  15  -1  -9    4.99    1.70
  15   1 -19   -0.40    2.45
  15   1 -18   -1.03    2.47
  16   0 -14    2.70    2.21
  17  -1 -12    0.07    1.83
  18   0 -20   -1.29    2.61
  19  -1 -17    2.29    2.10
   1   3 -17    2.90    1.89
   3   3 -22   -1.05    2.55
   3   3 -21    1.10    2.20
   3   3 -20    1.01    2.12
   3   3 -19   -0.38    2.13
   7   1  -7   13.85    1.75
  10   0  -6   -0.59    1.57
  11   1 -11   -1.31    1.88
  15   1 -21    0.13    2.43
  15   1 -20    1.37    2.92
  16   0 -15    0.54    2.24
  18   0 -21   -1.64    2.17
  19  -1 -18   -1.51    2.35
   1   3 -18   12.23    2.43
   6   2 -12    2.95    2.07
   9   1  -9   14.39    1.97
  10   2 -19    2.43    2.64
  10   2 -18    1.56    2.37
  11   1 -12    6.46    2.10
  13   1 -15   16.58    2.37
  15   1 -22    0.24    2.52
  16   0 -16    0.92    2.18
  19  -1 -20    0.39    2.16
  19  -1 -19   -0.20    1.99
   0   2  -8   -1.52    1.34
   2   2  -9   21.07    1.81
  10   2 -22    1.11    2.76
  10   2 -21    0.03    2.77
  10   2 -20    2.46    2.48
  12   0  -9    8.92    1.83
  13  -1  -7   66.53    2.07
  13   1 -17    1.43    2.20
  13   1 -16    1.15    2.08
  14   0 -12   -0.36    2.15
  15  -1 -10    7.97    1.65
  16   0 -17   -1.32    2.21
  17  -1 -14   -0.80    1.84
   5   1  -6    0.08    1.40
   8   2 -17    1.06    2.28
   8   2 -16    0.99    2.05
   9   1 -10   11.53    2.01
  11  -1  -5   -0.24    1.05
  11   1 -13    7.52    2.28
  13   1 -18    2.62    2.53
  14   0 -13    0.94    2.15
  16   0 -18    2.12    2.44
  17  -1 -15    1.56    2.02
   7   1  -8   80.14    2.52
   8   2 -18    4.79    2.30
  10   0  -7   60.32    2.18
  11   1 -14   -0.37    2.43
  12   0 -10    0.77    1.70
  13   1 -21    1.40    2.38
  13   1 -20    1.39    2.62
  13   1 -19    2.88    2.38
  15  -1 -11   -0.24    1.79
  16   0 -21    2.11    2.24
  16   0 -20   -1.15    2.52
  16   0 -19    2.00    2.26
  17  -1 -16    0.99    2.16
   0   2  -9    7.94    1.54
   2   2 -10   13.64    1.81
   8   2 -25    1.21    2.43
   8   2 -24   -0.01    2.65
   8   2 -23    0.07    2.87
   8   2 -22    0.05    2.83
   9   1 -11   -0.63    1.95
  11   1 -15    2.20    2.06
  13  -1  -8   27.96    1.70
  13   1 -23    1.27    2.58
  13   1 -22    3.72    2.42
  14   0 -14    1.56    2.07
  16   0 -22    0.43    2.37
  17  -1 -17    4.96    1.96
   4   2 -13    0.90    1.75
   7   1  -9   95.62    2.82
  11   1 -16    0.75    2.13
  14   0 -15   -1.57    2.02
  15  -1 -12   20.11    2.12
  17  -1 -18    0.36    2.35
   2   2 -11    5.93    1.71
   5   1  -7   14.83    1.30
   6   2 -26    0.97    2.62
   6   2 -25    0.61    2.66
   6   2 -24    1.38    2.30
   6   2 -18   -1.26    2.14
   6   2 -17   -1.24    2.20
   9   1 -12    3.92    2.02
  10   0  -8   96.97    2.58
  11  -1  -6   10.35    1.41
  11   1 -18    8.01    2.35
  11   1 -17    0.14    2.28
  14   0 -17    5.22    2.48
  14   0 -16    0.65    2.15
  15  -1 -13    8.07    2.22
  17  -1 -21   -2.01    2.06
  17  -1 -20   -0.55    2.30
  17  -1 -19    0.13    2.00
  -2   2  -9   13.04    1.53
   0   2 -10    1.59    1.50
   2   2 -12    8.12    1.60
   4   2 -14    0.91    1.85
   6   0  -4  252.14    2.41
   6   2 -23    1.88    2.34
   6   2 -22    0.76    2.59
   6   2 -21    0.18    2.53
   6   2 -20    1.33    2.42
   6   2 -19   -0.59    2.21
   9   1 -13   10.28    2.20
  11   1 -24   -0.88    2.94
  11   1 -23   -1.45    2.63
  11   1 -22   -0.91    2.37
  11   1 -21    2.12    2.63
  11   1 -19    2.82    2.54
  12   0 -12    7.05    1.96
  13  -1  -9    1.91    1.45
  14   0 -18   10.35    2.49
   4   2 -26   -1.60    2.34
   4   2 -25    2.46    2.41
   4   2 -16    1.03    2.26
   4   2 -15    2.05    1.97
   7   1 -10  114.28    2.59
   9  -1  -4   -0.66    1.16
   9   1 -14   58.81    2.97
  14   0 -23    0.18    2.62
  14   0 -22   -0.05    2.79
  15  -1 -14    2.53    2.00
   0   2 -11   32.98    1.82
   2   2 -13   31.77    2.16
   3   1  -6  200.09    2.36
   4   2 -24    1.55    2.50
   4   2 -23   -0.72    2.56
   4   2 -22    2.24    2.41
   4   2 -19    2.54    2.00
   4   2 -18    1.57    2.07
   4   2 -17   16.48    2.68
   5   1  -8    9.81    1.62
   9   1 -15    6.25    2.36
  13  -1 -10    6.44    1.65
  15  -1 -15   -0.03    1.90
  -9   3 -13   -0.06    1.77
  -7   3 -14   -0.58    1.75
  -4   2 -12    0.88    2.41
  -2   4 -17    7.19    3.31
  -1   3 -15    0.62    2.61
   0   4 -17   -0.24    3.33
   1   3 -15   -0.17    2.75
   2   2 -12    6.42    2.59
   2   4 -17    0.71    3.66
  11   5 -15   -0.80    3.32
 -10   2 -10    0.65    1.60
  -9   1  -6   43.84    1.93
  -8   2 -11    7.12    2.13
  -8   4 -16    2.38    2.43
  -7   1  -7   36.32    1.89
  -4   4 -17   -0.91    2.33
   1   1  -8   21.83    2.10
   3   3 -15   28.25    3.05
   4   4 -17    3.82    3.58
   9   5 -17    0.66    3.57
  11   3 -11    1.07    2.36
  12   4 -13    6.77    2.82
  -9   3 -14    0.27    2.02
  -6   2 -12    9.40    2.60
  -6   4 -17   -1.00    2.82
  -5   1  -8    1.55    1.82
  -2   2 -13    5.31    2.46
  -1   3 -16    0.17    2.66
   0   2 -13    9.86    2.71
   0   4 -18   -1.64    3.83
   1   3 -16    3.22    2.93
   2   4 -18    2.76    3.46
   4   2 -12   21.67    2.79
   5   3 -15   -0.97    2.61
   7   3 -14    2.09    2.92
   7   5 -18    2.48    3.34
   8   2 -10   31.84    2.41
   8   4 -16   -2.45    3.46
   9   3 -13    6.02    2.98
  10   4 -15    5.41    3.06
  11   5 -16    0.65    3.23
  -4   2 -13    3.79    2.53
  -4   4 -18    0.06    2.81
   2   2 -13   30.31    3.22
   3   1  -8    2.99    1.99
   3   3 -16    7.38    3.20
   4   4 -18    2.63    3.73
  12   4 -14    2.95    2.93
  -8   2 -12    0.42    2.25
  -8   4 -17    1.17    2.13
  -6   4 -18   -0.60    2.29
  -5   3 -16    0.70    2.35
  -1   1  -9   37.35    2.32
   1   1  -9   17.34    2.20
   5   3 -16   -1.17    2.79
   7   3 -15    0.32    2.69
   9   3 -14   21.60    3.28
   9   5 -18    0.88    3.09
  10   4 -16    1.60    2.86
  11   5 -17    1.23    3.21
  -9   3 -15   -0.78    1.86
  -7   1  -8  184.14    3.15
  -5   1  -9   17.46    2.12
  -3   3 -17    7.31    2.96
  -1   3 -17    0.40    3.03
   0   4 -19   -1.30    3.37
   1   3 -17   -1.71    3.05
   2   4 -19   -0.60    3.69
   8   2 -11    2.15    2.31
  -8   4 -18   -0.23    2.41
  -7   3 -16    0.12    2.05
  -4   2 -14   14.75    2.99
  -4   4 -19   -0.84    2.53
   2   2 -14    2.60    2.87
   3   1  -9   23.34    2.30
   3   3 -17    1.33    2.88
   7   1  -6   34.57    2.04
   7   3 -16    8.44    2.95
  11   3 -13    3.28    2.85
  12   4 -15    3.57    2.76
  -6   4 -19    0.09    2.70
  -5   3 -17    0.12    2.10
  -1   1 -10   60.45    2.76
  -1   3 -18    0.35    3.11
   0   4 -20    0.40    4.15
   1   1 -10   58.42    2.80
   1   3 -18   17.13    3.50
   9   3 -15    2.98    2.84
  10   2 -10    1.20    2.01
  10   4 -17    0.91    3.11
  -9   3 -16    0.37    1.98
  -7   1  -9    2.17    1.52
  -7   3 -17    0.32    2.12
  -6   2 -14    0.57    2.70
  -5   1 -10   40.19    2.79
  -4   4 -20    0.53    2.72
  -3   3 -18    0.78    3.46
   0   2 -15    8.19    2.95
   2   2 -15   -0.45    3.14
   4   4 -20    3.53    4.00
   8   4 -19    2.54    3.42
  11   3 -14   -0.49    2.77
  12   4 -16   -0.62    3.40
  -9   1  -8   -0.32    1.28
  -8   4 -19   -0.36    2.40
  -6   4 -20    0.70    2.27
  -4   2 -15    2.97    3.00
  -1   1 -11   -0.02    2.26
   2   4 -21    0.48    3.61
   3   1 -10   41.10    2.63
   4   2 -15    1.45    3.00
   7   1  -7   13.14    1.93
   7   3 -17    5.06    3.04
   9   3 -16    2.94    3.16
  10   2 -11   12.82    2.42
  10   4 -18   -1.29    3.28
  -9   3 -17   -0.28    2.39
  -6   2 -15    1.86    2.87
  -3   3 -19    1.60    3.03
  -1   3 -19    2.83    3.36
   0   2 -16   35.60    3.70
   1   1 -11  190.85    4.09
   1   3 -19    1.96    3.40
   3   3 -19    0.01    3.46
   4   4 -21    0.18    4.03
   8   2 -13    2.00    2.54
  11   3 -15   -1.72    2.88
  -7   1 -10   13.09    1.95
  -7   3 -18    0.46    2.37
  -4   2 -16    6.69    3.08
   2   2 -16   -1.22    3.28
   5   3 -19    3.70    3.47
   9   3 -17   -1.98    3.32
  10   2 -12    5.74    2.52
  10   4 -19   -0.42    3.69
  12   2  -9    1.80    1.76
  -9   1  -9   19.12    1.70
  -8   2 -15   -2.26    2.75
  -1   1 -12    0.80    2.37
   0   2 -17    4.94    2.62
   1   1 -12    2.13    2.30
   1   3 -20    0.06    3.83
   3   3 -20    1.05    3.33
   4   2 -16    3.46    3.16
   5   1 -10    7.14    2.32
   8   2 -14    1.05    2.88
  11   3 -16    2.74    2.86
  12   4 -18   -1.13    3.25
  -7   3 -19    2.23    2.55
  -6   2 -16   -0.77    2.86
  -3   3 -20    1.21    3.09
   2   2 -17   -1.18    2.80
   5   3 -20    2.06    3.39
   7   1  -9   95.38    2.95
  10   2 -13   -0.68    2.62
  10   4 -20   -3.03    3.63
  12   2 -10   -0.76    1.82
  12   4 -19    1.79    3.30
  -7   1 -11    1.46    1.82
  -5   1 -12   76.00    2.99
  -5   3 -20    1.76    2.83
  -4   2 -17   -0.67    2.44
  -1   1 -13   45.52    2.88
  -1   3 -21   -1.01    3.66
   1   3 -21    1.57    3.53
   4   2 -17   19.22    3.12
   5   1 -11   11.47    2.49
   8   2 -15    2.09    3.04
  11   3 -17   -1.49    3.18
  -9   1 -10    3.66    1.63
  -8   2 -16    0.30    2.43
  -7   3 -20    0.26    2.51
  -6   2 -17    8.21    2.75
  -3   3 -21   -1.61    3.60
   0   2 -18    0.97    2.76
   1   1 -13   30.09    2.69
   2   2 -18    2.01    3.03
   3   3 -21    2.63    3.20
   5   3 -21    2.74    3.33
   6   2 -17   -2.15    2.75
   9   3 -19    1.32    3.45
  10   2 -14    6.28    2.68
  12   2 -11    2.94    2.12
  12   4 -20   -2.04    3.31
  -7   1 -12    2.14    2.02
  -5   1 -13   54.14    3.04
  -5   3 -21   -0.52    2.60
  -4   2 -18   -1.04    2.95
   1   3 -22   -0.58    3.50
   3   1 -13   30.08    2.75
   4   2 -18    0.46    3.00
   5   1 -12   21.56    2.60
   8   2 -16    0.93    2.85
   9   1  -7   56.61    2.20
  11   3 -18    0.32    3.08
  12   2 -12    5.29    2.65
  13   3 -16    1.61    2.62
  -9   1 -11   11.08    2.06
  -8   2 -17    1.21    2.62
  -6   2 -18    6.71    3.05
  -3   1 -14    5.64    2.41
  -3   3 -22    0.91    3.41
   0   2 -19    4.88    2.94
   1   1 -14    5.46    2.58
   2   2 -19    3.61    3.02
   3   3 -22    1.17    3.38
   5   3 -22   -2.06    3.24
   6   2 -18    0.39    2.91
   7   1 -11   45.34    2.90
   8   2 -17    0.34    3.01
   9   1  -8    0.10    1.89
   9   3 -20    1.65    3.52
  10   2 -15    9.73    2.89
  -7   3 -21    0.15    2.46
  -5   1 -14   19.10    2.87
  -5   3 -22   -0.76    2.38
  -4   2 -19   -0.14    2.78
   1   3 -23    0.45    3.30
   3   1 -14    1.08    2.51
   4   2 -19    2.00    3.16
   5   1 -13    4.46    2.28
  11   3 -19    3.15    3.35
  12   2 -13   27.72    2.68
  13   3 -17    1.38    2.61
  -3   1 -15   -2.54    2.67
  -2   2 -20    1.44    3.18
   0   2 -20   -2.01    3.13
   1   1 -15   -2.03    2.56
   3   3 -23    2.95    3.30
   5   1 -14    8.21    2.35
   7   1 -12    1.16    2.04
   8   2 -18    6.95    3.02
   9   1  -9   14.73    1.92
  10   2 -16    5.56    3.10
  12   2 -14    3.82    2.87
  13   3 -18   -1.79    3.34
  -8   2 -18    3.47    2.35
  -7   3 -22    0.16    2.33
  -6   2 -19    1.49    2.54
   3   1 -15   69.94    2.94
   4   2 -20   -2.06    3.22
   7   1 -13    0.38    2.16
   9   1 -10   10.62    1.99
  10   2 -17   -0.42    2.42
  -5   1 -15    4.46    2.29
  -3   1 -16   10.43    2.99
  -2   0  -6   99.23    1.83
  -2   2 -21    0.80    3.21
  -1   1 -16    0.93    2.44
   0   2 -21   -0.94    3.23
   1   1 -16    8.91    2.73
   2   2 -21   -0.41    3.48
   3   1 -16   18.62    3.09
   5   1 -15    0.86    2.57
   9   1 -11   -0.37    1.89
   9   3 -22   -0.38    3.06
  11   3 -21    2.97    3.41
  12   2 -15    0.50    2.61
  13   3 -19   -1.12    2.94
  -9   1 -13    2.40    1.99
  -8   2 -19   -3.47    2.87
  -6   2 -20    0.65    2.91
  -5   1 -16    5.23    2.72
  -1   1 -17    0.58    2.58
   1   1 -17    1.76    2.75
   7   1 -14    2.01    2.55
   9   3 -23   -2.00    3.24
  10   2 -18    0.86    2.97
  12   2 -16    2.44    2.81
  -7   1 -15   34.52    2.73
  -3   1 -17   19.38    3.15
  -2   0  -7   -1.12    1.26
  -2   2 -22    0.05    3.30
   0   2 -22   -0.99    3.32
   2   2 -22    0.72    3.72
   3   1 -17    0.49    3.08
   4   2 -22    2.53    3.25
   5   1 -16    1.92    2.67
   6   2 -21   -0.52    3.29
   8   2 -20    5.63    3.17
   9   1 -12    7.33    2.17
  11   3 -22   -2.02    3.22
  13   3 -20   -0.32    2.64
  -8   2 -20    4.52    2.66
  -6   2 -21    2.48    3.11
  -5   1 -17    1.85    2.94
  -4   2 -22    2.12    3.38
  -2   0  -8   35.57    1.83
  -1   1 -18    2.23    2.59
   0   0  -8    0.96    1.54
   1   1 -18   38.91    3.29
   2   0  -6   55.60    1.49
   5   1 -17    3.31    2.95
   6   2 -22    0.86    3.12
   8   2 -21    0.71    3.10
   9   1 -13   10.59    2.43
  10   2 -19    0.81    2.63
  11   1  -6   10.64    1.43
  12   2 -17    3.08    2.52
  13   3 -21   -0.73    3.27
  -7   1 -16    2.42    2.50
  -4   0  -8   86.50    2.36
  -3   1 -18   -0.76    2.49
  -2   0  -9   22.99    1.94
  -2   2 -23    1.18    3.39
   0   0  -9   21.14    1.94
   2   0  -7    5.52    1.32
   2   2 -23    0.63    3.21
   3   1 -18   -0.47    2.55
   4   2 -23   -3.30    3.67
   9   1 -14   57.61    3.21
  10   2 -20    4.52    2.99
  11   1  -9    9.62    1.76
  12   2 -18   -2.51    2.64
  -9   1 -15   -3.19    2.30
  -8   2 -21   -1.23    2.31
  -7   1 -17    4.21    2.52
  -6   2 -22    0.32    2.89
  -4   2 -23    1.94    3.05
   0   0 -10    2.30    1.94
   1   1 -19    5.31    2.83
   2   0  -9   30.95    2.00
   2   2 -24    3.38    3.76
   3   1 -19    3.14    2.80
   5   1 -18    4.36    2.49
   6   2 -23    1.38    3.40
   8   2 -22    0.59    3.40
   9   1 -15    1.66    2.34
  11   1 -10   16.78    1.81
  13   3 -22   -2.31    3.03
  -4   0 -10    3.86    2.01
  -3   1 -19   -1.84    2.65
  -2   2 -24   -0.92    3.31
   0   0 -11   54.50    2.71
   0   2 -24   -3.27    3.09
   1   1 -20    2.00    2.55
   2   0 -10   22.33    2.28
   4   2 -24    0.06    3.71
   5   1 -19    3.60    2.66
  10   2 -21   -0.14    2.82
  11   1 -12    8.35    2.12
  12   2 -19    1.28    2.75
  -7   1 -18   -0.42    2.41
  -6   2 -23    0.54    2.88
  -5   1 -19    9.24    2.78
  -4   2 -24    1.72    3.28
  -3   1 -20   -0.22    2.58
   0   0 -12   44.43    2.52
   2   0 -11    6.90    2.27
   4   0  -8  123.80    2.56
   4   0  -7   55.52    1.87
   4   0  -6    0.38    1.00
   6   2 -24   -1.06    3.55
  10   2 -22    1.12    3.38
  11   1 -13    2.71    2.26
  12   2 -20    3.04    3.07
  -6   0  -9    2.09    1.70
  -4   0 -11    1.39    1.98
   1   1 -21    2.43    2.94
   2   0 -12    8.50    2.22
   3   1 -21   -0.51    2.86
   4   0 -10  289.53    4.05
   5   1 -20    5.73    3.00
   9   1 -17    0.76    2.78
  11   1 -14    0.22    2.26
  12   2 -21    1.72    3.20
  -7   1 -19    5.92    2.38
  -5   1 -20    4.26    2.60
  -4   0 -12    5.14    1.82
  -3   1 -21    0.87    2.76
   0   0 -13   11.75    2.14
   2   0 -13   56.27    2.89
   4   0 -11   18.55    2.41
   7   1 -20   -0.46    2.57
  10   2 -23    0.50    3.03
  11   1 -15    0.69    2.37
  -5   1 -21    0.96    2.79
  -4   0 -13    2.19    1.85
   0   0 -14    2.79    2.15
   1   1 -22    0.43    2.84
   2   0 -14    4.41    2.30
   3   1 -22    2.65    3.10
   4   0 -12   34.50    2.54
   9   1 -19    5.05    2.74
  10   2 -24   -2.11    3.31
  11   1 -16    1.38    2.56
  12   2 -22    2.81    3.18
  -7   1 -20    3.87    2.43
  -4   0 -14   31.61    2.48
  -3   1 -22    2.26    3.18
   0   0 -15    5.66    2.49
   1   1 -23    5.10    3.13
   2   0 -15   -0.87    2.36
   3   1 -23    3.52    3.00
   4   0 -14    1.65    2.10
   4   0 -13    0.02    2.03
   5   1 -22    1.26    3.01
   7   1 -21    1.22    2.83
   9   1 -20    1.07    2.63
  11   1 -17    0.20    2.56
  -8   0 -10    1.87    1.49
  -4   0 -15    6.24    2.27
  -3   1 -23   -3.56    2.91
  -1   1 -23    4.50    2.94
   0   0 -16   62.72    3.27
   2   0 -16    1.94    2.51
   4   0 -15    1.83    2.26
   5   1 -23    1.19    3.42
   6   0  -7   -0.43    1.24
   7   1 -22    1.60    3.31
  12   2 -24   -0.86    3.03
  14   2 -21    2.11    2.70
  -8   0 -11   12.20    1.72
  -6   0 -14   -0.50    2.02
  -1   1 -24   -0.31    3.36
   0   0 -17    3.99    2.80
   1   1 -24    1.71    3.34
   2   0 -17   -3.25    2.58
   3   1 -24   -3.81    3.29
   4   0 -16    3.45    2.46
   6   0 -13    3.68    2.13
   7   1 -23   -0.14    2.88
  11   1 -19    3.00    2.72
  13   1 -14    1.83    1.95
  13   1 -13    0.48    1.89
  -8   0 -12   -0.96    1.78
  -7   1 -22    0.87    2.49
  -6   0 -15    1.06    2.12
  -5   1 -23   -1.10    2.98
  -3   1 -24   -0.57    3.02
  -2   0 -17   29.80    2.81
   1   1 -25   -0.66    2.93
   2   0 -18    0.49    2.85
   3   1 -25   -1.43    3.08
   4   0 -17   34.76    3.07
   5   1 -24   -1.37    3.07
   6   0 -15   95.81    3.41
   6   0 -14   20.17    1.82
   9   1 -22    2.19    3.07
  13   1 -16   -0.83    2.26
  13   1 -15   16.91    2.51
  14   2 -23    1.81    2.60
  -8   0 -13   82.04    2.73
  -6   0 -16    0.35    2.41
  -5   1 -24    0.90    2.28
  -4   0 -17    0.94    2.42
  -2   0 -18   11.17    2.78
  -1   1 -25   -0.41    2.85
   0   0 -19    0.66    2.21
   5   1 -25    0.56    3.30
   6   0 -16    2.97    2.58
   7   1 -24   -1.15    3.16
   9   1 -23    1.71    3.15
  11   1 -21    1.75    2.77
  13   1 -17   -1.15    2.23
  -8   0 -14    1.37    1.88
  -7   1 -23    2.04    2.73
  -4   0 -18   -0.03    2.65
  -2   0 -19    6.48    2.55
   2   0 -19    2.06    1.82
   4   0 -19    5.02    2.52
   7   1 -25    4.15    3.33
   8   0 -14    0.57    2.24
   8   0 -13    2.95    1.95
   8   0 -12   16.46    2.03
   8   0 -10   51.12    2.42
   8   0  -9   14.94    1.75
   9   1 -24    0.67    3.02
  11   1 -22    1.65    3.03
  13   1 -18   -0.48    2.34
  -8   0 -15    0.64    1.82
  -6   0 -17   12.99    2.30
  -5   1 -25    1.48    2.66
  -2   0 -20    0.76    2.51
   0   0 -20   -0.22    2.49
   2   0 -20    8.27    2.74
   4   0 -20    1.59    2.51
   6   0 -19    0.66    2.38
   6   0 -18   -0.48    2.17
   8   0 -16    1.51    2.57
   8   0  -8   27.19    1.76
  11   1 -23   -0.49    2.75
  13   1 -20    0.34    2.67
  13   1 -19   -0.27    2.16
  -8   0 -16   -1.05    2.03
  -6   0 -18    8.16    2.38
  -2   0 -21   -1.78    2.35
   0   0 -21    4.33    2.74
   6   0 -20    5.95    2.51
   8   0 -17   -1.65    2.83
   8   0  -7    6.56    1.44
   9   1 -25    0.67    2.70
  11   1 -24    0.48    2.97
  13   1 -21   -0.37    2.66
  -8   0 -17    0.07    2.20
  -4   0 -21    9.77    2.82
   2   0 -22    5.50    2.75
   4   0 -22    0.53    2.68
  13   1 -22    5.12    2.89
  -6   0 -20    3.14    2.31
  -2   0 -22    1.63    2.58
   2   0 -23    3.72    2.92
   4   0 -23   -0.54    2.77
   6   0 -22    7.60    2.66
  10   0 -14    7.54    2.36
  10   0 -13   -1.14    2.00
  10   0 -12   10.05    1.98
  11   1 -25   -0.75    2.81
  -6   0 -21    4.76    2.37
  -4   0 -22    1.19    2.56
  -2   0 -23    1.96    2.91
   2   0 -24    4.51    3.23
   6   0 -23    0.42    2.75
  10   0 -18    0.76    2.19
  10   0 -17    0.21    2.44
  10   0 -10   -0.28    1.43
  13   1 -24   -0.10    2.96
  -6   0 -22    1.39    2.60
  -4   0 -23    2.40    2.86
  -2   0 -24    1.04    3.02
   2   0 -25    0.13    2.92
   4   0 -24    1.60    2.69
   6   0 -24   -1.24    2.77
  10   0 -20    2.81    2.70
  10   0 -19    0.17    2.38
  -4   0 -24   -0.09    2.84
  -2   0 -25    1.60    2.80
   4   0 -25    1.90    2.97
   6   0 -25    1.25    2.91
  10   0 -21    0.42    2.62
  -6   0 -23    1.35    2.45
  -4   0 -25    0.05    2.69
  10   0 -22   -0.69    2.86
  12   0 -18    1.41    2.29
  12   0 -17    1.54    2.22
  12   0 -16    0.87    2.33
  12   0 -15    6.24    2.09
  12   0 -14    8.01    2.10
  -6   0 -24   -1.09    2.40
  -1  -1 -14    9.10    2.28
  -1  -1 -13   42.95    2.34
  -1  -1 -12    2.07    1.65
   1  -1 -15    1.91    2.07
   1  -1 -14    5.15    2.10
   1  -1 -13   26.25    2.31
   1  -1 -12    2.21    1.84
   8   0 -25   -0.42    2.79
  10   0 -24   -3.04    3.23
  10   0 -23    2.69    2.69
  12   0 -20    6.92    2.40
  12   0 -19    2.94    2.36
  12   0 -12    6.00    1.70
  -6   0 -25    0.66    2.28
  -3  -1 -15   -1.64    2.10
  -3  -1 -14    5.76    2.04
  -3  -1 -13    4.89    1.77
  -1  -1 -11    0.77    1.83
  -1  -1 -10   46.55    2.10
   1  -1 -18   35.68    2.92
   1  -1 -17    2.52    2.54
   1  -1 -16    9.75    1.74
   1  -1 -11  188.55    3.54
   3  -1 -17    0.31    2.63
   3  -1 -14    1.49    2.07
   3  -1 -13   28.41    2.33
   3  -1 -12   12.58    2.02
  10   0 -25    3.79    2.52
  12   0 -22    1.37    2.76
  12   0 -21    2.38    2.55
  12   0 -11    3.12    1.54
  -3  -1 -18    1.25    2.46
  -3  -1 -17   18.37    2.61
  -3  -1 -16   13.52    2.38
  -3  -1 -11   44.32    2.19
  -3  -1 -10   36.75    2.03
   1  -1 -20   -2.31    2.19
   1  -1 -19    1.85    2.40
   3  -1 -19    2.67    2.34
   3  -1 -18   -0.05    2.10
   3  -1 -11    0.36    1.92
   5  -1 -17    3.33    2.43
   5  -1 -16    4.74    2.48
   5  -1 -15    1.18    2.11
   5  -1 -14    5.82    2.15
  12   0 -23   -2.07    2.93
  12   0 -10   -0.97    1.43
  -5  -1 -16    3.50    2.24
  -5  -1 -15    3.85    2.09
  -5  -1 -14   17.12    2.11
  -5  -1 -13   54.28    2.43
  -5  -1 -12   78.74    2.45
  -3  -1 -19    0.14    2.09
  -3  -1  -9    0.23    1.46
  -1  -1 -21    4.78    2.31
  -1  -1 -20    5.41    2.55
   1  -1 -21    0.38    2.72
   1  -1  -9   17.49    1.74
   3  -1 -21    3.92    2.53
   3  -1 -20    2.07    2.26
   5  -1 -20    9.54    2.41
   5  -1 -19    3.83    2.45
   5  -1 -18    2.50    2.08
   5  -1 -13    6.83    1.48
   5  -1 -12   21.98    2.17
  12   0 -24   -1.42    2.65
  14   0 -18    7.03    2.37
  14   0 -17    5.67    2.20
  -5  -1 -18    2.95    2.28
  -5  -1 -11    0.16    1.41
  -5  -1 -10   39.10    2.10
  -3  -1 -21    0.84    2.20
  -3  -1 -20    0.39    2.25
  -1  -1 -22    0.24    2.55
   1  -1 -23    4.13    2.85
   1  -1 -22    0.19    2.57
   3  -1 -22    5.10    2.65
   5  -1 -22    1.41    2.54
   5  -1 -21   -0.58    2.61
   5  -1 -11   11.81    2.04
   7  -1 -19    0.43    2.27
   7  -1 -17    8.62    2.69
   7  -1 -16   10.81    2.56
  12   0 -25    1.83    2.42
  14   0 -21    1.49    2.52
  14   0 -20   -0.22    2.35
  14   0 -19   -1.10    2.04
  14   0 -16   -0.77    2.08
  14   0 -15    0.78    1.81
  -7  -1 -15   30.85    2.41
  -7  -1 -14   -0.61    1.93
  -5  -1 -20   -1.25    2.25
  -5  -1 -19    6.96    2.32
  -5  -1  -9   16.23    1.75
  -3  -1 -22    2.13    2.66
  -3  -1  -8   88.07    2.15
  -1  -1 -23    2.60    2.88
   1  -1 -24    0.48    2.74
   3  -1 -24   -2.41    2.59
   3  -1 -23    1.46    2.70
   5  -1 -23    3.47    2.88
   5  -1 -10    5.38    1.99
   7  -1 -21    3.36    2.58
   7  -1 -20    2.58    2.43
  14   0 -23   -0.95    2.58
  14   0 -22    1.69    2.45
  -7  -1 -18    1.71    2.03
  -7  -1 -17    4.09    1.89
  -7  -1 -16    2.35    2.03
  -7  -1 -13    1.06    1.54
  -7  -1 -12    2.74    1.47
  -5  -1 -21   -0.76    2.38
  -3  -1 -23    0.64    2.73
  -1  -1 -24    0.93    2.87
  -1  -1  -7  119.12    2.15
   3  -1 -25   -2.44    3.02
   3  -1  -8    3.78    1.55
   5  -1 -24    0.67    2.85
   5  -1  -9   95.81    2.37
   7  -1 -23    3.09    2.94
   7  -1 -22    2.90    2.59
   9  -1 -19    6.42    2.29
   9  -1 -17    2.27    2.33
   9  -1 -16   11.16    2.29
  14   0 -24   -0.10    2.37
  -7  -1 -20    3.99    2.06
  -7  -1 -11   -0.79    1.29
  -5  -1 -23    3.32    2.43
  -5  -1 -22    1.63    2.41
  -5  -1  -8    1.79    1.29
  -3  -1 -24   -0.31    2.60
  -1  -1 -25    0.70    2.41
   5  -1 -25    0.53    2.78
   7  -1 -25   -1.06    3.13
   7  -1 -24   -1.48    2.94
   9  -1 -22   -1.13    2.55
   9  -1 -21    6.37    2.75
   9  -1 -20    0.86    2.20
   9  -1 -15    4.35    2.17
   9  -1 -14   56.71    2.79
  -7  -1 -21    3.05    2.43
  -7  -1 -10   11.98    1.39
  -5  -1 -24    2.81    2.04
  -3  -1 -25   -1.19    2.31
   3  -1  -7   11.15    1.38
   5  -1  -8   10.78    1.43
  -7  -1  -9   -0.14    1.04
  -5  -1 -25    0.41    2.21
  -5  -1  -7   32.71    1.61
  -1  -1  -6  172.76    2.20
   1  -1  -6  156.54    2.12
   9  -1 -12    5.53    1.95
  11  -1 -22   -1.23    2.79
  11  -1 -21    0.75    2.41
  11  -1 -20    0.24    2.35
  11  -1 -19    6.14    2.50
  11  -1 -18    8.25    2.28
  11  -1 -17    0.71    2.25
  11  -1 -24   -0.58    2.70
  11  -1 -23    0.51    2.70
  11  -1 -16    0.45    2.15
  11  -1 -15    0.92    1.95
  -7  -1  -8  166.32    2.37
   3  -1  -6  216.95    2.51
  11  -1 -14   -1.23    2.08
   9  -1 -10   13.11    1.80
  11  -1 -13    6.96    1.94
  13  -1 -23    2.21    2.58
  13  -1 -22    1.13    2.69
  13  -1 -21   -2.58    2.46
  13  -1 -20    3.34    2.22
  13  -1 -19    0.49    2.18
  13  -1 -18    1.80    2.15
  -5  -1  -6    5.66    1.00
  -1  -1  -5  436.13    2.97
   1  -1  -5   20.34    1.03
   2  -2 -20    4.57    2.42
   2  -2 -19    1.41    2.22
   2  -2 -18   -1.33    2.12
  11  -1 -12    7.69    1.78
  13  -1 -24    0.25    2.53
  13  -1 -16   -0.89    2.20
  -7  -1  -7   32.64    1.34
  -2  -2 -21    1.19    2.56
  -2  -2 -20    2.32    2.07
  -2  -2 -19    4.94    2.24
  -2  -2 -18   10.47    2.16
  -2  -2 -17   16.48    2.39
  -2  -2 -16    2.34    2.18
   0  -2 -23    0.64    2.49
   0  -2 -17    2.04    1.96
   0  -2 -16   31.96    2.95
   0  -2 -15    5.10    2.07
   2  -2 -23    1.65    2.80
   2  -2 -22    0.74    2.66
   2  -2 -21   -1.12    2.31
   2  -2 -16   -1.31    2.51
   2  -2 -15   -0.31    2.12
   4  -2 -23   -0.83    2.33
   4  -2 -22   -1.59    2.88
   4  -2 -21    3.74    2.52
   4  -2 -20    0.22    2.41
   4  -2 -17   16.74    2.22
   4  -2 -16    2.26    2.38
  13  -1 -15   15.23    2.23
  -4  -2 -19    1.50    2.24
  -4  -2 -18   -2.13    2.16
  -2  -2 -23    0.76    2.65
  -2  -2 -22    3.08    2.46
  -2  -2 -15    1.41    2.12
  -2  -2 -14    2.80    1.80
   0  -2 -25   -2.10    2.53
   0  -2 -24   -2.72    2.80
   0  -2 -14    2.22    1.86
   2  -2 -25   -2.05    2.78
   2  -2 -24   -0.70    2.51
   2  -2 -14    3.46    2.13
   4  -2 -25   -1.89    2.92
   4  -2 -24    4.16    2.93
   4  -2 -15    3.56    2.17
   5  -1  -6   -1.00    1.23
   6  -2 -24   -0.63    2.54
   6  -2 -23   -0.96    2.66
   6  -2 -21   -0.03    2.39
   6  -2 -19    0.91    2.17
   6  -2 -18    0.88    2.30
   7  -1  -7   15.35    1.54
  11  -1 -11   -0.95    1.55
  13  -1 -14    2.21    1.80
  15  -1 -23   -0.99    2.22
  15  -1 -22    2.07    2.35
  15  -1 -21    0.73    2.21
  -4  -2 -22   -1.84    2.50
  -4  -2 -21    7.85    2.41
  -4  -2 -20   -1.25    1.96
  -4  -2 -17    0.32    1.83
  -4  -2 -16    9.32    2.37
  -4  -2 -15    2.28    2.01
  -2  -2 -24    0.86    2.51
   0  -2 -13   10.31    1.81
   2  -2 -13   28.27    2.38
   3  -1  -5   52.94    1.32
   4  -2 -14    1.98    1.90
   6  -2 -16    4.92    2.25
   6  -2 -15   58.42    3.17
   8  -2 -23   -1.04    2.69
   8  -2 -22    1.85    2.67
   8  -2 -21    0.09    2.75
   8  -2 -20    7.26    2.68
  15  -1 -20    2.96    2.52
  -9  -1  -8   -0.01    0.89
  -6  -2 -19   -1.18    1.99
  -6  -2 -18    4.69    1.98
  -4  -2 -24    0.41    2.37
  -4  -2 -23    4.61    2.04
  -4  -2 -14   13.74    2.15
   0  -2 -12   26.41    2.14
   4  -2 -13    2.01    1.88
   8  -2 -24   -4.01    2.49
   9  -1  -8    1.43    1.45
  11  -1 -10   15.08    1.64
  -7  -1  -6   81.46    1.54
  -6  -2 -22    0.90    2.16
  -6  -2 -21    2.71    2.32
  -6  -2 -20    2.21    1.77
  -6  -2 -17    6.56    2.06
  -6  -2 -16    0.46    1.79
  -6  -2 -15    1.49    1.94
  -4  -2 -13    1.66    1.74
   0  -2 -11   33.47    2.05
   2  -2 -11    4.37    1.80
   6  -2 -13    4.76    2.06
  10  -2 -24    1.87    2.60
  10  -2 -23   -0.43    2.69
  10  -2 -22    2.59    2.76
  10  -2 -21   -2.21    2.49
  10  -2 -20    1.83    2.47
  10  -2 -19    0.01    2.17
  13  -1 -12    3.81    1.63
  -6  -2 -14   -0.87    1.63
  -4  -2 -12    1.30    1.66
   4  -2 -11   12.75    1.99
   6  -2 -12    6.78    1.80
  10  -2 -18    2.48    2.24
  10  -2 -17   -0.01    2.08
  11  -1  -9    9.71    1.57
  -9  -1  -7   31.05    1.28
  -6  -2 -13    0.79    1.68
  -4  -2 -11    0.25    1.45
   0  -2 -10    0.83    1.69
   2  -2 -10   11.43    1.89
   8  -2 -13   -0.06    1.81
  10  -2 -16    4.69    2.10
  12  -2 -23   -0.22    2.48
  12  -2 -22   -2.48    2.73
  12  -2 -21    1.86    2.54
  12  -2 -20    4.57    2.49
  13  -1 -11    0.22    1.56
  -6  -2 -12   11.64    1.72
   6  -2 -11    9.58    1.84
  10  -2 -15    5.13    2.33
  12  -2 -19    1.69    2.34
  12  -2 -18    0.80    2.34
  -8  -2 -14    2.19    1.76
  -4  -2 -10   -0.30    1.49
   0  -2  -9    7.63    1.80
   2  -2  -9   19.15    2.01
   8  -2 -12    8.95    1.97
  10  -2 -14    6.32    2.24
  12  -2 -17    1.90    2.07
  -8  -2 -13   44.82    2.30
  -6  -2 -11    1.87    1.34
   4  -2  -9   10.21    1.79
   6  -2 -10    0.95    1.69
  11  -1  -8   10.01    1.26
  12  -2 -16    0.07    1.92
  13  -1 -10    4.97    1.32
  14  -2 -23    1.69    2.31
  14  -2 -22    2.22    2.30
  14  -2 -21    1.04    2.22
  -4  -2  -9   55.19    2.01
  -1  -3 -23   -1.93    2.62
  -1  -3 -22   -0.65    2.34
  -1  -3 -21    3.82    2.29
  -1  -3 -20    4.08    2.48
   0  -2  -8    1.35    1.47
   1  -3 -20   -1.30    2.52
   1  -3 -19    1.04    2.33
   3  -3 -22    0.27    2.50
   3  -3 -21   -0.79    2.66
   3  -3 -20    0.89    2.60
   3  -3 -19    1.58    2.25
   5  -3 -23    2.48    2.73
   5  -3 -22   -3.48    2.61
   5  -3 -21    1.85    2.74
   5  -3 -20    3.74    2.34
   7  -1  -5    7.11    1.27
   8  -2 -11    0.82    1.73
  12  -2 -15    3.55    2.06
  14  -2 -19   -0.80    2.19
  -8  -2 -12    0.81    1.37
  -3  -3 -22    1.17    2.37
  -3  -3 -21    1.48    2.44
  -1  -3 -18   -2.69    2.15
   1  -3 -18   11.77    2.26
   1  -3 -17   -1.60    2.08
   2  -2  -8   74.62    2.37
   3  -3 -18    1.41    2.10
   3  -3 -17   -1.55    2.11
   5  -3 -19   -0.51    2.41
   5  -3 -18    1.76    2.27
   6  -2  -9   13.60    1.66
   7  -3 -23   -1.07    2.91
   7  -3 -22   -0.19    2.75
   7  -3 -21   -0.16    2.65
   7  -3 -20   -1.10    2.38
   9  -1  -6   12.23    1.24
  10  -2 -12    4.06    1.96
  12  -2 -14    6.27    2.28
  14  -2 -18    4.51    2.12
  -8  -2 -11    5.80    1.43
  -3  -3 -23   -0.24    2.09
  -3  -3 -20    0.44    2.05
  -3  -3 -19   -1.31    2.15
  -3  -3 -18    1.56    2.10
  -1  -3 -17   -0.37    1.90
  -1  -3 -16    0.84    2.05
   1  -3 -16    2.02    2.02
   4  -2  -8   60.96    2.33
   5  -3 -17   -0.68    2.12
   7  -3 -19    0.46    2.30
   7  -3 -18   -0.45    2.13
   8  -2 -10   34.20    1.98
  13  -1  -9    1.47    1.07
  14  -2 -17    3.40    1.97
  -6  -2  -9    2.21    1.26
  -5  -3 -22    0.51    2.16
  -5  -3 -21   -1.54    2.19
  -5  -3 -20    0.64    2.01
  -5  -3 -19    3.94    2.14
  -4  -2  -8   40.83    1.87
  -3  -3 -17    5.59    2.22
  -3  -3 -16    5.42    1.79
   1  -3 -15    0.55    1.61
   3  -3 -15   28.77    2.36
   5  -3 -16    1.37    1.95
   7  -3 -17    2.88    2.26
  11  -1  -7   11.07    1.07
  12  -2 -13   29.25    2.22
  -8  -2 -10    0.78    1.34
  -5  -3 -18    1.79    2.04
  -5  -3 -17    1.44    2.03
  -3  -3 -15    0.24    1.89
   0  -2  -7  113.86    2.16
   1  -3 -14   -0.58    2.24
   2  -2  -7    3.98    1.52
   7  -3 -16    6.87    2.21
   8  -2  -9    9.67    1.56
   9  -3 -18    2.05    2.58
  11  -3 -21    0.64    2.28
  14  -2 -15   -0.94    1.76
  -5  -3 -16    0.13    1.84
  -3  -3 -14   -0.08    2.10
   1  -3 -13    6.14    2.31
   4  -2  -7   24.69    1.75
   5  -3 -14    2.89    2.17
   7  -3 -15   -0.69    1.97
   9  -3 -17   -2.18    2.17
  10  -2 -10    1.65    1.65
  11  -3 -20    0.58    2.50
  11  -3 -19    3.93    2.55
  12  -2 -12    4.25    1.77
  -6  -2  -8   58.68    1.79
  -5  -3 -15    1.41    1.83
  -4  -2  -7  106.46    2.21
  -3  -3 -13    1.36    1.86
   1  -3 -12    0.72    1.93
   5  -3 -13    1.00    2.17
   7  -3 -14    3.30    2.00
   9  -3 -16    4.32    2.21
  11  -3 -18    2.26    2.29
  -8  -2  -9   13.39    1.24
  -7  -3 -17    1.57    1.74
  -5  -3 -14    5.35    2.10
   0  -2  -6   -0.35    1.32
   3  -3 -12    4.16    1.98
   7  -1  -4    1.48    0.83
   8  -2  -8   12.16    1.62
   9  -3 -15    2.18    2.12
   9  -1  -5  125.47    1.95
  11  -3 -17   -0.82    2.25
  12  -2 -11    5.44    1.67
  13  -3 -21    2.90    2.36
  13  -3 -20    2.54    2.01
  14  -2 -13    1.01    1.98
  -7  -3 -16   -1.64    1.82
  -7  -3 -15   10.06    2.13
  -5  -3 -13   18.81    2.12
  -3  -3 -12    1.19    1.78
   2  -2  -6   25.13    1.57
   3  -3 -11    0.72    1.83
   5  -3 -12    8.57    2.13
   7  -3 -13   -0.85    2.12
   9  -3 -14   24.24    2.32
  10  -2  -9   42.16    2.04
  11  -3 -16    1.79    2.07
  13  -3 -19    1.37    2.38
  -6  -2  -7   41.11    1.73
   2  -4 -21    1.41    2.24
   4  -4 -21    0.86    2.38
   4  -2  -6    1.50    1.45
   5  -3 -11    6.37    1.77
  11  -3 -15   -0.01    2.05
  13  -3 -18    2.37    2.32
  14  -2 -12   -1.32    1.83
  -8  -2  -8   14.22    1.34
  -7  -3 -14    0.14    1.69
  -5  -3 -12   22.35    2.19
  -4  -2  -6  103.87    2.08
  -3  -3 -11   14.91    1.91
  -1  -3 -10   12.96    1.80
   0  -4 -21    0.75    2.41
   0  -4 -20    0.05    2.58
   1  -3 -10   23.35    2.01
   2  -4 -20    0.62    2.68
   2  -4 -19   -1.04    2.61
   3  -3 -10   11.05    1.87
   4  -4 -19    0.57    2.20
   6  -4 -21   -1.36    2.62
   6  -4 -20   -0.79    2.40
   9  -3 -13    5.91    2.03
  12  -2 -10    0.24    1.56
  13  -3 -17    1.03    2.16
  15  -3 -21   -0.11    2.09
  15  -3 -20   -0.43    2.19
  -7  -3 -13    0.42    1.72
  -2  -4 -21   -0.78    2.06
  -2  -4 -20    2.80    2.29
  -2  -4 -19    1.34    2.13
   0  -4 -19   -2.62    2.27
   4  -4 -18   -0.29    2.61
   5  -3 -10    3.61    1.74
   6  -4 -19   -0.87    2.51
   8  -2  -7    3.81    1.53
   9  -3 -12    2.91    2.03
  11  -3 -14    1.94    1.86
  13  -3 -16   -1.29    1.98
  15  -3 -19   -0.38    2.23
  -5   3   0    0.23    1.95
  -5   7   4    0.00    2.83
  -2   6   0    1.07    2.50
   3   3  -4   19.48    2.54
   4   4  -4    1.92    2.62
  10   6  -3   -3.03    3.58
  11   5  -4   -0.55    2.84
  12   6  -3   -1.52    3.17
  13   5  -4    1.23    2.98
  -9   3   3    6.06    1.83
  -7   5   2   -0.04    1.97
  -4   6   1    0.55    2.17
  -3   7   2   -1.66    2.75
  -1   7   1    1.23    2.60
   1   5  -3   -0.16    2.71
   2   6  -2   -0.94    3.16
   3   7  -1    1.68    3.54
   4   2  -4   20.76    2.21
   5   5  -4   29.30    3.45
   6   6  -3   -3.06    3.23
   7   3  -5    3.08    2.02
   8   4  -5   -2.05    3.02
  10   4  -5    0.48    2.88
  11   3  -5   -1.81    1.83
  12   4  -5    2.56    2.76
  14   6  -3   -3.06    2.99
  -8   4   2    4.39    1.91
  -6   6   2    0.00    2.29
  -5   5   0   -1.41    2.16
  -5   7   3   -1.17    2.87
  -4   4  -1    2.27    2.19
   2   4  -4   42.55    3.52
   6   4  -5   17.04    3.05
  10   6  -4   -2.36    3.72
  13   3  -5   -0.39    1.49
  15   5  -4   -0.11    2.45
  -6   4   0   -1.36    2.16
  -4   6   0   -0.31    2.37
  -3   7   1    1.70    2.85
  -2   6  -1    0.37    2.38
  -1   7   0   -0.91    2.96
   2   6  -3   -0.31    3.47
   4   4  -5    5.23    2.34
   6   6  -4    4.82    3.37
   7   5  -5    1.06    3.06
   9   5  -5    8.08    2.85
  10   2  -5    1.39    2.11
  11   5  -5   -0.43    2.99
  12   6  -4    1.94    3.19
  13   5  -5    2.15    2.93
  14   4  -5    0.99    2.15
  -7   5   1    0.58    1.93
  -5   7   2   -0.73    2.86
  -2   2  -2   63.30    2.09
   0   2  -3    0.45    1.70
   1   3  -4    4.73    2.51
   3   7  -2   -2.22    3.53
   4   6  -4    2.65    3.33
   8   2  -5    1.28    2.14
  12   2  -5    1.13    2.07
  14   6  -4    2.48    2.90
  -6   6   1   -0.86    2.02
  -5   3  -1    0.22    1.99
  -3   5  -2    2.93    2.81
  -3   7   0   -1.32    2.86
  -2   6  -2    1.77    2.54
  -1   7  -1    0.36    2.94
   0   4  -4    7.19    2.77
   0   6  -3    3.44    3.12
   1   5  -4    0.55    2.61
   1   7  -2   -1.00    3.98
   2   2  -4  219.19    3.70
   3   3  -5   14.68    2.52
   6   2  -5   95.12    3.03
   8   4  -6    1.67    2.88
   9   3  -6    1.49    2.19
  10   4  -6    1.64    2.54
  10   6  -5    0.39    3.51
  11   3  -6    4.14    2.31
  12   4  -6    1.16    2.12
  12   6  -5    2.64    3.26
  -8   4   1    1.89    1.93
  -5   7   1    0.23    2.78
  -4   4  -2    1.86    2.22
  -4   6  -1    1.29    2.30
   2   6  -4    4.54    3.70
   3   5  -5   -0.06    2.99
   3   7  -3   -1.24    3.89
   6   4  -6    4.10    2.85
   6   6  -5    3.22    3.62
   7   3  -6   11.55    2.32
   9   5  -6    2.09    2.87
  11   5  -6    0.60    2.99
  13   3  -6    2.78    2.13
  13   5  -6    0.77    2.91
  14   6  -5    0.73    2.59
  -9   3   2    1.46    1.51
  -7   5   0   -0.31    2.14
  -6   4  -1   61.99    3.25
  -6   6   0   -0.28    2.00
  -1   7  -2   -2.13    2.70
   4   4  -6    0.82    2.70
   4   6  -5    1.15    3.73
   5   5  -6   -2.39    3.15
  -7   3   0   10.26    1.90
  -3   5  -3    2.19    2.86
  -3   7  -1    0.42    2.82
  -2   6  -3    1.53    3.19
   1   5  -5    0.56    2.84
   1   7  -3   -0.18    3.35
   5   3  -6    0.30    2.23
   8   4  -7    3.29    2.77
  10   4  -7    9.83    2.98
  10   6  -6    0.79    3.24
  12   6  -6   -0.33    3.03
  -6   2   0   10.46    1.50
  -5   5  -2    2.48    2.96
  -5   7   0    1.99    2.77
  -4   6  -2   -0.89    2.42
   6   4  -7   -0.50    2.72
   9   5  -7    1.14    2.93
  10   2  -6    0.29    2.17
  11   5  -7    0.99    2.96
  12   4  -7    4.44    1.96
  13   5  -7    8.20    2.68
  14   6  -6    0.62    2.89
  -8   4   0    1.21    2.41
  -6   6  -1   -0.27    2.18
  -5   3  -2   15.10    2.52
  -4   4  -3    3.12    2.35
  -3   7  -2    0.50    2.83
  -1   7  -3   -1.04    2.95
   4   6  -6   -2.30    3.39
   5   5  -7    0.39    2.99
   7   3  -7    4.09    2.35
   9   3  -7   19.69    2.90
  10   6  -7    2.45    3.58
  11   3  -7    0.95    2.64
  12   2  -6    2.18    1.71
  14   4  -7    0.85    1.77
  -7   5  -1    1.08    2.58
  -6   4  -2   59.30    3.33
  -5   7  -1   -0.18    2.78
  -3   5  -4    1.61    2.73
   0   2  -4   40.54    2.20
   0   6  -5    0.98    3.20
   1   5  -6    5.55    3.09
   2   6  -6    2.62    3.24
   6   2  -6   23.13    2.28
   6   6  -7   -2.06    3.67
  12   6  -7    1.07    2.79
  13   3  -7   32.20    2.67
  -5   5  -3   16.48    3.09
  -4   6  -3   -1.16    2.42
  -3   7  -3   -0.25    2.91
  -1   7  -4   -1.06    3.28
   1   7  -5    1.36    3.27
   2   2  -5  340.61    4.55
   8   4  -8    0.95    2.55
   9   5  -8    1.81    2.90
  11   5  -8    2.61    2.82
  12   4  -8    1.95    2.15
  13   5  -8    2.40    2.41
  -9   3   1    1.83    1.47
  -6   6  -2   -1.10    2.25
  -5   7  -2    0.38    2.71
  -4   2  -2    0.72    1.38
   1   3  -6   40.92    2.84
   5   5  -8   -0.21    2.46
   6   4  -8    4.02    3.04
  10   6  -8    0.68    3.48
  12   6  -8   -0.92    3.23
  14   4  -8   -0.84    1.85
  -7   3  -1    2.82    1.62
  -7   5  -2   -1.62    2.51
  -4   4  -4    9.93    2.56
  -4   6  -4    4.32    2.83
  -3   5  -5    2.65    2.53
  -2   6  -5    3.49    3.01
  -1   5  -6   17.59    3.09
   0   6  -6    1.77    3.08
   1   5  -7    3.42    3.10
   2   6  -7   -0.17    3.71
   3   3  -7    3.87    2.37
   4   2  -6    3.46    2.17
   6   6  -8    0.32    3.64
   9   3  -8    0.53    2.65
  11   3  -8    1.91    2.67
  -6   4  -3    0.55    2.14
  -5   3  -3  111.23    3.31
  -5   5  -4    2.34    2.46
  -3   7  -4   -0.33    2.91
  -1   7  -5    0.17    3.27
   3   5  -8    0.72    2.69
   4   4  -8   10.85    3.03
   4   6  -8    2.58    3.73
   7   1  -5   10.42    1.34
   7   3  -8   30.73    2.99
   8   2  -7    3.84    2.19
   9   5  -9    1.84    2.83
  10   2  -7   39.28    2.44
  10   6  -9   -3.55    3.55
  11   5  -9    2.71    2.72
  13   3  -8   13.23    2.56
  13   5  -9    0.44    2.56
  -6   6  -3   -1.12    2.09
  -5   7  -3   -0.24    2.55
  -2   6  -6   -1.23    3.07
   0   4  -7   25.79    3.15
   0   6  -7    2.87    3.23
   5   3  -8    1.82    2.33
   5   5  -9    2.74    2.91
   6   6  -9    0.01    4.06
   8   4  -9    3.77    2.67
  12   2  -7   11.62    1.85
  12   4  -9    0.55    2.22
  12   6  -9    2.64    3.05
  -7   5  -3    2.33    2.55
  -6   2  -1  277.56    3.29
  -4   6  -5    2.52    3.14
  -3   5  -6    3.05    2.53
  -3   7  -5   -1.79    2.54
   0   2  -5   90.36    2.86
   1   5  -8    1.48    2.83
   2   4  -8   14.59    3.10
   2   6  -8    2.04    3.72
  -8   4  -2   10.74    2.51
  -6   6  -4   -0.47    2.31
  -5   7  -4   -0.20    2.55
  -2   2  -4   37.06    1.71
   1   3  -7   43.44    3.05
   3   5  -9    1.47    3.03
   4   4  -9    7.26    3.42
   4   6  -9    1.60    3.66
   9   3  -9    3.62    2.85
   9   5 -10    1.30    3.09
  10   6 -10   -0.58    3.46
  11   3  -9    0.90    2.77
  11   5 -10    4.70    2.80
  12   6 -10   -0.40    2.75
  13   5 -10   -0.69    2.40
  -9   3   0    2.61    1.32
  -6   4  -4    1.62    2.33
  -5   5  -5    0.97    2.30
  -2   6  -7    0.07    3.33
   0   6  -8   -1.93    3.58
   2   6  -9    1.78    3.36
   3   3  -8    1.39    2.55
   4   2  -7   24.20    2.31
   6   6 -10    1.11    3.67
   7   3  -9   44.02    3.27
   8   4 -10    7.42    2.92
  12   4 -10    1.25    2.58
  13   3  -9    0.91    2.50
  -7   5  -4    0.62    2.78
  -5   3  -4    0.51    2.00
  -4   2  -3    6.54    1.63
  -4   6  -6    3.37    3.32
  -2   4  -7    1.14    2.66
  -1   5  -8   -0.78    3.04
   0   4  -8    2.07    2.84
   1   5  -9    2.10    2.99
   2   4  -9    1.47    2.97
   4   6 -10    8.72    3.34
  -6   6  -5    1.16    2.97
  -5   7  -5    0.61    2.23
  -4   4  -6   29.59    2.93
  -3   5  -7    0.91    2.68
   3   5 -10    2.66    3.11
   8   2  -8    9.27    2.36
   8   6 -11   -1.29    3.52
   9   5 -11   -0.02    2.68
  10   6 -11    0.54    3.33
  11   5 -11    0.35    2.37
  12   2  -8   17.43    1.93
  13   5 -11    0.91    2.16
  -5   5  -6    0.11    2.42
  -4   6  -7    6.01    2.97
  -2   6  -8    0.15    3.38
  -1   3  -7   43.04    2.92
   0   6  -9    1.45    3.33
   1   3  -8    5.66    2.57
   2   6 -10   -4.77    3.80
   4   4 -10   50.97    3.77
   5   5 -11    2.04    2.73
   6   2  -8   30.42    2.70
   6   6 -11   -3.00    3.61
   9   3 -10    3.25    2.89
  11   1  -6    9.59    1.51
  11   3 -10    7.78    2.63
  12   4 -11    0.38    2.42
  -8   6  -4   -0.52    2.74
  -7   3  -3    8.47    2.03
  -7   5  -5    1.25    2.77
  -6   4  -5    5.46    2.44
   0   2  -6    0.07    1.38
   1   5 -10    6.08    3.10
   3   1  -5   48.01    1.57
   3   3  -9    5.26    2.67
   4   6 -11    0.19    3.47
   7   1  -6   36.65    1.77
  11   5 -12   -0.02    2.68
  13   3 -10    3.76    2.67
  -9   3  -1    2.54    1.38
  -6   2  -2  222.70    3.02
  -6   6  -6   -0.58    3.05
  -5   3  -5    0.69    2.18
  -4   4  -7   25.98    2.90
  -3   5  -8    8.66    2.89
  -2   6  -9   -1.23    3.17
   0   6 -10    1.73    3.25
   2   4 -10    2.20    3.19
   3   5 -11   -0.93    3.43
   4   2  -8   63.61    2.88
   5   3 -10    2.32    2.51
   6   6 -12    0.19    2.84
   8   6 -12    2.32    2.77
  13   5 -12   -0.82    2.20
  -5   5  -7    3.60    2.50
  -4   6  -8    0.11    3.20
   2   6 -11   -0.94    3.78
   4   4 -11   -0.10    2.77
   5   5 -12    3.90    3.06
   8   2  -9   11.82    2.34
  10   2  -9   39.76    2.47
  10   4 -12    0.27    2.96
  -8   4  -4   10.03    2.35
  -8   6  -5    0.15    3.00
  -7   5  -6    0.43    2.73
  -6   4  -6    1.62    2.51
  -6   6  -7    0.81    2.70
  -3   5  -9   -1.18    2.67
  -1   3  -8   11.89    2.46
  -1   5 -10    4.13    2.99
   1   3  -9    5.28    2.59
   4   6 -12    3.69    2.78
   5   1  -6   -0.56    1.30
   8   4 -12   -0.22    2.98
   9   5 -13    2.38    3.06
  11   3 -11   -2.31    2.59
  11   5 -13    0.75    2.42
  12   2  -9    2.21    1.90
  12   4 -12    0.35    2.58
  -2   6 -10    0.58    3.18
   0   4 -10    0.03    2.87
   0   6 -11    4.48    3.40
   2   4 -11    2.42    2.76
   2   6 -12    2.63    3.15
   3   5 -12    1.75    3.11
   6   2  -9   10.48    2.45
   6   6 -13    0.33    3.02
   7   3 -11   17.32    3.05
  13   5 -13    1.64    2.53
  -9   3  -2   84.60    2.52
  -8   6  -6    0.85    2.31
  -7   3  -4    5.86    1.76
  -5   5  -8   -0.97    2.57
  -4   4  -8    6.95    2.90
  -2   2  -6   51.22    2.42
   2   2  -8   71.87    3.02
   4   4 -12    3.80    2.89
   4   6 -13    2.42    3.34
   5   5 -13    1.85    3.14
  10   4 -13    0.19    3.32
  -7   5  -7    6.04    2.77
  -6   2  -3    2.59    1.79
  -6   6  -8    1.22    3.03
  -3   5 -10    0.13    2.67
  -1   5 -11   -1.02    3.01
   0   6 -12    0.17    3.15
   1   5 -12    1.88    3.27
   9   5 -14    4.74    3.34
  11   1  -7   10.03    1.45
  11   5 -14   -2.22    3.16
  12   4 -13    7.29    2.98
  -8   2  -1   30.15    1.62
  -6   4  -7    8.74    2.54
  -5   5  -9    2.31    2.54
  -4   6 -10   -1.21    3.28
  -2   6 -11    0.45    3.15
   0   4 -11    6.66    2.73
   1   3 -10   24.26    2.32
   2   4 -12    4.08    2.51
   2   6 -13    3.77    3.67
   3   1  -6  199.90    2.76
   3   3 -11    0.81    2.60
   3   5 -13    3.29    3.16
   7   1  -7   12.94    1.69
   7   3 -12    0.40    2.61
   7   5 -14   -0.52    3.43
   8   2 -10   34.27    2.47
   9   3 -12    1.58    2.84
  10   2 -10   -1.52    2.00
  11   3 -12    0.17    2.82
  12   2 -10   -0.70    2.18
  13   5 -14   -0.07    2.84
  -8   6  -7    2.41    2.67
  -6   6  -9   -2.04    3.25
  -4   4  -9   11.30    2.92
   5   5 -14   -0.92    3.33
  -9   3  -3   42.73    2.21
  -9   5  -6    0.78    2.51
  -7   5  -8   13.52    2.77
  -3   5 -11    1.41    3.01
  -2   6 -12    1.65    3.88
   0   6 -13    6.17    3.54
   2   2  -9   20.90    2.79
   3   5 -14   -0.16    3.09
   9   5 -15   -0.94    3.47
  10   4 -14    1.17    2.89
  11   5 -15    1.31    3.24
  12   4 -14    2.14    3.03
  13   5 -15    2.95    2.92
  -8   6  -8    0.79    2.81
  -6   4  -8   12.18    2.88
  -5   5 -10    3.28    2.63
  -4   6 -11   -0.70    3.23
  -2   2  -7   -0.84    2.03
  -1   3 -10   13.97    2.87
   0   4 -12    7.84    2.83
   2   4 -13    5.67    3.09
   4   2 -10  183.05    4.00
   7   5 -15    0.77    3.23
   9   3 -13    3.76    3.07
  11   3 -13    1.95    2.93
  -6   2  -4    1.73    1.93
  -6   6 -10   -1.38    3.17
  -3   3  -9   -2.18    2.57
  -1   5 -13    1.32    3.03
   1   5 -14    1.13    3.15
   3   3 -12    5.88    2.90
   5   5 -15    2.97    3.28
   7   3 -13    0.84    3.15
   8   2 -11    1.40    2.16
  10   2 -11    8.37    2.29
  12   2 -11    3.80    2.19
  -9   5  -7    1.61    2.31
  -8   4  -7   -0.57    2.62
  -7   5  -9   -1.30    2.77
  -4   6 -12   -2.62    3.28
  -3   5 -12    1.99    2.99
   3   5 -15    7.27    3.56
   6   2 -11    8.35    2.27
   7   5 -16    1.85    3.72
   8   4 -15   -2.32    3.10
   9   5 -16   -2.02    3.47
  10   4 -15    3.18    2.89
  11   1  -8    9.83    1.57
  11   5 -16    1.37    3.32
  12   4 -15    4.43    3.18
  13   5 -16   -2.20    2.97
  -9   3  -4    2.62    1.65
  -8   2  -2   43.94    1.72
  -8   6  -9   -0.82    3.00
  -6   4  -9    1.55    2.76
  -6   6 -11   -1.35    2.71
  -5   5 -11    1.44    2.75
  -2   4 -12   26.70    3.16
  -1   3 -11   -0.68    2.45
   0   2  -9    8.48    2.43
   2   2 -10   14.08    2.44
   2   4 -14    1.66    2.98
   3   1  -7   11.18    1.64
   5   5 -16    0.94    3.55
   9   3 -14   19.97    3.67
  11   3 -14   -3.15    3.12
  -9   5  -8   -1.24    2.47
  -7   5 -10    0.78    2.76
  -4   4 -11   -1.14    2.61
  -3   3 -10   13.38    2.65
  -1   1  -5  439.08    3.64
   3   3 -13   11.29    3.17
   4   2 -11   14.59    2.40
   9   5 -17    0.71    3.01
  11   5 -17    1.21    2.78
  -8   4  -8    1.27    2.65
  -8   6 -10    0.63    2.98
  -5   5 -12    5.75    2.79
  -4   6 -13    3.65    3.00
   3   5 -16    0.35    3.60
   5   1  -8    7.02    1.67
   7   5 -17   -0.95    3.52
   8   2 -12   11.01    2.52
   8   4 -16   -0.20    3.21
  12   4 -16    1.93    3.31
  -9   3  -5    1.22    2.00
  -6   2  -5   22.16    2.06
  -6   4 -10    2.61    2.35
  -6   6 -12    3.12    3.13
  -2   4 -13    0.40    2.80
   2   4 -15    0.97    3.19
   5   5 -17   -1.31    3.84
   6   2 -12    4.91    2.28
  -9   5  -9    3.93    2.53
  -8   2  -3    9.63    1.88
  -8   6 -11    0.69    2.77
  -7   5 -11    1.54    2.87
  -4   4 -12   -0.64    2.77
  -3   3 -11   15.35    2.74
  -1   3 -12   -1.22    2.08
  -1   5 -15   -0.89    2.97
   0   2 -10    2.09    2.16
   1   5 -16   -0.13    3.05
   2   2 -11    3.72    2.45
   3   3 -14    2.28    3.04
   3   5 -17    2.39    3.51
   4   4 -16    1.23    3.22
   7   1  -9   95.61    2.88
   7   5 -18   -0.02    3.40
   8   4 -17   -0.01    3.43
   9   1  -9   11.87    1.50
   9   3 -15    0.31    2.81
   9   5 -18   -0.54    3.46
  10   4 -17   -2.70    3.45
  11   3 -15   -0.12    2.65
  -6   4 -11    0.22    2.30
  -5   5 -13    5.07    3.27
  -2   2  -9   12.18    2.29
   0   4 -15    3.56    2.91
   1   1  -7  143.88    2.53
   3   1  -8    2.80    1.84
   4   2 -12   18.22    2.50
   5   5 -18   -0.10    3.36
   6   4 -17   -1.97    3.44
   8   2 -13    1.63    2.63
  10   2 -13   -0.71    2.63
  12   4 -17   -1.39    2.84
 -10   4  -7    0.20    2.45
  -9   5 -10    1.68    2.92
  -7   3  -8   63.30    3.16
  -4   4 -13    3.99    2.77
  -2   4 -14    0.84    2.79
  -1   1  -6  180.13    2.81
  -1   3 -13   16.60    3.22
  -1   5 -16    3.28    3.30
   1   5 -17    2.24    3.70
   2   4 -16   -0.94    3.12
   5   1  -9   90.52    2.71
   6   2 -13    2.83    2.56
  -9   3  -6   14.63    2.13
  -8   6 -12   -0.46    2.79
  -7   5 -12    0.26    2.57
  -5   5 -14    3.40    3.02
   2   2 -12    7.59    2.53
   3   5 -18   -1.92    3.83
   4   4 -17    6.09    3.18
   7   3 -16    8.85    2.91
   9   3 -16    2.72    2.61
  10   4 -18   -0.46    3.60
  11   3 -16   -1.90    2.88
  12   4 -18    2.21    2.81
  -8   4 -10    0.09    2.56
  -2   2 -10    6.64    2.50
  -2   4 -15   -2.20    3.15
  -1   5 -17   -0.20    3.70
   0   4 -16    4.51    3.71
   2   4 -17   -1.14    3.42
   6   4 -18    2.12    3.47
   9   1 -10   13.23    1.83
  -9   5 -11   -1.97    3.00
  -7   5 -13   -1.94    3.18
  -5   3 -11   -0.66    2.67
  -4   4 -14    6.29    3.14
  -3   1  -5   15.81    1.51
  -1   3 -14    5.95    3.27
   1   1  -8   23.08    2.12
   1   3 -15   -1.54    2.73
   1   5 -18    2.40    3.34
   3   1  -9   21.13    2.22
   4   4 -18    2.71    3.52
   6   2 -14   11.25    3.25
   8   2 -14    0.02    2.69
  10   2 -14    6.49    2.45
  -9   3  -7   11.43    2.28
  -6   4 -13   -0.49    3.07
  -5   5 -15   -2.96    3.45
  -3   3 -13    2.01    3.08
  -1   1  -7  122.11    2.77
   2   2 -13   30.73    3.15
   3   3 -16    8.56    3.04
   5   1 -10    5.73    2.10
   6   4 -19    0.37    3.88
   7   3 -17    1.86    3.10
   8   4 -19    2.87    3.80
  10   4 -19    2.21    3.10
  11   3 -17    1.68    2.64
  12   4 -19   -1.21    3.46
 -10   4  -9    4.19    2.64
  -9   5 -12    4.62    2.84
  -7   3 -10    2.48    2.70
  -7   5 -14    1.15    2.81
  -2   4 -16    0.46    3.01
  -1   5 -18    0.83    3.65
   2   4 -18    1.39    3.77
  -9   3  -8    2.79    2.14
  -8   2  -5    0.16    1.55
  -5   3 -12   27.85    3.31
  -5   5 -16    1.35    3.38
  -1   3 -15    0.23    2.70
   1   3 -16    2.66    3.06
   3   1 -10   40.98    2.61
   3   3 -17    1.25    2.80
   6   2 -15   55.47    3.42
   7   1 -11   44.18    2.59
   8   2 -15    2.09    2.74
   8   4 -20    3.55    3.32
   9   1 -11   -0.13    1.72
   9   3 -18    1.55    3.05
  10   4 -20    2.36    3.35
  11   3 -18    3.87    3.02
 -10   4 -10    1.35    2.74
  -9   5 -13    0.05    2.91
  -8   4 -12    1.86    2.73
  -6   4 -14   -1.08    2.91
  -3   1  -6  140.51    2.67
  -2   4 -17    5.65    3.42
   0   4 -18   -1.67    3.87
   2   2 -14    4.43    2.79
   2   4 -19   -1.28    3.78
   5   1 -11   12.08    2.27
   6   4 -20    1.61    3.92
   7   3 -18   -0.06    2.89
  -7   5 -15    4.50    2.69
  -5   3 -13   17.26    3.38
  -5   5 -17    2.63    2.94
  -1   1  -8   29.25    1.82
  -1   3 -16    1.88    2.90
   1   3 -17    2.43    2.85
   4   4 -20    4.27    3.81
  -9   3  -9    3.97    2.31
  -8   4 -13   16.45    3.09
  -6   4 -15   -5.38    3.12
  -5   1  -4    5.37    1.15
  -4   2 -11    1.16    2.39
  -3   3 -15    2.87    2.90
  -2   4 -18    2.34    3.22
   3   3 -18    2.94    3.40
   6   2 -16    5.43    3.13
   6   4 -21    0.17    3.31
   7   1 -12   -2.85    2.26
   7   3 -19    0.01    3.12
   8   2 -16   -0.40    3.10
   8   4 -21   -0.08    3.79
   9   1 -12    7.13    2.08
   9   3 -19    0.00    3.21
  10   2 -16    5.38    2.79
  10   4 -21   -0.65    3.38
  11   3 -19    2.68    3.18
 -10   2  -3    2.27    1.62
 -10   4 -11    0.48    2.41
  -9   5 -14    1.87    2.97
  -7   5 -16   -0.60    3.28
  -6   2  -9    2.55    1.97
  -5   3 -14    5.74    3.14
  -3   1  -7   38.66    2.29
  -2   2 -13    6.93    2.62
   0   2 -14    0.56    2.93
   1   1 -10   63.83    2.38
   2   2 -15    0.25    2.98
   2   4 -20    1.57    3.38
   3   1 -11    1.84    1.77
   4   4 -21    2.38    3.88
  11   1 -12    4.18    1.96
  -9   3 -10    4.16    2.62
  -8   2  -7    0.79    1.80
  -8   4 -14   -1.18    2.87
  -6   4 -16    0.93    3.52
   1   3 -18   17.44    3.64
   3   3 -19    1.46    3.20
   5   1 -12   24.85    2.41
   8   2 -17   -1.70    3.28
   9   3 -20   -2.20    3.05
  10   2 -17    0.93    3.01
 -10   4 -12    0.54    2.58
  -9   5 -15   -3.96    2.83
  -5   1  -5    4.47    1.54
  -4   2 -12   -0.04    2.65
  -3   3 -16    4.80    3.02
  -2   4 -19    2.37    3.59
   2   2 -16    0.74    3.36
   2   4 -21    1.20    3.92
   3   1 -12   12.36    2.52
   5   3 -20    3.83    3.44
   7   1 -13    1.50    2.30
   7   3 -20   -2.41    3.24
   9   1 -13   10.47    2.42
  11   3 -20    0.04    3.36
 -10   2  -4    5.35    1.34
  -9   3 -11    2.77    3.01
  -8   4 -15    0.68    3.26
  -7   3 -13    0.67    2.46
  -3   1  -8   87.45    2.97
  -2   2 -14    3.82    3.21
  -1   1 -10   51.37    3.15
  -1   3 -18    1.13    3.40
   1   3 -19    2.76    3.44
   5   1 -13    7.03    2.29
 -10   4 -13    2.15    2.89
  -6   2 -11    1.30    2.29
  -6   4 -17    3.81    3.57
  -4   2 -13    3.94    2.80
  -3   3 -17    4.33    3.47
  -2   4 -20    4.11    3.72
   0   4 -21    0.18    3.78
   3   3 -20    0.74    3.63
   6   2 -18    0.66    2.67
   8   2 -18    6.41    2.96
   9   3 -21    1.82    3.69
  10   2 -18    2.16    2.72
  11   3 -21    2.32    3.22
  -7   3 -14    1.13    2.66
  -5   1  -6    5.76    1.92
  -5   3 -16    1.60    3.21
  -2   2 -15    1.10    3.30
  -1   3 -19    1.44    3.39
   0   2 -16   37.19    3.89
   1   1 -12    3.67    2.53
   1   3 -20    3.16    3.29
   2   2 -17    1.62    2.78
   3   1 -13   30.28    2.84
   5   3 -21    0.26    3.93
   7   1 -14    5.55    2.40
 -11   3  -9    0.68    2.19
 -10   4 -14   -0.93    3.24
  -9   3 -12    0.68    2.63
  -8   2  -9   12.03    2.50
  -8   4 -16    1.67    2.88
  -6   4 -18   -0.62    3.63
  -3   1  -9    2.14    1.70
  -3   3 -18   -1.45    3.77
   3   3 -21   -1.63    3.77
   5   1 -14    7.45    2.58
   7   3 -22    0.42    3.50
   8   2 -19    2.57    2.98
  10   2 -19    0.04    2.96
  11   3 -22   -3.32    3.54
 -10   2  -6    5.66    2.07
  -7   3 -15   10.85    3.31
  -6   2 -12   10.73    2.78
   0   2 -17    4.02    3.04
   2   2 -18    2.84    3.15
   3   1 -14    0.51    2.42
   5   3 -22   -1.18    4.02
   6   2 -19   -2.00    3.22
 -11   3 -10    5.78    2.84
 -10   4 -15    3.97    2.99
  -9   3 -13    1.12    2.71
  -8   2 -10    1.76    2.42
  -8   4 -17   -1.83    3.07
  -6   4 -19   -1.13    3.62
  -3   1 -10   33.75    3.03
  -3   3 -19   -0.77    3.69
  -1   1 -12   -0.27    2.76
  -1   3 -20    2.15    3.48
   1   3 -21   -0.64    3.50
   3   3 -22   -1.00    3.99
   5   1 -15   -0.51    2.80
   7   1 -15    1.12    2.68
   9   1 -15    5.29    2.56
   9   3 -23    0.06    3.63
 -11   3 -11    5.38    2.91
 -10   2  -7    3.17    1.98
  -7   1  -4   12.25    1.60
  -7   3 -16    0.07    3.29
  -6   2 -13    2.59    3.20
  -4   2 -15    4.65    3.23
   0   2 -18   -2.39    3.29
   2   2 -19    3.02    3.21
   5   3 -23    4.49    3.95
   6   2 -20    4.29    3.67
   7   3 -23    5.05    3.27
   8   2 -20    7.69    3.48
  10   2 -20    2.72    2.90
 -10   4 -16   -1.56    3.23
  -9   3 -14    0.97    2.60
  -8   4 -18   -2.98    3.07
  -3   1 -11   43.13    3.15
  -2   2 -17   17.89    3.23
  -1   1 -13   42.82    3.30
  -1   3 -21    0.35    3.98
   1   1 -14    4.02    1.99
   1   3 -22    1.96    4.14
   3   3 -23    4.16    3.68
   7   1 -16   14.12    3.11
   9   1 -16    8.55    2.80
 -11   3 -12   -1.84    2.93
 -10   2  -8   36.57    2.58
  -7   1  -5    6.79    1.75
  -7   3 -17   -0.11    3.61
  -6   2 -14    0.71    3.30
   0   2 -19    0.11    3.40
   2   2 -20    6.35    3.72
   5   1 -16    2.15    2.77
   5   3 -24   -2.99    3.59
   6   2 -21    1.43    3.39
   7   3 -24   -1.83    3.87
   8   2 -21   -2.23    3.27
   9   3 -24    1.93    3.61
  10   2 -21   -0.04    3.26
 -10   4 -17    0.38    3.41
  -7   1  -6   85.10    3.00
  -3   3 -21   -3.22    4.05
  -2   2 -18    9.38    3.18
  -1   1 -14   11.18    3.08
   1   1 -15   -1.64    2.91
   1   3 -23    2.62    4.19
   4   2 -21    2.61    3.91
   7   1 -17   11.62    3.17
 -11   3 -13    2.63    2.93
 -10   2  -9   23.10    2.88
  -9   3 -16    1.04    2.88
  -7   3 -18   -4.16    3.77
  -6   2 -15   -1.49    2.83
  -4   2 -17    1.99    3.19
   0   2 -20   -1.54    3.68
   2   0  -7    4.08    1.29
   2   2 -21    3.14    3.38
   5   1 -17    2.10    2.99
   6   2 -22   -0.36    3.64
   8   2 -22    1.91    3.71
  10   2 -22   -0.20    3.12
 -10   2 -10    1.31    2.47
 -10   4 -18    1.22    3.14
  -7   1  -7   31.25    2.61
  -6   2 -16    1.40    2.88
  -3   3 -22    1.78    4.20
  -2   2 -19    5.27    3.30
  -1   1 -15    7.42    3.07
  -1   3 -23    0.22    4.36
   1   1 -16    8.90    3.15
   4   2 -22    0.48    3.88
   7   1 -18    4.26    3.32
   9   1 -18    1.59    3.26
 -11   3 -14    6.91    2.97
  -9   3 -17   -2.13    3.55
  -8   2 -14   -0.59    3.37
  -7   1  -8  178.34    4.04
  -7   3 -19   -1.34    3.88
  -4   2 -18   -1.58    3.22
  -2   2 -20    0.66    3.48
   0   2 -21    5.48    3.67
   1   1 -17   -0.52    3.26
   2   0  -8  118.78    2.73
   2   2 -22    4.01    3.61
   6   0 -10    4.28    2.33
   6   2 -23    2.20    3.49
  10   2 -23   -2.04    3.52
 -11   3 -15    0.69    3.45
  -4   2 -19   -1.94    3.47
  -1   1 -16    2.12    3.53
   0   0  -6    2.66    1.25
   4   0 -10  294.61    4.32
   4   2 -23   -1.22    4.10
   7   1 -19   -0.07    3.21
   9   1 -19    6.97    3.41
  -9   3 -18    4.62    3.71
  -8   2 -15   -1.89    2.93
  -7   3 -20   -1.73    3.54
  -3   1 -15   -0.80    3.21
  -2   2 -21   -0.59    3.87
   0   0  -7  226.95    3.24
   0   2 -22    2.10    4.15
   1   1 -18   40.05    4.05
   5   1 -19    7.43    2.99
   6   0 -11   16.00    2.31
   6   2 -24    1.11    3.74
   8   2 -24   -1.47    3.95
  10   2 -24    0.76    3.68
 -11   3 -16   -1.76    3.47
  -7   3 -21    2.03    3.51
  -6   2 -18    6.62    3.51
  -4   2 -20   -0.55    3.90
  -1   1 -17    2.80    3.33
   0   0  -8   -1.35    1.99
   2   0 -10   19.90    2.52
   5   1 -20    6.85    3.29
   7   1 -20    2.56    3.11
   8   0 -11    5.24    1.65
   9   1 -20   -3.42    3.33
 -10   2 -13   -0.76    2.98
  -9   1  -3   93.11    2.35
  -9   3 -19    0.29    3.14
  -7   1 -11    0.81    2.60
  -5   1 -14   18.29    3.36
  -2   2 -22   -2.26    4.24
  -1   1 -18    0.27    3.15
   0   0  -9   20.81    2.37
   0   2 -23    0.22    4.14
   1   1 -19    1.28    3.47
   2   0 -11    9.58    2.53
   2   2 -24    3.48    4.39
   4   0 -12   33.62    3.02
   6   0 -12    8.92    2.53
   6   2 -25   -2.58    3.58
   8   2 -25    2.17    3.94
  10   0 -10    0.38    1.71
 -11   3 -17    2.46    3.34
 -10   2 -14    2.56    3.06
  -9   1  -5   -0.29    1.94
  -9   1  -4    4.31    1.69
  -9   3 -20    3.45    3.20
  -8   2 -17   -1.51    3.30
  -6   2 -19    1.83    3.72
  -3   1 -17   15.42    3.58
   0   0 -10    1.43    2.49
   4   0 -13    1.99    2.51
   4   2 -25    2.44    4.14
   5   1 -21    0.40    3.58
   6   0 -13    4.65    2.37
   9   1 -21    2.08    3.13
 -11   3 -18    2.04    3.02
  -9   1  -6   44.12    2.27
  -2   0  -7    1.08    1.87
  -2   0  -6  103.19    2.33
  -2   2 -23    3.20    4.20
  -1   1 -19    3.94    3.43
   0   0 -11   44.96    3.37
   0   2 -24    0.17    3.91
   1   1 -20    0.55    3.27
   2   2 -25   -2.98    4.13
   6   0 -14   20.20    2.80
   8   0 -13    0.92    2.05
 -12   2 -11    7.54    2.78
 -10   2 -15    3.57    2.79
  -8   2 -18    1.92    3.33
  -7   1 -13   -0.53    3.01
  -4   2 -22   -0.01    3.76
  -3   1 -18    1.65    3.42
  -2   0  -8   32.86    2.55
  -1   1 -20    4.86    3.48
   0   0 -12   43.92    3.29
   1   1 -21    3.03    3.62
   2   0 -13   55.26    3.29
   4   0 -14   -1.11    2.61
   7   1 -22    5.05    3.50
   9   1 -22    2.56    3.20
 -12   2 -12    1.96    2.88
 -11   3 -19   -1.30    3.32
 -10   2 -16    7.05    3.47
  -9   1  -9   17.58    2.53
  -8   2 -19   10.51    3.68
  -5   1 -17   -0.85    3.21
  -4   2 -23    0.63    4.46
  -3   1 -19    1.46    3.48
  -2   0 -10   16.98    2.78
  -2   0  -9   20.40    1.99
  -2   2 -24    1.56    3.86
   2   0 -14    4.30    2.86
   4   0 -15    3.61    2.63
   7   1 -23    4.86    3.90
   8   0 -15    1.20    2.69
 -12   2 -13    1.09    3.15
 -10   2 -17    6.79    2.94
  -9   1 -10    6.01    2.68
  -2   0 -11   49.65    3.53
  -1   1 -21    3.65    4.27
   1   1 -22   -0.01    4.05
   2   0 -15    3.52    2.91
   3   1 -23    2.62    3.57
   4   0 -16    2.35    3.05
   5   1 -23    3.31    3.40
   6   0 -16    4.23    2.91
   9   1 -23   -1.91    3.94
  10   0 -14    7.53    1.95
 -12   2 -14   -0.93    3.11
  -9   1 -11    9.03    2.82
  -8   2 -20    5.05    3.68
  -3   1 -20    0.56    3.79
  -2   0 -12  192.38    4.79
   0   0 -14    1.57    2.06
   1   1 -23    0.15    4.34
   2   0 -16   -2.67    3.13
   5   1 -24   -1.77    3.71
   6   0 -17   -3.82    2.85
   7   1 -24    0.47    4.10
   9   1 -24    0.53    3.46
  10   0 -15    9.79    2.29
 -10   2 -18   -2.89    3.90
  -9   1 -12    7.82    3.20
  -8   2 -21   -0.04    4.00
  -7   1 -16    3.41    2.88
  -5   1 -19    7.49    3.94
  -4   0  -8   83.53    3.11
  -4   0  -7  152.15    3.28
  -4   0  -6  197.72    3.20
  -3   1 -21    0.85    3.96
  -2   0 -13    7.45    3.01
  -1   1 -22   -0.57    3.76
   0   0 -15    8.41    2.94
   3   1 -24   -3.75    4.29
   4   0 -17   34.98    3.39
   8   0 -17   -1.84    2.77
 -10   2 -19   -5.59    4.02
  -9   1 -13    2.52    2.83
  -5   1 -20    1.56    3.55
  -4   0 -10    1.48    2.87
  -4   0  -9  106.25    3.45
  -4   0  -5   91.94    2.16
  -2   0 -14    0.78    3.12
  -1   1 -23    1.81    4.40
   0   0 -16   62.97    4.24
   1   1 -24    1.80    4.02
   4   0 -18   -0.07    3.55
   6   0 -18    0.05    3.27
 -12   2 -16    3.43    3.31
 -10   2 -20   -0.97    3.73
  -9   1 -14   -1.64    3.21
  -8   2 -22    1.16    3.69
  -7   1 -18    1.11    3.56
  -3   1 -22    0.65    3.92
  -2   0 -15    2.54    3.16
   0   0 -17    5.80    3.83
   3   1 -25    0.79    3.77
   4   0 -19    7.82    3.55
   6   0 -19   -0.90    3.59
   7   1 -26   -1.53    3.96
   8   0 -19    6.59    3.41
 -11   1  -7    3.22    1.82
  -9   1 -15   -3.03    2.71
  -7   1 -19    6.90    3.68
  -5   1 -21   -1.22    3.99
  -4   0 -13    2.89    2.91
  -3   1 -23   -1.39    4.51
  -2   0 -16    6.81    3.42
  -1   1 -24    0.94    3.96
   0   0 -18    0.77    3.09
   1   1 -25   -1.26    3.91
   3   1 -26    0.52    4.17
   4   0 -20    2.53    2.90
   5   1 -26   -5.77    3.59
   9   1 -26   -2.73    3.38
   6   4  11    0.81    1.78
   7   1   1   13.85    1.72
   8   4  12    0.28    1.75
  10   2   4    5.52    2.01
  10   4  13   -0.96    2.20
  12   4  15    0.65    2.38
  14   2   6    6.16    2.48
  15   1   4   15.33    2.49
  18   0   4    3.70    2.26
  18   2  10    1.90    3.10
  21  -1   6    1.19    2.40
   3   3   6   35.12    1.84
   5   3   6    0.92    1.59
   7   3   6   21.57    2.34
   8   2   3   10.48    2.01
   9   1   1    0.53    1.97
  10   4  12    1.36    1.86
  11  -1  -1    4.25    1.49
  12   4  14   -1.06    2.25
  14   0   1   -0.28    1.98
  16   2   7    0.20    2.90
  17   1   5   -0.90    2.40
  18   2   9   -2.89    3.18
  20   0   6    1.20    2.44
   2   2   3  108.74    1.89
   9   3   6   13.74    2.43
  12   0   0    2.60    1.71
  12   2   4    9.01    2.77
  12   4  13   -0.72    2.30
  13   1   2    4.29    2.19
  14   2   5    9.29    2.58
  15   1   3   16.23    2.87
  16   0   2   -1.96    2.28
  19  -1   3   -2.80    2.01
  20   0   5    0.56    2.40
  21  -1   5    0.36    2.19
   1   3   6   64.90    2.09
   8   4  10    0.14    1.69
  10   2   3    0.79    2.12
  10   4  11    0.48    1.93
  11   1   1    8.43    2.02
  12   4  12    0.08    2.43
  15  -1   0   -0.35    1.76
  16   2   6    1.01    2.59
  17  -1   1   -0.49    2.05
  18   0   3   -1.66    2.29
  18   2   8   -0.54    2.57
   5   3   5    0.56    1.99
   7   3   5    1.71    2.07
  10  -2  -2    5.61    0.96
  10   4  10   -0.43    1.96
  12   4  11   -1.47    2.40
  13  -1  -1    0.93    1.51
  14   2   4    1.87    2.22
  14   4  13   -0.25    2.37
  15   3   8    2.54    2.61
  19  -1   2   -0.67    2.05
  20   0   4    1.60    2.46
  21  -1   4   -3.03    2.17
  21   1   7    3.95    2.88
   4   4   9   10.64    1.97
   6   2   2  218.26    3.53
   8   2   2   45.50    2.45
   8   4   9    0.19    1.73
   9  -1  -2    4.40    1.51
   9   3   5    1.15    2.25
  13   1   1    5.06    2.12
  14   0   0    0.80    1.93
  14   4  12   -1.28    2.11
  15   1   2    4.80    2.53
  16   0   1   15.00    2.17
  16   2   5    0.13    2.43
  18   0   2    2.11    2.13
  22   0   6   -1.38    2.16
   3   3   5    2.09    1.53
   7   1   0   23.97    1.49
   9   1   0   10.06    1.99
  10   2   2    0.31    2.04
  12   4  10   -2.34    2.19
  13   3   6   -2.31    2.51
  14   4  11   -0.39    2.35
  15   3   7   -0.74    2.85
  17   3   9    2.25    2.64
  18   2   6    3.59    2.57
  19   1   4    2.11    2.52
  20   0   3   -0.52    2.07
  21   1   6    1.50    2.61
  22   0   5    0.07    2.14
   5   1   0    2.91    0.79
   6   4   8   14.21    2.15
   8   4   8    4.07    2.53
  11  -1  -2  242.39    3.25
  11   1   0    5.33    2.00
  12   0  -1    0.28    1.56
  14   2   3   -1.30    2.18
  15  -1  -1    2.10    1.78
  16   2   4    1.61    2.32
  17  -1   0   10.14    2.20
  17   3   8    0.47    2.94
  20   2   7   -0.10    3.00
   4   4   8    7.18    1.88
   7   3   4    4.51    1.90
   9   3   4   -0.64    2.14
  12   2   2    4.97    2.22
  12   4   9    0.77    1.78
  13   3   5    2.88    2.29
  14   4  10    0.96    2.40
  15   3   6    3.04    2.63
  16   0   0    3.33    2.22
  18   0   1    2.33    2.08
  19   1   3   -2.70    2.55
  21   1   5    0.19    2.41
  22   0   4   -0.33    2.37
   1   3   5  175.91    2.72
   5   3   4    2.44    1.69
  12   4   8    0.56    2.08
  13  -1  -2    0.34    1.39
  13   1   0   25.00    2.41
  14   0  -1   33.33    2.39
  14   4   9   -0.38    2.38
  16   2   3   -2.34    2.33
  18   2   4    1.76    2.82
  20   0   2   -0.21    2.06
  20   2   6    2.13    2.67
  21   1   4    0.11    2.48
   6   4   7    7.98    2.17
   8   4   7   -1.60    2.31
  10   0  -2    8.20    1.83
  10   2   1    2.56    2.06
  10   4   7    2.72    2.14
  13   3   4    4.61    2.29
  15   3   5    9.16    2.71
  17  -1  -1   21.59    1.99
  17   3   6    4.23    3.01
  19  -1   0   -2.32    1.87
  19   1   2    2.64    2.48
  20   2   5   -2.12    3.18
  22   0   3    0.74    2.34
   4   4   7   24.72    2.32
   6   2   1  280.84    3.56
   9   1  -1    6.99    1.82
  11   1  -1    4.17    2.00
  12   4   7   -0.40    2.42
  15  -1  -2    0.61    1.70
  16   0  -1   -0.22    2.18
  16   2   2    2.19    2.46
  16   4   9   -0.10    2.37
  18   0   0   -0.57    1.81
  18   2   3    2.15    2.59
  20   0   1    3.37    2.26
  21   1   3   -2.24    2.77
   7   3   3    8.26    1.90
   8   4   6    1.99    2.04
  11   3   3    1.92    2.63
  13   1  -1   -0.37    2.02
  14   2   1   -2.02    2.62
  14   4   7   -2.25    2.45
  15   3   4    7.23    2.69
  16   4   8   -1.10    2.80
  17   3   5    2.06    2.91
  19   3   6    1.35    2.66
  20   2   4    1.44    2.77
   6   4   6    0.68    1.98
  13   3   3    1.64    2.09
  14   0  -2  109.64    3.22
  17   1   0    9.85    2.37
  18   0  -1    3.22    2.26
  18   2   2   -0.55    2.50
  19   1   1    5.14    2.31
  20   0   0   10.78    2.48
  21   1   2   -3.69    2.78
   8   2   0    8.64    2.23
   9  -1  -3   21.18    1.50
  10   2   0   28.53    2.42
  11  -1  -3   69.75    1.94
  11   5  10   -0.07    2.00
  12   2   0   -2.62    2.23
  13  -1  -3    1.99    1.56
  13   5  11   -0.67    2.07
  14   4   6    2.50    2.54
  15   3   3    8.89    2.62
  16   2   1   10.48    2.41
  16   4   7   -0.82    3.05
  17  -1  -2    3.53    1.54
  17   3   4    1.45    2.53
  19   3   5    2.79    2.93
  20   2   3   -1.22    2.79
  22   0   1   -0.14    2.44
   7   3   2    0.25    2.05
   8   4   5    0.74    2.24
  11   3   2    1.31    2.16
  12   4   5    0.62    2.49
  13   3   2   -0.95    2.22
  13   5  10   -0.29    1.91
  14   2   0   -1.90    2.80
  16   0  -2   -1.63    2.00
  19   1   0    1.50    2.44
  21   1   1    1.01    2.71
   1   3   4    1.66    1.45
   3   3   3   -1.15    1.85
   6   2   0   11.63    1.79
   6   4   5    3.97    2.06
   9   1  -2    2.69    1.80
  11   5   9    0.24    2.10
  12   0  -3    0.15    1.85
  13   1  -2   -0.03    1.99
  14   4   5    1.84    2.79
  15  -1  -3    4.25    1.36
  15   3   2    0.90    2.47
  16   2   0    1.45    2.41
  17   1  -1   21.11    2.52
  17   3   3    2.45    2.54
  18   2   1   -0.81    2.42
  19   3   4   -0.98    2.86
  20   2   2    0.23    2.56
  22   0   0   -1.56    2.44
  23   1   2    2.18    2.65
  10   0  -3    1.62    1.62
  10   4   4    2.61    2.26
  12   2  -1    1.59    2.21
  12   4   4    3.40    2.40
  13   5   9    0.16    2.17
  16   4   5    1.07    2.74
  18   0  -2   -0.80    2.14
  19   3   3   -0.20    2.51
  21   1   0    2.05    2.64
   5   3   2   17.58    2.08
   7   1  -2   21.49    1.78
   8   4   4   10.85    2.50
  10   2  -1    5.72    2.00
  11   3   1    4.70    2.20
  11   5   8    0.25    2.17
  13   3   1    2.69    2.29
  13   5   8   -0.15    1.97
  14   2  -1   20.60    3.09
  14   4   4    0.98    2.56
  16   0  -3    1.48    2.18
  17  -1  -3    2.29    1.37
  17   1  -2    2.27    2.51
  17   3   2   -0.57    2.63
  19   1  -1   -0.53    2.17
  20   2   1    1.44    2.65
   4   4   5   11.68    1.80
  15   3   1   -0.98    2.43
  19   3   2   -0.89    2.80
  20   0  -2    0.59    2.21
  22   0  -1    1.39    2.26
   4   2   0   -0.52    1.36
   7   3   1    6.23    1.77
   9   5   7    1.47    2.22
  11   5   7    0.64    2.46
  12   4   3   18.97    2.84
  13  -1  -4    2.40    1.62
  13   5   7   -0.91    2.21
  14   4   3   -0.26    2.73
  17   3   1    0.52    2.79
  18   0  -3    1.31    2.01
  18   2  -1    0.57    2.48
  18   4   4   -1.97    3.20
  19   1  -2   -0.41    2.36
  20   2   0    4.78    3.16
  21   1  -1   -2.57    2.79
  23   1   0    3.00    2.62
   8   4   3    3.03    2.38
  11   3   0    1.73    2.38
  12   0  -4   23.70    2.33
  12   2  -2    0.95    2.40
  13   3   0   11.26    2.21
  14   0  -4    2.60    2.14
  14   2  -2   64.43    3.58
  15  -1  -4    1.81    1.36
  15   1  -3    3.67    2.15
  15   3   0    0.29    2.52
  15   5   7   -0.65    2.29
  19   3   1   -0.29    3.06
  22   0  -2   -0.69    2.45
   3   3   2    6.06    1.70
   6   2  -1    1.44    1.63
   9   1  -3   23.66    2.17
   9   5   6    0.83    2.26
  10   2  -2    6.07    2.23
  11   5   6    1.03    2.53
  12   4   2    1.34    2.45
  13   5   6   -0.56    2.94
  14   4   2   -1.70    2.73
  15   5   6    0.64    2.34
  16   0  -4    0.29    2.26
  16   2  -2    0.87    2.38
  17  -1  -4    0.18    1.35
  17   1  -3    2.97    2.13
  17   3   0    3.41    2.98
  18   4   3    2.49    3.02
  20   0  -3   -0.27    2.19
  21   1  -2    1.20    2.75
  22   2   0    1.46    2.81
  23   1  -1   -0.19    2.58
   1   3   3    4.88    1.46
   4   4   4    8.15    1.77
   5   1  -2   73.05    1.77
   5   3   1    1.23    1.87
   6   4   3    0.92    2.16
  10   0  -4   -0.24    1.75
  10   4   2    1.37    2.53
  13   3  -1    0.41    2.46
  18   0  -4    2.69    2.10
  18   2  -2   -1.44    2.58
  19   1  -3    1.56    2.50
   8   2  -2   15.28    2.24
   9   5   5   -1.99    2.51
  11   3  -1    0.53    2.41
  11   5   5    3.01    2.51
  13   5   5   -0.15    2.45
  15   1  -4    3.47    2.49
  15   3  -1    2.83    2.29
  15   5   5    0.16    2.77
  17   3  -1    8.86    2.84
  18   4   2    0.33    3.12
  22   0  -3    1.44    2.28
  22   2  -1   -1.11    2.72
  23   1  -2   -1.10    2.60
   7   1  -3    4.08    1.68
   9   3  -1    2.24    2.19
  11   1  -4    2.31    1.99
  12   2  -3    4.07    2.31
  13   5   4   -0.93    2.94
  16   2  -3   -1.41    2.40
  16   4   1    1.06    3.00
  17   1  -4    1.18    2.35
  19   3  -1   -1.08    2.61
  20   0  -4    0.05    1.99
  21   1  -3    2.14    2.60
   8   0  -4   78.73    2.20
  10   2  -3    3.81    2.16
  10   4   1    0.96    2.49
  13  -1  -5    0.05    1.39
  13   3  -2    3.16    2.43
  14   0  -5    1.48    2.03
  15  -1  -5    3.28    1.33
  15   3  -2    0.97    2.39
  15   5   4    1.31    2.96
  16   0  -5    3.07    2.24
  18   2  -3    0.38    2.46
  18   4   1   -2.94    3.06
  19   1  -4   -0.31    2.44
  22   2  -2   -0.41    2.91
   4   2  -1   44.96    1.86
   4   4   3    2.22    1.69
   5   3   0    1.11    1.92
   6   2  -2    2.35    1.79
   6   4   2   57.96    2.93
   9   5   4    2.93    2.32
  11   3  -2   91.23    3.86
  12   0  -5    8.34    1.79
  12   4   0   -1.23    2.30
  13   5   3    0.46    2.90
  15   5   3   -0.06    3.04
  16   4   0    1.19    3.06
  17   3  -2    2.86    2.76
  18   0  -5    2.63    2.11
  21   1  -4    1.63    2.31
  23   1  -3   -0.38    2.59
   2   4   4    7.07    1.67
   8   2  -3  320.37    4.60
  11  -1  -5   -0.94    1.12
  12   2  -4   14.44    2.42
  14   2  -4   -0.09    2.71
  15   1  -5    0.81    2.57
  16   2  -4    1.82    2.51
  17   1  -5    2.65    2.39
  18   4   0   -2.08    3.23
  19   3  -2    0.14    2.69
  20   0  -5    0.54    1.84
   7   5   4    1.87    2.17
   9   3  -2    1.80    2.23
   9   5   3   11.90    2.69
  10   4   0    4.73    2.65
  13   3  -3   -0.07    2.53
  15   3  -3    2.05    2.51
  15   5   2    0.33    3.11
  16   4  -1    1.71    2.73
  17   3  -3    0.93    2.87
  19   1  -5    8.05    2.76
  21   3  -2    0.25    3.03
  23   1  -4   -0.34    2.64
   6   4   1   62.99    3.07
  10   2  -4   -0.86    2.24
  11   1  -5    0.97    2.12
  11   5   2    0.68    2.34
  12   4  -1   -0.34    2.64
  13   5   2   -0.08    2.57
  18   0  -6   -1.87    2.24
  18   4  -1   -1.05    3.26
  19   3  -3   -0.10    3.22
  21   1  -5   -0.51    2.86
   1   3   2    1.95    1.25
   5   1  -3  226.16    2.75
   8   4   0    0.59    2.22
  10   4  -1   -1.25    3.14
  11   3  -3   29.64    2.90
  14   0  -6    1.58    1.93
  14   2  -5    1.30    2.73
  15  -1  -6    4.53    1.54
  15   5   1   -3.66    2.95
  16   2  -5    3.90    2.53
  20   0  -6    1.30    1.91
  21   3  -3    1.64    3.07
   5   3  -1    0.86    2.15
   7   5   3    0.85    2.44
   9   5   2   11.69    2.77
  12   0  -6    2.64    1.68
  12   2  -5    3.19    2.38
  13  -1  -6    8.67    1.73
  13   5   1    1.56    3.05
  14   4  -2   17.39    3.23
  15   1  -6    2.93    2.48
  16   4  -2   -2.33    3.11
  17   3  -4    0.75    2.84
  18   4  -2   -1.07    3.20
  19   1  -6    8.81    2.78
  19   3  -4   -0.74    2.83
  20   2  -5    0.20    2.91
  23   1  -5   -1.04    2.60
   6   2  -3   14.86    2.10
   9   1  -5  118.81    3.24
  11   5   1    2.49    2.59
  13   3  -4    1.61    2.44
  15   5   0    1.91    3.28
  21   3  -4    0.29    3.21
  22   2  -5    2.67    2.87
   4   2  -2   36.71    1.88
   6   4   0    0.44    2.28
   8   4  -1    1.69    2.40
  10   2  -5   -0.36    2.11
  13   5   0   -0.84    3.07
  16   0  -7   24.99    2.68
  16   4  -3    0.75    3.17
  17   3  -5    1.28    2.83
  18   0  -7    0.55    2.21
  18   4  -3   -0.91    3.51
  20   2  -6    0.67    2.70
  23   1  -6   -0.93    2.66
   4   4   1   -0.17    1.84
   7   5   2    0.76    2.41
   9   5   1    0.68    2.26
  10   0  -6    1.77    1.90
  10   4  -2    1.38    2.75
  11  -1  -6   10.99    1.62
  11   5   0    1.59    2.78
  14   0  -7   12.45    2.42
  14   2  -6   -1.03    2.84
  14   4  -3    1.16    2.79
  15   1  -7   -1.05    2.83
  17   1  -7   -0.14    2.36
  19   1  -7    1.12    2.76
  19   3  -5    3.45    3.26
  20   0  -7    5.55    1.67
  21   3  -5    1.01    2.88
  22   2  -6    0.92    2.59
  12   2  -6    1.54    2.43
  13   5  -1   -1.08    3.02
  15   5  -1   -1.26    3.06
  16   4  -4   -2.27    3.43
  18   4  -4   -1.64    2.95
  21   1  -7    2.34    2.82
   5   3  -2   22.08    2.54
   7   5   1    0.63    2.75
   8   4  -2    6.56    2.70
   9   3  -4   -1.99    2.36
   9   5   0   -0.77    2.59
  11   3  -5    1.44    2.57
  12   0  -7   25.49    2.24
  13   1  -7   69.17    3.23
  14   4  -4    1.52    2.91
  14   6   2   -0.62    2.75
  16   2  -7   18.16    3.08
  17   3  -6   -0.63    3.06
  17   5  -2    1.39    3.10
  19   3  -6    1.51    3.46
  20   2  -7    2.75    3.11
  23   1  -7    0.09    2.44
   2   4   2   13.43    1.85
   6   2  -4  123.57    3.11
   6   4  -1    1.42    2.38
  10   4  -3   -0.14    2.75
  12   6   2   -0.04    2.59
  13  -1  -7   66.78    2.60
  14   2  -7    5.91    3.24
  15   3  -6   -1.43    2.60
  15   5  -2    1.27    3.42
  16   0  -8   -1.29    2.28
  17   1  -8    2.72    2.48
  18   0  -8    0.98    2.00
  19   1  -8    1.75    2.70
  20   0  -8   -0.28    1.80
  22   2  -7    1.32    2.98
   3   3  -1   38.73    2.35
   4   4   0    2.02    2.11
   5   1  -4  501.02    4.25
  10   2  -6    0.35    2.18
  13   3  -6    2.09    2.41
  13   5  -2   -0.45    2.75
  14   6   1    0.40    2.82
  15   1  -8    1.15    2.72
  16   4  -5    3.91    3.37
  17   5  -3    0.11    3.17
  18   4  -5    1.91    3.08
  21   1  -8    2.50    2.40
   7   3  -4    0.08    2.06
   9   5  -1    0.95    2.53
  11   5  -2   14.64    3.12
  12   6   1   -0.65    3.01
  14   0  -8    1.49    2.15
  14   4  -5   -0.07    2.95
  15   5  -3   -2.02    3.48
  17   3  -7    0.84    3.00
  19   3  -7    1.71    2.83
  21   3  -7   -1.05    3.15
  22   2  -8    1.92    2.62
  23   1  -8    1.13    2.19
   8   0  -6    7.46    1.78
  10   0  -7   60.88    2.52
  10   4  -4    2.54    2.69
  11   3  -6    3.02    2.79
  12   4  -5    2.48    2.86
  13   1  -8   26.63    2.67
  13   5  -3    1.27    3.14
  14   6   0   -0.79    2.59
  15   3  -7   -0.33    2.16
  16   4  -6    7.33    3.21
  19   1  -9   -0.16    2.38
   5   3  -3   79.03    3.01
   5   5   1    0.03    2.11
  11  -1  -7   11.30    1.60
  12   6   0    0.77    2.88
  13   3  -7   31.68    3.06
  14   4  -6    1.73    2.88
  17   1  -9   -0.71    2.33
  18   0  -9   -0.96    2.16
  20   2  -9    1.40    3.35
  21   1  -9   -1.51    2.40
  23   1  -9   -1.04    2.10
   2   4   1    4.48    1.63
   4   4  -1    6.98    2.20
   7   5  -1    0.08    2.88
   8   2  -6   10.05    2.23
   9   1  -7   58.41    2.83
   9   5  -2    1.11    2.53
  10   2  -7   37.32    2.78
  11   5  -3    8.01    2.96
  12   0  -8   32.52    2.31
  12   2  -8   17.64    2.89
  13   5  -4    0.64    2.90
  14   6  -1    1.27    2.68
  15   1  -9    5.88    2.33
  15   3  -8    0.94    2.67
  18   2  -9    2.35    2.81
  18   4  -7   -0.09    3.12
  22   2  -9    3.11    3.06
   7   1  -6   36.17    2.05
   8   4  -4   11.36    3.05
   9   3  -6    1.46    2.62
  11   3  -7    1.16    3.08
  12   4  -6   -0.99    2.95
  12   6  -1   -1.72    2.90
  13  -1  -8   27.33    2.11
  14   0  -9    5.73    2.39
  14   6  -2    1.36    3.06
  15   5  -5   -0.68    3.16
  19   1 -10   -0.94    2.99
  21   1 -10   -1.36    2.92
   1   3   0    1.92    1.46
   3   3  -2   19.17    2.13
   5   5   0   -0.60    2.24
   7   3  -5    1.46    1.65
   9   5  -3   -1.24    2.82
  11   5  -4   -1.69    2.88
  13   1  -9    1.00    2.23
  13   3  -8   13.49    2.94
  14   2  -9    5.46    2.84
  14   4  -7   -0.06    3.39
  17   1 -10   -0.47    2.49
  17   3  -9   -0.90    3.14
  18   0 -10    3.05    2.68
  19   3  -9    0.77    3.39
  22   2 -10    1.11    3.16
  23   1 -10    0.07    2.30
   4   2  -4   19.18    2.07
   5   1  -5   90.36    2.27
  10   6  -1   -1.43    3.27
  13   5  -5   -1.13    3.33
  15   1 -10    7.73    3.15
  15   3  -9    3.25    2.92
  16   4  -8   -0.74    3.12
  18   2 -10    0.59    2.89
  18   4  -8    3.74    3.12
   8   2  -7    5.07    2.39
   8   4  -5    0.92    2.89
  10   0  -8   97.82    2.99
  10   2  -8   58.01    3.10
  12   2  -9    6.40    2.82
  14   6  -3   -1.98    2.70
  15   5  -6   -4.96    3.14
  19   3 -10    0.73    3.17
  21   1 -11    1.35    2.86
   6   2  -6   22.00    2.35
   7   3  -6   12.15    2.37
   8   0  -7    7.24    1.82
   9   1  -8    0.96    2.29
   9   3  -7   20.94    2.83
   9   5  -4   -1.02    2.86
  10   6  -2    3.49    3.04
  11   3  -8    1.36    2.24
  11   5  -5   -1.06    2.95
  12   6  -3    1.51    3.13
  13   3  -9    0.15    2.86
  13   5  -6   -0.04    3.37
  14   2 -10    1.54    2.69
  14   4  -8   -1.50    3.26
  17   1 -11   -1.27    2.92
  17   3 -10    0.76    3.29
  18   4  -9    0.33    3.55
  19   1 -11    1.40    3.01
  20   2 -11   -0.15    3.51
  23   1 -11   -0.58    2.11
   6   4  -4   24.63    2.68
  14   0 -10    3.41    2.23
  15   3 -10    2.08    3.09
  16   4  -9    1.25    3.66
  18   0 -11    2.39    2.69
   3   3  -3   37.83    2.40
   8   4  -6    3.11    2.75
  11   5  -6   -0.98    2.83
  12   4  -8    1.82    3.08
  12   6  -4    3.99    3.18
  13  -1  -9   -0.51    1.53
  14   4  -9    1.39    3.13
  15   1 -11    1.38    2.90
  16   2 -11    0.17    2.85
  18   4 -10   -2.54    3.25
  19   3 -11   -0.94    3.61
  21   1 -12    0.45    2.59
   1   3  -1    0.12    1.63
   3   1  -4   75.27    1.84
   5   5  -2    1.01    2.78
   8   2  -8    9.93    2.47
   9   5  -5    5.63    3.09
  10   6  -3   -0.52    3.22
  11   3  -9    4.88    3.11
  12   2 -10   -1.15    3.10
  13   3 -10    4.64    2.93
  13   5  -7    3.94    3.25
  16   0 -11    2.31    2.72
  16   4 -10    1.87    3.03
  17   3 -11    1.26    2.89
  19   1 -12    0.60    2.60
  20   2 -12   -0.53    3.38
   2   2  -3    5.36    1.58
   4   2  -5   40.56    2.29
   6   4  -5   14.82    2.96
   7   3  -7    4.58    2.51
   7   5  -4    1.37    2.66
  10   0  -9   63.96    2.84
  11   1 -10   15.55    2.74
  12   0 -10    0.03    2.23
  15   3 -11    0.98    3.40
  17   1 -12    0.46    2.52
   6   2  -7   -0.75    2.40
  10   6  -4   -1.82    3.01
  11   5  -7    1.46    3.40
  12   4  -9    0.84    2.89
  12   6  -5    2.56    2.78
  13   5  -8    2.71    3.60
  14   0 -11    0.41    2.40
  14   4 -10    1.95    3.61
  17   3 -12    1.10    3.04
  21   1 -13    2.88    2.45
   7   1  -8   79.14    2.81
   8   0  -8   29.12    2.08
   8   4  -7    0.46    2.91
   9   3  -9    1.67    2.75
  10   2 -10    2.09    2.55
  11   3 -10    6.84    2.76
  12   2 -11    2.18    3.38
  15   1 -12   22.44    3.13
  18   2 -13    0.51    2.61
  19   1 -13    1.06    2.59
  20   2 -13   -2.67    2.92
   0   4   1    4.53    1.71
   4   4  -4   -0.21    2.43
   6   4  -6    4.23    2.75
   8   2  -9   10.88    2.37
  10   6  -5   -0.53    3.26
  11  -1  -9    9.88    1.70
  11   5  -8    0.50    3.48
  12   4 -10    1.27    2.92
  12   6  -6   -0.13    3.29
  13   5  -9   -1.52    3.38
  15   3 -12    9.07    3.38
  16   0 -12    1.32    2.65
  17   1 -13    2.56    2.63
   1   3  -2   69.10    2.49
   2   4  -2    2.49    1.93
   7   3  -8   29.01    2.99
   8   6  -4    4.36    3.05
   9   5  -7    2.92    2.95
  10   4  -9   10.48    2.94
  13   1 -12    2.92    3.24
  14   4 -11   -1.08    3.17
  16   2 -13    0.98    2.60
  16   4 -12    2.54    3.29
  17   3 -13   -1.60    3.71
  20   2 -14   -0.71    2.61
  21   1 -14   -1.24    2.74
   4   2  -6    3.86    2.05
   5   5  -4   27.32    3.28
   6   2  -8   33.17    2.42
  10   0 -10    2.07    2.07
  10   6  -6    3.61    3.25
  11   3 -11   -3.01    2.53
  12   0 -11    3.02    2.29
  12   6  -7   -0.29    3.22
  15   1 -13    8.90    2.74
  19   1 -14    2.06    2.90
   2   2  -4  216.70    3.17
   3   1  -5   51.66    1.74
   4   4  -5    7.35    2.32
   5   3  -7    2.16    2.25
   6   4  -7    0.56    3.13
   7   5  -6   -0.58    2.74
   9   3 -10    4.21    3.21
  10   2 -11   11.74    2.71
  10   4 -10   -0.18    2.73
  12   2 -12    6.61    2.88
  14   4 -12    1.12    3.72
  15   3 -13    5.34    3.37
  15   5 -11    0.24    3.95
  16   0 -13    0.03    2.74
  17   1 -14    1.55    2.97
   0   4   0  245.00    3.73
   3   3  -5   13.81    2.62
   7   1  -9   94.28    3.31
   7   3  -9   44.57    3.16
   8   0  -9   13.16    2.26
   8   6  -5    3.06    3.14
   9   5  -8   -1.93    3.13
  12   6  -8    1.63    3.41
  16   2 -14    1.92    2.82
  16   4 -13   -2.24    3.97
  20   2 -15    2.66    3.20
  21   1 -15    2.33    2.78
   5   5  -5    9.16    3.00
   7   5  -7   -0.42    2.58
  10   6  -7    1.39    3.43
  11   1 -12    6.03    2.79
  11   3 -12    1.46    2.89
  11   5 -10    5.75    3.13
  13   3 -13   -0.89    3.28
  15   3 -14    2.76    3.08
  18   2 -15    1.93    3.25
  19   1 -15    0.25    3.11
   4   2  -7   25.83    2.52
   8   6  -6   -1.55    3.43
   9   3 -11    0.77    3.23
   9   5  -9   -2.79    2.99
  10   2 -12    3.70    2.61
  10   4 -11    2.53    3.03
  11  -1 -10   14.20    2.01
  12   0 -12    5.97    2.42
  12   2 -13   32.26    3.09
  12   4 -12   -1.10    3.44
  12   6  -9   -0.35    3.11
  14   2 -14    2.57    3.37
  14   4 -13   -0.58    3.82
  15   1 -14    1.54    2.49
  16   4 -14   -1.75    3.36
   4   4  -6    1.94    2.56
   5   3  -8    4.43    2.40
   6   4  -8    5.13    3.02
  10   0 -11   19.37    2.17
  10   6  -8    5.61    3.39
  16   0 -14    4.40    2.68
  16   2 -15    1.71    3.18
  17   1 -15   -0.55    2.75
  20   2 -16    0.75    3.40
   2   2  -5  341.72    4.11
   3   3  -6   67.35    3.16
   5   1  -8    9.02    2.17
   5   5  -6    1.14    3.05
   6   0  -8   48.63    2.36
   7   3 -10   42.60    3.39
   8   2 -11   -0.04    2.85
   8   6  -7    0.66    3.31
  11   5 -11   -0.47    3.64
  12   4 -13    8.11    3.32
  14   4 -14    4.06    3.00
  15   3 -15   -2.32    3.73
  18   2 -16    1.76    3.50
  19   1 -16   -0.39    3.11
   0   4  -1    2.00    1.52
   3   1  -6  215.86    3.04
   3   5  -4    1.84    2.63
   7   1 -10  112.90    3.53
   9   3 -12    4.69    2.93
   9   5 -10   -1.55    3.28
  10   4 -12    0.17    3.36
  10   6  -9    0.96    3.49
  11   1 -13    4.72    2.84
  13   1 -14    1.47    2.73
  14   2 -15    2.18    3.22
  15   1 -15   -0.40    2.87
   1   3  -4    5.91    2.25
   4   4  -7    4.78    2.72
   6   2 -10    2.15    2.58
   6   4  -9    0.11    3.15
   8   0 -10   50.26    2.52
  10   2 -13   -0.93    3.18
  11   5 -12   -0.39    3.52
  12   0 -13   40.99    3.03
  14   0 -14    1.06    2.70
  17   1 -16    0.57    3.04
   4   2  -8   61.53    2.57
   7   3 -11   17.17    3.27
   8   2 -12    6.96    3.10
   8   6  -8   -3.52    3.55
   9   5 -11    1.01    3.13
  10   6 -10    0.96    3.38
  11   3 -14   -2.06    2.78
  12   4 -14    0.81    3.72
  13   3 -15    3.90    3.33
  14   4 -15   -2.47    3.77
  15   3 -16   -0.54    3.86
  16   0 -15    3.17    2.86
  18   2 -17    0.92    2.98
  19   1 -17    0.52    3.18
   0   4  -2    0.97    1.94
   2   4  -5   90.96    3.40
   6   4 -10    0.69    3.06
   9   3 -13    3.04    2.89
  10   0 -12    8.87    2.26
  10   4 -13    1.36    3.19
  11  -1 -11   -0.73    1.58
  13   1 -15   16.41    2.84
  13   5 -14    1.48    3.92
  14   2 -16   -0.20    3.46
  16   2 -17    1.75    3.59
  -1   3  -1   -0.25    1.47
   2   2  -6   25.48    2.24
   4   4  -8   13.19    2.93
   5   1  -9   93.60    3.08
   5   5  -8   -0.33    3.09
   7   5 -10    6.12    3.42
   8   6  -9    0.45    3.29
  11   1 -14   -0.61    2.69
  11   5 -13    2.15    3.46
  12   4 -15    2.24    3.10
  13   3 -16    0.81    3.30
  14   4 -16    1.37    3.56
  15   3 -17   -2.57    4.25
  17   1 -17    4.58    3.35
   1   3  -5    3.05    2.27
   4   2  -9   13.95    2.55
   6   0  -9   16.12    2.11
   6   2 -11    8.96    2.67
   7   3 -12    2.93    2.99
   9  -1 -10   10.34    1.65
   9   1 -13   12.50    2.56
   9   5 -12   -0.99    3.60
  10   4 -14    0.30    3.30
  10   6 -11    1.93    3.14
  11   3 -15   -0.63    3.12
  12   0 -14    7.28    2.69
  14   0 -15    0.14    2.54
  19   1 -18    2.22    3.31
   6   4 -11    3.11    3.05
   6   6  -8    3.09    3.22
   8   2 -13    0.49    2.99
   8   6 -10   -1.55    3.51
   9   3 -14   21.51    3.24
  13   1 -16   -1.59    2.63
  14   2 -17    4.12    3.32
   0   4  -3    0.34    1.85
   4   4  -9    7.90    3.12
   7   5 -11    2.50    3.01
   8   4 -13   -0.97    2.94
   9   5 -13    2.42    3.82
  10   0 -13    0.62    2.28
  10   2 -15    6.46    2.74
  10   6 -12    0.15    3.53
  11  -1 -12    4.27    1.93
  11   1 -15   -0.67    3.02
  12   4 -16    2.42    3.55
  13   3 -17   -1.17    3.51
  -1   3  -2    0.20    1.85
   3   5  -7    0.78    2.91
   5   3 -11    3.90    2.90
   6   2 -12    5.59    2.78
   6   6  -9    1.97    3.52
   7   1 -12   -1.60    2.16
   7   3 -13   -0.89    3.47
   8   6 -11    1.86    3.09
  10   4 -15    0.46    3.66
  11   3 -16    1.45    2.92
   1   3  -6   40.78    2.89
   2   4  -7    1.96    2.70
   4   2 -10  188.05    4.48
   5   5 -10   -3.05    3.20
   7   5 -12    2.18    3.50
   8   0 -12   13.48    2.18
   8   2 -14    0.03    3.18
   8   4 -14   -2.32    3.28
   9   3 -15    4.19    2.94
   9   5 -14    8.29    3.34
  12   0 -15    7.09    2.50
  13   1 -17   -1.06    2.63
  14   2 -18    4.14    3.53
  15   1 -18    1.46    2.90
  16   2 -19   -1.41    3.64
   6   0 -10    6.51    2.02
   8   6 -12    1.70    3.49
  10   0 -14    7.78    2.77
  10   2 -16    5.14    2.98
  10   4 -16    3.17    3.62
  11   1 -16    0.73    3.01
  11   3 -17    0.08    3.16
  13   3 -18   -1.83    3.03
  17   1 -19    1.43    3.17
   1   1  -5   21.65    1.39
   3   5  -8   -0.04    3.11
   5   3 -12   10.78    3.32
   6   2 -13    2.65    2.74
   6   6 -10    1.54    3.49
   7   3 -14    1.03    2.71
   7   5 -13    1.81    3.33
   9  -1 -11    0.37    1.51
   9   3 -16    3.38    2.98
  14   2 -19    1.54    3.58
   1   3  -7   41.59    2.85
   2   2  -8   70.52    2.67
   4   2 -11   10.01    2.85
   4   4 -11   -0.10    3.51
   5   1 -11   13.13    2.40
   5   5 -11    2.97    3.00
   8   2 -15   -1.73    3.46
   9   1 -15    4.64    2.93
   9   5 -15   -1.05    3.90
  11  -1 -13    5.97    1.81
  12   0 -16   -0.45    2.91
  12   4 -18   -1.37    3.79
  13   1 -18    0.55    2.77
  13   3 -19    1.05    3.63
  15   1 -19    0.19    3.15
  16   2 -20   -0.66    2.97
   0   4  -5   13.53    2.43
   6   6 -11   -3.52    3.55
   7   3 -15    1.21    2.75
   8   0 -13    1.07    2.03
  10   2 -17   -1.81    3.17
  10   4 -17    1.53    3.14
  17   1 -20   -2.65    3.29
   2   4  -9    2.51    3.01
   3   1  -9   23.20    2.44
   5   5 -12   -0.18    3.54
   6   0 -11   21.95    2.46
   6   2 -14   10.16    3.22
   7   5 -14    0.16    3.34
   9   3 -17   -3.38    3.55
   9   5 -16    2.98    3.84
  10   0 -15   11.93    2.66
  12   2 -19   -0.63    3.75
  14   2 -20    1.85    3.63
  16   2 -21   -1.98    3.01
   1   3  -8    6.99    2.45
   2   2  -9   19.50    2.93
   3   3 -11    0.58    2.74
   3   5 -10    1.59    2.81
   4   2 -12   18.93    3.04
   6   6 -12    2.39    3.32
   8   2 -16    1.98    2.62
   8   6 -14   -3.08    3.26
   9   1 -16   11.60    3.15
  10   4 -18   -1.33    3.83
  13   1 -19    0.18    3.07
  13   3 -20    2.38    3.30
  15   1 -20    3.90    3.43
   4   0  15    6.32    2.36
   6   0   7   61.08    2.84
   6   0   8   93.80    3.20
   6   0  10   14.58    2.50
   6   0  11   -1.27    2.12
   9  -1  -2    1.77    1.84
   9  -1  18   -0.58    2.71
  11  -1  14   14.43    3.79
  12  -2  -5    1.84    1.85
  12  -2  19   -0.45    3.13
  14  -2  -1   21.76    2.81
  14  -2  15    0.44    3.68
  17  -3  -1    9.86    2.55
   6   0   5   50.95    2.56
   6   0  12   19.98    2.68
   6   0  13    2.40    2.79
  11  -1  15    0.62    2.69
  14  -2  -2   63.78    3.30
  16  -2   7   -2.36    3.18
  16  -2   8    1.51    3.21
  16  -2   9   -0.03    3.08
  17  -3  -2   -0.60    2.41
  20  -4   2    2.08    2.74
   4   0  17    0.46    1.70
   6   0   4    6.11    1.83
   6   0  14    0.97    2.42
   9  -1  -3   24.57    2.07
   9  -1  19    0.14    2.51
  11  -1   0    4.78    2.22
  11  -1  16   -0.95    2.49
  13  -1   6   -0.63    3.01
  13  -1   7   -0.59    3.18
  13  -1   8    3.22    2.88
  13  -1   9   19.59    2.96
  14  -2  -3   -1.04    2.36
  16  -2   2   -0.12    2.72
  16  -2   3   -2.74    2.67
  16  -2   4    1.25    2.68
  16  -2  10    8.91    3.33
  16  -2  12    1.87    3.32
  19  -3   6    0.00    3.25
   6   0   3    3.03    1.67
   6   0  15   -0.68    2.48
   9  -1  20   -1.22    2.77
  11  -1  -1    4.72    2.40
  11  -1  17    1.92    2.44
  12  -2  -6   -0.27    1.62
  13  -1   4   13.72    2.78
  13  -1  10   20.11    3.16
  13  -1  11    2.19    2.87
  13  -1  12   -0.60    2.85
  16  -2   1    7.53    2.78
  16  -2  13   -0.75    3.50
  19  -3   3    2.36    3.11
  19  -3   4    0.94    3.30
  19  -3   5   -0.36    2.80
  19  -3   7    0.01    2.95
   8   0   7   -0.32    2.24
   8   0   8   38.21    2.88
   8   0   9   22.43    2.71
   8   0  11   12.43    2.55
   9  -1  21   -0.46    2.61
  11  -1  18   -0.52    2.87
  13  -1   3    0.69    2.53
  13  -1  13    0.08    3.27
  14  -2  -4    1.81    2.23
  16  -2   0    3.06    2.76
  16  -2  14   -2.48    3.27
  19  -3   1    3.12    2.96
  19  -3   2   -1.65    2.71
   6   0   2  370.76    3.93
   8   0   5    3.05    2.26
   8   0   6   -1.47    1.75
   8   0  13   83.71    3.97
  11  -1  -2  243.21    4.33
  11  -1  19   -0.94    2.86
  13  -1  15    1.90    3.20
  19  -3   0   -0.06    2.77
   8   0   4   99.53    3.05
   8   0  14   -1.47    2.65
   8   0  15   -0.89    2.63
   9  -1  -4    1.56    1.41
  11  -1  20    0.72    2.36
  13  -1   1    2.95    2.36
  13  -1  16    0.35    2.95
  16  -2  -2   -0.41    2.64
  18  -2   4    2.92    3.23
  18  -2   5    9.24    3.07
  18  -2   8   -0.78    3.31
  18  -2   9    0.66    3.36
  18  -2  10    0.14    3.59
  19  -3  -1   -0.11    2.73
   8   0   3   24.47    2.24
   8   0  16    2.04    2.61
  10   0   9   42.14    3.03
  10   0  10   -0.47    2.60
  13  -1   0   26.57    2.69
  13  -1  17   -0.42    2.84
  14  -2  -5    0.35    1.68
  15  -1   5   14.92    2.80
  15  -1   6    1.95    2.61
  15  -1   7    1.64    2.92
  15  -1   8   -1.53    2.82
  15  -1   9    1.42    2.99
  15  -1  10    0.30    3.04
  15  -1  11    2.00    3.23
  15  -1  12    1.72    3.11
  18  -2   2   -0.84    2.87
  18  -2   3    2.00    2.78
   6   0   1  431.34    3.92
   8   0  17   -0.21    2.12
  10   0   6   12.22    2.53
  10   0   7   10.15    2.51
  10   0   8   60.80    2.88
  10   0  12    2.06    3.19
  10   0  13    4.65    2.85
  11  -1  -3   76.81    2.70
  11  -1  21   -0.61    2.16
  13  -1  -1    1.18    2.24
  13  -1  18    0.43    2.67
  15  -1  13   -3.51    3.44
  15  -1  14    5.10    3.26
  16  -2  -3    0.53    2.24
  18  -2   1    0.85    2.63
  21  -3   3   -0.45    2.69
   8   0   2   85.80    2.76
   8   0  18   -0.79    1.94
  10   0   5   32.67    2.70
  10   0  14    2.48    2.69
  10   0  15    3.88    2.87
  13  -1  19   -1.09    2.44
  18  -2   0    1.80    2.39
  21  -3   1    2.13    2.69
  21  -3   2    0.64    2.60
   8   0  19    0.15    1.96
  10   0   4    7.60    2.42
  10   0  16   12.56    2.79
  13  -1  -2    0.21    1.85
  15  -1   1   -1.17    2.64
  15  -1  16   -0.44    2.75
  15  -1  17   -0.74    2.53
  18  -2  -1    2.09    2.23
  20  -2   6   -0.10    3.25
   6   0   0   17.36    1.25
   8   0   1   68.36    2.50
  10   0   3    1.43    2.11
  10   0  17   -0.02    2.29
  11  -1  -4    0.55    1.56
  12   0   7    1.06    2.71
  12   0   8   13.29    2.86
  12   0   9    0.23    3.16
  12   0  10    2.63    2.74
  12   0  11    6.12    2.58
  17  -1   6    8.68    3.06
  17  -1   7    0.28    3.09
  17  -1   8    0.68    3.04
  17  -1   9    2.01    3.19
  17  -1  11    0.24    3.18
  17  -1  12    1.59    2.97
  20  -2   4   -0.89    3.19
  20  -2   5    2.18    3.25
  10   0   2    0.54    2.16
  10   0  18   -1.15    2.13
  12   0   5   17.41    2.61
  12   0   6   14.81    2.73
  12   0  13    2.11    2.70
  12   0  14    2.60    2.94
  12   0  15   -0.03    3.02
  17  -1  13    4.43    2.89
  17  -1  14    3.53    3.38
  18  -2  -2    1.71    2.29
  20  -2   3    0.23    2.55
  10   0  19   -0.36    2.37
  12   0   4   15.09    2.53
  12   0  16   -1.91    2.95
  17  -1   2    2.60    2.57
  18  -2  -3    1.65    2.29
  20  -2   1   -0.80    2.92
   8   0   0   30.77    1.98
  10   0   1    5.18    2.11
  10   0  20    0.82    2.30
  12   0   3  133.26    3.83
  12   0  17   -0.28    2.73
  14   0   8   -3.27    2.41
  14   0   9    9.80    3.01
  14   0  10    3.68    2.76
  14   0  11   -1.59    2.77
  14   0  12   -3.17    2.70
  20  -2   0    4.18    2.88
  11  -1  -5    0.53    1.30
  12   0  18   -1.06    2.40
  12   0  19    0.55    2.48
  13  -1  -4    1.31    1.72
  14   0   6    1.96    2.95
  14   0   7   -1.08    2.48
  14   0  14    7.49    3.27
  15  -1  -2    2.50    2.16
  19  -1   7   -0.96    3.22
  19  -1   8    3.03    3.20
  19  -1   9    3.59    3.50
  19  -1  10    2.16    3.42
  20  -2  -1    3.36    2.49
  10   0   0   49.31    2.52
  12   0   2    8.24    1.64
  12   0  20    0.53    2.45
  14   0   4    5.68    2.58
  14   0   5   26.03    3.08
  14   0  15    9.33    2.77
  14   0  16    3.96    3.15
  17  -1   0    9.77    2.59
  22  -2   3   -2.43    2.88
   3   1  11   35.42    1.95
   3   1  12    1.35    1.39
   3   1  13    4.06    1.56
   3   1  14    5.07    1.58
   3   1  15    0.51    1.80
   5   1  11   -1.36    1.75
   5   1  12   62.95    2.55
   5   1  13   46.84    2.47
   5   1  14   15.09    2.24
   8   0  -1   36.36    1.94
  12   0   1    5.77    2.10
  12   0  21   -0.03    2.29
  14   0   3    0.01    2.27
  14   0  17   -3.48    3.11
  14   0  18   -0.10    2.52
  15  -1  -3    1.78    2.17
  16   0   9   -2.79    2.75
  16   0  10   14.92    3.00
  16   0  11    1.41    2.93
  19  -1   2    2.33    2.82
  22  -2   1   -0.52    2.65
  22  -2   2    0.19    2.79
   1   1  11    1.77    1.51
   1   1  12    1.11    1.29
   1   1  14    8.95    1.49
   3   1   9    0.93    1.72
   5   1  15    1.98    2.06
   5   1  16    3.90    2.15
   7   1  10   14.71    2.26
   7   1  11    0.61    2.02
   7   1  13    0.27    2.24
   7   1  14   -0.29    2.37
  14   0  19   -0.44    2.42
  16   0   6    2.46    2.44
  16   0   7    3.41    2.63
  16   0   8    9.12    2.66
  16   0  12    0.62    2.72
  16   0  13    1.29    3.31
  19  -1   1    5.45    2.44
  22  -2   0    1.61    2.69
   5   1   8    1.66    1.70
   7   1   9   -1.42    1.89
   7   1  16    1.58    2.63
  14   0   2    4.07    2.24
  15  -1  -4    4.29    2.04
  16   0   5    0.78    2.60
  16   0  15    2.79    2.73
  16   0  16    0.91    3.22
  19  -1   0    0.18    2.67
  21  -1   5   -0.19    2.83
   7   1  17    3.98    2.28
   9   1  10    5.74    2.29
   9   1  11    7.92    2.49
   9   1  12    5.66    2.47
   9   1  13    0.15    2.52
   9   1  14   -2.67    2.71
   9   1  15    0.12    2.38
  16   0   3    0.66    2.30
  16   0   4    2.54    2.32
  17  -1  -3    4.67    2.38
  21  -1   4   -1.77    3.13
   3   1   7   33.33    1.67
   9   1   8    0.34    2.08
   9   1  16    0.84    2.36
   9   1  17   -0.74    2.42
  11   1  11   11.19    2.73
  11   1  12    1.10    2.38
  11   1  13    9.31    2.75
  14   0   0   -0.07    2.12
  18   0   7    0.00    2.87
  18   0   8   -6.43    3.31
  18   0   9   -1.99    2.79
  18   0  10    3.49    2.75
  18   0  11    0.12    3.03
  18   0  12   -2.90    2.95
  18   0  13    0.49    3.27
  19  -1  -1    0.18    2.37
  21  -1   2    1.50    2.63
  21  -1   3   -0.88    2.68
   5   1   6    4.50    1.66
   7   1   6   72.88    2.76
   9   1   6   41.63    2.42
   9   1   7   31.11    2.02
   9   1  18    8.00    2.50
  10   0  -2    9.12    1.74
  11   1   8    8.46    2.54
  11   1   9    1.68    2.64
  11   1  14   14.86    2.73
  11   1  15   -0.76    2.61
  11   1  16   -1.52    2.85
  13  -1  -6    8.49    1.47
  15  -1  -5    1.37    1.89
  18   0   5    5.60    3.06
  18   0   6    5.90    2.72
  19  -1  -2   -0.49    2.22
   7   1   5    5.38    1.90
  11   1   7    3.81    2.31
  11   1  17    1.58    2.67
  13   1  10   14.75    2.62
  13   1  12    0.15    2.41
  13   1  13    2.13    2.35
  14   0  -1   35.70    2.69
  16   0   1   16.76    2.95
  21  -1   0   -0.57    2.70
   5   1   5    4.29    1.60
   9   1   5   -1.84    1.96
  11   1   6    5.25    2.36
  11   1  18   -2.58    2.76
  11   1  19   -1.15    2.65
  13   1   8    5.28    2.68
  13   1   9   16.34    2.68
  13   1  14   -1.88    2.59
  13   1  15    4.84    2.84
  13   1  16    8.13    2.61
  16   0   0    3.37    2.62
  18   0   2    1.87    2.41
  19  -1  -3    0.05    2.29
  20   0   7   -1.29    3.08
  20   0   8   -0.69    3.18
  20   0   9   -1.78    3.32
  21  -1  -1   -0.35    2.70
   7   1   4   13.69    1.98
   8   0  -3  506.50    4.15
   9   1   4    6.35    2.02
  10   0  -3    2.66    1.62
  11   1   5   36.43    2.82
  13   1   7   -1.62    2.90
  13   1  17    2.25    3.01
  13   1  18   -1.49    2.76
  15  -1  -6    4.10    1.62
  15   1  11    1.78    2.63
  17  -1  -5    1.52    1.88
  20   0   5   -1.45    3.19
  20   0   6    2.48    2.73
  23  -1   2    1.42    2.64
   5   1   4    5.01    1.42
  11   1   4   15.70    2.47
  12   0  -3    1.56    1.82
  13   1  19   -0.08    2.54
  15   1   8    0.58    2.61
  15   1   9    3.76    2.61
  15   1  10   -2.03    2.62
  15   1  13   -2.41    2.70
  15   1  14    2.74    3.17
  15   1  15    3.39    3.04
  15   1  16   -1.27    2.91
  16   0  -1    3.18    2.46
  18   0   1    1.75    2.26
  19  -1  -4    0.51    2.03
  21  -1  -2    1.62    2.45
  23  -1   1    3.41    2.75
   7   1   3   27.60    2.07
   9   1   3   95.05    3.02
  11   1   3   11.74    2.12
  13   1   4   12.40    2.60
  15   1   6    0.12    2.42
  15   1   7    3.41    2.41
  15   1  17   -0.51    2.95
  21  -1  -3    0.51    2.38
  23  -1   0    2.34    2.58
  14   0  -3    3.95    2.02
  15   1   5   13.93    2.61
  16   0  -2   -2.21    2.29
  17   1   8   -0.29    2.64
  17   1   9    1.14    3.12
  17   1  10   -1.94    3.06
  17   1  11    1.46    3.06
  17   1  12    1.51    3.20
  17   1  14   -1.07    2.89
  20   0   1    2.52    2.90
  23  -1  -1    1.29    2.65
   9   1   2  246.61    4.14
  10   0  -4    1.98    1.56
  12   0  -4   24.26    2.13
  13   1   3    2.15    1.66
  15   1   4   15.76    2.68
  17   1   6    9.24    2.74
  17   1   7    1.02    2.84
  22   0   4    0.39    2.96
  23  -1  -2   -0.36    2.47
   3   1   4   15.70    1.11
   7   1   2    5.58    1.66
  13   1   2    2.26    2.22
  14   0  -4    0.56    2.01
  15   1   3   14.44    3.30
  17   1   5   -2.48    2.66
  18   0  -2   -0.58    2.18
  19   1  10   -1.10    3.33
  19   1  11    3.81    3.25
  20   0   0   10.80    2.69
  22   0   2    1.40    2.85
  22   0   3    2.26    2.55
   9   1   1   -1.22    2.03
  11   1   1    9.69    2.11
  15   1   2    4.62    2.60
  17   1   4    2.88    2.57
  19   1   7   -1.58    3.04
  19   1   8    0.48    3.08
  20   0  -1    0.74    2.54
   5   1   2   76.57    1.96
  13   1   1    1.80    2.07
  16   0  -4    0.22    2.19
  17   1   3    0.77    2.50
  18   0  -3   -0.35    2.33
  19   1   5    0.72    2.90
  19   1   6   -5.00    2.79
  20   0  -2    1.62    2.53
  22   0   0    0.13    2.94
   7   1   1   12.39    1.36
   8   2  14    0.86    2.45
   8   2  15   -1.58    2.45
  10   2  12    2.63    2.64
  10   2  13    1.92    2.09
  11   1   0    3.32    2.08
  12   0  -5    9.07    1.54
  13   1   0   27.44    2.40
  17   1   2    0.98    2.50
  19   1   4    2.21    2.89
   6   2  13    0.18    2.12
   6   2  14   -1.06    2.21
   6   2  15    0.01    2.16
   8   2  12    1.96    2.12
   8   2  16    0.40    2.17
   9   1   0    9.20    1.99
  10   0  -5    4.10    1.52
  10   2  10   -1.30    2.48
  10   2  11    2.66    2.71
  10   2  16    5.00    2.32
  10   2  17    5.96    2.25
  12   2  10   -1.59    2.25
  12   2  11    5.98    2.45
  12   2  12    3.18    2.50
  12   2  13    2.70    2.57
  12   2  14    0.58    2.48
  12   2  15    0.98    2.56
  14   0  -5    1.60    1.84
  18   0  -4    3.40    2.25
  19   1   3   -3.57    2.68
  20   0  -3   -2.77    2.34
  22   0  -1   -0.61    2.70
   6   2  11    1.28    1.79
   6   2  12   11.01    2.14
  10   2   9   20.92    2.82
  12   2  17   -1.18    2.72
  12   2  18    0.31    2.57
  14   2  11   -2.52    2.78
  14   2  12    0.15    2.74
  14   2  13    2.44    2.75
  14   2  14    5.09    2.96
  14   2  15   -1.59    2.95
  14   2  16   -1.15    2.77
  16   0  -5    2.58    2.18
  21   1   4    0.50    2.95
  22   0  -2    1.11    2.66
   6   2  10    9.05    1.89
   7   1   0   25.25    1.90
   8   2   8   15.76    2.24
  10   2   7    2.65    2.08
  11   1  -1    3.01    1.89
  12   2   7    0.67    2.56
  12   2   8    2.06    2.27
  14   2   9    4.55    2.43
  14   2  17   -0.01    2.38
  14   2  18   -0.72    2.50
  15   1  -1    4.10    2.23
  16   2  12   -1.20    3.01
  16   2  13    2.34    3.17
  16   2  14   -1.14    2.92
  16   2  15    0.85    2.52
  17   1   0    8.32    2.47
  19   1   1    7.79    2.79
  20   0  -4    2.31    2.03
   4   2  12    1.50    1.77
   4   2  13    2.57    1.57
   9   1  -1    5.05    1.82
  10   2   6    5.20    2.17
  12   0  -6    2.06    1.60
  12   2   6    6.63    2.73
  14   0  -6    1.48    1.56
  14   2   7    0.12    2.54
  16   2   8    0.12    2.80
  16   2   9    0.83    2.75
  19   1   0    1.85    2.31
  21   1   2   -1.40    2.85
  22   0  -3    0.24    2.56
  24   0  -1    0.75    2.03
   4   2  11    1.17    1.47
  12   2   5   10.38    2.57
  13   1  -2   -0.51    1.99
  15   1  -2    2.44    2.25
  16   2   6    1.50    2.46
  16   2   7   -1.31    2.76
  18   2   9   -1.83    3.07
  18   2  10    0.80    3.00
  20   0  -5    1.13    2.10
  21   1   1   -0.15    2.87
  22   0  -4    3.33    2.57
  24   0  -2   -1.25    2.29
   4   2  10   -0.57    1.52
   6   2   7   40.25    2.52
   8   2   6    0.42    1.79
  10   0  -6    1.57    1.44
  10   2   5   10.27    2.42
  14   2   5   12.43    2.37
  16   2   5    0.98    2.52
  17   1  -2   -0.09    2.42
  18   0  -6   -0.34    2.05
  18   2   7    0.38    3.24
  21   1   0    0.96    2.79
   4   2   9   48.51    2.20
   7   1  -1   39.14    1.90
   8   2   5    0.08    1.93
   9   1  -2    2.14    1.73
  10   2   4    5.68    2.20
  12   2   4    9.45    1.85
  14   2   4    1.63    1.95
  15   1  -3    3.99    2.44
  18   2   5    6.45    2.73
  18   2   6    3.60    3.17
  19   1  -2   -0.19    2.61
  23   1   1    3.92    2.52
   2   2  13    4.63    1.53
   5   1   0    1.77    1.09
  12   2   3   81.85    3.47
  13   1  -3    2.78    1.76
  14   0  -7   13.38    1.73
  14   2   3   -1.48    2.36
  16   2   3   -0.80    2.32
  17   1  -3    1.62    2.46
  18   2   4    1.76    2.81
  20   2   6    1.43    3.13
  21   1  -1   -0.33    2.37
  23   1   0    1.25    2.82
   4   2   8   39.54    2.16
   8   2   4   56.52    2.71
  10   2   3    0.66    2.13
  11   1  -3   74.17    2.61
  12   0  -7   25.14    1.57
  14   2   2    1.04    2.75
  18   2   3    2.30    2.66
  19   1  -3    0.92    2.28
  21   1  -2    1.06    2.64
   2   2  11   31.88    1.79
   6   2   5   22.21    2.18
  13   1  -4    3.23    1.80
  15   1  -4    3.68    2.24
  16   2   2    0.34    2.21
  18   2   2    1.77    2.41
  20   2   4   -1.91    2.71
  23   1  -1    0.43    2.30
   4   2   7  106.29    2.67
   8   2   3    8.48    2.13
  10   2   2    1.68    2.06
  14   2   1   -1.74    2.69
  16   2   1    6.54    2.56
  19   1  -4    0.66    2.22
  20   2   3    2.17    2.45
  21   1  -3   -0.43    2.61
  23   1  -2   -0.71    2.48
   2   2  10    5.84    1.28
  11   1  -4   -0.06    1.82
  11   3  13    2.86    2.50
  11   3  14    2.45    2.19
  11   3  15    1.45    2.52
  11   3  16   -2.64    2.57
  13   3  12   -0.06    2.45
  13   3  13   -0.74    2.77
  13   3  14    0.23    2.70
  13   3  15    0.13    2.68
  13   3  16    0.98    2.33
  14   0  -8    3.35    1.58
  15   3  12    2.55    2.86
  15   3  13    0.17    2.33
  15   3  15   -1.01    2.55
  16   2   0    2.73    2.15
  18   2   1   -1.41    2.39
  21   1  -4    0.18    2.43
  23   1  -3    2.31    2.39
   2   2   9   13.54    1.66
   4   2   6  105.63    2.58
   5   1  -1    7.40    1.00
   8   2   2   45.17    2.39
   9   3  13    0.49    2.41
   9   3  14    1.29    1.97
   9   3  15    0.74    2.07
  11   3  10    6.71    2.45
  11   3  11    1.33    2.50
  11   3  12   -0.25    2.31
  12   2   0   -1.10    2.18
  13   3   9    5.73    2.48
  13   3  10    7.62    2.71
  13   3  11    1.56    2.36
  14   2   0   -0.78    1.83
  15   1  -5    1.59    2.20
  15   3  10   -1.00    2.95
  15   3  11   -0.33    2.60
  17   3  11    1.88    2.91
   9   3  12    1.65    2.27
  11   3   9    0.55    2.14
  13   1  -5    1.56    1.70
  15   3   8    2.03    3.17
  18   2  -1   -0.12    2.62
  20   2   0    4.01    2.95
  21   1  -5   -0.64    2.39
  22   2   1    1.32    2.75
  23   1  -4   -0.64    2.40
   6   2   3    3.84    1.82
   7   3  13    0.16    2.28
   7   3  14    1.30    2.05
   9   3  10    1.45    2.55
  11   3   8    0.29    2.19
  13   3   7    1.63    2.42
  15   3   6    1.19    2.40
  15   3   7    2.49    2.45
  17   1  -6    4.06    2.46
  17   3   7   -1.35    2.82
  20   2  -1   -0.12    2.38
   2   2   8   21.69    1.58
   7   1  -3    3.24    1.40
   7   3  11    0.43    2.15
   9   3   9    3.35    2.22
  11   1  -5    1.24    1.68
  13   3   6   -1.31    2.22
  15   1  -6    3.74    2.06
  15   3   5    7.55    2.71
  16   2  -2    2.92    2.03
  17   3   5    2.72    2.54
  17   3   6    6.02    2.68
  18   2  -2   -1.68    2.34
  19   1  -6    7.83    2.09
  19   3   6    1.51    2.99
  22   2  -1   -1.74    2.64
  23   1  -5    1.11    2.35
   6   2   2  211.18    3.44
   9   3   7   12.32    2.25
  11   3   6    0.32    2.41
  13   1  -6    7.80    1.90
  13   3   5    1.59    2.41
  15   3   4    8.10    2.60
  17   3   4    3.70    2.69
  19   3   5   -2.30    3.00
  20   2  -2   -0.36    2.66
  21   1  -6   -0.02    2.33
   7   3   9    1.19    2.07
  10   2  -1    5.84    1.84
  11   3   5   14.84    2.80
  12   2  -2    3.61    2.13
  13   3   4    3.86    2.36
  16   2  -3    1.70    2.00
  17   1  -7    0.66    2.03
  18   2  -3    0.14    2.39
  19   1  -7    1.40    1.93
  19   3   4   -2.28    3.12
  20   2  -3    0.57    2.61
  22   2  -2   -0.50    2.51
   5   3  12   20.91    2.26
   5   3  13   16.64    1.87
   7   3   8   51.09    2.79
  11   3   4    8.10    2.70
  13   3   3    1.77    2.22
  15   1  -7   -0.65    1.82
  17   3   2   -0.45    2.41
  19   3   3   -1.49    2.65
  22   2  -3    1.83    2.12
   5   3  11    1.08    1.82
   6   2   1  281.27    3.74
   7   3   7   16.78    2.21
   9   1  -5  120.69    2.58
   9   3   5   -0.79    2.13
  10   2  -2    5.66    2.05
  11   1  -6   10.98    1.74
  15   3   2    0.47    2.35
  16   2  -4    3.29    2.17
  18   2  -4    1.26    2.36
  19   3   2   -1.89    2.87
  20   2  -4   -0.38    2.43
   2   2   6   49.68    1.82
   4   2   3    7.13    1.65
   8   2  -1   13.88    2.23
   9   3   4    1.25    2.04
  11   3   3    3.84    2.41
  13   1  -7   67.41    2.50
  13   3   2   -0.40    1.54
  14   2  -4   -2.17    2.29
  15   3   1   -0.78    2.33
  17   1  -8    3.61    2.19
  17   3   1    1.18    2.41
  19   3   1    1.12    2.78
  22   2  -4    3.15    2.43
   0   2  10    2.91    1.14
   5   3   9    3.21    1.78
   7   3   6   24.24    2.27
  13   3   1    1.70    2.14
  14   4  12   -0.86    2.64
  14   4  13    0.41    2.13
  14   4  14   -0.21    2.16
  17   3   0    3.20    2.73
  18   2  -5    3.89    2.18
  19   3   0   -1.93    2.82
  20   2  -5    0.74    2.40
   5   3   8    0.21    1.64
   9   3   3   44.12    2.73
  10   2  -3    3.82    1.92
  12   4  13    0.17    2.39
  12   4  14    0.85    2.42
  14   4  10    1.76    2.67
  14   4  11   -1.43    2.58
  15   3   0    1.96    2.15
  16   2  -5    4.98    2.14
  16   4   9   -0.04    2.64
  22   2  -5    3.89    2.54
   2   2   5   80.56    2.02
   4   2   2    0.96    1.41
   6   2   0   10.89    1.82
  10   4  14    1.41    2.43
  11   1  -7    9.83    1.54
  11   3   1    3.21    2.42
  12   4  10    1.13    2.56
  12   4  11   -0.34    2.31
  13   3   0   11.49    2.34
  14   2  -5    0.41    2.19
  14   4   8    1.64    2.75
  15   3  -1    1.43    2.30
  17   3  -1   12.42    2.44
  18   2  -6    0.49    1.99
  21   3  -1    4.62    2.63
   0   2   9    7.44    1.38
   5   1  -3  231.96    2.44
   8   2  -2   14.50    1.60
   9   1  -6   12.45    1.58
   9   3   2   81.68    3.16
  10   4  12    0.64    2.22
  10   4  13    0.04    2.27
  12   4   9    1.13    2.26
  13   1  -8   26.62    1.94
  16   2  -6   13.20    2.47
  16   4   6   -0.64    2.74
  17   1  -9    0.41    1.61
  19   3  -2    0.64    2.81
  21   3  -2    0.15    2.31
   3   3  11   13.00    1.71
   5   3   6   -0.08    1.94
  10   0  -9   63.70    1.71
  10   4   9    4.10    2.23
  10   4  10   -1.60    2.30
  11   3   0    1.94    2.40
  12   2  -5    5.51    2.01
  12   4   7    1.99    2.48
  13   3  -1    1.71    2.13
  14   4   5    3.75    2.53
  15   1  -9    3.80    1.97
  15   3  -2    0.34    2.32
  16   4   5    2.81    2.54
  18   4   4   -0.93    2.64
   6   2  -1    0.75    1.75
   7   3   3   11.18    2.06
   8   4  12    1.80    2.09
   8   4  13    8.18    2.23
   9   3   1    2.13    2.21
  10   4   8    9.35    2.48
  14   2  -6    0.56    2.09
  14   4   4   -1.70    2.39
  16   4   4    1.18    2.53
  17   3  -3   -1.95    2.80
  18   2  -7    0.44    2.02
  18   4   3   -1.55    2.92
  19   3  -3    0.79    2.33
  21   3  -3   -0.15    2.59
  22   2  -7    0.30    2.22
   0   2   8    0.78    1.23
   4   2   1    3.18    1.52
   5   3   5    1.03    1.77
   8   2  -3  322.99    4.27
   8   4  10   -0.23    2.05
   8   4  11    2.45    2.10
  10   4   7   -0.09    2.42
  11   3  -1    0.77    2.46
  16   2  -7   18.64    2.42
  16   4   3    1.18    2.57
  18   4   2   -0.13    2.93
  19   3  -4    1.40    2.26
  21   3  -4    2.35    2.15
   7   3   2   -0.07    1.98
   8   4   9    2.45    2.31
   9   3   0    4.32    2.25
  10   4   6    1.48    2.22
  11   1  -8   10.01    1.49
  12   2  -6    1.60    1.93
  12   4   4    3.29    2.44
  13   1  -9    1.67    1.70
  14   4   3   -0.14    2.42
  16   4   2   -0.92    2.94
  17   3  -4    1.25    2.33
  18   2  -8   -2.25    2.12
  18   4   1    0.08    2.54
  20   2  -8    0.74    2.28
   8   4   8    2.02    2.19
   9   1  -7   59.20    1.99
  10   2  -5    1.59    1.93
  12   4   3   21.51    2.74
  14   2  -7    6.31    2.23
  14   4   2    1.43    2.66
  16   4   1    1.56    2.88
  19   3  -5    5.88    2.62
  21   3  -5   -0.71    2.42
   0   2   7  114.13    1.98
   6   2  -2    1.83    1.75
   6   4  12    2.15    2.06
   7   3   1    4.25    2.05
   8   4   7   -1.83    2.38
  14   4   1   -1.58    2.73
  17   3  -5   -1.37    2.36
  18   4   0   -1.51    2.58
   3   3   7    6.99    1.64
   4   2   0   -0.52    1.56
   5   1  -4  509.22    3.57
   6   4  10    5.29    2.22
   8   4   6   -1.42    2.32
  11   3  -3   30.61    2.54
  18   2  -9    0.98    1.99
  19   3  -6   -1.07    2.69
  21   3  -6   -0.53    2.44
   3   3   6   33.18    2.26
   7   1  -6   38.06    1.72
   8   4   5    0.74    2.50
  10   2  -6   -1.38    1.66
  10   4   3    0.93    2.13
  12   2  -7   12.78    2.07
  13   5  11    1.89    2.31
  14   2  -8    1.65    1.96
  14   4   0    1.38    2.42
  16   4  -1   -1.20    2.55
  17   3  -6    1.31    2.47
  18   4  -2    1.75    2.55
   6   4   8   14.14    2.31
   7   3   0    9.76    2.03
   9   3  -2    0.17    2.23
  11   1  -9    8.36    1.46
  11   5  12    2.02    2.44
  13   1 -10    5.50    1.45
  13   5   8   -1.04    2.38
  13   5   9    3.23    2.68
  14   4  -1    3.88    2.93
  15   5   6   -1.18    2.58
  16   2  -9    1.37    2.05
  16   4  -2    2.32    2.61
  19   3  -7    0.48    2.66
  21   3  -7   -1.84    2.39
   0   2   6   -0.59    1.18
   1   3  11   -0.62    1.25
   5   3   2   14.23    2.10
   6   2  -3   16.25    1.97
   6   4   7    9.46    2.43
   9   1  -8   -0.17    1.65
  11   3  -4    1.73    2.21
  11   5  10   -0.66    2.60
  11   5  11    1.02    2.55
  12   4   0    1.70    2.15
  13   5   7   -1.77    2.95
  17   3  -7   -0.12    2.32
  18   2 -10    1.04    2.04
   1   3  10   10.93    1.42
   2   2   2   63.75    1.60
   3   3   5    4.20    1.74
   4   2  -1   44.54    2.04
   6   4   6   -0.28    2.21
   9   3  -3    6.15    2.34
  10   4   1    0.77    2.11
  11   5   8    0.33    2.72
  11   5   9    1.24    2.42
  12   2  -8   17.83    2.25
  12   4  -1   -0.50    2.49
  13   5   6    1.92    2.97
  14   2  -9    3.95    1.97
  14   4  -2   19.68    2.87
  15   5   4    0.88    2.80
  16   4  -3    0.73    2.62
  18   4  -4    1.33    2.63
  19   3  -8    0.24    2.59
  21   3  -8   -0.22    2.32
   4   4  10    1.17    2.02
   4   4  11   -0.41    2.01
   9   5  11    2.52    2.54
  10   2  -7   37.71    2.22
  10   4   0    5.33    2.21
  11   5   7    0.44    2.79
  13   3  -6    3.67    2.44
  13   5   5   -0.74    2.64
  14   4  -3    1.61    2.38
  15   3  -7    1.79    2.06
  15   5   3   -0.57    2.91
  16   2 -10    1.18    1.97
   3   3   4    9.12    1.98
   4   4   9    8.81    2.23
   6   4   5    3.86    2.32
   8   4   2   10.04    2.85
   9   5   9   -0.18    2.52
   9   5  10    2.52    2.45
  11   5   6   -1.54    2.84
  12   4  -2    1.80    2.34
  13   5   3    3.69    2.57
  15   5   2   -1.31    3.06
  18   4  -5    0.82    2.84
  21   3  -9   -1.33    2.39
   0   2   5   87.53    1.79
   1   3   8   12.86    1.73
   4   4   8    7.36    2.40
   6   2  -4  122.82    2.92
   6   4   4    2.03    2.25
   7   1  -7   15.21    1.48
   7   3  -2   11.27    2.25
   8   2  -6    8.82    2.20
   8   4   1    4.88    2.56
   9   5   8   -1.27    2.49
  10   4  -1   -0.07    2.35
  11   1 -10   14.50    1.77
  11   5   5    3.62    2.46
  14   4  -4   -0.96    2.62
  15   3  -8   -1.46    2.45
  15   5   1   -2.55    3.00
  19   3  -9   -1.56    2.63
   2   2   1   35.45    1.69
   4   2  -2   37.00    2.01
   5   3   0    2.58    2.09
   9   5   6   -0.63    2.76
   9   5   7    0.61    2.65
  12   2  -9    4.31    2.08
  12   4  -3   -0.22    2.44
  13   5   2    1.18    2.65
  14   2 -10    0.03    1.98
  15   5   0   -3.77    3.11
  16   2 -11   -0.93    2.35
  18   4  -6   -0.22    2.91
   4   4   7   27.65    2.59
   7   5  10    1.34    2.27
   7   5  11    0.96    2.25
   8   4   0    2.07    2.82
   9   1  -9   11.05    1.75
   9   5   5   -2.13    2.84
  10   4  -2    0.23    2.42
  13   5   1    3.01    3.02
  16   4  -6    2.41    2.57
  19   3 -10    2.00    2.48
   4   4   6   29.90    2.60
   7   3  -3   -1.31    1.98
   7   5   8    6.85    2.83
   7   5   9   -0.82    2.41
   9   3  -5   36.09    2.76
  11   5   2   -1.26    2.82
  12   4  -4    3.66    2.62
  13   3  -8   11.29    2.71
  13   5   0    1.98    3.18
  15   3  -9   -0.67    2.30
  15   5  -1   -2.37    2.75
  18   4  -7   -1.60    2.94
   0   2   4   40.57    1.48
   1   3   6   63.28    2.76
   4   4   5    9.94    2.74
   5   3  -1    1.07    2.05
   7   5   7    2.56    2.68
   8   2  -7    1.39    1.88
   9   5   4    3.17    2.54
  10   4  -3    1.59    2.35
  11   3  -7    3.25    2.45
  11   5   1    1.06    2.99
  13   5  -1    0.47    2.90
  14   2 -11   -0.03    2.17
  15   5  -2    1.50    3.18
  16   4  -7    8.24    2.59
  17   3 -10    1.10    2.30
   2   2   0    5.71    1.54
   7   3  -4    0.49    2.07
   7   5   6    5.82    2.78
  12   2 -10   -1.09    2.03
  12   4  -5    1.59    2.72
  15   5  -3    0.75    2.86
  18   4  -8    3.24    2.76
   2   4  10    3.77    1.92
   3   3   1  274.87    4.39
   4   2  -3    0.92    1.27
   4   4   4    7.96    2.61
   5   1  -6   -0.04    1.28
   8   4  -2    2.60    3.01
  10   4  -4   -0.28    2.41
  11   1 -11    0.02    1.30
  11   5   0    2.05    2.79
  13   3  -9    2.21    2.64
  13   5  -2   -2.21    3.50
  16   4  -8   -1.54    2.97
  17   3 -11   -0.13    2.46
   1   3   5  176.38    3.47
   2   4   9    1.90    2.05
   5   3  -2   22.17    1.96
   5   5  10    1.50    2.54
   6   4   0   -0.91    2.70
   7   5   4   -0.26    2.61
   9   5   1   -1.34    2.76
  10   6   9    1.37    2.40
  11   3  -8    4.20    2.66
  11   5  -1   -1.34    3.39
  15   5  -4    1.19    3.26
  18   4  -9   -0.43    3.01
 -10   0 -13    0.09    1.37
  -9   1 -20   -1.05    2.26
  -8   0 -14    0.42    2.26
  -6   0 -14   -1.19    2.08
  -3   1 -20   -1.64    2.76
  -2   2 -24    1.88    3.40
   0   0 -10    1.89    1.28
   1   1 -19    5.28    2.58
   2   2 -23    0.53    3.20
   3   1 -17    0.69    2.79
   6   2 -20    1.85    2.85
   7   1  -9   97.58    2.46
   7   3 -23    2.08    3.13
   9   3 -21   -0.41    3.29
  10   2 -13    1.55    1.93
 -10   0 -14   -0.51    1.77
  -7   1 -21   -0.77    2.42
  -5   1 -21   -0.21    2.32
  -2   0 -13    8.66    1.65
  -1   1 -20    3.74    2.68
   0   0 -11   47.05    2.54
   0   2 -24   -1.69    3.20
   3   1 -18    0.25    2.63
   4   2 -22   -2.02    2.98
   7   1 -11   50.23    2.44
   8   2 -18    6.02    2.57
  -9   1 -21   -0.32    2.24
  -8   0 -15   -1.90    2.09
  -6   0 -15    1.36    2.28
  -4   0 -15    7.50    2.21
  -2   0 -14    4.45    2.21
   0   0 -12   43.36    2.43
   1   1 -20   -1.46    2.60
   2   2 -24    4.20    3.43
   4   2 -23   -0.16    3.59
   6   2 -21    2.11    2.74
   7   1 -12   -1.80    1.94
   7   3 -24   -1.37    3.35
   9   3 -22    0.27    3.05
  10   2 -15    8.73    2.21
 -10   0 -15   -0.23    1.72
  -8   0 -16    0.57    2.32
  -7   1 -22   -1.49    2.51
  -6   0 -16   -0.69    2.35
  -5   1 -22   -0.39    2.47
  -4   0 -16   13.21    2.58
  -2   0 -15    0.71    2.25
   0   0 -13   13.22    2.35
   2   0  -9   32.06    2.14
   2   0  -8  113.64    2.47
   2   0  -7    4.45    0.90
   2   0  -6   56.49    1.46
   3   1 -19   -1.10    2.58
   6   2 -22   -1.92    3.36
   7   1 -13    0.10    1.96
   9   3 -23    2.89    3.04
  10   2 -16    6.93    2.70
  -9   1 -22    0.44    2.29
  -5   1 -23    1.97    2.62
  -2   0 -16    3.74    2.33
   0   0 -14   -1.08    2.26
   1   1 -21   -0.54    2.76
   2   0 -11    7.90    2.22
   2   0 -10   21.26    2.18
   4   2 -24   -0.35    3.79
   7   1 -14    3.71    2.34
   8   2 -20    4.40    2.66
  10   2 -17   -2.43    2.68
 -10   0 -16    1.33    1.72
  -8   0 -17    1.15    1.84
  -7   1 -23   -1.09    2.42
  -6   0 -17    8.80    2.58
  -4   0 -17    1.70    2.66
  -1   1 -23    1.74    2.91
   0   0 -15    5.41    2.50
   1   1 -22    3.32    3.12
   2   0 -12    4.92    2.26
   3   1 -21    3.20    2.74
   4   2 -25    0.93    3.06
   5   1 -19    6.31    2.81
   6   2 -23    0.05    3.07
   7   1 -15   -0.11    2.48
   8   2 -21   -0.53    3.00
   9   3 -24   -0.26    2.93
 -10   0 -17    0.35    1.66
  -9   1 -23    0.88    1.97
  -8   0 -18   -0.25    1.85
  -5   1 -24    0.18    2.59
  -4   0 -18    3.39    2.42
   6   2 -24    0.65    3.52
   7   1 -16   17.71    2.67
   8   2 -22   -1.32    2.86
  10   2 -18   -0.46    2.49
  -6   0 -19    2.86    2.25
  -4   0 -19   -0.35    2.78
  -2   0 -18   11.27    2.64
  -1   1 -24    1.93    3.53
   0   0 -17    4.05    3.12
   2   0 -14    4.69    2.16
   3   1 -22    2.09    3.07
   5   1 -20    7.44    2.88
   7   1 -17   12.30    2.94
  10   2 -19    0.11    2.54
  -8   0 -19    0.06    1.79
  -2   0 -19    6.71    2.66
  -1   1 -25    0.79    2.97
   0   0 -18    0.75    2.75
   1   1 -24    1.56    3.36
   2   0 -16   -1.37    2.34
   2   0 -15    1.31    1.72
   3   1 -23    4.34    3.30
   5   1 -21    3.46    3.06
   6   2 -25   -2.39    3.10
   7   1 -18   -0.40    2.77
   8   2 -23    1.21    3.33
  10   2 -20    2.88    2.58
  -8   0 -20    0.15    1.96
  -6   0 -20    0.57    2.50
  -4   0 -20    1.11    2.69
   1   1 -25   -0.71    3.11
   2   0 -17   -2.90    2.57
   4   0 -12   32.71    2.54
   4   0  -9   15.55    1.89
   7   1 -19   -0.63    2.37
   8   2 -24   -1.69    3.08
   9   1 -13   11.35    2.10
   9   1 -12    6.07    1.80
   9   1 -11    1.80    1.62
   9   1 -10   11.28    1.56
   9   1  -9   15.37    1.71
  10   2 -21   -0.42    2.92
  -6   0 -21   -1.27    2.51
   4   0 -14    1.39    2.15
   5   1 -23    3.66    2.79
   7   1 -20   -0.43    2.72
   9   1 -15    3.06    2.40
  10   2 -22    0.40    3.03
  -8   0 -21   -0.04    2.18
  -6   0 -22    0.29    2.34
  -4   0 -22    0.56    2.63
   2   0 -19    2.67    2.48
   3   1 -25   -2.74    3.26
   4   0 -16    4.74    2.29
   4   0 -15    1.75    2.46
   7   1 -21    2.58    2.90
   9   1 -16    7.07    2.59
  10   2 -23    1.26    2.70
  -8   0 -22    1.09    2.15
   0   0 -21    3.00    2.77
   2   0 -20   10.71    2.70
   4   0 -17   37.59    3.09
   5   1 -24    0.24    2.92
   7   1 -22    1.32    2.98
   9   1 -18   -1.79    2.64
  10   2 -24    0.25    2.91
  -8   0 -23    0.32    2.15
  -6   0 -23   -0.14    2.34
  -4   0 -23    4.32    3.01
   0   0 -22    1.23    2.93
   2   0 -21   -0.88    2.66
   4   0 -18    1.98    3.07
   5   1 -25    1.20    3.14
   7   1 -23    4.01    3.19
   9   1 -19    6.66    2.62
  -7  -1 -12    2.42    1.81
  -7  -1 -11    1.37    1.45
  -7  -1 -10   12.47    1.53
  -7  -1  -9    0.54    1.45
  -6   0 -24    0.72    2.25
  -5  -1 -12   66.45    2.60
  -5  -1 -11    0.53    1.60
  -4   0 -24    0.17    3.01
   0   0 -23    5.09    2.99
   2   0 -22    6.18    2.68
   4   0 -19    5.64    2.52
   7   1 -24    2.60    2.94
   9   1 -20   -1.52    2.50
  10   2 -25    2.15    2.86
  -9  -1 -12    4.64    1.86
  -9  -1 -11    9.24    1.51
  -9  -1  -9   17.46    1.47
  -9  -1  -8    0.20    1.20
  -8   0 -24    0.06    2.04
  -7  -1 -14   -0.77    1.96
  -7  -1 -13    0.52    1.87
  -7  -1  -8  164.98    2.53
  -5  -1 -14   17.23    2.20
  -5  -1  -9   14.09    1.69
  -5  -1  -8    2.52    1.42
  -4   0 -25    1.15    2.61
  -3  -1 -12   -1.47    1.90
  -3  -1 -11   36.91    2.39
   0   0 -24    1.77    3.07
   2   0 -23    1.17    2.83
   7   1 -25    2.18    3.12
   9   1 -21    8.54    2.67
  -9  -1 -14   -1.47    1.83
  -9  -1 -13    1.79    1.67
  -9  -1  -7   30.64    1.46
  -7  -1 -16    5.04    2.29
  -7  -1  -7   29.82    1.54
  -5  -1 -16    4.06    2.21
  -5  -1 -15    3.95    2.17
  -5  -1  -7   29.77    1.72
  -3  -1 -15   -1.13    2.02
  -3  -1 -14    5.90    2.04
  -3  -1 -13    5.23    1.82
  -3  -1 -10   35.86    2.15
  -3  -1  -9    1.55    1.52
   0   0 -25    0.67    2.73
   4   0 -22    1.81    2.56
   4   0 -21    7.80    2.63
   6   0 -18    1.70    2.67
   9   1 -23   -1.18    2.98
   9   1 -22   -1.59    2.48
  11   1 -15    0.03    2.06
  11   1 -14    1.11    2.07
  -9  -1 -16    2.60    2.14
  -9  -1 -15   -0.62    2.00
  -7  -1  -6   76.89    1.79
  -5  -1 -17    2.81    2.27
  -3  -1 -17   18.18    2.63
  -3  -1 -16   10.96    2.52
  -3  -1  -8   88.91    2.21
  -1  -1 -14   10.23    1.96
  -1  -1 -12    0.52    1.86
   2   0 -24    2.05    2.67
   4   0 -23   -1.69    2.74
   6   0 -19   -0.10    2.26
   9   1 -24    3.31    3.01
  11   1 -18    7.48    2.38
  11   1 -17    1.84    2.22
  11   1 -13    4.35    1.76
  11   1 -12    7.36    1.56
  -9  -1 -17    0.09    1.92
  -7  -1 -18    0.74    2.04
  -5  -1 -19    7.89    2.47
  -5  -1 -18    2.70    2.12
  -5  -1  -6    5.06    1.03
  -3  -1 -18    2.03    2.17
  -1  -1 -16   -0.42    2.37
  -1  -1 -15    6.31    2.08
  -1  -1 -11    1.17    1.72
  -1  -1 -10   53.78    2.21
   2   0 -25    0.91    3.02
   4   0 -24    2.12    2.69
   6   0 -21    0.47    2.54
  11   1 -20   -1.44    2.14
  11   1 -11    0.39    1.29
  -5  -1 -20   -0.30    2.20
  -3  -1 -19   -0.58    2.27
  -1  -1 -18   -0.75    2.52
  -1  -1 -17    0.69    2.34
  -1  -1  -9   37.23    1.93
   4   0 -25   -0.69    2.77
   6   0 -22    5.25    2.82
  11   1 -21    3.32    2.43
  -7  -1 -20    1.70    2.33
  -5  -1 -21   -1.42    2.38
  -3  -1 -21   -0.64    2.30
  -3  -1 -20    2.82    2.12
  -1  -1  -8   29.07    1.71
   1  -1 -17    1.65    2.40
   1  -1 -16    6.42    2.39
   1  -1 -15    0.12    2.07
   1  -1 -14    5.92    1.89
   1  -1 -13   26.98    2.31
   1  -1 -12    3.40    1.96
   4   0 -26   -0.08    2.81
   6   0 -23    1.62    2.87
   8   0 -19    0.98    2.23
   8   0 -18    9.42    2.55
   8   0 -17   -2.35    2.62
   8   0 -16    1.62    2.10
   8   0 -15   -0.57    1.93
   8   0 -14   -0.78    1.92
   8   0 -13    1.83    1.77
  11   1 -23   -1.50    2.33
  11   1 -22    1.76    2.20
  -7  -1 -21    1.20    2.40
  -5  -1 -22    0.45    2.67
  -3  -1 -22    1.84    2.69
   1  -1 -19    3.21    2.31
   1  -1 -18   37.76    2.67
   1  -1 -11  196.27    3.25
   1  -1 -10   62.83    2.27
   6   0 -24   -0.01    2.57
   8   0 -21   -0.14    2.26
   8   0 -20   10.51    2.60
   8   0 -12   17.41    1.88
   8   0 -11    6.09    1.82
  11   1 -24   -1.68    2.73
  -7  -1 -22    0.67    2.04
  -5  -1 -23    0.82    2.67
  -3  -1 -23   -0.37    2.78
  -1  -1  -7  124.06    2.15
   1  -1 -20   -1.35    2.15
   1  -1  -9   18.59    1.57
   3  -1 -16   18.58    2.31
   3  -1 -15   68.42    3.01
   6   0 -26    0.35    2.63
   6   0 -25   -0.38    2.77
   8   0 -22   -0.05    2.84
  11   1 -25   -1.81    2.69
  -7  -1 -23    0.13    1.95
  -5  -1 -24   -0.72    2.46
  -3  -1 -24   -0.61    2.59
   1  -1 -22    1.03    2.64
   3  -1 -19    0.35    2.29
   3  -1 -18    1.21    2.07
   3  -1 -17   -0.83    1.79
   3  -1 -14    0.43    1.42
   3  -1 -13   28.57    2.22
   3  -1 -12   11.43    1.79
   6   0  -6   31.91    1.18
   8   0 -24    3.42    2.54
   8   0 -23   -2.06    2.70
  11   1  -8   10.59    1.31
  -7  -1 -24   -0.80    1.67
  -3  -1 -25    1.41    2.57
  -1  -1 -25    0.31    2.55
  -1  -1  -6  176.32    2.14
   1  -1 -24   -1.80    2.96
   1  -1 -23    4.70    2.68
   1  -1  -8   24.79    1.58
   3  -1 -21    1.42    2.67
   3  -1 -20    2.83    2.17
   3  -1 -11    0.60    1.87
   8   0 -25   -1.14    2.89
   8   0  -9   13.33    1.71
   1  -1 -25    1.48    2.44
   3  -1 -23    2.58    2.78
   3  -1 -22    2.48    2.36
   3  -1 -10   42.28    2.06
   5  -1 -18    3.13    1.94
   5  -1 -17    0.90    2.12
   5  -1 -16    0.45    2.07
  10   0 -21   -0.74    2.32
  10   0 -20   -0.08    2.28
  10   0 -19    1.16    2.06
  10   0 -18    0.00    1.89
  10   0 -17    2.53    2.06
  10   0 -16   10.44    2.07
  10   0 -15   13.23    2.24
   1  -1  -7  143.84    2.25
   5  -1 -21   -1.46    2.46
   5  -1 -20    8.01    2.35
   5  -1 -19    4.58    2.14
   5  -1 -15   -1.45    1.89
   5  -1 -14    9.53    2.01
  10   0 -23    5.07    2.62
  10   0 -22    0.92    2.12
  10   0 -14    8.10    1.96
  10   0 -13   -0.22    1.75
   3  -1 -25   -1.97    2.53
   3  -1  -9   24.84    1.73
   5  -1 -23    1.26    2.68
   5  -1 -22    0.42    2.47
   5  -1 -13    5.15    1.85
  10   0 -25    1.43    2.62
  10   0 -24   -2.56    2.49
  10   0 -12   12.62    1.75
   5  -1 -25    1.66    2.38
   5  -1 -12   25.70    1.60
   3  -1  -8    4.65    1.36
   5  -1 -11   11.94    1.75
   7  -1 -22    0.80    2.29
   7  -1 -21   -0.30    2.35
   7  -1 -20    0.35    2.21
   7  -1 -19   -0.08    2.18
   7  -1 -18    1.72    1.96
   7  -1 -17   10.09    2.55
  10   0 -11   20.38    1.58
  12   0 -20    6.29    2.31
  12   0 -19    4.49    2.06
  -6  -2 -19    0.12    1.84
  -6  -2 -18    5.22    1.80
  -6  -2 -16   -1.41    1.81
  -6  -2 -15   -1.23    1.88
  -4  -2 -20    0.27    2.06
  -4  -2 -19   -1.46    2.04
  -4  -2 -18    0.58    1.88
  -4  -2 -17    0.60    1.71
  -4  -2 -16    6.44    2.14
   1  -1  -6  161.74    1.93
   7  -1 -24    1.12    2.55
   7  -1 -23    3.72    2.61
   8   0  -7    7.67    1.13
  12   0 -23   -1.97    2.31
  12   0 -21    0.19    1.84
  12   0 -18   -0.83    1.85
  12   0 -17    2.23    1.89
  12   0 -16   -1.99    2.01
  -8  -2 -15    0.24    1.70
  -8  -2 -14    0.36    1.80
  -6  -2 -21   -0.48    2.25
  -6  -2 -20    0.14    2.09
  -6  -2 -14   -0.23    1.54
  -6  -2 -13    1.43    1.53
  -4  -2 -22    0.00    2.05
  -4  -2 -21    3.95    2.32
  -4  -2 -14   12.81    1.94
  -2  -2 -21    0.99    2.13
  -2  -2 -20    1.65    1.98
  -2  -2 -16    2.28    1.98
  -2  -2 -15    1.49    1.94
  -2  -2 -14    1.47    1.65
   7  -1 -25    2.07    2.27
  10   0 -10    2.28    1.17
  12   0 -25   -1.40    2.19
  12   0 -15    4.06    1.76
  -8  -2 -13   43.54    1.99
  -6  -2 -23   -1.34    2.06
  -6  -2 -22   -0.74    2.07
  -6  -2 -12    9.17    1.56
  -4  -2 -24    0.98    2.24
  -4  -2 -23    1.25    2.28
  -4  -2 -12    2.73    1.47
  -2  -2 -22    0.99    2.08
   0  -2 -15    4.60    1.94
   3  -1  -7    9.38    1.24
   9  -1 -22   -1.83    2.15
   9  -1 -21    4.86    2.32
   9  -1 -20   -0.09    2.07
   9  -1 -19    7.98    1.98
  12   0 -14    8.51    1.68
  -8  -2 -12   -0.63    1.27
  -6  -2 -24   -0.15    1.94
  -6  -2 -11    0.10    1.28
  -4  -2 -11    1.79    1.26
  -2  -2 -24    2.22    2.08
  -2  -2 -12   94.67    2.58
   0  -2 -24   -1.40    2.55
   0  -2 -14    2.57    1.63
   2  -2 -22    3.39    2.17
   2  -2 -21    3.69    2.18
   2  -2 -20    7.04    2.38
   2  -2 -19   -0.44    1.96
   2  -2 -18    0.82    1.91
   2  -2 -17   -1.96    1.87
   9  -1 -25    1.62    2.13
   9  -1 -24    1.83    2.51
   9  -1 -23    0.31    2.17
   9  -1 -18    1.48    1.75
   9  -1 -17    3.37    1.96
   9  -1 -16   12.99    1.98
  12   0 -13   43.55    2.23
  -8  -2 -11    5.71    1.22
  -2  -2 -11   31.69    1.80
   0  -2 -13    8.05    1.61
   1  -1  -5   20.70    0.94
   2  -2 -24   -2.02    2.62
   2  -2 -23   -0.85    2.40
   2  -2 -16    1.66    1.87
   2  -2 -15   -1.21    1.93
   8   0  -6    8.65    1.10
   9  -1 -15    3.22    1.89
  14   0 -23   -0.76    2.07
  14   0 -22    1.35    1.94
  -8  -2 -10    0.36    1.13
  -6  -2 -10    9.79    1.22
  -4  -2 -10   -0.27    1.29
   0  -2 -12   28.45    1.91
   4  -2 -23   -2.46    2.44
   4  -2 -22    2.83    2.42
   4  -2 -21    3.92    2.41
   4  -2 -20    0.05    2.13
   4  -2 -19    2.22    2.07
   4  -2 -18    1.84    2.02
   4  -2 -17   20.04    2.07
   5  -1  -8    7.76    1.36
   9  -1 -14   57.07    2.57
  12   0 -12    5.45    1.33
  14   0 -24   -1.61    2.06
  14   0 -20    1.25    1.76
  14   0 -19   -0.73    1.70
   0  -2 -11   31.61    1.89
   2  -2 -13   29.89    2.12
   3  -1  -6  214.86    2.24
   4  -2 -25   -0.49    2.56
   4  -2 -24    2.64    2.39
   4  -2 -16    1.06    2.28
   9  -1 -13    9.10    1.77
  11  -1 -24    0.88    2.31
  11  -1 -23   -1.01    2.32
  11  -1 -22    0.64    2.26
  11  -1 -21    3.71    2.16
  11  -1 -20    0.29    1.95
  11  -1 -19    1.58    2.24
  -6  -2  -9    1.36    1.05
  -4  -2  -9   49.27    1.80
   2  -2 -12    7.10    1.65
   4  -2 -15    3.06    1.84
   6  -2 -24    0.57    2.62
   6  -2 -22    1.53    2.49
   6  -2 -21    1.21    2.17
   6  -2 -20    4.23    2.15
   6  -2 -19    1.00    1.84
  11  -1 -18    9.78    1.97
  11  -1 -17    1.38    2.00
  12   0 -11    2.77    1.37
  -8  -2  -9   10.66    1.08
  -2  -2  -9   14.31    1.52
   4  -2 -14   -0.43    1.31
   6  -2 -18   -0.67    1.85
   6  -2 -17    0.12    1.62
   9  -1 -12    7.67    1.56
  11  -1 -16    2.77    1.96
  -6  -2  -8   55.50    1.50
   2  -2 -11    4.16    1.17
   4  -2 -13    2.81    1.53
   6  -2 -16    1.42    2.20
  11  -1 -15    2.88    1.69
  -8  -2  -8   15.13    1.15
  -2  -2  -8   19.66    1.45
   0  -2  -9    9.48    1.50
   2  -2 -10   10.49    1.55
   3  -1  -5   50.09    1.19
   4  -2 -12   18.85    1.85
   6  -2 -15   58.96    2.74
   8  -2 -24   -0.50    2.47
   8  -2 -23   -1.00    2.52
   8  -2 -22   -2.38    1.98
   8  -2 -21   -0.44    2.22
   8  -2 -20    8.59    2.23
   8  -2 -19    4.06    1.88
   9  -1 -11    1.51    1.36
  11  -1 -14    1.77    1.84
  12   0 -10   -0.09    0.95
  13  -1 -24   -0.25    2.10
  13  -1 -23    0.49    2.13
  13  -1 -22    4.68    2.09
  13  -1 -21   -0.20    2.11
   6  -2 -14   11.73    1.96
   8  -2 -18    3.73    1.94
   8  -2 -17    2.29    1.68
  13  -1 -20    1.52    1.68
  13  -1 -19   -0.52    1.86
  -6  -2  -7   38.90    1.38
  -5  -3 -23    2.77    1.74
  -5  -3 -22    1.59    1.77
  -5  -3 -21   -0.30    1.95
  -5  -3 -20    0.58    1.92
  -5  -3 -19    3.68    1.87
  -5  -3 -18    2.14    1.65
  -3  -3 -23    1.20    2.05
  -3  -3 -22   -0.49    1.86
  -3  -3 -21    1.55    1.80
  -3  -3 -20    1.00    1.75
  -3  -3 -19   -0.50    1.84
  -3  -3 -18    0.57    1.83
  -3  -3 -17    4.65    1.93
  -1  -3 -23   -0.37    2.10
  -1  -3 -22   -0.41    2.21
  -1  -3 -21    2.38    2.16
  -1  -3 -20    4.93    2.08
  -1  -3 -19    2.40    1.86
  -1  -3 -18   -0.78    1.74
   0  -2  -8   -0.11    1.16
   4  -2 -11   11.94    1.60
   5  -1  -6   -1.39    1.01
   6  -2 -13    5.66    1.69
   8  -2 -16   -0.08    1.82
  11  -1 -13    5.06    1.64
  -5  -3 -17    0.71    1.56
  -3  -3 -16    5.52    1.65
  -2  -2  -7    0.24    1.27
  -1  -3 -17   -0.35    1.77
   1  -3 -23   -0.10    2.03
   2  -2  -9   18.85    1.65
   8  -2 -15   -0.38    2.16
  10  -2 -24    1.53    1.98
  10  -2 -23    1.75    2.11
  10  -2 -22    0.80    2.03
  10  -2 -21   -0.83    2.16
  10  -2 -20    1.46    2.07
  12   0  -9   11.26    1.12
  13  -1 -17    1.73    1.57
  -8  -2  -7    0.79    0.79
  -5  -3 -15    1.32    1.60
  -3  -3 -15    1.19    1.76
  -1  -3 -16    1.54    1.56
  -1  -3 -15   -0.33    1.73
   3  -3 -23    2.65    2.07
   3  -3 -22    1.10    1.97
   3  -3 -21    2.62    2.17
   3  -3 -20    1.96    2.22
   3  -3 -19    0.56    1.90
   4  -2 -10  188.50    3.06
   6  -2 -12    5.57    1.19
  10  -2 -19   -2.33    1.92
  10  -2 -18   -0.46    1.78
  11  -1 -12    5.24    1.61
  13  -1 -16   -1.01    1.71
  15  -1 -23    0.89    1.65
  -5  -3 -14    5.98    1.59
  -3  -3 -14   -0.38    1.61
  -1  -3 -14    4.26    1.80
   2  -2  -8   72.63    2.02
   3  -3 -18    0.56    1.87
   3  -3 -17    0.59    1.70
   5  -3 -23    2.41    2.34
   5  -3 -22   -2.15    2.27
   5  -3 -21   -0.46    2.08
   6  -2 -11   10.95    1.50
   7  -1  -7   15.12    1.25
   9  -1  -9   11.25    1.47
  15  -1 -21   -0.13    1.81
  15  -1 -20    1.49    2.07
  -7  -3 -14   -0.42    1.56
  -6  -2  -6   -0.89    1.16
  -5  -3 -13   17.26    1.73
  -4  -2  -6  101.40    1.79
  -3  -3 -13    2.27    1.56
   0  -2  -7  111.62    2.17
   3  -3 -16    9.38    1.88
   4  -2  -9   10.99    1.59
   5  -3 -20    1.13    2.24
   5  -3 -19    2.94    2.03
  10  -2 -16    5.34    1.72
  11  -1 -11    0.36    1.35
  12  -2 -23    0.19    2.14
  12  -2 -22   -1.45    2.36
  12  -2 -21    1.68    2.21
  15  -1 -19    0.93    1.78
  -7  -3 -13   -0.29    1.49
  -3  -3 -12    0.65    1.61
  -1  -3 -13   16.76    1.79
   1  -3 -14   -1.04    1.88
   3  -3 -15   28.24    2.10
   5  -3 -18    3.75    1.96
   5  -3 -17    0.86    1.72
   7  -3 -23    2.01    2.50
   7  -3 -22    0.62    2.33
  10  -2 -15    6.26    2.04
  12  -2 -20    1.30    2.15
  15  -1 -18    1.41    1.56
  -8  -2  -6   -0.32    0.91
  -7  -3 -12    1.62    1.44
  -5  -3 -12   24.80    1.71
  -1  -3 -12   -0.72    1.61
   1  -3 -13    7.95    2.01
   3  -3 -14    1.00    1.96
   5  -3 -16    0.37    1.85
   5  -1  -5   89.84    1.44
   6  -2 -10    0.92    1.37
   7  -3 -21   -2.25    2.05
   7  -3 -20    2.46    2.26
   7  -3 -19   -1.20    1.92
   9  -1  -8    0.88    1.25
  12  -2 -19    0.52    1.84
  12  -2 -18    0.20    1.73
  13  -1 -13    1.64    1.58
  -5  -3 -11    0.82    1.45
   1  -3 -12    1.63    1.50
   2  -2  -7    3.17    1.22
   4  -2  -8   62.14    2.06
   5  -3 -15   -0.62    1.66
   7  -3 -18    1.49    2.15
  10  -2 -14    5.33    1.97
  11  -1 -10   17.59    1.46
  12  -2 -17   -0.68    1.84
  -7  -3 -11    0.34    1.29
  -1  -3 -11   -0.53    1.50
   0  -2  -6   -0.42    0.78
   3  -3 -13    8.64    2.01
   6  -2  -9   14.54    1.52
   7  -3 -17    3.79    1.94
   9  -3 -22   -1.38    2.10
   9  -3 -21    2.48    2.34
  10  -2 -13    1.65    1.78
  12  -2 -16    1.03    1.86
  13  -1 -12    5.64    1.60
  14  -2 -22   -0.15    2.04
  14  -2 -21   -0.52    2.03
  -5  -3 -10   11.35    1.47
  -4  -2  -5   57.04    1.41
  -3  -3 -10   13.05    1.54
   1  -3 -11   76.01    2.49
   3  -3 -12    3.32    1.84
   7  -3 -16    5.33    1.95
   9  -3 -20   -0.76    1.88
   9  -3 -19    2.59    2.12
  14  -2 -20   -0.35    2.12
  -4  -4 -21   -1.20    1.76
  -4  -4 -20    0.57    1.91
  -2  -4 -21   -0.43    1.99
  -2  -4 -20    1.50    1.99
  -1  -3 -10   11.45    1.61
   0  -4 -21    0.04    1.95
   0  -4 -20   -0.80    1.82
   4  -2  -7   25.15    1.56
   5  -3 -13    1.09    1.95
   7  -3 -15    0.74    1.80
   9  -3 -18    1.55    1.94
   9  -1  -7   58.89    1.75
  10  -2 -12    5.25    1.73
  11  -3 -22   -2.25    2.30
  11  -1  -9    9.85    1.27
  12  -2 -15    2.20    1.69
  14  -2 -19   -2.89    2.15
  -7  -3 -10    5.37    1.18
  -4  -4 -19   -0.32    1.84
  -4  -4 -18    1.28    1.87
  -2  -4 -19    1.64    1.78
  -2  -4 -18    2.99    1.98
   0  -4 -19    1.33    2.13
   0  -4 -18    0.28    2.02
   2  -4 -21   -0.27    1.92
   2  -2  -6   24.02    1.15
   3  -3 -11    1.80    1.58
   6  -2  -8   31.41    1.76
   7  -3 -14    3.15    1.64
   9  -3 -17    1.04    2.00
  11  -3 -21    0.00    2.18
  12  -2 -14    6.82    1.75
  12   0  -7   25.72    1.18
  13  -1 -11   -0.22    1.29
  14  -2 -18    1.88    1.96
  -8  -2  -5    0.49    0.78
  -5  -3  -9    3.17    1.22
  -4  -4 -17    1.40    1.74
  -3  -3  -9   -1.02    1.28
  -2  -4 -17    4.13    1.82
  -1  -3  -9    9.94    1.50
   0  -4 -17    1.37    1.89
   0  -2  -5   88.61    1.73
   4  -4 -21    2.94    2.27
   4  -4 -20    3.00    2.24
   5  -3 -12    9.23    1.91
   5  -1  -4  508.63    2.98
   9  -3 -16    4.35    1.88
  10  -2 -11   12.39    1.62
  11  -3 -20    1.15    1.97
  11  -3 -19    1.51    2.21
  14  -2 -17    3.26    1.87
  -7  -3  -9    0.42    1.20
  -4  -4 -16    1.71    1.65
  -2  -4 -16   -0.79    1.83
   0  -4 -16    5.82    2.01
   3  -3 -10   10.68    1.76
   4  -4 -19    1.67    2.25
   6  -4 -21   -0.86    2.08
   7  -3 -13   -2.23    2.10
   9  -3 -15    1.76    1.93
  11  -3 -18    0.83    2.15
  12  -2 -13   30.06    2.20
  -4  -4 -15    0.34    1.57
  -2  -4 -15    2.42    1.69
   0  -4 -15    2.32    1.80
   1  -3  -9    4.48    1.53
   4  -4 -18   -0.03    1.93
   4  -4 -17    2.56    1.97
   4  -2  -6    3.14    1.29
   5  -3 -11    4.55    1.71
   6  -4 -20    2.22    2.35
  11  -1  -8   10.27    1.22
  13  -3 -21   -0.33    1.93
  13  -1 -10    6.49    1.22
  16  -2 -20   -0.55    2.00
  -5  -3  -8    1.54    1.14
  -4  -4 -14    2.63    1.58
  -4  -2  -4   50.21    1.25
  -3  -3  -8   34.45    1.59
  -2  -4 -14    0.83    1.77
  -1  -3  -8   10.65    1.47
   0  -4 -14   -0.12    1.64
   2  -2  -5  336.88    3.14
   4  -4 -16    0.51    1.86
   6  -4 -18   -1.02    2.33
   6  -2  -7    0.63    1.45
   7  -3 -12   -0.76    1.82
   9  -3 -14   22.94    2.06
   9  -1  -6   12.51    1.35
  10  -2 -10   -0.16    1.56
  11  -3 -16    1.85    1.91
  12  -2 -12    4.20    1.68
  13  -3 -20   -0.18    2.10
  14  -2 -15    2.35    1.53
  16  -2 -19   -2.57    1.91
  -7  -3  -8   56.07    1.80
  -6  -2  -4   -0.13    0.92
  -2  -4 -13    1.15    1.75
   1  -3  -8    4.89    1.44
   3  -3  -9    3.71    1.62
   4  -4 -15   -0.73    1.80
   5  -3 -10    2.46    1.61
   6  -4 -17    0.96    2.16
   8  -4 -20    1.18    2.40
  14  -2 -14    4.10    1.80
  16  -2 -18   -0.34    2.08
  -4  -4 -13    0.81    1.62
   0  -4 -13    0.32    1.62
   6  -4 -16    1.09    2.06
   7  -3 -11   18.23    1.95
   8  -4 -19    0.48    2.05
   8  -4 -18    1.48    1.95
  11  -3 -15   -0.94    1.76
  13  -3 -18    1.78    2.23
  16  -2 -17    0.36    1.84
  -4  -4 -12    0.67    1.76
  -3  -3  -7    7.78    1.34
  -2  -4 -12   22.58    2.12
  -1  -3  -7   42.47    1.80
   0  -4 -12    6.79    1.96
   0  -2  -4   38.17    1.31
   2  -4 -13    7.45    1.89
   4  -4 -14   -0.70    1.92
   5  -3  -9   31.12    2.05
   6  -4 -15   12.93    2.24
   8  -4 -17   -0.36    2.02
  10  -4 -20   -2.02    2.31
  10  -2  -9   40.61    2.01
  11  -3 -14   -2.63    1.85
  11  -1  -7    8.82    1.25
  12  -2 -11    4.53    1.71
  13  -3 -17    3.60    2.07
  13  -1  -9   -0.02    1.09
  14  -2 -13    2.36    1.80
  -6  -4 -12    3.19    1.60
   2  -4 -12    3.45    1.60
   4  -4 -13    0.75    1.88
   6  -2  -6   23.46    1.58
   7  -3 -10   40.59    2.35
   8  -4 -16   -1.12    1.99
  10  -4 -19    0.80    2.27
  13  -3 -16    1.62    1.92
  15  -3 -20    2.41    2.00
  -7  -3  -7   18.64    1.31
  -4  -4 -11    1.01    1.61
  -2  -4 -11    9.25    1.91
  -1  -5 -19    2.00    1.98
   0  -4 -11    5.61    1.94
   1  -3  -7   39.52    1.79
   5  -1  -3  231.03    1.97
   6  -4 -14    2.26    1.99
   7  -1  -4    2.44    0.86
  10  -4 -18   -0.71    2.34
  11  -3 -13    2.23    1.72
  12  -2 -10   -0.02    1.47
  15  -3 -19    2.58    1.97
  -6  -4 -11    1.54    1.58
  -3  -5 -19    2.40    1.79
  -3  -5 -18   -0.32    1.87
  -1  -5 -18   -0.70    1.99
   1  -5 -19    0.31    2.23
   1  -5 -18    3.35    2.20
   2  -4 -11    1.38    1.95
   2  -2  -4  219.01    2.41
   4  -4 -12    4.18    1.82
   5  -3  -8    2.46    1.66
   6  -4 -13    3.46    1.93
   8  -4 -15    0.49    1.89
   9  -1  -5  124.53    1.94
  10  -4 -17    0.32    2.30
  10  -2  -8   60.41    2.04
  13  -3 -15    5.22    1.86
  14  -2 -12    0.51    1.68
  15  -3 -18    0.04    2.05
  -5  -3  -6    2.20    1.20
  -4  -4 -10   -1.15    1.65
  -3  -5 -17    0.51    2.02
  -3  -3  -6   35.15    1.67
  -1  -5 -17   -1.69    2.05
  -1  -3  -6   63.92    2.02
   0  -4 -10   -0.88    1.76
   1  -5 -17   -0.55    2.07
   8  -4 -14   -0.96    2.18
  10  -4 -16    2.28    2.23
  11  -3 -12    2.16    1.81
  12  -4 -19    0.31    2.35
  13  -3 -14    0.05    1.87
  15  -3 -17    0.88    2.22
  -4  -2  -3    8.20    0.75
  -3  -5 -16    1.32    1.89
  -1  -5 -16    1.75    2.16
   1  -3  -6   41.68    1.83
   2  -4 -10    3.89    2.02
   4  -4 -11    0.79    1.77
   5  -5 -18    0.01    2.38
   6  -4 -12    1.34    1.91
   6  -2  -5   93.74    2.09
  10  -4 -15    0.79    2.11
  11  -1  -6    8.85    1.17
  12  -4 -18    0.79    2.27
  12  -2  -9    5.81    1.53
  15  -3 -16   -1.18    2.12
  -7  -3  -6   25.40    1.28
  -6  -4 -10    3.44    1.47
  -3  -5 -15   -2.75    2.07
  -2  -4  -9    2.43    1.80
  -1  -5 -15   -1.30    2.12
   0  -2  -3    0.49    0.93
   1  -5 -15    0.24    2.14
   4  -2  -4   19.66    1.40
   5  -5 -17    1.58    2.49
   5  -3  -7    4.52    1.56
   7  -3  -8   30.49    2.06
   8  -4 -13   -1.78    1.95
  11  -3 -11   -0.62    1.81
  12  -4 -17    1.30    2.30
  13  -3 -13   -0.12    1.91
  -4  -4  -9   12.88    1.61
  -1  -5 -14   -0.36    1.99
   0  -4  -9    1.33    1.77
   3  -3  -6   67.82    2.18
   4  -4 -10   52.32    2.87
   5  -5 -16    0.23    2.32
   8  -4 -12    1.81    1.80
  10  -4 -14    3.07    2.04
  12  -4 -16   -0.47    2.40
  15  -3 -15    0.35    1.94
  -6  -4  -9    0.50    1.38
  -3  -5 -14    1.03    1.88
  -3  -3  -5    1.93    1.29
   1  -5 -14    0.96    1.98
   2  -4  -9    5.28    1.80
   5  -5 -15    0.73    1.99
  10  -4 -13   -1.11    1.91
  11  -3 -10    9.65    2.02
  13  -3 -12    0.24    1.77
  13  -1  -7   68.45    1.77
  14  -4 -18    2.50    2.31
  14  -2 -10    3.51    1.46
  -5  -3  -5    0.86    0.96
  -3  -5 -13    2.22    1.71
  -2  -4  -8    2.23    1.70
  -1  -5 -13    2.83    1.99
   0  -4  -8    1.19    1.75
   1  -5 -13    3.10    1.97
   1  -3  -5    3.50    1.47
   4  -4  -9    4.83    2.17
   6  -4 -10    0.63    1.63
   7  -5 -16    1.30    2.41
   7  -3  -7    3.45    1.66
   8  -4 -11    1.54    1.87
  12  -2  -8   17.90    1.72
  14  -4 -17   -0.04    2.22
  15  -3 -14    1.06    1.79
  -4  -4  -8    7.07    1.65
   2  -4  -8   12.83    1.95
   5  -5 -14   -3.64    2.34
   5  -3  -6   -0.61    1.12
   6  -2  -4  124.78    2.31
   7  -5 -15   -0.40    2.27
   7  -1  -3    3.97    0.80
   8  -2  -5    1.66    1.39
   9  -5 -17   -0.42    2.27
   9  -1  -4    1.10    0.91
  12  -4 -14    2.02    2.18
  13  -3 -11    1.29    1.69
  -7  -3  -5   -0.14    1.00
  -6  -4  -8   12.99    1.43
  -3  -5 -12    0.68    1.74
  -1  -5 -12   -0.22    1.70
   1  -5 -12    1.49    1.92
   3  -3  -5   13.60    1.64
   5  -5 -13    0.62    2.21
   6  -4  -9    2.12    2.20
   7  -5 -14   -0.26    2.17
   8  -4 -10    7.42    1.89
   9  -5 -16   -1.00    2.52
  10  -2  -6    0.64    1.26
  11  -3  -9    3.67    1.76
  11  -1  -5    0.89    1.00
  15  -3 -13    4.03    1.68
  -2  -4  -7    0.70    1.56
  -1  -5 -11   -0.65    1.71
   4  -4  -8   15.14    2.08
   4  -2  -3    1.08    1.15
   9  -5 -15    1.36    2.36
  12  -4 -13    5.47    2.11
  12  -2  -7   11.39    1.57
  14  -4 -15    1.69    2.19
  -4  -4  -7   26.76    1.80
  -3  -5 -11    1.61    1.75
  -3  -3  -4    7.34    1.31
   0  -2  -2    0.53    0.92
   1  -5 -11   13.09    1.96
   1  -3  -4    6.07    1.48
   3  -5 -11   -0.92    2.00
   5  -5 -12    1.31    2.19
   5  -3  -5   39.81    2.00
   7  -5 -13    0.54    2.42
   7  -3  -6   11.55    1.58
   9  -5 -14    7.51    2.26
  11  -5 -16    0.99    2.51
  12  -4 -12    2.99    1.88
  13  -3 -10    5.47    1.76
  14  -4 -14    2.12    2.19
  15  -3 -12   11.03    1.90
  16  -4 -17    0.08    2.16
  -6  -4  -7    6.45    1.64
  -5  -3  -4    0.41    0.96
  -1  -5 -10    1.95    1.79
   1  -5 -10    6.23    1.88
   4  -4  -7    2.40    1.89
   6  -4  -8    4.39    2.01
   7  -5 -12    0.54    2.05
   8  -4  -9    5.03    1.65
  11  -5 -15   -1.07    2.10
  11  -3  -8    4.32    1.86
  13  -1  -6    8.28    0.91
  16  -4 -16   -0.50    1.83
  -3  -5 -10   -0.39    1.63
  -2  -4  -6   12.05    1.62
   0  -6 -15    2.63    2.08
   0  -4  -6   -0.16    1.55
   2  -2  -2   11.91    1.07
   3  -5 -10    2.17    1.92
   3  -3  -4   19.55    1.64
   5  -5 -11    1.46    1.97
   8  -2  -4   40.27    1.75
   9  -5 -13    1.08    2.46
  10  -2  -5    1.46    1.23
  12  -4 -11    0.55    1.77
  13  -3  -9   -1.84    1.74
  14  -4 -13    0.57    2.26
  14  -2  -8    1.25    1.38
  15  -3 -11   -0.40    1.63
  -5  -5 -10    1.15    1.60
  -2  -6 -15    0.84    1.83
  -1  -5  -9   -0.93    1.59
   2  -4  -6    8.24    1.72
   6  -4  -7   -0.67    1.91
   6  -2  -3   15.94    1.36
   7  -5 -11    3.60    2.10
   7  -3  -5    2.72    1.47
   8  -4  -8    1.41    1.83
  11  -5 -14   -0.37    2.38
  16  -4 -15   -0.37    2.02
  -5  -3  -3  108.19    1.42
  -2  -4 -16    0.23    1.15
  -2  -4 -15    0.08    0.95
  -1  -3  -8   10.47    1.19
   1  -3 -12    2.18    1.37
   2  -2  -8   69.54    1.68
   4  -2 -13    0.91    1.37
   7  -1 -25    1.12    1.77
   7  -1 -24   -0.20    1.89
   7  -1 -23    1.49    2.00
   7  -1 -22    0.52    1.68
   7  -1 -21    0.66    1.59
   7  -1 -20    0.39    1.53
   8   0 -26   -0.33    1.82
   8   0 -16   -0.91    1.36
   9   1 -18    1.16    1.31
   9   1 -17    0.14    1.25
  -4  -4 -10    0.02    0.88
  -3  -3  -5    2.76    0.76
  -2  -4 -14   -0.32    0.98
   3  -3 -23    2.03    1.76
   3  -3 -22   -0.71    1.93
   3  -3 -21    0.16    2.01
   3  -3 -20    1.90    1.80
   3  -3 -19    0.82    1.59
   3  -1  -6  207.94    2.05
   4  -2 -12   21.22    1.53
   5  -1 -10    7.51    1.34
   6   0  -9   16.39    1.10
   8   0 -15   -0.76    1.29
   9   1 -16    6.88    1.35
  -4  -4  -9   12.85    1.34
  -2  -4 -13   -0.37    0.99
   1  -3 -11   78.58    2.22
   3  -3 -18    1.40    1.50
   3  -3 -17    1.24    1.53
   6  -2 -24    1.12    1.80
   6  -2 -23   -0.07    2.01
   6  -2 -22    2.78    1.91
   6  -2 -21   -0.01    1.84
   6  -2 -20    4.47    1.71
   6  -2 -19   -1.52    1.48
   8   0 -14    0.81    1.23
   9   1 -15    3.15    1.17
  -1  -3  -7   43.09    1.48
   0  -4 -21    0.72    1.45
   0  -4 -20    0.03    1.48
   0  -4 -19   -0.98    1.43
   0  -4 -18    0.31    1.30
   0  -4 -17   -0.33    1.26
   2  -2  -7    4.81    0.99
   3  -3 -16    6.30    1.25
   3  -3 -15   28.63    1.89
   4  -2 -11   12.58    1.39
   5  -1  -9   91.63    1.83
   6  -2 -18    2.04    1.47
   6  -2 -17   -1.74    1.38
   7  -1 -14    3.33    1.38
   7   1  -9   99.29    1.52
  -2  -4 -11   10.60    1.41
   6  -2 -16    2.61    1.69
   8   0 -13    0.56    1.06
   9   1 -14   55.83    1.62
  -4  -4  -8    8.37    1.05
  -3  -3  -4    6.53    0.93
   0  -4 -15    2.75    1.31
   1  -3  -9    6.20    1.12
   3  -3 -13   11.09    1.57
   4  -2 -10  180.59    2.75
   6  -2 -15   56.95    2.45
   6   0  -8   47.77    1.27
   7  -1 -13    0.87    1.12
   9  -1 -24    0.74    1.96
   9  -1 -23   -1.50    1.87
  10   0 -25    1.77    1.46
  10   0 -24   -0.50    1.62
  10   0 -23    3.58    1.67
  10   0 -22   -0.50    1.55
  10   0 -21    0.24    1.60
  -2  -4 -10    3.32    1.12
   2  -4 -21    0.55    1.32
   2  -4 -20   -0.67    1.69
   3  -1  -5   50.20    1.02
   5  -3 -23    0.36    1.76
   5  -3 -22   -0.11    1.74
   5  -3 -21   -0.15    1.65
   5  -3 -20    1.96    1.79
   5  -3 -19    0.06    1.74
   5  -1  -8    8.64    1.03
   6  -2 -14   11.40    1.64
   7  -1 -12   -0.54    1.13
   8   0 -12   15.23    1.21
   9  -1 -25    0.64    1.60
   9  -1 -22    1.21    1.50
   9  -1 -21    4.47    1.66
   9  -1 -20   -1.24    1.63
   9  -1 -19    4.26    1.73
   9   1 -13    9.73    0.98
  10   0 -26   -1.34    1.36
  10   0 -20    0.71    1.40
  10   0 -19   -0.62    1.42
   0  -4 -13    0.82    1.28
   2  -4 -19    0.31    1.73
   2  -4 -18    0.89    1.54
   2  -2  -6   24.77    1.14
   4  -2  -9   13.44    1.28
   5  -3 -18    0.02    1.57
   5  -3 -17    0.03    1.52
   6  -2 -13    4.67    1.37
   8  -2 -24    0.23    1.95
   8  -2 -23   -0.23    1.88
   8  -2 -22   -0.75    1.90
   8  -2 -21   -0.48    1.64
  10   0 -18    0.18    1.36
  -2  -4  -9    1.90    1.12
   0  -4 -12    6.56    1.50
   1  -3  -8    6.03    1.09
   2  -4 -17   -0.89    1.50
   2  -4 -16    1.31    1.32
   5  -3 -16   -1.38    1.51
   8  -2 -20    5.34    1.76
   8  -2 -19    2.50    1.67
   8   0 -11    3.91    1.05
   9  -1 -17    0.20    1.53
   9   1 -12    4.98    0.96
  10   0 -17    1.81    1.41
   0  -4 -11    5.42    1.25
   2  -4 -15    0.58    1.46
   5  -3 -15    0.38    1.37
   6  -2 -12    3.01    1.39
   8  -2 -18    6.96    1.59
   9  -1 -16    9.05    1.77
  10   0 -16    7.75    1.44
  -2  -4  -8    2.54    1.04
  -1  -5 -19   -0.87    1.26
  -1  -5 -18   -0.19    1.31
  -1  -3  -5  177.55    2.14
   2  -4 -14    1.43    1.30
   4  -2  -8   65.88    1.73
   5  -3 -14    3.42    1.73
   7  -3 -23    2.28    1.79
   7  -3 -22    1.61    2.02
   7  -3 -21   -0.66    1.62
   8  -2 -17    0.37    1.38
   8  -2 -16   -0.91    1.32
   9  -1 -15    3.37    1.43
  10   0 -15   11.57    1.45
  -3  -3  -3    1.08    0.76
  -1  -5 -17   -0.76    1.27
  -1  -5 -16    0.17    1.27
   0  -4 -10    1.03    1.28
   0  -2  -3    1.29    0.52
   1  -3  -7   42.61    1.50
   2  -4 -13    8.83    1.43
   2  -2  -5  346.44    2.67
   4  -4 -18   -1.77    1.70
   5  -3 -13   -0.86    1.67
   6  -2 -11    8.11    1.34
   7  -3 -20   -1.41    1.78
   7  -3 -19   -0.43    1.76
   7  -1 -10  113.09    2.13
   8   0 -10   52.59    1.50
   9  -1 -14   54.87    1.92
   9   1 -11    1.57    0.81
  11  -1 -25    1.78    1.77
  11  -1 -24    0.27    1.70
  11  -1 -23   -0.45    1.62
  -1  -5 -15    0.47    1.06
   3  -1  -4   72.52    1.06
   4  -4 -17    5.45    1.80
   7  -3 -18   -1.65    1.73
   8  -2 -15    0.29    1.58
  10  -2 -24   -0.56    1.90
  10   0 -14    8.41    1.34
  11  -1 -22   -0.19    1.54
  11  -1 -21    3.80    1.63
  12   0 -24    0.46    1.62
  12   0 -23   -1.29    1.49
  12   0 -22    0.04    1.61
  -2  -4  -7   -0.10    0.91
  -1  -5 -14   -0.12    1.12
   0  -4  -9    0.54    1.21
   1  -5 -19   -0.19    1.38
   1  -5 -18    0.49    1.33
   2  -4 -12    2.31    1.49
   4  -4 -16   -0.34    1.60
   4  -2  -7   25.66    1.27
   5  -3 -12    8.02    1.56
   7  -3 -17    3.59    1.54
   8  -2 -14    2.15    1.60
  11  -1 -20    2.08    1.37
  11  -1 -19    4.92    1.55
  12   0 -21   -0.28    1.39
  12   0 -20    7.31    1.47
   1  -5 -17    0.28    1.39
   1  -3  -6   39.13    1.47
   4  -4 -15    0.60    1.48
   5  -1  -6    0.62    0.80
   6  -4 -21    1.39    1.87
   7  -1  -9   94.11    1.89
   8  -2 -13    0.30    1.34
   8   0  -9   13.76    1.04
  10   0 -13    0.83    1.10
  11  -1 -18    5.85    1.52
  12   0 -19    0.96    1.39
  -1  -5 -13    3.20    1.24
  -1  -3  -4    0.55    0.81
   1  -5 -16   -0.01    1.38
   2  -4 -11    0.61    1.22
   4  -4 -14   -0.09    1.44
   5  -3 -11    4.52    1.36
   6  -4 -20    0.14    1.70
   6  -4 -19   -1.04    1.88
   6  -2  -9   12.03    1.21
   7  -3 -15   -0.15    1.45
   9  -3 -22   -0.70    2.00
   9  -3 -21    1.44    2.04
   9   1 -10   11.76    0.75
  11  -1 -17    0.17    1.36
  11   1 -14   -1.20    1.00
  12   0 -18    1.26    1.32
  -2  -4  -6   12.00    1.13
  -1  -5 -12    0.36    1.23
   0  -4  -8   -0.18    1.17
   1  -5 -15   -0.39    1.52
   2  -4 -10    2.46    1.50
   3  -5 -19   -0.80    1.49
   4  -4 -13    0.06    1.27
   6  -4 -18    1.22    1.78
   7  -3 -14    2.77    1.32
   8  -2 -12    8.97    1.45
   9  -3 -20    0.86    1.74
   9  -3 -19    0.14    1.72
  10  -2 -17    0.35    1.45
  10   0 -12   10.33    1.26
  11  -1 -16    0.47    1.51
  12   0 -17   -1.95    1.41
   1  -5 -14    0.24    1.42
   2  -2  -4  216.22    2.06
   3  -5 -18    0.13    1.62
   4  -2  -6    1.42    0.99
   7  -3 -13   -1.03    1.79
   9  -3 -18   -0.95    1.82
  10  -2 -16    5.14    1.59
  13  -1 -24    2.27    1.75
  13  -1 -23    0.66    1.75
  -3  -3  -2    5.63    0.68
  -1  -5 -11   -1.15    1.35
   1  -5 -13    1.74    1.45
   1  -3  -5    2.80    0.98
   3  -5 -17   -0.16    1.82
   4  -4 -12    3.27    1.51
   6  -2  -8   30.62    1.40
   8  -2 -11    3.11    1.33
   8   0  -8   30.50    1.24
   9  -3 -17    1.20    1.75
  10  -2 -15    9.00    1.52
  11  -1 -15    0.65    1.39
  11   1 -13    4.11    0.86
  12  -2 -23   -0.71    1.90
  12  -2 -22    0.76    1.92
  12   0 -16   -0.41    1.34
  13  -1 -22    2.68    1.76
  13  -1 -21   -0.64    1.80
   0  -4  -7   22.42    1.36
   2  -4  -9    3.92    1.36
   3  -5 -16   -0.20    1.82
   5  -1  -5   90.31    1.42
   7  -3 -12    2.23    1.55
   8  -4 -20    2.59    2.00
   9  -3 -16    2.98    1.69
  10   0 -11   20.72    1.21
  11  -1 -14   -0.37    1.48
  12  -2 -21    1.76    1.64
  12  -2 -20    4.58    1.67
  12   0 -15    6.14    1.25
  13  -1 -20   -0.66    1.58
  -2  -4  -5   15.34    1.14
  -1  -3  -3    5.93    0.90
   1  -5 -12   -0.43    1.30
   3  -5 -15    6.03    1.81
   4  -4 -11    0.55    1.63
   5  -5 -19   -0.55    1.90
   8  -4 -19    0.57    1.62
   8  -4 -18    3.85    1.83
   9  -3 -15    1.25    1.58
  10  -2 -14    5.36    1.57
  11  -3 -21    2.34    1.98
  12  -2 -19    3.21    1.80
  13  -1 -19    0.82    1.66
   2  -4  -8   11.62    1.47
   3  -5 -14   -0.77    1.57
   4  -2  -5   39.46    1.25
   7  -3 -11   19.14    1.67
   7  -1  -7   14.84    1.09
   8  -4 -17    0.24    1.86
   8  -2 -10   31.76    1.63
  10  -2 -13    0.24    1.46
  11  -3 -20    0.97    1.98
  11  -1 -13    5.51    1.47
  11   1 -12    6.90    0.78
  12  -2 -18   -0.96    1.80
  12   0 -14    9.01    1.38
  13  -1 -18    0.65    1.52
   0  -4  -6    0.57    0.94
   1  -5 -11   12.85    1.59
   3  -5 -13    2.46    1.66
   3  -3  -6   65.93    1.78
   4  -4 -10   54.33    2.22
   5  -5 -17   -0.43    1.70
   6  -2  -7    0.51    1.15
   8  -4 -16   -0.17    1.68
   9  -3 -14   21.49    1.89
  10   0 -10    1.88    0.93
  11  -3 -19    2.44    1.73
  11  -3 -18    3.92    1.81
  13  -1 -17   -0.49    1.47
  14   0 -19    1.47    1.22
   1  -3  -4    5.04    0.93
   2  -2  -3    6.30    0.72
   5  -5 -16    2.02    1.64
   8  -2  -9   11.93    1.34
   8   0  -7    5.51    0.93
   9  -3 -13    5.30    1.55
  10  -4 -20   -0.68    1.89
  10  -2 -12    4.78    1.48
  11  -3 -17   -1.20    1.71
  11  -1 -12    8.31    1.35
  12   0 -13   41.41    1.78
   1  -5 -10    7.26    1.48
   2  -4  -7    0.46    1.24
   3  -5 -12    1.50    1.45
   4  -4  -9    5.93    1.51
   5  -5 -15    0.80    1.83
   8  -4 -15    0.64    1.58
  10  -4 -19   -1.18    2.14
  11   1 -11    0.48    0.75
  13  -1 -16   -0.82    1.42
  14  -2 -22   -0.30    1.94
  14  -2 -21   -1.48    1.68
  14   0 -17    2.77    1.46
  15  -1 -23   -0.39    1.44
  15  -1 -22    1.08    1.75
  -2  -4  -4    6.77    0.94
   5  -5 -14   -1.08    1.68
   5  -3  -7    3.40    1.17
   7  -5 -18   -0.33    1.71
   7  -1  -6   35.97    1.30
   8  -4 -14    0.62    1.66
   9  -3 -12    3.29    1.52
  10  -4 -18   -3.46    2.06
  11  -3 -16    1.14    1.66
  13  -3 -21    1.40    2.09
  14  -2 -20    1.15    1.96
  15  -1 -21   -0.03    1.74
   0  -4  -5   16.39    1.19
   1  -5  -9    1.18    1.31
   3  -5 -11    0.29    1.39
   3  -3  -5   14.62    1.23
   5  -5 -13    1.81    1.68
   5  -1  -4  500.45    2.85
   6  -2  -6   21.20    1.37
   7  -5 -17    1.76    1.70
   7  -3  -9   45.33    1.91
   8  -4 -13    0.45    1.47
   8  -2  -8   11.41    1.27
  10  -4 -17   -0.62    2.03
  10  -2 -11    9.78    1.24
  10   0  -9   64.09    1.63
  11  -3 -15   -0.56    1.70
  11  -1 -11    0.57    1.25
  12   0 -12    6.98    1.25
  13  -3 -20    1.55    2.00
  14  -2 -19    0.56    1.97
  14   0 -16    0.98    1.25
  15  -1 -20    3.45    1.86
  -1  -3  -2   -0.15    0.88
   4  -4  -8   14.42    1.54
   4  -2  -4   19.93    0.93
   6  -4 -10    1.72    1.43
   7  -5 -16    0.69    1.82
   9  -3 -11    1.73    1.64
  10  -4 -16    1.28    1.97
  11  -3 -14    1.68    1.48
  13  -3 -19    1.21    2.07
  13  -1 -14    0.90    1.54
  14  -2 -18    3.55    1.96
  15  -1 -19   -1.10    1.79
   1  -3  -3   -0.32    1.03
   2  -4  -6    8.60    1.25
   3  -5 -10    1.11    1.44
   5  -5 -12    0.93    1.65
   5  -3  -6   -0.25    1.07
   7  -5 -15    2.43    1.90
   7  -3  -8   27.91    1.81
   8  -4 -12    0.62    1.67
  10  -4 -15    3.33    1.81
  10  -2 -10    1.58    1.34
  11   1 -10   14.90    0.88
  13  -3 -18    1.88    1.99
  14  -2 -17    2.96    1.74
  14   0 -15    0.76    1.26
  15  -1 -18   -0.84    1.75
   1  -5  -8    0.68    1.38
   4  -6 -16    1.25    1.55
   6  -4  -9    1.26    1.71
   7  -5 -14    0.65    1.90
   8   0  -6    7.58    0.84
   9  -3 -10    3.62    1.67
  11  -3 -13    2.99    1.57
  11  -1 -10   14.26    1.50
  12   0 -11    3.16    1.10
  13  -3 -17    1.92    1.93
  13  -1 -13    0.05    1.55
  15  -1 -17    1.79    1.53
   0  -4  -4    5.90    1.09
   3  -5  -9    1.28    1.43
   3  -3  -4   20.90    1.35
   4  -6 -15   -0.04    1.63
   4  -4  -7    5.56    1.29
   5  -5 -11    3.45    1.65
   6  -2  -5   91.50    1.84
   8  -4 -11    0.22    1.56
   8  -2  -7    0.94    1.23
   9  -5 -17    0.42    1.93
  10  -4 -14    3.13    1.81
  10   0  -8   98.99    1.81
  12  -4 -18   -0.28    1.95
  12  -2 -12    6.31    1.86
  13  -3 -16    0.64    2.03
  14  -2 -16   -0.55    1.57
  14   0 -14    1.20    1.18
  16  -2 -21   -2.10    2.05
   1  -5  -7    4.68    1.52
   4  -6 -14    1.43    1.82
   7  -5 -13    1.44    1.61
   7  -3  -7    5.49    1.39
   7  -1  -5    9.04    0.78
   9  -5 -16    1.61    2.08
  10  -4 -13   -0.59    1.63
  10  -2  -9   39.83    1.81
  11  -3 -12    2.65    1.65
  12  -4 -17    1.49    2.04
  13  -3 -15    7.16    1.81
  13  -1 -12    5.09    1.64
  14  -2 -15   -0.32    1.66
  15  -1 -16    0.47    1.55
  16  -2 -20    0.72    1.80
  17  -1 -21   -2.88    1.76
   4  -2  -3    0.32    0.81
   5  -5 -10   -0.71    1.57
   7  -5 -12    1.89    1.70
   8  -4 -10    7.88    1.67
   9  -5 -15   -1.47    2.13
   9  -3  -9    3.09    1.58
  11  -1  -9    8.67    1.34
  12  -4 -16   -0.34    2.13
  12  -2 -11    2.95    1.71
  12   0 -10   -0.14    0.98
  14   0 -13    3.90    1.25
  15  -1 -15    1.40    1.56
  16  -2 -19   -0.39    2.03
  17  -1 -20   -1.32    1.49
   3  -5  -8   -0.58    1.48
   4  -6 -13   -0.52    1.72
   4  -4  -6    2.21    1.28
   5  -1  -3  227.21    1.93
   6  -6 -15    1.03    1.75
   8  -2  -6    7.59    1.17
  10  -4 -12    0.83    1.92
  11  -3 -11   -0.96    1.50
  12  -4 -15    2.54    2.12
  14  -2 -14   -0.02    1.71
  16  -2 -18    0.92    1.99
  17  -1 -19    0.20    1.65
   4  -6 -12    0.91    1.62
   5  -5  -9    5.47    1.53
   6  -6 -14    1.42    1.84
   7  -5 -11    3.47    1.69
   9  -3  -8    1.34    1.45
  10  -2  -8   59.09    1.96
  13  -1 -11   -1.76    1.39
  15  -1 -14    1.13    1.47
  16  -2 -17    0.97    1.68
  -1  -3  -1    1.11    0.77
   0  -4  -3    0.93    1.01
   1  -3  -2   76.04    1.50
   2  -4  -4   45.18    1.74
   3  -5  -7   -0.15    1.59
   3  -3  -3   38.24    1.43
   6  -4  -7   -0.52    1.46
   6  -2  -4  125.28    2.00
   7  -3  -6   11.04    1.36
   8   0  -5    2.22    0.74
   9  -5 -13    3.97    1.98
   9  -1  -6   10.84    1.28
  10  -4 -11    1.15    1.75
  10   0  -7   58.72    1.44
  11  -5 -16   -0.76    2.46
  11  -3 -10    8.58    1.68
  11  -1  -8   10.93    1.27
  12  -4 -14    1.09    1.97
  12  -2 -10   -1.40    1.67
  13  -3 -13    0.20    1.60
  14  -4 -17   -2.28    2.41
  14  -2 -13    1.70    1.58
  14   0 -12    1.66    1.02
  17  -1 -18   -0.28    1.84
   4  -6 -11    0.92    1.63
   4  -4  -5    6.40    1.35
   6  -6 -13    3.75    1.74
   7  -5 -10    5.46    1.80
   7  -1  -4    2.44    0.90
   9  -5 -12    0.89    1.76
  12   0  -9    9.23    1.08
  13  -3 -12    1.33    1.60
  15  -1 -13    8.34    1.54
  16  -2 -16    1.27    1.87
  17  -1 -17    6.84    1.78
  -2  -4  -2   12.28    0.91
   5  -5  -8    2.05    1.46
   8  -2  -5    0.74    1.07
   9  -3  -7   18.61    1.69
  10  -2  -7   38.50    1.79
  11  -3  -9    3.33    1.69
  12  -2  -9    5.11    1.48
  13  -1 -10    6.75    1.35
  14  -4 -16    0.35    1.95
  14  -2 -12   -1.52    1.48
  15  -3 -15   -0.16    2.01
  16  -2 -15    0.23    1.86
   1  -5  -5    0.58    1.28
   3  -5  -6    8.75    1.66
   4  -6 -10    8.03    1.90
   6  -6 -12   -0.14    1.58
   6  -4  -6    6.68    1.44
   7  -5  -9    6.53    1.88
   7  -3  -5    1.74    1.27
   8  -6 -14   -1.59    1.93
   9  -5 -11    0.38    1.84
  12  -4 -12    1.35    1.96
  13  -3 -11    0.93    1.49
  14  -4 -15    0.57    2.14
  14   0 -11    2.65    1.07
  15  -3 -14    1.30    1.79
  17  -1 -16    1.90    1.57
  18  -2 -19    0.75    1.92
   4  -2  -2   35.50    1.13
   5  -5  -7    2.81    1.52
   6  -6 -11   -0.14    1.60
   8  -6 -13    0.11    1.70
   9  -1  -5  121.53    2.04
  10  -4  -9   11.30    1.85
  11  -1  -7   11.13    1.22
  14  -4 -14    0.96    1.94
  15  -1 -12   19.99    1.93
  16  -2 -14    1.26    1.90
  17  -1 -15    1.07    1.35
  18  -2 -18    0.90    1.85
   2  -4  -3    1.61    1.04
   4  -4  -4    1.01    1.28
   6  -2  -3   15.81    1.14
   9  -5 -10    1.72    1.75
   9  -3  -6    1.53    1.43
  10  -2  -6    0.48    1.22
  10   0  -6    0.24    0.82
  11  -3  -8    4.14    1.77
  12  -4 -11    3.10    1.83
  12  -2  -8   18.41    1.73
  15  -3 -13    2.66    1.92
  17  -3 -17    0.49    1.91
  18  -2 -17   -0.76    2.05
   0  -4  -2    0.40    0.83
   1  -3  -1    1.58    0.96
   3  -3  -2   21.21    1.25
   5  -1  -2   72.79    1.18
   6  -6 -10    1.72    1.86
   7  -5  -8    6.79    1.64
   8  -6 -12   -0.30    1.84
  13  -3 -10    1.48    1.56
  14  -4 -13    0.80    2.01
  14   0 -10    2.90    1.08
  15  -1 -11    0.06    1.61
  16  -2 -13    0.74    1.67
  16   0 -13    1.93    1.20
  17  -3 -16   -1.30    2.12
  17  -1 -14   -0.05    1.41
   1  -5  -4   -0.12    1.21
   3  -5  -5    2.19    1.37
   5  -5  -6   -0.52    1.60
   7  -3  -4    0.43    1.13
   7  -1  -3    3.46    0.89
   8  -2  -4   40.56    1.58
   8   0  -4   73.42    1.38
   9  -5  -9   -0.85    1.79
  10  -4  -8   17.90    1.82
  12  -4 -10    0.03    1.82
  15  -3 -12    8.94    2.00
  17  -3 -15    0.67    2.17
  18  -2 -16   -0.94    1.88
   6  -6  -9   -0.13    1.59
   7  -5  -7    0.43    1.62
   8  -6 -11    2.21    1.69
  11  -3  -7    3.18    1.86
  12  -2  -7   14.06    1.60
  13  -5 -13    0.78    2.17
  13  -3  -9    2.48    1.54
  13  -1  -8   26.56    1.70
  14  -4 -12    1.18    1.92
  16  -2 -12    2.05    1.73
  16   0 -12    1.50    1.30
  17  -1 -13    0.86    1.39
  18  -2 -15   -0.13    2.07
   4  -4  -3   -0.22    1.18
   6  -4  -4   26.10    1.72
   8  -6 -10    0.10    1.98
   9  -5  -8   -2.14    1.90
   9  -3  -5   36.57    1.91
  10  -6 -12   -0.14    1.83
  10  -2  -5    0.91    1.26
  12  -4  -9    2.94    1.76
  12   0  -7   22.77    1.16
  14  -4 -11   -2.07    1.90
  15  -3 -11    1.61    1.77
  15  -1 -10    6.17    1.54
  16  -4 -14   -0.11    2.31
  19  -1 -16   -0.85    1.50
  -1  -3   0    1.48    0.72
   2  -4  -2    3.79    1.01
   3  -5  -4    3.32    1.38
   9  -1  -4    2.04    0.71
  13  -5 -12   -0.69    1.92
  13  -3  -8    9.92    1.64
  14   0  -9    6.70    1.13
  16  -2 -11   -0.10    1.80
  17  -1 -12   -0.15    1.39
  18  -2 -14   -0.25    2.02
   3  -3  -1   37.80    1.44
   4  -2  -1   43.44    1.26
   6  -6  -8    0.80    1.61
   6  -2  -2    2.57    0.76
   7  -5  -6    1.42    1.54
   7  -3  -3   -0.24    1.14
   8  -2  -3  319.55    3.30
  10  -6 -11   -1.69    2.07
  10   0  -5    3.42    0.88
  11  -5  -9    1.35    1.96
  11  -3  -6    1.68    1.62
  12  -4  -8    4.03    1.78
  13  -5 -11   -0.51    1.87
  13  -1  -7   69.53    2.06
  14  -4 -10    1.73    1.83
  15  -3 -10    1.80    1.76
  16   0 -11    0.87    1.06
  19  -1 -15   -0.26    1.56
   0  -4  -1    3.13    0.89
   9  -5  -7    4.29    1.73
   9  -3  -4    0.34    1.33
  10  -4  -6    0.04    1.43
  12  -2  -6    1.01    0.99
  15  -1  -9    4.12    1.33
  16  -2 -10   -1.04    1.64
  18  -2 -13    0.24    1.59
  20  -2 -16    0.78    1.91
   4  -4  -2    8.10    1.33
   5  -5  -4   29.92    2.10
   6  -6  -7   -0.34    1.66
   6  -4  -3    2.63    1.40
  10  -6 -10   -0.26    1.95
  10  -2  -4    0.32    1.19
  11  -5  -8    1.20    1.79
  13  -5 -10    1.35    2.06
  13  -3  -7   31.69    1.95
  14  -4  -9    0.30    1.79
  14   0  -8    4.78    1.10
  15  -3  -9    0.51    1.73
  17  -1 -11   -0.87    1.32
  19  -1 -14    1.06    1.56
   1  -3   0    1.56    0.86
   3  -5  -3    4.68    1.29
   5  -1  -1    6.85    0.71
   7  -5  -5    0.40    1.35
   7  -1  -2   21.04    1.08
   8  -6  -8   -0.50    1.73
   9  -5  -6   -1.56    1.67
  11  -3  -5   -0.13    1.60
  12  -4  -7    2.20    1.55
  12   0  -6    0.79    0.88
  16  -4 -11    0.84    2.06
  16  -2  -9    1.16    1.68
  16   0 -10    0.48    1.13
  19  -3 -14    0.48    2.02
  20  -2 -15    2.89    1.74
   2  -4  -1    2.27    0.92
   6  -6  -6   -0.54    1.72
   7  -3  -2   10.23    1.15
   8   0  -3  497.34    2.97
   9  -1  -3   22.01    1.25
  10  -6  -9   -0.18    1.95
  10  -4  -5    0.45    1.32
  12  -2  -5    4.87    1.33
  13  -5  -9    0.96    2.19
  15  -3  -8    2.08    1.46
  15  -1  -8    0.81    1.26
  19  -1 -13    0.82    1.49
   6  -2  -1    1.96    0.94
   8  -6  -7   -0.27    1.81
   8  -2  -2   14.08    1.37
   9  -3  -3    5.48    1.42
  11  -5  -7   -0.90    1.80
  12  -4  -6   -0.05    1.56
  13  -3  -6    0.98    1.43
  14  -4  -8   -0.08    1.74
  16  -4 -10   -1.29    2.11
  18  -2 -11    2.58    1.59
  19  -3 -13    1.22    1.84
  20  -2 -14    0.80    1.61
   5  -5  -3   12.22    1.63
   6  -4  -2    0.27    1.35
   7  -5  -4    0.99    1.36
   8  -4  -3   70.10    2.46
   9  -5  -5    5.88    1.86
  10  -6  -8    1.08    2.13
  10  -2  -3    3.36    1.19
  10   0  -4    1.44    0.90
  11  -3  -4    1.97    1.41
  14   0  -7   13.04    1.29
  15  -5 -10   -0.45    2.20
  16  -2  -8   -0.52    1.45
  16   0  -9   -0.21    1.15
  19  -3 -12   -0.14    2.11
  19  -1 -12   -0.04    1.34
  20  -2 -13   -0.29    1.59
   0  -4   0  253.82    2.73
   3  -5  -2    1.39    1.25
   3  -3   0  151.12    2.19
   4  -4  -1    7.49    1.24
   4  -2   0   -0.34    0.72
   6  -6  -5    3.13    1.47
   8  -6  -6   -2.37    1.88
  10  -4  -4    1.76    1.40
  11  -5  -6    2.05    1.89
  12  -6  -9   -0.94    2.05
  12  -2  -4   13.82    1.42
  14  -4  -7    0.22    1.82
  15  -3  -7   -0.68    1.56
  15  -1  -7   -0.08    1.33
  16  -4  -9   -0.44    1.98
  17  -3  -9    0.56    1.90
  17  -1  -9   -0.93    1.35
  18  -2 -10    0.71    1.70
  10  -6  -7    1.89    1.98
  12  -4  -5    0.62    1.62
  12   0  -5    6.50    1.01
  13  -3  -5    0.06    1.36
  15  -5  -9   -0.69    2.12
  19  -3 -11    0.20    2.16
  19  -1 -11    0.78    1.28
  20  -2 -12   -0.15    1.88
  -1  -3   1   -0.02    0.72
   2  -4   0   -0.16    1.05
   5  -5  -2    1.96    1.60
   7  -5  -3    0.45    1.53
   7  -3  -1    7.11    1.18
   8  -4  -2    2.94    1.59
   9  -5  -4   -0.85    1.60
   9  -3  -2    1.53    1.26
   9  -1  -2    2.57    1.04
  11  -5  -5   -0.04    1.59
  11  -3  -3   31.79    1.86
  12  -6  -8    0.74    1.97
  14  -2  -5    1.15    1.58
  15  -3  -6    1.08    1.49
  16  -4  -8    0.35    1.98
  16  -2  -7   20.23    1.76
  17  -3  -8    3.61    1.73
  18  -4 -10   -0.28    1.92
  18  -2  -9   -0.02    1.65
   6  -4  -1    0.09    1.30
   7  -1  -1   36.37    1.23
   8  -2  -1   16.02    1.42
  10  -6  -6    0.42    1.89
  10  -4  -3    1.97    1.46
  10  -2  -2    7.63    1.33
  12  -4  -4    1.45    1.50
  14   0  -6    0.83    1.07
  15  -5  -8    0.63    2.04
  15  -1  -6    3.97    1.33
  16   0  -8    0.39    1.03
  17  -1  -8    4.00    1.39
  19  -3 -10    0.20    2.14
  19  -1 -10    0.08    1.32
  20  -2 -11    0.89    1.88
   1  -3   1    0.08    0.91
   3  -5  -1    4.37    1.30
   6  -2   0   12.25    1.23
  12  -6  -7    0.12    1.92
  12  -2  -3    2.12    1.40
  13  -3  -4    1.34    0.99
  13  -1  -4    3.00    1.07
  16  -4  -7    7.20    2.11
  16  -2  -6   12.79    1.59
  18  -4  -9    0.04    2.07
  18  -2  -8   -0.96    1.42
   4  -4   0    0.05    1.15
   5  -1   0    2.46    0.71
   7  -5  -2    2.48    1.48
   8  -6  -4    1.80    1.74
   9  -5  -3    2.06    1.55
  10  -6  -5    0.77    2.00
  10   0  -3    1.97    0.97
  11  -5  -4    0.13    1.82
  14  -4  -5    2.04    1.64
  14  -2  -4   -0.34    1.41
  15  -5  -7   -0.97    2.13
  15  -3  -5    1.88    1.52
  17  -3  -7    0.56    1.62
  19  -3  -9   -1.25    2.05
  20  -2 -10   -2.18    1.85
  22  -2 -13   -0.80    1.61
   3  -3   1  285.22    2.88
   5  -5  -1   -0.69    1.53
   6  -6  -3   -1.20    1.43
   7  -3   0   10.02    1.21
   8  -4  -1    3.61    1.51
  12  -6  -6    0.20    1.94
  12  -4  -3   -0.41    1.43
  12   0  -4   22.89    1.20
  15  -1  -5    1.72    1.21
  16  -4  -6    6.77    1.75
  16   0  -7   22.61    1.52
  17  -1  -7    0.80    1.32
  18  -4  -8    3.61    2.01
  19  -1  -9    0.72    1.26
   0  -4   1    1.59    0.98
   4  -2   1    2.26    0.88
   6  -4   0    0.70    1.30
  13  -3  -3    0.82    1.43
  14  -4  -4   -0.78    1.58
  15  -5  -6   -1.81    2.10
  16  -2  -5    3.18    1.39
  17  -3  -6    0.96    1.87
  18  -2  -7   -0.30    1.48
  19  -3  -8   -1.37    2.10
  20  -2  -9   -0.14    1.72
  22  -2 -12   -1.53    1.39
   2  -4   1    3.17    1.07
   3  -5   0   23.12    1.68
   5  -3   1    0.91    1.01
   7  -5  -1    1.37    1.42
   8  -6  -3    8.37    1.90
   8  -2   0    8.60    1.42
   9  -5  -2   -1.74    1.54
   9  -1  -1    4.56    1.10
  10  -6  -4    0.52    1.84
  10  -2  -1    5.33    1.25
  11  -5  -3    5.81    1.78
  12  -6  -5    0.00    1.74
  12  -2  -2    2.54    1.39
  13  -1  -3    3.70    1.08
  14   0  -5    2.96    1.09
  15  -3  -4    2.17    1.50
  18  -4  -7   -2.04    2.08
  22  -2 -11    1.58    1.59
   4  -4   1    0.91    1.31
   6  -6  -2    0.51    1.34
   7  -1   0   25.72    1.25
  11  -3  -1    1.17    1.57
  12  -4  -2    1.01    1.46
  14  -2  -3    0.69    1.55
  15  -5  -5    0.95    2.00
  16  -4  -5    1.42    1.78
  17  -3  -5    2.27    1.55
  17  -1  -6    5.19    1.53
  18  -2  -6   -0.12    1.39
  19  -1  -8    0.66    1.10
  20  -2  -8   -1.43    1.70
   5  -5   0   -0.03    1.32
   6  -2   1  272.70    2.95
   8  -4   0    1.63    1.43
   9  -3   0    3.30    1.38
  10  -6  -3    1.42    1.85
  11  -5  -2   14.29    2.10
  13  -3  -2    2.34    1.36
  14  -4  -3   -1.78    1.62
  15  -1  -4    3.25    1.31
  18  -4  -6    2.57    1.73
  21  -3  -9   -0.62    1.77
  22  -2 -10   -0.23    1.61
   1  -3   2    0.74    1.02
   6  -4   1   60.04    2.06
   7  -3   1    3.19    1.00
   8  -6  -2    0.38    1.66
   9  -5  -1    0.42    1.52
  10   0  -2    8.06    1.09
  12  -6  -4    0.94    1.56
  12   0  -3    0.28    1.04
  15  -5  -4    0.49    2.09
  15  -3  -3   -0.44    1.43
  16  -4  -4    1.49    1.89
  19  -1  -7   -0.28    1.30
   3  -3   2    5.07    1.01
   7  -5   0    0.35    1.52
  10  -2   0   26.87    1.67
  12  -4  -1   -2.06    1.52
  12  -2  -1   -0.34    1.25
  14   0  -4    2.13    1.06
  17  -3  -4   -0.16    1.72
  17  -1  -5    0.22    1.46
  18  -4  -5   -0.88    1.70
  18  -2  -5    1.35    1.54
  20  -2  -7    0.73    1.69
  21  -3  -8   -0.64    1.72
  21  -1  -9    0.08    1.55
  22  -2  -9    1.72    1.34
   3  -5   1   37.55    1.71
   5  -1   1    1.89    0.79
   8  -2   1   29.64    1.61
   8   0  -1   38.78    1.20
   9  -1   0    9.52    1.21
  10  -6  -2    2.50    1.88
  11  -5  -1    0.68    1.56
  11  -3   0    1.75    1.43
  12  -6  -3    1.62    1.71
  13  -5  -2    0.50    1.61
  13  -3  -1    0.35    1.39
  13  -1  -2    0.16    1.11
  15  -3  -2    0.38    1.38
  15  -1  -3    4.83    1.23
  16  -4  -3   -1.03    1.64
   0  -4   2    1.48    0.79
   4  -4   2    1.67    1.37
   4  -2   2   -0.75    0.94
   5  -5   1    1.51    1.30
   5  -3   2   17.01    1.26
   8  -6  -1    0.59    1.65
   8  -4   1    4.26    1.46
   9  -5   0    1.27    1.52
   9  -3   1    1.30    1.20
  15  -5  -3   -1.93    1.98
  19  -1  -6    5.28    1.43
  20  -2  -6    2.97    1.58
  21  -3  -7   -0.77    1.61
  21  -1  -8   -0.11    1.45
   7  -5   1   -0.10    1.46
  12  -6  -2    0.88    1.54
  12  -4   0   -1.44    1.47
  12  -2   0    0.49    1.26
  14  -4  -1    5.70    1.62
  17  -3  -3    1.32    1.53
  17  -1  -4    0.90    1.47
  18  -4  -4    1.71    1.73
  18  -2  -4   -0.92    1.43
   6  -4   2   56.80    2.15
   6  -2   2  224.38    2.77
   7  -1   1   11.47    1.28
  10  -6  -1    1.55    1.76
  10  -2   1    3.65    1.32
  11  -5   0    0.69    1.57
  12   0  -2    5.32    1.15
  13  -5  -1   -1.19    1.82
  13  -3   0   10.60    1.50
  14  -2  -1   19.61    1.47
  14   0  -3    1.32    1.35
  15  -5  -2    1.37    2.01
  15  -3  -1    1.09    1.34
  16  -4  -2    0.17    1.79
  18   0  -6   -0.16    1.24
  21  -3  -6   -1.77    1.61
  21  -1  -7   -1.17    1.52
   3  -5   2    1.86    1.35
   8  -6   0    0.70    1.66
   8  -4   2    8.08    1.68
   9  -5   1   -1.43    1.54
  10   0  -1   10.43    1.14
  11  -3   1    2.68    1.12
  11  -1   0    6.62    1.30
  13  -1  -1   -0.16    1.12
  15  -1  -2    2.01    1.33
  16   0  -4    0.08    1.26
  17  -3  -2   -0.34    1.62
  18  -4  -3    1.27    1.87
  18  -2  -3    1.38    1.32
  19  -1  -5    7.44    1.44
  20  -2  -5   -0.03    1.33
  22  -2  -7    0.49    1.24
   3  -3   3   -0.56    1.20
   5  -5   2   -0.24    1.47
   8  -2   2   43.31    1.75
   9  -3   2   82.34    2.31
  10  -6   0    0.53    1.89
  12  -6  -1    1.90    1.70
  12  -4   1   -2.13    1.45
  14  -4   0    0.42    1.61
  16  -4  -1    0.22    1.61
  17  -1  -3    1.55    1.43
  21  -3  -5   -0.19    1.75
   1  -3   3    5.02    0.78
   2  -4   3   18.53    1.43
   4  -4   3    2.55    1.26
   5  -3   3  109.39    2.27
   7  -5   2    0.84    1.47
   9  -1   1    1.33    1.31
  11  -5   1    1.73    1.58
  12  -2   1    2.10    1.39
  13  -5   0    1.18    1.58
  13  -3   1   -0.30    1.37
  14  -2   0   -0.68    1.66
  15  -3   0   -0.13    1.54
  18  -4  -2   -1.94    1.77
  18   0  -5    1.26    1.33
  19  -1  -4   -1.53    1.41
  20  -2  -4    1.04    1.48
  21  -1  -6   -1.06    1.43
  22  -2  -6   -1.17    1.53
   6  -4   3    0.89    1.47
   8  -6   1   -0.63    1.69
   9  -5   2   13.12    1.78
  12  -6   0   -0.13    1.76
  15  -1  -1    0.63    1.56
  17  -3  -1   10.72    1.76
  18  -2  -2   -0.08    1.45
  21  -3  -4    0.49    1.76
   0  -4   3    0.09    0.79
   4  -2   3    7.99    1.22
   5  -1   2   78.40    1.57
   8  -4   3    4.13    1.62
  10  -6   1    0.37    1.60
  10  -2   2    1.56    0.96
  12  -4   2   -0.13    1.46
  12   0  -1   -0.89    1.13
  13  -1   0   23.04    1.58
  14  -4   1    1.16    1.70
  14   0  -2  108.09    2.27
  16   0  -3    2.35    1.16
  17  -1  -2    3.61    1.54
  19  -3  -2   -0.18    1.90
  20  -2  -3    0.96    1.56
  21  -1  -5    0.53    1.44
  -1  -3   3    0.51    0.58
   3  -5   3    0.33    1.12
   6  -2   3    3.79    1.39
   7  -5   3    0.40    1.63
   7  -1   2    6.83    1.18
  11  -5   2    0.07    1.71
  11  -1   1    7.62    1.28
  14  -2   1   -0.60    1.68
  15  -3   1   -1.02    1.58
  18  -4  -1   -0.43    1.65
  18   0  -4    2.64    1.40
  19  -1  -3   -1.59    1.22
  21  -3  -3   -1.03    1.75
   8  -6   2    2.11    1.64
   8  -2   3    9.44    1.53
  10   0   0   49.13    1.53
  12  -6   1    0.25    1.76
  12  -2   2    1.87    1.51
  13  -3   2   -0.59    1.39
  17  -3   0    4.69    1.68
  18  -2  -1    0.78    1.55
  19  -3  -1    0.45    1.67
  22  -2  -4    1.47    1.62
  -4   4   5    6.41    1.73
   1   5   4    1.90    2.25
   7   5   2   -0.06    2.24
   8   4   0    1.12    2.48
   8   6   5    0.18    2.96
  10   4   0    6.46    2.05
  10   6   5   -1.94    3.13
  11   5   2    0.49    2.90
  13   5   2    2.06    2.99
  -1   5   5    1.87    2.22
   2   6   6    0.00    1.99
   3   5   3    0.88    2.41
   6   2  -2    1.55    1.24
   6   4   0    2.13    2.37
   6   6   5   -0.50    2.62
  14   4   0    0.41    2.20
  16   2  -2    0.45    1.75
  18   4   1   -1.64    2.26
  19   3   0   -1.59    2.47
  20   4   2   -0.62    2.32
  -3   5   6    7.39    2.10
   0   2   0  989.78    4.95
   0   4   2    0.36    1.80
   2   2  -1    8.82    1.38
   4   6   5    1.20    2.37
   5   5   2    2.30    2.34
   8   6   4   -1.09    3.08
   9   3  -2    1.12    1.98
   9   5   1    3.26    2.31
  10   6   4   -0.14    2.71
  11   1  -3   77.08    2.07
  11   3  -2   90.19    3.26
  13   1  -3    2.49    1.26
  13   3  -2   -0.94    2.26
  16   4   0    0.60    2.56
  -2   4   3    0.89    1.72
   1   3   0    1.37    1.69
   1   5   3    1.88    2.53
   4   4   0   -0.87    2.29
   6   6   4    0.96    2.96
   7   3  -2   12.50    2.16
   7   5   1    1.73    2.46
   8   4  -1    2.50    2.61
  10   2  -3    2.29    1.93
  10   4  -1    2.64    2.14
  12   2  -3    3.15    1.76
  13   5   1   -0.37    2.80
  14   4  -1    6.79    2.32
  15   3  -2    2.73    2.12
  20   4   1    0.17    2.17
  -1   5   4    1.25    2.19
   0   6   6    0.44    1.67
   3   5   2    2.90    2.51
   3   7   8    0.85    2.16
   4   6   4    5.10    2.85
   8   6   3    4.13    2.87
  10   6   3    0.69    2.72
  14   2  -3    1.27    1.86
  15   5   1   -0.97    2.60
  16   4  -1    2.02    2.50
  18   4   0    0.68    2.18
  -4   4   4    1.21    1.41
  -3   3   2   21.07    1.81
  -3   5   5   -0.29    2.06
   5   3  -2   22.48    2.12
   5   5   1   -0.19    2.23
   6   4  -1    2.01    2.15
   7   1  -3    3.28    1.13
   9   5   0   -2.09    2.64
  11   5   0    2.64    2.64
  13   5   0   -0.96    2.83
  16   2  -3    0.49    1.59
  17   3  -2    2.29    1.93
   0   6   5   -0.36    1.97
   2   6   4   -1.61    2.53
   3   7   7    0.09    2.12
   4   6   3   -0.80    2.60
   7   5   0    2.66    2.44
   9   3  -3    7.74    2.16
  10   4  -2    2.72    2.21
  10   6   2    1.83    2.75
  11   3  -3   30.22    2.45
  13   3  -3    1.36    2.22
  14   4  -2   18.58    2.63
  15   3  -3    0.06    2.35
  15   5   0   -0.26    2.95
  18   4  -1    1.02    2.45
  20   4   0    0.52    2.15
  -2   4   2    1.96    1.85
  -1   5   3    0.25    2.15
   1   5   2    0.50    2.20
   4   4  -1    5.49    2.29
   5   5   0   -2.59    2.18
   6   2  -3   17.72    1.69
   8   4  -2    5.48    2.54
  11   5  -1   -1.77    2.66
  13   5  -1   -0.60    2.42
  16   4  -2    2.52    2.31
  17   5   0    1.75    2.68
   3   7   6    1.62    2.13
   6   4  -2   -1.75    2.51
   7   3  -3   -0.17    1.77
   9   5  -1   -0.01    2.46
  10   2  -4   -0.52    1.65
  11   1  -4    1.82    1.35
  12   6   1   -0.99    3.13
  13   1  -4    1.49    1.32
  14   2  -4   -0.34    1.59
  15   5  -1    1.49    2.85
  17   3  -3    0.05    1.92
  20   4  -1   -1.77    2.15
  -5   3   3   79.83    1.93
  -3   5   4    4.12    1.99
   0   6   4   -2.45    2.32
   1   3  -1    1.12    1.58
   2   6   3   -0.43    2.42
   3   3  -2   21.81    2.30
   4   6   2    1.54    2.60
  10   4  -3    3.21    2.25
  13   3  -4    1.53    2.40
  14   4  -3    0.71    2.40
  16   2  -4   -0.10    1.64
  17   5  -1    1.32    2.69
  18   4  -2   -0.46    2.10
  -4   4   3   -0.17    1.37
   0   4   0  247.85    4.26
   1   5   1   -0.72    2.47
   3   7   5    0.31    2.23
   5   1  -3  223.03    2.33
   5   5  -1    0.33    2.12
   5   7   4   -1.71    2.40
   8   4  -3   69.13    3.44
   9   1  -4    0.51    1.33
   9   5  -2   -0.23    2.32
  10   6   0    1.30    2.98
  11   5  -2   13.44    2.94
  12   6   0    0.46    3.12
  13   5  -2   -1.77    2.76
  15   3  -4    2.84    2.18
  15   5  -2    0.89    2.56
   2   6   2    1.55    2.58
   4   2  -3   -0.58    1.56
   4   4  -2    7.13    2.03
   4   6   1   -2.25    2.77
  17   3  -4   -1.89    1.90
  17   5  -2    2.88    2.32
  18   4  -3   -1.25    2.33
  -3   3   1   38.48    1.74
  -3   5   3    3.48    2.13
  -2   4   1    0.41    1.55
   0   6   3    1.34    2.21
   1   7   5    0.66    2.20
   3   7   4   -0.17    1.96
   5   7   3    1.17    2.97
   6   4  -3    4.55    2.48
   7   3  -4    1.06    1.99
   7   5  -2    1.68    2.31
  10   4  -4   -0.86    2.25
  10   6  -1    3.98    2.95
  12   2  -5    4.41    1.85
  12   6  -1   -0.82    3.03
  13   5  -3   -2.23    2.50
   1   5   0    1.05    2.40
   5   5  -2    0.38    2.17
   6   2  -4  126.29    2.90
   7   1  -4    0.80    1.23
   8   4  -4   12.23    2.88
   8   6  -1    2.05    3.00
   9   5  -3    0.25    2.54
  10   2  -5    0.00    1.71
  11   5  -3    8.97    2.52
  13   3  -5    1.50    2.11
  14   2  -5    1.26    1.54
  15   3  -5    2.21    2.02
  15   5  -3    1.06    2.98
  16   4  -4   -0.29    2.36
  -1   5   1    0.83    2.06
   0   6   2   -1.21    2.04
   1   7   4    0.75    2.26
   3   7   3    0.30    2.33
   4   6   0   -1.84    2.59
   5   7   2    2.56    2.82
   7   5  -3    1.24    2.30
  10   6  -2    0.51    3.19
  12   6  -2    2.27    2.93
  13   1  -5    2.10    1.50
  17   3  -5   -1.18    1.91
  17   5  -3   -0.05    2.26
  18   4  -4    1.15    2.39
  -4   4   2    6.34    1.44
  -1   3  -1   -0.96    1.53
   0   4  -1    3.94    1.90
   5   3  -4  176.75    3.79
   6   4  -4   23.03    2.56
   8   6  -2    0.80    2.64
  11   1  -5    0.40    1.39
  11   5  -4   -0.58    2.59
  14   4  -5   -1.25    2.40
  15   5  -4   -1.06    2.79
  16   4  -5    2.69    2.40
  -3   5   2    2.03    1.89
  -2   4   0    0.49    1.73
  -2   6   3   -1.06    2.28
   1   5  -1    0.61    2.28
   1   7   3   -0.23    2.03
   2   6   0   -0.92    2.35
   3   7   2    0.68    2.72
   4   6  -1    1.55    2.51
   5   5  -3   13.81    2.35
   7   3  -5    2.42    1.89
   9   5  -4   -0.12    2.77
  10   4  -5   -1.02    2.06
  12   6  -3    2.58    2.68
  17   5  -4    1.88    2.61
  -5   3   2   20.37    1.26
  -1   5   0    2.99    2.29
   0   6   1   -0.36    2.32
   7   5  -4    0.47    2.26
   8   4  -5   -2.30    2.68
   9   1  -5  121.92    2.51
  10   6  -3   -1.60    3.01
  11   3  -6    2.20    2.10
  12   2  -6    0.97    1.59
  13   3  -6    0.37    2.35
  14   2  -6   -0.66    1.43
  15   3  -6    0.99    2.02
  18   4  -5   -0.08    2.00
  -3   3   0  149.62    2.59
  -2   6   2   -0.54    2.57
   1   7   2   -3.40    2.76
   3   7   1    3.60    2.76
   4   4  -4    2.39    2.11
   5   7   0    1.80    2.89
   6   2  -5   89.86    2.40
   8   6  -3    8.25    3.12
  10   2  -6    0.86    1.52
  11   5  -5   -2.82    2.75
  12   4  -6   -0.87    2.38
  14   4  -6   -0.56    2.51
  16   4  -6    4.64    2.21
  17   3  -6    1.44    1.73
  17   5  -5   -2.47    2.60
  -4   4   1    6.75    1.65
  -3   5   1    4.70    2.20
   0   4  -2    1.49    1.77
   1   3  -3    0.55    1.71
   2   6  -1    2.10    2.49
   3   3  -4   17.78    2.01
   4   6  -2    1.58    2.78
   5   1  -4  508.66    3.48
   6   4  -5   19.07    2.68
  10   4  -6    1.30    2.21
  10   6  -4   -1.62    2.94
  12   6  -4    2.98    2.61
  18   4  -6    0.41    2.31
   0   6   0   24.16    2.84
   1   5  -2    5.08    2.47
   3   7   0    2.83    2.77
   5   5  -4   28.59    2.67
   5   7  -1   -0.87    2.91
   7   5  -5   -1.26    2.31
   8   4  -6   -1.05    2.65
   8   6  -4    1.92    2.91
  13   3  -7   28.49    2.68
  15   3  -7   -0.25    2.01
  15   5  -6    2.07    2.37
  -2   4  -1    3.76    1.69
  -2   6   1    1.47    2.37
  -1   3  -2    1.97    1.45
  -1   5  -1    0.86    2.04
   1   7   1    0.91    2.72
   7   1  -5    9.92    1.39
   7   3  -6   11.27    1.98
  11   3  -7    2.60    2.46
  11   5  -6    1.10    2.56
  12   6  -5   -0.33    3.01
  14   2  -7    7.38    2.10
  14   4  -7    0.42    2.49
  16   4  -7    7.78    2.12
  17   3  -7    0.06    1.64
  17   5  -6   -1.24    2.67
   2   6  -2   -1.00    2.50
   3   7  -1    0.09    2.67
   4   4  -5    4.07    2.39
   4   6  -3   -2.47    2.49
   5   7  -2    0.15    2.53
   6   6  -4    3.78    2.90
   9   5  -6   -0.24    2.60
  10   4  -7   10.57    2.30
  10   6  -5    1.67    2.62
  11   1  -6   10.62    1.48
  12   2  -7   11.51    2.10
  18   4  -7    0.23    2.24
  -3   5   0   23.59    2.31
   0   4  -3    0.74    1.78
   1   5  -3    0.68    2.35
   1   7   0   -1.04    2.69
   4   2  -5   40.11    1.94
   5   5  -5    8.09    2.36
   6   4  -6    3.28    2.55
   7   5  -6   -0.95    2.27
   8   6  -5    4.36    2.99
  10   2  -7   38.90    2.23
  11   5  -7    3.37    2.50
  12   6  -6   -1.78    2.56
  15   5  -7    0.99    2.80
  17   5  -7    1.04    2.27
  -5   3   1    1.57    1.17
  -4   4   0    0.50    1.44
  -3   3  -1  288.47    3.49
  -1   5  -2    0.74    2.17
   2   2  -4  213.16    2.78
   2   6  -3    1.80    2.68
   6   2  -6   21.09    2.03
   8   4  -7    2.88    2.59
   9   1  -6   13.43    1.66
  10   6  -6   -0.13    3.10
  12   4  -8    2.20    2.71
  13   3  -8    9.28    2.20
  14   4  -8    0.17    2.32
  15   3  -8    2.24    1.69
  16   4  -8   -0.27    2.34
  17   3  -8    0.74    1.59
  -2   4  -2   11.06    1.83
   1   7  -1    2.65    2.63
   3   7  -2    1.92    2.75
   5   7  -3    0.96    2.60
   6   6  -5    0.79    2.62
   7   3  -7    6.36    2.06
   8   6  -6   -0.28    2.45
   9   5  -7    5.20    2.48
  10   4  -8   17.23    2.34
  11   3  -8    1.98    2.18
  15   5  -8   -2.22    2.80
  -1   3  -3    5.51    1.67
   0   2  -3    0.34    0.82
   1   5  -4    0.62    2.32
   2   4  -5   91.59    3.06
   4   4  -6    0.94    2.20
   5   5  -6   -1.46    2.28
   6   4  -7    0.79    2.56
   8   2  -7    3.31    2.02
  11   5  -8    0.70    2.76
  12   2  -8   17.02    2.44
  14   2  -8    2.12    2.07
  17   5  -8    0.44    2.41
  -3   5  -1   40.30    2.53
  -2   6  -1   -0.98    2.21
   0   4  -4    6.33    1.75
   2   6  -4    5.18    2.49
   3   7  -3   -2.65    2.76
   5   1  -5   94.04    1.86
   5   7  -4    1.47    3.12
   6   6  -6   -0.36    2.81
   8   4  -8   -0.01    2.27
   9   5  -8    0.34    2.48
  10   6  -7    2.26    2.72
  14   4  -9    1.56    2.22
  15   3  -9    2.79    1.94
  16   4  -9   -2.56    2.35
  -1   5  -3    1.39    2.02
   0   6  -3    1.29    2.41
   1   7  -2   -0.34    2.77
   3   3  -6   68.74    2.62
   5   3  -7    5.55    2.01
   7   1  -6   38.36    1.74
  10   2  -8   61.02    2.51
  12   4  -9   -0.73    2.02
  13   3  -9    1.31    2.08
  13   5  -9   -0.67    2.62
  15   5  -9    1.48    2.64
  17   3  -9    0.14    1.53
  18   4  -9    1.11    1.92
  -4   4  -1    2.33    1.46
  -2   4  -3   18.62    1.89
   1   3  -5    5.18    1.88
   1   5  -5    0.59    2.14
   3   7  -4   -0.55    2.43
   4   2  -6    2.44    1.73
   4   4  -7    5.39    2.21
   7   3  -8   30.86    2.40
   7   5  -8    5.34    2.67
  10   4  -9    8.89    2.20
  10   6  -8    2.53    2.87
  11   5  -9   -1.33    2.90
  -5   3   0    0.73    1.43
  -3   3  -2    4.00    1.48
  -3   5  -2    3.70    1.94
  -2   6  -2    1.54    2.11
   1   7  -3    0.67    2.79
   2   2  -5  335.11    3.69
   2   4  -6    6.21    1.85
   2   6  -5   11.83    2.70
   6   4  -8    4.36    2.48
   6   6  -7   -0.42    2.69
   8   4  -9    5.07    1.97
   8   6  -8   -3.33    2.62
   9   5  -9   -3.43    2.70
  14   2  -9    2.92    1.99
  14   4 -10    2.86    2.47
  16   4 -10   -0.48    2.25
  -1   5  -4    1.06    2.22
   0   4  -5   14.14    2.10
   0   6  -4   -0.24    2.45
   8   2  -8   10.64    1.85
   9   1  -7   58.72    2.03
  10   6  -9    1.23    3.05
  12   2  -9    5.29    2.08
  12   4 -10   -2.28    2.49
  13   3 -10    2.65    2.35
  15   3 -10    2.12    2.05
  15   5 -10   -0.44    2.69
  17   3 -10   -1.20    2.02
  18   4 -10   -0.63    1.88
   0   2  -4   38.90    1.64
   1   7  -4    0.16    2.50
   3   3  -7    3.84    1.85
   3   7  -5   -0.62    2.79
   5   3  -8    3.47    2.06
   5   5  -8    1.01    2.24
   6   6  -8    1.29    3.10
   7   5  -9    7.62    2.84
  11   3 -10    7.73    2.29
  11   5 -10    2.88    2.84
  13   1  -8   25.90    1.72
  -4   4  -2    1.88    1.50
  -3   5  -3    2.08    2.04
  -2   4  -4    6.86    1.81
  -2   6  -3    1.34    2.10
   1   5  -6    3.90    2.08
   2   4  -7    0.95    2.30
   2   6  -6    1.02    2.44
   6   4  -9    0.36    2.82
   7   3  -9   41.72    2.63
   8   6  -9    2.08    3.10
   9   5 -10    2.00    2.74
  10   2  -9   42.24    2.44
  14   4 -11   -0.71    2.33
  15   5 -11    0.65    2.38
  16   4 -11   -1.72    2.37
  -6   4   0    1.87    1.45
  -1   5  -5   25.73    2.67
  -1   7  -3    0.31    2.56
   0   6  -5   -1.33    2.46
   1   3  -6   39.57    2.20
   3   7  -6   -0.11    2.83
   4   2  -7   24.73    2.03
   6   2  -8   31.16    2.24
   8   4 -10    7.26    2.46
  10   6 -10   -0.61    3.02
  11   1  -8    8.84    1.49
  12   4 -11    1.15    2.28
  13   5 -11    0.11    2.86
  14   2 -10    2.43    2.22
  15   3 -11    1.35    2.23
  18   4 -11    0.27    1.55
  -3   3  -3   -0.64    1.46
  -2   6  -4    0.85    2.20
   1   7  -5    1.12    2.63
   2   2  -6   26.88    1.77
   2   6  -7    0.57    2.52
   5   5  -9    5.84    2.44
   6   6  -9   -0.84    2.87
   7   1  -7   15.13    1.56
   7   5 -10    7.43    3.01
   8   2  -9   12.12    1.88
   8   6 -10    2.30    2.73
  11   5 -11    0.94    2.51
  12   2 -10    0.59    2.03
  -5   3  -1    1.54    1.40
  -1   7  -4    1.68    2.61
   0   6  -6   -1.18    2.11
   1   5  -7    4.76    2.01
   3   1  -5   51.68    1.34
   3   7  -7   -0.48    2.56
   4   4  -9    4.32    2.74
   5   3  -9   30.73    2.49
   6   4 -10    2.11    2.19
   9   5 -11   -1.44    2.89
  13   5 -12    1.30    2.40
  14   4 -12   -0.45    2.08
  15   5 -12    3.14    2.67
  16   4 -12    1.81    1.94
  -5   5  -2    3.70    1.79
  -4   4  -3    3.31    1.58
  -3   5  -4    1.79    2.10
   1   7  -6   -3.05    2.67
   2   4  -8   13.27    2.53
   6   6 -10    1.15    2.68
   7   3 -10   39.77    2.60
   8   4 -11    0.94    2.24
   9   1  -8    2.39    1.57
  10   2 -10    1.53    2.02
  11   5 -12    1.68    2.69
  12   4 -12    2.87    2.18
  13   1  -9    0.25    1.61
  -6   4  -1   60.33    2.13
  -2   6  -5    1.61    2.09
   0   2  -5   87.66    2.16
   1   3  -7   40.11    2.31
   2   6  -8    0.70    2.50
   3   5  -9    0.45    2.21
   5   5 -10   -1.87    2.50
   7   5 -11    4.37    2.67
   8   6 -11    3.40    2.82
  13   3 -12    1.39    2.23
  14   2 -11    1.57    2.29
  15   3 -12   11.11    2.39
  -1   7  -5    2.17    2.60
   0   6  -7    2.48    2.30
   1   5  -8   -0.34    2.00
   1   7  -7   -0.40    2.63
   4   2  -8   64.83    2.57
   4   4 -10   52.60    3.20
   6   2  -9   10.96    1.95
   6   4 -11    3.88    2.04
   9   5 -12    1.01    2.18
  11   1  -9    7.95    1.50
  11   3 -12    4.07    2.25
  13   5 -13    1.76    2.46
  14   4 -13   -0.54    2.31
  16   4 -13   -0.84    1.99
  -5   5  -3   16.51    2.23
  -3   3  -4    8.64    1.61
  -3   5  -5    2.06    2.09
  -1   5  -7    6.04    2.09
   2   2  -7    4.29    1.61
   2   4  -9    5.23    2.27
   2   6  -9    1.20    2.76
   3   3  -9    3.81    1.89
   5   3 -10    2.54    2.03
   5   5 -11    3.36    2.26
   6   6 -11   -0.71    2.86
   7   3 -11   19.53    2.42
   8   4 -12    2.30    2.27
   8   6 -12    1.80    2.59
  -5   3  -2   16.88    1.48
  -4   4  -4    7.30    1.82
  -2   6  -6    0.19    2.23
  -1   7  -6    3.34    2.52
   3   5 -10    0.48    2.04
   7   1  -8   79.28    2.18
   7   5 -12    3.40    2.36
   9   3 -12    3.45    2.57
   9   5 -13    1.72    2.39
  10   2 -11   10.73    2.14
  15   3 -13    4.94    2.38
  -6   4  -2   57.93    2.19
   1   5  -9   -0.51    2.05
   1   7  -8    0.19    2.51
   9   1  -9   13.92    1.72
  13   1 -10    5.19    1.63
  13   3 -13    1.40    2.11
  13   5 -14   -2.42    2.66
  14   2 -12   -0.11    2.07
  14   4 -14   -0.32    2.56
  16   4 -14    1.80    2.39
  -1   5  -8    2.41    1.95
  -1   7  -7    1.59    2.38
   2   4 -10    3.39    2.36
   2   6 -10   -2.00    2.73
   3   1  -6  207.57    2.39
   3   5 -11   -1.06    2.13
   5   5 -12    0.83    2.55
   6   2 -10    0.27    1.85
   6   4 -12    0.61    2.14
   7   5 -13   -1.03    2.50
   8   4 -13   -1.47    2.35
  12   2 -12    3.16    2.06
  12   4 -14    1.98    2.46
  -4   4  -5   12.71    2.00
  -3   3  -5    3.06    1.51
  -2   4  -7    0.37    1.91
  -2   6  -7   -0.54    2.09
   0   6  -9    0.28    2.53
   1   5 -10    7.01    2.18
   3   3 -10    8.41    2.16
   4   2  -9   11.43    1.55
   5   3 -11    4.55    2.22
   7   3 -12    1.88    2.39
   8   2 -11    1.60    1.86
   9   5 -14    8.67    3.01
  11   1 -10   17.13    1.56
  15   3 -14    0.21    2.23
   2   2  -8   71.84    2.53
   6   6 -13    3.49    2.93
   9   3 -13    3.52    2.27
  10   2 -12    5.06    2.21
  13   3 -14   -1.45    2.31
  14   4 -15   -1.00    2.64
  16   4 -15    1.25    2.11
  -7   3   0    9.72    1.14
  -5   3  -3  108.69    2.25
  -3   5  -7    0.46    2.09
  -2   6  -8   -0.15    2.26
  -1   7  -8    1.07    2.31
   1   3  -9    4.82    1.82
   2   4 -11    0.93    2.13
   2   6 -11   -0.49    2.39
   3   5 -12    2.67    2.48
   4   4 -12    1.14    2.21
   5   5 -13   -0.15    2.67
   6   4 -13    5.06    2.13
   7   1  -9   98.13    2.43
   7   5 -14   -0.10    2.89
   8   4 -14   -0.27    2.54
  11   3 -14    0.92    2.29
  14   2 -13    0.88    2.25
  -5   5  -5    0.63    2.03
  -2   4  -8    2.97    1.85
   1   1  -5   20.44    0.86
   1   5 -11   14.02    2.62
   4   6 -13    0.66    2.49
   6   2 -11   10.50    1.97
   7   3 -13   -3.30    2.63
   9   1 -10   12.83    1.59
   9   5 -15   -0.19    2.91
  10   4 -15    1.81    2.88
  12   2 -13   28.76    2.49
  13   1 -11    0.16    1.44
  15   3 -15   -0.35    2.50
  16   4 -16    0.38    2.56
  -4   4  -6   27.81    2.12
  -3   3  -6   35.73    2.01
  -1   7  -9   -0.42    2.32
   0   2  -7  115.72    2.57
   2   6 -12    0.96    2.81
   4   2 -10  184.09    3.58
   8   2 -12    8.87    1.94
   9   3 -14   23.37    2.59
  12   4 -16    1.43    2.83
  13   3 -15    5.62    2.58
  -5   5  -6    0.00    2.23
  -4   6  -7    4.38    2.22
  -3   5  -8    8.04    2.19
  -2   6  -9   -0.18    2.33
  -1   5 -10   -0.50    2.30
   0   6 -11    1.79    2.40
   1   3 -10   26.03    2.28
   2   2  -9   22.52    2.17
   2   4 -12    1.60    1.98
   3   5 -13   -0.03    2.79
   4   4 -13    1.07    2.06
   5   5 -14   -0.98    2.64
   6   4 -14    1.41    1.87
   7   5 -15    0.89    2.45
   8   4 -15   -0.20    2.59
   9   5 -16   -0.07    2.51
  10   2 -13    1.24    2.08
  11   1 -11   -1.97    1.50
  11   3 -15   -1.24    2.40
  14   2 -14    2.15    2.24
  -5   3  -4    1.99    1.48
  -2   4  -9    2.61    2.27
   2   6 -13   -0.80    2.63
   4   6 -14    4.03    2.83
   7   3 -14    1.93    2.26
  10   4 -16    0.40    2.69
  12   2 -14    5.74    2.43
  14   4 -17    0.85    2.61
  15   3 -16    0.06    2.63
  16   4 -17   -1.78    2.45
  -7   3  -1    3.32    1.23
  -4   2  -3    8.43    1.10
  -4   4  -7   27.10    2.31
  -4   6  -8   -0.15    2.44
  -3   5  -9    0.39    2.21
  -2   6 -10   -0.43    2.46
   3   3 -12    6.00    2.27
   4   2 -11   10.90    1.90
   5   5 -15    0.41    2.79
   7   1 -10  114.76    2.73
   8   2 -13    1.40    2.07
   9   1 -11    2.02    1.48
   9   3 -15    2.64    2.23
  12   4 -17    2.06    2.87
  13   3 -16    1.31    2.42
  -5   5  -7   -0.59    2.34
  -3   3  -7    8.96    1.60
  -1   5 -11    0.56    2.16
   0   2  -8   -0.63    1.70
   0   6 -12    1.67    2.59
   1   1  -6  158.58    2.14
   1   3 -11   74.83    2.83
   3   5 -14   -1.12    2.45
   4   4 -14    1.18    2.11
   8   4 -16   -2.03    2.52
   9   5 -17   -0.74    2.70
  10   2 -14    3.61    2.23
  11   3 -16    0.26    2.42
  -6   4  -5    2.17    1.60
   2   2 -10   12.58    1.93
   2   6 -14    0.89    2.53
   3   1  -8    4.38    1.45
   5   3 -14    5.60    2.56
   7   3 -15    1.11    2.14
  10   4 -17    2.60    2.45
  11   1 -12    5.82    1.64
  14   2 -15    0.25    2.01
  14   4 -18    0.05    2.72
  15   3 -17   -0.23    2.20
  -5   3  -5    0.92    1.31
  -4   4  -8    7.58    2.07
  -4   6  -9    0.75    2.34
  -3   5 -10    0.84    2.19
  -2   6 -11    0.96    2.21
  -1   5 -12    0.94    2.23
   0   6 -13    0.95    2.39
   3   3 -13   13.29    2.38
   4   4 -15    1.91    2.35
   5   5 -16   -2.23    2.55
   6   4 -16    0.53    2.63
   8   4 -17   -1.21    2.41
   9   3 -16    4.85    2.41
  12   2 -15    1.93    2.16
  12   4 -18   -1.20    2.52
  13   3 -17    2.32    2.40
  -7   3  -2    1.96    1.20
  -5   5  -8    0.49    1.92
  -4   2  -4   51.18    1.67
  -3   3  -8   36.09    2.03
  -1   3 -10   12.43    2.06
   2   4 -14   -0.09    2.25
   4   2 -12   19.96    2.19
   7   1 -11   50.44    2.16
   8   2 -14    2.97    1.93
   9   1 -12    6.49    1.80
  10   2 -15    7.14    2.45
  10   4 -18    0.59    2.77
  11   3 -17   -2.55    2.37
  -6   4  -6    1.16    1.62
  -4   6 -10    0.16    2.29
  -2   2  -7   -0.55    1.41
  -2   4 -11   10.20    2.42
  -2   6 -12    1.45    2.46
   0   6 -14   -0.14    2.49
   1   3 -12   -1.16    1.57
   5   3 -15    0.83    2.05
  14   2 -16   -0.04    2.04
  15   3 -18    1.98    2.32
  -5   3  -6    0.20    1.50
  -5   5  -9    0.70    2.19
  -4   4  -9    9.71    1.95
  -3   5 -11    1.87    2.23
   0   4 -13   -0.48    2.15
   1   1  -7  141.16    2.32
   2   2 -11    4.68    1.36
   3   3 -14    2.86    2.45
   3   5 -16    0.72    2.61
   4   4 -16    0.44    2.60
   8   4 -18    2.23    2.73
   9   3 -17   -2.26    2.37
  11   1 -13    4.81    1.74
  12   2 -16   -1.57    2.13
  12   4 -19   -0.70    2.43
  13   3 -18   -0.04    2.51
  -4   6 -11    0.61    2.29
  -3   3  -9   -0.56    1.59
  -2   6 -13   -2.49    2.37
  -1   3 -11   -0.97    1.93
   3   1  -9   23.87    1.67
   4   2 -13   -0.28    1.98
   8   2 -15    1.33    2.18
  10   4 -19    0.43    2.83
  11   3 -18    3.95    2.56
  -7   3  -3    9.98    1.08
  -6   4  -7    6.87    1.93
  -3   5 -12   -0.88    2.30
  -1   1  -5  442.30    3.04
   0   2 -10    3.21    1.75
   0   4 -14    1.13    2.18
   3   5 -17   -1.39    2.67
   5   3 -16    0.84    2.23
   5   5 -18    2.40    2.37
   6   4 -18    1.76    2.31
   7   1 -12    0.13    1.57
   9   1 -13   10.82    1.83
  10   2 -16    4.17    2.20
  -5   5 -10    0.71    2.00
  -4   4 -10   -0.17    1.94
  -2   2  -8   22.13    1.85
  -2   6 -14    1.52    2.45
   2   2 -12    8.62    1.99
   2   4 -16   -0.42    2.25
   3   3 -15   25.88    2.44
   4   4 -17    3.25    2.43
   9   3 -18    2.47    2.18
  10   4 -20    1.63    2.34
  11   1 -14    0.07    1.71
  12   2 -17    0.44    2.12
  13   3 -19    2.56    2.15
  -6   4  -8   15.60    2.15
  -5   3  -7   10.56    1.57
  -3   3 -10   13.78    1.98
  -3   5 -13   -0.56    2.36
  -1   3 -12   -0.33    2.19
   1   1  -8   23.39    1.63
   1   3 -14    1.69    2.33
   3   1 -10   42.65    2.03
   3   5 -18    0.32    2.38
   4   2 -14    0.57    2.05
   8   2 -16    1.15    2.39
  11   3 -19    2.61    2.54
  -7   3  -4    5.49    1.32
  -5   5 -11    1.12    1.78
  -4   4 -11    0.46    2.16
  -2   4 -13    1.89    1.96
  -1   5 -15   -2.31    2.36
   0   2 -11   34.36    2.25
   0   4 -15    4.41    2.19
   3   3 -16    7.91    2.29
   4   4 -18    2.98    2.84
   5   3 -17    0.26    2.21
   7   1 -13   -0.08    1.64
   8   0  -9   13.72    1.29
   9   1 -14   53.05    2.65
  10   2 -17    2.00    1.86
  13   3 -20    0.34    2.57
  -4   2  -6  102.27    2.30
  -4   6 -13    1.40    2.31
  -2   2  -9   11.35    1.86
  -1   1  -6  178.82    2.28
  -1   3 -13   15.79    2.32
   2   2 -13   29.60    2.45
   6   0  -8   48.45    1.61
  11   3 -20   -1.32    2.55
  12   2 -18    0.89    2.07
  -6   4  -9    0.40    1.82
  -3   3 -11   15.56    2.11
  -3   5 -14    0.40    2.46
  -2   4 -14   -0.26    2.35
  -1   5 -16   -1.16    2.77
   1   3 -15    2.05    1.98
   4   2 -15    2.43    2.28
   5   3 -18    2.46    2.23
   6   4 -20    4.26    2.59
   8   2 -17    0.18    1.94
  10   2 -18    1.16    1.85
   6   0  -1    3.86    0.88
   6   2   8   58.26    2.11
   9   1   3   93.17    2.77
  10   2  10    2.22    1.89
  11   1   4   16.08    1.65
  12   2  12   -0.45    1.84
  13  -1  -2   -0.75    1.66
  13   1   5    3.21    2.19
  14   2  16    0.56    2.01
  14   2  17   -0.69    1.98
  15  -1  -1    0.57    1.95
  15   1   7    2.12    2.30
  16   0   3    0.40    1.92
  17   1  10   -0.04    2.59
  18  -2  -1    0.22    1.84
  18   0   5    4.88    2.68
  19  -1   2   -0.03    2.05
  20  -2   1    2.89    1.95
  20   0   8   -0.53    2.83
  21  -1   5   -2.46    2.53
  22  -2   3    0.26    2.20
   2   2   8   19.18    1.19
   8   0  -1   37.91    1.80
   8   2   8   17.86    1.90
  10   2   9   24.22    2.36
  11  -1  -3   74.11    2.29
  12   0   0    0.85    1.78
  12   2  11    4.20    2.10
  14   0   1   -0.69    1.97
  14   2  14   -0.15    2.00
  14   2  15   -1.68    2.10
  15   1   6   -2.27    2.16
  16  -2  -3    0.08    1.92
  17  -1   0   12.20    2.05
  17   1   9    2.26    2.54
  18   0   4    3.48    2.25
  20   0   7    1.18    2.62
  21  -1   4   -1.67    2.64
  10   0  -1    9.37    1.79
  11   1   3   10.04    2.02
  12   2  10    3.29    2.01
  14  -2  -4   -0.47    1.45
  14   2  12    1.36    1.75
  14   2  13    0.04    1.90
  16   0   2   -0.85    1.93
  17   1   8   -1.98    2.48
  18  -2  -2   -0.87    1.79
  19  -1   1    3.33    2.25
   4   2   7  106.32    2.21
   5   1   2   75.98    1.73
   6   2   7   42.73    1.98
   7   1   2    6.13    1.45
   8   2   7   -0.57    1.63
   9   1   2  248.01    3.81
  12   2   9    1.16    2.23
  14   0   0   -0.51    1.82
  14   2  11    0.94    2.13
  15  -1  -2    2.86    1.88
  15   1   5   11.64    2.33
  17  -1  -1   22.30    2.53
  17   1   7   -0.44    2.38
  18   0   3    0.53    2.34
  19   1  10   -2.75    2.77
  20   0   5   -0.12    2.41
  10   2   7    3.35    1.87
  12  -2  -5    3.48    1.16
  12   0  -1    1.40    1.66
  12   2   8    3.93    2.24
  13  -1  -3    2.86    1.49
  13   1   3    1.25    2.13
  14   2  10   -0.37    2.28
  16   0   1   15.99    2.30
  16   2  13    0.70    2.15
  16   2  14    0.29    1.95
  16   2  15   -1.49    1.89
  17   1   6   10.43    2.63
  19  -1   0   -0.32    2.10
  19   1   9    2.16    2.65
  20  -2  -1    0.78    2.06
  21  -1   2   -1.03    2.53
  22  -2   1   -1.75    2.19
   9  -1  -4    1.31    1.20
  11   1   2   -0.44    1.82
  14   2   9    5.02    2.29
  16  -2  -4    1.77    1.58
  16   2  12    1.06    2.15
  18  -2  -3    1.44    1.77
  18   0   2    0.71    2.22
  19   1   8    2.40    2.62
  20   0   4   -0.80    2.52
  22  -2   0    0.59    2.16
   2   2   7   -0.44    0.94
   8   0  -2   34.20    1.56
   8   2   6   -1.03    1.58
  10   2   6    7.17    1.81
  11  -1  -4    1.85    1.43
  13   1   2    3.04    1.80
  14  -2  -5   -0.70    1.60
  14   2   8   -0.56    2.37
  15  -1  -3    1.96    1.93
  15   1   3   15.15    2.51
  16   2  11   -0.01    2.65
  17  -1  -2    4.42    2.16
  17   1   5   -0.17    1.68
  19  -1  -1    0.03    2.18
  20  -2  -2    0.73    1.80
  20   0   3   -2.58    2.56
  21  -1   1    2.57    2.43
   4   2   6  107.37    2.19
   7   1   1   11.35    1.61
   9   1   1    0.15    1.83
  10   0  -2    8.65    1.73
  16   2  10    9.77    2.31
  17   1   4    0.90    2.25
   6   0  -2   11.84    0.87
   8   2   5    0.37    1.62
  11   1   1    6.91    1.98
  13  -1  -4    3.42    1.54
  15   1   2    4.07    2.46
  16   2   9    1.90    2.22
  18   2  11    3.70    2.21
  18   2  12    0.29    2.19
  19   1   5    1.11    2.55
  21  -1   0   -0.86    2.28
  22   0   4    1.61    2.72
  13   1   1    2.94    1.92
  17  -1  -3    2.46    2.10
  17   1   3    1.72    2.04
  18   2  10   -0.66    2.65
  19  -1  -2    0.34    2.01
  23  -1   1    5.70    2.06
   9   3  12    3.37    1.98
  11   3  12    1.74    2.00
  11   3  13    1.83    1.91
  13   3  14    0.11    1.92
  15  -1  -4    4.05    1.81
  18   2   9    0.47    2.74
  19   1   4    0.74    2.33
  21  -1  -1    0.02    2.04
  21   1   6    1.46    2.58
   4   2   5   61.05    1.97
   7   3  11    1.52    1.60
   9   1   0    8.07    1.85
   9   3  11    2.20    1.79
  11   1   0    6.70    1.82
  13   3  13   -0.65    1.89
  14   2   5   12.66    2.13
  15   1   1    0.12    2.30
  16   2   6    1.22    2.26
  17   1   2    1.66    1.56
  18   0  -1    1.72    2.04
  19  -1  -3    1.74    1.70
  19   1   3    0.78    2.34
  20   0   0   11.81    2.24
  21   1   5    1.81    2.67
  22   0   2    1.68    2.50
  23  -1   0    0.73    2.27
   9  -1  -5  119.10    2.21
   9   3  10    1.12    1.92
  11  -1  -5    0.74    1.25
  11   3  11    2.28    1.86
  12   2   4    8.29    2.20
  13  -1  -5    1.44    1.42
  13   1   0   23.66    2.34
  13   3  12    1.27    1.94
  15   3  14    0.35    1.90
  17  -1  -4    0.77    2.06
  17   1   1   -0.01    2.03
  18   2   7   -2.51    2.57
  21  -1  -2    0.66    2.24
  21   1   4    1.97    2.43
  22   0   1    0.91    2.31
   6   2   4    2.76    1.35
   7   3  10    4.36    1.58
  13   3  11    1.34    2.02
  14   0  -3    2.60    1.80
  14   2   4    3.61    2.00
  15  -1  -5    0.45    1.78
  15   1   0    0.76    2.31
  15   3  12    0.28    2.04
  15   3  13    0.65    1.64
  16   2   5   -2.22    2.13
  18   0  -2    0.70    1.99
  18   2   6    5.75    2.54
  19   1   2    0.04    2.37
  20   0  -1    1.76    2.02
  23  -1  -1   -2.14    2.15
   5   3  10    9.22    1.60
   9   3   9    4.01    1.80
  10   2   3    2.20    1.72
  11   1  -1    1.86    1.88
  11   3   9    1.49    1.99
  12   2   3   78.68    3.09
  13   3  10    5.49    2.18
  15   3  11   -0.78    2.44
  16   0  -3    3.52    2.00
  16   2   4    0.68    2.12
  19  -1  -4    0.16    1.66
  20   2   7    1.44    2.29
  21   1   3   -1.23    2.22
  22   0   0    1.36    2.54
   5   1   0    3.09    0.92
   7   3   9   -0.11    1.53
   9   1  -1    5.59    1.69
  13   1  -1   -0.24    1.86
  13   3   9    4.13    2.17
  14   2   3    0.39    2.11
  15   1  -1    1.69    2.18
  15   3  10   -1.31    2.35
  17  -1  -5    1.41    1.73
  17   1   0    8.37    2.27
  17   3  12    0.00    1.88
  18   2   5    4.45    2.38
  20   0  -2   -0.94    2.28
  20   2   6   -0.37    2.35
  21   1   2   -3.29    2.46
  23  -1  -2    0.28    1.93
   4   2   4   49.46    1.65
   6   0  -3   49.74    1.25
   9   3   8    0.41    1.75
  11   3   8   -0.18    2.18
  12   2   2    5.59    1.93
  13   3   8    4.14    2.00
  14   0  -4    3.88    1.76
  15   3   9    0.41    2.23
  16   2   3    0.12    2.06
  17   3  11   -0.67    2.31
  18   0  -3    0.38    1.89
  18   2   4    1.94    2.66
  19   1   0    0.90    2.10
  21  -1  -4   -1.23    2.10
  22   0  -1   -0.34    2.36
   5   3   9    4.62    1.21
   7   1  -1   37.86    1.71
   7   3   8   57.53    2.23
  10   0  -4    2.36    1.31
  10   2   2    1.12    1.22
  11  -1  -6   10.12    1.41
  11   3   7   -2.24    2.12
  13  -1  -6    9.84    1.43
  14   2   2    1.60    2.38
  15  -1  -6    2.77    1.70
  15   3   8    1.95    2.28
  17   1  -1   24.51    2.42
  17   3   9    1.86    2.49
  17   3  10   -1.64    2.10
  18   2   3    0.37    2.20
  19  -1  -5    9.24    2.05
  20   2   5    2.45    2.47
  21   1   1    0.37    2.40
  23  -1  -3   -0.44    2.16
   8   2   2   41.39    2.12
   9   3   7   12.18    1.94
  11   1  -2  240.09    3.84
  13   3   7    1.16    1.77
  15   1  -2    2.97    2.21
  15   3   7    0.18    1.99
  16   2   2   -0.84    2.09
  17  -1  -6    3.49    2.00
  17   3   8    0.97    2.53
  18   0  -4    1.33    2.01
  19   1  -1   -1.37    2.01
  20   0  -3   -1.88    2.04
  20   2   4    1.41    2.58
  21   1   0    0.26    2.22
   5   3   8    1.22    1.36
   7   3   7   16.41    1.74
   9   1  -2    3.12    1.64
  11   3   6    0.09    2.04
  12   2   1    0.75    2.09
  14   2   1   -1.75    2.31
  17   1  -2    2.79    2.00
  18   2   2   -1.32    2.50
  20   2   3   -0.91    2.53
  21  -1  -5    1.43    1.97
  23  -1  -4    0.62    2.04
   9  -1  -6   12.50    1.17
   9   3   6   15.01    2.08
  10   2   1    2.34    1.26
  12   0  -5    9.39    1.55
  14   0  -5   -0.07    1.71
  15   3   6    0.37    2.11
  16   2   1    9.55    2.21
  17   3   7   -1.87    2.22
  19  -1  -6    4.89    1.83
  20   0  -4    0.78    1.92
  22   0  -3   -1.06    2.34
   4   2   3    8.51    1.16
   8   2   1   29.79    2.10
  11   3   5   12.95    2.24
  13   1  -3    1.73    1.87
  13   3   5    0.76    1.79
  14   2   0    0.00    2.25
  15   1  -3    1.96    2.11
  15   3   5    7.71    2.24
  17   3   6    5.39    2.54
  18   0  -5    1.99    1.89
  18   2   1   -1.55    2.34
  20   2   2    1.39    2.25
   5   1  -1    6.54    1.00
   5   3   7   10.44    1.53
   7   3   6   23.86    1.77
   9   3   5    0.50    1.71
  10   0  -5    5.72    1.45
  11   1  -3   69.79    2.57
  12   2   0   -1.34    1.74
  13  -1  -7   65.92    2.07
  15  -1  -7    1.07    1.51
  16   2   0    5.09    2.15
  17  -1  -7   -0.53    1.57
  17   3   5    2.45    2.42
  19   3   6   -1.01    2.50
  20   2   1    0.54    2.48
  21  -1  -6    0.86    1.94
  22   0  -4    5.43    2.36
  24   0  -3    0.87    2.25
   7   1  -2   20.36    1.27
  11   3   4    9.28    2.07
  15   3   4    6.98    2.29
  18   2   0   -0.38    2.11
  19  -1  -7   -1.73    2.03
  20   0  -5    0.77    1.92
   7   3   5    1.56    1.67
   9   1  -3   24.08    1.89
   9   3   4    1.51    1.90
  11  -1  -7   11.77    1.17
  12   2  -1   -0.31    1.98
  13   1  -4    1.49    1.86
  13   3   3    1.15    2.22
  14   2  -1   21.04    2.66
  16   0  -6   20.27    2.25
  16   2  -1    0.97    2.09
  18   0  -6    1.05    1.77
  20   2   0    6.05    2.71
  21   1  -3    0.43    2.35
  22   0  -5    4.15    2.07
  23   1  -2    1.80    2.34
  24   0  -4   -0.87    2.11
   3   3   8   34.31    1.36
   5   3   6    1.24    1.37
   6   2   1  273.50    3.38
   8   2   0    9.88    1.85
  11   3   3    5.33    1.97
  12   0  -6    1.01    1.38
  14   4  10    0.57    2.04
  16   4  10    1.33    2.10
  18   2  -1    1.27    2.07
  19   1  -4    2.38    2.21
  20   0  -6    2.57    1.78
  10   2  -1    4.71    1.76
  11   1  -4    1.08    1.54
  12   4   9   -0.04    1.72
  14   4   9   -0.08    2.22
  15  -1  -8    2.43    1.65
  16   2  -2    2.56    1.96
  17  -1  -8    4.01    1.64
  20   2  -1    0.19    2.47
  21   1  -4    0.38    2.31
  23   1  -3    0.69    2.25
  24   0  -5    0.94    1.77
   7   3   4    5.74    1.42
   9   3   3   41.49    2.39
  10   0  -6    1.16    1.40
  12   2  -2    2.29    2.02
  12   4   8    0.46    2.04
  13  -1  -8   25.83    1.72
  14   4   8    1.74    2.13
  16   0  -7   22.37    2.17
  16   4   8   -1.34    2.29
  17   1  -5    0.75    1.76
  17   3   2    2.38    2.16
  18   0  -7   -0.47    2.03
  18   2  -2   -0.15    2.26
  19   3   2    0.34    2.17
  22   0  -6    0.47    2.26
  22   2  -1    1.56    2.58
   3   3   7    9.71    1.26
   7   1  -3    4.23    1.41
   9   1  -4    1.32    1.53
  10   4   8   10.97    2.11
  11   3   2   -0.96    1.76
  14   0  -7   11.58    1.93
  14   4   7   -1.38    2.09
  15   3   1   -1.50    2.06
  16   4   7   -1.58    2.10
  17   3   1   -0.26    2.31
  19   1  -5    7.71    2.15
  20   0  -7    3.64    1.98
  20   2  -2    1.05    2.21
  21   1  -5   -1.39    2.33
  23   1  -4    1.50    2.30
  24   0  -6   -0.18    2.03
   5   3   5    0.86    1.26
   6   2   0   11.19    1.47
   8   2  -1   14.24    1.95
  12   4   7    0.98    1.83
  14   2  -3   -0.06    2.39
  14   4   6    1.52    2.17
  16   2  -3    0.48    1.90
  18   2  -3    0.78    2.30
  19   3   1    3.16    2.75
  22   0  -7   -0.07    1.86
  22   2  -2    1.12    2.51
   7   3   3   10.06    1.57
  10   4   7    0.59    1.92
  11  -1  -8    9.24    1.35
  11   1  -5   -0.17    1.65
  12   0  -7   24.45    1.64
  12   2  -3    4.06    2.03
  12   4   6    2.34    1.95
  15   1  -6    3.64    2.21
  15   3   0   -1.38    2.14
  17   1  -6    5.16    1.94
  17   3   0    6.17    2.56
  18   4   6   -0.95    2.35
  19   1  -6    5.22    2.17
  19   3   0   -1.12    2.69
  20   2  -3   -0.99    2.22
  23   1  -5    1.81    2.38
  13   3   0   10.58    2.25
  14   4   5    2.11    2.19
  15  -1  -9    2.97    1.56
  16   0  -8   -0.34    1.80
  16   2  -4    1.55    2.00
  16   4   5    1.66    2.43
  18   0  -8    1.70    1.87
  18   2  -4   -0.36    2.29
  18   4   5    2.02    2.51
  20   0  -8   -0.05    1.79
  21   1  -6    2.25    2.30
  22   2  -3    0.71    2.10
  24   0  -7   -0.50    1.95
   3   3   6   35.27    1.62
   8   0  -6    7.37    1.34
   8   4   7   -2.63    1.97
   9   3   1    0.72    1.73
  10   4   6    1.19    1.87
  12   4   5   -0.26    1.99
  14   0  -8    2.62    1.72
  14   2  -4    0.34    2.32
  14   4   4    1.87    2.29
  15   3  -1    3.01    2.06
  16   4   4    0.59    2.49
  17   3  -1   10.75    2.63
  18   4   4   -0.87    2.17
  19   3  -1   -1.76    2.64
  20   2  -4   -0.11    2.13
  22   0  -8   -1.91    2.04
  22   2  -4    2.66    2.60
  23   1  -6    0.85    2.19
   7   3   2    2.04    1.52
   8   2  -2   14.13    2.03
   9   1  -5  123.75    2.74
  10   0  -7   59.53    2.05
  10   2  -3    3.83    1.86
  12   2  -4   15.73    2.04
  12   4   4    3.92    2.17
  13  -1  -9    2.32    1.11
  15   1  -7    0.71    2.03
  17   1  -7   -0.11    1.80
  18   2  -5    3.53    2.15
  19   1  -7    0.18    2.08
  21   1  -7    0.96    2.40
  24   0  -8    0.16    1.79
   6   2  -1    1.26    1.47
   7   1  -4    2.20    1.39
   8   4   6    1.06    1.74
  10   4   5    5.18    1.91
  12   0  -8   33.38    1.80
  14   4   3    0.26    2.26
  15   3  -2    0.69    2.06
  16   2  -5    3.82    2.16
  16   4   3    1.42    2.16
  17   3  -2    0.51    2.36
  18   0  -9    0.69    1.84
  18   4   3    1.50    2.19
  19   3  -2    2.34    2.52
  20   0  -9    2.67    1.80
  20   2  -5   -0.12    2.42
  23   1  -7   -1.11    2.20
   5   3   3  108.33    2.72
  10   4   4    1.20    2.18
  12   4   3   17.77    2.35
  13   1  -7   66.56    2.64
  14   2  -5    0.47    2.31
  16   0  -9    2.24    1.81
  16   4   2    1.84    2.35
  18   4   2    0.03    2.42
  19   1  -8   -0.24    2.30
  22   0  -9   -0.79    1.92
   3   3   5    3.66    1.44
   5   1  -3  230.48    2.52
   7   3   1    4.30    1.64
   8   4   5   -1.19    1.90
  10   2  -4   -1.05    1.87
  13   3  -2    3.40    2.05
  14   0  -9    8.38    1.79
  14   4   2   -1.21    2.16
  16   2  -6   12.42    2.27
  17   1  -8    2.32    1.89
  17   3  -3   -0.77    2.55
  18   2  -6    0.63    2.21
  18   4   1   -0.82    2.36
  21   1  -8    0.70    2.25
  21   3  -3   -0.81    2.62
  23   1  -8   -0.28    2.29
   4   2   0   -0.04    1.18
   8   2  -3  309.02    4.11
  10   4   3    1.11    2.30
  11  -1  -9    8.29    1.21
  12   2  -5    3.25    1.92
  12   4   2   -0.31    2.02
  14   4   1   -1.57    2.42
  15   1  -8    3.11    2.10
  15   3  -3    2.37    2.10
  16   4   1    1.68    2.31
  20   0 -10   -0.09    1.79
   6   2  -2    3.29    1.46
   9   1  -6   11.68    1.86
  11   3  -2   87.66    3.18
  13   3  -3   -1.46    2.12
  16   4   0    0.81    2.26
  17   3  -4   -1.59    2.52
  19   1  -9   -0.63    1.92
  19   3  -4   -1.61    2.63
  21   3  -4   -0.34    2.68
   5   3   2   16.04    1.85
   6   4   6    1.71    1.51
   7   3   0    9.31    1.64
   8   0  -7    8.01    1.32
   8   4   4    9.32    1.98
  10   0  -8   92.22    2.38
  10   4   2    1.17    2.35
  12   0  -9    9.28    1.60
  12   4   1    1.29    1.99
  13   1  -8   27.91    2.29
  14   4   0    2.24    2.21
  15   5   6   -1.43    2.33
  16   2  -7   17.60    2.43
  17   1  -9    0.21    1.85
  22   2  -7    0.10    2.24
  23   1  -9    2.20    2.27
   3   3   4    7.30    1.55
  10   2  -5    1.23    1.86
  11   3  -3   31.15    2.50
  15   1  -9    2.77    2.21
  15   5   5    0.44    2.37
  17   3  -5    0.82    2.42
  21   3  -5   -1.77    2.73
   6   4   5    4.88    1.58
   8   2  -4   43.83    2.19
   8   4   3    3.14    2.00
   9   3  -2    0.30    1.99
  12   4   0    1.56    2.03
  13   3  -4   -0.20    1.46
  14   0 -10    1.00    1.74
  14   4  -1    6.37    2.48
  15   3  -5    1.35    2.33
  18   0 -11    3.67    1.89
  18   4  -2    1.86    2.87
  19   1 -10    0.64    2.15
  20   2  -8    0.87    2.36
  21   1 -10    4.17    2.37
  22   2  -8    1.42    2.44
  23   1 -10   -0.61    1.97
   4   2  -1   43.58    1.71
   5   1  -4  520.12    3.83
   6   0  -6   31.32    1.16
  10   4   1   -0.40    2.17
  11   1  -8    9.34    1.85
  13   5   5    1.82    2.35
  15   5   4    0.78    2.20
  16   0 -11    1.27    2.13
  17   1 -10   -0.54    2.03
  17   3  -6    3.10    2.30
  21   3  -6   -0.41    2.82
   5   3   1    1.53    1.66
   6   2  -3   17.89    1.85
   6   4   4    1.43    1.95
   8   4   2    8.37    2.14
  10   2  -6   -0.69    1.94
  11   3  -4    0.71    2.26
  12   2  -7   13.92    2.26
  13   1  -9    1.11    2.01
  13   3  -5   -0.82    2.27
  13   5   4   -0.89    2.38
  15   5   3    2.32    2.37
  17   5   2   -2.41    2.20
  18   2  -9   -0.86    2.55
  18   4  -3   -2.58    2.79
  22   2  -9    2.12    2.42
   9   3  -3    7.12    2.16
  10   0  -9   62.56    2.04
  10   4   0    7.00    2.50
  11   5   5    2.02    1.85
  12   0 -10   -0.23    1.50
  13   5   3    1.85    2.44
  14   2  -8   -0.19    2.44
  15   1 -10    5.90    2.17
  15   3  -6   -1.98    2.23
  15   5   2    0.81    2.44
  16   4  -3   -0.33    2.73
  19   1 -11    0.08    2.13
  21   1 -11   -3.23    2.52
  23   1 -11    0.16    2.10
   1   3   6   62.45    1.63
   7   1  -6   36.10    1.59
   8   2  -5    2.61    1.35
   8   4   1    6.73    2.03
  11   5   4    2.39    1.98
  12   4  -2    0.89    2.33
  14   0 -11    4.58    1.69
  14   4  -3    1.73    2.41
  17   1 -11    0.08    2.07
  17   3  -7    0.32    2.43
  18   4  -4   -0.07    2.60
  20   2 -10   -4.13    2.53
  22   2 -10    0.41    2.50
   5   3   0    0.84    1.88
   8   0  -8   27.89    1.58
  10   4  -1    0.47    2.45
  11   1  -9    9.34    1.73
  11   3  -5    1.37    2.47
  12   2  -8   14.91    2.28
  13   3  -6    4.54    2.10
  15   3  -7   -1.16    2.40
  15   5   1    0.76    2.76
  16   0 -12    2.80    2.14
  16   4  -4   -0.28    2.41
  23   1 -12   -2.48    2.17
   9   3  -4    2.03    2.20
  10   2  -7   38.33    2.55
  11   5   3    1.68    1.99
  13   5   1    1.95    2.12
  14   4  -4   -1.28    2.55
  15   5   0   -0.47    2.79
  17   3  -8    1.15    2.78
  18   4  -5    3.27    2.48
  19   1 -12    1.18    2.20
  21   1 -12   -0.98    2.03
   3   3   2    5.42    1.62
   4   2  -2   36.71    1.49
   4   4   5   10.80    1.73
   8   4   0   -0.03    2.13
   9   5   4   -2.12    2.37
  10   4  -2    2.04    2.71
  11   5   2   -0.68    2.20
  16   2 -10    1.51    2.19
  16   4  -5    2.66    2.53
  17   5  -1    3.51    2.51
  19   3  -9    0.63    2.29
  20   2 -11   -0.05    2.67
  22   2 -11    0.28    2.28
   5   3  -1    1.70    2.28
   7   3  -3    0.58    1.97
  11   3  -6    2.55    2.58
  12   0 -11    5.42    1.59
  13   5   0    2.83    2.56
  14   4  -5   -1.11    2.59
  15   3  -8   -0.84    2.30
  15   5  -1   -1.31    3.01
  17   1 -12   -0.97    1.91
  17   3  -9    0.49    2.48
  17   5  -2   -1.72    2.95
  18   2 -11    2.85    2.62
  21   1 -13    1.03    2.26
   6   0  -7   -0.10    1.08
   8   4  -1    1.71    2.30
   9   3  -5   37.21    2.77
  10   0 -10    1.48    1.37
  11   5   1    0.44    2.44
  12   2  -9    2.42    2.40
  12   4  -4    1.35    2.33
  13   1 -11    0.85    2.10
  15   5  -2   -0.66    2.61
  16   2 -11   -0.88    2.32
  16   4  -6    4.90    2.67
  18   4  -7    0.55    2.79
  20   2 -12    0.07    2.71
  22   2 -12    2.61    2.57
   6   4   1   58.65    2.75
  11   3  -7    5.76    2.62
  13   3  -8   11.47    2.49
  13   5  -1    0.68    2.37
  14   4  -6    1.98    2.46
  15   1 -12   22.81    2.73
  15   3  -9    0.46    2.59
  19   3 -10    2.24    2.78
   3   3   1  277.83    3.58
   4   2  -3   -0.01    1.63
   6   2  -5   88.28    2.46
   8   0  -9   14.44    1.62
   8   2  -7    2.79    2.15
   9   1  -9   13.21    2.06
  11   5   0    1.66    2.23
  12   4  -5   -0.75    2.63
  13   5  -2   -0.03    2.38
  15   5  -3   -1.29    2.93
  16   4  -7    7.14    2.70
  17   1 -13    1.34    2.11
  18   2 -12    6.28    2.45
  18   4  -8    2.61    2.79
   4   4   3    2.14    1.90
   6   4   0   -0.43    2.15
   8   4  -2    4.65    2.28
   9  -1 -10   11.73    1.14
   9   3  -6    3.74    2.33
   9   5   1    0.95    2.47
  11   5  -1   -0.43    2.43
  14   2 -11    0.84    2.35
  16   2 -12    1.00    2.39
  19   1 -14    2.55    2.51
  20   2 -13   -0.38    2.73
   1   3   4    0.19    1.47
  10   2  -9   42.05    2.80
  11   3  -8    4.86    2.96
  12   0 -12    6.91    1.71
  12   4  -6    0.31    2.66
  13   1 -12    5.83    2.20
  13   3  -9   -1.92    2.38
  13   5  -3    0.87    2.76
  14   0 -13    1.28    1.87
  14   4  -7    1.87    2.59
  15   1 -13    9.08    2.25
  15   5  -4    1.73    3.09
  16   4  -8   -1.29    3.02
  17   3 -11    1.68    2.83
  18   2 -13    0.56    2.39
  18   4  -9    0.60    2.79
   5   1  -6   -0.34    1.01
   7   5   3   -0.15    2.36
   8   4  -3   72.72    3.40
   9   5   0   -3.13    2.33
  10   0 -11   21.59    1.70
  10   4  -5   -0.82    2.53
  11   1 -11   -0.19    1.99
  11   5  -2   17.42    2.95
  15   5  -5    1.65    2.80
  17   1 -14    1.75    2.17
  19   3 -12    1.64    3.00
   2   2  -1    8.09    1.27
   3   3   0  150.89    3.02
   4   4   2    0.83    1.79
   6   2  -6   19.73    1.86
   6   4  -1    2.06    2.13
   7   5   2    1.58    2.45
   8   2  -8   11.27    2.31
   9   1 -10   13.23    1.92
   9   3  -7   20.80    2.76
  13   3 -10    3.04    2.67
  13   5  -4   -1.18    3.00
  14   2 -12    1.51    2.24
  14   4  -8   -1.94    2.92
  15   3 -11   -0.73    2.71
  16   2 -13   -0.29    2.50
  16   4  -9   -0.10    3.08
  18   4 -10   -0.01    2.87
  19   1 -15    1.75    2.46
  20   2 -14    0.69    2.61
   3   1  -4   74.47    1.64
   6   0  -8   52.04    1.75
   9   5  -1   -0.19    2.34
  10   2 -10    0.40    2.11
  11   3  -9    2.55    3.01
  14   6   0    1.46    2.18
  18   2 -14   -0.32    2.83
   1   3   3    5.24    1.68
   4   4   1    0.60    2.19
   6   4  -2   -0.76    2.25
   7   3  -6    9.83    2.22
   8   0 -10   49.78    1.94
  10   4  -6    1.46    2.22
  13   1 -13    2.00    2.20
  13   5  -5    1.64    2.98
  14   4  -9    1.29    3.13
  14   6  -1    1.71    2.59
  15   1 -14    3.20    2.25
  16   4 -10   -0.11    3.15
  17   1 -15    1.07    2.25
  18   4 -11    0.58    2.88
  20   2 -15    0.08    2.66
   3   3  -1   38.25    2.30
   5   3  -4  170.87    3.63
   9   3  -8    3.24    2.64
   9   5  -2   -1.51    2.54
  11   5  -4    1.88    2.72
  12   2 -12    3.68    2.81
  12   4  -8    1.71    2.65
  12   6   0   -0.39    2.86
  13   3 -11   -1.88    2.65
  14   2 -13    2.31    2.53
  14   6  -2    3.48    2.50
  15   3 -12    8.43    3.05
  15   5  -7   -0.41    3.21
  16   2 -14    0.70    2.58
  17   3 -13   -0.23    3.17
   5   1  -7   14.00    1.89
   6   2  -7    2.52    1.65
   7   5   0    0.13    2.62
   8   2  -9   10.77    2.16
   9  -1 -11    0.14    1.26
  10   0 -12   11.61    1.77
  10   4  -7   10.55    2.71
  12   6  -1    0.08    2.84
  16   4 -11    0.01    3.28
  18   2 -15    0.41    2.92
  19   3 -14    2.13    2.84
   2   2  -2   13.20    1.46
   4   2  -5   39.25    2.35
   4   4   0    0.39    2.00
   6   4  -3    4.12    2.52
   7   3  -7    2.93    2.33
   9   1 -11    2.12    1.71
   9   5  -3    1.31    2.72
  11   5  -5    1.63    2.88
  13   1 -14    3.15    2.47
  15   1 -15   -1.38    2.26
  15   5  -8    2.29    3.28
  20   2 -16   -1.53    2.71
   1   3   2   -0.16    1.52
   3   3  -2   19.35    2.13
   7   5  -1   -1.56    2.57
   8   4  -6    1.18    3.07
   9   3  -9    2.74    2.76
  10   4  -8   15.85    3.10
  12   6  -2    1.42    2.82
  13   3 -12    1.79    2.56
  14   2 -14    5.24    2.59
  16   2 -15    2.04    2.60
  16   4 -12   -0.27    2.84
  17   1 -16   -0.32    2.24
  17   3 -14   -1.08    2.77
  19   3 -15   -0.36    2.74
   3   1  -5   52.60    1.64
   4   4  -1    7.70    2.23
   5   3  -5   41.48    2.25
   5   5   2    0.58    2.14
   6   4  -4   23.35    2.93
   8   2 -10   35.16    2.66
   9   5  -4   -0.13    2.56
  11   5  -6    2.38    2.82
  12   0 -14   10.33    2.14
  12   4 -10   -0.04    3.00
  13   5  -8    2.00    3.15
  15   5  -9    2.03    3.34
  18   2 -16    1.78    2.88
   2   4   3   17.51    1.75
   6   0  -9   18.58    1.59
   7   5  -2   -0.62    2.75
   9   3 -10    4.13    2.72
  10   6  -1    0.95    2.90
  20   2 -17    1.60    2.62
  -1  -3 -10   12.72    1.11
   1  -3 -12    0.83    1.18
   3  -3 -14    0.81    1.31
   4  -2  -9   12.14    1.17
   8  -2 -15    1.90    1.51
  10  -2 -23    1.40    1.92
  10  -2 -22    2.08    1.79
  10  -2 -21    0.67    1.64
  12   0 -13   39.04    1.83
  13  -1 -23   -0.62    1.78
  13   1 -12    4.07    1.02
   2  -2  -7    4.05    0.93
   5  -1  -6    0.00    0.83
   6  -2 -11    9.95    1.31
   9  -1 -11    0.06    1.15
  10  -2 -20    1.22    1.62
  10  -2 -19    0.47    1.47
  10   0  -9   61.09    1.59
  13  -1 -21    0.96    1.71
  13  -1 -20    0.06    1.73
  14   0 -17    3.71    1.37
  -3  -3  -8   36.67    1.21
   0  -4 -22    0.65    1.32
   0  -4 -21    0.92    1.39
   0  -4 -20   -0.10    1.35
   1  -3 -11   74.50    1.97
   3  -3 -13   10.99    1.44
   7  -3 -23   -0.01    1.61
   7  -3 -22    0.53    1.86
   7  -3 -21    1.69    1.79
   7  -1  -8   79.42    1.74
   8  -2 -14    1.54    1.03
  10  -2 -18   -0.42    1.62
  11   1  -8    9.57    0.82
  12   0 -12    5.72    1.23
  13  -1 -19    0.04    1.58
  14   0 -16   -0.35    1.43
  -1  -3  -9    8.96    1.00
   0  -4 -19    0.20    1.50
   0  -4 -18    0.56    1.35
   3  -1  -4   73.80    1.08
   4  -2  -8   64.00    1.65
   7  -3 -20    2.52    1.48
   7  -3 -19   -1.14    1.58
   8  -2 -13    1.11    1.35
   9  -1 -10   10.79    1.23
  10  -2 -17    0.54    1.47
  13  -1 -18   -0.01    1.59
  13   1 -11   -0.09    0.86
  16   0 -23    1.43    1.51
   0  -4 -17    1.28    1.22
   0  -2  -5   89.24    1.32
   1  -3 -10   25.21    1.32
   2  -4 -22    1.34    1.53
   2  -4 -21   -0.53    1.53
   2  -4 -20    0.21    1.53
   3  -3 -12    4.23    1.24
   6  -2 -10   -0.34    1.12
   7  -3 -18    0.96    1.54
   8   0  -6    8.45    0.84
  10  -2 -16    5.08    1.54
  12  -2 -23    1.40    1.81
  12  -2 -22   -0.36    1.90
  12   0 -11    4.77    1.18
  13  -1 -17   -0.27    1.55
  14   0 -15    0.03    1.25
  16   0 -22    0.94    1.39
  16   0 -21    0.21    1.55
   0  -4 -16    7.70    1.36
   2  -4 -19   -0.02    1.50
   2  -2  -6   25.48    1.10
   7  -3 -17    4.53    1.50
   7  -1  -7   15.05    1.10
   8  -2 -12   10.36    1.50
   9  -3 -22   -0.23    1.80
  10  -2 -15    7.40    1.45
  10   0  -8   95.95    1.78
  12  -2 -21    0.97    1.68
  12  -2 -20    3.78    1.79
  13  -1 -16    0.98    1.35
  16   0 -20   -1.45    1.52
  -1  -3  -8   12.07    0.94
   0  -4 -15    2.60    1.33
   2  -4 -18    0.54    1.32
   2  -4 -17   -0.16    1.46
   3  -3 -11   -0.65    1.09
   4  -4 -22   -0.09    1.56
   4  -4 -21   -0.04    1.44
   5  -1  -5   94.17    1.42
   6  -2  -9   12.77    1.27
   7  -3 -16    4.18    1.59
   9  -3 -21    0.95    1.64
   9  -3 -20    0.88    1.83
   9  -1  -9   13.45    1.22
  11  -1 -12    6.40    1.29
  12  -2 -19    2.23    1.78
  13   1 -10    5.28    0.85
  14   0 -14    2.20    1.36
  15  -1 -22   -0.55    1.50
  15  -1 -21    0.09    1.80
  16   0 -19    1.40    1.52
   1  -3  -9    5.08    0.99
   4  -4 -19   -0.31    1.70
   4  -2  -7   23.86    1.24
   7  -3 -15   -0.20    1.38
   8  -2 -11    1.91    1.34
   9  -3 -19    2.81    1.77
  10  -2 -14    3.38    1.49
  12  -2 -18    0.07    1.65
  12   0 -10    1.31    0.99
  13  -1 -15   13.85    1.41
  15  -1 -20   -0.11    1.88
  16   0 -18    1.45    1.36
   0  -4 -14    1.18    1.20
   2  -4 -16    0.91    1.17
   3  -3 -10   10.75    1.25
   4  -4 -18   -1.44    1.54
   7  -3 -14    3.13    1.29
  10  -2 -13    1.41    1.44
  11  -1 -11    0.01    1.15
  12  -2 -17    1.70    1.50
  13  -1 -14   -1.06    1.47
  14   0 -13    3.27    1.27
  16   0 -17    0.61    1.26
   0  -4 -13    2.03    1.31
   2  -4 -15    1.08    1.21
   4  -4 -17    3.90    1.54
   6  -4 -21   -0.50    1.61
   6  -4 -20   -0.31    1.81
   6  -2  -8   29.56    1.34
   8  -2 -10   34.57    1.66
   8   0  -5    0.29    0.85
   9  -3 -17   -0.03    1.52
   9  -1  -8    2.07    1.04
  10   0  -7   58.34    1.39
  11  -3 -21    1.78    1.81
  12  -2 -16   -0.45    1.47
  15  -1 -18    0.53    1.36
  16   0 -16   -0.63    1.30
   0  -2  -4   38.52    0.93
   2  -4 -14    2.44    1.31
   2  -2  -5  341.88    2.57
   4  -4 -16   -0.42    1.45
   6  -4 -19   -0.60    1.68
   7  -3 -13    0.55    1.60
   7  -1  -6   35.98    1.28
   9  -3 -16    4.30    1.64
  10  -2 -12    4.64    1.51
  11  -3 -20   -1.55    1.90
  11  -1 -10   14.65    1.36
  12  -2 -15    3.72    1.44
  12   0  -9   10.81    1.11
  13  -1 -13    0.65    1.40
  13   1  -9    1.06    0.68
  14   0 -12    2.19    1.07
  15  -1 -17    1.25    1.46
  -3  -3  -6   35.47    1.07
   0  -4 -12    5.66    1.22
   3  -3  -9    5.07    1.02
   4  -4 -15    1.02    1.51
   4  -2  -6    2.67    0.97
   6  -4 -18   -0.34    1.69
   9  -3 -15    0.26    1.55
  11  -3 -19    1.29    1.84
  15  -1 -16    0.11    1.50
  16   0 -15    1.32    1.32
  17  -1 -21   -2.19    1.66
   2  -4 -13    7.99    1.56
   5  -3 -10    1.65    1.27
   6  -4 -17   -1.35    1.71
   7  -3 -12   -0.20    1.57
   8  -4 -21   -2.94    1.83
   8  -4 -20    1.40    1.68
   8  -2  -9   12.29    1.34
   9  -3 -14   22.07    1.79
  10  -2 -11   10.57    1.40
  12  -2 -14    4.75    1.52
  13  -1 -12    3.42    1.52
  14   0 -11    3.74    1.29
  17  -1 -20    0.47    1.38
   0  -4 -11    7.33    1.29
   1  -3  -7   41.74    1.40
   4  -4 -14    0.74    1.29
   5  -1  -4  501.82    2.78
   6  -4 -16   -0.71    1.58
   6  -2  -7    0.20    1.19
  11  -3 -17    0.62    1.60
  11  -1  -9    8.50    1.21
  15  -1 -15   -1.31    1.50
  16   0 -14    3.74    1.27
  17  -1 -19    0.23    1.73
  -2  -4 -10    3.32    1.03
  -1  -3  -6   66.06    1.50
   2  -4 -12    2.76    1.39
   3  -3  -8    2.28    1.04
   4  -4 -13   -0.78    1.45
   6  -4 -15   12.36    1.63
   7  -3 -11   18.40    1.65
   9  -3 -13    6.19    1.46
  10   0  -6   -0.03    0.81
  11  -3 -16    0.28    1.59
  12  -2 -13   26.68    1.79
  12   0  -8   31.29    1.23
  13  -3 -20    1.85    1.86
  13  -1 -11   -1.22    1.23
  15  -1 -14    0.81    1.26
  17  -1 -18    1.30    1.51
   3  -5 -20   -0.09    1.28
   5  -3  -9   30.23    1.56
   7  -1  -5    9.22    0.97
   8  -2  -8   11.42    1.33
  10  -4 -20   -0.35    1.92
  10  -2 -10    0.55    1.35
  11  -3 -15   -0.49    1.67
  13  -3 -19    0.45    1.91
  14   0 -10    2.00    1.17
  16  -2 -20    1.24    1.64
  16   0 -13   -0.42    1.24
   0  -4 -10   -0.44    1.13
   2  -4 -11    1.81    1.32
   2  -2  -4  222.52    2.07
   3  -5 -19    1.25    1.50
   4  -4 -12    3.65    1.42
   4  -2  -5   39.59    1.29
   6  -4 -14    3.69    1.52
   7  -3 -10   40.05    1.94
   8   0  -4   74.49    1.26
   9  -3 -12    5.19    1.54
  10  -4 -19    0.20    1.70
  12  -2 -12    3.92    1.54
  13  -3 -18   -0.93    1.78
  15  -1 -13   10.10    1.56
  16  -2 -19    0.26    1.73
  -3  -3  -5    3.08    0.86
  -2  -4  -9    3.67    1.10
   3  -5 -18   -0.52    1.48
   3  -3  -7    2.53    1.11
   6  -2  -6   21.61    1.37
  10  -4 -18   -0.78    1.85
  11  -3 -14   -0.75    1.54
  11  -1  -8    9.44    1.09
  13  -3 -17   -0.25    1.90
  13  -1 -10    6.01    1.36
  16  -2 -18    2.22    1.64
  17  -1 -16   -0.21    1.52
   0  -2  -3    1.13    0.50
   1  -3  -6   42.12    1.43
   2  -4 -10    2.89    1.31
   3  -5 -17    1.93    1.42
   5  -5 -19    1.72    1.62
   5  -3  -8    3.96    1.10
   8  -2  -7    2.17    1.10
   9  -3 -11   -0.82    1.78
  10  -4 -17   -0.20    1.84
  10  -2  -9   43.18    1.77
  11  -3 -13    4.11    1.43
  12  -2 -11    2.15    1.70
  12   0  -7   24.07    1.16
  13  -3 -16    1.14    1.90
  15  -1 -12   22.48    1.93
  16  -2 -17    2.16    1.78
  16   0 -12    1.31    1.29
  19  -1 -20   -0.53    1.55
   0  -4  -9    1.85    1.05
   3  -5 -16    0.30    1.66
   5  -5 -18    0.38    1.56
   6  -4 -12    2.44    1.33
   7  -3  -9   43.24    1.90
  10  -4 -16    1.44    1.63
  13  -3 -15    4.80    1.71
  14  -2 -13    4.11    1.61
  14   0  -9    7.21    1.14
  15  -3 -19    0.25    1.97
  16  -2 -16   -0.40    1.74
  17  -1 -15    1.90    1.45
  19  -1 -19    0.72    1.50
  -1  -3  -5  178.30    2.01
   3  -5 -15    5.80    1.64
   5  -5 -17   -0.47    1.69
   5  -1  -3  227.11    1.90
   7  -5 -19    0.26    1.79
   9  -3 -10    2.47    1.61
  10   0  -5    4.63    0.84
  11  -3 -12    0.60    1.61
  11  -1  -7    9.67    1.19
  12  -2 -10    1.10    1.45
  13  -1  -9    0.00    1.25
  16   0 -11    0.82    1.23
  17  -1 -14   -0.66    1.56
  18  -2 -19    1.02    1.84
  19  -1 -18    1.14    1.64
  -2  -4  -8    3.41    0.90
   2  -4  -9    2.66    1.28
   3  -3  -6   67.00    1.77
   4  -4 -10   53.75    2.16
   4  -2  -4   20.07    1.15
   5  -5 -16   -0.13    1.74
   5  -3  -7    3.95    1.19
   6  -4 -11    4.04    1.50
   6  -2  -5   91.38    1.92
   7  -5 -18   -0.19    1.75
   7  -1  -4    2.71    0.66
  10  -4 -15    3.29    1.83
  10  -2  -8   58.05    1.74
  11   1  -5    0.43    0.65
  12  -4 -18   -0.39    1.84
  13  -3 -14   -1.58    1.86
  14  -2 -12    0.15    1.45
  15  -3 -17   -1.11    2.01
  15  -1 -11    0.69    1.41
  16  -2 -15    0.31    1.53
  19  -1 -17    0.01    1.61
   0  -4  -8    1.50    1.02
   1  -3  -5    4.26    1.01
   3  -5 -14   -1.25    1.47
   5  -5 -15    0.44    1.69
   7  -5 -17    1.21    1.82
   7  -3  -8   29.97    1.65
   8  -2  -6    8.25    1.27
  10  -4 -14    1.99    1.81
  11  -3 -11   -0.30    1.43
  12  -4 -17   -0.09    1.80
  15  -3 -16   -0.30    1.70
  16  -2 -14    0.83    1.56
  17  -1 -13   -2.08    1.49
  18  -2 -18    1.02    1.58
   2  -2  -3    6.36    0.81
   4  -4  -9    7.68    1.44
   7  -5 -16    1.99    1.67
   9  -3  -9    3.00    1.61
  12  -4 -16   -0.26    2.03
  12  -2  -9    2.83    1.51
  12   0  -6    1.18    0.77
  13  -3 -13    1.84    1.57
  13  -1  -8   28.11    1.59
  14  -2 -11    0.78    1.45
  14   0  -8    3.06    1.03
  16   0 -10    1.05    1.12
  18  -2 -17    1.44    1.68
  19  -1 -16    0.29    1.58
  -3  -3  -4    8.14    0.86
  -2  -4  -7    0.42    0.99
   1  -5 -12    1.05    1.37
   2  -4  -8   12.38    1.48
   3  -5 -13    1.21    1.38
   5  -5 -14    0.25    1.57
   5  -3  -6    0.03    1.09
   6  -4 -10    1.21    1.47
   8  -4 -11   -0.11    1.47
   8   0  -3  488.25    2.62
  10  -4 -13   -2.51    1.78
  10  -2  -7   39.49    1.73
  11  -1  -6    8.71    1.18
  12  -4 -15    1.09    2.04
  15  -3 -15   -1.00    1.90
  15  -1 -10    6.16    1.37
  16  -2 -13    0.50    1.55
  18  -2 -16   -1.01    1.85
  -1  -3  -4    0.22    0.94
   0  -4  -7   25.28    1.50
   3  -5 -12    1.90    1.44
   5  -5 -13    0.67    1.60
   7  -5 -15   -1.00    1.66
   7  -3  -7    5.68    1.28
   9  -5 -17    0.62    1.69
  11  -3 -10    6.77    1.24
  13  -3 -12    2.08    1.25
  14  -4 -17   -0.86    2.04
  14  -2 -10    1.42    1.50
  15  -3 -14    0.63    1.88
  17  -1 -12   -1.99    1.33
  19  -1 -15   -0.52    1.68
   1  -5 -11   13.89    1.72
   4  -4  -8   14.92    1.54
   6  -4  -9    0.46    1.65
   6  -2  -4  128.79    2.08
   7  -5 -14   -1.61    1.87
   8  -2  -5    0.75    1.23
   9  -5 -16    0.97    1.95
   9  -3  -8    0.66    1.07
  10  -4 -12    1.77    1.61
  10   0  -4    0.32    0.78
  12  -4 -14    1.81    1.87
  12  -2  -8   16.89    1.72
  14  -4 -16   -0.78    1.97
  16  -2 -12   -0.06    1.69
  18  -2 -15   -0.29    1.90
   1  -3  -4    5.42    1.11
   2  -4  -7    0.46    1.25
   4  -2  -3    0.99    0.94
   5  -5 -12    2.51    1.52
   7  -1  -3    2.96    0.85
   8  -4 -10    8.87    1.55
   9  -5 -15    0.30    2.00
  10  -2  -6    1.75    1.25
  11  -3  -9    5.14    1.69
  13  -3 -11   -0.06    1.48
  13  -1  -7   66.64    1.97
  14   0  -7   12.86    1.10
  15  -3 -13    3.72    1.95
  16   0  -9    0.49    1.04
  17  -3 -16   -1.54    1.83
  17  -1 -11    0.88    1.37
  18  -2 -14   -0.11    1.80
  19  -1 -14    1.91    1.62
   3  -5 -11    0.88    1.34
   5  -3  -5   41.03    1.72
   5  -1  -2   75.34    1.20
   7  -5 -13    1.42    1.52
   7  -3  -6   12.93    1.48
   9  -5 -14    6.66    2.13
   9  -3  -7   19.08    1.65
  10  -4 -11    1.41    1.59
  14  -4 -15   -0.66    2.12
  14  -2  -9    4.65    1.75
  16  -2 -11    2.04    1.53
  17  -3 -15    0.27    2.11
  20  -2 -17    2.01    1.74
   0  -4  -6   -0.79    1.08
   1  -5 -10    8.04    1.50
   4  -4  -7    3.15    1.45
   6  -4  -8    3.83    1.50
   8  -4  -9    4.43    1.48
  11   1  -4    0.35    0.61
  12  -4 -12    1.26    2.05
  12   0  -5    6.76    0.86
  13  -3 -10    2.29    1.68
  14  -4 -14    1.95    2.06
  15  -3 -12    8.60    1.93
  18  -2 -13    0.47    1.51
  19  -1 -13    0.56    1.54
  20  -2 -16    0.46    1.77
   2  -2  -2   11.11    0.83
   3  -5 -10    3.13    1.41
   9  -5 -13    2.21    1.99
  10  -4 -10    1.19    1.61
  11  -3  -8    4.57    1.72
  15  -1  -8    0.39    1.38
  16   0  -8    0.16    1.29
  17  -3 -14    1.41    1.77
  17  -1 -10    2.15    1.46
   1  -5  -9    0.17    1.66
   2  -4  -6    8.18    1.32
   5  -5 -10   -2.17    1.69
   6  -4  -7    1.11    1.45
   6  -2  -3   16.62    1.28
   7  -5 -11    3.19    1.72
   8  -4  -8    2.21    1.61
   8  -2  -4   43.23    1.70
  10  -2  -5    1.06    1.20
  12  -4 -11    0.07    1.83
  13  -3  -9    0.51    1.53
  13  -1  -6    8.62    1.25
  14  -4 -13    3.11    2.09
  14  -2  -8    2.45    1.73
  14   0  -6   -0.47    1.00
  16  -4 -15    1.70    1.98
  16  -2 -10   -0.17    1.50
  17  -3 -13   -0.43    1.79
  18  -2 -12    8.28    1.64
  19  -1 -12    0.19    1.37
  20  -2 -15   -0.68    1.82
  -3  -3  -3    1.12    0.73
  -1  -3  -3    4.41    0.90
   3  -5  -9    0.30    1.46
   4  -4  -6    1.48    1.25
   6  -6 -15    1.48    1.67
   7  -3  -5    3.14    1.25
   9  -5 -12   -0.70    2.00
  10  -4  -9    9.65    1.87
  11  -3  -7    4.14    1.64
  14  -4 -12   -0.22    2.15
   1  -3  -3    0.34    0.97
   5  -3  -4  172.64    2.67
   7  -5 -10    6.75    1.76
  10   0  -3    1.64    0.92
  11  -1  -4    1.65    1.15
  12  -4 -10    1.98    1.95
  15  -1  -7    0.77    1.26
  16  -4 -14    1.28    2.24
  17  -3 -12    2.61    1.88
  17  -1  -9   -1.66    1.38
  18  -2 -11    2.45    1.78
  20  -2 -14    0.56    1.81
  -2  -4  -5   13.33    1.04
   0  -4  -5   14.67    1.21
   1  -5  -8    2.28    1.32
   4  -2  -2   37.62    1.10
   5  -5  -9    6.25    1.62
   6  -6 -14   -1.17    1.82
   8  -4  -7    0.43    1.83
   8   0  -2   33.99    0.89
   9  -5 -11    2.41    1.75
  12   0  -4   22.17    1.08
  13  -5 -14   -0.35    2.33
  13  -3  -8   13.51    1.70
  14  -2  -7    9.63    1.73
  16  -4 -13    0.17    1.97
  19  -3 -14   -0.55    2.07
  20  -2 -13    0.30    1.83
   3  -5  -8   -0.80    1.51
   6  -6 -13    1.39    1.61
   7  -5  -9    8.79    2.02
   7  -3  -4    1.28    1.24
   8  -6 -14   -0.76    1.63
   8  -2  -3  324.32    3.34
   9  -5 -10    0.14    2.01
   9  -3  -5   36.19    2.09
  10  -2  -4   -0.79    1.24
  11  -3  -6    2.86    1.65
  12  -4  -9   -0.99    1.81
  13  -5 -13    2.36    1.93
  13  -1  -5    1.59    1.04
  17  -3 -11    1.30    1.90
   4  -4  -5    6.58    1.40
   5  -5  -8    0.46    1.47
  11  -5 -11    0.68    2.26
  13  -3  -7   33.44    2.04
  14  -4 -10    2.46    1.88
  14   0  -5    2.79    0.98
  16  -4 -12    0.25    2.23
  16  -2  -8    1.01    1.34
  17  -1  -8    5.44    1.48
  18  -2 -10    2.86    1.64
  19  -3 -13    1.11    2.02
  19  -1 -10    0.87    1.45
  20  -2 -12    0.18    1.76
   5  -3  -3   77.42    2.00
   5  -1  -1    7.28    0.55
   6  -6 -12   -1.41    1.82
   6  -2  -2    2.06    1.13
   8  -6 -13   -0.14    1.90
   8  -4  -6    1.04    1.88
  10  -4  -7    8.85    1.78
  13  -5 -12    0.98    2.12
  14  -2  -6    1.09    1.44
  15  -1  -6    4.22    1.31
  17  -3 -10   -0.02    1.86
   0  -4  -4    5.69    1.04
   2  -4  -4   43.78    1.80
   2  -2  -1    8.48    0.86
   3  -5  -7    1.22    1.55
   7  -5  -8    5.07    1.80
   8  -6 -12   -0.73    1.91
   9  -5  -9   -0.85    1.75
  11  -5 -10    2.56    2.07
  11  -3  -5    0.24    1.59
  14  -4  -9    2.70    1.83
  16  -4 -11    0.94    2.22
  18  -2  -9    0.84    1.55
  19  -3 -12    1.70    1.71
  -2  -4  -4    6.45    0.88
  -1  -3  -2    1.22    1.01
   1  -3  -2   68.99    1.68
   5  -5  -7    1.51    1.48
   6  -6 -11   -0.90    1.79
   7  -3  -3   -0.25    1.27
   9  -3  -4   -0.52    1.10
  10  -2  -3    3.58    1.19
  11  -1  -3   71.79    1.73
  13  -5 -11   -1.12    2.20
  13  -3  -6    5.14    1.63
  16  -2  -7   18.91    1.64
  17  -3  -9    1.87    1.69
  17  -1  -7   -0.58    1.37
  19  -3 -11    1.95    2.12
  19  -1  -9    0.02    1.45
  20  -2 -11    0.17    1.63
   1  -5  -6    4.63    1.43
   4  -6 -10    7.78    2.02
   4  -4  -4    0.84    1.31
   4  -2  -1   42.16    1.37
   7  -5  -7    0.72    1.65
   8  -6 -11    1.43    1.98
   8  -4  -5   -0.85    1.89
   8  -2  -2   16.62    1.50
   9  -5  -8    0.72    1.85
  10  -4  -6   -0.88    1.03
  11  -5  -9   -0.12    2.02
  12  -4  -7    4.02    1.82
  14  -2  -5    2.21    1.41
  16  -4 -10    0.46    2.15
  -3  -3  -2    4.45    0.80
   3  -5  -6    6.42    1.66
   6  -6 -10   -0.07    1.93
   7  -1  -1   39.24    1.20
  10   0  -2    8.99    0.91
  12   0  -3    2.55    0.83
  13  -5 -10    0.93    1.93
  14  -4  -8    1.10    1.80
  18  -2  -8   -0.25    1.58
  19  -3 -10    1.56    2.07
  19  -1  -8    0.26    1.50
  20  -2 -10   -1.98    1.95
   4  -6  -9    1.31    1.76
   8  -6 -10    0.57    2.02
   9  -5  -7    3.10    1.87
   9  -3  -3    8.52    1.61
  10  -6 -11    0.63    2.08
  10  -4  -5    1.00    1.44
  11  -5  -8   -0.54    2.14
  11  -3  -4    1.56    1.58
  12  -4  -6    1.22    1.75
  13  -5  -9   -0.11    1.84
  13  -3  -5    0.17    1.49
  14   0  -4    0.88    0.89
  16  -4  -9   -0.23    2.25
  16  -2  -6   11.73    1.60
  17  -3  -8    4.08    1.75
  17  -1  -6    5.55    1.47
   0  -4  -3    0.22    0.99
   2  -4  -3    0.06    1.22
   4  -4  -3   -0.21    1.31
   6  -6  -9    2.17    1.90
   6  -2  -1    1.89    1.15
   7  -5  -6    1.22    1.66
   8  -4  -4   13.75    2.01
   8   0  -1   36.89    1.04
  14  -4  -7    1.68    1.91
  15  -5 -10   -1.17    2.07
  18  -2  -7    0.12    1.59
  20  -2  -9    1.81    1.71
  -2  -4  -3   18.67    1.15
   1  -5  -5    0.08    1.27
   3  -5  -5    2.37    1.56
   4  -6  -8    1.17    1.60
   8  -6  -9    0.26    2.03
  10  -6 -10   -1.14    1.87
  10  -2  -2    7.39    1.33
  11  -5  -7    1.18    1.95
  11  -1  -2  236.49    2.86
  13  -5  -8    5.03    1.96
  14  -2  -4    1.61    1.51
  16  -4  -8   -0.43    2.13
  19  -3  -9   -0.07    1.77
  21  -3 -11   -0.34    1.88
   1  -3  -1    1.48    1.16
   6  -6  -8   -1.91    1.88
   8  -2  -1   16.57    1.49
  10  -6  -9   -0.25    2.08
  10  -4  -4    0.41    1.57
  11  -3  -3   33.15    2.02
  12  -4  -5    3.35    1.73
  13  -3  -4    1.85    1.69
  14  -4  -6    1.76    1.88
  15  -5  -9    1.46    2.26
  16  -2  -5    2.53    1.56
  19  -1  -7    0.19    1.30
   5  -3  -1    0.10    1.29
   5  -1   0    1.96    0.45
   7  -5  -5    0.87    1.51
   8  -6  -8   -1.39    2.11
   8  -4  -3   68.33    2.69
   9  -3  -2    0.83    1.52
  16  -4  -7    5.40    2.21
  17  -1  -5    2.76    1.25
  19  -3  -8    1.58    1.86
  20  -2  -8   -2.27    1.68
  21  -3 -10    1.72    1.92
  -1  -3  -1   -0.14    0.88
   1  -5  -4   -0.17    1.42
   2  -4  -2    3.61    1.20
   3  -5  -4    2.95    1.46
   4  -6  -7    0.72    1.50
   4  -2   0    0.34    1.13
   5  -5  -4   29.88    2.02
   6  -6  -7   -0.01    1.76
  10  -6  -8    3.15    1.97
  11  -5  -6    0.28    1.89
  12   0  -2    5.85    0.97
  13  -5  -7    7.23    1.98
  14  -2  -3    0.72    1.38
  14   0  -3    1.14    1.06
  15  -5  -8   -0.28    2.36
  17  -3  -6    3.66    1.62
   0  -4  -2    0.45    1.01
   7  -5  -4   -1.07    1.56
   7  -3  -1    8.93    1.46
   7  -1   0   24.94    1.15
   8  -6  -7   -0.29    2.08
  10  -4  -3    2.04    1.67
  10  -2  -1    3.74    1.27
  12  -4  -4    2.33    1.63
  13  -3  -3   -0.12    1.74
  13  -1  -2   -1.76    1.21
  14  -4  -5    1.05    1.94
  16  -4  -6    4.36    1.88
  16  -2  -4    0.47    1.48
  19  -3  -7    1.13    1.87
  20  -2  -7    2.47    1.69
   4  -6  -6    0.97    1.48
   6  -6  -6    0.00    1.76
   6  -2   0   12.19    1.13
  10  -6  -7    1.81    2.20
  10   0  -1   10.24    0.97
  11  -5  -5    0.98    2.02
  11  -3  -2   87.49    2.58
  11  -1  -1    2.52    1.25
  12  -6  -8   -1.31    2.30
  13  -5  -6    0.48    2.25
  15  -5  -7    0.04    2.38
  15  -1  -3    4.13    1.26
  17  -3  -5    2.81    1.62
  18  -2  -5    2.25    1.47
  -2  -4  -2   11.44    1.14
   5  -5  -3   11.82    2.00
   8  -6  -6   -1.47    1.91
   9  -3  -1    1.52    1.52
  14  -4  -4   -0.78    1.77
  17  -1  -4    0.52    1.36
  21  -3  -8   -2.21    1.88
   1  -5  -3    1.04    1.28
   5  -3   0    0.11    1.46
   7  -5  -3   -1.32    1.64
   8  -2   0   10.09    1.16
  10  -4  -2    3.07    1.60
  11  -5  -4    0.09    1.79
  12  -6  -7    0.70    2.21
  12  -4  -3    1.48    1.28
  13  -5  -5    2.66    2.09
  13  -3  -2    1.04    1.63
  14  -2  -2   63.95    2.25
  15  -5  -6    1.31    2.33
  16  -2  -3   -0.42    1.42
  19  -3  -6    3.05    1.65
  20  -2  -6    0.33    1.65
   0   0   0    0.00    0.00
;
_shelx_hkl_checksum              95754
loop_
_space_group_symop_operation_xyz
'x, y, z'
'-x, y, -z'
'x+1/2, y+1/2, z'
'-x+1/2, y+1/2, -z'
'-x, -y, -z'
'x, -y, z'
'-x+1/2, -y+1/2, -z'
'x+1/2, -y+1/2, z'
loop_
_atom_site_label
_atom_site_type_symbol
_atom_site_fract_x
_atom_site_fract_y
_atom_site_fract_z
_atom_site_U_iso_or_equiv
_atom_site_adp_type
_atom_site_occupancy
_atom_site_site_symmetry_order
_atom_site_calc_flag
_atom_site_refinement_flags_posn
_atom_site_refinement_flags_adp
_atom_site_refinement_flags_occupancy
_atom_site_disorder_assembly
_atom_site_disorder_group
Bi1 Bi 0.45133(6) 0.000000 0.18946(6) 0.0414(3) Uani 0.905(4) 2 d S T P . .
Ag1 Ag 0.45133(6) 0.000000 0.18946(6) 0.0414(3) Uani 0.062(6) 2 d S T P . .
Bi2 Bi 0.15178(7) 0.000000 0.06398(9) 0.0420(4) Uani 0.795(4) 2 d S T P . .
Ag2 Ag 0.15178(7) 0.000000 0.06398(9) 0.0420(4) Uani 0.138(6) 2 d S T P . .
Cu2 Cu 0.142(8) 0.000000 0.014(10) 0.15(5) Uiso 0.066(4) 2 d S . P . .
Bi3 Bi 0.24325(7) 0.000000 0.62219(7) 0.0568(4) Uani 1 2 d S T P . .
Se1A Se 0.4025(4) 0.000000 0.3599(6) 0.0334(16) Uani 0.90(3) 2 d S T P . .
Se1B Se 0.385(3) 0.000000 0.325(6) 0.048(10) Uiso 0.10(3) 2 d S . P . .
Se2 Se 0.79328(15) 0.000000 0.12448(17) 0.0456(6) Uani 1 2 d S T P . .
Se3 Se 0.13831(14) 0.000000 0.45567(14) 0.0339(5) Uani 1 2 d S T P . .
Se4 Se 0.09421(15) 0.000000 0.23051(15) 0.0388(5) Uani 1 2 d S T P . .
Se5 Se 0.000000 0.500000 0.000000 0.0324(6) Uani 1 4 d S T P . .
Cu3 Cu -0.023(3) 0.000000 0.438(3) 0.102(16) Uiso 0.106(7) 2 d S . P . .
Cu4 Cu 0.452(2) 0.000000 0.535(2) 0.058(9) Uiso 0.118(8) 2 d S . P . .
Cu5 Cu 0.000000 0.314(5) 0.500000 0.065(5) Uiso 0.229(8) 2 d S . P . .
Cu6 Cu 0.4908(16) 0.000000 0.5127(13) 0.036(5) Uiso 0.180(8) 2 d S . P . .
loop_
_atom_site_aniso_label
_atom_site_aniso_U_11
_atom_site_aniso_U_22
_atom_site_aniso_U_33
_atom_site_aniso_U_23
_atom_site_aniso_U_13
_atom_site_aniso_U_12
Bi1 0.0456(6) 0.0391(5) 0.0404(6) 0.000 0.0101(4) 0.000
Ag1 0.0456(6) 0.0391(5) 0.0404(6) 0.000 0.0101(4) 0.000
Bi2 0.0394(6) 0.0381(6) 0.0491(8) 0.000 0.0091(5) 0.000
Ag2 0.0394(6) 0.0381(6) 0.0491(8) 0.000 0.0091(5) 0.000
Bi3 0.0640(7) 0.0555(6) 0.0459(6) 0.000 -0.0053(4) 0.000
Se1A 0.040(2) 0.0360(14) 0.027(3) 0.000 0.0132(19) 0.000
Se2 0.0330(12) 0.0297(11) 0.0712(18) 0.000 0.0001(11) 0.000
Se3 0.0350(11) 0.0338(11) 0.0325(12) 0.000 0.0051(9) 0.000
Se4 0.0366(12) 0.0348(12) 0.0430(14) 0.000 0.0008(10) 0.000
Se5 0.0338(15) 0.0307(14) 0.0323(17) 0.000 0.0042(12) 0.000
loop_
_atom_type_symbol
_atom_type_description
_atom_type_scat_dispersion_real
_atom_type_scat_dispersion_imag
_atom_type_scat_source
Cu Cu 0.3240 0.8257 'International Tables Vol C Tables 4.2.6.8 and 6.1.1.4'
Se Se 0.2367 1.4831 'International Tables Vol C Tables 4.2.6.8 and 6.1.1.4'
Ag Ag -1.6473 0.7167 'International Tables Vol C Tables 4.2.6.8 and 6.1.1.4'
Bi Bi -1.3494 7.2566 'International Tables Vol C Tables 4.2.6.8 and 6.1.1.4'
loop_
_geom_angle_atom_site_label_1
_geom_angle_atom_site_label_2
_geom_angle_atom_site_label_3
_geom_angle
_geom_angle_site_symmetry_1
_geom_angle_site_symmetry_3
_geom_angle_publ_flag
Se1B Bi1 Se1A 8.5(15) . . ?
Se1B Bi1 Se4 99.0(11) . 3 ?
Se1A Bi1 Se4 93.23(11) . 3 ?
Se1B Bi1 Se4 99.0(11) . 3_545 ?
Se1A Bi1 Se4 93.23(11) . 3_545 ?
Se4 Bi1 Se4 93.76(7) 3 3_545 ?
Se1B Bi1 Se2 85.9(12) . 3_445 ?
Se1A Bi1 Se2 92.11(12) . 3_445 ?
Se4 Bi1 Se2 173.43(7) 3 3_445 ?
Se4 Bi1 Se2 89.74(4) 3_545 3_445 ?
Se1B Bi1 Se2 85.9(12) . 3_455 ?
Se1A Bi1 Se2 92.11(12) . 3_455 ?
Se4 Bi1 Se2 89.74(4) 3 3_455 ?
Se4 Bi1 Se2 173.43(7) 3_545 3_455 ?
Se2 Bi1 Se2 86.26(6) 3_445 3_455 ?
Se1B Bi1 Se5 170.2(16) . 3_545 ?
Se1A Bi1 Se5 178.69(15) . 3_545 ?
Se4 Bi1 Se5 87.66(5) 3 3_545 ?
Se4 Bi1 Se5 87.66(5) 3_545 3_545 ?
Se2 Bi1 Se5 86.93(5) 3_445 3_545 ?
Se2 Bi1 Se5 86.93(5) 3_455 3_545 ?
Cu2 Bi2 Se4 153(8) . . ?
Cu2 Bi2 Se2 109(5) . 3_455 ?
Se4 Bi2 Se2 89.09(7) . 3_455 ?
Cu2 Bi2 Se2 109(5) . 3_445 ?
Se4 Bi2 Se2 89.09(7) . 3_445 ?
Se2 Bi2 Se2 92.30(7) 3_455 3_445 ?
Cu2 Bi2 Se5 71(6) . 1_545 ?
Se4 Bi2 Se5 90.69(4) . 1_545 ?
Se2 Bi2 Se5 178.03(4) 3_455 1_545 ?
Se2 Bi2 Se5 89.65(3) 3_445 1_545 ?
Cu2 Bi2 Se5 71(6) . . ?
Se4 Bi2 Se5 90.69(4) . . ?
Se2 Bi2 Se5 89.65(3) 3_455 . ?
Se2 Bi2 Se5 178.03(4) 3_445 . ?
Se5 Bi2 Se5 88.39(3) 1_545 . ?
Cu2 Bi2 Se2 24(8) . 5_655 ?
Se4 Bi2 Se2 177.67(7) . 5_655 ?
Se2 Bi2 Se2 92.52(7) 3_455 5_655 ?
Se2 Bi2 Se2 92.52(7) 3_445 5_655 ?
Se5 Bi2 Se2 87.65(4) 1_545 5_655 ?
Se5 Bi2 Se2 87.65(4) . 5_655 ?
Bi2 Cu2 Se2 148(10) . 5_655 ?
Bi2 Cu2 Se5 95(6) . 1_545 ?
Se2 Cu2 Se5 106(4) 5_655 1_545 ?
Bi2 Cu2 Se5 95(6) . . ?
Se2 Cu2 Se5 106(4) 5_655 . ?
Se5 Cu2 Se5 95(3) 1_545 . ?
Se3 Bi3 Se1B 90.7(18) . 7_546 ?
Se3 Bi3 Se1B 90.7(18) . 7_556 ?
Se1B Bi3 Se1B 91.0(11) 7_546 7_556 ?
Se3 Bi3 Se1A 79.88(19) . 7_546 ?
Se1B Bi3 Se1A 10.8(16) 7_546 7_546 ?
Se1B Bi3 Se1A 91.9(5) 7_556 7_546 ?
Se3 Bi3 Se1A 79.88(19) . 7_556 ?
Se1B Bi3 Se1A 91.9(5) 7_546 7_556 ?
Se1B Bi3 Se1A 10.8(16) 7_556 7_556 ?
Se1A Bi3 Se1A 90.73(10) 7_546 7_556 ?
Se3 Bi3 Se3 82.23(6) . 7_556 ?
Se1B Bi3 Se3 172.9(18) 7_546 7_556 ?
Se1B Bi3 Se3 90.1(7) 7_556 7_556 ?
Se1A Bi3 Se3 162.0(2) 7_546 7_556 ?
Se1A Bi3 Se3 87.93(5) 7_556 7_556 ?
Se3 Bi3 Se3 82.23(6) . 7_546 ?
Se1B Bi3 Se3 90.1(7) 7_546 7_546 ?
Se1B Bi3 Se3 172.9(18) 7_556 7_546 ?
Se1A Bi3 Se3 87.93(5) 7_546 7_546 ?
Se1A Bi3 Se3 162.0(2) 7_556 7_546 ?
Se3 Bi3 Se3 87.86(5) 7_556 7_546 ?
Se3 Bi3 Cu3 50.4(9) . 5_556 ?
Se1B Bi3 Cu3 57.8(13) 7_546 5_556 ?
Se1B Bi3 Cu3 57.8(13) 7_556 5_556 ?
Se1A Bi3 Cu3 50.5(4) 7_546 5_556 ?
Se1A Bi3 Cu3 50.5(4) 7_556 5_556 ?
Se3 Bi3 Cu3 117.3(6) 7_556 5_556 ?
Se3 Bi3 Cu3 117.3(6) 7_546 5_556 ?
Se3 Bi3 Cu4 88.9(6) . . ?
Se1B Bi3 Cu4 134.5(6) 7_546 . ?
Se1B Bi3 Cu4 134.5(6) 7_556 . ?
Se1A Bi3 Cu4 132.59(16) 7_546 . ?
Se1A Bi3 Cu4 132.59(16) 7_556 . ?
Se3 Bi3 Cu4 44.77(11) 7_556 . ?
Se3 Bi3 Cu4 44.77(10) 7_546 . ?
Cu3 Bi3 Cu4 139.3(11) 5_556 . ?
Se1B Se1A Cu6 166(4) . 5_656 ?
Se1B Se1A Cu4 149(4) . 5_656 ?
Cu6 Se1A Cu4 16.7(7) 5_656 5_656 ?
Se1B Se1A Cu6 177(4) . . ?
Cu6 Se1A Cu6 11.0(10) 5_656 . ?
Cu4 Se1A Cu6 27.7(13) 5_656 . ?
Se1B Se1A Cu5 159.7(16) . 7_556 ?
Cu6 Se1A Cu5 19.3(4) 5_656 7_556 ?
Cu4 Se1A Cu5 28.8(7) 5_656 7_556 ?
Cu6 Se1A Cu5 19.2(4) . 7_556 ?
Se1B Se1A Cu5 159.7(16) . 3_545 ?
Cu6 Se1A Cu5 19.3(4) 5_656 3_545 ?
Cu4 Se1A Cu5 28.8(7) 5_656 3_545 ?
Cu6 Se1A Cu5 19.2(4) . 3_545 ?
Cu5 Se1A Cu5 37.0(9) 7_556 3_545 ?
Se1B Se1A Cu3 122.5(13) . 3 ?
Cu6 Se1A Cu3 55.5(10) 5_656 3 ?
Cu4 Se1A Cu3 56.3(10) 5_656 3 ?
Cu6 Se1A Cu3 56.8(10) . 3 ?
Cu5 Se1A Cu3 37.7(10) 7_556 3 ?
Cu5 Se1A Cu3 74.4(11) 3_545 3 ?
Se1B Se1A Cu3 122.5(13) . 3_545 ?
Cu6 Se1A Cu3 55.5(10) 5_656 3_545 ?
Cu4 Se1A Cu3 56.3(10) 5_656 3_545 ?
Cu6 Se1A Cu3 56.8(10) . 3_545 ?
Cu5 Se1A Cu3 74.4(11) 7_556 3_545 ?
Cu5 Se1A Cu3 37.7(10) 3_545 3_545 ?
Cu3 Se1A Cu3 110.8(19) 3 3_545 ?
Se1B Se1A Cu4 169(4) . . ?
Cu6 Se1A Cu4 25.5(11) 5_656 . ?
Cu4 Se1A Cu4 42.2(16) 5_656 . ?
Cu6 Se1A Cu4 14.5(6) . . ?
Cu5 Se1A Cu4 26.8(6) 7_556 . ?
Cu5 Se1A Cu4 26.8(5) 3_545 . ?
Cu3 Se1A Cu4 60.5(10) 3 . ?
Cu3 Se1A Cu4 60.5(10) 3_545 . ?
Se1B Se1A Bi1 39(4) . . ?
Cu6 Se1A Bi1 126.1(5) 5_656 . ?
Cu4 Se1A Bi1 109.5(9) 5_656 . ?
Cu6 Se1A Bi1 137.2(5) . . ?
Cu5 Se1A Bi1 129.31(18) 7_556 . ?
Cu5 Se1A Bi1 129.31(18) 3_545 . ?
Cu3 Se1A Bi1 107.4(10) 3 . ?
Cu3 Se1A Bi1 107.4(10) 3_545 . ?
Cu4 Se1A Bi1 151.7(8) . . ?
Se1B Se1A Bi3 84(3) . 7_546 ?
Cu6 Se1A Bi3 106.0(4) 5_656 7_546 ?
Cu4 Se1A Bi3 116.7(6) 5_656 7_546 ?
Cu6 Se1A Bi3 98.5(4) . 7_546 ?
Cu5 Se1A Bi3 115.1(4) 7_556 7_546 ?
Cu5 Se1A Bi3 88.5(3) 3_545 7_546 ?
Cu3 Se1A Bi3 140.3(11) 3 7_546 ?
Cu3 Se1A Bi3 66.3(10) 3_545 7_546 ?
Cu4 Se1A Bi3 88.3(6) . 7_546 ?
Bi1 Se1A Bi3 111.0(3) . 7_546 ?
Se1A Se1B Bi1 132(4) . . ?
Se1A Se1B Cu6 12(3) . 5_656 ?
Bi1 Se1B Cu6 120.5(16) . 5_656 ?
Se1A Se1B Cu4 25(3) . 5_656 ?
Bi1 Se1B Cu4 106.8(14) . 5_656 ?
Cu6 Se1B Cu4 13.7(7) 5_656 5_656 ?
Se1A Se1B Cu3 48.1(16) . 3 ?
Bi1 Se1B Cu3 109.1(13) . 3 ?
Cu6 Se1B Cu3 46.7(15) 5_656 3 ?
Cu4 Se1B Cu3 47.8(15) 5_656 3 ?
Se1A Se1B Cu3 48.1(16) . 3_545 ?
Bi1 Se1B Cu3 109.1(13) . 3_545 ?
Cu6 Se1B Cu3 46.7(15) 5_656 3_545 ?
Cu4 Se1B Cu3 47.8(15) 5_656 3_545 ?
Cu3 Se1B Cu3 93(3) 3 3_545 ?
Se1A Se1B Bi3 85(4) . 7_546 ?
Bi1 Se1B Bi3 125(2) . 7_546 ?
Cu6 Se1B Bi3 93(2) 5_656 7_546 ?
Cu4 Se1B Bi3 103(2) 5_656 7_546 ?
Cu3 Se1B Bi3 125(3) 3 7_546 ?
Cu3 Se1B Bi3 62.5(13) 3_545 7_546 ?
Se1A Se1B Bi3 85(4) . 7_556 ?
Bi1 Se1B Bi3 125(2) . 7_556 ?
Cu6 Se1B Bi3 93(2) 5_656 7_556 ?
Cu4 Se1B Bi3 103(2) 5_656 7_556 ?
Cu3 Se1B Bi3 62.5(13) 3 7_556 ?
Cu3 Se1B Bi3 125(3) 3_545 7_556 ?
Bi3 Se1B Bi3 91.0(11) 7_546 7_556 ?
Cu2 Se2 Bi2 93(2) 5_655 3_545 ?
Cu2 Se2 Bi2 93(2) 5_655 3 ?
Bi2 Se2 Bi2 92.30(7) 3_545 3 ?
Cu2 Se2 Bi1 87(2) 5_655 3 ?
Bi2 Se2 Bi1 176.90(6) 3_545 3 ?
Bi2 Se2 Bi1 90.72(2) 3 3 ?
Cu2 Se2 Bi1 87(2) 5_655 3_545 ?
Bi2 Se2 Bi1 90.72(2) 3_545 3_545 ?
Bi2 Se2 Bi1 176.90(6) 3 3_545 ?
Bi1 Se2 Bi1 86.26(6) 3 3_545 ?
Cu2 Se2 Bi2 7(3) 5_655 5_655 ?
Bi2 Se2 Bi2 87.48(7) 3_545 5_655 ?
Bi2 Se2 Bi2 87.48(7) 3 5_655 ?
Bi1 Se2 Bi2 91.95(6) 3 5_655 ?
Bi1 Se2 Bi2 91.95(6) 3_545 5_655 ?
Cu3 Se3 Cu4 59.6(7) . 7_546 ?
Cu3 Se3 Cu4 59.6(7) . 7_556 ?
Cu4 Se3 Cu4 117.2(14) 7_546 7_556 ?
Cu3 Se3 Cu3 48(2) . 5_556 ?
Cu4 Se3 Cu3 64.5(9) 7_546 5_556 ?
Cu4 Se3 Cu3 64.5(9) 7_556 5_556 ?
Cu3 Se3 Cu5 39.8(8) . 5_556 ?
Cu4 Se3 Cu5 28.1(8) 7_546 5_556 ?
Cu4 Se3 Cu5 90.9(9) 7_556 5_556 ?
Cu3 Se3 Cu5 38.2(7) 5_556 5_556 ?
Cu3 Se3 Cu5 39.8(8) . . ?
Cu4 Se3 Cu5 90.9(9) 7_546 . ?
Cu4 Se3 Cu5 28.1(8) 7_556 . ?
Cu3 Se3 Cu5 38.2(7) 5_556 . ?
Cu5 Se3 Cu5 63.5(8) 5_556 . ?
Cu3 Se3 Bi3 119.0(13) . . ?
Cu4 Se3 Bi3 98.0(8) 7_546 . ?
Cu4 Se3 Bi3 98.0(8) 7_556 . ?
Cu3 Se3 Bi3 71.2(12) 5_556 . ?
Cu5 Se3 Bi3 93.05(6) 5_556 . ?
Cu5 Se3 Bi3 93.05(6) . . ?
Cu3 Se3 Cu6 51.1(5) . 7_546 ?
Cu4 Se3 Cu6 12.0(6) 7_546 7_546 ?
Cu4 Se3 Cu6 106.3(9) 7_556 7_546 ?
Cu3 Se3 Cu6 52.8(5) 5_556 7_546 ?
Cu5 Se3 Cu6 16.1(4) 5_556 7_546 ?
Cu5 Se3 Cu6 79.3(6) . 7_546 ?
Bi3 Se3 Cu6 95.1(4) . 7_546 ?
Cu3 Se3 Cu6 51.1(5) . 7_556 ?
Cu4 Se3 Cu6 106.3(9) 7_546 7_556 ?
Cu4 Se3 Cu6 12.0(6) 7_556 7_556 ?
Cu3 Se3 Cu6 52.8(5) 5_556 7_556 ?
Cu5 Se3 Cu6 79.3(6) 5_556 7_556 ?
Cu5 Se3 Cu6 16.1(4) . 7_556 ?
Bi3 Se3 Cu6 95.1(4) . 7_556 ?
Cu6 Se3 Cu6 95.1(6) 7_546 7_556 ?
Cu3 Se3 Bi3 123.6(7) . 7_556 ?
Cu4 Se3 Bi3 158.2(8) 7_546 7_556 ?
Cu4 Se3 Bi3 75.2(7) 7_556 7_556 ?
Cu3 Se3 Bi3 135.49(18) 5_556 7_556 ?
Cu5 Se3 Bi3 163.4(3) 5_556 7_556 ?
Cu5 Se3 Bi3 103.2(4) . 7_556 ?
Bi3 Se3 Bi3 97.77(6) . 7_556 ?
Cu6 Se3 Bi3 166.7(4) 7_546 7_556 ?
Cu6 Se3 Bi3 87.1(3) 7_556 7_556 ?
Cu3 Se3 Bi3 123.6(7) . 7_546 ?
Cu4 Se3 Bi3 75.2(7) 7_546 7_546 ?
Cu4 Se3 Bi3 158.2(8) 7_556 7_546 ?
Cu3 Se3 Bi3 135.49(18) 5_556 7_546 ?
Cu5 Se3 Bi3 103.2(4) 5_556 7_546 ?
Cu5 Se3 Bi3 163.4(3) . 7_546 ?
Bi3 Se3 Bi3 97.77(6) . 7_546 ?
Cu6 Se3 Bi3 87.1(3) 7_546 7_546 ?
Cu6 Se3 Bi3 166.7(4) 7_556 7_546 ?
Bi3 Se3 Bi3 87.86(5) 7_556 7_546 ?
Bi2 Se4 Bi1 94.97(6) . 3_445 ?
Bi2 Se4 Bi1 94.97(6) . 3_455 ?
Bi1 Se4 Bi1 93.76(7) 3_445 3_455 ?
Cu2 Se5 Cu2 180.0 5 1_565 ?
Cu2 Se5 Cu2 95(3) 5 5_565 ?
Cu2 Se5 Cu2 85(3) 1_565 5_565 ?
Cu2 Se5 Cu2 85(3) 5 . ?
Cu2 Se5 Cu2 95(3) 1_565 . ?
Cu2 Se5 Cu2 180.0 5_565 . ?
Cu2 Se5 Bi2 15(3) 5 5 ?
Cu2 Se5 Bi2 165(3) 1_565 5 ?
Cu2 Se5 Bi2 93.4(19) 5_565 5 ?
Cu2 Se5 Bi2 86.6(19) . 5 ?
Cu2 Se5 Bi2 165(3) 5 1_565 ?
Cu2 Se5 Bi2 15(3) 1_565 1_565 ?
Cu2 Se5 Bi2 86.6(19) 5_565 1_565 ?
Cu2 Se5 Bi2 93.4(19) . 1_565 ?
Bi2 Se5 Bi2 180.00(5) 5 1_565 ?
Cu2 Se5 Bi2 93.4(19) 5 5_565 ?
Cu2 Se5 Bi2 86.6(19) 1_565 5_565 ?
Cu2 Se5 Bi2 15(3) 5_565 5_565 ?
Cu2 Se5 Bi2 165(3) . 5_565 ?
Bi2 Se5 Bi2 88.39(3) 5 5_565 ?
Bi2 Se5 Bi2 91.61(3) 1_565 5_565 ?
Cu2 Se5 Bi2 86.6(19) 5 . ?
Cu2 Se5 Bi2 93.4(19) 1_565 . ?
Cu2 Se5 Bi2 165(3) 5_565 . ?
Cu2 Se5 Bi2 15(3) . . ?
Bi2 Se5 Bi2 91.61(3) 5 . ?
Bi2 Se5 Bi2 88.39(3) 1_565 . ?
Bi2 Se5 Bi2 180.0 5_565 . ?
Cu2 Se5 Bi1 80(3) 5 3_455 ?
Cu2 Se5 Bi1 100(3) 1_565 3_455 ?
Cu2 Se5 Bi1 80(3) 5_565 3_455 ?
Cu2 Se5 Bi1 100(3) . 3_455 ?
Bi2 Se5 Bi1 93.46(3) 5 3_455 ?
Bi2 Se5 Bi1 86.54(3) 1_565 3_455 ?
Bi2 Se5 Bi1 93.46(3) 5_565 3_455 ?
Bi2 Se5 Bi1 86.54(3) . 3_455 ?
Cu2 Se5 Bi1 100(3) 5 7 ?
Cu2 Se5 Bi1 80(3) 1_565 7 ?
Cu2 Se5 Bi1 100(3) 5_565 7 ?
Cu2 Se5 Bi1 80(3) . 7 ?
Bi2 Se5 Bi1 86.54(3) 5 7 ?
Bi2 Se5 Bi1 93.46(3) 1_565 7 ?
Bi2 Se5 Bi1 86.54(3) 5_565 7 ?
Bi2 Se5 Bi1 93.46(3) . 7 ?
Bi1 Se5 Bi1 180.0 3_455 7 ?
Cu5 Cu3 Cu5 108(3) 5_556 . ?
Cu5 Cu3 Cu3 54.1(15) 5_556 5_556 ?
Cu5 Cu3 Cu3 54.1(15) . 5_556 ?
Cu5 Cu3 Se3 80.5(18) 5_556 . ?
Cu5 Cu3 Se3 80.5(18) . . ?
Cu3 Cu3 Se3 74(3) 5_556 . ?
Cu5 Cu3 Cu6 123(3) 5_556 7_556 ?
Cu5 Cu3 Cu6 16.0(6) . 7_556 ?
Cu3 Cu3 Cu6 69.5(13) 5_556 7_556 ?
Se3 Cu3 Cu6 79.7(13) . 7_556 ?
Cu5 Cu3 Cu6 16.0(6) 5_556 7_546 ?
Cu5 Cu3 Cu6 123(3) . 7_546 ?
Cu3 Cu3 Cu6 69.5(13) 5_556 7_546 ?
Se3 Cu3 Cu6 79.7(13) . 7_546 ?
Cu6 Cu3 Cu6 138(3) 7_556 7_546 ?
Cu5 Cu3 Cu4 126(3) 5_556 7_556 ?
Cu5 Cu3 Cu4 29.3(10) . 7_556 ?
Cu3 Cu3 Cu4 76.2(18) 5_556 7_556 ?
Se3 Cu3 Cu4 66.0(13) . 7_556 ?
Cu6 Cu3 Cu4 16.9(7) 7_556 7_556 ?
Cu6 Cu3 Cu4 137(2) 7_546 7_556 ?
Cu5 Cu3 Cu4 29.3(10) 5_556 7_546 ?
Cu5 Cu3 Cu4 126(3) . 7_546 ?
Cu3 Cu3 Cu4 76.2(18) 5_556 7_546 ?
Se3 Cu3 Cu4 66.0(13) . 7_546 ?
Cu6 Cu3 Cu4 137(2) 7_556 7_546 ?
Cu6 Cu3 Cu4 16.9(7) 7_546 7_546 ?
Cu4 Cu3 Cu4 129(3) 7_556 7_546 ?
Cu5 Cu3 Cu6 116(3) 5_556 3_455 ?
Cu5 Cu3 Cu6 9.1(7) . 3_455 ?
Cu3 Cu3 Cu6 62.1(12) 5_556 3_455 ?
Se3 Cu3 Cu6 86.8(14) . 3_455 ?
Cu6 Cu3 Cu6 12.0(9) 7_556 3_455 ?
Cu6 Cu3 Cu6 132(2) 7_546 3_455 ?
Cu4 Cu3 Cu6 28.5(13) 7_556 3_455 ?
Cu4 Cu3 Cu6 135(3) 7_546 3_455 ?
Cu5 Cu3 Cu6 9.1(7) 5_556 3_445 ?
Cu5 Cu3 Cu6 116(3) . 3_445 ?
Cu3 Cu3 Cu6 62.1(12) 5_556 3_445 ?
Se3 Cu3 Cu6 86.8(14) . 3_445 ?
Cu6 Cu3 Cu6 132(2) 7_556 3_445 ?
Cu6 Cu3 Cu6 12.0(9) 7_546 3_445 ?
Cu4 Cu3 Cu6 135(3) 7_556 3_445 ?
Cu4 Cu3 Cu6 28.5(13) 7_546 3_445 ?
Cu6 Cu3 Cu6 123(2) 3_455 3_445 ?
Cu5 Cu3 Se3 72.2(16) 5_556 5_556 ?
Cu5 Cu3 Se3 72.2(16) . 5_556 ?
Cu3 Cu3 Se3 59(2) 5_556 5_556 ?
Se3 Cu3 Se3 132(2) . 5_556 ?
Cu6 Cu3 Se3 83.6(14) 7_556 5_556 ?
Cu6 Cu3 Se3 83.6(14) 7_546 5_556 ?
Cu4 Cu3 Se3 100.3(16) 7_556 5_556 ?
Cu4 Cu3 Se3 100.3(16) 7_546 5_556 ?
Cu6 Cu3 Se3 71.8(12) 3_455 5_556 ?
Cu6 Cu3 Se3 71.8(12) 3_445 5_556 ?
Cu5 Cu3 Se1A 68.5(7) 5_556 3_445 ?
Cu5 Cu3 Se1A 165(3) . 3_445 ?
Cu3 Cu3 Se1A 120.8(13) 5_556 3_445 ?
Se3 Cu3 Se1A 112.3(12) . 3_445 ?
Cu6 Cu3 Se1A 165(2) 7_556 3_445 ?
Cu6 Cu3 Se1A 55.4(6) 7_546 3_445 ?
Cu4 Cu3 Se1A 162(2) 7_556 3_445 ?
Cu4 Cu3 Se1A 57.6(8) 7_546 3_445 ?
Cu6 Cu3 Se1A 161(2) 3_455 3_445 ?
Cu6 Cu3 Se1A 59.7(6) 3_445 3_445 ?
Se3 Cu3 Se1A 93.3(12) 5_556 3_445 ?
Cu6 Cu4 Cu6 9(4) . 5_656 ?
Cu6 Cu4 Cu5 40.9(15) . 7_556 ?
Cu6 Cu4 Cu5 40.7(15) 5_656 7_556 ?
Cu6 Cu4 Cu5 40.9(15) . 3_545 ?
Cu6 Cu4 Cu5 40.7(15) 5_656 3_545 ?
Cu5 Cu4 Cu5 81(3) 7_556 3_545 ?
Cu6 Cu4 Cu4 6(2) . 5_656 ?
Cu6 Cu4 Cu4 3.3(13) 5_656 5_656 ?
Cu5 Cu4 Cu4 40.6(14) 7_556 5_656 ?
Cu5 Cu4 Cu4 40.6(15) 3_545 5_656 ?
Cu6 Cu4 Cu3 75.5(19) . 7_556 ?
Cu6 Cu4 Cu3 78.8(16) 5_656 7_556 ?
Cu5 Cu4 Cu3 41.3(14) 7_556 7_556 ?
Cu5 Cu4 Cu3 115(3) 3_545 7_556 ?
Cu4 Cu4 Cu3 77.6(16) 5_656 7_556 ?
Cu6 Cu4 Cu3 75.5(19) . 7_546 ?
Cu6 Cu4 Cu3 78.8(16) 5_656 7_546 ?
Cu5 Cu4 Cu3 115(3) 7_556 7_546 ?
Cu5 Cu4 Cu3 41.3(14) 3_545 7_546 ?
Cu4 Cu4 Cu3 77.6(16) 5_656 7_546 ?
Cu3 Cu4 Cu3 129(3) 7_556 7_546 ?
Cu6 Cu4 Se1A 72(4) . 5_656 ?
Cu6 Cu4 Se1A 81.2(19) 5_656 5_656 ?
Cu5 Cu4 Se1A 80.9(16) 7_556 5_656 ?
Cu5 Cu4 Se1A 80.9(16) 3_545 5_656 ?
Cu4 Cu4 Se1A 78(2) 5_656 5_656 ?
Cu3 Cu4 Se1A 66.1(14) 7_556 5_656 ?
Cu3 Cu4 Se1A 66.1(14) 7_546 5_656 ?
Cu6 Cu4 Se3 118.6(13) . 7_546 ?
Cu6 Cu4 Se3 116.2(9) 5_656 7_546 ?
Cu5 Cu4 Se3 154(2) 7_556 7_546 ?
Cu5 Cu4 Se3 78.0(9) 3_545 7_546 ?
Cu4 Cu4 Se3 117.2(11) 5_656 7_546 ?
Cu3 Cu4 Se3 164(2) 7_556 7_546 ?
Cu3 Cu4 Se3 54.5(11) 7_546 7_546 ?
Se1A Cu4 Se3 109.9(9) 5_656 7_546 ?
Cu6 Cu4 Se3 118.6(13) . 7_556 ?
Cu6 Cu4 Se3 116.2(9) 5_656 7_556 ?
Cu5 Cu4 Se3 78.0(9) 7_556 7_556 ?
Cu5 Cu4 Se3 154(2) 3_545 7_556 ?
Cu4 Cu4 Se3 117.2(11) 5_656 7_556 ?
Cu3 Cu4 Se3 54.5(11) 7_556 7_556 ?
Cu3 Cu4 Se3 164(2) 7_546 7_556 ?
Se1A Cu4 Se3 109.9(9) 5_656 7_556 ?
Se3 Cu4 Se3 117.2(14) 7_546 7_556 ?
Cu6 Cu4 Cu3 62(2) . 3_545 ?
Cu6 Cu4 Cu3 58.4(11) 5_656 3_545 ?
Cu5 Cu4 Cu3 98(2) 7_556 3_545 ?
Cu5 Cu4 Cu3 25.4(14) 3_545 3_545 ?
Cu4 Cu4 Cu3 59.6(13) 5_656 3_545 ?
Cu3 Cu4 Cu3 137.2(16) 7_556 3_545 ?
Cu3 Cu4 Cu3 45(2) 7_546 3_545 ?
Se1A Cu4 Cu3 102.3(14) 5_656 3_545 ?
Se3 Cu4 Cu3 57.8(9) 7_546 3_545 ?
Se3 Cu4 Cu3 146.2(18) 7_556 3_545 ?
Cu6 Cu4 Cu3 62(2) . 3 ?
Cu6 Cu4 Cu3 58.4(11) 5_656 3 ?
Cu5 Cu4 Cu3 25.4(14) 7_556 3 ?
Cu5 Cu4 Cu3 98(2) 3_545 3 ?
Cu4 Cu4 Cu3 59.6(13) 5_656 3 ?
Cu3 Cu4 Cu3 45(2) 7_556 3 ?
Cu3 Cu4 Cu3 137.2(16) 7_546 3 ?
Se1A Cu4 Cu3 102.3(14) 5_656 3 ?
Se3 Cu4 Cu3 146.2(18) 7_546 3 ?
Se3 Cu4 Cu3 57.8(9) 7_556 3 ?
Cu3 Cu4 Cu3 106(2) 3_545 3 ?
Cu6 Cu5 Cu6 35(3) 3_455 7_556 ?
Cu6 Cu5 Cu4 67(3) 3_455 7_556 ?
Cu6 Cu5 Cu4 32.6(10) 7_556 7_556 ?
Cu6 Cu5 Cu4 32.6(10) 3_455 3_455 ?
Cu6 Cu5 Cu4 67(3) 7_556 3_455 ?
Cu4 Cu5 Cu4 99(3) 7_556 3_455 ?
Cu6 Cu5 Cu5 17.7(15) 3_455 5_566 ?
Cu6 Cu5 Cu5 17.7(15) 7_556 5_566 ?
Cu4 Cu5 Cu5 49.4(14) 7_556 5_566 ?
Cu4 Cu5 Cu5 49.4(15) 3_455 5_566 ?
Cu6 Cu5 Cu3 153(2) 3_455 . ?
Cu6 Cu5 Cu3 131(2) 7_556 . ?
Cu4 Cu5 Cu3 109(2) 7_556 . ?
Cu4 Cu5 Cu3 136(2) 3_455 . ?
Cu5 Cu5 Cu3 144.1(15) 5_566 . ?
Cu6 Cu5 Cu3 131(2) 3_455 5_556 ?
Cu6 Cu5 Cu3 153(2) 7_556 5_556 ?
Cu4 Cu5 Cu3 136(2) 7_556 5_556 ?
Cu4 Cu5 Cu3 109(2) 3_455 5_556 ?
Cu5 Cu5 Cu3 144.1(16) 5_566 5_556 ?
Cu3 Cu5 Cu3 72(3) . 5_556 ?
Cu6 Cu5 Se1A 64.7(15) 3_455 7_556 ?
Cu6 Cu5 Se1A 79.8(16) 7_556 7_556 ?
Cu4 Cu5 Se1A 85.6(16) 7_556 7_556 ?
Cu4 Cu5 Se1A 70.4(16) 3_455 7_556 ?
Cu5 Cu5 Se1A 71.5(4) 5_566 7_556 ?
Cu3 Cu5 Se1A 142.4(18) . 7_556 ?
Cu3 Cu5 Se1A 73.8(15) 5_556 7_556 ?
Cu6 Cu5 Se1A 79.8(16) 3_455 3_455 ?
Cu6 Cu5 Se1A 64.7(15) 7_556 3_455 ?
Cu4 Cu5 Se1A 70.4(16) 7_556 3_455 ?
Cu4 Cu5 Se1A 85.6(16) 3_455 3_455 ?
Cu5 Cu5 Se1A 71.5(4) 5_566 3_455 ?
Cu3 Cu5 Se1A 73.8(15) . 3_455 ?
Cu3 Cu5 Se1A 142.4(18) 5_556 3_455 ?
Se1A Cu5 Se1A 143.0(9) 7_556 3_455 ?
Cu6 Cu5 Se3 136.1(17) 3_455 . ?
Cu6 Cu5 Se3 106.3(14) 7_556 . ?
Cu4 Cu5 Se3 74.0(12) 7_556 . ?
Cu4 Cu5 Se3 163.8(17) 3_455 . ?
Cu5 Cu5 Se3 121.7(4) 5_566 . ?
Cu3 Cu5 Se3 59.7(17) . . ?
Cu3 Cu5 Se3 69.6(16) 5_556 . ?
Se1A Cu5 Se3 94.35(13) 7_556 . ?
Se1A Cu5 Se3 104.93(15) 3_455 . ?
Cu6 Cu5 Se3 106.3(14) 3_455 5_556 ?
Cu6 Cu5 Se3 136.1(17) 7_556 5_556 ?
Cu4 Cu5 Se3 163.8(16) 7_556 5_556 ?
Cu4 Cu5 Se3 74.0(13) 3_455 5_556 ?
Cu5 Cu5 Se3 121.7(4) 5_566 5_556 ?
Cu3 Cu5 Se3 69.6(16) . 5_556 ?
Cu3 Cu5 Se3 59.7(17) 5_556 5_556 ?
Se1A Cu5 Se3 104.93(15) 7_556 5_556 ?
Se1A Cu5 Se3 94.35(13) 3_455 5_556 ?
Se3 Cu5 Se3 116.5(8) . 5_556 ?
Cu6 Cu5 Cu5 162.3(15) 3_455 5_556 ?
Cu6 Cu5 Cu5 162.3(15) 7_556 5_556 ?
Cu4 Cu5 Cu5 130.6(14) 7_556 5_556 ?
Cu4 Cu5 Cu5 130.6(15) 3_455 5_556 ?
Cu5 Cu5 Cu5 180.000(16) 5_566 5_556 ?
Cu3 Cu5 Cu5 35.9(15) . 5_556 ?
Cu3 Cu5 Cu5 35.9(15) 5_556 5_556 ?
Se1A Cu5 Cu5 108.5(4) 7_556 5_556 ?
Se1A Cu5 Cu5 108.5(4) 3_455 5_556 ?
Se3 Cu5 Cu5 58.3(4) . 5_556 ?
Se3 Cu5 Cu5 58.3(4) 5_556 5_556 ?
Cu6 Cu6 Cu4 159(8) 5_656 . ?
Cu6 Cu6 Cu5 72.3(15) 5_656 3_545 ?
Cu4 Cu6 Cu5 106.6(16) . 3_545 ?
Cu6 Cu6 Cu5 72.3(15) 5_656 7_556 ?
Cu4 Cu6 Cu5 106.6(16) . 7_556 ?
Cu5 Cu6 Cu5 145(3) 3_545 7_556 ?
Cu6 Cu6 Cu4 12(5) 5_656 5_656 ?
Cu4 Cu6 Cu4 171(4) . 5_656 ?
Cu5 Cu6 Cu4 72.7(15) 3_545 5_656 ?
Cu5 Cu6 Cu4 72.7(15) 7_556 5_656 ?
Cu6 Cu6 Se1A 110(5) 5_656 5_656 ?
Cu4 Cu6 Se1A 91(4) . 5_656 ?
Cu5 Cu6 Se1A 95.9(16) 3_545 5_656 ?
Cu5 Cu6 Se1A 95.9(15) 7_556 5_656 ?
Cu4 Cu6 Se1A 97.9(18) 5_656 5_656 ?
Cu6 Cu6 Cu3 100(2) 5_656 7_556 ?
Cu4 Cu6 Cu3 87.6(19) . 7_556 ?
Cu5 Cu6 Cu3 160(2) 3_545 7_556 ?
Cu5 Cu6 Cu3 33.1(15) 7_556 7_556 ?
Cu4 Cu6 Cu3 95.6(15) 5_656 7_556 ?
Se1A Cu6 Cu3 69.1(13) 5_656 7_556 ?
Cu6 Cu6 Cu3 100(2) 5_656 7_546 ?
Cu4 Cu6 Cu3 87.6(19) . 7_546 ?
Cu5 Cu6 Cu3 33.1(15) 3_545 7_546 ?
Cu5 Cu6 Cu3 160(2) 7_556 7_546 ?
Cu4 Cu6 Cu3 95.6(15) 5_656 7_546 ?
Se1A Cu6 Cu3 69.1(13) 5_656 7_546 ?
Cu3 Cu6 Cu3 138(3) 7_556 7_546 ?
Cu6 Cu6 Cu3 68(2) 5_656 3_545 ?
Cu4 Cu6 Cu3 104(2) . 3_545 ?
Cu5 Cu6 Cu3 18.2(15) 3_545 3_545 ?
Cu5 Cu6 Cu3 137(2) 7_556 3_545 ?
Cu4 Cu6 Cu3 72.7(13) 5_656 3_545 ?
Se1A Cu6 Cu3 114.1(13) 5_656 3_545 ?
Cu3 Cu6 Cu3 168.0(9) 7_556 3_545 ?
Cu3 Cu6 Cu3 48(2) 7_546 3_545 ?
Cu6 Cu6 Cu3 68(2) 5_656 3 ?
Cu4 Cu6 Cu3 104(2) . 3 ?
Cu5 Cu6 Cu3 137(2) 3_545 3 ?
Cu5 Cu6 Cu3 18.2(15) 7_556 3 ?
Cu4 Cu6 Cu3 72.7(12) 5_656 3 ?
Se1A Cu6 Cu3 114.1(13) 5_656 3 ?
Cu3 Cu6 Cu3 48(2) 7_556 3 ?
Cu3 Cu6 Cu3 168.0(9) 7_546 3 ?
Cu3 Cu6 Cu3 123(2) 3_545 3 ?
Cu6 Cu6 Se1A 59(5) 5_656 . ?
Cu4 Cu6 Se1A 100(4) . . ?
Cu5 Cu6 Se1A 81.0(15) 3_545 . ?
Cu5 Cu6 Se1A 81.0(15) 7_556 . ?
Cu4 Cu6 Se1A 71.1(16) 5_656 . ?
Se1A Cu6 Se1A 169.0(10) 5_656 . ?
Cu3 Cu6 Se1A 111.1(13) 7_556 . ?
Cu3 Cu6 Se1A 111.1(13) 7_546 . ?
Cu3 Cu6 Se1A 63.5(12) 3_545 . ?
Cu3 Cu6 Se1A 63.5(12) 3 . ?
Cu6 Cu6 Se1B 113(5) 5_656 5_656 ?
Cu4 Cu6 Se1B 88(4) . 5_656 ?
Cu5 Cu6 Se1B 96.7(16) 3_545 5_656 ?
Cu5 Cu6 Se1B 96.7(16) 7_556 5_656 ?
Cu4 Cu6 Se1B 101(2) 5_656 5_656 ?
Se1A Cu6 Se1B 2.8(9) 5_656 5_656 ?
Cu3 Cu6 Se1B 69.0(13) 7_556 5_656 ?
Cu3 Cu6 Se1B 69.0(13) 7_546 5_656 ?
Cu3 Cu6 Se1B 114.8(13) 3_545 5_656 ?
Cu3 Cu6 Se1B 114.8(13) 3 5_656 ?
Se1A Cu6 Se1B 171.8(13) . 5_656 ?
loop_
_geom_bond_atom_site_label_1
_geom_bond_atom_site_label_2
_geom_bond_distance
_geom_bond_site_symmetry_2
_geom_bond_publ_flag
Bi1 Se1B 2.41(8) . ?
Bi1 Se1A 2.813(7) . ?
Bi1 Se4 2.8750(16) 3 ?
Bi1 Se4 2.8750(16) 3_545 ?
Bi1 Se2 3.0698(17) 3_445 ?
Bi1 Se2 3.0698(17) 3_455 ?
Bi1 Se5 3.0969(10) 3_545 ?
Bi2 Cu2 0.76(15) . ?
Bi2 Se4 2.804(3) . ?
Bi2 Se2 2.9101(18) 3_455 ?
Bi2 Se2 2.9101(18) 3_445 ?
Bi2 Se5 3.0104(8) 1_545 ?
Bi2 Se5 3.0104(8) . ?
Bi2 Se2 3.115(3) 5_655 ?
Cu2 Se2 2.44(14) 5_655 ?
Cu2 Se5 2.85(8) 1_545 ?
Cu2 Se5 2.85(8) . ?
Bi3 Se3 2.724(2) . ?
Bi3 Se1B 2.94(3) 7_546 ?
Bi3 Se1B 2.94(3) 7_556 ?
Bi3 Se1A 2.949(3) 7_546 ?
Bi3 Se1A 2.949(3) 7_556 ?
Bi3 Se3 3.0250(15) 7_556 ?
Bi3 Se3 3.0250(15) 7_546 ?
Bi3 Cu3 3.03(5) 5_556 ?
Bi3 Cu4 3.37(4) . ?
Se1A Se1B 0.56(8) . ?
Se1A Cu6 2.24(2) 5_656 ?
Se1A Cu4 2.36(3) 5_656 ?
Se1A Cu6 2.46(2) . ?
Se1A Cu5 2.469(11) 7_556 ?
Se1A Cu5 2.469(11) 3_545 ?
Se1A Cu3 2.55(3) 3 ?
Se1A Cu3 2.55(3) 3_545 ?
Se1A Cu4 2.66(4) . ?
Se1B Cu6 2.79(9) 5_656 ?
Se1B Cu4 2.85(9) 5_656 ?
Se1B Cu3 2.89(7) 3 ?
Se1B Cu3 2.89(7) 3_545 ?
Se3 Cu3 2.19(5) . ?
Se3 Cu4 2.459(18) 7_546 ?
Se3 Cu4 2.459(18) 7_556 ?
Se3 Cu3 2.46(5) 5_556 ?
Se3 Cu5 2.502(10) 5_556 ?
Se3 Cu5 2.502(10) . ?
Se3 Cu6 2.845(14) 7_546 ?
Se3 Cu6 2.845(14) 7_556 ?
Cu3 Cu5 1.62(3) 5_556 ?
Cu3 Cu5 1.62(3) . ?
Cu3 Cu3 1.90(10) 5_556 ?
Cu3 Cu6 2.25(2) 7_556 ?
Cu3 Cu6 2.25(2) 7_546 ?
Cu3 Cu4 2.32(3) 7_556 ?
Cu3 Cu4 2.32(3) 7_546 ?
Cu3 Cu6 2.38(3) 3_455 ?
Cu3 Cu6 2.38(3) 3_445 ?
Cu4 Cu6 0.68(3) . ?
Cu4 Cu6 1.16(5) 5_656 ?
Cu4 Cu5 1.20(3) 7_556 ?
Cu4 Cu5 1.20(3) 3_545 ?
Cu4 Cu4 1.83(7) 5_656 ?
Cu5 Cu6 0.822(17) 3_455 ?
Cu5 Cu6 0.822(17) 7_556 ?
Cu5 Cu5 1.57(4) 5_566 ?
Cu5 Cu5 2.63(4) 5_556 ?
Cu6 Cu6 0.50(4) 5_656 ?
