#------------------------------------------------------------------------------
#$Date: 2022-09-07 01:54:13 +0300 (Wed, 07 Sep 2022) $
#$Revision: 277698 $
#$URL: file:///home/coder/svn-repositories/cod/cif/7/71/11/7711194.cif $
#------------------------------------------------------------------------------
#
# This file is available in the Crystallography Open Database (COD),
# http://www.crystallography.net/
#
# All data on this site have been placed in the public domain by the
# contributors.
#
data_7711194
loop_
_publ_author_name
'Shekhovtsov, Nikita'
'Nikolaenkova, Elena B.'
'Berezin, Alexey Sergeevich'
'Plyusnin, Victor F.'
'Vinogradova, Katerina A.'
'Naumov, Dmitry Y.'
'Pervukhina, Natalie V.'
'Tikhonov, Alexsei Ya.'
'Bushuev, Mark B.'
_publ_section_title
;
 Tuning ESIPT-coupled luminescence by expanding \p-conjugation of a proton
 acceptor moiety in ESIPT-capable zinc(II) complexes with
 1-hydroxy-1H-imidazole-based ligands
;
_journal_name_full               'Dalton Transactions'
_journal_paper_doi               10.1039/D2DT02460H
_journal_year                    2022
_chemical_formula_sum            'C18 H14 I2 N4 O Zn'
_chemical_formula_weight         621.50
_space_group_crystal_system      triclinic
_space_group_IT_number           2
_space_group_name_Hall           '-P 1'
_space_group_name_H-M_alt        'P -1'
_atom_sites_solution_hydrogens   mixed
_audit_creation_method           SHELXL-2017/1
_audit_update_record
;
2022-06-21 deposited with the CCDC.	2022-09-05 downloaded from the CCDC.
;
_cell_angle_alpha                93.867(2)
_cell_angle_beta                 99.890(2)
_cell_angle_gamma                111.278(2)
_cell_formula_units_Z            2
_cell_length_a                   7.8596(3)
_cell_length_b                   8.1625(3)
_cell_length_c                   16.6942(7)
_cell_measurement_reflns_used    6141
_cell_measurement_temperature    150(2)
_cell_measurement_theta_max      28.87
_cell_measurement_theta_min      2.50
_cell_volume                     973.29(7)
_computing_cell_refinement       'SAINT (Bruker, 2004)'
_computing_data_collection       'APEX2 (Bruker, 2004)'
_computing_data_reduction        'SAINT (Bruker, 2004)'
_computing_molecular_graphics    'SHELXTL (Bruker, 2004)'
_computing_publication_material  'SHELXTL (Bruker, 2004)'
_computing_structure_refinement  'SHELXL-2017/1 (Sheldrick, 2017)'
_computing_structure_solution    'SHELXTL (Bruker, 2004)'
_diffrn_ambient_temperature      150(2)
_diffrn_measured_fraction_theta_full 1.000
_diffrn_measured_fraction_theta_max 1.000
_diffrn_measurement_device_type  'Bruker Nonius X8Apex CCD area-detector'
_diffrn_measurement_method       '\f scans'
_diffrn_radiation_type           MoK\a
_diffrn_radiation_wavelength     0.71073
_diffrn_reflns_av_R_equivalents  0.0465
_diffrn_reflns_av_unetI/netI     0.0346
_diffrn_reflns_Laue_measured_fraction_full 1.000
_diffrn_reflns_Laue_measured_fraction_max 1.000
_diffrn_reflns_limit_h_max       9
_diffrn_reflns_limit_h_min       -9
_diffrn_reflns_limit_k_max       10
_diffrn_reflns_limit_k_min       -9
_diffrn_reflns_limit_l_max       20
_diffrn_reflns_limit_l_min       -20
_diffrn_reflns_number            17112
_diffrn_reflns_point_group_measured_fraction_full 1.000
_diffrn_reflns_point_group_measured_fraction_max 1.000
_diffrn_reflns_theta_full        25.250
_diffrn_reflns_theta_max         26.372
_diffrn_reflns_theta_min         2.502
_exptl_absorpt_coefficient_mu    4.448
_exptl_absorpt_correction_type   multi-scan
_exptl_absorpt_process_details   'Bruker SADABS'
_exptl_crystal_density_diffrn    2.121
_exptl_crystal_description       prism
_exptl_crystal_F_000             588
_exptl_crystal_size_max          0.250
_exptl_crystal_size_mid          0.080
_exptl_crystal_size_min          0.080
_exptl_transmission_factor_max   0.7459
_exptl_transmission_factor_min   0.6590
_refine_diff_density_max         1.265
_refine_diff_density_min         -0.724
_refine_diff_density_rms         0.125
_refine_ls_extinction_method     none
_refine_ls_goodness_of_fit_ref   1.095
_refine_ls_hydrogen_treatment    mixed
_refine_ls_matrix_type           full
_refine_ls_number_parameters     239
_refine_ls_number_reflns         3984
_refine_ls_number_restraints     0
_refine_ls_restrained_S_all      1.095
_refine_ls_R_factor_all          0.0387
_refine_ls_R_factor_gt           0.0309
_refine_ls_shift/su_max          0.001
_refine_ls_shift/su_mean         0.000
_refine_ls_structure_factor_coef Fsqd
_refine_ls_weighting_details
'w=1/[\s^2^(Fo^2^)+(0.0384P)^2^+0.0687P] where P=(Fo^2^+2Fc^2^)/3'
_refine_ls_weighting_scheme      calc
_refine_ls_wR_factor_gt          0.0734
_refine_ls_wR_factor_ref         0.0766
_reflns_Friedel_coverage         0.000
_reflns_number_gt                3384
_reflns_number_total             3984
_reflns_threshold_expression     'I > 2\s(I)'
_cod_data_source_file            d2dt02460h2.cif
_cod_data_source_block           345
_cod_database_code               7711194
_shelx_shelxl_version_number     2017/1
_shelx_space_group_comment
;
The symmetry employed for this shelxl refinement is uniquely defined
by the following loop, which should always be used as a source of
symmetry information in preference to the above space-group names.
They are only intended as comments.
;
_shelx_estimated_absorpt_t_min   0.403
_shelx_estimated_absorpt_t_max   0.717
_shelx_res_file
;
TITL mbb_345 in P-1
    345.res
    created by SHELXL-2017/1 at 14:16:14 on 01-Jun-2022
CELL 0.71073 7.8596 8.1625 16.6942 93.867 99.890 111.278
ZERR 2.0000 0.0003 0.0003 0.0007 0.002 0.002 0.002
LATT 1
SFAC C H I N O ZN
UNIT 36 28 4 8 2 2
L.S. 12
OMIT 0 180
BOND $H
CONF
ACTA 50.5
FMAP 2 1 53
PLAN 5 0 0
HTAB 2.0
SHEL 999999 0.8
SIZE 0.25 0.08 0.08
TEMP -123
WGHT    0.038400    0.068700
FVAR       0.10898
ZN1   6    0.310522    0.247819    0.321242    11.00000    0.02243    0.02444 =
         0.02362    0.00387    0.00304    0.00575
I1    3    0.305669    0.539092    0.381856    11.00000    0.03948    0.02654 =
         0.02875    0.00429    0.00978    0.01139
I2    3    0.598397    0.230706    0.275967    11.00000    0.02626    0.03493 =
         0.03656    0.01080    0.00933    0.01317
N1    4   -0.198057   -0.040042    0.150970    11.00000    0.02047    0.02852 =
         0.02270    0.00450    0.00029    0.00860
N2    4    0.066976    0.100845    0.237815    11.00000    0.02264    0.02046 =
         0.02427    0.00120    0.00359    0.00508
N3    4   -0.090069    0.146965    0.026492    11.00000    0.02456    0.02113 =
         0.02596    0.00230    0.00141    0.00826
N4    4    0.198956    0.053705    0.390602    11.00000    0.02917    0.02906 =
         0.02507    0.00623    0.00763    0.01309
O1    5   -0.336621   -0.092121    0.081040    11.00000    0.02273    0.03424 =
         0.02629    0.00285   -0.00382    0.00205
H1    2   -0.293183   -0.032369    0.044644    11.00000   -1.50000
C1    1   -0.216892   -0.122054    0.218778    11.00000    0.02349    0.02353 =
         0.02867    0.00087    0.00543    0.00761
C2    1   -0.046935   -0.032593    0.273437    11.00000    0.02122    0.01903 =
         0.02389    0.00183    0.00603    0.00609
C3    1   -0.026846    0.091692    0.162616    11.00000    0.02308    0.02272 =
         0.02334    0.00103    0.00434    0.00789
C4    1    0.033099    0.195561    0.097525    11.00000    0.02120    0.02611 =
         0.02465    0.00182    0.00341    0.00954
C5    1    0.209687    0.336503    0.109330    11.00000    0.02511    0.02457 =
         0.02619    0.00041    0.00097    0.00554
AFIX  43
H5    2    0.295797    0.366631    0.160582    11.00000   -1.20000
AFIX   0
C6    1    0.253618    0.428608    0.045029    11.00000    0.02485    0.01991 =
         0.03531    0.00177    0.00548    0.00277
AFIX  43
H6    2    0.370766    0.524493    0.051765    11.00000   -1.20000
AFIX   0
C7    1    0.125208    0.381225   -0.031049    11.00000    0.02746    0.02688 =
         0.02361    0.00503    0.00791    0.01140
C8    1   -0.047389    0.236018   -0.038678    11.00000    0.02591    0.02566 =
         0.02457    0.00315    0.00416    0.01413
C9    1    0.159571    0.469477   -0.099677    11.00000    0.02733    0.02842 =
         0.03005    0.00572    0.00774    0.00971
AFIX  43
H9    2    0.274060    0.567414   -0.095508    11.00000   -1.20000
AFIX   0
C10   1    0.030006    0.416186   -0.172712    11.00000    0.03482    0.04229 =
         0.03072    0.01274    0.01180    0.01917
AFIX  43
H10   2    0.053828    0.478606   -0.218178    11.00000   -1.20000
AFIX   0
C11   1   -0.137733    0.268944   -0.179690    11.00000    0.03407    0.04093 =
         0.02184    0.00361    0.00302    0.02272
AFIX  43
H11   2   -0.224916    0.230074   -0.230776    11.00000   -1.20000
AFIX   0
C12   1   -0.178034    0.180105   -0.113991    11.00000    0.02734    0.02589 =
         0.03045    0.00300    0.00236    0.01063
AFIX  43
H12   2   -0.292892    0.081954   -0.119342    11.00000   -1.20000
AFIX   0
C13   1    0.025661   -0.065304    0.354739    11.00000    0.02567    0.02319 =
         0.02814    0.00471    0.00708    0.01070
C14   1   -0.066767   -0.206167    0.392897    11.00000    0.03066    0.03122 =
         0.04775    0.01092    0.01387    0.01317
AFIX  43
H14   2   -0.187413   -0.289357    0.366591    11.00000   -1.20000
AFIX   0
C15   1    0.017470   -0.225588    0.469860    11.00000    0.04946    0.03970 =
         0.03490    0.01826    0.02116    0.02378
AFIX  43
H15   2   -0.044113   -0.322129    0.496761    11.00000   -1.20000
AFIX   0
C16   1    0.192623   -0.101825    0.506615    11.00000    0.04584    0.04388 =
         0.02974    0.01041    0.01067    0.02315
AFIX  43
H16   2    0.252787   -0.111090    0.559580    11.00000   -1.20000
AFIX   0
C17   1    0.279539    0.036388    0.465017    11.00000    0.03080    0.03922 =
         0.02328    0.00287    0.00592    0.01390
AFIX  43
H17   2    0.400085    0.121226    0.490319    11.00000   -1.20000
AFIX   0
C18   1   -0.390671   -0.270801    0.224025    11.00000    0.02214    0.03073 =
         0.03920    0.00720    0.00330    0.00432
AFIX 137
H18A  2   -0.373416   -0.383366    0.216075    11.00000   -1.50000
H18B  2   -0.493975   -0.272352    0.181306    11.00000   -1.50000
H18C  2   -0.419463   -0.254983    0.278162    11.00000   -1.50000
AFIX   0
HKLF 4




REM  mbb_345 in P-1
REM R1 =  0.0309 for    3384 Fo > 4sig(Fo)  and  0.0387 for all    3984 data
REM    239 parameters refined using      0 restraints

END

WGHT      0.0322      0.8665

REM Instructions for potential hydrogen bonds
HTAB O1 N3
EQIV $1 -x+1, -y, -z+1
HTAB C16 I2_$1
EQIV $2 -x+1, -y+1, -z+1
HTAB C17 I1_$2
EQIV $3 x-1, y-1, z
HTAB C18 I2_$3
HTAB C18 I1_$3

REM Highest difference peak  1.265,  deepest hole -0.724,  1-sigma level  0.125
Q1    1   0.5114  0.1625  0.2974  11.00000  0.05    1.27
Q2    1   0.4012  0.6039  0.3601  11.00000  0.05    0.91
Q3    1   0.5738  0.3209  0.3068  11.00000  0.05    0.83
Q4    1   0.3122  0.4095  0.3624  11.00000  0.05    0.79
Q5    1  -0.4377 -0.4952  0.3214  11.00000  0.05    0.76
;
_shelx_res_checksum              29137
_shelx_hkl_file
;
  -1   0   0    2.22    0.17
  -1   0   0    2.07    0.21
  -1   0   0    2.97    0.69
   1   0   0    2.10    0.21
   1   0   0    2.67    0.17
   1   0   0    2.05    0.54
  -2   0   0   65.49    1.56
  -2   0   0   69.65    1.47
  -2   0   0   68.63    3.22
   2   0   0   66.37    1.57
   2   0   0   65.16    3.10
   2   0   0   67.26    1.46
  -3   0   0  209.38    4.01
  -3   0   0  202.90    7.05
  -3   0   0  210.74    4.18
   3   0   0  206.78    3.99
   3   0   0  204.44    4.16
   3   0   0  200.65    7.02
  -4   0   0    6.55    0.67
  -4   0   0    6.21    0.50
  -4   0   0    9.40    2.13
   4   0   0    6.54    0.65
   4   0   0    8.60    2.08
   4   0   0    5.98    0.47
  -5   0   0    0.55    0.33
  -5   0   0    0.50    0.28
  -5   0   0   -0.20    0.47
   5   0   0    0.01    0.20
   5   0   0    0.08    0.52
   5   0   0    0.37    0.25
  -6   0   0    0.60    1.04
  -6   0   0    0.34    0.31
  -6   0   0   -0.22    0.28
   6   0   0   -0.08    0.24
   6   0   0   -0.01    0.25
   6   0   0    1.28    1.30
  -7   0   0   16.28    3.98
  -7   0   0   10.78    1.02
  -7   0   0   12.16    1.26
   7   0   0   12.05    1.17
   7   0   0   11.07    1.01
   7   0   0   10.51    2.98
  -8   0   0   15.38    1.05
   8   0   0   12.89    1.03
   8   0   0   12.96    3.58
   8   0   0   14.19    1.42
   9   0   0    2.19    0.65
   9   0   0    5.56    2.79
   9   0   0    2.43    0.68
   9   0   0    1.65    0.62
  10  -1   0   -0.51    0.85
   9  -1   0    0.99    0.47
   9  -1   0   -0.03    0.33
   9  -1   0    0.12    0.80
   9  -1   0    0.90    0.57
   8  -1   0    8.27    1.02
   8  -1   0    5.96    0.71
   8  -1   0    7.41    2.66
  -8   1   0    7.08    0.74
  -8   1   0    5.16    0.89
   7  -1   0    2.33    1.54
   7  -1   0    3.90    0.56
   7  -1   0    2.82    0.57
  -7   1   0    3.01    0.51
  -7   1   0    3.05    1.75
  -7   1   0    4.46    0.75
   6  -1   0   28.13    1.06
   6  -1   0   27.70    1.29
  -6   1   0   29.22    1.34
  -6   1   0   27.06    1.05
  -6   1   0   34.53    4.88
   5  -1   0   34.82    1.10
   5  -1   0   38.09    1.37
   5  -1   0   39.27    3.57
  -5   1   0   32.97    1.33
  -5   1   0   37.37    3.49
  -5   1   0   34.39    1.10
   4  -1   0   44.78    1.17
   4  -1   0   41.48    3.25
  -4   1   0   46.12    1.41
  -4   1   0   46.68    1.18
  -4   1   0   44.75    3.35
   3  -1   0  201.09    6.62
   3  -1   0  204.30    3.74
   3  -1   0  202.07    3.97
  -3   1   0  206.43    3.74
  -3   1   0  206.02    6.68
  -3   1   0  204.75    3.98
   2  -1   0  150.05    2.74
   2  -1   0  157.74    4.69
   2  -1   0  150.20    2.90
  -2   1   0  155.01    2.73
  -2   1   0  154.30    4.72
   1  -1   0   50.60    1.04
   1  -1   0   47.17    1.00
   1  -1   0   52.71    1.63
  -1   1   0   46.97    1.00
  -1   1   0   50.55    0.99
  -1   1   0   49.34    1.60
   0  -1   0    0.95    0.18
   0  -1   0    0.94    0.25
   0  -1   0    1.16    0.17
   0   1   0    1.27    0.18
   0   1   0    1.97    0.43
   0   1   0    1.19    0.17
  -1  -1   0   34.76    0.99
  -1  -1   0   34.72    0.95
   1   1   0   34.04    0.97
   1   1   0   32.29    1.87
   1   1   0   32.98    0.94
  -2  -1   0    8.90    1.67
  -2  -1   0    7.76    0.54
  -2  -1   0    5.37    0.44
   2   1   0    6.11    0.45
   2   1   0    7.08    0.51
   2   1   0    8.23    1.66
  -3  -1   0   17.82    2.75
  -3  -1   0   14.62    0.82
  -3  -1   0   15.40    0.76
   3   1   0   16.21    2.47
   3   1   0   14.66    0.73
   3   1   0   13.66    0.78
  -4  -1   0   43.55    1.49
  -4  -1   0   48.55    5.90
  -4  -1   0   42.25    1.60
   4   1   0   49.49    3.89
   4   1   0   42.89    1.46
   4   1   0   45.56    1.61
  -5  -1   0   40.78    1.70
  -5  -1   0   44.29    4.16
  -5  -1   0   40.02    1.52
   5   1   0   40.04    1.65
   5   1   0   49.92    6.03
   5   1   0   41.53    1.52
  -6  -1   0    2.14    1.55
  -6  -1   0    1.41    0.44
  -6  -1   0    1.51    0.53
   6   1   0    0.51    0.41
   6   1   0    1.65    0.51
   6   1   0   -0.50    0.41
  -7  -1   0   42.58    1.80
  -7  -1   0   38.81    9.79
  -7  -1   0   42.54    3.00
   7   1   0   44.25    1.82
   7   1   0   43.32    1.98
   8   1   0   11.25    1.29
   8   1   0   14.64    1.34
   8   1   0   14.56    4.01
   9   1   0    0.08    0.49
   9   1   0    0.53    0.56
   9   1   0    0.59    1.18
  10  -2   0    6.60    2.93
  10  -2   0    2.68    0.71
   9  -2   0    0.32    0.45
   9  -2   0    1.02    1.50
   9  -2   0    0.37    0.30
   9  -2   0    0.91    0.33
   8  -2   0    4.96    0.56
   8  -2   0    5.46    0.81
   8  -2   0    6.28    2.53
  -8   2   0    6.20    1.03
   7  -2   0    3.25    0.43
   7  -2   0    2.92    1.67
   7  -2   0    3.22    0.56
  -7   2   0    2.66    0.40
  -7   2   0    2.54    0.56
   6  -2   0    6.21    0.45
   6  -2   0    5.86    0.69
   6  -2   0    5.04    1.94
  -6   2   0    6.26    0.44
  -6   2   0    6.13    0.72
  -6   2   0    8.26    2.60
   5  -2   0   58.56    4.18
   5  -2   0   60.82    1.75
   5  -2   0   61.34    1.43
  -5   2   0   62.27    1.40
  -5   2   0   58.19    1.75
  -5   2   0   62.87    4.32
   4  -2   0  157.07    2.99
   4  -2   0  163.40    3.33
   4  -2   0  155.43    6.27
  -4   2   0  156.23    6.26
  -4   2   0  163.54    3.34
  -4   2   0  156.52    2.95
   3  -2   0   26.92    2.06
   3  -2   0   27.13    0.85
   3  -2   0   26.65    0.69
  -3   2   0   27.73    0.67
  -3   2   0   26.33    0.84
  -3   2   0   26.58    2.04
   2  -2   0  167.39    3.16
   2  -2   0  172.46    3.11
   2  -2   0  163.85    4.49
  -2   2   0  165.67    3.10
  -2   2   0  161.19    3.14
   1  -2   0   73.36    1.61
  -1   2   0   78.29    1.72
  -1   2   0   75.95    1.65
  -1   2   0   74.85    1.62
   0  -2   0   23.12    0.82
   0  -2   0   24.27    0.84
   0   2   0   25.39    1.24
   0   2   0   24.84    0.84
   0   2   0   24.87    0.83
  -1  -2   0   15.31    0.73
  -1  -2   0   14.40    0.72
  -1  -2   0   16.27    1.89
   1   2   0   14.42    0.71
   1   2   0   14.42    0.71
   1   2   0   14.57    1.41
  -2  -2   0   25.73    3.02
  -2  -2   0   18.40    1.01
  -2  -2   0   17.90    0.90
   2   2   0   24.03    3.00
   2   2   0   17.16    0.85
   2   2   0   18.99    0.90
  -3  -2   0   11.12    2.23
  -3  -2   0    9.21    0.88
  -3  -2   0    7.47    0.63
   3   2   0   10.11    0.91
   3   2   0    7.98    0.66
   3   2   0    8.34    2.22
  -4  -2   0    3.84    1.47
  -4  -2   0    5.97    0.74
  -4  -2   0    5.31    0.71
   4   2   0    6.26    1.98
   4   2   0    4.91    0.68
  -5  -2   0   23.89    1.38
  -5  -2   0   20.10    3.65
  -5  -2   0   22.08    1.24
   5   2   0   21.56    1.21
   5   2   0   24.10    4.28
   5   2   0   23.07    1.32
  -6  -2   0   21.74    1.32
  -6  -2   0   21.52    4.25
  -6  -2   0   24.91    1.55
   6   2   0   23.25    1.43
   6   2   0   21.55    4.09
   6   2   0   23.66    1.34
  -7  -2   0    5.62    2.48
  -7  -2   0    6.33    0.97
   7   2   0    3.76    0.84
   7   2   0    5.78    0.93
   7   2   0    2.41    1.74
   8   2   0   -0.03    0.77
   9   2   0    1.14    2.03
   9   2   0    2.46    0.79
  10  -3   0    6.17    2.91
  10  -3   0    5.96    0.96
   9  -3   0    2.42    0.61
   9  -3   0    2.58    1.75
  -9   3   0    4.57    0.85
   8  -3   0   15.59    1.04
   8  -3   0   14.02    3.40
  -8   3   0   15.63    1.10
   7  -3   0   77.61    5.70
   7  -3   0   78.37    2.33
  -7   3   0   78.13    2.37
   6  -3   0   51.84    1.67
   6  -3   0   54.90    4.37
   6  -3   0   52.62    1.18
  -6   3   0   52.74    1.17
  -6   3   0   49.07    4.23
  -6   3   0   54.30    1.73
   5  -3   0   16.70    0.54
   5  -3   0   14.56    3.03
  -5   3   0   16.27    0.50
  -5   3   0   17.09    0.82
   4  -3   0  104.87    2.14
   4  -3   0  107.49    2.40
   4  -3   0  103.16    4.69
  -4   3   0  106.98    4.76
  -4   3   0  107.77    2.10
  -4   3   0  109.32    2.41
   3  -3   0   18.00    0.71
   3  -3   0   17.05    1.63
  -3   3   0   18.20    1.64
  -3   3   0   18.55    0.71
  -3   3   0   17.41    0.66
   2  -3   0   13.88    0.92
   2  -3   0   15.09    0.63
  -2   3   0   14.97    0.67
  -2   3   0   16.00    0.64
  -2   3   0   15.10    0.62
  -2   3   0   15.03    0.93
   1  -3   0    4.62    0.48
  -1   3   0    4.18    0.47
  -1   3   0    4.32    0.44
  -1   3   0    4.48    0.47
   0  -3   0  107.81    2.55
   0  -3   0  107.88    3.34
   0  -3   0  102.67    2.49
   0   3   0  104.88    2.50
   0   3   0  103.78    2.50
   0   3   0  104.72    3.32
  -1  -3   0   16.18    2.13
  -1  -3   0   13.40    0.80
  -1  -3   0   13.59    0.81
   1   3   0   12.60    0.77
   1   3   0   12.32    0.76
   1   3   0   13.70    1.94
  -2  -3   0    0.26    0.27
  -2  -3   0   -0.41    0.34
  -2  -3   0    0.27    0.25
   2   3   0   -0.05    0.47
   2   3   0    0.45    0.26
   2   3   0    0.13    0.23
  -3  -3   0  146.12    3.70
  -3  -3   0  145.30    3.77
  -3  -3   0  142.90    6.75
   3   3   0  148.16    3.69
   3   3   0  157.72    7.01
   3   3   0  147.46    3.71
  -4  -3   0   87.52    2.84
  -4  -3   0   88.96    2.74
  -4  -3   0   89.60    5.81
   4   3   0   86.72    2.69
   4   3   0   86.23    2.73
   4   3   0   88.40    5.83
  -5  -3   0    1.21    1.14
  -5  -3   0    0.05    0.34
  -5  -3   0    0.36    0.42
   5   3   0    0.95    0.96
   5   3   0   -0.23    0.57
   5   3   0    0.49    0.39
  -6  -3   0   19.18    1.36
  -6  -3   0   25.26    4.78
   6   3   0   20.00    1.45
   6   3   0   24.17    1.49
   6   3   0   17.11    3.92
  -7  -3   0    9.27    3.52
  -7  -3   0    7.05    1.10
   7   3   0    7.95    1.11
   7   3   0    9.18    3.19
   8   3   0   -0.28    0.76
   8   3   0   -0.18    0.47
   8   3   0   -0.29    0.94
  10  -4   0    8.20    1.03
  10  -4   0   12.15    3.47
   9  -4   0   34.89    1.61
   9  -4   0   28.58    4.68
  -9   4   0   37.22    2.02
   8  -4   0    2.97    1.73
   8  -4   0    2.11    0.53
  -8   4   0    0.63    0.42
   7  -4   0   23.01    3.73
   7  -4   0   22.11    1.13
  -7   4   0   22.19    1.14
   6  -4   0    2.47    0.48
   6  -4   0    1.49    0.99
  -6   4   0    2.22    0.44
   5  -4   0    2.49    1.15
   5  -4   0    1.93    0.40
  -5   4   0    2.12    0.26
  -5   4   0    3.83    1.36
  -5   4   0    2.44    0.40
  -5   4   0    2.25    0.27
   4  -4   0    2.71    0.42
   4  -4   0    4.87    1.17
  -4   4   0    3.55    0.98
  -4   4   0    3.32    0.37
  -4   4   0    3.77    0.38
  -4   4   0    3.24    0.42
   3  -4   0   67.68    1.74
   3  -4   0   61.59    2.50
  -3   4   0   67.92    1.71
  -3   4   0   69.84    1.75
  -3   4   0   64.12    2.56
  -3   4   0   68.19    1.80
   2  -4   0   96.87    2.38
  -2   4   0  105.29    2.47
  -2   4   0  105.57    2.42
  -2   4   0  106.80    2.59
   1  -4   0    1.41    0.33
  -1   4   0    1.84    0.46
  -1   4   0    1.75    0.36
  -1   4   0    2.33    0.44
   0  -4   0  179.63    4.25
   0  -4   0  177.26    4.02
   0  -4   0  173.72    5.05
   0   4   0  171.63    5.13
   0   4   0  180.53    4.04
   0   4   0  183.66    4.02
  -1  -4   0  247.83    7.58
  -1  -4   0  250.45    5.42
  -1  -4   0  250.52    5.42
   1   4   0  245.62    7.54
   1   4   0  242.07    5.34
   1   4   0  250.57    5.36
  -2  -4   0    8.10    0.91
  -2  -4   0    9.14    2.02
  -2  -4   0    7.61    0.87
   2   4   0   10.06    0.83
   2   4   0    8.84    1.00
   2   4   0   10.80    2.16
  -3  -4   0   38.96    5.66
  -3  -4   0   40.94    1.86
  -3  -4   0   41.32    1.81
   3   4   0   40.91    1.78
   3   4   0   38.81    3.55
   3   4   0   41.82    1.80
  -4  -4   0   11.74    1.32
  -4  -4   0   11.56    2.77
   4   4   0   12.03    1.22
   4   4   0   15.26    3.31
   4   4   0   13.71    1.36
  -5  -4   0    0.45    0.44
  -5  -4   0   -0.19    0.59
   5   4   0    0.01    0.36
   5   4   0    0.53    0.90
  -6  -4   0    0.15    1.03
  -6  -4   0    0.12    0.42
   6   4   0    0.28    0.41
   6   4   0    1.10    1.08
   7   4   0    4.08    0.95
   7   4   0    0.92    1.30
  10  -5   0    0.43    1.35
  10  -5   0   -0.20    0.39
 -10   5   0    0.10    0.53
   9  -5   0   -0.08    0.62
   9  -5   0    0.48    0.41
  -9   5   0    0.33    0.45
   8  -5   0    5.21    0.70
  -8   5   0    5.00    0.72
   7  -5   0   10.48    2.46
   7  -5   0   11.47    0.84
  -7   5   0   10.90    0.82
   6  -5   0   15.33    2.62
   6  -5   0   12.97    0.81
  -6   5   0   13.14    0.51
  -6   5   0   13.98    0.53
  -6   5   0   14.31    0.84
   5  -5   0   10.37    1.82
   5  -5   0   11.68    0.73
  -5   5   0   11.51    0.61
  -5   5   0   11.50    0.62
   4  -5   0    2.38    0.43
   4  -5   0    2.00    0.74
  -4   5   0    1.12    0.35
  -4   5   0    2.03    0.39
  -4   5   0    1.82    0.36
  -4   5   0    2.21    0.75
   3  -5   0   13.54    0.76
  -3   5   0   13.39    0.76
  -3   5   0   14.77    0.98
  -3   5   0   13.23    0.74
  -2   5   0   90.85    2.43
  -2   5   0   91.38    2.60
  -2   5   0   94.41    2.52
  -1   5   0   19.64    0.99
  -1   5   0   20.91    1.07
  -1   5   0   20.06    1.14
  -1   5   0   19.72    1.06
   0  -5   0    1.11    0.42
   0  -5   0    1.08    0.61
   0   5   0    1.26    0.43
   0   5   0    2.38    0.77
   0   5   0    1.09    0.40
   0   5   0    1.59    0.39
  -1  -5   0    4.68    0.76
  -1  -5   0    4.94    0.77
  -1  -5   0    5.14    1.44
   1   5   0    3.84    0.70
   1   5   0    3.14    0.60
  -2  -5   0    5.37    1.66
  -2  -5   0    4.80    0.78
  -2  -5   0    3.56    0.71
   2   5   0    4.34    0.74
   2   5   0    4.31    1.56
   2   5   0    4.42    0.80
  -3  -5   0    5.84    0.91
   3   5   0    2.65    0.64
   3   5   0    4.56    1.67
   3   5   0    4.04    0.79
  -4  -5   0    1.77    0.66
  -4  -5   0    5.86    2.32
   4   5   0    3.71    1.87
   4   5   0    3.70    0.78
  -5  -5   0    3.86    0.84
  -5  -5   0    2.50    1.75
   5   5   0    4.13    1.94
   5   5   0    3.03    0.74
   6   5   0    0.65    1.09
   6   5   0    0.52    0.48
  10  -6   0    2.84    0.70
  10  -6   0    5.29    2.36
   9  -6   0    0.61    1.24
   9  -6   0   -0.01    0.37
  -9   6   0    0.16    0.40
   8  -6   0    0.88    0.40
   8  -6   0    0.91    0.98
  -8   6   0    0.59    0.42
   7  -6   0    7.38    0.78
   7  -6   0    8.71    2.11
  -7   6   0    6.88    0.76
   6  -6   0   15.51    0.93
   6  -6   0   19.93    2.81
  -6   6   0   14.46    0.72
  -6   6   0   14.90    0.76
  -6   6   0   14.42    0.92
   5  -6   0    7.41    0.76
   5  -6   0    6.90    1.32
  -5   6   0    7.77    0.60
  -5   6   0    7.81    0.77
   4  -6   0   88.47    2.39
  -4   6   0   86.91    2.48
  -4   6   0   85.49    2.36
  -3   6   0  110.90    2.88
  -3   6   0  113.38    3.09
  -3   6   0  115.15    3.05
  -3   6   0  110.46    2.92
  -2   6   0    0.45    0.39
  -2   6   0    0.37    0.43
  -2   6   0    0.85    0.35
  -2   6   0    0.47    0.40
  -1   6   0   50.57    1.94
  -1   6   0   50.45    1.94
  -1   6   0   53.88    1.89
  -1   6   0   49.13    2.09
   0  -6   0   56.24    2.15
   0   6   0   57.32    2.13
   0   6   0   52.74    2.08
   0   6   0   56.23    2.85
   0   6   0   54.87    2.02
  -1  -6   0   -0.12    0.48
   1   6   0   -0.01    0.34
   1   6   0    0.61    0.40
   1   6   0    1.22    0.62
   1   6   0    0.53    0.60
  -2  -6   0    0.64    0.73
  -2  -6   0    0.41    0.39
   2   6   0    0.01    0.34
   2   6   0    1.20    0.87
  -3  -6   0    1.33    1.11
  -3  -6   0   -0.01    0.35
   3   6   0    0.31    0.67
   3   6   0    0.00    0.36
  -4  -6   0    4.66    1.95
  -4  -6   0    6.48    1.11
   4   6   0    6.30    1.04
   4   6   0    8.22    2.55
  -5  -6   0   -0.15    0.83
   5   6   0   -0.02    0.46
   5   6   0   -0.09    0.41
  10  -7   0    5.14    3.11
  10  -7   0    3.87    0.78
   9  -7   0    8.50    2.45
   9  -7   0    9.13    0.97
  -9   7   0    6.93    1.25
   8  -7   0    2.61    0.54
   8  -7   0    1.40    1.24
  -8   7   0    1.12    0.44
   7  -7   0   22.93    3.95
   7  -7   0   27.63    1.32
  -7   7   0   24.53    1.28
  -7   7   0   25.71    0.92
  -7   7   0   25.60    0.92
   6  -7   0   58.62    3.23
   6  -7   0   61.73    2.04
  -6   7   0   58.43    1.78
  -6   7   0   62.60    2.04
  -6   7   0   61.03    1.88
   5  -7   0    3.20    0.59
  -5   7   0    2.73    0.54
  -5   7   0    2.96    0.57
  -5   7   0    3.39    0.64
  -4   7   0   42.50    1.65
  -4   7   0   40.44    1.75
  -4   7   0   41.46    1.62
  -4   7   0   39.84    1.74
  -3   7   0   18.93    1.29
  -3   7   0   16.16    1.12
  -3   7   0   15.22    1.11
  -3   7   0   18.63    1.12
  -2   7   0    0.73    0.47
  -2   7   0    0.69    0.52
  -2   7   0    0.55    0.41
  -2   7   0    1.14    0.51
  -1   7   0   10.28    1.14
  -1   7   0    9.00    1.21
  -1   7   0   10.31    1.19
   0   7   0   15.31    1.53
   0   7   0    8.86    1.14
   0   7   0    9.40    1.07
   0   7   0    8.65    1.22
  -1  -7   0   24.18    3.18
   1   7   0   20.36    1.58
   1   7   0   24.28    1.53
   1   7   0   20.03    2.70
  -2  -7   0   12.90    2.76
   2   7   0   11.25    1.30
   2   7   0    9.10    2.13
   2   7   0   10.06    1.39
  -3  -7   0   15.35    3.46
   3   7   0   16.59    2.14
   3   7   0   14.94    1.80
   3   7   0   14.90    3.16
  -4  -7   0   22.31    4.34
   4   7   0   27.49    2.12
   4   7   0   26.82    1.97
   9  -8   0    3.85    1.12
   9  -8   0    4.69    1.84
   8  -8   0   11.01    1.06
   8  -8   0   11.42    2.26
  -8   8   0    6.68    1.03
   7  -8   0   -0.02    0.55
   7  -8   0    0.38    0.48
   7  -8   0    0.13    0.36
  -7   8   0    0.34    0.35
  -7   8   0    0.49    0.37
  -7   8   0    0.25    0.42
  -6   8   0    1.59    0.52
  -6   8   0    1.20    0.50
  -6   8   0    2.80    0.60
  -6   8   0    1.65    0.54
  -5   8   0    1.49    0.49
  -5   8   0    1.51    0.51
  -5   8   0    2.11    0.61
  -5   8   0    0.55    0.43
  -4   8   0    1.84    0.58
  -4   8   0    1.36    0.52
  -4   8   0    0.89    0.50
  -4   8   0    1.93    0.54
  -3   8   0    1.50    0.57
  -3   8   0    1.67    0.58
  -3   8   0    2.10    0.59
  -3   8   0    1.84    0.77
  -2   8   0   19.25    1.36
  -2   8   0   17.21    1.43
  -2   8   0   23.40    1.47
  -2   8   0   20.75    1.33
  -1   8   0    5.57    1.07
  -1   8   0    6.83    1.03
   0   8   0    2.88    0.79
   0   8   0    1.15    0.67
   1   8   0   23.64    3.44
   1   8   0   24.46    1.67
   1   8   0   25.08    1.89
   2   8   0    8.94    2.24
   2   8   0    7.63    1.17
   2   8   0   11.42    1.60
   8  -9   0    3.03    0.90
  -8   9   0    4.07    0.83
  -8   9   0    2.06    0.67
  -7   9   0    2.71    0.64
  -7   9   0    3.15    0.66
  -7   9   0    4.81    0.89
  -7   9   0    3.40    0.73
  -6   9   0    1.56    0.59
  -6   9   0    1.34    0.54
  -6   9   0    0.31    0.51
  -6   9   0    0.42    0.46
  -5   9   0   -0.13    0.46
  -5   9   0    0.01    0.41
  -5   9   0   -0.50    0.38
  -5   9   0    0.05    0.43
  -4   9   0    2.61    0.76
  -4   9   0    3.56    0.89
  -4   9   0    3.33    1.27
  -4   9   0    1.76    0.65
  -3   9   0    2.44    0.78
  -3   9   0    2.35    0.71
  -2   9   0    0.95    0.61
  -2   9   0    0.68    0.57
  -1   9   0    9.95    1.42
  -1   9   0    6.83    1.06
   0   9   0   11.17    1.63
   1   9   0   -0.23    0.53
   1   9   0    0.96    0.60
  -8  10   0    0.13    0.61
  -7  10   0    1.80    0.69
  -7  10   0    0.96    0.65
  -6  10   0    4.94    1.01
  -6  10   0    6.39    1.08
  -6  10   0    5.82    1.04
  -5  10   0    3.04    0.88
  -5  10   0    2.15    0.72
  -4  10   0    6.89    1.19
  -4  10   0    5.47    0.99
  -3  10   0   30.86    1.95
  -3  10   0   31.62    2.16
  -2  10   0    7.05    1.79
  -2  10   0   11.03    1.59
  -1  10   0    3.73    0.96
  -1  10   0    4.91    1.16
  -6  11   0   12.77    1.92
  -6  11   0   14.53    1.68
  -5  11   0    6.25    1.21
  -5  11   0    4.85    1.12
  -4  11   0    0.30    0.67
  -4  11   0    1.25    0.73
  -3  11   0    4.41    1.32
  -3  11  -1    7.96    2.22
  -3  11  -1    6.70    1.13
  -4  11  -1    0.96    0.75
  -4  11  -1    0.15    0.57
  -5  11  -1    1.89    1.02
  -5  11  -1    1.91    0.84
  -6  11  -1    1.88    0.76
  -6  11  -1    2.56    0.94
  -1  10  -1    1.55    0.75
  -1  10  -1    3.69    0.98
  -2  10  -1    3.62    0.97
  -2  10  -1    3.33    0.93
  -3  10  -1    1.22    0.62
  -3  10  -1    2.93    1.02
  -4  10  -1    0.68    0.58
  -4  10  -1   -0.17    0.47
  -5  10  -1    0.34    0.54
  -5  10  -1    0.74    0.73
  -6  10  -1    0.49    0.55
  -6  10  -1   -0.55    0.56
  -6  10  -1    0.56    0.64
  -7  10  -1   13.10    1.51
  -7  10  -1   12.01    1.29
  -8  10  -1    1.50    0.72
   1   9  -1    1.97    0.81
   1   9  -1    1.31    0.68
   0   9  -1    2.10    1.08
   0   9  -1    0.78    0.55
  -1   9  -1   -0.38    0.50
  -1   9  -1   -0.02    0.41
  -2   9  -1    0.10    0.46
  -2   9  -1   -0.41    0.40
  -3   9  -1    2.42    0.66
  -3   9  -1    1.56    0.76
  -4   9  -1    9.87    1.33
  -4   9  -1   13.09    1.26
  -4   9  -1    9.66    1.14
  -4   9  -1   11.18    1.31
  -5   9  -1    1.18    1.17
  -5   9  -1    3.41    0.75
  -5   9  -1    1.93    0.68
  -5   9  -1    1.34    0.56
  -6   9  -1    0.41    0.51
  -6   9  -1    0.19    0.49
  -6   9  -1    0.53    0.49
  -6   9  -1    0.12    0.47
  -7   9  -1    7.23    0.91
  -7   9  -1    5.57    0.76
  -7   9  -1    6.04    0.95
  -8   9  -1    5.69    1.01
  -8   9  -1    5.37    0.70
   8  -9   1    4.94    1.08
   8  -9   1    7.72    1.56
   2   8  -1    5.73    1.88
   2   8  -1    7.12    1.40
   2   8  -1    5.75    1.01
  -2  -8   1    7.76    2.24
   1   8  -1   10.06    2.30
   1   8  -1    7.88    1.30
   1   8  -1   11.03    1.39
   0   8  -1    0.64    0.49
   0   8  -1    0.10    0.43
  -1   8  -1    1.23    0.68
  -1   8  -1    1.13    0.53
  -2   8  -1    4.95    0.86
  -2   8  -1    5.93    1.01
  -2   8  -1    3.45    0.70
  -2   8  -1    4.77    0.89
  -3   8  -1   15.86    1.38
  -3   8  -1   13.08    1.66
  -3   8  -1   10.27    1.19
  -3   8  -1   11.46    1.14
  -4   8  -1    4.44    0.88
  -4   8  -1    2.94    0.68
  -4   8  -1    4.19    0.72
  -4   8  -1    4.55    0.78
  -5   8  -1   21.30    1.25
  -5   8  -1   16.81    1.12
  -5   8  -1   20.08    1.32
  -5   8  -1   19.21    1.25
  -6   8  -1   40.64    1.68
  -6   8  -1   38.70    1.74
  -6   8  -1   38.73    1.60
  -6   8  -1   41.72    1.71
  -7   8  -1    8.04    0.80
  -7   8  -1    7.70    0.97
  -7   8  -1    5.73    0.78
   7  -8   1    8.17    1.50
   7  -8   1   10.35    1.79
  -8   8  -1    0.30    0.25
  -8   8  -1    0.25    0.26
  -8   8  -1    0.56    0.42
   8  -8   1    0.60    0.38
   8  -8   1    0.46    0.73
   9  -8   1    7.74    2.17
   9  -8   1    6.37    0.81
   4   7  -1    4.11    1.10
   4   7  -1    5.49    1.06
  -4  -7   1    4.28    2.17
   3   7  -1    0.29    0.60
   3   7  -1   -0.05    0.80
   3   7  -1    0.68    0.55
  -3  -7   1   -0.25    0.74
   2   7  -1    2.93    1.27
   2   7  -1    2.00    0.75
   2   7  -1    1.96    0.63
  -2  -7   1    1.63    1.11
   1   7  -1    2.61    1.12
   1   7  -1    1.46    0.55
   1   7  -1    1.03    0.59
  -1  -7   1    2.91    1.17
   0   7  -1   48.27    2.07
   0   7  -1   44.79    2.24
   0   7  -1   44.84    1.94
   0   7  -1   45.81    2.08
  -1   7  -1   24.72    1.44
  -1   7  -1   23.91    1.35
  -1   7  -1   25.71    1.56
  -1   7  -1   24.04    1.59
  -2   7  -1   13.09    1.03
  -2   7  -1   14.87    1.40
  -2   7  -1   15.83    1.14
  -2   7  -1   12.84    0.97
  -3   7  -1  116.23    3.05
  -3   7  -1  111.40    3.16
  -3   7  -1  113.21    3.17
  -3   7  -1  110.37    3.35
  -4   7  -1   51.67    1.93
  -4   7  -1   53.83    1.83
  -4   7  -1   51.89    1.88
  -4   7  -1   53.62    2.03
  -5   7  -1    6.44    0.82
  -5   7  -1    7.45    0.79
  -5   7  -1    6.68    0.84
  -5   7  -1    7.49    0.80
  -6   7  -1   16.19    0.99
  -6   7  -1   14.67    0.96
   6  -7   1   17.61    2.34
   6  -7   1   16.84    1.00
  -7   7  -1    5.10    0.69
  -7   7  -1    5.91    0.58
  -7   7  -1    6.12    0.60
   7  -7   1    4.85    1.51
   7  -7   1    5.04    0.68
  -8   7  -1    3.20    0.61
   8  -7   1    2.55    0.53
   8  -7   1    3.58    1.55
  -9   7  -1    1.30    0.52
   9  -7   1    1.44    0.47
   9  -7   1    3.16    1.63
  10  -7   1    1.35    0.52
  10  -7   1    2.48    1.71
   5   6  -1    0.32    1.09
   5   6  -1    0.03    0.38
   5   6  -1    0.97    0.64
  -5  -6   1   -0.23    0.77
   4   6  -1    3.07    0.90
   4   6  -1    7.07    1.09
   4   6  -1    3.83    1.88
  -4  -6   1    4.77    2.05
   3   6  -1    7.03    1.16
   3   6  -1    6.25    2.01
   3   6  -1    8.50    1.18
  -3  -6   1   11.07    2.93
   2   6  -1   37.74    1.85
   2   6  -1   36.48    2.00
   2   6  -1   39.21    3.39
  -2  -6   1   34.92    1.89
  -2  -6   1   35.60    3.30
   1   6  -1    1.48    0.51
   1   6  -1    2.01    1.02
   1   6  -1    0.90    0.69
   1   6  -1    0.87    0.49
  -1  -6   1    0.54    0.73
  -1  -6   1    0.61    0.65
   0   6  -1   62.53    2.27
   0   6  -1   56.09    2.83
   0   6  -1   59.51    2.40
   0   6  -1   60.97    2.20
   0   6  -1   61.92    2.11
   0  -6   1   60.34    2.95
  -1   6  -1   84.15    2.83
  -1   6  -1   85.86    2.65
  -1   6  -1   83.90    2.59
  -1   6  -1   89.44    2.53
  -2   6  -1    2.46    0.53
  -2   6  -1    1.91    0.43
  -2   6  -1    2.12    0.56
  -2   6  -1    2.08    0.56
  -3   6  -1    6.56    0.77
  -3   6  -1    5.01    0.70
  -3   6  -1    6.80    0.69
  -3   6  -1    7.02    0.87
  -4   6  -1    2.29    0.45
  -4   6  -1    1.51    0.47
  -4   6  -1    2.67    0.52
   4  -6   1    1.84    0.59
   4  -6   1    2.79    0.61
  -5   6  -1    0.23    0.26
  -5   6  -1   -0.02    0.23
  -5   6  -1    1.25    0.36
   5  -6   1    1.02    0.63
   5  -6   1    0.99    0.36
  -6   6  -1    1.53    0.35
  -6   6  -1    1.75    0.37
  -6   6  -1    1.71    0.39
   6  -6   1    0.68    0.97
   6  -6   1    2.04    0.44
  -7   6  -1   15.65    0.66
  -7   6  -1   15.60    0.95
  -7   6  -1   15.76    0.65
   7  -6   1   13.51    2.67
   7  -6   1   16.74    0.94
  -8   6  -1   14.26    0.99
   8  -6   1   16.00    0.99
   8  -6   1   19.06    3.47
  -9   6  -1    0.88    0.48
   9  -6   1   -0.18    0.72
   9  -6   1    1.22    0.45
  10  -6   1   13.76    1.10
  10  -6   1   10.10    3.05
   6   5  -1    1.17    1.29
   6   5  -1    1.02    0.84
   6   5  -1    0.56    0.54
  -6  -5   1   -0.30    0.89
   5   5  -1    2.00    0.73
   5   5  -1    0.25    0.73
   5   5  -1    1.68    0.64
  -5  -5   1    1.55    1.35
   4   5  -1    6.09    0.95
   4   5  -1    7.59    2.59
  -4  -5   1    8.25    1.14
  -4  -5   1    8.02    2.52
   3   5  -1    2.48    0.63
   3   5  -1    1.44    0.51
   3   5  -1    3.94    1.62
  -3  -5   1    2.32    0.64
   2   5  -1   15.99    2.72
   2   5  -1   15.03    1.08
   2   5  -1   12.82    1.03
  -2  -5   1   14.87    1.12
  -2  -5   1   15.80    2.68
  -2  -5   1   14.08    1.08
   1   5  -1   72.72    2.40
   1   5  -1   78.21    2.43
  -1  -5   1   70.88    2.40
  -1  -5   1   66.51    3.75
  -1  -5   1   69.03    2.36
   0   5  -1   10.11    0.82
   0   5  -1   10.76    0.98
   0   5  -1   10.48    1.12
   0   5  -1    8.36    1.37
   0  -5   1   11.18    1.61
   0  -5   1    9.81    0.96
  -1   5  -1    1.78    0.50
  -1   5  -1    1.61    0.44
  -1   5  -1    2.48    0.50
  -1   5  -1    2.27    0.46
  -2   5  -1   32.45    1.36
  -2   5  -1   32.04    1.39
  -2   5  -1   34.32    1.31
  -2   5  -1   33.12    1.22
  -3   5  -1   13.74    0.72
  -3   5  -1   14.06    0.86
  -3   5  -1   13.98    0.82
  -3   5  -1   15.37    0.83
  -4   5  -1    0.26    0.23
  -4   5  -1    0.53    0.24
  -4   5  -1    0.56    0.30
   4  -5   1    0.40    0.47
   4  -5   1    0.93    0.35
  -5   5  -1   12.19    0.68
  -5   5  -1   14.62    0.75
  -5   5  -1   12.84    0.66
   5  -5   1   16.15    2.36
   5  -5   1   11.98    0.75
  -6   5  -1    9.36    0.53
  -6   5  -1    7.73    1.10
  -6   5  -1    9.38    0.52
   6  -5   1    9.52    2.11
   6  -5   1    7.72    0.71
  -7   5  -1    0.64    0.32
   7  -5   1   -0.16    0.25
   7  -5   1    0.25    0.65
  -8   5  -1    7.40    0.83
   8  -5   1    4.99    2.44
   8  -5   1    6.09    0.70
  -9   5  -1   10.80    1.08
   9  -5   1   10.52    3.15
   9  -5   1   11.11    1.02
  10  -5   1    4.15    2.16
   7   4  -1    5.92    2.68
   7   4  -1    8.69    1.34
   7   4  -1    9.35    1.37
   6   4  -1   13.59    1.52
   6   4  -1   13.48    3.70
  -6  -4   1   13.74    3.77
   5   4  -1    5.19    1.43
   5   4  -1    2.59    1.62
   5   4  -1    6.05    0.96
  -5  -4   1    2.64    0.69
  -5  -4   1    7.14    2.70
   4   4  -1  103.00    3.21
   4   4  -1  102.42    6.37
   4   4  -1   98.94    3.16
  -4  -4   1  100.32    6.39
  -4  -4   1   98.63    3.27
  -4  -4   1   96.82    3.14
   3   4  -1  108.74    5.97
   3   4  -1  109.73    3.20
   3   4  -1  115.55    3.24
  -3  -4   1  106.49    6.40
  -3  -4   1  112.47    3.25
  -3  -4   1  112.68    3.32
   2   4  -1    6.68    1.81
   2   4  -1    5.10    0.74
   2   4  -1    4.92    0.74
  -2  -4   1    4.33    0.69
  -2  -4   1    4.35    0.74
  -2  -4   1    5.19    1.64
   1   4  -1   90.84    4.06
   1   4  -1   91.55    2.56
   1   4  -1   91.72    2.59
  -1  -4   1   91.46    2.59
  -1  -4   1   89.27    2.58
  -1  -4   1   89.96    4.09
   0   4  -1   41.14    2.30
   0   4  -1   41.67    1.61
   0   4  -1   42.66    1.47
   0   4  -1   41.40    1.52
   0  -4   1   39.78    2.15
   0  -4   1   42.18    1.56
  -1   4  -1    6.94    0.58
  -1   4  -1    7.12    0.76
  -1   4  -1    7.71    0.57
  -1   4  -1    7.94    0.55
  -2   4  -1    0.30    0.29
  -2   4  -1    0.90    0.24
  -2   4  -1    0.34    0.22
  -2   4  -1    0.61    0.24
  -3   4  -1   56.93    1.56
  -3   4  -1   53.18    2.52
  -3   4  -1   57.71    1.50
  -3   4  -1   59.50    1.66
   3  -4   1   53.72    2.53
   3  -4   1   59.86    1.52
  -4   4  -1   83.65    1.98
  -4   4  -1   84.37    3.88
  -4   4  -1   84.71    1.98
   4  -4   1   83.15    1.98
   4  -4   1   76.14    3.95
  -5   4  -1    0.14    0.20
  -5   4  -1    0.22    0.17
  -5   4  -1    0.40    0.61
   5  -4   1   -0.08    0.17
   5  -4   1    0.14    0.18
   5  -4   1    0.62    0.75
  -6   4  -1  108.03    2.23
  -6   4  -1  105.80    2.63
   6  -4   1  110.27    2.62
   6  -4   1  106.94    6.03
   6  -4   1  107.45    2.30
  -7   4  -1   72.52    2.11
  -7   4  -1   66.52    1.47
   7  -4   1   66.63    5.16
   7  -4   1   67.02    2.02
  -8   4  -1   -0.05    0.32
   8  -4   1   -0.12    0.28
   8  -4   1    1.42    1.31
  -9   4  -1    1.20    0.51
   9  -4   1    0.78    1.00
   9  -4   1    1.00    0.46
 -10   4  -1    8.70    1.38
  10  -4   1    8.00    3.20
  10  -4   1    8.86    1.04
   8   3  -1    1.54    1.70
   8   3  -1    1.89    0.79
   8   3  -1    0.54    0.64
   7   3  -1   16.41    4.08
   7   3  -1   23.78    1.67
   7   3  -1   28.05    1.74
  -7  -3   1   22.70    5.00
   6   3  -1   20.55    4.28
   6   3  -1   19.05    1.39
   6   3  -1   19.77    1.35
  -6  -3   1   22.76    4.87
  -6  -3   1   17.23    1.29
   5   3  -1    0.42    0.38
   5   3  -1    0.59    0.72
   5   3  -1    0.10    0.33
  -5  -3   1    0.03    0.32
  -5  -3   1    1.02    1.29
  -5  -3   1    0.53    0.43
   4   3  -1   27.53    4.47
   4   3  -1   25.07    1.34
   4   3  -1   27.98    1.45
  -4  -3   1   25.59    1.35
  -4  -3   1   28.93    1.52
  -4  -3   1   29.80    4.26
   3   3  -1    1.59    1.05
   3   3  -1    1.23    0.45
   3   3  -1    1.37    0.43
  -3  -3   1    1.75    0.53
  -3  -3   1    1.17    0.98
  -3  -3   1    1.27    0.43
   2   3  -1    5.39    0.67
   2   3  -1    6.78    1.66
   2   3  -1    7.02    0.78
  -2  -3   1    6.83    0.79
  -2  -3   1    3.90    1.29
  -2  -3   1    5.97    0.75
   1   3  -1    8.81    0.64
   1   3  -1   10.10    0.68
   1   3  -1   10.14    1.62
  -1  -3   1    9.61    0.67
  -1  -3   1   11.32    0.72
  -1  -3   1   14.18    1.99
   0   3  -1  128.53    2.87
   0   3  -1  132.95    2.95
   0   3  -1  124.82    3.70
   0  -3   1  128.59    3.73
   0  -3   1  130.62    2.91
  -1   3  -1  266.95    5.23
  -1   3  -1  275.33    5.35
  -1   3  -1  271.81    5.09
  -1   3  -1  271.49    5.16
  -2   3  -1    1.99    0.34
  -2   3  -1    2.33    0.31
   2  -3   1    2.40    0.29
   2  -3   1    2.45    0.58
   2  -3   1    2.07    0.34
  -3   3  -1  170.13    5.46
  -3   3  -1  183.21    3.52
  -3   3  -1  183.71    3.47
   3  -3   1  178.53    3.46
   3  -3   1  180.05    3.54
   3  -3   1  173.45    5.49
  -4   3  -1  216.18    4.12
  -4   3  -1  207.05    7.10
  -4   3  -1  210.80    3.97
   4  -3   1  208.93    4.08
   4  -3   1  209.04    4.03
   4  -3   1  207.32    7.07
  -5   3  -1   25.83    4.33
  -5   3  -1   23.94    0.94
  -5   3  -1   22.08    0.73
   5  -3   1   22.37    0.90
   5  -3   1   23.80    0.81
   5  -3   1   25.46    3.50
  -6   3  -1   20.83    4.24
  -6   3  -1   14.74    0.63
   6  -3   1   16.25    0.84
   6  -3   1   18.38    3.38
   6  -3   1   14.48    0.67
  -7   3  -1   13.13    0.91
  -7   3  -1   14.38    0.66
   7  -3   1   14.20    0.70
   7  -3   1   15.14    0.92
   7  -3   1   16.42    3.56
  -8   3  -1    0.34    0.23
  -8   3  -1    0.20    0.41
   8  -3   1   -0.18    0.51
   8  -3   1    0.19    0.31
   8  -3   1    0.51    0.27
  -9   3  -1    0.50    0.49
   9  -3   1    0.89    0.94
  10  -3   1    3.48    1.81
  10  -3   1    3.43    0.79
   9   2  -1    6.13    3.18
   9   2  -1    4.03    0.93
   8   2  -1    6.82    1.08
   8   2  -1    3.36    1.94
  -8  -2   1   10.50    4.45
   7   2  -1    7.69    1.09
   7   2  -1    9.48    3.22
   7   2  -1    7.98    1.01
  -7  -2   1    9.98    1.27
  -7  -2   1    7.65    2.78
   6   2  -1    0.66    0.41
   6   2  -1    1.24    1.15
   6   2  -1    0.94    0.49
  -6  -2   1    1.28    0.48
  -6  -2   1    2.00    1.44
  -6  -2   1    0.44    0.41
   5   2  -1    7.67    0.90
   5   2  -1    6.17    0.85
   5   2  -1   10.68    2.99
  -5  -2   1    7.23    0.95
  -5  -2   1    7.89    0.93
  -5  -2   1    7.24    2.22
   4   2  -1   14.07    0.90
   4   2  -1   15.57    3.01
   4   2  -1   14.51    0.98
  -4  -2   1   14.38    1.00
  -4  -2   1   14.67    2.82
  -4  -2   1   18.30    1.01
   3   2  -1   41.37    3.87
   3   2  -1   46.78    1.80
   3   2  -1   41.50    1.54
  -3  -2   1   45.15    1.54
  -3  -2   1   40.93    3.31
  -3  -2   1   44.24    1.61
   2   2  -1   25.21    2.96
   2   2  -1   20.04    0.93
   2   2  -1   19.31    0.89
  -2  -2   1   17.90    0.87
  -2  -2   1   21.05    0.97
  -2  -2   1   22.01    2.66
   1   2  -1   49.15    1.40
   1   2  -1   49.11    2.48
   1   2  -1   47.39    1.39
  -1  -2   1   49.12    1.40
  -1  -2   1   47.54    2.51
  -1  -2   1   48.51    1.41
   0   2  -1    7.65    0.72
   0   2  -1    7.19    0.44
   0   2  -1    7.64    0.50
   0   2  -1    7.54    0.47
   0  -2   1    7.44    0.99
   0  -2   1    6.08    0.43
  -1   2  -1  145.69    2.83
  -1   2  -1  140.11    2.67
  -1   2  -1  138.54    2.63
   1  -2   1  131.85    3.07
   1  -2   1  132.09    3.07
   1  -2   1  144.53    2.82
  -2   2  -1  266.86    6.94
  -2   2  -1  256.75    4.59
  -2   2  -1  255.38    4.69
   2  -2   1  254.82    4.59
   2  -2   1  252.88    6.35
   2  -2   1  255.89    4.71
  -3   2  -1   16.87    0.58
  -3   2  -1   18.80    1.77
  -3   2  -1   16.20    0.60
   3  -2   1   16.81    0.61
   3  -2   1   16.20    0.59
   3  -2   1   19.72    1.83
  -4   2  -1    2.71    0.35
  -4   2  -1    3.56    0.35
  -4   2  -1    1.63    0.92
   4  -2   1    2.99    1.11
   4  -2   1    3.44    0.39
   4  -2   1    2.81    0.31
  -5   2  -1    0.40    0.18
  -5   2  -1    1.34    0.82
  -5   2  -1    0.39    0.25
   5  -2   1    0.79    0.67
   5  -2   1    1.05    0.24
   5  -2   1    0.72    0.31
  -6   2  -1    3.74    0.45
  -6   2  -1    4.85    1.86
  -6   2  -1    3.27    0.51
   6  -2   1    2.87    0.40
   6  -2   1    3.54    1.58
   6  -2   1    3.83    0.55
  -7   2  -1   32.42    1.16
  -7   2  -1   33.13    1.46
   7  -2   1   29.51    1.37
   7  -2   1   32.34    1.19
   7  -2   1   34.71    5.42
  -8   2  -1    6.14    0.64
  -8   2  -1    7.76    0.97
   8  -2   1    7.32    0.72
   8  -2   1    8.67    2.68
   8  -2   1    7.79    0.90
  -9   2  -1    2.43    0.86
   9  -2   1    2.77    0.70
   9  -2   1    2.28    0.69
  10  -2   1    0.91    0.56
  10  -2   1    0.97    1.65
   9   1  -1    0.18    0.45
   9   1  -1    0.49    0.56
   9   1  -1    0.51    1.33
   9   1  -1    0.01    0.45
   8   1  -1    7.78    1.43
   8   1  -1    7.00    2.45
   8   1  -1    8.93    1.21
   8   1  -1    9.44    1.11
   7   1  -1    6.16    0.88
   7   1  -1    6.41    0.96
  -7  -1   1    6.79    2.78
  -7  -1   1    3.52    0.64
   6   1  -1    0.39    0.34
   6   1  -1    0.27    0.35
   6   1  -1    0.26    0.64
  -6  -1   1    0.55    0.36
  -6  -1   1    0.06    0.32
  -6  -1   1    0.29    0.77
   5   1  -1    0.38    0.31
   5   1  -1    1.63    1.25
   5   1  -1    0.43    0.31
  -5  -1   1    0.53    0.37
  -5  -1   1    1.15    1.05
  -5  -1   1    0.16    0.27
   4   1  -1   35.48    4.61
   4   1  -1   27.53    1.11
   4   1  -1   29.73    1.27
  -4  -1   1   30.95    3.99
  -4  -1   1   27.86    1.15
  -4  -1   1   29.18    1.29
   3   1  -1  187.82    3.90
   3   1  -1  197.13    7.25
   3   1  -1  193.32    4.08
  -3  -1   1  182.73    6.95
  -3  -1   1  184.26    3.90
  -3  -1   1  190.86    4.09
   2   1  -1   27.41    2.16
   2   1  -1   30.18    0.97
   2   1  -1   30.38    1.03
  -2  -1   1   27.50    1.01
  -2  -1   1   26.07    2.11
  -2  -1   1   30.19    0.97
  -1  -1   1  490.12   10.83
   0   1  -1  195.46    3.60
  -1   1  -1   25.19    0.56
  -1   1  -1   26.36    1.26
  -1   1  -1   24.95    0.65
   1  -1   1   26.05    1.24
   1  -1   1   24.33    0.52
   1  -1   1   24.36    0.65
  -2   1  -1  113.73    4.01
  -2   1  -1  113.07    2.18
  -2   1  -1  114.61    2.19
   2  -1   1  116.18    4.04
   2  -1   1  109.61    2.19
   2  -1   1  111.03    2.17
  -3   1  -1   78.93    4.00
  -3   1  -1   81.28    1.84
  -3   1  -1   81.04    1.74
   3  -1   1   79.40    1.75
   3  -1   1   77.53    1.81
   3  -1   1   81.49    4.03
  -4   1  -1    9.58    0.61
  -4   1  -1   16.86    2.90
  -4   1  -1    9.59    0.53
   4  -1   1   10.01    0.53
   4  -1   1   12.72    2.61
   4  -1   1    9.95    0.60
  -5   1  -1    3.46    0.47
  -5   1  -1    3.29    1.51
  -5   1  -1    3.30    0.57
   5  -1   1    2.88    0.46
   5  -1   1    3.36    0.44
   5  -1   1    2.57    1.33
  -6   1  -1    3.91    3.02
  -6   1  -1    3.37    0.52
  -6   1  -1    3.55    0.58
   6  -1   1    4.87    0.64
   6  -1   1    4.15    0.54
  -7   1  -1    9.43    1.03
  -7   1  -1    8.90    0.83
   7  -1   1    8.97    0.95
   7  -1   1    8.71    2.78
   7  -1   1    9.37    0.84
  -8   1  -1    2.44    0.54
  -8   1  -1    3.81    0.80
   8  -1   1    4.38    0.67
   8  -1   1    4.10    1.89
   8  -1   1    2.05    0.56
  -9   1  -1    2.42    0.56
   9  -1   1    1.93    1.51
   9  -1   1    2.84    0.67
   9  -1   1    3.60    0.68
  10  -1   1   13.95    1.69
  10  -1   1    5.98    2.72
  10   0  -1    0.92    1.63
  10   0  -1    1.19    0.73
   9   0  -1    0.04    0.39
   9   0  -1    0.30    0.44
   9   0  -1   -0.27    0.70
   9   0  -1    0.23    0.45
   8   0  -1   -0.51    0.50
   8   0  -1    0.25    0.40
   8   0  -1    0.07    0.37
   7   0  -1   18.22    1.02
   7   0  -1   17.45    3.80
   7   0  -1   22.81    2.51
  -7   0   1   16.06    1.24
  -7   0   1   19.63    1.06
  -7   0   1   19.36    4.09
   6   0  -1   72.58    5.52
   6   0  -1   80.93    2.53
   6   0  -1   76.72    2.45
  -6   0   1   74.74    2.48
  -6   0   1   77.50    2.16
  -6   0   1   73.41    5.64
   5   0  -1    3.26    0.56
   5   0  -1    3.73    0.50
   5   0  -1    2.40    1.42
  -5   0   1    1.63    1.07
  -5   0   1    3.20    0.58
  -5   0   1    3.37    0.49
   4   0  -1  115.59    2.53
   4   0  -1  116.35    5.80
   4   0  -1  116.35    2.80
  -4   0   1  111.74    5.66
  -4   0   1  111.94    2.80
  -4   0   1  114.03    2.54
   3   0  -1  457.12    8.07
  -3   0   1  446.58   11.80
   2   0  -1   80.49    1.63
   2   0  -1   80.79    3.45
  -2   0   1   77.57    1.80
  -2   0   1   76.47    3.32
  -2   0   1   80.27    1.64
   1   0  -1  162.72    2.87
   1   0  -1  155.67    4.08
  -1   0   1  161.31    4.10
  -1   0  -1    7.65    0.32
  -1   0  -1    8.68    0.34
  -1   0  -1   10.55    1.30
   1   0   1    7.19    0.33
   1   0   1    7.40    0.31
   1   0   1    8.46    1.09
  -2   0  -1    7.57    1.38
  -2   0  -1    7.83    0.42
  -2   0  -1    6.43    0.41
   2   0   1    6.66    0.40
   2   0   1    6.94    0.42
   2   0   1    6.99    1.41
  -3   0  -1   31.19    2.65
  -3   0  -1   29.41    1.04
  -3   0  -1   31.49    1.01
   3   0   1   30.09    1.05
   3   0   1   29.12    2.52
   3   0   1   29.86    0.98
  -4   0  -1  168.99    3.78
  -4   0  -1  181.08    7.51
  -4   0  -1  169.00    3.61
   4   0   1  170.39    3.61
   4   0   1  172.56    3.77
   4   0   1  169.25    7.24
  -5   0  -1   28.68    1.31
  -5   0  -1   27.97    1.16
  -5   0  -1   33.57    4.50
   5   0   1   33.11    4.37
   5   0   1   28.33    1.15
   5   0   1   28.31    1.27
  -6   0  -1   36.41    5.07
  -6   0  -1   31.76    1.36
  -6   0  -1   35.75    1.59
   6   0   1   32.28    1.34
   6   0   1   35.37    1.53
   6   0   1   38.68    5.73
  -7   0  -1   70.46    3.22
  -7   0  -1   76.18    6.40
  -7   0  -1   76.45    2.34
   7   0   1   75.39    2.33
   7   0   1   74.14    2.52
   7   0   1   63.57    5.86
  -8   0  -1   16.27    1.13
   8   0   1   18.76    1.33
   8   0   1   16.63    3.91
   8   0   1   17.12    1.17
  -9   0  -1    1.01    0.87
   9   0   1    0.58    0.50
   9   0   1   -0.18    0.75
   9   0   1    1.08    0.64
  10  -1  -1    4.94    1.11
  10  -1  -1    5.57    2.74
   9  -1  -1   11.83    1.26
   9  -1  -1   11.92    0.86
   9  -1  -1   17.75    4.87
   9  -1  -1   12.60    0.90
   8  -1  -1    1.88    1.41
   8  -1  -1    0.98    0.38
   8  -1  -1    0.78    0.56
   8  -1  -1    1.27    0.50
  -8   1   1    1.18    0.55
   7  -1  -1    8.89    0.96
   7  -1  -1   10.47    0.69
   7  -1  -1   13.16    3.27
  -7   1   1   11.73    1.15
  -7   1   1    8.87    2.71
   6  -1  -1   57.09    1.56
   6  -1  -1   58.68    5.54
   6  -1  -1   59.77    1.98
  -6   1   1   55.95    4.71
  -6   1   1   58.80    2.00
  -6   1   1   56.52    1.59
   5  -1  -1   46.47    1.26
   5  -1  -1   52.59    4.06
   5  -1  -1   47.16    1.61
  -5   1   1   52.01    4.00
  -5   1   1   49.08    1.65
  -5   1   1   50.32    1.32
   4  -1  -1    0.92    0.72
   4  -1  -1    2.26    0.27
   4  -1  -1    1.86    0.35
  -4   1   1    1.71    0.37
  -4   1   1    2.10    1.08
  -4   1   1    1.80    0.26
   3  -1  -1   11.92    0.60
   3  -1  -1   16.21    2.29
   3  -1  -1   12.28    0.39
  -3   1   1   18.14    2.41
  -3   1   1   13.36    0.41
  -3   1   1   13.38    0.63
   2  -1  -1    0.36    0.16
   2  -1  -1    0.69    0.53
  -2   1   1    0.74    0.49
  -2   1   1    0.53    0.17
   1  -1  -1    0.60    0.13
   1  -1  -1    0.36    0.08
   1  -1  -1    0.94    0.32
  -1   1   1    0.47    0.13
  -1   1   1    0.60    0.26
   0  -1  -1   41.80    0.99
   0   1   1   40.94    1.52
   0   1   1   43.84    1.01
   0   1   1   43.48    1.00
   0   1   1   41.44    0.98
  -1  -1  -1  126.85    4.35
  -1  -1  -1  140.17    2.85
  -1  -1  -1  141.93    2.83
   1   1   1  141.28    2.83
   1   1   1  143.45    2.83
   1   1   1  145.09    4.41
  -2  -1  -1   46.25    1.37
  -2  -1  -1   49.83    1.36
  -2  -1  -1   46.02    2.88
   2   1   1   47.32    2.89
   2   1   1   45.62    1.33
   2   1   1   46.65    1.36
  -3  -1  -1    3.78    0.52
  -3  -1  -1    6.61    1.88
  -3  -1  -1    5.58    0.60
   3   1   1    3.49    0.50
   3   1   1    5.02    0.56
   3   1   1    4.54    1.45
  -4  -1  -1   66.51    2.08
  -4  -1  -1   67.64    1.99
   4   1   1   66.99    4.53
   4   1   1   68.44    2.08
  -5  -1  -1   44.54    5.35
  -5  -1  -1   45.63    1.79
  -5  -1  -1   42.39    1.64
   5   1   1   45.76    4.18
   5   1   1   43.38    1.73
   5   1   1   46.73    1.66
  -6  -1  -1    4.00    1.89
  -6  -1  -1    3.90    0.73
  -6  -1  -1    2.83    0.57
   6   1   1    7.91    2.70
   6   1   1    3.32    0.62
   6   1   1    3.76    0.67
  -7  -1  -1    0.09    0.47
  -7  -1  -1    0.73    0.52
   7   1   1   -0.22    0.35
   7   1   1    0.41    1.02
   7   1   1    0.00    0.37
  -8  -1  -1    1.41    0.55
   8   1   1    0.80    0.54
   8   1   1    1.35    1.54
   8   1   1    0.54    0.50
   9   1   1    1.28    1.48
   9   1   1    0.27    0.51
  10  -2  -1    1.55    0.62
  10  -2  -1    0.91    1.25
   9  -2  -1    0.05    0.36
   9  -2  -1    0.01    0.20
   9  -2  -1    0.36    0.25
   9  -2  -1    0.23    1.04
   8  -2  -1   19.41    0.79
   8  -2  -1   23.24    4.40
   8  -2  -1   22.70    1.32
   8  -2  -1   20.97    0.81
  -8   2   1   20.86    1.34
   7  -2  -1   59.37    2.05
   7  -2  -1   56.01    4.96
   7  -2  -1   59.00    1.46
  -7   2   1   57.28    2.06
   6  -2  -1   13.39    0.85
   6  -2  -1   11.91    0.51
   6  -2  -1   15.83    3.03
  -6   2   1   12.44    0.87
  -6   2   1    9.59    2.54
   5  -2  -1   20.10    0.57
   5  -2  -1   18.87    0.93
   5  -2  -1   21.15    3.24
  -5   2   1   19.41    0.95
  -5   2   1   20.62    0.57
  -5   2   1   19.33    2.98
   4  -2  -1   44.89    1.36
   4  -2  -1   44.34    3.11
  -4   2   1   44.13    3.15
  -4   2   1   45.05    1.35
   3  -2  -1    6.84    0.44
   3  -2  -1    8.11    1.41
  -3   2   1    6.19    0.43
  -3   2   1    5.60    1.24
   2  -2  -1  120.19    2.48
   2  -2  -1  122.98    3.64
  -2   2   1  122.10    2.28
  -2   2   1  120.10    2.47
  -2   2   1  124.91    2.33
   1  -2  -1    0.87    0.20
   1  -2  -1    0.65    0.19
   1  -2  -1    0.46    0.22
  -1   2   1    0.43    0.17
  -1   2   1    0.40    0.23
   0  -2  -1   68.14    2.42
   0  -2  -1   72.61    1.72
   0   2   1   71.54    1.67
   0   2   1   67.30    2.41
   0   2   1   71.24    1.70
   0   2   1   72.69    1.74
  -1  -2  -1    1.29    0.31
  -1  -2  -1    2.15    0.79
  -1  -2  -1    1.22    0.29
   1   2   1    1.25    0.31
   1   2   1    1.24    0.33
   1   2   1    1.02    0.58
  -2  -2  -1  126.96    2.93
  -2  -2  -1  118.61    5.12
  -2  -2  -1  118.78    2.93
   2   2   1  118.28    2.89
   2   2   1  130.65    5.33
   2   2   1  120.35    2.87
  -3  -2  -1  112.60    2.85
  -3  -2  -1  104.67    5.48
  -3  -2  -1  113.86    2.93
   3   2   1  109.38    2.86
   3   2   1  110.09    2.83
  -4  -2  -1   19.09    3.29
  -4  -2  -1   18.86    1.15
  -4  -2  -1   21.09    1.15
   4   2   1   20.52    1.11
   4   2   1   25.86    4.08
   4   2   1   24.16    1.22
  -5  -2  -1    4.93    0.74
  -5  -2  -1    3.40    0.72
  -5  -2  -1    5.11    1.78
   5   2   1    4.80    0.76
   5   2   1    5.23    1.92
   5   2   1    4.43    0.70
  -6  -2  -1   11.57    3.38
  -6  -2  -1   10.23    1.16
  -6  -2  -1   12.86    1.35
   6   2   1    8.62    2.82
   6   2   1   10.84    1.32
   6   2   1   10.30    1.19
  -7  -2  -1    5.98    0.96
  -7  -2  -1    1.80    1.78
   7   2   1    5.05    0.91
   7   2   1    6.39    0.99
   7   2   1    4.85    2.36
  -8  -2  -1    1.60    0.68
   8   2   1    0.24    1.13
  10  -3  -1   28.16    1.68
  10  -3  -1   21.09    4.61
   9  -3  -1    0.68    1.09
   9  -3  -1    2.33    0.65
  -9   3   1    2.36    0.72
   8  -3  -1   10.53    3.09
   8  -3  -1    9.66    1.01
  -8   3   1    7.90    0.95
   7  -3  -1   21.36    1.17
   7  -3  -1   23.56    4.00
  -7   3   1   22.82    1.21
   6  -3  -1    0.26    0.25
   6  -3  -1    0.11    0.81
  -6   3   1   -0.12    0.82
  -6   3   1    0.52    0.31
   5  -3  -1    6.64    0.64
   5  -3  -1    9.66    3.40
  -5   3   1    7.06    0.56
   4  -3  -1    8.71    0.56
   4  -3  -1    8.10    1.68
  -4   3   1    9.50    0.58
  -4   3   1    8.15    0.30
  -4   3   1    7.06    1.63
   3  -3  -1  158.25    3.26
   3  -3  -1  153.38    4.89
  -3   3   1  156.23    2.98
  -3   3   1  154.57    4.90
  -3   3   1  157.61    3.04
  -3   3   1  159.91    3.25
   2  -3  -1   69.22    1.73
   2  -3  -1   69.74    2.18
  -2   3   1   72.80    1.67
  -2   3   1   71.29    2.20
  -2   3   1   72.28    1.74
   1  -3  -1   39.12    1.20
   1  -3  -1   39.99    1.19
  -1   3   1   37.20    1.22
  -1   3   1   38.55    1.19
  -1   3   1   38.15    1.24
  -1   3   1   39.56    1.19
   0  -3  -1  319.44    6.15
   0  -3  -1  305.22    7.34
   0   3   1  310.90    7.35
   0   3   1  319.40    6.12
   0   3   1  316.38    6.06
   0   3   1  320.95    6.16
  -1  -3  -1  245.44    7.31
  -1  -3  -1  247.91    5.18
  -1  -3  -1  250.94    5.20
   1   3   1  251.91    5.17
   1   3   1  256.02    5.17
   1   3   1  237.23    7.25
  -2  -3  -1   23.29    1.14
  -2  -3  -1   23.17    1.16
   2   3   1   21.80    1.10
   2   3   1   22.34    1.10
   2   3   1   28.04    3.32
  -3  -3  -1   79.84    2.46
  -3  -3  -1   83.01    2.54
  -3  -3  -1   79.33    4.93
   3   3   1   78.92    2.43
   3   3   1   76.85    4.82
   3   3   1   77.55    2.44
  -4  -3  -1    7.18    2.19
  -4  -3  -1    8.58    1.07
  -4  -3  -1    7.62    0.98
   4   3   1    8.03    0.94
   4   3   1    7.43    2.23
   4   3   1    9.16    1.03
  -5  -3  -1    1.01    0.99
  -5  -3  -1    1.63    0.61
  -5  -3  -1    0.22    0.45
   5   3   1    0.43    0.41
   5   3   1    0.95    1.09
   5   3   1    0.33    0.41
  -6  -3  -1    0.98    0.53
  -6  -3  -1    1.03    1.32
   6   3   1    0.44    0.75
   6   3   1    0.06    0.36
  -7  -3  -1    4.21    2.31
  -7  -3  -1    3.11    0.79
   7   3   1    4.45    2.27
   7   3   1    6.63    1.08
   8   3   1    2.43    1.91
  10  -4  -1   -0.08    0.40
  10  -4  -1    0.49    1.12
   9  -4  -1    1.97    1.66
   9  -4  -1    0.12    0.37
  -9   4   1    0.57    0.53
   8  -4  -1    2.51    1.64
   8  -4  -1    1.12    0.46
  -8   4   1    0.28    0.41
   7  -4  -1   13.40    2.76
   7  -4  -1   12.84    0.91
  -7   4   1   11.24    1.01
   6  -4  -1   51.42    3.93
   6  -4  -1   48.53    1.64
  -6   4   1   48.18    1.65
   5  -4  -1   40.94    3.09
   5  -4  -1   42.01    1.41
  -5   4   1   42.94    1.62
  -5   4   1   38.91    3.03
   4  -4  -1    8.69    1.55
   4  -4  -1    8.59    0.84
  -4   4   1    7.33    0.42
  -4   4   1    7.63    0.46
  -4   4   1    7.25    0.55
  -4   4   1    8.50    1.54
   3  -4  -1  189.97    4.97
   3  -4  -1  197.11    4.05
  -3   4   1  191.33    3.97
  -3   4   1  192.35    5.01
  -3   4   1  195.12    3.95
  -3   4   1  189.04    3.83
  -2   4   1  147.99    3.25
  -2   4   1  147.95    3.23
   1  -4  -1    4.05    0.56
  -1   4   1    3.70    0.53
  -1   4   1    3.71    0.53
  -1   4   1    4.04    0.53
  -1   4   1    3.42    0.53
  -1   4   1    4.50    0.55
   0  -4  -1   62.76    1.96
   0  -4  -1   60.21    2.79
   0   4   1   62.72    1.97
   0   4   1   63.10    1.87
   0   4   1   63.40    1.94
   0   4   1   65.86    2.84
  -1  -4  -1    1.13    0.40
  -1  -4  -1    1.00    0.37
  -1  -4  -1    0.73    0.67
   1   4   1    1.39    0.43
   1   4   1    1.13    0.41
   1   4   1    1.94    0.90
  -2  -4  -1    5.54    1.55
  -2  -4  -1    5.59    0.79
  -2  -4  -1    5.22    0.78
   2   4   1    5.81    0.80
   2   4   1    6.21    1.72
   2   4   1    3.97    0.68
  -3  -4  -1    0.20    0.31
  -3  -4  -1    0.46    0.37
   3   4   1    0.50    0.34
   3   4   1    0.39    0.31
   3   4   1    0.61    0.58
  -4  -4  -1   30.28    1.63
  -4  -4  -1   26.99    4.17
  -4  -4  -1   26.37    1.61
   4   4   1   25.47    1.51
   4   4   1   28.71    1.57
   4   4   1   32.12    4.85
  -5  -4  -1   39.95    2.00
  -5  -4  -1   38.17    5.71
   5   4   1   39.02    5.67
   5   4   1   37.56    1.95
  -6  -4  -1   -0.20    1.22
  -6  -4  -1   -0.29    0.35
   6   4   1    0.45    0.92
   6   4   1    0.39    0.46
  -7  -4  -1    9.89    1.39
   7   4   1   10.33    3.43
   7   4   1   13.03    1.54
  10  -5  -1    1.87    1.63
  10  -5  -1    3.04    0.71
   9  -5  -1    2.48    0.74
   9  -5  -1    4.61    2.08
  -9   5   1    2.10    0.64
   8  -5  -1    4.58    0.69
  -8   5   1    4.60    0.72
   7  -5  -1    2.72    0.54
   7  -5  -1    3.50    1.54
  -7   5   1    2.64    0.55
   6  -5  -1    4.77    1.46
   6  -5  -1    4.38    0.60
  -6   5   1    4.79    0.63
   5  -5  -1   34.63    2.60
   5  -5  -1   36.33    1.37
  -5   5   1   38.66    1.07
  -5   5   1   37.55    1.10
  -5   5   1   37.90    1.37
   4  -5  -1   44.90    1.52
   4  -5  -1   44.05    2.32
  -4   5   1   45.73    1.37
  -4   5   1   47.09    2.39
  -4   5   1   48.46    1.47
  -4   5   1   44.51    1.50
   3  -5  -1   16.84    0.87
  -3   5   1   15.32    0.83
  -3   5   1   15.00    0.79
  -2   5   1    5.17    0.67
  -2   5   1    5.76    0.76
  -2   5   1    5.73    0.65
   1  -5  -1   31.39    1.36
  -1   5   1   31.19    1.30
  -1   5   1   30.74    1.36
  -1   5   1   29.47    1.29
  -1   5   1   30.81    1.30
  -1   5   1   28.50    1.24
   0  -5  -1    0.89    0.39
   0   5   1    1.22    0.46
   0   5   1    1.11    0.38
   0   5   1    0.99    0.36
   0   5   1    0.53    0.40
  -1  -5  -1   15.84    1.09
  -1  -5  -1   13.53    1.01
  -1  -5  -1   16.55    2.48
   1   5   1   13.62    1.01
   1   5   1   15.69    1.06
   1   5   1   19.23    2.86
  -2  -5  -1    6.85    1.02
  -2  -5  -1    4.19    1.49
   2   5   1    6.31    0.87
   2   5   1    6.80    1.97
  -3  -5  -1    3.84    0.78
  -3  -5  -1    6.71    2.36
   3   5   1    4.57    0.88
   3   5   1    4.23    0.81
   3   5   1    5.39    1.90
  -4  -5  -1    2.75    0.74
  -4  -5  -1    1.67    1.56
   4   5   1    2.00    1.36
   4   5   1    1.31    0.55
  -5  -5  -1    1.73    0.62
  -5  -5  -1    3.12    1.82
   5   5   1    3.63    2.03
   5   5   1    3.17    0.77
  -6  -5  -1    3.47    0.84
   6   5   1    4.92    1.04
   6   5   1    3.58    2.00
  10  -6  -1    3.18    2.17
  10  -6  -1    2.97    0.68
   9  -6  -1    5.49    0.99
   9  -6  -1    7.19    2.59
  -9   6   1    5.28    0.88
   8  -6  -1    2.16    0.54
   8  -6  -1    5.10    1.85
  -8   6   1    3.45    0.67
   7  -6  -1   75.95    4.87
   7  -6  -1   74.94    2.32
  -7   6   1   71.07    2.30
   6  -6  -1   49.73    3.36
   6  -6  -1   48.98    1.72
  -6   6   1   46.67    1.27
  -6   6   1   47.67    1.71
  -6   6   1   43.72    1.28
   5  -6  -1    3.12    0.94
   5  -6  -1    2.67    0.50
  -5   6   1    2.25    0.49
  -5   6   1    2.70    0.48
  -5   6   1    3.05    0.46
   4  -6  -1   41.11    1.55
  -4   6   1   39.56    1.55
  -4   6   1   41.23    1.54
  -4   6   1   43.63    1.52
  -3   6   1   13.83    0.98
  -3   6   1   14.51    0.92
  -3   6   1   15.25    0.93
  -3   6   1   14.21    1.05
  -2   6   1    3.50    0.58
  -2   6   1    4.76    0.79
  -2   6   1    5.23    0.78
  -2   6   1    4.03    0.65
   1  -6  -1    0.26    0.31
  -1   6   1    0.08    0.36
  -1   6   1   -0.32    0.27
  -1   6   1   -0.22    0.23
   0  -6  -1   20.50    1.30
   0   6   1   21.32    1.24
   0   6   1   19.99    1.26
   0   6   1   17.52    1.64
   0   6   1   17.33    1.21
  -1  -6  -1   48.76    2.16
  -1  -6  -1   53.38    3.58
   1   6   1   52.66    2.06
   1   6   1   49.68    2.12
   1   6   1   48.37    3.36
   1   6   1   52.92    2.37
  -2  -6  -1    4.51    1.77
  -2  -6  -1    2.42    0.69
   2   6   1    2.66    1.22
   2   6   1    1.41    0.56
  -3  -6  -1   43.30    2.18
  -3  -6  -1   47.49    4.38
   3   6   1   47.14    4.29
   3   6   1   41.69    2.10
  -4  -6  -1   31.27    1.94
  -4  -6  -1   27.53    4.74
   4   6   1   28.55    1.81
   4   6   1   23.50    4.27
  -5  -6  -1   -0.15    0.88
  -5  -6  -1    0.77    0.63
   5   6   1   -0.08    0.41
  10  -7  -1   10.22    1.08
   9  -7  -1   17.94    3.47
   9  -7  -1   16.39    1.58
  -9   7   1   15.91    1.24
   8  -7  -1   -0.10    0.86
   8  -7  -1    0.08    0.33
  -8   7   1   -0.05    0.38
   7  -7  -1    7.72    0.89
  -7   7   1    7.31    0.89
  -7   7   1    7.29    0.45
  -7   7   1    7.42    0.46
   6  -7  -1    6.46    1.35
   6  -7  -1    7.37    0.86
  -6   7   1    7.14    0.87
  -6   7   1    7.49    0.71
   5  -7  -1    5.00    0.74
  -5   7   1    5.48    0.75
  -5   7   1    5.08    0.73
  -5   7   1    3.62    0.56
  -4   7   1    1.65    0.48
  -4   7   1    1.50    0.44
  -4   7   1    1.49    0.52
  -4   7   1    2.49    0.62
  -3   7   1   28.55    1.43
  -3   7   1   28.19    1.60
  -3   7   1   31.24    1.58
  -3   7   1   30.62    1.46
  -2   7   1   49.02    1.97
  -2   7   1   48.00    2.15
  -2   7   1   54.12    2.12
  -2   7   1   47.43    1.92
  -1   7   1    3.67    0.70
  -1   7   1    2.43    0.95
  -1   7   1    3.63    0.75
   0  -7  -1   53.07    2.29
   0   7   1   59.17    2.29
   0   7   1   57.20    2.37
   0   7   1   56.13    2.33
  -1  -7  -1   34.78    1.91
   1   7   1   34.78    1.88
   1   7   1   38.21    3.08
  -2  -7  -1    4.09    1.66
  -2  -7  -1    4.04    0.90
   2   7   1    3.90    0.82
   2   7   1    6.68    1.98
  -3  -7  -1    9.11    2.71
   3   7   1    8.40    2.49
  -4  -7  -1    0.17    0.84
   9  -8  -1    0.56    0.84
   9  -8  -1   -0.06    0.45
  -9   8   1    0.27    0.52
   8  -8  -1    2.18    1.24
   8  -8  -1    0.35    0.54
  -8   8   1    1.75    0.68
   7  -8  -1    0.44    0.43
   7  -8  -1    1.03    0.61
  -7   8   1    0.71    0.49
  -7   8   1    0.06    0.31
   6  -8  -1    9.31    1.02
  -6   8   1   10.45    0.84
  -6   8   1   11.90    0.93
  -5   8   1   17.34    1.12
  -5   8   1   18.13    1.22
  -5   8   1   18.70    1.31
  -4   8   1    3.18    0.69
  -4   8   1    3.67    0.76
  -4   8   1    2.99    0.70
  -4   8   1    4.29    1.06
  -3   8   1    1.75    0.56
  -3   8   1    3.31    0.73
  -3   8   1    2.16    0.67
  -3   8   1    1.12    0.51
  -2   8   1   31.65    1.76
  -2   8   1   33.17    1.76
  -2   8   1   30.53    1.86
  -2   8   1   30.74    1.65
  -1   8   1   14.68    1.61
  -1   8   1   12.56    1.32
   0   8   1    0.70    0.71
   0   8   1    2.91    0.80
   1   8   1    9.75    1.42
   1   8   1    7.90    1.19
   1   8   1    7.31    1.90
   2   8   1    0.19    0.54
   2   8   1   -0.25    0.92
   2   8   1    0.06    0.45
   9  -9  -1   -0.44    0.65
   9  -9  -1    0.16    0.49
   9  -9  -1    0.55    1.34
  -7   9   1    1.22    0.60
  -7   9   1    2.71    0.63
  -7   9   1    1.72    0.55
  -6   9   1    4.02    0.82
  -6   9   1    4.68    0.84
  -6   9   1    5.10    0.82
  -6   9   1    4.80    1.14
  -5   9   1    0.51    0.56
  -5   9   1    0.93    0.57
  -5   9   1    1.34    0.64
  -4   9   1   22.92    1.51
  -4   9   1   23.48    1.64
  -4   9   1   25.49    1.63
  -3   9   1   19.98    1.58
  -3   9   1   19.66    1.50
  -2   9   1    0.02    0.48
  -2   9   1   -0.42    0.44
  -1   9   1    6.78    1.15
  -1   9   1    5.05    1.05
   0   9   1    1.47    0.65
   0   9   1    2.03    0.81
   1   9   1    0.15    0.58
  -8  10   1    0.25    0.59
  -7  10   1   10.52    1.25
  -7  10   1   10.58    1.17
  -6  10   1   24.54    1.59
  -6  10   1   28.68    1.80
  -5  10   1    0.85    0.62
  -5  10   1    0.32    0.52
  -4  10   1    4.11    0.97
  -4  10   1    3.83    0.98
  -3  10   1    8.92    1.33
  -3  10   1    8.56    1.26
  -2  10   1    0.58    0.68
  -2  10   1    0.70    0.68
  -1  10   1    0.91    0.61
  -1  10   1    1.13    0.79
  -6  11   1    0.50    0.70
  -6  11   1    1.74    0.86
  -5  11   1    0.21    0.69
  -5  11   1    0.59    0.64
  -4  11   1    0.10    0.59
  -4  11   1    0.50    0.72
  -3  11  -2    2.22    0.85
  -4  11  -2    2.04    0.85
  -4  11  -2    1.48    1.30
  -5  11  -2    0.42    0.58
  -6  11  -2    4.47    1.09
  -6  11  -2    3.19    0.87
  -1  10  -2    3.74    0.95
  -1  10  -2    4.89    1.14
  -2  10  -2    0.31    0.59
  -2  10  -2    1.40    0.69
  -3  10  -2    1.63    0.66
  -3  10  -2    0.51    0.70
  -4  10  -2   25.97    1.90
  -5  10  -2    2.39    0.68
  -5  10  -2    2.18    0.84
  -6  10  -2    5.67    0.91
  -6  10  -2    4.87    0.90
  -6  10  -2    5.00    1.02
  -7  10  -2   18.38    1.41
  -7  10  -2   15.83    1.65
   1   9  -2    0.64    0.62
   1   9  -2   -0.27    0.42
   0   9  -2    3.31    0.89
   0   9  -2    3.39    1.54
  -1   9  -2    0.19    0.47
  -1   9  -2    0.81    0.66
  -2   9  -2    7.29    1.02
  -2   9  -2    6.71    1.18
  -3   9  -2    0.30    0.39
  -3   9  -2   -0.30    0.38
  -3   9  -2   -0.67    0.36
  -4   9  -2    4.51    0.77
  -4   9  -2    5.88    1.23
  -4   9  -2    5.74    1.02
  -4   9  -2    3.62    0.74
  -5   9  -2   16.75    1.36
  -5   9  -2   19.62    1.32
  -5   9  -2   18.79    1.35
  -5   9  -2   14.44    1.52
  -6   9  -2    1.26    0.52
  -6   9  -2    1.41    0.63
  -6   9  -2    0.81    0.53
  -6   9  -2    0.42    0.44
  -7   9  -2    0.25    0.41
  -7   9  -2    0.19    0.45
  -7   9  -2    0.37    0.47
  -7   9  -2    0.35    0.43
  -8   9  -2   -0.11    0.45
  -8   9  -2    0.52    0.41
   8  -9   2    0.52    0.69
   9  -9   2    1.76    1.24
   3   8  -2   -0.20    0.74
   3   8  -2    0.18    0.75
   2   8  -2    0.39    0.56
   2   8  -2    0.68    1.10
  -2  -8   2    1.46    1.14
   1   8  -2    3.93    1.49
   1   8  -2    5.27    1.08
   1   8  -2    5.49    0.98
  -1  -8   2    4.72    1.47
   0   8  -2   38.43    2.19
   0   8  -2   34.53    1.89
  -1   8  -2    1.41    0.63
  -1   8  -2    0.90    0.49
  -1   8  -2    0.84    0.46
  -2   8  -2   38.12    2.19
  -2   8  -2   37.20    1.76
  -2   8  -2   40.19    2.08
  -2   8  -2   38.70    1.92
  -3   8  -2   61.41    2.19
  -3   8  -2   61.59    2.29
  -3   8  -2   61.18    2.35
  -4   8  -2    2.19    0.58
  -4   8  -2    3.30    0.61
  -4   8  -2    3.59    0.79
  -4   8  -2    3.34    0.69
  -5   8  -2    2.89    0.56
  -5   8  -2    2.21    0.59
  -5   8  -2    2.58    0.64
  -5   8  -2    2.53    0.59
  -6   8  -2    9.28    0.96
  -6   8  -2    9.90    1.02
  -6   8  -2   10.61    1.02
  -6   8  -2   11.76    0.92
  -7   8  -2    0.23    0.36
  -7   8  -2    0.82    0.43
  -7   8  -2    0.79    0.42
  -7   8  -2    0.43    0.41
   7  -8   2    1.73    0.91
   7  -8   2    0.39    0.54
  -8   8  -2    0.29    0.36
  -8   8  -2    0.09    0.30
  -8   8  -2   -0.03    0.46
   8  -8   2   -0.18    0.55
   8  -8   2    1.41    1.13
   9  -8   2    3.58    1.71
   9  -8   2    0.53    0.95
   4   7  -2    4.75    1.10
   4   7  -2    5.83    1.02
  -4  -7   2    7.84    2.71
   3   7  -2   40.99    5.10
   3   7  -2   36.49    2.04
   3   7  -2   37.32    2.31
  -3  -7   2   32.13    4.67
   2   7  -2    9.17    2.16
   2   7  -2    7.06    1.07
   2   7  -2    7.32    1.18
  -2  -7   2    8.44    2.31
   1   7  -2   26.94    1.59
   1   7  -2   24.87    1.74
   1   7  -2   24.58    2.98
  -1  -7   2   28.04    2.60
   0   7  -2   78.24    2.81
   0   7  -2   74.04    3.21
   0   7  -2   77.07    2.98
   0   7  -2   73.30    2.54
  -1   7  -2   21.09    1.30
  -1   7  -2   21.36    1.38
  -1   7  -2   20.41    1.22
  -1   7  -2   18.71    1.41
  -2   7  -2    8.47    1.03
  -2   7  -2    7.45    0.92
  -2   7  -2    7.95    0.92
  -2   7  -2    6.11    0.93
  -3   7  -2   28.54    1.32
  -3   7  -2   28.61    1.42
  -3   7  -2   28.91    1.49
  -3   7  -2   28.06    1.56
  -4   7  -2    0.90    0.36
  -4   7  -2   -0.59    0.33
  -4   7  -2    0.12    0.39
  -4   7  -2    0.78    0.40
  -5   7  -2    4.64    0.70
  -5   7  -2    3.51    0.66
  -5   7  -2    3.51    0.65
  -5   7  -2    4.11    0.56
   5  -7   2    5.17    0.84
   5  -7   2    4.28    0.84
  -6   7  -2    3.88    0.59
  -6   7  -2    5.22    0.72
  -6   7  -2    3.95    0.65
   6  -7   2    2.10    1.05
   6  -7   2    2.69    1.26
  -7   7  -2   28.63    1.23
  -7   7  -2   28.45    1.25
  -7   7  -2   26.23    1.14
   7  -7   2   27.51    1.20
   7  -7   2   34.99    3.18
  -8   7  -2    8.24    0.83
  -8   7  -2    8.23    0.51
  -8   7  -2    8.11    0.51
   8  -7   2   11.45    2.72
   8  -7   2    8.29    0.79
  -9   7  -2    2.47    0.68
   9  -7   2    2.35    0.48
   9  -7   2    1.76    1.42
  10  -7   2    5.56    2.37
   5   6  -2    3.25    0.85
   5   6  -2    1.36    0.68
   5   6  -2   -0.01    0.88
  -5  -6   2    0.12    0.95
   4   6  -2    1.18    0.61
   4   6  -2    2.16    1.50
   4   6  -2    0.04    0.38
  -4  -6   2   -0.34    0.57
   3   6  -2   12.76    1.46
   3   6  -2   14.01    1.41
   3   6  -2   14.08    3.02
  -3  -6   2   16.16    3.29
   2   6  -2   39.51    2.05
   2   6  -2   37.16    3.27
   2   6  -2   30.85    1.69
  -2  -6   2   32.36    1.80
  -2  -6   2   35.34    4.24
   1   6  -2    0.07    0.50
   1   6  -2    0.06    0.43
   1   6  -2    0.83    0.41
   1   6  -2    1.32    0.52
  -1  -6   2    1.16    0.61
  -1  -6   2    3.59    1.21
   0   6  -2    0.57    0.45
   0   6  -2   -0.04    0.28
   0   6  -2    1.11    0.55
   0   6  -2    0.14    0.36
   0  -6   2    0.05    0.40
  -1   6  -2    1.73    0.58
  -1   6  -2    0.76    0.39
  -1   6  -2    1.11    0.43
  -1   6  -2    2.38    0.57
  -2   6  -2    9.59    0.90
  -2   6  -2    7.90    0.80
  -2   6  -2    6.89    0.83
  -2   6  -2    7.70    0.91
  -3   6  -2   11.92    0.75
  -3   6  -2   10.50    0.84
  -3   6  -2   11.67    0.79
  -3   6  -2   10.85    0.91
  -4   6  -2   58.70    1.82
  -4   6  -2   54.95    1.67
  -4   6  -2   56.84    1.94
  -4   6  -2   54.95    1.83
   4  -6   2   53.77    2.33
   4  -6   2   53.21    2.31
  -5   6  -2   25.32    1.04
  -5   6  -2   24.74    1.15
  -5   6  -2   25.28    1.16
   5  -6   2   23.77    2.05
   5  -6   2   26.43    1.05
   5  -6   2   27.16    2.20
  -6   6  -2    2.88    0.47
  -6   6  -2    2.96    0.52
   6  -6   2    0.76    0.86
   6  -6   2    2.43    0.44
  -7   6  -2   34.77    1.14
  -7   6  -2   34.92    1.34
  -7   6  -2   34.49    1.16
   7  -6   2   39.02    3.66
   7  -6   2   32.70    1.27
  -8   6  -2   14.26    0.93
   8  -6   2   14.68    3.05
   8  -6   2   13.78    0.87
  -9   6  -2    3.30    0.65
   9  -6   2    2.18    1.46
   9  -6   2    4.35    0.62
  10  -6   2    0.52    0.40
  10  -6   2    2.61    1.83
   7   5  -2    9.39    1.51
   6   5  -2    0.58    1.36
   6   5  -2   -0.30    0.45
   6   5  -2   -0.18    0.37
  -6  -5   2   -0.20    0.88
   5   5  -2   15.65    3.72
   5   5  -2   13.05    1.49
   5   5  -2   13.73    1.57
  -5  -5   2   13.33    3.38
   4   5  -2   57.26    2.59
   4   5  -2   55.79    2.38
   4   5  -2   55.22    4.85
  -4  -5   2   52.87    4.82
   3   5  -2    0.92    0.52
   3   5  -2    1.65    0.57
   3   5  -2    2.79    1.55
   3   5  -2    1.87    0.59
  -3  -5   2    0.10    0.29
   2   5  -2    1.50    0.91
   2   5  -2    2.05    0.58
   2   5  -2    1.88    0.62
   2   5  -2    1.91    0.51
  -2  -5   2    1.50    0.54
  -2  -5   2    2.03    0.99
   1   5  -2   34.94    1.56
   1   5  -2   32.55    1.65
   1   5  -2   37.02    1.57
  -1  -5   2   31.67    2.55
  -1  -5   2   31.84    1.53
   0   5  -2    5.39    1.07
   0   5  -2    3.93    0.69
   0   5  -2    5.31    0.79
   0   5  -2    4.14    0.68
   0  -5   2    4.84    0.69
   0  -5   2    3.31    0.92
  -1   5  -2    3.94    0.55
  -1   5  -2    2.94    0.50
  -1   5  -2    3.82    0.59
  -1   5  -2    3.49    0.61
  -1   5  -2    3.41    0.53
   1  -5   2    3.39    0.53
  -2   5  -2    3.34    0.59
  -2   5  -2    3.64    0.57
  -2   5  -2    4.16    0.54
  -2   5  -2    3.72    0.49
  -3   5  -2   33.59    1.28
  -3   5  -2   32.94    1.12
  -3   5  -2   34.37    1.23
  -3   5  -2   32.84    1.33
   3  -5   2   35.66    1.63
   3  -5   2   32.64    1.63
  -4   5  -2    4.29    0.48
   4  -5   2    5.08    1.16
   4  -5   2    4.94    0.51
  -5   5  -2   42.66    1.38
  -5   5  -2   39.80    1.28
   5  -5   2   38.93    2.99
   5  -5   2   43.73    1.31
  -6   5  -2   21.70    0.87
  -6   5  -2   19.83    0.90
   6  -5   2   22.22    0.95
   6  -5   2   17.57    2.87
  -7   5  -2   25.75    1.65
  -7   5  -2   24.55    0.87
   7  -5   2   25.84    1.09
   7  -5   2   21.64    3.55
  -8   5  -2   -0.10    0.35
   8  -5   2    0.39    0.75
   8  -5   2    0.43    0.37
  -9   5  -2    1.82    0.55
   9  -5   2    0.48    1.03
   9  -5   2    0.74    0.38
  10  -5   2    2.27    1.67
  10  -5   2    4.14    0.67
   8   4  -2    1.69    0.81
   7   4  -2   19.01    1.88
   7   4  -2   23.09    4.93
   7   4  -2   24.24    1.81
   6   4  -2   17.75    1.41
   6   4  -2   11.79    1.46
   6   4  -2   12.86    3.34
  -6  -4   2   15.08    3.87
   5   4  -2   12.92    1.39
   5   4  -2   12.47    3.12
   5   4  -2   11.86    1.36
   5   4  -2   12.34    1.46
  -5  -4   2    8.40    2.72
   4   4  -2    7.63    1.04
   4   4  -2    8.83    2.41
   4   4  -2    9.80    1.13
  -4  -4   2    9.49    1.50
  -4  -4   2   13.40    2.95
   3   4  -2    2.82    0.65
   3   4  -2    3.51    1.47
   3   4  -2    3.02    0.64
  -3  -4   2    0.72    0.90
  -3  -4   2    4.77    0.80
   2   4  -2   35.20    2.90
   2   4  -2   36.33    1.54
   2   4  -2   36.21    1.66
   2   4  -2   36.14    1.57
  -2  -4   2   37.91    1.64
  -2  -4   2   31.47    2.86
   1   4  -2   13.34    2.00
   1   4  -2   12.34    0.93
   1   4  -2   11.36    0.85
   1   4  -2   12.76    0.84
  -1  -4   2   11.06    0.81
  -1  -4   2   13.53    1.97
   0   4  -2  191.28    5.45
   0   4  -2  195.29    4.36
   0   4  -2  198.95    4.26
   0   4  -2  203.47    4.57
   0  -4   2  195.99    5.51
   0  -4   2  201.95    4.32
  -1   4  -2  171.29    4.02
  -1   4  -2  169.85    3.62
  -1   4  -2  178.96    3.74
  -1   4  -2  179.42    3.90
  -1   4  -2  179.88    4.00
   1  -4   2  174.23    4.01
  -2   4  -2   32.43    1.08
  -2   4  -2   32.21    1.02
  -2   4  -2   33.11    1.18
  -2   4  -2   31.05    1.22
   2  -4   2   30.41    1.40
   2  -4   2   30.29    1.36
  -3   4  -2  264.30    4.91
  -3   4  -2  259.67    5.22
   3  -4   2  260.17    5.23
   3  -4   2  257.64    6.82
   3  -4   2  262.16    4.91
  -4   4  -2  177.48    3.66
  -4   4  -2  174.64    6.98
  -4   4  -2  173.55    3.47
   4  -4   2  172.55    3.47
   4  -4   2  175.97    3.69
  -5   4  -2    0.01    0.48
  -5   4  -2    0.14    0.19
  -5   4  -2    0.57    0.22
   5  -4   2    0.32    0.22
   5  -4   2    0.00    0.58
   5  -4   2    0.19    0.20
  -6   4  -2   26.07    1.04
  -6   4  -2   27.61    0.94
   6  -4   2   26.67    1.01
   6  -4   2   32.31    4.23
   6  -4   2   27.92    1.28
  -7   4  -2   10.24    0.77
  -7   4  -2   10.38    0.58
   7  -4   2    9.17    0.71
   7  -4   2   12.43    2.91
   7  -4   2    9.50    0.63
  -8   4  -2    0.24    0.39
  -8   4  -2    0.07    0.20
   8  -4   2    0.78    0.93
   8  -4   2    0.40    0.25
   8  -4   2   -0.10    0.30
  -9   4  -2    0.12    0.40
   9  -4   2    0.43    0.39
   9  -4   2    1.30    0.98
  10  -4   2    2.45    1.72
   8   3  -2   -0.15    0.43
   8   3  -2    0.33    1.37
   8   3  -2   -0.20    0.57
   7   3  -2    1.41    0.61
   7   3  -2    2.72    1.72
   7   3  -2    1.08    0.60
  -7  -3   2    0.07    1.09
   6   3  -2   -0.07    0.35
   6   3  -2    0.03    0.65
   6   3  -2   -0.28    0.30
   6   3  -2    0.04    0.42
  -6  -3   2   -0.25    0.70
   5   3  -2    4.30    1.84
   5   3  -2    3.88    0.77
   5   3  -2    3.64    0.76
  -5  -3   2    4.99    2.05
  -5  -3   2    3.96    0.82
   4   3  -2    4.82    2.04
   4   3  -2    5.56    0.82
   4   3  -2    4.53    0.79
  -4  -3   2    4.09    0.72
  -4  -3   2    2.88    1.35
  -4  -3   2    2.71    0.61
   3   3  -2   86.27    4.99
   3   3  -2   91.07    2.56
   3   3  -2   85.52    2.56
  -3  -3   2   85.56    4.98
  -3  -3   2   84.77    2.52
  -3  -3   2   84.82    2.61
   2   3  -2   77.92    2.27
   2   3  -2   79.77    4.19
   2   3  -2   81.44    2.30
  -2  -3   2   81.93    2.35
  -2  -3   2   84.95    4.43
  -2  -3   2   83.54    2.33
   1   3  -2    3.83    0.57
   1   3  -2    4.52    0.57
   1   3  -2    4.70    0.58
   1   3  -2    4.07    1.05
  -1  -3   2    4.12    0.55
  -1  -3   2    4.36    1.10
   0   3  -2  117.82    3.63
   0   3  -2  120.28    2.78
   0   3  -2  115.39    2.85
   0   3  -2  123.96    2.69
   0  -3   2  121.36    2.71
   0  -3   2  113.01    3.59
  -1   3  -2  235.55    4.70
  -1   3  -2  225.03    5.11
  -1   3  -2  228.60    4.35
  -1   3  -2  229.98    4.42
   1  -3   2  232.59    5.05
   1  -3   2  232.94    4.68
  -2   3  -2    3.16    0.31
  -2   3  -2    3.41    0.41
   2  -3   2    3.43    0.80
   2  -3   2    2.93    0.73
   2  -3   2    2.66    0.38
  -3   3  -2   20.77    0.80
  -3   3  -2   21.19    0.66
  -3   3  -2   23.22    1.89
   3  -3   2   20.85    0.66
   3  -3   2   18.78    1.75
   3  -3   2   20.57    0.82
  -4   3  -2   -0.13    0.38
  -4   3  -2    0.24    0.19
  -4   3  -2    0.30    0.15
   4  -3   2    0.72    0.67
   4  -3   2    0.96    0.25
   4  -3   2    0.57    0.19
  -5   3  -2    6.95    0.50
  -5   3  -2    5.91    1.70
  -5   3  -2    5.60    0.44
   5  -3   2    5.77    0.47
   5  -3   2    5.97    0.45
   5  -3   2    6.06    1.72
  -6   3  -2    1.43    0.35
  -6   3  -2    0.60    0.26
   6  -3   2    1.18    0.31
   6  -3   2   -0.83    0.54
   6  -3   2    0.81    0.27
  -7   3  -2   36.83    1.23
  -7   3  -2   37.35    1.47
   7  -3   2   38.56    1.30
   7  -3   2   39.31    1.43
   7  -3   2   41.00    5.35
  -8   3  -2   12.73    0.78
  -8   3  -2   14.62    1.04
   8  -3   2   13.67    0.95
   8  -3   2    5.77    2.40
   8  -3   2   13.70    0.81
  -9   3  -2    1.47    0.53
   9  -3   2    0.44    0.89
   9  -3   2    0.90    0.44
   9  -3   2    1.80    0.43
  10  -3   2    4.84    0.83
  10  -3   2    7.21    2.75
   9   2  -2    1.41    1.87
   9   2  -2    0.17    0.55
   8   2  -2    0.52    0.50
   8   2  -2    0.58    1.04
  -8  -2   2    0.89    1.65
   7   2  -2    1.90    0.68
   7   2  -2    2.45    0.66
   7   2  -2    3.57    2.04
   7   2  -2    2.87    0.72
  -7  -2   2    2.67    1.92
   6   2  -2   10.76    1.17
   6   2  -2   11.18    0.94
   6   2  -2   12.83    3.19
  -6  -2   2   12.65    1.37
  -6  -2   2    8.55    2.68
   5   2  -2   17.79    3.41
   5   2  -2   14.60    0.97
   5   2  -2   12.02    0.98
  -5  -2   2   15.24    3.27
  -5  -2   2   14.83    1.11
  -5  -2   2   14.97    0.98
   4   2  -2   27.00    1.22
   4   2  -2   25.82    1.30
   4   2  -2   32.52    4.37
  -4  -2   2   24.12    1.31
  -4  -2   2   26.06    1.20
  -4  -2   2   26.82    3.88
   3   2  -2    0.83    0.88
   3   2  -2    0.18    0.27
   3   2  -2    1.05    0.33
  -3  -2   2    0.46    0.29
  -3  -2   2   -0.20    0.22
  -3  -2   2    0.71    0.76
   2   2  -2  118.53    2.80
   2   2  -2  112.45    4.81
   2   2  -2  118.33    2.75
  -2  -2   2  115.97    2.73
  -2  -2   2  114.53    2.80
  -2  -2   2  112.63    4.78
   1   2  -2  246.06    4.78
   1   2  -2  250.76    4.93
   1   2  -2  240.50    4.81
   1   2  -2  249.37    6.68
  -1  -2   2  239.99    4.79
  -1  -2   2  243.39    6.67
   0   2  -2   46.43    1.29
   0   2  -2   41.34    1.13
   0   2  -2   44.76    1.89
   0  -2   2   42.88    1.28
   0  -2   2   41.57    1.81
   0  -2   2   43.89    1.15
  -1   2  -2    3.50    0.27
  -1   2  -2    2.99    0.28
  -1   2  -2    4.01    0.41
   1  -2   2    3.76    0.69
   1  -2   2    3.65    0.41
  -2   2  -2    8.91    0.48
  -2   2  -2    8.36    0.31
  -2   2  -2   11.84    1.54
   2  -2   2    9.62    0.51
   2  -2   2   12.90    1.58
   2  -2   2    8.72    0.32
  -3   2  -2   20.80    0.73
  -3   2  -2   19.58    0.62
  -3   2  -2   19.70    1.87
   3  -2   2   19.34    0.73
   3  -2   2   18.78    0.60
   3  -2   2   22.46    2.63
  -4   2  -2   35.56    2.94
  -4   2  -2   35.09    1.06
  -4   2  -2   35.00    1.05
   4  -2   2   30.61    2.80
   4  -2   2   35.07    1.04
   4  -2   2   34.71    1.09
  -5   2  -2   12.54    0.65
  -5   2  -2   15.55    2.84
  -5   2  -2   14.86    0.74
   5  -2   2   15.76    3.01
   5  -2   2   13.24    0.69
   5  -2   2   12.64    0.69
  -6   2  -2    6.60    0.69
  -6   2  -2    7.01    0.55
  -6   2  -2    5.18    1.97
   6  -2   2    6.72    2.22
   6  -2   2    7.07    0.58
   6  -2   2    6.52    0.66
  -7   2  -2    8.29    0.66
  -7   2  -2    9.18    0.92
   7  -2   2    8.40    0.83
   7  -2   2    9.82    2.72
   7  -2   2    8.30    0.76
  -8   2  -2   22.41    1.09
  -8   2  -2   21.96    1.33
   8  -2   2   21.05    1.12
   8  -2   2   21.13    4.51
   8  -2   2   20.37    1.22
  -9   2  -2    4.80    0.88
  -9   2  -2    7.58    0.79
   9  -2   2    5.82    2.81
   9  -2   2    6.35    0.87
   9  -2   2    6.29    0.79
  10  -2   2    3.03    0.74
  10  -2   2    1.29    1.37
   9   1  -2    0.77    1.96
   9   1  -2    0.67    0.59
   9   1  -2    0.13    0.51
   9   1  -2   -0.07    0.48
   8   1  -2   -0.46    0.64
   8   1  -2   -0.30    0.37
   8   1  -2    0.16    0.45
   8   1  -2    0.43    0.41
   7   1  -2   25.97    1.35
   7   1  -2   25.06    1.42
   7   1  -2   29.56    1.63
  -7  -1   2   27.17    5.04
   6   1  -2   34.34    1.45
   6   1  -2   48.16    6.40
   6   1  -2   35.92    1.68
  -6  -1   2   35.92    5.10
   5   1  -2    4.72    0.70
   5   1  -2    5.46    0.66
   5   1  -2    5.73    2.14
  -5  -1   2    4.76    1.70
  -5  -1   2    5.30    0.66
  -5  -1   2    5.40    0.76
   4   1  -2  249.86    5.06
   4   1  -2  251.59    5.33
   4   1  -2  251.28    9.24
  -4  -1   2  245.71    5.34
  -4  -1   2  246.30    9.36
   3   1  -2   75.50    4.24
   3   1  -2   80.89    2.16
   3   1  -2   81.08    2.01
  -3  -1   2   81.15    2.01
  -3  -1   2   81.35    2.18
  -3  -1   2   80.14    4.35
   2   1  -2   13.10    1.92
   2   1  -2   10.87    0.59
   2   1  -2    9.86    0.59
   2   1  -2   11.01    0.56
  -2  -1   2    9.85    0.60
  -2  -1   2   10.15    1.72
   1   1  -2   99.14    3.44
   1   1  -2  101.94    2.15
   1   1  -2   98.54    2.11
  -1  -1   2  100.69    2.15
  -1  -1   2   94.81    3.73
  -1  -1   2   96.66    2.11
   0   1  -2   84.16    1.66
   0   1  -2   87.23    1.82
   0   1  -2   85.74    2.58
   0  -1   2   87.57    1.83
   0  -1   2   83.66    1.66
  -1   1  -2    0.10    0.13
   1  -1   2    0.33    0.33
   1  -1   2    0.54    0.17
  -2   1  -2    1.88    0.21
  -2   1  -2    1.46    0.25
  -2   1  -2    1.62    0.67
   2  -1   2    1.50    0.18
   2  -1   2    1.19    0.65
   2  -1   2    1.36    0.24
  -3   1  -2   62.03    1.49
  -3   1  -2   58.68    1.44
  -3   1  -2   60.67    3.54
   3  -1   2   58.67    1.50
   3  -1   2   58.90    1.43
   3  -1   2   58.40    3.50
  -4   1  -2   97.27    5.18
  -4   1  -2   97.43    2.26
  -4   1  -2   96.33    2.30
   4  -1   2   95.74    2.27
   4  -1   2   96.65    2.27
   4  -1   2  100.49    5.26
  -5   1  -2   -0.02    0.56
  -5   1  -2   -0.28    0.17
  -5   1  -2    0.37    0.27
   5  -1   2    0.04    0.19
   5  -1   2   -0.01    0.59
   5  -1   2    0.00    0.21
  -6   1  -2   43.86    6.91
  -6   1  -2   46.72    1.71
  -6   1  -2   45.01    1.54
   6  -1   2   45.36    1.65
   6  -1   2   45.13    5.55
  -7   1  -2   57.05    2.09
  -7   1  -2   59.21    1.89
   7  -1   2   54.94    5.25
   7  -1   2   57.00    1.91
   7  -1   2   54.55    2.01
  -8   1  -2    3.12    0.70
  -8   1  -2    4.17    0.66
   8  -1   2    3.66    0.67
   8  -1   2    5.48    2.42
  -9   1  -2    1.88    0.56
   9  -1   2    1.97    0.60
   9  -1   2    1.08    1.04
   9  -1   2    3.10    0.75
  10  -1   2   -0.05    0.96
  10  -1   2    0.64    0.57
  10   0  -2    9.13    3.68
   9   0  -2   13.60    1.03
   9   0  -2   14.22    1.48
   9   0  -2   12.05    3.86
   9   0  -2   13.76    1.06
   8   0  -2    0.55    0.39
   8   0  -2    0.11    0.32
   8   0  -2    0.58    0.44
   8   0  -2    1.21    1.27
   7   0  -2   48.25    1.75
   7   0  -2   49.67    2.40
   7   0  -2   49.98    1.67
   7   0  -2   52.76    6.91
  -7   0   2   50.69    6.63
  -7   0   2   49.55    2.11
   6   0  -2   68.16    5.36
   6   0  -2   72.14    2.00
   6   0  -2   68.68    2.35
  -6   0   2   78.29    2.50
  -6   0   2   74.68    5.55
   5   0  -2    8.27    2.35
   5   0  -2    6.02    0.49
   5   0  -2    6.37    0.74
  -5   0   2    5.38    1.87
  -5   0   2    7.68    0.83
  -5   0   2    6.00    0.59
   4   0  -2   30.11    0.99
   4   0  -2   31.43    1.23
   4   0  -2   31.90    2.91
  -4   0   2   30.67    1.01
  -4   0   2   34.30    3.02
   3   0  -2   16.57    0.76
   3   0  -2   18.35    2.52
   3   0  -2   12.68    0.58
  -3   0   2   14.87    0.75
  -3   0   2   17.68    2.59
   2   0  -2   11.39    0.46
   2   0  -2   10.87    0.54
   2   0  -2   10.68    0.43
   2   0  -2   13.31    1.91
  -2   0   2   16.92    2.19
  -2   0   2   11.16    0.56
   1   0  -2   15.00    0.50
   1   0  -2   14.39    0.46
   1   0  -2   15.02    1.13
  -1   0   2   17.10    1.20
  -1   0   2   14.59    0.47
  -1   0   2   15.08    0.51
   0   0  -2  119.51    2.26
   0   0   2  117.74    3.22
   0   0   2  120.74    2.27
  -1   0  -2  659.07   13.33
   1   0   2  678.58   13.47
  -2   0  -2  111.50    4.46
  -2   0  -2  110.62    2.33
  -2   0  -2  104.96    2.26
   2   0   2  112.53    4.48
   2   0   2  111.77    2.33
   2   0   2  104.12    2.26
  -3   0  -2  151.42    6.14
  -3   0  -2  149.66    3.15
  -3   0  -2  144.60    3.14
   3   0   2  145.04    3.12
   3   0   2  144.75    3.12
   3   0   2  149.91    6.17
  -4   0  -2  205.94    8.33
  -4   0  -2  217.82    4.57
   4   0   2  222.55    4.50
   4   0   2  224.87    4.58
   4   0   2  204.74    8.35
  -5   0  -2   50.33    1.75
  -5   0  -2   49.72    1.64
  -5   0  -2   49.24    4.24
   5   0   2   47.86    1.69
   5   0   2   39.30    4.93
   5   0   2   51.24    1.65
  -6   0  -2    5.48    0.80
  -6   0  -2    5.98    0.79
  -6   0  -2    4.14    1.93
   6   0   2    4.66    0.69
   6   0   2    5.31    0.70
   6   0   2    6.26    2.33
  -7   0  -2   13.75    1.01
  -7   0  -2   15.55    3.90
   7   0   2   13.81    1.07
   7   0   2   12.58    1.02
   7   0   2   16.25    3.83
  -8   0  -2    0.31    0.41
   8   0   2    0.03    0.46
   8   0   2    0.27    0.85
   8   0   2    0.21    0.40
  -9   0  -2    0.21    0.41
   9   0   2    0.50    0.59
   9   0   2   -0.27    0.78
   9   0   2    0.66    0.56
  10  -1  -2    1.73    1.89
  10  -1  -2    0.69    0.58
   9  -1  -2    3.39    2.00
   9  -1  -2    3.59    0.68
   9  -1  -2    4.11    0.63
   9  -1  -2    4.00    0.87
   8  -1  -2   15.12    3.74
   8  -1  -2   17.69    1.24
   8  -1  -2   14.96    0.82
  -8   1   2   15.29    1.48
   7  -1  -2    3.52    1.71
   7  -1  -2    5.70    0.57
   7  -1  -2    4.45    0.71
   7  -1  -2    4.66    0.56
  -7   1   2    6.04    2.26
  -7   1   2    6.03    0.89
   6  -1  -2   -0.08    0.21
   6  -1  -2    0.48    0.35
   6  -1  -2    1.16    1.06
   6  -1  -2    0.26    0.22
  -6   1   2    0.65    0.73
  -6   1   2    0.12    0.31
   5  -1  -2    1.60    0.38
   5  -1  -2    1.58    0.28
   5  -1  -2    1.30    0.97
  -5   1   2    2.20    1.19
  -5   1   2    1.86    0.41
   4  -1  -2   14.46    0.57
   4  -1  -2   17.46    0.53
   4  -1  -2   22.87    3.10
   4  -1  -2   15.98    0.81
  -4   1   2   22.10    3.07
  -4   1   2   16.45    0.82
   3  -1  -2   38.42    0.79
   3  -1  -2   41.33    2.68
   3  -1  -2   37.47    1.17
   3  -1  -2   36.71    0.80
  -3   1   2   37.08    1.15
  -3   1   2   36.93    2.58
   2  -1  -2  254.81    4.70
   2  -1  -2  252.82    6.60
  -2   1   2  249.16    4.69
  -2   1   2  252.23    6.60
   1  -1  -2    0.31    0.11
   1  -1  -2    0.47    0.16
   1  -1  -2    0.31    0.31
  -1   1   2    0.14    0.12
  -1   1   2    0.34    0.12
  -1   1   2    0.18    0.32
   0  -1  -2    9.60    0.42
   0  -1  -2   10.48    0.45
   0   1   2    9.91    0.44
   0   1   2    8.97    0.41
   0   1   2   10.93    1.23
  -1  -1  -2  163.81    5.10
  -1  -1  -2  164.92    3.30
  -1  -1  -2  164.93    3.29
   1   1   2  167.55    5.13
   1   1   2  160.96    3.26
   1   1   2  163.95    3.28
  -2  -1  -2   50.23    1.47
  -2  -1  -2   52.73    1.48
  -2  -1  -2   49.34    3.09
   2   1   2   48.73    1.43
   2   1   2   50.64    1.44
  -3  -1  -2   20.00    2.83
  -3  -1  -2   17.41    0.89
  -3  -1  -2   18.76    0.89
   3   1   2   17.05    0.85
   3   1   2   18.29    2.78
   3   1   2   16.61    0.85
  -4  -1  -2    4.28    1.65
  -4  -1  -2    6.04    0.72
  -4  -1  -2    3.83    0.60
   4   1   2    5.30    0.68
   4   1   2    5.35    1.75
   4   1   2    4.35    0.60
  -5  -1  -2    0.59    0.38
  -5  -1  -2    1.40    1.18
  -5  -1  -2    0.45    0.40
   5   1   2    0.22    0.30
   5   1   2    0.73    0.86
   5   1   2    0.73    0.37
  -6  -1  -2    3.75    0.76
  -6  -1  -2    3.81    1.93
  -6  -1  -2    4.92    0.78
   6   1   2    1.24    1.06
   6   1   2    4.24    0.72
   6   1   2    4.34    0.75
  -7  -1  -2   10.82    3.26
  -7  -1  -2   10.67    1.18
  -7  -1  -2   11.75    1.48
   7   1   2    7.32    2.77
   7   1   2    9.50    1.13
  -8  -1  -2   12.94    1.35
   8   1   2   14.81    1.48
   8   1   2   14.17    1.71
   8   1   2   19.32    4.89
  -9  -1  -2    0.39    0.52
   9   1   2    0.66    1.14
   9   1   2    1.63    0.69
  10  -2  -2   17.71    1.66
  10  -2  -2   13.46    3.96
   9  -2  -2    0.00    0.64
   9  -2  -2    0.42    0.40
   8  -2  -2    7.68    1.49
   8  -2  -2    7.22    2.81
  -8   2   2    3.92    0.75
   7  -2  -2    7.60    2.46
   7  -2  -2    5.65    0.75
  -7   2   2    3.81    0.72
   6  -2  -2    3.09    1.44
   6  -2  -2    4.79    0.65
  -6   2   2    3.99    1.71
  -6   2   2    3.60    0.61
   5  -2  -2   -0.29    0.38
   5  -2  -2    0.10    0.21
  -5   2   2    0.31    0.54
  -5   2   2    0.50    0.26
   4  -2  -2   53.18    1.61
   4  -2  -2   52.43    3.39
  -4   2   2   51.20    3.41
  -4   2   2   52.69    1.55
   3  -2  -2   23.32    0.87
   3  -2  -2   23.25    1.89
  -3   2   2   24.55    0.89
  -3   2   2   24.66    1.99
   2  -2  -2  445.85    7.54
  -2   2   2  423.50    7.51
  -2   2   2  430.75    9.39
  -1   2   2  975.00   18.21
  -1   2   2 1000.00   18.37
   0  -2  -2  314.62    5.85
   0   2   2  311.90    5.89
   0   2   2  314.94    5.86
   0   2   2  305.21    7.23
   0   2   2  313.70    5.82
  -1  -2  -2   36.49    1.25
  -1  -2  -2   35.68    1.22
   1   2   2   40.03    2.49
   1   2   2   38.52    1.26
   1   2   2   39.10    1.26
  -2  -2  -2   39.09    1.42
  -2  -2  -2   44.21    3.09
  -2  -2  -2   42.54    1.45
   2   2   2   39.00    2.91
   2   2   2   42.14    1.42
   2   2   2   41.67    1.43
  -3  -2  -2   18.38    2.87
  -3  -2  -2   15.69    0.93
  -3  -2  -2   15.06    0.91
   3   2   2   15.64    0.91
   3   2   2   15.95    2.81
   3   2   2   13.26    0.86
  -4  -2  -2   16.98    3.08
  -4  -2  -2   12.43    0.94
  -4  -2  -2   12.95    0.93
   4   2   2   11.82    0.88
   4   2   2   11.65    0.90
   4   2   2   19.96    3.49
  -5  -2  -2    1.20    0.46
  -5  -2  -2    3.46    1.66
  -5  -2  -2    1.44    0.52
   5   2   2    2.06    0.54
   5   2   2    1.66    1.07
   5   2   2    1.58    0.51
  -6  -2  -2    1.39    1.25
  -6  -2  -2   -0.01    0.43
   6   2   2    1.62    0.57
   6   2   2    1.32    1.22
   6   2   2    0.05    0.35
  -7  -2  -2    6.43    0.99
  -7  -2  -2    7.61    2.86
   7   2   2    8.81    1.16
   7   2   2    8.16    2.94
  -8  -2  -2    0.91    0.56
   8   2   2    2.75    2.18
  10  -3  -2   -0.60    0.84
  10  -3  -2    0.85    0.57
   9  -3  -2    0.82    0.51
   9  -3  -2    0.52    1.34
   8  -3  -2    0.19    0.32
   8  -3  -2    1.30    1.17
  -8   3   2   -0.01    0.58
   7  -3  -2   14.09    0.99
   7  -3  -2   17.58    3.43
  -7   3   2   13.07    0.98
   6  -3  -2  120.22    6.39
   6  -3  -2  116.44    2.99
  -6   3   2  115.84    3.00
  -6   3   2  114.31    6.28
   5  -3  -2   15.36    0.83
   5  -3  -2   17.76    3.23
  -5   3   2   16.29    0.88
   4  -3  -2  110.57    4.76
  -4   3   2  115.80    4.93
  -4   3   2  113.58    2.65
   3  -3  -2  379.85    9.33
   3  -3  -2  405.96    7.46
  -3   3   2  403.10    7.06
  -3   3   2  393.63    9.49
  -3   3   2  412.78    7.15
  -3   3   2  407.36    7.44
   2  -3  -2    7.49    0.46
   2  -3  -2    7.31    0.51
   2  -3  -2    7.44    0.94
  -2   3   2    7.01    0.44
  -2   3   2    8.73    1.04
  -2   3   2    7.72    0.52
   1  -3  -2   23.15    0.91
   1  -3  -2   22.09    0.89
  -1   3   2   24.54    0.93
  -1   3   2   22.96    0.89
  -1   3   2   23.40    1.26
  -1   3   2   24.50    1.31
   0  -3  -2   83.42    2.16
   0   3   2   77.85    2.05
   0   3   2   79.36    2.10
   0   3   2   81.84    3.24
  -1  -3  -2    2.30    0.91
  -1  -3  -2    2.90    0.52
   1   3   2    2.39    0.91
   1   3   2    1.96    0.47
   1   3   2    3.00    0.52
  -2  -3  -2   16.97    1.00
  -2  -3  -2   16.79    0.98
   2   3   2   15.29    0.94
   2   3   2   15.11    0.93
   2   3   2   16.96    2.67
  -3  -3  -2    2.57    1.22
  -3  -3  -2    1.93    0.52
  -3  -3  -2    2.45    0.58
   3   3   2    3.51    1.49
   3   3   2    3.73    0.67
   3   3   2    2.78    0.56
  -4  -3  -2   66.19    5.11
  -4  -3  -2   65.28    2.43
  -4  -3  -2   66.97    2.39
   4   3   2   69.85    2.39
   4   3   2   67.47    5.05
   4   3   2   69.61    2.39
  -5  -3  -2   32.15    1.70
  -5  -3  -2   36.96    5.42
  -5  -3  -2   32.26    1.78
   5   3   2   34.31    5.03
   5   3   2   30.88    1.63
   5   3   2   32.30    1.68
  -6  -3  -2    8.78    1.19
  -6  -3  -2    4.95    2.37
   6   3   2    7.89    2.70
   6   3   2    8.80    1.17
  -7  -3  -2   23.77    5.71
  -7  -3  -2   22.19    1.60
   7   3   2   20.80    4.81
   7   3   2   23.93    1.67
  -8  -3  -2    7.23    1.24
   8   3   2    6.94    3.15
  10  -4  -2    2.64    0.72
  10  -4  -2    2.32    1.82
   9  -4  -2   24.75    1.42
   9  -4  -2   23.56    4.55
  -9   4   2   21.76    1.46
   8  -4  -2   10.13    2.88
   8  -4  -2   10.21    1.05
  -8   4   2   11.28    1.12
   7  -4  -2    7.66    0.85
   7  -4  -2    6.46    1.93
  -7   4   2    6.75    0.81
   6  -4  -2   50.27    3.89
   6  -4  -2   47.19    1.67
  -6   4   2   47.55    1.69
   5  -4  -2   42.23    3.17
   5  -4  -2   49.36    1.60
  -5   4   2   46.29    1.57
  -5   4   2   47.32    3.36
   4  -4  -2   23.49    1.97
   4  -4  -2   23.66    1.02
  -4   4   2   27.85    2.09
  -4   4   2   24.37    0.74
  -4   4   2   25.00    1.05
  -4   4   2   24.20    0.79
   3  -4  -2   36.06    1.89
   3  -4  -2   36.65    1.27
  -3   4   2   37.56    1.12
  -3   4   2   36.02    1.89
  -3   4   2   36.28    1.23
  -3   4   2   36.03    1.25
   2  -4  -2    0.31    0.23
   2  -4  -2    0.47    0.24
  -2   4   2    0.11    0.20
  -2   4   2    0.58    0.24
  -2   4   2   -0.07    0.18
   1  -4  -2    8.33    0.79
  -1   4   2    9.34    1.07
  -1   4   2    8.03    1.04
  -1   4   2    7.16    0.60
  -1   4   2    8.23    0.78
   0  -4  -2    8.94    0.86
   0   4   2    7.66    0.80
   0   4   2    8.04    0.82
   0   4   2    9.57    0.88
   0   4   2   10.39    1.61
  -1  -4  -2   94.13    4.53
  -1  -4  -2   96.77    2.74
  -1  -4  -2   93.26    2.70
   1   4   2   93.68    2.68
   1   4   2   94.61    2.68
   1   4   2   91.27    4.43
  -2  -4  -2   64.29    2.25
  -2  -4  -2   59.38    4.09
  -2  -4  -2   63.85    2.23
   2   4   2   62.91    2.18
   2   4   2   61.60    2.16
   2   4   2   62.56    4.10
  -3  -4  -2    1.03    0.48
  -3  -4  -2    1.28    0.49
   3   4   2    0.75    0.40
   3   4   2    0.93    0.40
   3   4   2    1.99    1.11
  -4  -4  -2   37.24    4.96
  -4  -4  -2   33.92    1.76
  -4  -4  -2   36.10    1.87
   4   4   2   35.05    1.76
   4   4   2   35.36    1.79
   4   4   2   40.25    5.36
  -5  -4  -2   20.42    1.48
  -5  -4  -2   24.57    4.76
   5   4   2   22.33    1.53
   5   4   2   14.51    3.48
  -6  -4  -2    0.11    0.44
  -6  -4  -2   -0.23    1.42
   6   4   2    0.33    0.43
   6   4   2    0.45    0.89
  -7  -4  -2    0.44    0.52
   7   4   2   -0.15    0.90
   7   4   2    0.38    0.67
  10  -5  -2    3.36    1.78
  10  -5  -2    1.15    0.59
   9  -5  -2    0.93    0.48
   9  -5  -2    0.18    1.05
  -9   5   2   -0.34    0.37
   8  -5  -2   14.27    1.02
  -8   5   2   12.66    1.03
   7  -5  -2   32.74    1.46
   7  -5  -2   31.92    4.22
  -7   5   2   31.81    1.46
   6  -5  -2    6.88    1.83
   6  -5  -2    4.16    0.62
  -6   5   2    6.92    0.79
   5  -5  -2    4.31    0.62
   5  -5  -2    3.68    1.03
  -5   5   2    4.49    0.35
  -5   5   2    4.76    0.39
  -5   5   2    4.16    0.59
   4  -5  -2    9.99    0.73
   4  -5  -2    8.24    1.31
  -4   5   2   10.96    0.75
  -4   5   2   10.77    0.62
  -4   5   2   11.31    1.51
  -4   5   2   10.49    0.67
   3  -5  -2    0.94    0.35
   3  -5  -2    0.89    0.29
  -3   5   2    0.93    0.41
  -3   5   2    0.64    0.29
  -3   5   2    1.22    0.30
  -3   5   2    1.33    0.34
   2  -5  -2    5.73    0.67
  -2   5   2    6.87    0.72
  -2   5   2    6.74    0.76
  -2   5   2    7.31    0.77
   1  -5  -2   57.69    1.93
  -1   5   2   54.47    1.86
  -1   5   2   54.34    2.20
  -1   5   2   54.96    1.83
  -1   5   2   52.63    1.91
  -1   5   2   55.16    2.21
   0  -5  -2    2.65    0.57
   0   5   2    2.79    0.53
   0   5   2    3.29    0.90
   0   5   2    4.39    0.71
   0   5   2    3.09    0.60
  -1  -5  -2    0.11    0.34
  -1  -5  -2   -0.08    0.34
   1   5   2    0.04    0.26
   1   5   2    0.60    0.65
   1   5   2   -0.14    0.28
   1   5   2    0.18    0.27
  -2  -5  -2   15.28    2.76
  -2  -5  -2   14.21    1.12
  -2  -5  -2   15.03    1.16
   2   5   2   14.81    2.79
   2   5   2   16.07    1.15
   2   5   2   14.85    1.15
  -3  -5  -2   29.72    1.70
  -3  -5  -2   37.01    4.78
   3   5   2   29.02    1.64
   3   5   2   28.54    1.86
   3   5   2   32.74    4.51
  -4  -5  -2    3.09    0.73
   4   5   2    4.34    1.87
   4   5   2    3.62    0.75
  -5  -5  -2    0.19    1.02
  -5  -5  -2    0.01    0.40
   5   5   2   -0.17    0.35
   5   5   2   -0.07    0.65
  -6  -5  -2    1.04    0.60
   6   5   2    0.36    0.50
  10  -6  -2   21.99    4.44
  10  -6  -2   27.57    1.62
   9  -6  -2   14.99    3.38
   9  -6  -2   12.52    1.21
  -9   6   2   11.63    1.21
   8  -6  -2    2.71    0.62
   8  -6  -2    4.87    1.84
  -8   6   2    3.13    0.78
   7  -6  -2   15.79    1.07
   7  -6  -2   14.67    2.71
  -7   6   2   15.82    1.07
   6  -6  -2    0.97    0.41
   6  -6  -2    0.68    0.74
  -6   6   2   -0.19    0.22
  -6   6   2    0.30    0.33
  -6   6   2   -0.08    0.23
   5  -6  -2    3.61    0.58
   5  -6  -2    5.18    1.24
  -5   6   2    3.09    0.46
  -5   6   2    3.26    0.49
  -5   6   2    3.08    0.54
   4  -6  -2    6.51    0.77
  -4   6   2    5.17    0.67
  -4   6   2    4.13    0.64
  -4   6   2    5.34    0.68
  -3   6   2   57.90    2.08
  -3   6   2   55.44    1.86
  -3   6   2   56.41    1.93
   2  -6  -2   54.38    1.95
  -2   6   2   54.03    1.92
  -2   6   2   54.23    2.04
  -2   6   2   53.49    1.92
   1  -6  -2    2.17    0.53
  -1   6   2    0.88    0.41
  -1   6   2    1.72    0.47
  -1   6   2    2.46    0.59
  -1   6   2    1.92    0.53
  -1   6   2    2.77    0.66
   0  -6  -2  113.87    3.37
   0   6   2  109.94    3.21
   0   6   2  109.87    3.32
   0   6   2  116.93    3.36
   0   6   2  106.94    4.50
  -1  -6  -2   72.26    2.69
   1   6   2   72.38    4.32
   1   6   2   77.21    2.89
   1   6   2   77.80    2.94
   1   6   2   72.01    2.65
  -2  -6  -2    1.74    0.64
  -2  -6  -2    0.75    0.88
   2   6   2    1.78    0.59
   2   6   2    0.49    0.70
  -3  -6  -2   11.94    2.89
  -3  -6  -2    9.89    1.27
   3   6   2   11.13    1.30
   3   6   2   13.81    3.14
  -4  -6  -2    4.65    0.97
  -4  -6  -2    3.21    1.58
   4   6   2    3.66    1.10
   4   6   2    3.51    1.78
  -5  -6  -2    0.71    0.60
  -5  -6  -2   -0.25    1.22
  10  -7  -2    1.17    0.63
   9  -7  -2    1.60    1.20
   9  -7  -2    0.09    0.41
  -9   7   2    0.50    0.57
   8  -7  -2    0.77    0.91
  -8   7   2    0.31    0.42
   7  -7  -2    3.35    0.65
  -7   7   2    3.04    0.66
   6  -7  -2   31.76    1.53
   6  -7  -2   31.24    2.32
  -6   7   2   32.66    1.55
  -6   7   2   32.94    1.20
  -6   7   2   35.80    1.60
   5  -7  -2   41.53    1.74
  -5   7   2   41.03    1.71
  -5   7   2   41.17    1.64
  -5   7   2   43.63    1.54
  -4   7   2   -0.19    0.28
  -4   7   2   -0.02    0.26
  -4   7   2   -0.28    0.34
  -3   7   2  101.27    3.14
  -3   7   2   93.02    2.85
  -3   7   2  102.87    3.17
  -3   7   2  101.86    2.97
  -2   7   2   47.61    1.96
  -2   7   2   48.90    2.09
  -1   7   2    0.00    0.33
  -1   7   2   -0.16    0.39
  -1   7   2    0.02    0.38
   0  -7  -2   18.37    1.36
   0   7   2   17.94    2.53
   0   7   2   17.62    1.32
  -1  -7  -2    0.48    0.45
   1   7   2   -0.32    0.42
   1   7   2    1.17    0.53
  -2  -7  -2    2.99    0.87
   2   7   2    1.52    0.58
   2   7   2    0.75    0.85
  -3  -7  -2    1.87    1.53
  -3  -7  -2    1.51    0.64
   3   7   2    2.05    1.31
   3   7   2    1.41    0.60
  -4  -7  -2   -0.18    0.88
  10  -8  -2    1.30    1.49
  10  -8  -2    0.25    0.51
   9  -8  -2    1.66    1.22
   9  -8  -2    3.46    0.74
   8  -8  -2    6.17    1.68
   8  -8  -2    5.00    0.82
  -8   8   2    3.24    0.76
   7  -8  -2    5.49    1.23
   7  -8  -2    4.24    0.77
  -7   8   2    3.83    0.50
  -7   8   2    2.87    0.69
  -7   8   2    3.08    0.55
   6  -8  -2    1.80    0.67
  -6   8   2    1.83    0.47
  -6   8   2    1.75    0.55
  -6   8   2    1.52    0.59
  -5   8   2   12.21    0.95
  -5   8   2   11.34    1.22
  -5   8   2   12.11    1.18
  -5   8   2   11.69    1.17
  -4   8   2   17.52    1.27
  -4   8   2   16.41    1.19
  -4   8   2   15.60    1.14
  -4   8   2   16.65    1.29
  -3   8   2    2.00    0.61
  -3   8   2    3.53    0.75
  -3   8   2    3.24    0.79
  -2   8   2    0.24    0.45
  -2   8   2   -0.04    0.47
  -2   8   2   -0.18    0.40
  -1   8   2    1.72    0.65
  -1   8   2    2.04    0.67
   0  -8  -2    0.08    0.45
   0   8   2   -0.04    0.45
  -1  -8  -2    6.21    1.06
   1   8   2    8.04    1.89
   1   8   2    6.51    1.07
  -2  -8  -2    3.52    0.95
   2   8   2    2.82    0.76
   9  -9  -2    0.93    0.94
   9  -9  -2    1.45    0.68
   8  -9  -2    0.92    0.53
  -7   9   2   18.13    1.07
  -6   9   2   17.14    1.20
  -6   9   2   18.12    1.34
  -5   9   2    0.57    0.58
  -5   9   2   -0.20    0.42
  -5   9   2    0.59    0.65
  -4   9   2    8.16    1.17
  -4   9   2   11.46    1.37
  -4   9   2    8.05    1.15
  -3   9   2    2.69    0.82
  -3   9   2    2.54    0.78
  -2   9   2    0.01    0.46
  -2   9   2    0.58    0.58
  -1   9   2   -0.23    0.49
  -1   9   2   -0.58    0.38
   0   9   2    2.72    0.91
   0   9   2    1.86    0.83
  -8  10   2   -0.31    0.57
  -7  10   2    2.20    0.66
  -7  10   2    2.78    0.84
  -6  10   2    1.06    0.73
  -6  10   2    0.61    0.59
  -6  10   2    1.31    0.71
  -5  10   2    0.04    0.55
  -5  10   2    1.33    0.74
  -4  10   2    0.84    0.70
  -4  10   2    0.70    0.61
  -3  10   2    4.01    1.38
  -3  10   2    4.53    1.06
  -2  10   2   15.81    1.87
  -6  11   2    0.40    0.73
  -6  11   2    0.97    0.74
  -5  11   2    5.03    1.29
  -5  11   2    4.41    1.05
  -4  11   2    2.23    0.88
  -2  11  -3    0.30    0.65
  -3  11  -3   11.69    1.44
  -4  11  -3    5.13    1.28
  -4  11  -3    3.74    0.92
  -5  11  -3    1.06    0.94
  -5  11  -3    0.86    0.63
  -6  11  -3   13.73    1.69
  -6  11  -3   10.09    1.22
   0  10  -3    6.87    1.24
  -1  10  -3    8.40    1.38
  -1  10  -3    8.99    1.44
  -2  10  -3    5.90    1.03
  -2  10  -3    4.42    1.07
  -3  10  -3   10.43    1.52
  -3  10  -3   10.37    1.26
  -4  10  -3   18.01    1.39
  -4  10  -3   15.74    1.78
  -5  10  -3    1.27    0.61
  -5  10  -3    1.74    0.62
  -5  10  -3    1.02    0.68
  -6  10  -3    0.04    0.48
  -6  10  -3    0.74    0.55
  -6  10  -3    0.01    0.60
  -7  10  -3    0.35    0.63
  -7  10  -3    0.11    0.49
  -3  -9   3    1.36    1.54
  -2  -9   3    3.26    1.55
   1   9  -3    6.27    1.12
   1   9  -3    2.61    0.88
   0   9  -3    0.16    0.47
   0   9  -3    0.16    0.74
  -1   9  -3    9.22    1.20
  -1   9  -3   10.14    1.49
  -2   9  -3    8.28    1.07
  -2   9  -3   10.53    1.46
  -3   9  -3    3.43    0.76
  -3   9  -3    2.91    0.84
  -3   9  -3    4.09    0.78
  -4   9  -3    0.22    0.65
  -4   9  -3   -0.22    0.42
  -4   9  -3    0.10    0.40
  -5   9  -3   -0.27    0.50
  -5   9  -3   -0.08    0.37
  -5   9  -3    0.28    0.40
  -5   9  -3    0.95    0.59
  -6   9  -3    1.06    0.49
  -6   9  -3    0.86    0.59
  -6   9  -3    0.27    0.48
  -6   9  -3    0.48    0.84
  -7   9  -3    1.48    0.62
  -7   9  -3    0.61    0.49
  -7   9  -3    1.65    0.51
  -7   9  -3    1.44    0.47
  -8   9  -3    1.96    0.54
  -8   9  -3    2.52    0.57
   8  -9   3    4.20    1.18
  -4  -8   3    0.35    1.56
   3   8  -3   18.88    1.88
   3   8  -3   15.32    2.06
  -3  -8   3   17.56    5.50
   2   8  -3   -0.37    0.42
   2   8  -3   -0.10    0.73
   2   8  -3    1.14    0.75
  -2  -8   3   -0.56    0.52
   1   8  -3   26.85    1.94
   1   8  -3   26.18    3.17
   1   8  -3   28.80    1.76
  -1  -8   3   29.08    2.74
   0   8  -3   62.26    2.52
   0   8  -3   61.49    2.79
  -1   8  -3    0.55    0.48
  -1   8  -3    0.52    0.46
  -1   8  -3   -0.28    0.35
  -2   8  -3    5.66    1.01
  -2   8  -3    6.57    1.10
  -2   8  -3    3.42    0.82
  -2   8  -3    4.38    0.76
  -3   8  -3    6.30    1.12
  -3   8  -3    9.17    1.19
  -3   8  -3    8.07    0.93
  -3   8  -3    8.54    1.00
  -4   8  -3   -0.23    0.34
  -4   8  -3    0.01    0.34
  -4   8  -3   -0.47    0.35
  -4   8  -3   -0.04    0.30
  -5   8  -3    3.08    0.69
  -5   8  -3    2.06    0.64
  -5   8  -3    2.27    0.58
  -5   8  -3    2.30    0.51
  -6   8  -3   13.50    0.90
  -6   8  -3   16.12    1.15
  -6   8  -3   12.09    0.95
  -6   8  -3   13.72    1.08
   6  -8   3   14.77    1.35
   6  -8   3   16.39    1.40
  -7   8  -3   18.62    1.13
  -7   8  -3   15.54    1.02
  -7   8  -3   14.97    0.94
  -7   8  -3   15.02    1.06
   7  -8   3   18.63    2.63
   7  -8   3   16.71    2.41
  -8   8  -3    1.72    0.48
  -8   8  -3    0.93    0.39
  -8   8  -3    1.56    0.43
   8  -8   3    1.55    1.13
   8  -8   3    2.76    1.29
   9  -8   3    5.74    2.13
   9  -8   3    4.08    1.58
   4   7  -3   12.22    1.61
   4   7  -3   13.43    1.52
  -4  -7   3   13.61    3.62
   3   7  -3   23.97    3.90
   3   7  -3   23.73    1.62
   3   7  -3   20.53    1.74
  -3  -7   3   27.11    4.44
   2   7  -3    2.63    0.68
   2   7  -3    3.99    1.00
   2   7  -3    4.25    1.66
  -2  -7   3    4.75    1.77
   1   7  -3   18.02    2.54
   1   7  -3   19.34    1.35
   1   7  -3   16.93    1.71
  -1  -7   3   23.28    3.09
   0   7  -3    1.19    0.61
   0   7  -3   -0.11    0.38
   0   7  -3    0.64    0.44
   0   7  -3    0.71    0.54
  -1   7  -3   11.32    0.92
  -1   7  -3    8.12    1.46
  -1   7  -3   12.46    1.20
  -1   7  -3   11.38    1.30
  -2   7  -3    7.16    0.96
  -2   7  -3    7.43    1.06
  -2   7  -3    7.15    0.82
  -2   7  -3    9.37    1.00
  -3   7  -3   33.68    1.58
  -3   7  -3   30.71    1.65
  -3   7  -3   30.51    1.41
  -3   7  -3   31.49    1.34
  -4   7  -3   58.06    2.22
  -4   7  -3   54.61    2.06
  -4   7  -3   63.27    1.99
  -4   7  -3   63.32    1.89
  -5   7  -3   17.53    1.12
  -5   7  -3   17.90    1.00
  -5   7  -3   15.62    1.05
  -5   7  -3   17.71    0.94
   5  -7   3   18.20    1.53
   5  -7   3   16.37    1.50
  -6   7  -3   13.00    0.94
  -6   7  -3   15.37    0.91
  -6   7  -3   12.23    0.91
   6  -7   3   14.96    2.33
  -7   7  -3   39.03    1.75
  -7   7  -3   41.94    1.50
   7  -7   3   42.16    3.54
   7  -7   3   36.70    3.40
  -8   7  -3    8.12    0.85
  -8   7  -3    8.15    0.65
   8  -7   3   10.86    2.59
   8  -7   3    7.44    0.68
   9  -7   3   -0.15    0.28
   9  -7   3    0.34    0.87
  10  -7   3    4.38    2.14
   5   6  -3    4.70    2.04
   5   6  -3    6.29    1.13
  -5  -6   3    3.13    1.95
   4   6  -3    2.53    0.75
   4   6  -3    2.46    0.79
   4   6  -3    4.40    2.02
  -4  -6   3    2.77    1.55
   3   6  -3   -0.16    0.29
   3   6  -3    0.45    0.80
   3   6  -3    0.79    0.52
  -3  -6   3    0.93    0.91
   2   6  -3    0.85    0.52
   2   6  -3    0.09    0.36
   2   6  -3    0.65    0.67
   2   6  -3    0.57    0.44
  -2  -6   3    1.56    1.16
  -2  -6   3    1.30    0.53
   1   6  -3    1.82    0.56
   1   6  -3    0.90    0.70
   1   6  -3    1.20    0.48
   1   6  -3    1.02    0.61
  -1  -6   3    0.28    0.40
  -1  -6   3    2.49    1.02
   0   6  -3    5.42    0.89
   0   6  -3    6.58    1.26
   0   6  -3    5.99    0.83
   0   6  -3    5.52    0.86
   0  -6   3    7.01    1.42
   0  -6   3    6.03    0.83
  -1   6  -3   39.81    1.84
  -1   6  -3   45.58    1.69
  -1   6  -3   43.00    1.78
  -1   6  -3   40.10    1.66
  -1   6  -3   42.12    1.56
   1  -6   3   39.96    1.67
  -2   6  -3   22.84    1.06
  -2   6  -3   25.28    1.17
  -2   6  -3   22.41    1.31
  -2   6  -3   22.47    1.23
  -3   6  -3    3.26    0.53
  -3   6  -3    2.24    0.55
  -3   6  -3    4.07    0.54
  -3   6  -3    3.62    0.64
  -4   6  -3   22.33    1.21
  -4   6  -3   21.55    1.12
  -4   6  -3   23.67    0.97
  -4   6  -3   25.29    1.22
   4  -6   3   21.82    1.66
   4  -6   3   24.75    1.78
  -5   6  -3   29.66    1.28
  -5   6  -3   25.61    1.17
  -5   6  -3   24.77    1.19
  -5   6  -3   24.91    0.97
   5  -6   3   25.24    2.31
   5  -6   3   27.71    2.39
  -6   6  -3    8.88    0.70
  -6   6  -3    7.97    0.59
   6  -6   3    7.69    0.57
   6  -6   3    6.93    1.72
  -7   6  -3    2.10    0.41
   7  -6   3    2.62    1.63
   8  -6   3    3.36    1.67
  -9   6  -3    0.00    0.36
   9  -6   3    0.42    0.79
   9  -6   3    0.36    0.32
   7   5  -3    4.06    1.06
   6   5  -3   -0.16    0.86
   6   5  -3    1.44    0.66
   6   5  -3    1.27    0.72
  -6  -5   3   -0.31    0.85
   5   5  -3    3.07    0.84
   5   5  -3    2.35    0.67
   5   5  -3    4.07    1.97
  -5  -5   3    3.28    1.98
   4   5  -3    1.34    1.07
   4   5  -3    2.70    0.78
   4   5  -3    4.38    0.88
  -4  -5   3    3.40    1.57
   3   5  -3    0.30    0.38
   3   5  -3   -0.10    0.30
   3   5  -3    1.53    1.09
   3   5  -3    0.07    0.45
  -3  -5   3    0.76    0.52
   2   5  -3    0.45    0.31
   2   5  -3   -0.26    0.23
   2   5  -3   -0.19    0.31
   2   5  -3   -0.07    0.36
  -2  -5   3    0.01    0.28
  -2  -5   3    0.11    0.41
   1   5  -3   36.91    3.23
   1   5  -3   30.01    1.49
   1   5  -3   32.48    1.64
   1   5  -3   33.16    1.47
  -1  -5   3   33.95    2.62
  -1  -5   3   30.55    1.49
   0   5  -3   63.04    2.12
   0   5  -3   62.20    2.00
   0   5  -3   63.10    2.99
   0   5  -3   62.99    2.24
   0  -5   3   60.40    2.99
   0  -5   3   61.54    2.03
  -1   5  -3    5.24    0.74
  -1   5  -3    3.88    0.64
  -1   5  -3    5.06    0.83
  -1   5  -3    3.49    0.52
  -1   5  -3    5.43    0.70
   1  -5   3    4.04    0.74
  -2   5  -3   49.38    1.79
  -2   5  -3   45.78    1.70
  -2   5  -3   51.48    1.73
  -2   5  -3   47.86    1.44
   2  -5   3   46.36    1.71
   2  -5   3   49.99    1.81
  -3   5  -3  166.96    3.50
  -3   5  -3  156.76    3.35
  -3   5  -3  168.40    3.87
   3  -5   3  161.42    4.70
  -4   5  -3   15.01    0.67
  -4   5  -3   17.42    0.93
   4  -5   3   17.69    0.96
   4  -5   3   17.80    2.31
   4  -5   3   14.96    2.07
  -5   5  -3    1.58    0.28
  -5   5  -3    1.21    0.36
   5  -5   3    1.11    0.27
   5  -5   3    1.40    0.38
   5  -5   3    2.00    0.99
  -6   5  -3   20.74    0.86
  -6   5  -3   20.32    1.16
   6  -5   3   20.93    1.01
   6  -5   3   21.52    0.85
   6  -5   3   25.52    3.51
  -7   5  -3    0.23    0.27
  -7   5  -3   -0.04    0.25
   7  -5   3    0.26    0.70
   7  -5   3   -0.11    0.26
  -8   5  -3    1.82    0.47
  -8   5  -3    2.29    0.39
   8  -5   3    1.28    1.19
   8  -5   3    2.31    0.45
   8  -5   3    1.88    0.39
  -9   5  -3    0.76    0.44
   9  -5   3    0.38    0.36
   9  -5   3    1.39    1.10
  10  -5   3    3.26    0.61
  10  -5   3    1.90    1.53
   8   4  -3    2.45    0.86
   7   4  -3   -0.37    0.85
   7   4  -3    0.11    0.48
   7   4  -3    0.44    0.56
   6   4  -3    2.23    0.65
   6   4  -3    1.84    1.45
   6   4  -3    2.02    0.74
  -6  -4   3    4.43    2.32
   5   4  -3    0.72    0.53
   5   4  -3    0.27    0.43
   5   4  -3    0.61    0.82
   5   4  -3   -0.26    0.27
  -5  -4   3    0.03    0.54
   4   4  -3    5.91    1.91
   4   4  -3    7.34    0.97
   4   4  -3    6.64    1.00
  -4  -4   3    3.73    1.70
   3   4  -3  119.50    3.39
   3   4  -3  116.54    6.16
   3   4  -3  124.25    3.59
   3   4  -3  121.22    3.41
  -3  -4   3  114.85    7.38
  -3  -4   3  124.02    3.51
   2   4  -3   71.87    2.28
   2   4  -3   76.35    4.32
   2   4  -3   70.27    2.30
   2   4  -3   71.33    2.45
  -2  -4   3   73.92    2.38
  -2  -4   3   70.95    4.21
   1   4  -3   26.95    1.34
   1   4  -3   27.39    2.19
   1   4  -3   26.44    1.26
   1   4  -3   29.77    1.26
  -1  -4   3   26.79    2.16
  -1  -4   3   28.96    1.29
   0   4  -3  300.80    6.20
   0   4  -3  307.91    6.34
   0   4  -3  300.29    6.00
   0   4  -3  301.78    7.61
   0  -4   3  300.74    6.05
   0  -4   3  298.40    7.60
  -1   4  -3  109.74    3.47
  -1   4  -3  108.36    2.70
  -1   4  -3  106.40    2.48
  -1   4  -3  106.81    2.80
   1  -4   3  105.46    2.49
   1  -4   3  101.90    3.20
  -2   4  -3    7.97    0.52
  -2   4  -3    8.43    0.48
   2  -4   3    9.41    1.25
   2  -4   3    8.93    0.67
   2  -4   3    8.97    1.16
  -3   4  -3   20.12    0.95
  -3   4  -3   19.93    0.68
  -3   4  -3   19.16    0.71
   3  -4   3   18.58    0.92
   3  -4   3   18.91    1.70
   3  -4   3   18.73    1.70
  -4   4  -3    0.00    0.14
  -4   4  -3    0.16    0.22
  -4   4  -3    0.34    0.49
   4  -4   3    0.29    0.27
   4  -4   3    0.19    0.16
   4  -4   3    0.03    0.46
  -5   4  -3    5.62    0.58
  -5   4  -3    4.73    0.42
  -5   4  -3    6.47    1.75
   5  -4   3    4.51    1.50
   5  -4   3    5.13    0.44
   5  -4   3    5.14    0.59
  -6   4  -3    2.58    0.41
  -6   4  -3    3.50    0.45
   6  -4   3    2.51    0.43
   6  -4   3    0.60    0.69
   6  -4   3    2.95    0.39
  -7   4  -3   35.33    1.23
  -7   4  -3   36.78    1.32
   7  -4   3   38.22    5.08
   7  -4   3   36.92    1.33
   7  -4   3   36.74    1.28
  -8   4  -3   36.31    1.48
  -8   4  -3   36.44    1.36
   8  -4   3   37.18    1.33
   8  -4   3   35.46    1.40
   8  -4   3   40.52    6.42
  -9   4  -3    0.58    0.30
  -9   4  -3    0.77    0.48
   9  -4   3    1.55    0.39
   9  -4   3    0.88    0.42
   9  -4   3    1.63    1.46
  10  -4   3   15.94    4.16
  10  -4   3   15.37    1.13
   8   3  -3   -0.24    0.43
   8   3  -3    0.44    1.64
   8   3  -3   -0.12    0.78
   7   3  -3    6.30    1.02
   7   3  -3   10.01    1.31
   7   3  -3    7.30    2.74
  -7  -3   3    5.55    2.61
   6   3  -3   24.93    1.49
   6   3  -3   29.70    1.70
   6   3  -3   28.80    2.13
   6   3  -3   25.12    4.54
  -6  -3   3   21.89    4.36
   5   3  -3   37.03    1.70
   5   3  -3   37.94    1.82
   5   3  -3   37.23    1.80
   5   3  -3   36.78    5.08
  -5  -3   3   43.96    5.82
  -5  -3   3   35.29    1.84
   4   3  -3   10.56    1.12
   4   3  -3   10.69    2.77
   4   3  -3   10.10    0.85
   4   3  -3   11.34    1.26
  -4  -3   3   10.38    1.11
  -4  -3   3   13.19    2.83
   3   3  -3   72.32    4.56
   3   3  -3   73.09    2.25
   3   3  -3   70.63    2.34
   3   3  -3   68.55    2.24
  -3  -3   3   71.39    2.33
  -3  -3   3   66.23    4.38
   2   3  -3   88.18    2.45
   2   3  -3   87.72    4.46
   2   3  -3   93.29    2.61
   2   3  -3   89.86    2.47
  -2  -3   3   84.57    5.04
  -2  -3   3   88.22    2.49
   1   3  -3    1.42    0.41
   1   3  -3    0.68    0.29
   1   3  -3    1.05    0.61
   1   3  -3    1.94    0.41
  -1  -3   3    0.55    0.50
  -1  -3   3    0.81    0.31
   0   3  -3    4.78    1.00
   0   3  -3    6.77    0.71
   0   3  -3    5.71    0.58
   0  -3   3    8.52    0.81
   0  -3   3    5.94    0.59
   0  -3   3    6.10    1.14
  -1   3  -3    0.90    0.24
  -1   3  -3    0.16    0.24
  -1   3  -3    0.89    0.44
   1  -3   3    1.12    0.23
   1  -3   3    1.26    0.48
   1  -3   3    0.99    0.32
  -2   3  -3    4.86    0.28
  -2   3  -3    5.05    0.56
  -2   3  -3    4.97    0.31
   2  -3   3    7.59    1.32
   2  -3   3    4.48    0.51
   2  -3   3    4.80    1.06
  -3   3  -3    1.13    0.69
  -3   3  -3    0.45    0.12
  -3   3  -3    0.76    0.25
   3  -3   3    0.62    0.23
   3  -3   3    0.77    0.15
   3  -3   3    0.98    0.70
  -4   3  -3   73.66    1.64
  -4   3  -3   75.05    4.19
  -4   3  -3   74.99    1.90
   4  -3   3   68.22    4.11
   4  -3   3   78.15    1.63
   4  -3   3   73.61    1.95
  -5   3  -3   98.91    2.26
  -5   3  -3  100.18    2.37
  -5   3  -3  113.79    5.91
   5  -3   3   96.81    5.50
   5  -3   3  103.39    2.49
   5  -3   3  100.70    2.22
  -6   3  -3    0.96    0.32
  -6   3  -3    0.46    0.31
   6  -3   3    0.86    0.30
   6  -3   3    1.84    1.26
   6  -3   3    0.21    0.26
  -7   3  -3   23.93    1.04
  -7   3  -3   25.42    1.16
   7  -3   3   24.53    1.08
   7  -3   3   18.92    3.56
   7  -3   3   24.77    1.12
  -8   3  -3   19.68    0.99
  -8   3  -3   17.92    1.14
   8  -3   3   20.99    4.23
   8  -3   3   19.84    1.08
  -9   3  -3    0.71    0.38
  -9   3  -3    0.98    0.53
   9  -3   3    0.78    1.03
   9  -3   3    0.93    0.43
  10  -3   3    0.02    0.44
  10  -3   3    0.50    0.92
   9   2  -3    0.77    0.60
   9   2  -3    0.64    1.48
   8   2  -3    4.10    0.87
   8   2  -3    4.83    0.89
   8   2  -3    2.93    1.39
   8   2  -3    3.00    1.83
  -8  -2   3    3.99    2.56
   7   2  -3    6.67    1.00
   7   2  -3    9.40    1.88
   7   2  -3    8.35    1.11
   7   2  -3    8.45    2.70
  -7  -2   3   13.73    3.79
   6   2  -3    2.96    0.71
   6   2  -3    3.16    0.66
   6   2  -3    2.70    0.61
   6   2  -3    2.61    1.57
  -6  -2   3    2.51    0.69
  -6  -2   3    4.79    2.05
   5   2  -3   12.47    2.93
   5   2  -3   13.62    0.94
   5   2  -3   14.33    1.04
   5   2  -3   12.64    0.97
  -5  -2   3   18.90    3.58
  -5  -2   3   14.63    1.10
   4   2  -3  101.35    2.85
   4   2  -3   97.27    2.65
   4   2  -3  102.41    2.84
   4   2  -3   97.79    5.68
  -4  -2   3   96.09    2.86
  -4  -2   3   99.85    5.79
   3   2  -3   62.00    1.95
   3   2  -3   61.77    1.95
   3   2  -3   62.30    1.85
   3   2  -3   49.97    4.25
  -3  -2   3   59.36    3.89
  -3  -2   3   61.57    1.97
   2   2  -3    0.20    0.21
   2   2  -3   -0.47    0.26
   2   2  -3    0.52    0.25
   2   2  -3    0.34    0.26
  -2  -2   3    0.10    0.22
  -2  -2   3   -0.12    0.30
   1   2  -3   22.56    0.90
   1   2  -3   20.52    0.91
   1   2  -3   21.16    1.70
   1   2  -3   23.19    0.88
  -1  -2   3   22.38    0.89
  -1  -2   3   21.11    1.94
   0   2  -3   18.75    0.66
   0   2  -3   18.86    1.36
   0   2  -3   18.70    0.80
   0  -2   3   18.55    0.80
   0  -2   3   19.83    1.38
   0  -2   3   17.64    0.67
  -1   2  -3   17.75    0.75
  -1   2  -3   17.80    1.34
  -1   2  -3   17.44    0.50
   1  -2   3   16.10    1.26
   1  -2   3   16.66    0.50
   1  -2   3   16.84    0.73
  -2   2  -3   67.07    1.68
   2  -2   3   69.31    1.72
   2  -2   3   64.99    3.03
  -3   2  -3   41.54    1.23
  -3   2  -3   43.33    2.91
  -3   2  -3   43.35    0.99
   3  -2   3   42.59    1.27
   3  -2   3   42.32    0.96
   3  -2   3   39.53    2.84
  -4   2  -3   10.98    0.60
  -4   2  -3   10.78    0.53
  -4   2  -3   10.74    2.18
   4  -2   3   11.42    0.65
   4  -2   3   11.81    0.53
   4  -2   3   10.52    2.18
  -5   2  -3   22.32    0.91
  -5   2  -3   20.69    0.90
  -5   2  -3   25.71    3.83
   5  -2   3   21.17    0.86
   5  -2   3   19.80    0.93
   5  -2   3   23.19    4.04
  -6   2  -3   64.44    2.64
  -6   2  -3   58.04    4.87
  -6   2  -3   59.62    1.78
   6  -2   3   62.28    1.86
   6  -2   3   61.52    1.80
   6  -2   3   63.47    5.04
  -7   2  -3    3.80    0.56
  -7   2  -3    3.58    0.61
   7  -2   3    4.16    0.62
   7  -2   3    2.78    0.50
   7  -2   3    0.40    0.70
  -8   2  -3    7.44    0.98
  -8   2  -3    7.27    0.81
   8  -2   3    6.85    0.84
   8  -2   3    3.98    2.11
   8  -2   3    6.81    0.87
  -9   2  -3    0.85    0.56
  -9   2  -3    1.28    0.48
   9  -2   3    0.27    0.42
   9  -2   3    1.35    0.55
   9  -2   3    0.29    1.00
  10  -2   3    1.07    0.59
  10  -2   3    0.23    1.05
   9   1  -3    6.16    0.95
   9   1  -3    5.59    1.05
   9   1  -3    5.56    0.89
   9   1  -3    3.30    2.13
   8   1  -3   11.14    1.12
   8   1  -3    8.92    1.21
   8   1  -3   11.28    1.12
   8   1  -3   10.86    3.43
   7   1  -3   39.24    6.83
   7   1  -3   56.36    1.97
   7   1  -3   61.16    2.39
   7   1  -3   54.32    2.06
  -7  -1   3   58.63    7.38
   6   1  -3   42.52    1.85
   6   1  -3   43.31    1.74
   6   1  -3   44.60    5.86
   6   1  -3   44.50    1.63
  -6  -1   3   45.01    6.10
  -6  -1   3   44.66    2.49
   5   1  -3    9.45    0.76
   5   1  -3    9.79    1.02
   5   1  -3    9.39    2.39
   5   1  -3   10.43    1.05
  -5  -1   3    9.99    2.66
  -5  -1   3   11.23    0.90
   4   1  -3   38.51    3.39
   4   1  -3   43.60    1.69
   4   1  -3   42.43    1.41
   4   1  -3   45.18    1.62
  -4  -1   3   42.55    1.61
  -4  -1   3   47.98    6.01
   3   1  -3    1.05    0.31
   3   1  -3    2.08    0.42
   3   1  -3    1.39    0.86
   3   1  -3    1.98    0.37
  -3  -1   3    0.65    0.77
  -3  -1   3    2.59    0.46
   2   1  -3   65.96    3.39
   2   1  -3   65.76    1.69
   2   1  -3   65.90    1.64
   2   1  -3   63.03    1.71
  -2  -1   3   64.29    3.33
  -2  -1   3   67.36    1.75
   1   1  -3    2.03    0.32
   1   1  -3    2.10    0.69
   1   1  -3    1.57    0.28
  -1  -1   3    1.63    0.31
  -1  -1   3    2.47    0.81
  -1  -1   3    1.53    0.29
   0   1  -3  401.02    8.97
   0  -1   3  403.10    9.00
  -1   1  -3  324.93    5.68
   1  -1   3  322.54    5.67
   1  -1   3  262.00    8.28
  -2   1  -3    4.23    0.26
  -2   1  -3    6.15    1.33
  -2   1  -3    4.81    0.39
   2  -1   3    4.94    1.15
   2  -1   3    3.77    0.24
   2  -1   3    4.56    0.44
  -3   1  -3  249.78    4.70
  -3   1  -3  235.71    8.08
  -3   1  -3  262.76    4.90
   3  -1   3  257.25    4.69
   3  -1   3  242.97    8.14
   3  -1   3  253.72    4.91
  -4   1  -3  204.85    4.07
  -4   1  -3  197.89    7.90
  -4   1  -3  203.21    4.13
   4  -1   3  198.20    4.03
   4  -1   3  186.31    7.85
   4  -1   3  201.27    4.17
  -5   1  -3    6.76    1.98
  -5   1  -3    4.97    0.60
  -5   1  -3    6.26    0.67
   5  -1   3    4.90    0.58
   5  -1   3    6.60    2.02
   5  -1   3    5.69    0.65
  -6   1  -3   30.81    4.58
  -6   1  -3   27.37    1.27
  -6   1  -3   28.03    1.23
   6  -1   3   26.80    1.24
   6  -1   3   35.56    5.07
   6  -1   3   29.17    1.26
  -7   1  -3    3.81    0.69
  -7   1  -3    3.94    0.66
   7  -1   3    3.82    0.66
   7  -1   3    3.61    0.65
   7  -1   3    1.62    1.30
  -8   1  -3    0.38    0.40
  -8   1  -3    0.33    0.49
   8  -1   3   -0.11    0.36
   8  -1   3    0.59    0.47
   8  -1   3    0.08    0.73
  -9   1  -3    0.38    0.45
   9  -1   3    0.18    0.52
   9  -1   3    0.73    0.46
  10   0  -3   11.95    4.07
   9   0  -3    5.36    0.76
   9   0  -3    6.13    0.79
   9   0  -3    7.23    2.88
   9   0  -3    9.52    1.30
   8   0  -3    2.10    0.51
   8   0  -3    2.98    1.83
   8   0  -3    1.99    0.64
   8   0  -3    1.43    0.46
   7   0  -3    0.66    0.37
   7   0  -3    1.24    0.41
   7   0  -3    1.25    0.49
   7   0  -3   -0.14    0.40
  -7   0   3    1.58    0.57
  -7   0   3    0.73    1.15
   6   0  -3    2.70    0.59
   6   0  -3    3.98    1.80
   6   0  -3    2.48    0.48
  -6   0   3    3.44    0.69
  -6   0   3    4.92    1.92
   5   0  -3   12.95    2.64
   5   0  -3   15.35    0.96
   5   0  -3   14.89    0.79
   5   0  -3   15.58    0.73
  -5   0   3   15.07    3.03
  -5   0   3   16.06    0.99
   4   0  -3   16.74    0.74
   4   0  -3   18.48    2.93
   4   0  -3   17.75    0.92
   4   0  -3   15.63    0.68
  -4   0   3   22.49    3.13
  -4   0   3   17.16    0.91
   3   0  -3  157.63    3.41
   3   0  -3  154.89    3.09
   3   0  -3  157.97    3.15
   3   0  -3  156.72    6.05
  -3   0   3  157.88    6.10
  -3   0   3  157.99    3.42
   2   0  -3  292.73    5.36
   2   0  -3  296.05    7.93
  -2   0   3  287.81    7.87
  -2   0   3  303.30    5.38
   1   0  -3   19.93    0.65
   1   0  -3   22.43    1.76
   1   0  -3   19.65    0.63
  -1   0   3   19.91    0.64
  -1   0   3   20.71    0.65
  -1   0   3   20.60    1.46
   0   0  -3  164.19    3.02
   0   0  -3  166.49    4.61
   0   0  -3  161.85    3.15
   0   0   3  166.95    3.17
   0   0   3  163.23    3.02
   0   0   3  172.87    4.64
  -1   0  -3  509.96   11.13
   1   0   3  533.06   11.28
  -2   0  -3   46.28    1.22
  -2   0  -3   47.79    2.96
  -2   0  -3   47.56    1.33
   2   0   3   45.88    1.21
   2   0   3   47.72    1.33
   2   0   3   43.51    2.83
  -3   0  -3   54.94    1.55
  -3   0  -3   49.53    1.45
   3   0   3   44.82    3.32
   3   0   3   52.89    1.52
   3   0   3   50.12    1.44
  -4   0  -3    1.92    1.10
  -4   0  -3    1.85    0.39
  -4   0  -3    1.94    0.41
   4   0   3    2.18    0.42
   4   0   3    2.52    0.44
   4   0   3    1.38    1.06
  -5   0  -3   42.44    1.56
  -5   0  -3   42.98    4.04
  -5   0  -3   43.48    1.60
   5   0   3   35.51    4.86
   5   0   3   39.81    1.52
   5   0   3   42.47    1.55
  -6   0  -3    2.99    0.61
  -6   0  -3    4.08    0.68
  -6   0  -3    2.69    1.57
   6   0   3    3.94    0.69
   6   0   3    3.27    1.63
   6   0   3    3.40    0.60
  -7   0  -3   13.89    1.58
  -7   0  -3   13.19    1.02
  -7   0  -3   11.72    3.32
   7   0   3   15.20    3.82
   7   0   3   12.83    1.02
   7   0   3   13.06    1.04
  -8   0  -3   33.57    2.48
   8   0   3   28.56    1.61
   8   0   3   26.12    5.08
   8   0   3   30.27    1.65
  -9   0  -3    1.61    0.63
   9   0   3    1.26    0.63
   9   0   3    0.30    0.99
  10  -1  -3    1.72    0.71
  10  -1  -3    3.05    2.43
   9  -1  -3    0.96    0.52
   9  -1  -3    1.77    1.60
   9  -1  -3    0.27    0.30
   9  -1  -3    0.61    0.34
   8  -1  -3    0.13    0.25
   8  -1  -3   -0.05    0.26
   8  -1  -3   -0.10    0.55
   8  -1  -3   -0.02    0.38
   7  -1  -3    7.56    0.93
   7  -1  -3    8.07    2.49
   7  -1  -3    6.24    0.53
   7  -1  -3    6.21    0.50
  -7   1   3    3.35    1.56
  -7   1   3    6.82    1.05
   6  -1  -3   17.54    0.68
   6  -1  -3   19.97    4.08
   6  -1  -3   18.27    0.75
   6  -1  -3   13.98    0.97
  -6   1   3   18.83    1.11
  -6   1   3   14.15    3.02
   5  -1  -3   17.63    0.65
   5  -1  -3   21.24    3.41
   5  -1  -3   17.14    0.60
   5  -1  -3   16.53    0.94
  -5   1   3   25.10    3.86
  -5   1   3   18.47    0.99
   4  -1  -3   92.13    2.36
   4  -1  -3   89.58    4.76
   4  -1  -3   92.99    1.86
   4  -1  -3   93.28    1.82
  -4   1   3   89.55    4.73
  -4   1   3   88.81    2.34
   3  -1  -3   -0.24    0.32
   3  -1  -3    0.04    0.11
   3  -1  -3   -0.07    0.10
   3  -1  -3    0.07    0.18
  -3   1   3    0.57    0.24
  -3   1   3    0.74    0.59
   2  -1  -3  347.22    8.69
  -2   1   3  360.89    6.24
  -2   1   3  360.10    8.78
  -2   1   3  363.28    6.55
   1  -1  -3   65.34    1.50
   1  -1  -3   66.00    2.60
   1  -1  -3   65.71    1.43
  -1   1   3   69.56    2.66
  -1   1   3   66.66    1.52
  -1   1   3   66.36    1.43
   0  -1  -3   22.42    0.73
   0  -1  -3   23.55    0.78
   0  -1  -3   24.03    1.61
   0   1   3   24.12    0.78
   0   1   3   22.64    0.73
   0   1   3   25.02    1.63
  -1  -1  -3    0.92    0.64
  -1  -1  -3    0.44    0.20
   1   1   3   -0.12    0.37
   1   1   3    0.17    0.17
   1   1   3    0.25    0.17
   1   1   3    0.56    0.22
  -2  -1  -3    1.20    0.31
  -2  -1  -3    0.68    0.27
  -2  -1  -3    1.22    0.70
   2   1   3    1.02    0.28
   2   1   3   -0.05    0.43
   2   1   3    1.05    0.28
  -3  -1  -3   14.58    0.83
  -3  -1  -3   16.11    0.85
  -3  -1  -3   14.74    2.53
   3   1   3   15.88    0.91
   3   1   3   16.09    0.83
   3   1   3   19.87    3.21
  -4  -1  -3   16.71    3.32
  -4  -1  -3   10.57    0.80
  -4  -1  -3   13.80    0.88
   4   1   3   14.00    2.91
   4   1   3   13.09    0.84
   4   1   3   10.91    0.79
  -5  -1  -3   26.89    1.37
  -5  -1  -3   26.44    1.33
  -5  -1  -3   28.36    4.34
   5   1   3   26.15    1.30
   5   1   3   34.21    5.23
   5   1   3   27.31    1.33
  -6  -1  -3    4.89    0.79
  -6  -1  -3    6.38    2.42
  -6  -1  -3    5.92    0.85
   6   1   3    5.13    0.76
   6   1   3    6.07    0.83
   6   1   3    1.16    1.22
  -7  -1  -3    1.33    0.66
  -7  -1  -3    0.74    1.15
  -7  -1  -3    1.35    0.52
   7   1   3    1.28    0.50
   7   1   3    0.83    0.50
   7   1   3    2.59    1.88
  -8  -1  -3    1.66    0.65
   8   1   3    0.35    0.46
   8   1   3    0.62    1.22
  -9  -1  -3    3.96    0.91
   9   1   3    2.64    2.04
   9   1   3    3.60    0.88
  10  -2  -3    1.91    0.70
  10  -2  -3    0.64    1.03
   9  -2  -3    0.60    1.12
   9  -2  -3    0.27    0.43
   8  -2  -3    1.65    1.24
   8  -2  -3    0.51    0.40
  -8   2   3    0.32    0.43
   7  -2  -3   31.92    4.67
   7  -2  -3   46.72    1.83
  -7   2   3   39.59    1.75
   6  -2  -3   43.11    3.94
   6  -2  -3   38.94    1.57
  -6   2   3   39.03    1.58
  -6   2   3   46.77    4.14
   5  -2  -3    0.03    0.17
   5  -2  -3    0.62    0.72
  -5   2   3    0.38    0.56
  -5   2   3    0.45    0.25
   4  -2  -3  168.01    6.46
   4  -2  -3  168.16    3.66
  -4   2   3  171.86    3.67
  -4   2   3  162.31    6.40
   3  -2  -3  223.26    4.41
   3  -2  -3  217.38    6.69
  -3   2   3  228.60    4.45
  -3   2   3  215.23    6.68
   2  -2  -3   13.17    0.48
   2  -2  -3   14.35    1.30
   2  -2  -3   13.04    0.62
  -2   2   3   14.23    1.65
  -2   2   3   12.48    0.48
  -2   2   3   13.65    0.63
   1  -2  -3   30.54    1.73
   1  -2  -3   34.30    1.00
   1  -2  -3   32.35    1.03
  -1   2   3   33.96    0.99
  -1   2   3   35.79    2.10
  -1   2   3   34.31    1.05
   0  -2  -3   12.31    0.66
   0  -2  -3   13.54    0.65
   0   2   3   13.69    0.65
   0   2   3   15.51    0.71
   0   2   3   15.34    1.41
   0   2   3   17.82    2.03
  -1  -2  -3    1.38    0.37
   1   2   3    2.25    0.94
   1   2   3    1.96    0.37
   1   2   3    1.67    0.35
   1   2   3    1.80    0.34
  -2  -2  -3    1.67    0.40
  -2  -2  -3    1.23    0.34
  -2  -2  -3    1.46    0.71
   2   2   3    1.86    0.92
   2   2   3    0.90    0.36
   2   2   3    1.71    0.39
  -3  -2  -3   62.72    1.98
  -3  -2  -3   56.99    1.94
  -3  -2  -3   54.86    4.06
   3   2   3   57.87    4.13
   3   2   3   58.13    1.91
   3   2   3   58.54    1.91
  -4  -2  -3   60.57    2.12
  -4  -2  -3   58.53    2.12
  -4  -2  -3   58.44    4.65
   4   2   3   61.90    4.79
   4   2   3   62.54    2.10
   4   2   3   59.88    2.08
  -5  -2  -3    2.29    0.61
  -5  -2  -3    3.64    1.80
  -5  -2  -3    1.41    0.54
   5   2   3    2.34    1.33
   5   2   3    3.64    0.69
   5   2   3    1.30    0.49
  -6  -2  -3   18.08    1.36
  -6  -2  -3   18.73    1.30
  -6  -2  -3   12.06    3.29
   6   2   3   16.01    3.67
   6   2   3   16.53    1.24
   6   2   3   17.98    1.27
  -7  -2  -3   18.39    4.46
  -7  -2  -3   25.11    1.58
   7   2   3   28.84    1.70
  -8  -2  -3    5.19    1.00
   8   2   3    0.94    1.43
  10  -3  -3   14.51    1.46
  10  -3  -3   17.61    4.46
   9  -3  -3   21.50    1.41
   9  -3  -3   18.46    5.15
   8  -3  -3    1.19    0.62
   8  -3  -3    1.81    1.43
  -8   3   3    2.56    0.62
   7  -3  -3   44.74    4.30
   7  -3  -3   43.65    1.74
  -7   3   3   42.06    1.74
   6  -3  -3  143.53    3.50
   6  -3  -3  135.57    6.90
  -6   3   3  145.01    7.14
  -6   3   3  141.63    3.50
   5  -3  -3    8.08    0.64
   5  -3  -3    8.46    2.03
  -5   3   3    9.05    0.67
   4  -3  -3   45.83    2.98
   4  -3  -3   49.05    1.53
  -4   3   3   47.57    3.08
  -4   3   3   47.58    1.52
   3  -3  -3   20.26    1.69
   3  -3  -3   20.00    0.66
  -3   3   3   18.42    1.66
  -3   3   3   19.25    0.64
  -3   3   3   21.97    0.91
   2  -3  -3   35.21    1.89
   2  -3  -3   39.58    1.26
   2  -3  -3   37.68    1.11
  -2   3   3   38.91    1.24
  -2   3   3   38.04    1.97
  -2   3   3   39.26    1.11
   1  -3  -3   19.36    0.84
   1  -3  -3   20.23    0.88
  -1   3   3   21.08    0.87
  -1   3   3   18.58    0.82
  -1   3   3   17.90    1.37
   0  -3  -3   64.04    1.86
   0   3   3   65.91    1.90
   0   3   3   63.94    1.85
   0   3   3   63.95    3.04
   0   3   3   66.43    1.82
   0   3   3   59.44    2.96
  -1  -3  -3  193.60    6.84
  -1  -3  -3  201.57    4.43
   1   3   3  200.07    4.38
   1   3   3  192.46    6.76
   1   3   3  204.30    4.42
   1   3   3  199.11    4.28
  -2  -3  -3   34.95    1.48
  -2  -3  -3   34.17    1.46
   2   3   3   35.49    1.46
   2   3   3   31.67    2.89
   2   3   3   37.21    1.49
  -3  -3  -3   30.21    1.48
  -3  -3  -3   35.48    1.59
  -3  -3  -3   37.50    4.66
   3   3   3   32.20    1.48
   3   3   3   32.17    1.49
   3   3   3   32.90    4.16
  -4  -3  -3   81.90    5.79
  -4  -3  -3   70.83    2.52
  -4  -3  -3   75.83    2.64
   4   3   3   76.57    2.55
   4   3   3   80.83    5.67
   4   3   3   71.48    2.50
  -5  -3  -3   19.65    1.42
  -5  -3  -3   19.66    1.37
  -5  -3  -3   13.90    4.14
   5   3   3   19.75    4.07
   5   3   3   18.90    1.32
   5   3   3   20.48    1.33
  -6  -3  -3    0.16    0.45
  -6  -3  -3    0.15    1.27
   6   3   3    0.78    0.50
   6   3   3    3.86    1.72
  -7  -3  -3    5.75    1.01
   7   3   3    4.16    0.91
   7   3   3    6.12    2.53
  -8  -3  -3   -0.28    0.50
  10  -4  -3    0.53    0.52
  10  -4  -3    0.83    1.38
   9  -4  -3    3.66    1.77
   9  -4  -3    4.79    0.85
   8  -4  -3   10.54    1.07
   8  -4  -3   11.14    2.99
  -8   4   3   12.25    1.37
   7  -4  -3    3.33    1.42
   7  -4  -3    3.36    0.62
  -7   4   3    3.63    0.64
   6  -4  -3    1.27    0.77
   6  -4  -3    1.05    0.39
  -6   4   3    0.75    0.36
   5  -4  -3    1.53    0.41
   5  -4  -3    1.98    1.03
  -5   4   3    1.15    0.34
  -5   4   3    0.79    0.67
   4  -4  -3   23.66    1.05
  -4   4   3   22.91    0.72
  -4   4   3   23.45    1.04
  -4   4   3   23.72    0.79
  -4   4   3   25.41    2.04
   3  -4  -3  124.92    2.93
   3  -4  -3  125.94    2.70
   3  -4  -3  116.99    4.00
  -3   4   3  124.21    4.09
  -3   4   3  119.32    2.64
   2  -4  -3   87.56    3.06
   2  -4  -3   90.98    2.34
   2  -4  -3   88.27    2.24
  -2   4   3   87.36    2.21
  -2   4   3   95.68    3.08
  -2   4   3   86.35    2.71
   1  -4  -3   56.52    1.79
  -1   4   3   54.06    2.46
  -1   4   3   59.81    1.90
  -1   4   3   61.40    1.83
  -1   4   3   57.88    1.78
   0  -4  -3    0.48    0.30
   0   4   3    0.55    0.44
   0   4   3    1.13    0.36
   0   4   3    0.82    0.31
   0   4   3    0.47    0.31
   0   4   3    1.21    0.60
  -1  -4  -3   67.13    2.20
  -1  -4  -3   69.79    3.99
   1   4   3   66.94    3.90
   1   4   3   67.20    2.19
   1   4   3   65.50    2.09
   1   4   3   66.15    2.19
  -2  -4  -3   50.49    1.96
  -2  -4  -3   45.95    1.89
  -2  -4  -3   48.74    3.79
   2   4   3   42.06    1.80
   2   4   3   46.75    3.67
   2   4   3   48.01    1.88
  -3  -4  -3    2.23    0.61
   3   4   3    0.79    0.41
   3   4   3    6.01    2.02
   3   4   3    1.35    0.77
  -4  -4  -3    0.59    0.53
  -4  -4  -3    1.57    1.30
  -4  -4  -3    0.55    0.42
   4   4   3    1.14    1.12
   4   4   3    0.56    0.44
   4   4   3    1.87    0.56
  -5  -4  -3    0.43    0.46
  -5  -4  -3    1.45    1.37
   5   4   3    0.80    0.49
   5   4   3    2.00    1.45
  -6  -4  -3   -0.29    0.42
  -6  -4  -3   -0.21    0.94
   6   4   3    1.76    1.84
   6   4   3    0.63    0.55
  -7  -4  -3    0.05    0.51
  10  -5  -3   11.30    1.29
  10  -5  -3   16.24    3.94
   9  -5  -3    1.40    1.32
   9  -5  -3    1.03    0.52
   8  -5  -3    1.93    0.54
  -8   5   3    1.62    0.61
   7  -5  -3    4.16    0.67
   7  -5  -3    3.85    1.56
  -7   5   3    3.61    0.62
   6  -5  -3    0.88    0.35
   6  -5  -3    0.66    0.69
  -6   5   3    1.11    0.41
   5  -5  -3    2.69    0.92
   5  -5  -3    3.62    0.57
  -5   5   3    2.90    0.52
  -5   5   3    2.21    0.31
  -5   5   3    2.77    0.31
   4  -5  -3   21.95    1.09
   4  -5  -3   22.53    1.75
  -4   5   3   22.68    0.90
  -4   5   3   20.58    1.71
  -4   5   3   24.55    1.13
  -4   5   3   22.09    0.98
   3  -5  -3   48.54    2.52
   3  -5  -3   46.20    1.62
   3  -5  -3   43.06    1.50
  -3   5   3   45.75    1.47
  -3   5   3   44.23    1.58
  -3   5   3   47.26    2.03
   2  -5  -3   -0.23    0.19
   2  -5  -3    0.32    0.26
  -2   5   3    0.42    0.29
  -2   5   3   -0.04    0.28
  -2   5   3    0.21    0.23
  -2   5   3    0.00    0.22
   1  -5  -3   28.40    1.30
  -1   5   3   26.67    1.24
  -1   5   3   23.99    1.27
  -1   5   3   24.65    1.67
  -1   5   3   27.80    1.26
  -1   5   3   28.02    2.01
   0  -5  -3   99.53    2.88
   0   5   3   98.60    2.84
   0   5   3   97.40    2.78
   0   5   3   97.40    2.88
   0   5   3   94.79    4.24
   0   5   3   92.58    4.22
  -1  -5  -3   11.83    1.18
   1   5   3   18.88    2.86
   1   5   3   13.51    1.02
   1   5   3   13.78    0.98
   1   5   3   12.60    1.01
  -2  -5  -3    2.87    0.81
  -2  -5  -3    4.56    1.70
   2   5   3    1.78    0.51
   2   5   3    3.26    1.36
   2   5   3    3.52    0.73
   2   5   3    2.43    0.97
  -3  -5  -3    2.87    0.75
  -3  -5  -3    3.65    1.51
   3   5   3    2.72    1.58
   3   5   3    3.07    0.73
  -4  -5  -3    4.14    0.90
   4   5   3    4.37    1.88
   4   5   3    3.07    0.74
  -5  -5  -3    0.16    0.44
  -5  -5  -3   -0.03    0.86
   5   5   3    0.75    0.73
   5   5   3    0.13    0.75
  -6  -5  -3    0.33    0.59
  10  -6  -3    0.02    0.46
  10  -6  -3   -0.47    0.71
   9  -6  -3    0.31    0.72
   9  -6  -3    1.03    0.53
   8  -6  -3    0.34    0.68
  -8   6   3    1.40    0.51
   7  -6  -3   15.12    2.84
   7  -6  -3   13.10    1.03
  -7   6   3   12.54    0.99
   6  -6  -3   75.20    2.42
  -6   6   3   74.82    1.66
  -6   6   3   76.97    1.72
  -6   6   3   76.97    2.44
   5  -6  -3   22.99    1.92
   5  -6  -3   23.13    1.23
  -5   6   3   26.50    1.10
  -5   6   3   20.91    1.18
  -5   6   3   24.05    0.97
   4  -6  -3   23.97    1.24
   4  -6  -3   27.37    1.48
  -4   6   3   25.67    1.26
  -4   6   3   23.64    1.21
  -4   6   3   26.20    1.33
  -4   6   3   29.38    1.74
   3  -6  -3  122.35    3.12
   3  -6  -3  118.84    3.17
  -3   6   3  117.65    3.16
  -3   6   3  120.17    3.07
   2  -6  -3   57.09    2.05
  -2   6   3   58.54    2.03
  -2   6   3   60.65    2.08
  -2   6   3   58.85    2.19
   1  -6  -3   12.60    1.01
  -1   6   3   14.72    1.04
  -1   6   3   15.47    1.13
  -1   6   3   14.18    1.64
  -1   6   3   12.90    0.99
   0  -6  -3   21.05    1.33
   0   6   3   21.82    2.59
   0   6   3   22.25    1.38
   0   6   3   19.91    1.32
  -1  -6  -3    0.31    0.41
   1   6   3    0.18    0.54
   1   6   3   -0.09    0.36
  -2  -6  -3    9.16    1.22
   2   6   3    8.78    1.16
  -3  -6  -3    0.23    0.41
  -3  -6  -3    0.04    0.63
   3   6   3   -0.07    0.37
   3   6   3    0.51    0.96
  -4  -6  -3   17.62    2.31
  -4  -6  -3   17.93    5.81
   4   6   3   20.13    2.10
   4   6   3   25.46    4.48
  10  -7  -3    1.24    0.60
   9  -7  -3   12.28    2.84
   9  -7  -3   18.27    1.37
   8  -7  -3   11.07    1.14
   8  -7  -3   13.09    2.70
  -8   7   3   10.78    1.15
   7  -7  -3    2.33    1.23
  -7   7   3    2.18    0.60
   6  -7  -3   39.63    2.60
   6  -7  -3   39.37    1.73
  -6   7   3   35.08    1.98
  -6   7   3   37.86    1.26
  -6   7   3   38.65    1.43
   5  -7  -3   21.28    1.27
  -5   7   3   20.32    1.16
  -5   7   3   21.44    1.26
  -5   7   3   21.58    1.07
   4  -7  -3   -0.20    0.33
  -4   7   3    0.10    0.39
  -4   7   3    0.23    0.34
  -4   7   3    0.33    0.36
  -3   7   3    2.59    0.59
  -3   7   3    1.09    0.54
  -3   7   3    1.48    0.58
  -3   7   3    2.12    0.73
   2  -7  -3    0.83    0.46
  -2   7   3    1.07    0.49
  -2   7   3    1.62    0.54
   1  -7  -3   15.27    1.20
  -1   7   3   16.46    1.31
  -1   7   3   15.91    1.34
  -1   7   3   14.51    1.16
  -1   7   3   15.13    1.17
   0  -7  -3    0.06    0.38
   0   7   3    0.94    0.73
   0   7   3    0.44    0.50
  -1  -7  -3   24.27    1.65
   1   7   3   19.18    2.86
   1   7   3   28.19    1.73
  -2  -7  -3   21.78    1.65
   2   7   3   20.17    3.36
   2   7   3   25.36    1.70
  -3  -7  -3    1.42    0.72
   3   7   3    1.69    1.42
   3   7   3   -0.01    0.42
  10  -8  -3    0.26    0.56
  10  -8  -3    0.52    1.19
   9  -8  -3    0.03    0.89
   9  -8  -3    0.29    0.51
   8  -8  -3    5.45    1.50
   8  -8  -3    5.60    0.90
   7  -8  -3   10.67    1.14
   7  -8  -3   11.27    1.64
  -7   8   3   12.47    0.76
  -7   8   3   10.51    1.90
  -7   8   3   12.18    0.70
   6  -8  -3    2.77    0.68
  -6   8   3    2.62    0.52
  -6   8   3    2.75    0.59
  -6   8   3    3.72    0.75
  -5   8   3    0.35    0.44
  -5   8   3    0.26    0.38
  -5   8   3   -0.22    0.34
  -4   8   3    0.72    0.45
  -4   8   3    0.41    0.44
  -4   8   3    1.72    0.62
  -4   8   3    1.53    0.60
  -3   8   3    0.21    0.40
  -3   8   3    0.25    0.48
  -3   8   3    1.01    0.90
  -2   8   3    6.03    1.24
  -2   8   3    5.63    0.95
   1  -8  -3    4.73    0.88
  -1   8   3    3.88    0.79
   0  -8  -3   13.67    1.53
   0   8   3   12.32    1.42
   1   8   3    0.28    0.74
  -2  -8  -3    3.21    0.84
   2   8   3    2.50    0.76
   9  -9  -3    2.86    0.79
   9  -9  -3    3.39    1.44
   8  -9  -3    0.18    0.48
   7  -9  -3    5.98    0.99
  -7   9   3    4.64    0.70
  -7   9   3    3.92    0.64
  -6   9   3    0.09    0.46
  -6   9   3    0.00    0.50
  -6   9   3    0.30    0.50
  -5   9   3    1.84    0.70
  -5   9   3    1.03    0.74
  -5   9   3    3.64    0.86
  -4   9   3    0.48    0.56
  -4   9   3    0.34    0.51
  -4   9   3   -0.21    0.43
  -3   9   3   12.69    1.44
  -3   9   3   14.63    1.58
  -2   9   3   15.52    1.64
  -2   9   3   23.06    1.78
  -1   9   3    3.32    0.93
   0   9   3   10.59    1.52
   0   9   3    8.75    1.28
  -7  10   3   -0.02    0.59
  -7  10   3    0.05    0.46
  -6  10   3   13.23    1.49
  -6  10   3   12.22    1.39
  -6  10   3   10.99    1.30
  -5  10   3   12.57    1.48
  -5  10   3   12.15    1.52
  -4  10   3    0.34    0.56
  -3  10   3   12.42    1.55
  -3  10   3   12.89    1.60
  -2  10   3   12.89    1.60
  -2  10   3    8.79    1.44
  -5  11   3    4.59    1.45
  -4  11   3    1.18    0.78
  -2  11  -4    0.38    0.57
  -4  11  -4    4.89    1.00
  -4  11  -4    6.63    1.35
  -5  11  -4    0.18    0.68
  -5  11  -4    0.44    0.54
   0  10  -4    5.16    1.02
  -1  10  -4    4.41    1.13
  -2  10  -4    0.13    0.61
  -2  10  -4   -0.30    0.44
  -3  10  -4    0.10    0.64
  -3  10  -4    0.88    0.59
  -4  10  -4    0.54    0.51
  -4  10  -4    1.03    0.75
  -5  10  -4    0.40    0.54
  -5  10  -4    0.62    0.60
  -5  10  -4    0.19    0.53
  -6  10  -4    0.72    0.50
  -6  10  -4   -0.01    0.55
  -7  10  -4    3.14    0.84
  -7  10  -4    2.77    0.70
  -3  -9   4    0.19    1.21
  -2  -9   4    1.91    1.20
   1   9  -4    5.81    0.97
   1   9  -4    9.37    1.53
  -1  -9   4    9.05    1.94
   0   9  -4    8.72    1.58
   0   9  -4    6.76    1.06
  -1   9  -4    0.39    0.52
  -1   9  -4    0.35    0.52
  -2   9  -4    3.55    0.74
  -2   9  -4    3.64    0.92
  -3   9  -4   -0.28    0.39
  -3   9  -4    0.68    0.47
  -3   9  -4   -0.04    0.44
  -4   9  -4    0.22    0.38
  -4   9  -4   -0.04    0.47
  -4   9  -4   -0.11    0.39
  -5   9  -4    8.09    0.90
  -5   9  -4    7.54    1.15
  -5   9  -4    4.68    0.87
  -5   9  -4    7.47    0.86
  -6   9  -4    3.70    0.85
  -6   9  -4    4.18    0.64
  -6   9  -4    4.05    0.80
  -6   9  -4    3.51    0.64
  -7   9  -4    0.61    0.48
  -7   9  -4    0.34    0.37
  -7   9  -4    1.08    0.44
  -7   9  -4    0.89    0.55
  -8   9  -4    0.55    0.47
   8  -9   4    0.95    0.81
  -4  -8   4    0.43    1.41
   3   8  -4   11.61    1.75
   3   8  -4   12.58    1.55
  -3  -8   4   22.84    5.56
   2   8  -4    0.47    0.51
   2   8  -4   -0.16    0.79
   2   8  -4   -0.21    0.42
  -2  -8   4    1.07    1.03
   1   8  -4   10.95    1.47
   1   8  -4    5.59    1.51
   1   8  -4    9.19    1.20
  -1  -8   4   11.49    2.27
   0   8  -4    5.68    0.96
   0   8  -4    5.76    1.10
   0  -8   4    6.96    1.39
  -1   8  -4    1.51    0.66
  -1   8  -4    0.32    0.42
  -1   8  -4    0.50    0.43
  -2   8  -4    0.48    0.41
  -2   8  -4    0.06    0.38
  -2   8  -4    1.05    0.60
  -2   8  -4    1.51    0.74
  -3   8  -4   35.00    1.53
  -3   8  -4   31.38    1.83
  -3   8  -4   34.08    1.56
  -3   8  -4   32.15    1.73
  -4   8  -4   45.33    2.16
  -4   8  -4   52.18    1.86
  -4   8  -4   47.24    1.74
  -4   8  -4   47.42    2.46
  -5   8  -4    3.22    0.72
  -5   8  -4    3.34    0.74
  -5   8  -4    3.35    0.57
  -5   8  -4    1.73    0.43
  -6   8  -4   28.33    1.52
  -6   8  -4   26.90    1.47
  -6   8  -4   28.03    1.25
  -6   8  -4   28.40    1.22
   6  -8   4   26.82    2.39
  -7   8  -4   23.27    1.12
  -7   8  -4   29.42    1.44
  -7   8  -4   27.63    1.40
  -7   8  -4   29.06    1.19
   7  -8   4   29.29    2.76
   7  -8   4   30.99    2.83
  -8   8  -4    3.08    0.63
  -8   8  -4    2.23    0.51
  -8   8  -4    2.17    0.52
   8  -8   4    4.52    1.66
   8  -8   4    2.74    1.45
   9  -8   4    4.27    2.09
   4   7  -4    1.66    0.67
   4   7  -4    1.40    0.75
  -4  -7   4    4.04    2.01
   3   7  -4    1.79    0.76
   3   7  -4    0.57    0.54
   3   7  -4   -0.21    0.65
  -3  -7   4    1.78    1.24
   2   7  -4    9.81    1.39
   2   7  -4   10.13    1.22
   2   7  -4    6.85    1.90
  -2  -7   4   15.40    3.03
   1   7  -4    0.09    0.43
   1   7  -4    0.38    0.60
   1   7  -4   -0.32    0.32
  -1  -7   4   -0.34    0.35
  -1  -7   4   -0.16    0.45
   0   7  -4   20.01    1.43
   0   7  -4   19.37    1.48
   0   7  -4   16.25    1.18
   0   7  -4   21.25    2.61
   0  -7   4   22.02    2.11
  -1   7  -4   76.99    2.70
  -1   7  -4   70.46    2.41
  -1   7  -4   71.35    2.42
  -1   7  -4   76.29    2.39
  -2   7  -4    9.18    1.15
  -2   7  -4   11.18    1.05
  -2   7  -4   10.26    0.83
  -2   7  -4   11.39    1.22
  -3   7  -4   20.56    1.36
  -3   7  -4   20.15    1.27
  -3   7  -4   20.44    1.10
  -3   7  -4   17.73    0.99
  -4   7  -4   64.46    2.27
  -4   7  -4   69.15    2.43
  -4   7  -4   64.47    2.09
  -4   7  -4   67.72    2.02
  -5   7  -4    6.69    0.63
  -5   7  -4    6.78    0.85
  -5   7  -4    4.90    0.62
  -5   7  -4    6.60    0.84
   5  -7   4    7.34    1.35
   5  -7   4    6.85    1.31
  -6   7  -4    3.14    0.60
  -6   7  -4    2.08    0.38
  -6   7  -4    1.91    0.52
   6  -7   4    2.09    1.06
   6  -7   4    2.02    1.02
  -7   7  -4    0.13    0.34
  -7   7  -4   -0.10    0.32
  -7   7  -4    0.06    0.24
  -7   7  -4    0.13    0.30
   7  -7   4    0.65    0.76
   7  -7   4    1.02    0.91
  -8   7  -4    1.66    0.37
  -8   7  -4    1.55    0.43
   8  -7   4    4.01    1.72
   8  -7   4    0.43    0.90
   9  -7   4    0.27    0.89
   6   6  -4    1.67    0.86
   5   6  -4    0.33    1.05
   5   6  -4    0.40    0.52
  -5  -6   4   -0.19    0.84
   4   6  -4    0.73    0.57
   4   6  -4    0.52    0.91
   4   6  -4   -0.36    0.31
  -4  -6   4   -0.25    0.56
   3   6  -4    4.97    0.95
   3   6  -4    2.30    0.76
   3   6  -4    8.50    2.31
  -3  -6   4    4.91    1.83
   2   6  -4   15.27    1.46
   2   6  -4   19.39    1.85
   2   6  -4   18.19    3.11
   2   6  -4   16.12    1.56
  -2  -6   4   15.40    2.85
  -2  -6   4   16.00    1.55
   1   6  -4   25.44    1.40
   1   6  -4   28.14    3.27
   1   6  -4   25.41    1.49
  -1  -6   4   33.56    2.77
  -1  -6   4   27.33    1.51
   0   6  -4    8.50    0.94
   0   6  -4    8.21    1.05
   0   6  -4    8.16    1.09
   0   6  -4    4.82    1.11
   0  -6   4    8.57    1.57
   0  -6   4    6.49    0.85
  -1   6  -4   18.59    1.05
  -1   6  -4   17.71    0.97
  -1   6  -4   19.79    1.21
  -1   6  -4   17.01    1.23
  -1   6  -4   18.49    1.34
   1  -6   4   18.84    1.36
  -2   6  -4   51.07    1.92
  -2   6  -4   49.95    2.00
  -2   6  -4   53.06    1.72
  -2   6  -4   51.97    1.65
   2  -6   4   48.61    1.82
   2  -6   4   50.31    1.78
  -3   6  -4    4.05    0.53
  -3   6  -4    7.37    0.90
  -3   6  -4    5.79    0.60
  -3   6  -4    7.25    0.85
   3  -6   4    5.89    0.94
   3  -6   4    6.17    0.99
  -4   6  -4    7.48    0.66
  -4   6  -4    6.22    0.49
  -4   6  -4    7.19    0.84
   4  -6   4    6.21    1.32
   4  -6   4    7.35    1.38
  -5   6  -4    0.06    0.27
  -5   6  -4    0.56    0.27
  -5   6  -4    0.53    0.22
   5  -6   4    0.75    0.66
   5  -6   4    0.60    0.36
   5  -6   4    0.21    0.46
  -6   6  -4   -0.04    0.20
  -6   6  -4    0.20    0.28
   6  -6   4    0.45    0.36
   6  -6   4    0.89    0.70
   6  -6   4    0.31    0.63
  -7   6  -4    4.56    0.48
  -7   6  -4    5.38    0.67
   7  -6   4    4.86    0.47
   7  -6   4    4.56    0.83
  -8   6  -4    5.09    0.61
  -8   6  -4    4.57    0.52
   8  -6   4    6.40    2.20
   8  -6   4    6.50    0.56
  -9   6  -4    8.89    0.58
   9  -6   4   14.52    3.47
  10  -6   4   -0.50    0.79
   7   5  -4    1.50    0.74
   6   5  -4    2.75    1.75
   6   5  -4    3.01    0.86
   6   5  -4    2.64    0.86
  -6  -5   4   -0.26    0.84
   5   5  -4    0.78    0.60
   5   5  -4   -0.06    0.39
   5   5  -4    1.25    1.31
  -5  -5   4    0.17    0.72
   4   5  -4   27.59    1.65
   4   5  -4   29.53    1.84
   4   5  -4   33.95    5.00
  -4  -5   4   35.26    4.98
   3   5  -4   60.05    2.59
   3   5  -4   57.18    2.26
   3   5  -4   56.15    4.35
   3   5  -4   50.92    2.20
  -3  -5   4   58.43    2.38
  -3  -5   4   57.84    6.92
   2   5  -4    1.19    0.43
   2   5  -4    1.99    0.92
   2   5  -4    1.76    0.57
   2   5  -4    2.32    0.62
  -2  -5   4    2.51    1.18
  -2  -5   4    1.24    0.46
   1   5  -4   71.26    3.91
   1   5  -4   75.01    2.60
   1   5  -4   72.24    2.31
   1   5  -4   71.48    2.43
  -1  -5   4   78.07    4.06
  -1  -5   4   77.01    2.43
   0   5  -4  114.03    2.90
   0   5  -4  107.84    4.23
   0   5  -4  109.58    3.19
   0   5  -4  109.86    3.09
   0  -5   4  107.77    4.27
   0  -5   4  104.84    2.90
  -1   5  -4   32.34    1.49
  -1   5  -4   30.74    1.38
  -1   5  -4   32.79    1.25
  -1   5  -4   32.39    1.87
   1  -5   4   30.08    1.22
   1  -5   4   33.32    1.87
  -2   5  -4   25.78    0.97
  -2   5  -4   25.89    1.01
  -2   5  -4   24.57    1.25
   2  -5   4   24.11    1.23
   2  -5   4   24.55    1.59
   2  -5   4   24.97    1.90
  -3   5  -4   11.07    0.56
  -3   5  -4   11.23    0.61
  -3   5  -4   10.99    0.84
   3  -5   4   16.23    2.03
   3  -5   4   12.22    1.65
   3  -5   4   10.99    0.85
  -4   5  -4    3.41    0.57
  -4   5  -4    3.32    0.33
  -4   5  -4    2.97    0.36
   4  -5   4    4.77    1.37
   4  -5   4    3.24    1.05
   4  -5   4    2.90    0.52
  -5   5  -4    0.19    0.27
  -5   5  -4   -0.04    0.16
   5  -5   4    1.21    0.89
  -6   5  -4   14.82    0.85
  -6   5  -4   12.91    0.63
   6  -5   4   12.43    0.98
   6  -5   4   13.79    2.67
   6  -5   4   14.23    0.61
  -7   5  -4   29.91    1.20
  -7   5  -4   32.00    1.08
   7  -5   4   30.55    1.35
   7  -5   4   31.28    1.02
   7  -5   4   26.25    4.10
  -8   5  -4    0.95    0.33
  -8   5  -4    0.40    0.32
   8  -5   4    0.84    0.97
   8  -5   4    0.14    0.32
  -9   5  -4    1.38    0.43
  -9   5  -4    1.15    0.44
   9  -5   4    4.46    2.23
   9  -5   4    0.59    0.34
   9  -5   4    2.20    0.46
  10  -5   4   12.07    3.69
   8   4  -4   -0.06    0.55
   7   4  -4   13.62    4.12
   7   4  -4   12.21    1.52
   7   4  -4    9.97    1.35
   6   4  -4   37.63    2.06
   6   4  -4   43.61    2.21
   6   4  -4   39.17    6.01
  -6  -4   4   34.92    5.70
   5   4  -4    2.70    1.53
   5   4  -4    4.24    0.81
   5   4  -4    5.39    0.95
   5   4  -4    6.11    1.02
  -5  -4   4    4.29    1.95
   4   4  -4   15.37    1.15
   4   4  -4   17.62    1.30
   4   4  -4   14.88    3.12
   4   4  -4   14.25    2.01
  -4  -4   4   21.21    3.87
   3   4  -4  134.07    3.81
   3   4  -4  129.30    6.55
   3   4  -4  136.47    3.67
   3   4  -4  136.04    3.65
  -3  -4   4  134.70    3.73
   2   4  -4   13.20    2.43
   2   4  -4   10.87    0.87
   2   4  -4   12.95    0.92
   2   4  -4   12.56    1.24
  -2  -4   4   13.62    2.46
  -2  -4   4   15.28    1.34
   1   4  -4    9.01    0.98
   1   4  -4    7.79    1.55
   1   4  -4    9.61    1.02
   1   4  -4    8.43    0.83
  -1  -4   4    8.25    0.89
  -1  -4   4    6.14    1.49
   0   4  -4   40.47    1.37
   0   4  -4   39.02    1.58
   0   4  -4   39.23    1.50
   0   4  -4   37.55    2.30
   0  -4   4   38.90    1.38
   0  -4   4   38.49    2.30
  -1   4  -4   70.44    2.15
  -1   4  -4   72.34    2.96
  -1   4  -4   72.39    1.83
   1  -4   4   69.01    2.86
   1  -4   4   68.44    1.82
  -2   4  -4   35.56    1.01
  -2   4  -4   36.73    1.06
  -2   4  -4   38.10    1.43
   2  -4   4   33.73    2.04
   2  -4   4   34.73    2.12
   2  -4   4   36.92    1.40
  -3   4  -4   48.50    1.61
  -3   4  -4   47.90    1.12
  -3   4  -4   50.03    1.18
   3  -4   4   46.65    1.61
   3  -4   4   50.13    2.90
   3  -4   4   46.94    2.84
  -4   4  -4  128.02    2.52
  -4   4  -4  137.40    3.19
   4  -4   4  131.25    5.60
   4  -4   4  130.62    3.17
  -5   4  -4  108.99    2.28
  -5   4  -4  112.41    2.72
   5  -4   4  109.10    2.24
   5  -4   4  109.76    5.76
   5  -4   4  116.06    2.84
  -6   4  -4   11.96    0.75
  -6   4  -4   12.88    0.63
   6  -4   4   13.35    0.60
   6  -4   4   10.81    2.61
   6  -4   4   12.29    0.84
  -7   4  -4   42.29    1.38
  -7   4  -4   40.85    1.43
   7  -4   4   44.62    1.34
   7  -4   4   38.31    5.20
   7  -4   4   44.22    1.72
  -8   4  -4   30.99    1.25
  -8   4  -4   32.10    1.36
   8  -4   4   33.13    1.24
   8  -4   4   33.68    8.61
  -9   4  -4    0.58    0.45
  -9   4  -4    0.61    0.35
   9  -4   4    1.83    1.62
   9  -4   4    0.64    0.39
  10  -4   4    0.14    0.42
  10  -4   4    1.00    1.16
   8   3  -4    8.09    1.20
   8   3  -4    4.52    3.11
   7   3  -4    0.26    0.41
   7   3  -4    0.26    0.48
   7   3  -4    0.97    1.11
  -7  -3   4    0.80    1.32
   6   3  -4    7.93    1.07
   6   3  -4    8.24    2.66
   6   3  -4    6.27    0.97
  -6  -3   4   12.73    3.63
   5   3  -4   38.02    1.70
   5   3  -4   38.09    1.83
   5   3  -4   36.69    1.79
   5   3  -4   40.27    5.72
  -5  -3   4   47.89    5.83
  -5  -3   4   39.19    2.22
   4   3  -4   -0.51    0.23
   4   3  -4   -0.37    0.25
   4   3  -4    0.02    0.31
   4   3  -4    0.75    0.83
  -4  -3   4   -0.02    0.32
  -4  -3   4    0.77    0.71
   3   3  -4    6.63    0.85
   3   3  -4    9.23    1.00
   3   3  -4    6.86    1.98
   3   3  -4    5.78    0.79
  -3  -3   4    6.86    1.87
  -3  -3   4    6.03    0.80
   2   3  -4    4.87    1.51
   2   3  -4    5.02    0.67
   2   3  -4    3.71    0.61
   2   3  -4    5.24    0.72
  -2  -3   4    6.11    0.79
   1   3  -4    8.85    0.70
   1   3  -4    8.00    0.60
   1   3  -4   10.14    0.69
   1   3  -4   11.97    1.96
  -1  -3   4   10.52    1.86
  -1  -3   4    7.63    0.61
   0   3  -4   60.00    1.56
   0   3  -4   55.08    2.74
   0  -3   4   58.27    1.58
   0  -3   4   57.89    1.81
   0  -3   4   59.85    3.50
  -1   3  -4  136.51    4.49
  -1   3  -4  141.22    3.23
  -1   3  -4  141.65    2.79
   1  -3   4  137.07    4.37
   1  -3   4  138.56    2.80
   1  -3   4  139.53    3.22
  -2   3  -4   89.80    1.77
  -2   3  -4   89.80    1.74
  -2   3  -4   93.14    2.30
   2  -3   4   91.36    2.32
   2  -3   4   88.03    3.72
  -3   3  -4    5.93    0.60
   3  -3   4    6.95    1.63
   3  -3   4    6.58    1.47
   3  -3   4    4.93    0.57
  -4   3  -4  119.61    2.80
  -4   3  -4  117.91    2.31
  -4   3  -4  121.76    5.70
   4  -3   4  120.25    5.66
   4  -3   4  119.41    2.88
   4  -3   4  121.53    2.29
  -5   3  -4   15.31    0.96
  -5   3  -4   15.84    0.64
  -5   3  -4   16.83    2.91
   5  -3   4   14.13    0.58
   5  -3   4   13.92    0.82
   5  -3   4   15.28    2.93
  -6   3  -4    4.28    0.58
  -6   3  -4    3.67    0.47
   6  -3   4    3.18    0.54
   6  -3   4    4.63    0.48
   6  -3   4    2.92    1.63
  -7   3  -4   -0.03    0.27
   7  -3   4   -0.45    0.50
   7  -3   4   -0.29    0.29
   7  -3   4    0.47    0.28
  -8   3  -4    4.55    0.69
  -8   3  -4    5.50    0.72
   8  -3   4    5.16    0.73
   8  -3   4    4.49    0.61
   8  -3   4    4.17    1.91
  -9   3  -4    0.58    0.47
  -9   3  -4   -0.03    0.31
   9  -3   4   -0.11    0.95
   9  -3   4    0.67    0.41
   9  -3   4   -0.11    0.40
  10  -3   4    1.01    0.53
  10  -3   4    2.51    1.84
   9   2  -4    0.16    0.52
   9   2  -4   -0.25    1.15
   8   2  -4    5.85    2.76
   8   2  -4    4.63    0.86
   8   2  -4    3.41    0.77
   8   2  -4    4.83    1.04
  -8  -2   4    5.53    3.02
   7   2  -4   39.41    2.00
   7   2  -4   39.63    1.86
   7   2  -4   38.33    1.83
   7   2  -4   40.17    6.26
  -7  -2   4   38.56    6.03
   6   2  -4    2.60    0.62
   6   2  -4    3.57    0.66
   6   2  -4    4.55    1.92
   6   2  -4    3.59    0.70
  -6  -2   4    3.74    2.04
  -6  -2   4    3.52    0.83
   5   2  -4    0.59    0.33
   5   2  -4    0.83    0.43
   5   2  -4    0.02    0.43
   5   2  -4    0.54    0.34
  -5  -2   4   -0.08    0.50
  -5  -2   4    0.04    0.28
   4   2  -4   11.50    0.88
   4   2  -4   12.21    0.83
   4   2  -4   14.12    2.81
   4   2  -4   11.01    0.87
  -4  -2   4   12.54    2.59
  -4  -2   4   12.93    0.95
   3   2  -4    5.60    0.68
   3   2  -4    4.12    0.60
   3   2  -4    3.44    0.57
  -3  -2   4    5.12    1.53
  -3  -2   4    4.93    0.68
   2   2  -4    1.02    0.33
   2   2  -4    0.62    0.65
   2   2  -4    0.43    0.25
   2   2  -4    0.32    0.21
  -2  -2   4   -0.03    0.20
  -2  -2   4    0.40    0.52
   1   2  -4   75.33    2.04
   1   2  -4   78.24    3.54
   1   2  -4   77.34    1.91
  -1  -2   4   78.52    2.07
  -1  -2   4   76.78    1.93
   0   2  -4  275.99    5.48
   0   2  -4  277.77    7.20
   0   2  -4  282.63    5.16
   0  -2   4  284.44    5.51
   0  -2   4  279.29    7.16
   0  -2   4  278.10    5.17
  -1   2  -4   32.02    2.06
  -1   2  -4   32.64    0.74
  -1   2  -4   34.08    1.12
   1  -2   4   30.64    1.10
   1  -2   4   30.41    1.95
   1  -2   4   31.34    0.74
  -2   2  -4   48.62    1.44
   2  -2   4   50.25    1.47
   2  -2   4   47.90    2.81
  -3   2  -4  213.31    7.42
  -3   2  -4  220.04    4.42
  -3   2  -4  216.97    3.88
   3  -2   4  219.36    4.45
   3  -2   4  212.61    7.37
   3  -2   4  223.80    3.86
  -4   2  -4   53.81    1.32
  -4   2  -4   53.91    1.58
  -4   2  -4   54.42    3.89
   4  -2   4   53.20    1.63
   4  -2   4   52.73    1.28
   4  -2   4   48.79    3.67
  -5   2  -4    1.96    0.35
  -5   2  -4    0.81    0.32
   5  -2   4    2.14    1.38
   5  -2   4    1.25    0.35
   5  -2   4    1.60    0.30
  -6   2  -4    4.05    0.56
  -6   2  -4    5.04    1.97
  -6   2  -4    4.68    0.62
   6  -2   4    2.89    1.34
   6  -2   4    4.06    0.51
   6  -2   4    3.87    0.60
  -7   2  -4    4.19    0.65
  -7   2  -4    5.57    0.72
   7  -2   4    3.64    0.64
   7  -2   4    4.20    0.62
   7  -2   4    5.53    2.24
  -8   2  -4    0.62    0.40
  -8   2  -4    0.62    0.46
   8  -2   4    0.99    0.45
   8  -2   4    0.19    0.66
   8  -2   4    0.63    0.44
  -9   2  -4    1.16    0.50
  -9   2  -4    1.90    0.67
   9  -2   4    5.66    2.90
   9  -2   4    2.26    0.64
  10  -2   4    1.04    0.56
  10  -2   4    2.73    1.85
   9   1  -4    4.97    0.85
   9   1  -4    0.56    1.19
   9   1  -4    5.64    1.05
   8   1  -4    1.64    0.60
   8   1  -4    1.49    0.54
   8   1  -4    3.42    2.03
   8   1  -4    1.29    0.52
   7   1  -4    4.41    0.83
   7   1  -4    3.71    0.67
   7   1  -4    3.29    0.67
  -7  -1   4    5.93    2.41
   6   1  -4    3.68    0.68
   6   1  -4    4.34    0.66
   6   1  -4    1.60    1.42
   6   1  -4    3.32    0.75
  -6  -1   4    4.77    0.86
  -6  -1   4    3.36    1.80
   5   1  -4   14.69    1.00
   5   1  -4   17.26    0.96
   5   1  -4   26.00    4.41
  -5  -1   4   19.89    3.53
  -5  -1   4   13.81    1.01
   4   1  -4   29.67    1.14
   4   1  -4   36.54    4.52
   4   1  -4   31.57    1.34
   4   1  -4   29.39    1.36
  -4  -1   4   29.64    1.32
   3   1  -4  242.24    4.83
   3   1  -4  243.42    8.33
   3   1  -4  242.88    4.90
   3   1  -4  243.67    5.03
  -3  -1   4  243.11    5.38
  -3  -1   4  238.48    8.29
   2   1  -4  110.26    2.49
   2   1  -4  105.62    2.49
  -2  -1   4  104.76    2.50
  -2  -1   4  109.96    2.50
  -2  -1   4  107.30    4.56
   1   1  -4   27.00    1.94
   1   1  -4   27.44    0.87
   1   1  -4   26.74    0.95
  -1  -1   4   26.34    0.88
  -1  -1   4   28.82    1.98
  -1  -1   4   27.65    0.96
   0   1  -4  662.84   14.00
   0   1  -4  681.96   14.17
  -1   1  -4  176.62    3.13
  -1   1  -4  182.67    3.62
  -1   1  -4  172.20    5.47
   1  -1   4  177.09    3.13
   1  -1   4  179.41    3.62
   1  -1   4  185.23    5.61
  -2   1  -4   21.89    0.85
   2  -1   4   21.91    0.58
   2  -1   4   21.11    1.99
   2  -1   4   21.92    0.88
  -3   1  -4   32.49    0.95
  -3   1  -4   30.86    2.75
  -3   1  -4   36.44    1.19
   3  -1   4   32.71    1.17
   3  -1   4   34.47    2.89
   3  -1   4   33.37    0.95
  -4   1  -4    3.51    1.34
  -4   1  -4    1.61    0.38
  -4   1  -4    1.10    0.31
   4  -1   4    1.20    0.29
   4  -1   4    0.83    0.28
   4  -1   4    1.16    0.91
  -5   1  -4   17.96    0.97
  -5   1  -4   19.72    0.94
  -5   1  -4   17.34    3.28
   5  -1   4   17.02    3.24
   5  -1   4   16.00    0.85
   5  -1   4   18.66    0.99
  -6   1  -4    4.95    0.66
  -6   1  -4    5.09    2.24
  -6   1  -4    5.61    0.73
   6  -1   4    5.07    0.63
   6  -1   4    4.37    1.95
   6  -1   4    5.63    0.73
  -7   1  -4   21.51    1.27
  -7   1  -4   21.55    1.21
   7  -1   4   22.20    4.47
   7  -1   4   21.35    1.27
   7  -1   4   24.57    1.24
  -8   1  -4   22.06    1.30
  -8   1  -4   21.92    1.95
   8  -1   4   19.94    1.25
   8  -1   4   17.69    4.06
   8  -1   4   20.34    1.34
  -9   1  -4    0.17    0.44
   9  -1   4    0.59    1.30
   9  -1   4   -0.15    0.41
   9  -1   4    0.02    0.53
  10   0  -4    0.43    1.42
   9   0  -4    3.77    2.29
   9   0  -4    1.23    0.48
   9   0  -4    3.55    0.91
   9   0  -4    1.69    0.48
   8   0  -4    4.82    0.68
   8   0  -4    4.09    0.78
   8   0  -4    4.44    2.13
   8   0  -4    3.01    0.54
   7   0  -4    7.61    2.50
   7   0  -4    8.02    0.80
   7   0  -4    8.85    1.06
  -7   0   4   12.70    3.46
  -7   0   4    9.65    1.17
   6   0  -4   69.25    5.41
   6   0  -4   75.10    2.24
   6   0  -4   71.91    2.42
   6   0  -4   71.64    1.95
  -6   0   4   71.82    2.45
  -6   0   4   71.10    5.50
   5   0  -4   97.68    2.30
   5   0  -4   97.27    2.38
   5   0  -4  104.55    6.04
   5   0  -4   94.67    2.73
  -5   0   4   87.11    5.51
  -5   0   4  101.25    2.80
   4   0  -4    2.45    1.18
   4   0  -4    2.20    0.44
   4   0  -4    2.06    0.33
   4   0  -4    2.06    0.33
  -4   0   4    0.69    0.64
  -4   0   4    1.90    0.42
   3   0  -4  115.27    5.14
   3   0  -4  117.65    2.48
   3   0  -4  117.37    2.53
  -3   0   4  122.86    2.80
  -3   0   4  118.53    5.21
   2   0  -4  211.95    4.00
   2   0  -4  213.47    6.57
   2   0  -4  208.92    4.13
  -2   0   4  207.37    4.00
  -2   0   4  205.31    6.50
  -2   0   4  207.80    4.13
   1   0  -4   13.45    0.56
   1   0  -4   14.39    0.60
   1   0  -4   14.03    1.71
  -1   0   4   14.21    0.57
  -1   0   4   12.87    0.58
  -1   0   4   15.59    1.80
   0   0  -4   11.65    1.54
   0   0  -4   12.09    0.46
   0   0  -4   11.95    0.57
   0   0   4   12.74    0.59
   0   0   4   13.44    1.29
   0   0   4   12.78    0.47
  -1   0  -4    7.18    0.48
   1   0   4    7.08    0.49
   1   0   4    6.53    1.31
   1   0   4    6.37    0.36
   1   0   4    6.43    0.35
   1   0   4    7.02    1.36
  -2   0  -4   69.00    3.84
  -2   0  -4   70.76    1.66
  -2   0  -4   71.31    1.85
   2   0   4   70.49    1.66
   2   0   4   70.56    1.84
   2   0   4   70.60    3.84
  -3   0  -4    4.63    0.52
  -3   0  -4    4.40    0.56
  -3   0  -4    3.57    1.35
   3   0   4    5.12    1.63
   3   0   4    4.56    0.48
   3   0   4    5.46    0.62
  -4   0  -4   92.86    2.48
  -4   0  -4   93.10    5.56
  -4   0  -4   83.97    2.31
   4   0   4   89.88    2.46
   4   0   4   92.05    2.35
   4   0   4  101.77    5.73
  -5   0  -4   41.86    1.62
  -5   0  -4   39.92    5.14
  -5   0  -4   42.02    1.59
   5   0   4   39.76    1.58
   5   0   4   45.72    5.76
   5   0   4   41.52    1.54
  -6   0  -4   29.69    1.45
  -6   0  -4   31.82    1.47
  -6   0  -4   32.20    5.72
   6   0   4   29.16    1.43
   6   0   4   30.98    1.42
  -7   0  -4   18.37    1.48
  -7   0  -4   18.44    1.24
  -7   0  -4   12.77    4.48
   7   0   4   18.47    1.20
   7   0   4   23.91    4.62
   7   0   4   17.01    1.22
  -8   0  -4   14.91    1.21
   8   0   4   14.99    1.20
   8   0   4   10.94    3.25
   8   0   4   14.62    1.41
  -9   0  -4    2.30    0.66
   9   0   4    1.06    1.72
   9   0   4    0.62    0.56
  10  -1  -4    1.79    0.74
  10  -1  -4    1.98    2.02
   9  -1  -4    0.55    1.05
   9  -1  -4    2.18    0.39
   9  -1  -4    1.92    0.38
   9  -1  -4    2.76    0.76
   8  -1  -4   12.68    0.70
   8  -1  -4   10.87    0.64
   8  -1  -4   12.21    1.33
   8  -1  -4    9.67    2.86
   7  -1  -4   11.93    1.17
   7  -1  -4   12.45    3.19
   7  -1  -4   14.96    0.71
   7  -1  -4   12.12    0.62
  -7   1   4   15.35    1.37
  -7   1   4   14.40    3.69
   6  -1  -4    5.55    0.40
   6  -1  -4    4.42    0.42
   6  -1  -4    4.43    0.66
  -6   1   4    5.21    0.72
  -6   1   4    4.86    1.85
   5  -1  -4   59.22    1.43
   5  -1  -4   59.40    1.94
   5  -1  -4   59.62    4.32
   5  -1  -4   58.85    1.37
  -5   1   4   61.49    4.37
  -5   1   4   63.12    1.99
   4  -1  -4   38.73    0.98
   4  -1  -4   40.33    1.40
   4  -1  -4   35.81    3.00
   4  -1  -4   38.75    0.94
  -4   1   4   39.45    3.17
  -4   1   4   38.88    1.56
   3  -1  -4   41.22    1.29
   3  -1  -4   38.48    0.95
   3  -1  -4   40.72    2.79
  -3   1   4   37.99    1.25
  -3   1   4   37.70    0.96
  -3   1   4   40.61    2.80
   2  -1  -4    3.64    0.33
   2  -1  -4    4.26    1.02
   2  -1  -4    3.80    0.40
  -2   1   4    4.51    0.46
  -2   1   4    3.81    0.34
  -2   1   4    3.59    0.96
   1  -1  -4    1.49    0.26
   1  -1  -4    1.63    0.27
   1  -1  -4    1.54    0.71
  -1   1   4    1.06    0.26
  -1   1   4    2.06    0.68
  -1   1   4    1.64    0.27
   0  -1  -4    8.53    0.46
   0  -1  -4    8.69    1.45
   0  -1  -4    8.97    0.52
   0   1   4    9.61    1.52
   0   1   4    8.82    0.47
   0   1   4    9.00    0.52
  -1  -1  -4   33.83    1.14
   1   1   4   34.36    1.14
   1   1   4   32.37    1.05
   1   1   4   35.32    2.46
   1   1   4   32.15    1.00
  -2  -1  -4   67.55    1.90
  -2  -1  -4   66.96    1.81
  -2  -1  -4   65.68    3.89
   2   1   4   69.76    1.81
   2   1   4   66.23    1.88
   2   1   4   65.58    3.86
  -3  -1  -4   50.12    1.65
  -3  -1  -4   46.83    1.56
  -3  -1  -4   46.34    3.69
   3   1   4   47.46    1.55
   3   1   4   46.74    3.68
   3   1   4   45.94    1.60
  -4  -1  -4    0.22    0.63
  -4  -1  -4    0.03    0.31
  -4  -1  -4    0.58    0.31
   4   1   4    1.52    0.95
   4   1   4    0.72    0.35
   4   1   4    0.61    0.33
  -5  -1  -4    8.49    2.74
  -5  -1  -4    9.44    1.00
  -5  -1  -4    9.91    1.01
   5   1   4   10.29    1.01
   5   1   4    7.39    2.32
   5   1   4   10.24    1.02
  -6  -1  -4   15.08    1.13
  -6  -1  -4   14.94    1.35
  -6  -1  -4   19.89    4.45
   6   1   4   10.96    1.12
   6   1   4   14.53    3.64
   6   1   4   16.44    1.19
  -7  -1  -4    2.74    1.97
  -7  -1  -4    5.49    0.92
  -7  -1  -4    3.94    1.02
   7   1   4    5.94    0.96
   7   1   4    5.62    0.90
   7   1   4    9.20    2.92
  -8  -1  -4   -0.24    0.41
   8   1   4    1.25    1.47
   8   1   4   -0.06    0.42
  -9  -1  -4    0.16    1.04
   9   1   4    0.84    1.24
   9   1   4   -0.01    0.58
  10  -2  -4   17.25    4.42
   9  -2  -4   13.77    3.70
   9  -2  -4   12.79    1.37
   8  -2  -4    0.45    0.90
   8  -2  -4    1.17    0.52
  -8   2   4    2.19    0.65
   7  -2  -4   59.89    5.14
   7  -2  -4   65.97    2.31
  -7   2   4   70.12    2.39
   6  -2  -4   68.70    2.18
   6  -2  -4   60.55    4.71
  -6   2   4   70.55    5.14
  -6   2   4   65.51    2.17
   5  -2  -4   -0.06    0.25
   5  -2  -4    0.91    0.93
  -5   2   4   -0.26    0.16
  -5   2   4    0.05    0.37
   4  -2  -4   23.82    2.30
   4  -2  -4   23.58    1.03
  -4   2   4   26.10    2.46
   3  -2  -4    4.68    0.26
   3  -2  -4    4.60    1.22
   3  -2  -4    4.96    0.60
  -3   2   4    5.51    1.31
  -3   2   4    4.68    0.54
  -3   2   4    4.35    0.28
   2  -2  -4   33.63    1.11
   2  -2  -4   33.81    0.94
   2  -2  -4   34.72    2.15
  -2   2   4   33.74    0.94
  -2   2   4   32.38    2.12
  -2   2   4   34.25    1.10
   1  -2  -4    0.40    0.37
   1  -2  -4   -0.04    0.18
   1  -2  -4    0.47    0.21
  -1   2   4   -0.01    0.17
  -1   2   4    0.08    0.37
  -1   2   4    0.30    0.19
   0  -2  -4  137.31    2.97
   0  -2  -4  137.47    3.03
   0   2   4  135.21    4.86
   0   2   4  143.01    2.99
   0   2   4  138.11    3.02
   0   2   4  129.84    4.76
  -1  -2  -4  232.35    4.84
   1   2   4  234.53    4.84
   1   2   4  224.82    7.41
   1   2   4  239.43    4.73
  -2  -2  -4    4.15    1.41
  -2  -2  -4    5.81    0.72
   2   2   4    5.16    0.66
   2   2   4    5.68    0.65
   2   2   4    5.57    1.56
  -3  -2  -4   59.43    1.99
  -3  -2  -4   60.73    4.41
  -3  -2  -4   60.76    2.03
   3   2   4   60.90    2.00
   3   2   4   61.13    1.98
   3   2   4   55.29    4.15
  -4  -2  -4  100.46    6.42
  -4  -2  -4  117.13    3.26
  -4  -2  -4  117.26    3.27
   4   2   4  125.27    3.25
   4   2   4  112.89    6.67
   4   2   4  113.90    3.21
  -5  -2  -4   13.19    3.28
  -5  -2  -4   11.65    1.21
  -5  -2  -4   11.42    1.20
   5   2   4   14.86    3.42
   5   2   4    9.76    1.04
   5   2   4    9.64    1.72
  -6  -2  -4    4.76    2.22
  -6  -2  -4    4.85    0.92
  -6  -2  -4    4.74    0.91
   6   2   4    4.77    0.85
   6   2   4    4.72    2.21
   6   2   4    4.16    0.85
  -7  -2  -4    0.93    0.54
   7   2   4    1.86    1.93
   7   2   4    1.77    0.61
  -8  -2  -4   -0.09    0.43
   8   2   4   -0.01    0.93
   8   2   4    0.34    0.53
  10  -3  -4    5.30    2.25
  10  -3  -4    5.58    0.99
   9  -3  -4   19.12    1.36
   9  -3  -4   13.15    4.36
   8  -3  -4    1.81    0.56
   8  -3  -4    2.17    1.41
  -8   3   4    1.06    0.52
   7  -3  -4    8.39    0.95
   7  -3  -4   12.30    2.97
  -7   3   4   10.97    1.08
   6  -3  -4    7.27    2.07
   6  -3  -4    8.02    0.84
  -6   3   4    7.44    2.15
  -6   3   4    6.04    0.73
   5  -3  -4   20.15    1.03
   5  -3  -4   23.42    3.25
  -5   3   4   19.90    1.02
  -5   3   4   19.38    3.04
   4  -3  -4    2.64    0.44
   4  -3  -4    2.05    0.84
  -4   3   4    3.30    0.49
  -4   3   4    2.49    1.05
   3  -3  -4  234.13    4.81
   3  -3  -4  235.88    6.93
   3  -3  -4  240.34    4.42
  -3   3   4  230.24    6.95
  -3   3   4  232.63    4.38
  -3   3   4  240.72    4.81
   2  -3  -4  212.90    4.38
   2  -3  -4  208.26    5.99
   2  -3  -4  213.73    4.20
  -2   3   4  214.15    4.19
  -2   3   4  206.41    5.99
  -2   3   4  216.56    4.38
   1  -3  -4   25.37    1.82
   1  -3  -4   25.09    0.99
   1  -3  -4   25.82    1.02
  -1   3   4   24.74    1.00
  -1   3   4   26.97    1.87
  -1   3   4   21.84    0.93
   0  -3  -4  158.96    3.69
   0   3   4  163.39    5.74
   0   3   4  163.40    3.70
   0   3   4  167.76    5.74
   0   3   4  168.48    3.78
   0   3   4  176.29    4.01
  -1  -3  -4  144.51    3.50
   1   3   4  141.80    5.86
   1   3   4  142.04    3.37
   1   3   4  145.82    3.48
   1   3   4  146.41    3.48
  -2  -3  -4   18.75    1.10
   2   3   4   18.67    1.06
   2   3   4   24.88    3.57
   2   3   4   19.78    1.04
   2   3   4   18.51    1.06
  -3  -3  -4   14.48    3.01
  -3  -3  -4   15.39    1.08
  -3  -3  -4   16.16    1.08
   3   3   4   14.34    1.01
   3   3   4   15.65    2.88
   3   3   4   13.77    1.00
  -4  -3  -4   15.53    1.19
  -4  -3  -4   17.30    1.81
  -4  -3  -4   17.32    3.55
   4   3   4   12.85    1.04
   4   3   4   15.89    3.36
   4   3   4   12.93    1.09
  -5  -3  -4   14.78    1.23
  -5  -3  -4   15.22    1.69
  -5  -3  -4   27.21    7.92
   5   3   4   11.75    2.99
   5   3   4   15.78    1.22
  -6  -3  -4    7.30    1.16
  -6  -3  -4    4.95    2.32
   6   3   4    5.27    0.93
   6   3   4    3.63    1.97
  -7  -3  -4    5.98    1.11
   7   3   4    3.38    2.17
  10  -4  -4    0.66    0.54
  10  -4  -4    2.31    1.98
   9  -4  -4    0.77    1.31
   9  -4  -4    2.04    0.62
   8  -4  -4    3.52    0.77
   8  -4  -4    1.60    1.40
  -8   4   4    3.33    0.69
   7  -4  -4    0.61    0.40
   7  -4  -4    3.13    1.50
  -7   4   4    0.75    0.41
   6  -4  -4   18.50    3.06
   6  -4  -4   15.10    0.97
  -6   4   4   15.14    0.97
   5  -4  -4   84.57    2.41
   5  -4  -4   89.69    4.66
  -5   4   4   79.76    4.44
  -5   4   4   83.66    2.40
   4  -4  -4    0.48    0.28
   4  -4  -4    0.61    0.71
  -4   4   4    0.49    0.25
  -4   4   4    0.17    0.14
   3  -4  -4   70.32    3.18
   3  -4  -4   73.99    1.85
   3  -4  -4   70.91    2.06
  -3   4   4   73.63    3.27
  -3   4   4   73.23    2.06
  -3   4   4   69.13    1.78
   2  -4  -4   74.64    2.12
   2  -4  -4   80.18    2.83
   2  -4  -4   73.23    3.11
  -2   4   4   75.33    2.01
  -2   4   4   73.27    3.07
  -2   4   4   74.35    2.11
   1  -4  -4   56.39    1.81
   1  -4  -4   57.07    1.82
  -1   4   4   56.20    2.81
  -1   4   4   57.73    1.81
  -1   4   4   57.93    2.85
  -1   4   4   57.63    1.82
   0  -4  -4   13.95    0.91
   0   4   4   16.25    2.21
   0   4   4   15.75    0.97
   0   4   4   20.18    2.52
   0   4   4   13.54    0.88
   0   4   4   14.01    0.86
  -1  -4  -4    0.01    0.26
   1   4   4    0.15    0.28
   1   4   4    0.27    0.29
   1   4   4    0.68    0.64
   1   4   4    0.08    0.24
  -2  -4  -4   11.00    2.51
  -2  -4  -4   11.34    1.18
   2   4   4   10.68    2.44
   2   4   4   12.61    1.15
   2   4   4   11.30    1.16
   2   4   4   11.08    1.11
  -3  -4  -4    0.96    0.49
  -3  -4  -4   -0.26    0.58
   3   4   4    1.59    1.22
   3   4   4    0.79    0.43
   3   4   4    0.30    0.41
  -4  -4  -4   11.15    1.31
  -4  -4  -4    8.53    2.62
   4   4   4    9.97    1.17
   4   4   4    6.01    2.11
  -5  -4  -4   12.12    1.42
  -5  -4  -4   16.26    3.99
   5   4   4   15.47    1.50
   5   4   4   10.44    3.04
  -6  -4  -4    2.65    2.01
  -6  -4  -4    4.31    1.22
   6   4   4    2.14    1.70
  10  -5  -4    0.61    0.55
  10  -5  -4    0.45    1.29
   9  -5  -4    0.42    0.47
   9  -5  -4    0.50    0.96
   8  -5  -4    0.70    0.41
  -8   5   4    0.34    0.40
   7  -5  -4   27.90    3.92
   7  -5  -4   27.82    1.42
  -7   5   4   27.69    1.42
   6  -5  -4   36.64    3.23
   6  -5  -4   39.52    1.64
  -6   5   4   40.52    1.66
   5  -5  -4    0.14    0.52
   5  -5  -4    0.65    0.36
  -5   5   4    0.01    0.25
  -5   5   4    0.70    0.22
  -5   5   4    0.46    0.18
   4  -5  -4  106.38    4.23
   4  -5  -4  110.14    2.90
  -4   5   4  103.39    4.25
  -4   5   4  104.34    2.83
  -4   5   4  112.59    2.50
   3  -5  -4   61.47    1.99
   3  -5  -4   57.88    1.78
   3  -5  -4   57.68    2.64
  -3   5   4   60.14    1.94
  -3   5   4   60.47    1.78
  -3   5   4   57.81    2.64
   2  -5  -4    7.02    0.83
   2  -5  -4    8.02    0.82
  -2   5   4    9.08    0.86
  -2   5   4    7.47    1.31
  -2   5   4    7.94    1.25
  -2   5   4    8.77    0.88
   1  -5  -4    9.38    0.79
  -1   5   4    9.43    0.94
  -1   5   4   10.60    1.54
  -1   5   4   10.83    1.06
  -1   5   4   10.21    1.58
  -1   5   4   10.33    0.78
   0  -5  -4    5.75    0.86
   0   5   4    4.77    1.37
   0   5   4    6.09    1.50
   0   5   4    6.19    0.84
   0   5   4    4.08    0.68
   0   5   4    6.54    0.80
  -1  -5  -4    1.29    0.47
   1   5   4    0.29    0.39
   1   5   4    1.16    0.47
   1   5   4    0.77    0.60
   1   5   4    1.04    0.44
  -2  -5  -4    1.01    0.48
   2   5   4   -0.15    0.40
   2   5   4    0.05    0.26
   2   5   4    0.42    0.37
   2   5   4    1.41    0.53
  -3  -5  -4    7.27    1.08
  -3  -5  -4    9.84    2.72
   3   5   4    9.27    1.12
   3   5   4    6.76    2.21
  -4  -5  -4   20.34    1.54
   4   5   4   21.20    1.52
   4   5   4   24.95    4.60
  -5  -5  -4   -0.16    0.64
  -5  -5  -4   -0.31    0.87
   5   5   4    1.40    1.18
   5   5   4    0.53    0.65
  10  -6  -4   10.88    1.28
  10  -6  -4    8.12    2.93
   9  -6  -4   32.17    1.73
   9  -6  -4   30.91    4.91
   8  -6  -4    2.76    0.65
   8  -6  -4    3.99    1.79
  -8   6   4    2.89    0.70
   7  -6  -4   20.89    1.28
   7  -6  -4   19.03    3.00
  -7   6   4   18.37    1.33
   6  -6  -4   38.24    3.09
   6  -6  -4   40.69    1.71
  -6   6   4   36.25    0.99
  -6   6   4   36.83    1.04
  -6   6   4   39.50    1.68
   5  -6  -4   41.00    2.68
   5  -6  -4   41.62    1.72
  -5   6   4   41.53    1.44
  -5   6   4   40.75    1.32
  -5   6   4   43.08    1.73
   4  -6  -4   18.24    1.09
   4  -6  -4   13.83    1.29
  -4   6   4   13.43    0.96
  -4   6   4   15.23    1.23
   3  -6  -4    9.75    0.98
   3  -6  -4    9.19    0.90
  -3   6   4    8.82    0.85
  -3   6   4    8.42    0.97
  -3   6   4    8.48    0.87
  -3   6   4    8.13    0.89
   2  -6  -4   11.49    1.11
  -2   6   4    8.84    1.29
  -2   6   4   10.81    1.17
  -2   6   4   12.51    1.11
  -2   6   4   11.60    0.93
  -2   6   4    9.56    1.00
   1  -6  -4   20.70    1.25
  -1   6   4   18.44    1.29
  -1   6   4   18.39    1.18
  -1   6   4   19.50    1.22
  -1   6   4   18.89    1.74
   0  -6  -4    9.43    1.12
   0   6   4    9.43    1.08
   0   6   4    9.05    1.02
   0   6   4   11.72    2.08
   0   6   4    7.83    1.31
  -1  -6  -4   71.22    2.71
   1   6   4   68.29    4.45
   1   6   4   77.58    2.77
  -2  -6  -4   24.55    1.60
   2   6   4   21.71    1.50
  -3  -6  -4    2.74    0.81
   3   6   4    2.87    1.62
   3   6   4    4.85    0.93
   4   6   4   21.96    4.28
   4   6   4   25.50    1.78
  10  -7  -4    1.02    0.67
   9  -7  -4    7.20    1.05
   9  -7  -4    8.15    2.46
   8  -7  -4    9.55    2.33
   8  -7  -4    6.47    0.97
   7  -7  -4    0.81    0.79
   7  -7  -4    0.66    0.43
  -7   7   4    0.47    0.43
   6  -7  -4    1.27    0.67
  -6   7   4   -0.04    0.36
  -6   7   4    0.62    0.30
  -6   7   4    0.04    0.29
   5  -7  -4    2.52    0.61
  -5   7   4    2.18    0.54
  -5   7   4    3.00    0.56
  -5   7   4    2.76    0.63
   4  -7  -4    8.49    1.02
  -4   7   4    4.07    0.74
  -4   7   4    6.63    0.91
  -4   7   4    6.78    0.82
   3  -7  -4    0.98    0.41
  -3   7   4    0.19    0.38
  -3   7   4    0.71    0.40
   2  -7  -4   75.53    2.62
  -2   7   4   79.20    2.84
  -2   7   4   73.51    2.73
  -2   7   4   74.26    2.61
   1  -7  -4   36.02    1.83
  -1   7   4   30.86    2.08
  -1   7   4   33.50    1.81
  -1   7   4   27.65    2.15
  -1   7   4   34.77    1.77
   0  -7  -4    0.51    0.46
   0   7   4    2.02    1.07
   0   7   4    2.01    0.67
  -1  -7  -4   12.54    1.39
   1   7   4   18.66    2.95
   1   7   4   18.91    1.45
  -2  -7  -4   12.19    1.48
   2   7   4   10.28    2.56
   2   7   4   15.63    1.65
  -3  -7  -4    0.86    0.57
   3   7   4   -0.32    0.35
   9  -8  -4    1.59    0.66
   9  -8  -4    1.09    0.98
   8  -8  -4    0.32    0.75
   8  -8  -4    0.54    0.44
   7  -8  -4    1.38    0.70
   7  -8  -4    1.06    0.58
  -7   8   4    0.21    0.30
  -7   8   4    0.32    0.27
   6  -8  -4    0.04    0.37
  -6   8   4    0.31    0.35
  -6   8   4    0.44    0.40
   5  -8  -4    1.91    0.60
  -5   8   4    2.18    0.57
  -5   8   4    1.67    0.52
  -4   8   4    8.71    1.17
  -4   8   4    8.99    1.11
  -4   8   4   11.36    1.16
  -3   8   4   10.03    1.17
  -3   8   4   10.05    1.25
   2  -8  -4    0.36    0.46
  -2   8   4    1.16    0.61
   1  -8  -4    4.00    0.84
  -1   8   4    4.15    0.83
   0  -8  -4   14.16    1.53
   0   8   4   13.28    1.49
  -1  -8  -4    1.21    0.63
   1   8   4    0.84    0.96
   1   8   4    0.34    0.48
   9  -9  -4    0.18    0.58
   8  -9  -4    1.05    0.61
   7  -9  -4    2.10    0.66
  -7   9   4    1.02    0.45
  -7   9   4    1.70    0.53
  -6   9   4   27.60    1.58
  -6   9   4   24.48    1.39
  -6   9   4   23.73    1.72
  -5   9   4   23.16    1.71
  -5   9   4   20.58    1.39
  -4   9   4    7.01    1.13
  -4   9   4    7.02    1.11
  -3   9   4   34.74    2.10
  -3   9   4   33.48    2.04
  -2   9   4   11.68    1.38
  -2   9   4   10.47    1.39
   1  -9  -4    1.53    1.16
  -1   9   4    2.76    0.90
   0  -9  -4    1.89    0.78
   0   9   4    4.08    1.00
  -8  10   4    6.05    1.15
  -7  10   4    0.65    0.70
  -7  10   4    0.50    0.51
  -6  10   4    9.80    1.29
  -6  10   4    6.90    1.11
  -6  10   4    7.63    1.59
  -5  10   4    6.30    1.14
  -4  10   4   -0.10    0.57
  -4  10   4   -0.25    0.54
  -3  10   4    1.20    0.75
  -3  10   4    0.74    1.24
  -2  10   4   -0.62    0.57
  -4  11   4    0.25    0.68
  -2  11  -5    0.64    0.68
  -3  11  -5    1.03    0.68
  -4  11  -5    1.15    0.64
  -4  11  -5   -0.22    0.63
  -5  11  -5    2.40    0.72
  -5  11  -5    3.35    1.02
   0  10  -5   -0.37    0.43
  -1  10  -5    1.23    0.76
  -1  10  -5    0.69    0.55
  -2  10  -5    1.27    0.69
  -2  10  -5   -0.33    0.42
  -3  10  -5   -0.22    0.70
  -3  10  -5    0.57    0.51
  -4  10  -5   10.73    1.51
  -4  10  -5    9.11    1.10
  -4  10  -5    9.27    1.11
  -5  10  -5    6.29    0.90
  -5  10  -5    4.02    1.07
  -5  10  -5    5.80    1.17
  -6  10  -5    2.79    0.90
  -6  10  -5    2.76    0.63
  -7  10  -5    0.40    0.62
  -3  -9   5    0.62    1.21
  -2  -9   5    1.09    1.28
   1   9  -5    0.87    0.68
   1   9  -5    0.41    0.51
  -1  -9   5    1.83    1.00
   0   9  -5   -0.38    0.43
   0   9  -5   -0.03    0.44
  -1   9  -5    1.00    0.52
  -1   9  -5    1.83    0.77
  -2   9  -5   12.48    1.27
  -2   9  -5   12.34    1.26
  -2   9  -5   13.02    1.63
  -3   9  -5   13.88    1.65
  -3   9  -5    9.74    1.13
  -3   9  -5   11.79    1.85
  -4   9  -5    6.85    0.83
  -4   9  -5    9.33    1.00
  -4   9  -5    9.67    1.25
  -5   9  -5    5.84    0.76
  -5   9  -5    6.61    0.78
  -5   9  -5    4.03    0.86
  -6   9  -5    9.13    0.84
  -6   9  -5    9.45    1.21
  -6   9  -5    9.38    1.12
  -6   9  -5    9.76    0.85
  -7   9  -5    4.74    0.88
  -7   9  -5    4.53    0.68
   7  -9   5    7.66    1.28
  -8   9  -5   -0.08    0.46
   8  -9   5    0.41    0.80
   8  -9   5    0.98    1.03
  -4  -8   5    0.27    1.25
   3   8  -5    0.49    0.51
   3   8  -5    0.77    0.69
  -3  -8   5    1.92    1.65
   2   8  -5    7.21    1.12
   2   8  -5    5.52    1.15
   2   8  -5    8.99    3.08
  -2  -8   5    7.57    2.68
   1   8  -5    0.20    0.51
   1   8  -5    0.26    0.72
   1   8  -5    0.69    0.46
  -1  -8   5    1.27    0.80
   0   8  -5   28.57    1.96
   0   8  -5   31.66    1.71
   0  -8   5   33.79    2.40
  -1   8  -5   62.43    2.59
  -1   8  -5   66.33    2.85
  -1   8  -5   66.61    2.38
  -2   8  -5    0.04    0.34
  -2   8  -5    0.28    0.45
  -2   8  -5    0.79    0.42
  -3   8  -5   55.06    2.43
  -3   8  -5   50.23    2.23
  -3   8  -5   52.08    1.93
  -3   8  -5   52.47    1.87
  -4   8  -5   23.80    1.82
  -4   8  -5   21.76    1.42
  -4   8  -5   22.52    1.18
  -4   8  -5   24.79    1.17
  -5   8  -5    0.71    0.34
  -5   8  -5    0.61    0.34
  -5   8  -5    1.03    0.51
  -6   8  -5    1.59    0.58
  -6   8  -5    1.64    0.38
  -6   8  -5    1.78    0.56
  -6   8  -5    3.20    0.73
   6  -8   5    2.16    0.87
   6  -8   5    2.83    1.04
  -7   8  -5    0.09    0.25
  -7   8  -5   -0.15    0.38
  -7   8  -5    0.69    0.48
  -7   8  -5    0.04    0.23
   7  -8   5    1.87    1.04
   7  -8   5    1.54    0.94
  -8   8  -5    1.51    0.51
   8  -8   5    3.37    1.61
   8  -8   5    4.50    1.73
   9  -8   5    0.23    1.00
   9  -8   5    1.00    1.08
   4   7  -5    0.06    0.51
   4   7  -5    0.20    0.45
  -4  -7   5   -0.04    0.89
   3   7  -5   17.45    1.92
   3   7  -5   18.41    3.53
   3   7  -5   19.09    1.48
  -3  -7   5   14.93    3.36
   2   7  -5   37.96    1.94
   2   7  -5   37.61    3.51
   2   7  -5   38.79    2.20
  -2  -7   5   39.21    3.58
   1   7  -5    5.86    0.91
   1   7  -5    4.60    0.92
   1   7  -5    2.87    1.16
  -1  -7   5    6.62    1.71
  -1  -7   5    5.02    0.91
   0   7  -5   38.20    1.75
   0   7  -5   36.59    2.00
   0   7  -5   36.55    2.58
   0   7  -5   38.51    2.08
   0  -7   5   40.43    2.72
  -1   7  -5   32.28    1.72
  -1   7  -5   32.65    1.53
  -1   7  -5   33.03    1.85
  -1   7  -5   32.80    1.47
  -1   7  -5   32.56    2.00
   1  -7   5   35.04    1.95
  -2   7  -5    0.10    0.33
  -2   7  -5    0.63    0.45
  -2   7  -5    0.64    0.37
  -3   7  -5    2.44    0.48
  -3   7  -5    2.57    0.54
  -3   7  -5    3.07    0.71
  -3   7  -5    2.57    0.67
  -4   7  -5    4.56    0.58
  -4   7  -5    3.21    0.69
  -4   7  -5    3.75    0.50
  -4   7  -5    2.02    0.63
   4  -7   5    3.78    0.92
   4  -7   5    2.16    0.69
  -5   7  -5   11.35    0.64
  -5   7  -5   10.49    0.67
  -5   7  -5   10.89    1.13
   5  -7   5    9.83    1.75
  -6   7  -5    0.70    0.26
  -6   7  -5    1.00    0.46
  -6   7  -5    0.90    0.27
   6  -7   5    0.78    0.73
  -7   7  -5   17.58    0.66
  -7   7  -5   15.51    0.61
  -7   7  -5   19.69    1.16
   7  -7   5   13.66    2.80
   7  -7   5   18.94    3.26
  -8   7  -5   20.68    1.11
   8  -7   5   24.58    4.17
   8  -7   5   27.19    4.42
   9  -7   5   -0.09    0.91
   9  -7   5    0.49    0.89
   6   6  -5    0.50    0.60
   5   6  -5    4.87    0.95
   5   6  -5    1.14    1.32
  -5  -6   5    0.69    1.24
   4   6  -5   16.60    3.57
   4   6  -5   17.25    1.78
   4   6  -5   13.08    1.44
  -4  -6   5   17.65    3.74
   3   6  -5    4.34    0.96
   3   6  -5    3.96    0.76
   3   6  -5    3.93    1.69
  -3  -6   5    4.39    1.75
   2   6  -5    0.51    0.45
   2   6  -5    1.26    0.96
   2   6  -5    0.06    0.42
   2   6  -5   -0.03    0.30
  -2  -6   5    0.73    0.69
  -2  -6   5    0.54    0.39
   1   6  -5   49.38    3.46
   1   6  -5   59.71    3.07
   1   6  -5   59.02    2.16
   1   6  -5   56.57    2.27
  -1  -6   5   57.55    3.74
  -1  -6   5   52.76    2.16
   0   6  -5    9.40    1.72
   0   6  -5   12.09    1.27
   0   6  -5   12.09    1.10
   0   6  -5    9.14    1.13
   0  -6   5    8.58    0.96
   0  -6   5    8.25    1.58
  -1   6  -5    7.00    0.78
  -1   6  -5    8.99    1.06
  -1   6  -5    6.54    0.94
  -1   6  -5    7.50    1.29
   1  -6   5    8.15    1.34
  -2   6  -5    2.25    0.44
  -2   6  -5    1.63    0.46
  -2   6  -5    1.83    0.56
   2  -6   5    2.78    0.79
   2  -6   5    1.67    0.62
  -3   6  -5    2.14    0.36
  -3   6  -5    1.87    0.40
  -3   6  -5    2.42    0.58
   3  -6   5    1.53    0.47
   3  -6   5    3.31    0.91
   3  -6   5    2.39    0.77
  -4   6  -5    1.06    0.26
  -4   6  -5    1.28    0.30
  -4   6  -5    1.49    0.47
   4  -6   5    1.23    0.70
   4  -6   5    1.32    0.46
   4  -6   5    1.00    0.71
  -5   6  -5   18.15    0.72
  -5   6  -5   17.37    0.66
  -5   6  -5   19.44    1.13
   5  -6   5   18.25    1.16
   5  -6   5   18.98    2.71
   5  -6   5   16.37    2.51
  -6   6  -5   15.31    0.57
  -6   6  -5   15.76    0.99
  -6   6  -5   15.90    0.61
   6  -6   5   14.47    1.06
   6  -6   5   15.92    2.80
   6  -6   5   15.21    2.76
  -7   6  -5    3.88    0.65
   7  -6   5    4.78    1.75
   7  -6   5    3.51    0.65
   7  -6   5    5.68    1.87
  -8   6  -5    0.83    0.39
   8  -6   5    0.49    0.78
   8  -6   5    0.31    0.41
  -9   6  -5    1.47    0.42
   9  -6   5    3.68    2.04
   7   5  -5   14.59    1.78
   6   5  -5   16.29    3.89
   6   5  -5   19.43    1.65
   6   5  -5   19.93    1.58
   5   5  -5   -0.36    0.43
   5   5  -5    0.60    0.48
   5   5  -5    0.95    1.18
  -5  -5   5    0.08    0.65
   4   5  -5   42.51    2.05
   4   5  -5   38.77    5.19
   4   5  -5   42.68    2.18
  -4  -5   5   39.77    6.59
   3   5  -5   74.07    5.00
   3   5  -5   69.96    2.54
   3   5  -5   69.34    2.72
   3   5  -5   68.27    2.55
  -3  -5   5   67.02    2.60
  -3  -5   5   71.66    5.15
   2   5  -5    1.99    0.57
   2   5  -5    1.66    0.55
   2   5  -5    1.38    0.49
   2   5  -5    3.41    1.34
  -2  -5   5    1.37    0.49
  -2  -5   5    2.37    1.15
   1   5  -5   23.21    3.05
   1   5  -5   17.05    1.03
   1   5  -5   15.16    1.15
   1   5  -5   16.84    1.11
  -1  -5   5   14.10    1.02
  -1  -5   5   22.00    3.01
   0   5  -5    0.59    0.37
   0   5  -5   -0.35    0.31
   0   5  -5   -0.32    0.22
   0   5  -5   -0.03    0.25
   0  -5   5   -0.05    0.41
   0  -5   5    0.04    0.25
  -1   5  -5   41.19    2.40
  -1   5  -5   39.33    1.38
  -1   5  -5   40.14    1.72
   1  -5   5   40.92    1.71
   1  -5   5   39.60    2.34
   1  -5   5   40.57    1.43
  -2   5  -5    1.07    0.28
  -2   5  -5    1.19    0.41
  -2   5  -5    0.93    0.26
   2  -5   5    2.18    0.88
   2  -5   5    1.57    0.60
   2  -5   5    0.59    0.36
  -3   5  -5   63.34    1.55
  -3   5  -5   66.01    2.13
  -3   5  -5   62.44    1.49
   3  -5   5   55.63    2.01
   3  -5   5   64.23    3.25
   3  -5   5   63.17    3.30
  -4   5  -5  108.44    2.14
  -4   5  -5  108.81    2.19
  -4   5  -5  106.61    2.89
   4  -5   5  106.70    2.94
   4  -5   5  108.36    5.05
   4  -5   5  104.98    4.95
  -5   5  -5    9.49    0.40
  -5   5  -5    8.90    0.37
  -5   5  -5    8.67    0.74
   5  -5   5   11.78    2.35
   5  -5   5   10.32    0.98
   5  -5   5   11.39    2.30
  -6   5  -5   32.43    1.33
  -6   5  -5   32.02    0.85
   6  -5   5   28.11    3.94
   6  -5   5   36.03    1.51
  -7   5  -5   43.93    1.56
  -7   5  -5   41.92    1.13
   7  -5   5   42.88    1.69
   7  -5   5   41.95    1.06
   7  -5   5   38.17    5.09
  -8   5  -5    4.13    0.61
  -8   5  -5    5.52    0.52
   8  -5   5    7.99    2.65
   8  -5   5    5.20    0.46
   8  -5   5    6.23    0.81
  -9   5  -5   -0.14    0.31
   9  -5   5    0.78    0.66
   9  -5   5    0.22    0.92
   9  -5   5   -0.01    0.25
   8   4  -5    0.92    0.76
   7   4  -5    8.52    1.22
   7   4  -5    4.79    2.16
   7   4  -5    6.53    1.12
   6   4  -5   20.27    1.53
   6   4  -5   18.72    1.50
   6   4  -5   18.44    4.00
  -6  -4   5   23.00    4.81
   5   4  -5    1.14    0.50
   5   4  -5   -0.05    0.35
   5   4  -5    1.48    0.61
   5   4  -5    0.24    0.65
  -5  -4   5    0.86    1.01
   4   4  -5    2.45    1.33
   4   4  -5    3.91    0.75
   4   4  -5    3.84    0.80
  -4  -4   5    2.77    0.73
  -4  -4   5    3.75    1.74
   3   4  -5    4.53    0.81
   3   4  -5    4.44    1.64
   3   4  -5    6.31    0.90
   3   4  -5    5.96    0.90
  -3  -4   5    4.88    0.82
   2   4  -5   32.66    2.93
   2   4  -5   37.16    1.61
   2   4  -5   39.22    1.73
   2   4  -5   40.58    1.60
  -2  -4   5   36.48    3.09
  -2  -4   5   36.00    1.58
   1   4  -5   10.27    0.92
   1   4  -5    9.69    1.89
   1   4  -5    7.79    0.91
   1   4  -5    9.29    0.96
  -1  -4   5   11.28    1.99
  -1  -4   5    9.82    0.91
   0   4  -5   88.03    2.63
   0   4  -5   95.75    2.35
   0   4  -5   84.27    3.84
   0  -4   5   90.44    2.67
   0  -4   5   92.97    2.38
   0  -4   5   88.22    3.87
  -1   4  -5  180.65    5.71
  -1   4  -5  182.64    3.70
  -1   4  -5  185.26    4.26
   1  -4   5  177.74    4.20
   1  -4   5  178.87    3.74
   1  -4   5  184.67    5.69
  -2   4  -5   73.54    1.66
  -2   4  -5   78.15    1.71
  -2   4  -5   73.86    2.23
   2  -4   5   82.41    3.66
   2  -4   5   75.51    3.45
   2  -4   5   73.97    2.49
  -3   4  -5   43.83    0.97
  -3   4  -5   42.60    1.55
  -3   4  -5   43.69    0.94
   3  -4   5   42.49    2.35
   3  -4   5   45.30    2.95
  -4   4  -5   87.01    2.40
   4  -4   5   81.06    5.21
   4  -4   5   90.40    4.82
  -5   4  -5   14.17    0.86
   5  -4   5   16.55    1.09
   5  -4   5   12.05    2.59
  -6   4  -5    0.43    0.21
  -6   4  -5    0.81    0.35
   6  -4   5    1.22    0.98
   6  -4   5    0.43    0.17
   6  -4   5    0.16    0.31
  -7   4  -5   -0.25    0.26
  -7   4  -5    0.27    0.26
   7  -4   5    0.23    0.21
   7  -4   5    0.03    0.74
   7  -4   5   -0.27    0.31
  -8   4  -5    4.83    0.59
  -8   4  -5    3.91    0.60
   8  -4   5    1.63    1.54
   8  -4   5    4.36    0.68
  -9   4  -5    1.96    0.53
  -9   4  -5    1.40    0.48
   9  -4   5    1.36    0.40
   9  -4   5    2.88    1.83
   9  -4   5    1.13    0.52
  10  -4   5    1.61    1.57
   8   3  -5    3.00    2.32
   8   3  -5    2.05    0.75
   7   3  -5    2.86    0.76
   7   3  -5    1.71    1.37
   7   3  -5    2.43    0.76
  -7  -3   5    2.14    1.82
   6   3  -5    3.20    1.74
   6   3  -5    2.93    0.72
   6   3  -5    3.74    0.77
  -6  -3   5    3.85    2.07
   5   3  -5    2.95    0.67
   5   3  -5    3.02    0.64
   5   3  -5    1.99    0.61
   5   3  -5    1.59    1.20
  -5  -3   5    4.22    1.76
   4   3  -5    1.90    1.20
   4   3  -5    1.53    0.52
   4   3  -5    3.25    0.64
   4   3  -5    3.19    0.67
  -4  -3   5    2.44    0.58
  -4  -3   5    0.58    0.95
   3   3  -5    9.76    2.17
   3   3  -5   11.25    0.90
   3   3  -5   13.14    0.91
   3   3  -5   11.01    0.84
  -3  -3   5   18.51    3.27
  -3  -3   5   12.37    0.93
   2   3  -5  102.17    2.70
   2   3  -5  102.90    2.74
   2   3  -5   96.55    4.88
   2   3  -5   99.81    2.82
  -2  -3   5  103.26    2.75
   1   3  -5   97.59    4.44
   1   3  -5  101.24    2.71
   1   3  -5   99.89    2.47
  -1  -3   5   98.57    2.50
  -1  -3   5  102.60    4.46
  -1  -3   5   92.65    2.92
   0   3  -5    1.42    0.35
   0   3  -5    1.45    0.68
   0   3  -5    1.65    0.31
   0  -3   5    1.74    0.37
   0  -3   5    0.83    0.27
   0  -3   5    1.18    0.60
  -1   3  -5   19.93    1.09
  -1   3  -5   21.94    1.84
  -1   3  -5   18.97    0.67
   1  -3   5   24.07    2.80
   1  -3   5   22.16    1.03
   1  -3   5   20.48    0.72
  -2   3  -5   97.73    1.76
  -2   3  -5   95.86    1.77
   2  -3   5   91.98    4.09
   2  -3   5   93.88    4.18
   2  -3   5   96.63    2.51
  -3   3  -5   11.54    0.77
   3  -3   5   13.22    2.23
   3  -3   5   16.02    2.55
   3  -3   5   13.22    0.79
  -4   3  -5    9.59    0.70
   4  -3   5    8.95    0.72
  -5   3  -5    0.74    0.20
  -5   3  -5    0.38    0.29
  -5   3  -5    0.56    0.73
   5  -3   5    0.70    0.18
   5  -3   5    0.49    0.91
  -6   3  -5    7.24    0.75
  -6   3  -5    5.33    0.52
   6  -3   5    7.14    0.78
   6  -3   5    6.22    2.23
   6  -3   5    4.59    0.45
  -7   3  -5    6.86    0.78
  -7   3  -5    7.56    0.70
   7  -3   5    8.40    0.85
   7  -3   5    6.22    2.11
   7  -3   5    9.97    0.98
  -8   3  -5   13.63    0.98
  -8   3  -5   14.65    0.98
   8  -3   5   16.12    3.97
   8  -3   5   12.66    1.04
   8  -3   5   13.13    0.85
  -9   3  -5    4.79    0.75
  -9   3  -5    4.76    0.74
   9  -3   5    5.74    0.73
   9  -3   5    9.18    3.32
   9  -3   5    4.85    0.81
   9   2  -5    0.34    0.49
   9   2  -5    0.87    1.34
   8   2  -5    0.30    0.49
   8   2  -5    0.39    0.95
   8   2  -5   -0.14    0.36
   8   2  -5    0.32    0.45
  -8  -2   5   -0.22    1.23
   7   2  -5    0.33    0.46
   7   2  -5    0.10    0.38
   7   2  -5    0.92    1.12
   7   2  -5    0.24    0.47
  -7  -2   5    0.12    1.03
   6   2  -5    0.64    0.43
   6   2  -5    0.27    0.37
   6   2  -5   -0.33    0.52
   6   2  -5    0.81    0.43
  -6  -2   5   -0.26    0.64
   5   2  -5    0.57    0.36
   5   2  -5   -0.04    0.31
   5   2  -5    0.07    0.62
   5   2  -5    0.69    0.42
  -5  -2   5   -0.49    0.50
  -5  -2   5    0.07    0.37
   4   2  -5   35.92    3.47
   4   2  -5   38.55    1.49
   4   2  -5   36.52    1.53
   4   2  -5   40.82    1.65
  -4  -2   5   35.57    4.47
  -4  -2   5   36.38    1.60
   3   2  -5  128.29    6.11
   3   2  -5  131.68    3.28
   3   2  -5  135.42    3.29
  -3  -2   5  133.42    3.32
  -3  -2   5  128.78    6.10
   2   2  -5   34.99    2.76
   2   2  -5   38.64    1.42
   2   2  -5   36.82    1.32
  -2  -2   5   38.39    2.85
  -2  -2   5   36.26    1.32
  -2  -2   5   36.67    1.39
   1   2  -5   63.14    1.86
   1   2  -5   65.51    3.38
   1   2  -5   63.86    1.69
  -1  -2   5   65.57    1.72
  -1  -2   5   64.71    1.86
   0   2  -5  248.51    5.01
   0   2  -5  244.38    4.59
   0   2  -5  248.32    7.10
   0  -2   5  244.97    4.62
   0  -2   5  245.29    5.00
  -1   2  -5   35.89    1.25
  -1   2  -5   37.70    0.82
  -1   2  -5   35.46    2.42
   1  -2   5   37.75    1.29
   1  -2   5   36.47    0.84
  -2   2  -5    0.80    0.27
   2  -2   5    0.60    0.28
   2  -2   5    0.50    0.65
  -3   2  -5   -0.13    0.20
   3  -2   5    0.14    0.19
   3  -2   5    0.00    0.47
  -4   2  -5    0.13    0.57
  -4   2  -5    0.48    0.29
  -4   2  -5    0.05    0.17
   4  -2   5    0.45    0.28
   4  -2   5   -0.17    0.53
   4  -2   5    0.27    0.16
  -5   2  -5    1.28    0.38
  -5   2  -5    0.47    0.64
  -5   2  -5    0.93    0.27
   5  -2   5    0.63    0.24
   5  -2   5   -0.73    0.42
   5  -2   5    0.63    0.32
  -6   2  -5    8.71    0.66
  -6   2  -5    9.52    0.93
   6  -2   5    6.58    2.10
   6  -2   5    9.76    0.96
   6  -2   5    8.17    0.67
  -7   2  -5   29.94    1.38
  -7   2  -5   27.40    1.29
   7  -2   5   28.71    1.44
   7  -2   5   28.08    1.20
   7  -2   5   25.09    4.62
  -8   2  -5   11.12    1.08
  -8   2  -5    8.11    0.95
   8  -2   5    9.00    3.04
   8  -2   5    9.88    1.09
   8  -2   5    8.90    0.90
  -9   2  -5    0.71    0.66
  -9   2  -5    0.29    0.45
   9  -2   5    0.71    0.45
   9  -2   5    0.57    0.82
   9  -2   5    2.08    1.82
   9   1  -5    3.72    0.86
   9   1  -5    3.82    2.55
   9   1  -5    3.79    0.82
   9   1  -5    2.87    0.70
   8   1  -5    0.82    0.43
   8   1  -5    0.07    0.39
   8   1  -5    0.53    0.43
   8   1  -5    1.60    1.78
   7   1  -5   18.20    1.33
   7   1  -5   17.76    1.15
   7   1  -5   18.14    1.11
  -7  -1   5   12.60    3.93
   6   1  -5  144.23    3.53
   6   1  -5  136.51    3.35
   6   1  -5  131.76    7.86
   6   1  -5  123.60    5.04
  -6  -1   5  132.41    7.92
  -6  -1   5  134.92    3.84
   5   1  -5   36.17    1.60
   5   1  -5   43.00    5.45
   5   1  -5   36.82    1.45
  -5  -1   5   37.75    4.91
  -5  -1   5   35.79    1.61
   4   1  -5   52.17    3.98
   4   1  -5   49.77    1.75
   4   1  -5   48.32    1.53
  -4  -1   5   45.94    1.72
  -4  -1   5   44.20    4.17
   3   1  -5  314.89    6.29
   3   1  -5  312.77    9.91
   3   1  -5  312.44    6.09
   3   1  -5  319.73    6.20
  -3  -1   5  325.15    6.38
  -3  -1   5  300.44    9.79
   2   1  -5   50.47    1.50
   2   1  -5   51.36    1.50
   2   1  -5   49.10    3.10
  -2  -1   5   48.32    1.46
  -2  -1   5   49.90    1.49
  -2  -1   5   47.84    3.09
   1   1  -5   28.83    1.04
   1   1  -5   29.06    0.93
   1   1  -5   25.44    2.04
  -1  -1   5   30.98    2.22
  -1  -1   5   27.89    0.93
  -1  -1   5   29.58    1.05
   0   1  -5   24.14    0.94
   0   1  -5   26.83    2.00
   0   1  -5   24.90    0.72
   0  -1   5   22.87    1.85
   0  -1   5   26.01    0.74
   0  -1   5   24.44    0.94
  -1   1  -5   22.02    2.70
  -1   1  -5   19.42    0.83
  -1   1  -5   17.69    0.50
   1  -1   5   17.64    0.49
   1  -1   5   18.40    0.82
   1  -1   5   20.28    1.84
  -2   1  -5   38.22    1.28
   2  -1   5   39.19    1.32
   2  -1   5   40.82    2.87
   2  -1   5   40.19    0.93
   2  -1   5   39.86    0.90
   2  -1   5   42.33    2.90
  -3   1  -5    0.12    0.15
  -3   1  -5    0.15    0.20
  -3   1  -5    0.30    0.40
   3  -1   5    0.07    0.44
   3  -1   5    0.39    0.23
   3  -1   5   -0.02    0.14
  -4   1  -5  194.94    8.33
  -4   1  -5  194.51    3.95
  -4   1  -5  192.82    4.25
   4  -1   5  194.04    3.92
   4  -1   5  195.84    4.34
   4  -1   5  193.54    8.29
  -5   1  -5   84.66    2.43
  -5   1  -5   82.73    2.23
  -5   1  -5   91.70    6.07
   5  -1   5   86.91    2.31
   5  -1   5   87.65    2.50
   5  -1   5   85.70    5.88
  -6   1  -5    1.61    0.50
  -6   1  -5    0.92    0.39
  -6   1  -5    1.73    1.32
   6  -1   5    0.85    0.41
   6  -1   5    0.76    0.34
   6  -1   5    0.48    0.88
  -7   1  -5   40.15    1.76
  -7   1  -5   45.45    1.80
   7  -1   5   44.09    1.69
   7  -1   5   41.36    1.83
   7  -1   5   33.74    5.57
  -8   1  -5   14.49    2.19
   8  -1   5   12.88    1.32
   8  -1   5   13.34    3.89
   8  -1   5   13.84    1.06
  -9   1  -5    0.39    0.44
   9  -1   5    0.28    0.45
   9  -1   5   -0.07    0.84
  10   0  -5    4.12    2.45
   9   0  -5   16.88    1.04
   9   0  -5   18.52    4.71
   9   0  -5   15.38    0.98
   8   0  -5    8.77    0.84
   8   0  -5    9.62    0.78
   8   0  -5   10.95    3.25
   8   0  -5    7.87    1.13
   7   0  -5    1.55    1.33
   7   0  -5   -0.03    0.28
   7   0  -5    0.30    0.32
   7   0  -5   -0.01    0.35
  -7   0   5   -0.36    0.66
  -7   0   5    0.81    0.49
   6   0  -5   17.05    3.45
   6   0  -5   14.10    0.79
   6   0  -5   14.79    0.89
   6   0  -5   16.42    1.11
  -6   0   5   13.17    1.03
  -6   0   5   16.46    3.61
   5   0  -5   13.03    2.72
   5   0  -5   13.57    0.75
   5   0  -5   12.85    0.90
   5   0  -5   13.72    0.71
  -5   0   5   12.96    2.78
  -5   0   5   13.49    0.93
   4   0  -5    7.00    2.03
   4   0  -5    4.89    0.48
   4   0  -5    4.04    0.48
   4   0  -5    4.29    0.57
  -4   0   5    3.93    0.58
  -4   0   5    3.85    1.39
   3   0  -5    7.40    0.49
   3   0  -5    5.85    1.49
   3   0  -5    7.09    0.56
  -3   0   5    7.20    0.50
  -3   0   5    7.88    0.58
   2   0  -5   60.62    1.56
   2   0  -5   60.94    3.36
   2   0  -5   60.97    1.64
  -2   0   5   64.11    1.66
  -2   0   5   66.61    3.48
  -2   0   5   60.99    1.58
   1   0  -5   39.37    1.11
   1   0  -5   43.16    2.56
   1   0  -5   39.70    1.17
  -1   0   5   40.75    1.12
  -1   0   5   40.89    2.48
  -1   0   5   39.88    1.17
   0   0  -5    8.71    0.43
   0   0  -5    8.47    0.54
   0   0  -5   12.09    2.00
   0   0   5    9.59    1.66
   0   0   5    8.88    0.43
   0   0   5    9.10    0.56
  -1   0  -5  297.76    5.76
  -1   0  -5  303.12    5.43
   1   0   5  303.40    5.79
   1   0   5  290.05    8.54
   1   0   5  299.34    5.42
  -2   0  -5  167.70    3.87
   2   0   5  159.41    6.30
   2   0   5  158.80    3.54
   2   0   5  162.97    3.20
   2   0   5  158.37    3.25
  -3   0  -5    5.19    0.54
  -3   0  -5    5.86    1.70
  -3   0  -5    5.90    0.71
   3   0   5    4.58    1.57
   3   0   5    4.85    0.49
  -4   0  -5   27.00    1.13
  -4   0  -5   27.29    4.11
  -4   0  -5   26.62    1.23
   4   0   5   31.57    4.44
   4   0   5   27.79    1.11
   4   0   5   27.27    1.24
  -5   0  -5   48.06    4.57
  -5   0  -5   54.60    1.84
  -5   0  -5   51.58    1.88
   5   0   5   55.06    1.81
   5   0   5   51.45    4.67
   5   0   5   52.28    1.90
  -6   0  -5   -0.22    0.29
  -6   0  -5    0.11    0.34
  -6   0  -5    0.05    0.68
   6   0   5    0.23    0.32
   6   0   5    0.26    0.34
   6   0   5   -0.16    0.54
  -7   0  -5    0.78    0.54
   7   0   5   -0.49    0.55
   7   0   5    0.16    0.33
   7   0   5    0.74    0.47
  -8   0  -5    1.55    0.65
   8   0   5    2.16    1.74
   8   0   5    1.52    0.54
  -9   0  -5    2.03    0.70
   9   0   5    3.72    2.70
   9   0   5    1.51    0.65
  10  -1  -5    7.53    1.23
  10  -1  -5    9.56    3.64
   9  -1  -5    0.65    0.27
   9  -1  -5    0.52    0.27
   9  -1  -5    0.62    0.51
   9  -1  -5    0.27    0.93
   8  -1  -5    7.97    0.55
   8  -1  -5    8.43    1.08
   8  -1  -5    7.03    2.59
   8  -1  -5    7.19    0.51
   7  -1  -5   38.60    5.68
   7  -1  -5   42.05    1.19
   7  -1  -5   44.36    1.26
   7  -1  -5   44.12    2.39
  -7   1   5   41.62    5.75
  -7   1   5   41.10    1.89
   6  -1  -5   21.91    0.79
   6  -1  -5   21.35    1.22
   6  -1  -5   20.31    0.74
  -6   1   5   19.22    1.19
  -6   1   5   23.83    4.96
   5  -1  -5   -0.17    0.15
   5  -1  -5    0.22    0.16
   5  -1  -5    1.13    0.97
   5  -1  -5    0.23    0.24
  -5   1   5    0.28    0.24
  -5   1   5    0.13    0.50
   4  -1  -5    3.77    0.34
   4  -1  -5    3.60    1.38
   4  -1  -5    3.27    0.50
   4  -1  -5    3.53    0.29
  -4   1   5    4.20    0.57
  -4   1   5    3.58    1.29
   3  -1  -5    1.76    0.26
   3  -1  -5    2.16    0.38
   3  -1  -5    1.51    0.82
  -3   1   5    2.38    0.39
  -3   1   5    2.65    0.93
  -3   1   5    1.80    0.26
   2  -1  -5    1.97    0.36
   2  -1  -5    2.72    0.99
   2  -1  -5    2.92    0.34
  -2   1   5    2.94    0.98
  -2   1   5    2.32    0.31
  -2   1   5    2.16    0.34
   1  -1  -5   98.25    2.20
   1  -1  -5  100.94    2.20
   1  -1  -5   94.42    3.96
  -1   1   5   92.71    3.91
  -1   1   5  100.60    2.21
  -1   1   5   99.25    2.19
   0  -1  -5  145.43    3.10
   0  -1  -5  143.49    5.25
   0  -1  -5  143.54    2.97
   0   1   5  147.67    3.11
   0   1   5  141.19    2.96
  -1  -1  -5   19.89    0.92
   1   1   5   24.32    2.89
   1   1   5   20.25    0.79
   1   1   5   22.08    0.93
   1   1   5   24.32    3.24
   1   1   5   19.71    0.83
  -2  -1  -5   15.50    0.86
   2   1   5   20.03    2.79
   2   1   5   13.23    0.73
   2   1   5   14.28    0.71
  -3  -1  -5   75.84    4.88
  -3  -1  -5   68.69    2.14
  -3  -1  -5   74.65    2.11
   3   1   5   72.35    2.04
   3   1   5   70.76    4.73
   3   1   5   68.87    2.13
  -4  -1  -5   44.01    1.66
  -4  -1  -5   43.88    1.73
  -4  -1  -5   47.90    4.31
   4   1   5   43.76    1.72
   4   1   5   47.22    1.67
   4   1   5   44.40    4.04
  -5  -1  -5    0.37    0.72
  -5  -1  -5    1.31    0.48
  -5  -1  -5    1.12    0.45
   5   1   5    0.92    0.40
   5   1   5    2.50    1.70
   5   1   5    0.38    0.35
  -6  -1  -5   -0.32    0.34
  -6  -1  -5    0.48    0.87
   6   1   5   -0.37    0.28
   6   1   5   -0.01    0.35
   6   1   5   -0.10    0.62
  -7  -1  -5    1.16    1.56
  -7  -1  -5    0.46    0.46
   7   1   5    1.22    1.48
   7   1   5    0.63    0.44
  -8  -1  -5    0.58    0.54
   8   1   5    0.34    1.18
   8   1   5    0.25    0.44
  10  -2  -5    7.36    1.13
  10  -2  -5    5.26    2.46
   9  -2  -5   12.36    3.68
   9  -2  -5   13.08    1.41
   8  -2  -5    0.35    0.42
   8  -2  -5    0.87    1.25
   7  -2  -5    1.82    1.25
   7  -2  -5    1.22    0.48
   6  -2  -5   15.03    1.01
   6  -2  -5   12.73    2.78
  -6   2   5   18.14    3.34
  -6   2   5   16.11    1.03
   5  -2  -5   16.04    2.89
   5  -2  -5   12.25    0.84
  -5   2   5   12.45    0.83
  -5   2   5   13.51    2.70
   4  -2  -5   18.81    0.52
   4  -2  -5   18.84    0.94
   4  -2  -5   21.86    3.06
  -4   2   5   17.69    0.55
  -4   2   5   20.45    0.96
  -4   2   5   23.18    3.04
   3  -2  -5  187.33    6.61
   3  -2  -5  204.04    4.20
   3  -2  -5  198.12    3.72
  -3   2   5  200.24    3.75
  -3   2   5  192.81    6.71
  -3   2   5  203.50    4.17
   2  -2  -5  176.75    3.54
   2  -2  -5  182.56    3.77
   2  -2  -5  173.08    5.77
  -2   2   5  181.08    5.89
  -2   2   5  179.81    3.55
  -2   2   5  183.31    3.75
   1  -2  -5    0.94    0.64
   1  -2  -5    0.49    0.21
   1  -2  -5    0.51    0.23
  -1   2   5    0.45    0.54
  -1   2   5    0.35    0.20
  -1   2   5    0.39    0.21
   0  -2  -5  202.46    4.21
   0  -2  -5  193.22    4.04
   0   2   5  197.67    4.13
   0   2   5  194.40    4.03
   0   2   5  195.60    6.47
  -1  -2  -5  221.58    4.63
   1   2   5  213.49    7.40
   1   2   5  213.53    4.53
   1   2   5  208.87    7.32
   1   2   5  214.01    4.43
  -2  -2  -5    1.62    0.40
  -2  -2  -5    3.28    1.35
   2   2   5    2.18    0.45
   2   2   5    1.75    0.41
   2   2   5    0.65    0.67
   2   2   5    0.76    0.34
  -3  -2  -5   47.45    1.76
  -3  -2  -5   53.37    4.26
  -3  -2  -5   50.46    1.86
   3   2   5   46.04    3.94
   3   2   5   48.26    1.80
   3   2   5   45.41    1.72
  -4  -2  -5   17.02    1.14
  -4  -2  -5   16.57    1.15
   4   2   5   18.17    3.41
   4   2   5   16.93    1.13
   4   2   5   18.02    1.11
  -5  -2  -5    3.15    0.94
  -5  -2  -5    1.90    1.43
  -5  -2  -5    2.89    0.80
   5   2   5    3.37    0.73
   5   2   5    2.09    0.57
   5   2   5    1.28    1.11
  -6  -2  -5    0.60    0.48
  -6  -2  -5    1.69    1.59
   6   2   5   -0.18    0.35
   6   2   5    2.03    1.53
  -7  -2  -5    8.26    3.48
  -7  -2  -5   15.27    1.66
   7   2   5   14.79    1.47
   7   2   5   11.92    3.46
  -8  -2  -5    7.81    1.26
   8   2   5    6.86    3.34
   8   2   5    6.84    1.11
  10  -3  -5    0.56    1.18
  10  -3  -5   -0.11    0.50
   9  -3  -5    6.07    2.75
   9  -3  -5    4.90    0.88
   8  -3  -5    8.76    2.83
   8  -3  -5    6.43    0.94
  -8   3   5    7.09    1.00
   7  -3  -5    5.66    0.80
   7  -3  -5   10.57    2.78
  -7   3   5    6.98    0.90
   6  -3  -5   46.35    1.78
   6  -3  -5   47.57    4.02
  -6   3   5   49.06    1.83
   5  -3  -5  118.00    5.94
   5  -3  -5  130.02    3.25
  -5   3   5  130.82    6.25
  -5   3   5  129.31    3.21
   4  -3  -5   42.13    3.03
   4  -3  -5   39.81    1.45
   4  -3  -5   40.96    0.96
  -4   3   5   40.14    1.45
  -4   3   5   40.34    0.98
  -4   3   5   37.79    2.90
   3  -3  -5  210.69    4.44
   3  -3  -5  200.72    6.61
   3  -3  -5  209.08    4.04
  -3   3   5  207.52    6.75
  -3   3   5  214.09    4.45
  -3   3   5  208.71    4.04
   2  -3  -5  131.23    2.90
   2  -3  -5  131.71    3.06
   2  -3  -5  126.45    4.75
  -2   3   5  128.49    4.79
  -2   3   5  132.23    2.89
  -2   3   5  140.77    3.38
   1  -3  -5    1.78    0.83
   1  -3  -5    2.91    0.44
  -1   3   5    3.21    0.94
  -1   3   5    3.16    0.74
  -1   3   5    2.68    0.44
   0  -3  -5   24.45    1.11
   0   3   5   21.48    1.08
   0   3   5   24.01    1.05
   0   3   5   20.75    2.55
   0   3   5   24.86    2.22
   0   3   5   22.11    1.05
  -1  -3  -5   12.96    0.89
   1   3   5   13.56    2.29
   1   3   5   13.54    0.89
   1   3   5   15.87    2.52
   1   3   5   12.65    0.86
   1   3   5   14.31    0.85
  -2  -3  -5   19.54    1.15
   2   3   5   23.77    3.54
   2   3   5   18.33    1.08
   2   3   5   18.13    1.08
   2   3   5   17.43    1.01
  -3  -3  -5    3.07    0.66
  -3  -3  -5    3.29    1.54
   3   3   5    5.19    2.51
   3   3   5    2.59    0.59
   3   3   5    3.36    0.61
   3   3   5    2.33    0.56
  -4  -3  -5   27.53    1.58
  -4  -3  -5   33.38    5.05
  -4  -3  -5   32.33    1.76
   4   3   5   30.17    1.62
   4   3   5   32.24    1.61
   4   3   5   31.74    4.68
  -5  -3  -5   47.16    6.22
  -5  -3  -5   50.70    2.25
   5   3   5   55.88    6.86
   5   3   5   52.41    2.21
  -6  -3  -5    0.66    0.50
  -6  -3  -5    1.43    1.68
   6   3   5    1.07    1.37
   6   3   5    0.76    0.47
  -7  -3  -5    1.68    0.74
   7   3   5    0.81    1.66
   7   3   5    1.36    0.72
  10  -4  -5    0.28    0.46
  10  -4  -5    2.39    1.73
   9  -4  -5    4.82    2.07
   9  -4  -5    2.37    0.67
   8  -4  -5   29.04    4.73
   8  -4  -5   20.16    1.32
  -8   4   5   18.14    1.29
   7  -4  -5   12.50    0.99
   7  -4  -5    9.88    2.52
  -7   4   5   12.70    1.19
   6  -4  -5    1.39    0.43
   6  -4  -5    0.24    0.61
  -6   4   5    1.07    0.43
   5  -4  -5   20.30    2.84
   5  -4  -5   17.21    1.01
  -5   4   5   17.96    1.03
  -5   4   5   19.56    2.91
   4  -4  -5   15.04    0.91
   4  -4  -5   15.51    0.65
   4  -4  -5   15.51    2.21
  -4   4   5   16.27    0.66
  -4   4   5   14.63    0.88
  -4   4   5   17.35    2.39
   3  -4  -5   22.71    1.95
   3  -4  -5   22.52    0.92
   3  -4  -5   24.36    1.12
  -3   4   5   24.87    1.97
  -3   4   5   22.00    1.06
  -3   4   5   21.92    0.89
   2  -4  -5    4.47    0.58
   2  -4  -5    4.35    0.54
   2  -4  -5    4.52    1.11
  -2   4   5    3.35    0.96
  -2   4   5    4.00    0.57
  -2   4   5    4.45    0.54
   1  -4  -5    9.44    0.90
   1  -4  -5    6.99    0.73
  -1   4   5    6.19    1.27
  -1   4   5    8.92    1.62
  -1   4   5    8.36    0.84
  -1   4   5    8.05    0.79
   0  -4  -5    1.10    0.41
   0   4   5    0.01    0.32
   0   4   5    0.86    0.37
   0   4   5    1.09    0.36
   0   4   5    0.67    0.33
   0   4   5    2.01    0.92
  -1  -4  -5    1.95    0.55
   1   4   5    2.49    0.54
   1   4   5    2.00    1.15
   1   4   5    1.39    0.44
   1   4   5    1.12    0.38
   1   4   5    2.35    1.09
  -2  -4  -5   47.44    1.99
   2   4   5   47.29    1.93
   2   4   5   46.11    1.90
   2   4   5   46.38    3.86
   2   4   5   47.01    1.85
  -3  -4  -5   20.99    1.40
  -3  -4  -5   13.81    3.10
   3   4   5   29.17    4.43
   3   4   5   21.66    1.58
   3   4   5   23.44    1.34
   3   4   5   22.42    1.41
  -4  -4  -5    0.46    0.50
  -4  -4  -5    2.14    1.55
   4   4   5    0.15    0.38
  -5  -4  -5    1.26    0.66
  -5  -4  -5    1.00    1.26
   5   4   5    0.09    0.86
   5   4   5    1.29    0.57
  -6  -4  -5    1.75    0.71
   6   4   5    1.75    1.46
   6   4   5    2.18    0.76
  10  -5  -5   15.79    4.01
  10  -5  -5   10.88    1.29
   9  -5  -5   13.58    1.34
   9  -5  -5   20.06    4.14
   8  -5  -5    0.38    1.21
   8  -5  -5    1.66    0.58
  -8   5   5    0.58    0.44
   7  -5  -5   51.59    2.03
   7  -5  -5   53.68    4.36
  -7   5   5   50.74    2.28
   6  -5  -5   58.23    2.12
   6  -5  -5   62.73    4.25
  -6   5   5   64.81    2.20
   5  -5  -5    1.00    0.38
   5  -5  -5    0.88    0.75
  -5   5   5    1.20    0.27
  -5   5   5    0.84    0.24
  -5   5   5    1.31    0.42
   4  -5  -5   18.98    0.89
   4  -5  -5   20.69    1.99
   4  -5  -5   20.49    1.11
  -4   5   5   19.89    2.45
  -4   5   5   19.59    0.87
  -4   5   5   21.17    1.11
   3  -5  -5    0.31    0.28
   3  -5  -5    0.29    0.27
   3  -5  -5    0.16    0.40
  -3   5   5    0.20    0.27
  -3   5   5    0.32    0.27
  -3   5   5    0.99    0.54
   2  -5  -5   12.91    0.91
   2  -5  -5   14.22    0.91
  -2   5   5   12.84    0.89
  -2   5   5   12.65    1.74
  -2   5   5   18.81    2.25
  -2   5   5   11.80    0.83
   1  -5  -5   -0.19    0.24
  -1   5   5    0.41    0.44
  -1   5   5    0.92    0.61
  -1   5   5   -0.14    0.22
  -1   5   5   -0.09    0.27
  -1   5   5   -0.10    0.22
   0  -5  -5   48.80    1.96
   0   5   5   56.22    5.34
   0   5   5   55.92    2.12
   0   5   5   52.52    1.95
   0   5   5   48.50    1.93
  -1  -5  -5   50.00    2.09
   1   5   5   55.64    2.53
   1   5   5   52.39    2.12
   1   5   5   49.59    2.47
   1   5   5   49.98    3.83
  -2  -5  -5    0.92    0.50
   2   5   5    2.10    1.37
   2   5   5    1.36    0.53
   2   5   5    0.24    0.39
  -3  -5  -5   14.10    1.47
   3   5   5   10.41    1.26
   3   5   5   11.70    2.86
  -4  -5  -5   18.99    1.54
   4   5   5   19.97    1.49
   4   5   5   16.01    3.48
  -5  -5  -5    4.63    1.08
  -5  -5  -5   -0.01    1.01
   5   5   5    5.66    1.06
   5   5   5    0.88    1.85
  10  -6  -5    9.21    2.97
  10  -6  -5    4.71    0.93
   9  -6  -5   13.21    1.35
   9  -6  -5   17.20    3.67
   8  -6  -5    1.62    1.10
   8  -6  -5    0.83    0.48
   7  -6  -5    1.76    1.14
   7  -6  -5    0.53    0.46
  -7   6   5    0.00    0.33
   6  -6  -5    2.33    1.03
   6  -6  -5    0.97    0.46
  -6   6   5    0.83    0.26
  -6   6   5    0.57    0.26
   5  -6  -5   78.27    3.89
   5  -6  -5   73.18    2.46
  -5   6   5   70.91    2.31
  -5   6   5   76.43    1.98
  -5   6   5   73.63    2.44
   4  -6  -5   -0.27    0.28
   4  -6  -5    0.45    0.33
   4  -6  -5    0.37    0.40
  -4   6   5    0.08    0.31
  -4   6   5    1.05    0.37
   3  -6  -5   42.80    1.79
   3  -6  -5   44.63    1.71
  -3   6   5   48.88    1.86
  -3   6   5   42.26    1.65
   2  -6  -5  120.45    3.28
  -2   6   5  119.11    3.50
  -2   6   5  108.78    4.16
  -2   6   5  117.60    3.30
  -2   6   5  115.55    3.21
   1  -6  -5   24.08    1.39
  -1   6   5   25.97    2.19
  -1   6   5   23.10    1.46
  -1   6   5   25.69    1.42
  -1   6   5   25.63    1.41
   0  -6  -5   15.93    1.23
   0   6   5   17.73    2.67
   0   6   5   15.32    1.23
   0   6   5   17.24    1.24
  -1  -6  -5   52.72    2.34
   1   6   5   58.05    2.41
   1   6   5   61.27    4.36
  -2  -6  -5    6.44    1.09
   2   6   5   10.24    2.74
   2   6   5    8.74    1.17
  -3  -6  -5    3.51    0.85
   3   6   5    5.50    0.97
   3   6   5    1.57    1.20
  -4  -6  -5    0.84    0.65
   4   6   5    0.74    1.94
   4   6   5    0.98    0.55
  10  -7  -5    0.16    0.52
   9  -7  -5    1.67    1.47
   9  -7  -5    1.14    0.59
   8  -7  -5    5.36    1.88
   8  -7  -5    2.84    0.73
   7  -7  -5    1.00    0.70
   7  -7  -5    1.14    0.50
   6  -7  -5    9.91    1.72
   6  -7  -5   11.27    1.20
  -6   7   5    9.81    1.14
  -6   7   5   12.31    1.24
  -6   7   5   10.76    0.68
   5  -7  -5   29.57    1.97
   5  -7  -5   23.43    1.41
  -5   7   5   25.78    1.46
  -5   7   5   24.65    1.18
  -5   7   5   28.52    1.39
   4  -7  -5   27.20    1.50
   4  -7  -5   28.66    1.38
  -4   7   5   29.45    1.37
  -4   7   5   26.96    1.49
   3  -7  -5    1.32    0.48
  -3   7   5    0.78    0.43
  -3   7   5    1.34    0.54
  -3   7   5    1.34    0.49
   2  -7  -5   12.26    1.27
  -2   7   5   12.11    1.33
  -2   7   5   16.41    1.20
  -2   7   5   14.77    1.52
  -2   7   5   13.12    1.25
   1  -7  -5   14.74    1.47
  -1   7   5   12.67    1.35
  -1   7   5   11.22    1.27
   0  -7  -5    0.19    0.39
   0   7   5    0.14    0.58
   0   7   5   -0.12    0.34
  -1  -7  -5   -0.06    0.43
   1   7   5    0.26    0.45
   1   7   5    0.24    0.69
   2   7   5    5.87    2.20
  -3  -7  -5    1.04    0.66
   3   7   5    0.71    0.57
   9  -8  -5    0.20    0.50
   9  -8  -5    0.95    0.99
   8  -8  -5    0.47    0.74
   8  -8  -5    0.36    0.50
   7  -8  -5   16.21    2.24
   7  -8  -5   12.13    1.35
  -7   8   5   16.23    0.78
  -7   8   5   18.16    0.86
   6  -8  -5   11.78    1.24
  -6   8   5   15.19    1.07
  -6   8   5   15.08    0.97
   5  -8  -5    0.67    0.45
  -5   8   5    0.01    0.41
  -5   8   5    0.09    0.34
  -4   8   5    8.31    1.07
  -4   8   5    5.40    0.96
  -4   8   5    7.66    0.96
   3  -8  -5   23.06    1.46
  -3   8   5   23.21    1.47
  -3   8   5   24.88    1.67
   2  -8  -5    2.50    0.74
  -2   8   5    2.79    0.75
   1  -8  -5    0.69    0.50
  -1   8   5   -0.05    0.41
   0  -8  -5    0.12    0.45
   0   8   5    0.39    0.53
  -1  -8  -5    0.67    0.55
   1   8   5   -0.31    0.46
   1   8   5    0.41    0.95
   9  -9  -5   11.34    1.38
   8  -9  -5    3.30    0.84
   8  -9  -5    6.92    1.14
   7  -9  -5    4.97    0.95
  -7   9   5    5.66    0.76
  -7   9   5    5.84    0.73
   6  -9  -5   19.83    1.52
  -6   9   5   21.40    1.43
  -6   9   5   19.92    1.28
  -5   9   5    3.53    0.90
  -5   9   5    3.07    0.80
  -5   9   5    1.80    0.64
  -4   9   5    1.06    0.63
  -4   9   5    0.55    0.58
  -3   9   5    6.19    1.15
  -3   9   5    5.47    1.07
   2  -9  -5    6.23    1.10
   1  -9  -5    4.09    0.93
  -1   9   5    4.61    1.02
   0  -9  -5    0.36    0.55
  -7  10   5    0.16    0.51
  -7  10   5    0.57    0.71
  -6  10   5    0.39    0.60
  -6  10   5    0.46    0.68
  -5  10   5   -0.34    0.58
  -5  10   5    0.95    0.70
  -4  10   5    6.53    1.21
  -4  10   5    7.75    1.29
  -3  10   5    0.67    0.70
  -3  10   5    0.20    0.73
  -2  10   5    4.74    1.18
  -2  11  -6    1.01    0.71
  -3  11  -6    1.33    0.68
  -4  11  -6   13.60    1.34
  -5  11  -6    5.15    1.19
   0  10  -6   -0.31    0.40
  -1  10  -6    6.36    1.03
  -2  10  -6    5.95    0.96
  -2  10  -6    6.24    1.27
  -3  10  -6    1.82    0.62
  -3  10  -6    2.22    1.12
  -4  10  -6    0.57    0.52
  -4  10  -6    0.36    0.45
  -4  10  -6    0.95    0.67
  -5  10  -6    1.35    0.75
  -5  10  -6    1.83    0.56
  -6  10  -6    0.99    0.73
  -6  10  -6    1.99    0.55
  -7  10  -6   -0.25    0.60
  -2  -9   6    3.23    1.56
   1   9  -6    5.22    1.15
   1   9  -6    5.40    1.08
  -1  -9   6    8.84    2.07
   0   9  -6   26.18    1.68
   0   9  -6   24.96    1.97
   0  -9   6   31.16    2.08
  -1   9  -6    8.22    1.36
  -1   9  -6    7.78    1.08
  -2   9  -6    6.91    1.19
  -2   9  -6    7.58    0.98
  -2   9  -6    9.08    1.08
  -3   9  -6   20.25    1.27
  -3   9  -6   22.32    1.31
  -3   9  -6   24.03    1.78
  -4   9  -6    6.36    0.80
  -4   9  -6    7.16    0.85
  -4   9  -6    3.13    0.84
  -5   9  -6    1.28    0.69
  -5   9  -6    0.31    0.35
  -5   9  -6    0.81    0.41
  -6   9  -6    0.84    0.35
  -6   9  -6    0.98    0.61
  -6   9  -6    0.42    0.34
  -7   9  -6    0.62    0.54
  -7   9  -6   -0.48    0.51
   7  -9   6    0.79    0.64
   7  -9   6    0.92    0.90
   8  -9   6    0.22    0.73
   3   8  -6   22.21    2.70
   3   8  -6   27.85    1.88
  -3  -8   6   32.67    4.87
   2   8  -6   24.33    1.93
   2   8  -6   18.21    1.79
  -2  -8   6   19.89    4.76
   1   8  -6    4.16    0.81
   1   8  -6    4.67    1.08
   1   8  -6    2.12    1.12
  -1  -8   6    2.93    1.28
   0   8  -6   44.66    2.39
   0   8  -6   40.93    1.94
   0  -8   6   40.49    2.78
  -1   8  -6    3.48    0.88
  -1   8  -6    0.54    0.47
   1  -8   6    2.68    0.76
  -2   8  -6    2.01    0.69
  -2   8  -6    2.01    0.56
  -2   8  -6    2.23    0.56
  -3   8  -6    0.05    0.48
  -3   8  -6    0.30    0.37
  -3   8  -6    1.08    0.59
  -3   8  -6    0.01    0.35
  -4   8  -6    3.35    0.71
  -4   8  -6    6.31    0.66
  -4   8  -6    7.63    1.10
  -4   8  -6    6.26    0.73
  -5   8  -6    9.81    1.19
  -5   8  -6    9.26    0.87
  -5   8  -6    9.02    1.40
  -5   8  -6    9.96    0.68
   5  -8   6    9.08    1.41
   5  -8   6    9.39    1.65
  -6   8  -6   -0.38    0.40
  -6   8  -6   -0.06    0.20
  -6   8  -6    0.17    0.24
   6  -8   6    0.61    0.75
   6  -8   6    0.88    0.68
  -7   8  -6   15.90    1.20
  -7   8  -6   17.10    1.25
   7  -8   6   19.45    3.17
   7  -8   6   20.30    3.05
  -8   8  -6   21.94    1.31
   8  -8   6   22.63    3.70
   8  -8   6   15.48    2.98
   9  -8   6    0.76    1.22
   9  -8   6   -0.02    1.10
   4   7  -6    0.38    0.61
   4   7  -6    1.42    0.67
  -4  -7   6    0.26    1.11
   3   7  -6    5.46    1.95
   3   7  -6    7.76    1.31
   3   7  -6    9.06    1.21
  -3  -7   6   10.10    2.84
   2   7  -6    5.79    1.08
   2   7  -6    4.56    0.85
   2   7  -6    5.39    1.72
  -2  -7   6   10.14    2.59
   1   7  -6    0.92    0.67
   1   7  -6    0.92    0.48
   1   7  -6   -0.15    0.41
  -1  -7   6    0.05    0.38
  -1  -7   6    0.54    0.55
   0   7  -6    3.52    0.79
   0   7  -6    2.89    0.65
   0   7  -6    4.65    1.28
   0  -7   6    3.24    1.05
   0  -7   6    3.94    0.79
  -1   7  -6    3.34    0.78
  -1   7  -6    2.34    0.67
  -1   7  -6    2.54    0.55
  -1   7  -6    2.69    0.57
  -2   7  -6   20.46    2.66
  -2   7  -6   12.94    1.31
  -2   7  -6   13.36    0.90
  -2   7  -6   10.96    0.82
   2  -7   6   15.50    1.37
   2  -7   6   15.42    1.31
  -3   7  -6    0.99    0.49
  -3   7  -6    0.02    0.33
  -3   7  -6    0.34    0.37
  -3   7  -6    0.58    0.36
   3  -7   6    0.18    0.39
   3  -7   6    1.23    0.63
  -4   7  -6   46.18    1.38
  -4   7  -6   42.45    1.49
  -4   7  -6   49.41    2.06
   4  -7   6   49.99    2.92
   4  -7   6   45.43    3.99
  -5   7  -6   37.88    1.08
  -5   7  -6   39.52    1.13
  -5   7  -6   38.56    1.80
   5  -7   6   37.90    2.99
   5  -7   6   36.35    1.82
   5  -7   6   36.60    2.98
  -6   7  -6    0.93    0.48
   6  -7   6    0.82    0.80
   6  -7   6    1.48    0.56
   6  -7   6    1.08    0.93
  -7   7  -6    5.97    0.83
   7  -7   6    5.79    1.92
   7  -7   6    3.86    0.76
   7  -7   6    3.92    1.72
  -8   7  -6    1.62    0.50
   8  -7   6    0.22    1.01
   8  -7   6    1.14    1.06
   8  -7   6    1.51    0.58
   9  -7   6    0.18    1.23
   6   6  -6    1.32    0.85
   5   6  -6    0.09    0.81
   5   6  -6    0.96    0.53
  -5  -6   6    0.16    0.90
   4   6  -6   12.34    3.10
   4   6  -6   13.97    1.60
   4   6  -6   13.53    1.47
  -4  -6   6   17.73    3.89
   3   6  -6    9.43    1.34
   3   6  -6    9.00    1.13
   3   6  -6   10.58    2.67
  -3  -6   6    6.70    2.19
   2   6  -6    1.84    0.55
   2   6  -6    1.59    0.60
  -2  -6   6    1.30    0.53
  -2  -6   6    1.74    1.14
   1   6  -6   12.37    1.21
   1   6  -6   13.41    1.43
   1   6  -6   11.51    2.29
  -1  -6   6    9.19    1.07
  -1  -6   6   14.81    2.50
   0   6  -6    0.75    0.47
   0   6  -6    0.05    0.33
   0   6  -6    0.36    0.34
   0  -6   6    0.71    0.60
   0  -6   6    0.73    0.38
  -1   6  -6   -0.05    0.33
  -1   6  -6    0.47    0.34
  -1   6  -6    0.62    0.30
  -1   6  -6    0.66    0.58
   1  -6   6    0.79    0.55
   1  -6   6   -0.03    0.25
  -2   6  -6   16.56    0.83
  -2   6  -6   14.66    0.82
  -2   6  -6   16.62    1.19
   2  -6   6   14.79    1.13
   2  -6   6   18.34    2.11
  -3   6  -6   35.32    1.17
  -3   6  -6   37.16    1.15
  -3   6  -6   35.28    1.66
   3  -6   6   32.47    2.30
   3  -6   6   37.03    2.53
   3  -6   6   31.54    1.61
  -4   6  -6   25.95    0.81
  -4   6  -6   26.14    1.40
  -4   6  -6   25.77    0.84
   4  -6   6   27.71    2.38
   4  -6   6   24.72    1.41
   4  -6   6   25.82    2.40
  -5   6  -6    1.47    0.46
   5  -6   6    1.77    0.91
   5  -6   6    0.63    0.79
   5  -6   6    1.13    0.49
  -6   6  -6   15.46    1.04
   6  -6   6   12.20    1.17
   6  -6   6   18.01    3.08
   6  -6   6   14.65    2.89
  -7   6  -6   18.94    1.13
   7  -6   6   16.43    1.18
   7  -6   6   20.05    3.56
   7  -6   6   21.05    3.92
  -8   6  -6    1.36    0.47
   8  -6   6    2.02    1.45
   8  -6   6    1.00    0.52
   8  -6   6    0.66    1.21
  -9   6  -6    0.29    0.39
   9  -6   6    0.25    0.96
   7   5  -6   16.13    1.84
   6   5  -6   11.63    1.57
   6   5  -6    9.14    1.47
   6   5  -6    8.63    3.07
   5   5  -6    0.36    0.95
   5   5  -6    0.47    0.54
   5   5  -6    1.00    0.60
  -5  -5   6    0.67    0.98
   4   5  -6    2.29    1.40
   4   5  -6    3.07    0.76
   4   5  -6    3.80    0.87
   3   5  -6   15.34    1.29
   3   5  -6   15.35    1.17
   3   5  -6   16.01    1.60
   3   5  -6   12.06    2.70
  -3  -5   6   16.17    1.54
  -3  -5   6   14.13    2.95
   2   5  -6   12.06    0.97
   2   5  -6   13.22    1.38
   2   5  -6   14.46    2.74
   2   5  -6   15.73    1.68
  -2  -5   6   14.22    2.80
  -2  -5   6   15.55    1.43
   1   5  -6    0.21    0.30
   1   5  -6    0.68    0.62
   1   5  -6    0.49    0.38
   1   5  -6    0.34    0.33
  -1  -5   6    0.03    0.26
  -1  -5   6    0.25    0.59
   0   5  -6  112.74    3.18
   0   5  -6  107.54    3.25
   0   5  -6  110.74    2.84
   0  -5   6  116.59    4.89
   0  -5   6  107.18    2.88
  -1   5  -6  135.01    3.70
  -1   5  -6  135.45    5.14
  -1   5  -6  142.62    3.16
   1  -5   6  134.70    5.07
   1  -5   6  139.59    3.21
   1  -5   6  133.39    3.68
  -2   5  -6    5.86    0.44
  -2   5  -6    7.73    0.91
  -2   5  -6    5.87    0.46
   2  -5   6    5.82    1.27
   2  -5   6    5.85    0.77
  -3   5  -6   88.62    1.87
  -3   5  -6   91.45    2.70
  -3   5  -6   89.37    1.91
   3  -5   6   90.90    2.72
   3  -5   6   89.80    4.33
   3  -5   6   86.63    4.21
  -4   5  -6   80.44    2.44
   4  -5   6   72.63    2.42
   4  -5   6   74.63    4.39
   4  -5   6   78.42    4.41
  -5   5  -6    0.67    0.38
   5  -5   6    0.30    0.36
   5  -5   6    0.83    0.90
   5  -5   6    1.19    1.03
  -6   5  -6    2.66    0.54
   6  -5   6    2.67    1.46
   6  -5   6    2.68    1.29
   6  -5   6    4.01    0.72
  -7   5  -6    0.30    0.30
   7  -5   6   -0.05    0.40
  -8   5  -6    2.46    0.56
   8  -5   6    1.61    1.42
   8  -5   6    2.79    0.65
  -9   5  -6    0.00    0.36
   9  -5   6    0.16    0.54
   9  -5   6    0.60    1.18
   8   4  -6    1.88    0.84
   7   4  -6    0.21    1.31
   7   4  -6    0.13    0.46
   7   4  -6   -0.48    0.39
   6   4  -6   10.51    3.22
   6   4  -6    8.84    1.23
   6   4  -6    9.64    1.25
  -6  -4   6    4.73    2.34
   5   4  -6   23.03    1.56
   5   4  -6   22.80    1.47
   5   4  -6   21.50    1.45
   5   4  -6   16.39    3.71
  -5  -4   6   24.66    4.69
   4   4  -6    0.22    0.67
   4   4  -6   -0.04    0.34
   4   4  -6    0.16    0.47
  -4  -4   6   -0.19    0.38
  -4  -4   6    0.42    0.38
   3   4  -6   75.26    2.67
   3   4  -6   72.49    2.50
   3   4  -6   83.00    5.24
   3   4  -6   81.04    2.58
  -3  -4   6   73.21    2.56
   2   4  -6  114.29    3.06
   2   4  -6  105.40    5.48
   2   4  -6  112.10    3.28
   2   4  -6  106.02    3.11
  -2  -4   6  111.01    3.10
  -2  -4   6  115.78    5.68
   1   4  -6   33.33    1.35
   1   4  -6   32.78    1.46
   1   4  -6   35.42    1.58
   1   4  -6   38.84    2.93
  -1  -4   6   32.08    1.37
   0   4  -6   36.49    1.56
   0   4  -6   33.87    2.54
   0   4  -6   36.00    1.30
   0  -4   6   37.73    1.59
   0  -4   6   36.32    1.33
   0  -4   6   38.58    2.62
  -1   4  -6  136.87    5.23
  -1   4  -6  139.95    2.94
  -1   4  -6  136.98    3.51
   1  -4   6  131.39    3.45
   1  -4   6  143.05    5.16
   1  -4   6  138.68    2.98
  -2   4  -6    0.24    0.14
  -2   4  -6   -0.01    0.12
  -2   4  -6    0.64    0.33
   2  -4   6    0.75    0.33
   2  -4   6    1.58    0.73
  -3   4  -6    1.73    0.46
   3  -4   6    0.95    0.75
   3  -4   6    1.79    0.43
   3  -4   6    1.76    0.96
  -4   4  -6    4.24    0.61
   4  -4   6    5.08    1.58
   4  -4   6    3.53    0.60
   4  -4   6    4.66    1.63
  -5   4  -6   33.60    1.41
   5  -4   6   33.96    1.49
   5  -4   6   35.31    4.35
   5  -4   6   37.02    3.54
  -6   4  -6    2.20    0.50
   6  -4   6    1.69    1.33
   6  -4   6    2.29    0.55
  -7   4  -6    6.82    0.81
  -7   4  -6    5.35    0.43
   7  -4   6    6.87    0.40
   7  -4   6   10.30    2.93
   7  -4   6    6.24    0.87
  -8   4  -6   33.83    1.17
  -8   4  -6   34.63    1.51
   8  -4   6   35.21    1.08
   8  -4   6   34.52    5.63
   8  -4   6   33.92    1.65
  -9   4  -6    5.39    0.78
   9  -4   6    4.58    2.04
   9  -4   6    3.72    0.77
   8   3  -6    0.55    0.57
   8   3  -6    0.55    1.53
   7   3  -6    0.12    0.40
   7   3  -6    0.15    0.91
   7   3  -6    0.39    0.65
  -7  -3   6    1.77    1.64
   6   3  -6    2.16    0.66
   6   3  -6    1.03    0.49
   6   3  -6    0.59    0.77
  -6  -3   6    1.57    1.41
   5   3  -6   28.89    4.57
   5   3  -6   23.94    1.46
   5   3  -6   24.24    1.38
   5   3  -6   25.39    1.48
  -5  -3   6   34.43    5.16
   4   3  -6   34.05    1.55
   4   3  -6   35.34    1.63
   4   3  -6   40.14    3.81
   4   3  -6   35.12    1.65
  -4  -3   6   33.59    4.54
  -4  -3   6   30.33    1.60
   3   3  -6   11.46    1.16
   3   3  -6   11.53    1.10
   3   3  -6    9.46    2.50
   3   3  -6   12.54    1.16
  -3  -3   6   11.63    2.48
  -3  -3   6   12.03    1.16
   2   3  -6   19.06    1.03
   2   3  -6   22.83    3.27
   2   3  -6   16.39    0.94
   2   3  -6   18.95    1.09
  -2  -3   6   17.46    0.99
   1   3  -6   15.66    2.48
   1   3  -6   16.87    0.84
   1   3  -6   15.62    0.95
  -1  -3   6   16.46    0.98
  -1  -3   6   24.27    3.15
  -1  -3   6   14.94    0.83
   0   3  -6   69.49    3.60
   0   3  -6   65.93    2.07
   0   3  -6   69.00    1.74
   0  -3   6   69.28    3.54
   0  -3   6   68.03    1.77
  -1   3  -6   14.46    0.87
  -1   3  -6   18.31    2.50
  -1   3  -6   15.11    0.57
   1  -3   6   18.81    2.34
   1  -3   6   13.90    0.57
   1  -3   6   15.03    0.89
  -2   3  -6    2.62    0.48
   2  -3   6    3.09    0.50
   2  -3   6    2.28    0.93
  -3   3  -6   11.37    0.78
   3  -3   6   16.87    3.21
   3  -3   6   12.14    2.30
  -4   3  -6   12.64    0.84
   4  -3   6   12.62    2.49
   4  -3   6   12.50    0.86
  -5   3  -6   29.47    1.29
   5  -3   6   29.27    0.71
   5  -3   6   27.92    1.32
   5  -3   6   34.36    4.65
  -6   3  -6   43.10    1.21
  -6   3  -6   41.45    1.60
   6  -3   6   47.17    5.88
   6  -3   6   39.40    1.66
   6  -3   6   42.47    1.14
  -7   3  -6    0.48    0.31
  -7   3  -6   -0.14    0.27
   7  -3   6   -0.35    0.32
   7  -3   6    0.87    0.94
   7  -3   6    0.16    0.22
  -8   3  -6    0.46    0.40
  -8   3  -6    0.92    0.48
   8  -3   6    1.06    0.37
   8  -3   6    0.74    0.54
  -9   3  -6    1.18    0.53
   9  -3   6    2.42    1.82
   9  -3   6    1.99    0.49
   9  -3   6    1.04    0.62
   9   2  -6    0.65    1.58
   9   2  -6    2.10    0.73
   8   2  -6    0.66    0.51
   8   2  -6    1.39    1.67
   8   2  -6    0.15    0.41
   8   2  -6    0.44    0.47
  -8  -2   6   -0.06    1.12
   7   2  -6   36.48    5.71
   7   2  -6   37.52    1.81
   7   2  -6   38.77    1.75
   7   2  -6   36.06    1.95
  -7  -2   6   30.03    5.35
   6   2  -6   35.23    1.57
   6   2  -6   37.35    1.84
   6   2  -6   35.18    1.67
   6   2  -6   38.84    5.77
  -6  -2   6   36.72    5.36
   5   2  -6   10.91    2.76
   5   2  -6   13.53    1.04
   5   2  -6   12.59    0.98
   5   2  -6   13.99    0.94
  -5  -2   6   15.07    1.63
  -5  -2   6   13.97    3.24
   4   2  -6   83.75    5.36
   4   2  -6   81.97    2.37
   4   2  -6   83.21    2.53
   4   2  -6   80.64    2.46
  -4  -2   6   74.50    5.13
  -4  -2   6   79.12    2.53
   3   2  -6   78.68    2.36
   3   2  -6   83.28    2.31
   3   2  -6   84.64    2.39
   3   2  -6   79.31    4.80
  -3  -2   6   82.93    2.41
  -3  -2   6   76.08    4.69
   2   2  -6   37.17    2.92
   2   2  -6   38.75    1.44
   2   2  -6   38.51    1.36
  -2  -2   6   38.51    1.40
  -2  -2   6   39.60    1.47
  -2  -2   6   36.81    2.93
   1   2  -6   74.21    1.91
   1   2  -6   74.66    3.88
   1   2  -6   80.71    2.47
  -1  -2   6   75.34    3.86
  -1  -2   6   75.26    1.95
  -1  -2   6   78.17    2.18
   0   2  -6    4.64    0.42
   0   2  -6    4.11    1.14
   0   2  -6    5.53    0.73
   0  -2   6    4.78    0.37
   0  -2   6    4.21    0.56
  -1   2  -6   82.44    2.42
  -1   2  -6   78.67    1.57
  -1   2  -6   83.02    4.06
   1  -2   6   77.90    1.60
   1  -2   6   77.53    2.16
  -2   2  -6    0.66    0.28
   2  -2   6    1.13    0.79
   2  -2   6   -0.60    0.27
   2  -2   6    0.31    0.24
  -3   2  -6   28.80    1.18
   3  -2   6   32.54    2.87
   3  -2   6   27.40    1.18
   3  -2   6   28.90    3.56
  -4   2  -6  176.35    3.98
   4  -2   6  179.08    3.29
   4  -2   6  171.78    4.03
   4  -2   6  174.01    7.79
  -5   2  -6   17.94    3.36
  -5   2  -6   18.63    1.03
  -5   2  -6   18.27    0.77
   5  -2   6   18.54    0.73
   5  -2   6   18.03    1.07
   5  -2   6   16.87    3.25
  -6   2  -6    1.43    0.38
  -6   2  -6    0.67    0.37
   6  -2   6    2.16    1.21
   6  -2   6    1.92    0.40
   6  -2   6    1.69    0.50
  -7   2  -6   52.67    1.78
  -7   2  -6   50.98    1.92
   7  -2   6   48.09    1.98
   7  -2   6   46.24    6.30
   7  -2   6   48.15    1.60
  -8   2  -6    5.54    0.80
  -8   2  -6    5.94    0.88
   8  -2   6    4.28    2.05
   8  -2   6    5.76    0.72
   8  -2   6    4.08    0.87
  -9   2  -6   -0.08    0.38
   9  -2   6   -0.09    0.56
   9  -2   6    0.05    0.38
   9  -2   6    0.32    0.98
   9   1  -6   16.81    4.32
   9   1  -6   23.60    1.40
   9   1  -6   21.37    1.34
   9   1  -6   21.69    1.65
   8   1  -6    3.38    0.67
   8   1  -6    3.81    0.68
   8   1  -6    1.53    0.59
   8   1  -6    3.30    1.98
   7   1  -6    6.43    0.84
   7   1  -6    6.15    0.85
   7   1  -6    4.90    0.92
  -7  -1   6   10.98    5.30
   6   1  -6   74.42    2.21
   6   1  -6   75.45    2.64
   6   1  -6   73.61    5.80
   6   1  -6   72.40    2.30
  -6  -1   6   72.67    2.62
  -6  -1   6   81.01    6.15
   5   1  -6    1.29    0.41
   5   1  -6    0.39    0.33
   5   1  -6    1.08    0.89
   5   1  -6    0.87    0.35
  -5  -1   6    0.63    0.81
  -5  -1   6    0.54    0.32
   4   1  -6    3.89    0.60
   4   1  -6    2.69    1.40
   4   1  -6    3.33    0.53
   4   1  -6    3.70    0.55
  -4  -1   6    4.31    0.70
  -4  -1   6    3.64    1.35
   3   1  -6    0.49    0.28
   3   1  -6   -0.42    0.35
   3   1  -6    0.14    0.25
  -3  -1   6    0.34    0.59
  -3  -1   6    0.12    0.21
  -3  -1   6    0.01    0.23
   2   1  -6  135.78    3.10
   2   1  -6  131.03    5.60
  -2  -1   6  137.16    3.13
  -2  -1   6  135.75    5.60
  -2  -1   6  136.02    3.07
   1   1  -6   32.90    1.17
   1   1  -6   29.63    0.99
  -1  -1   6   34.76    2.51
  -1  -1   6   30.34    1.00
  -1  -1   6   31.32    1.15
   0   1  -6  160.34    3.44
   0   1  -6  154.83    3.02
   0   1  -6  147.52    5.62
   0  -1   6  154.09    5.53
   0  -1   6  157.52    3.04
  -1   1  -6  378.14    6.59
  -1   1  -6  372.39    7.15
   1  -1   6  369.02    6.57
   1  -1   6  375.44    7.18
   1  -1   6  379.97   10.22
  -2   1  -6  247.20    5.00
   2  -1   6  243.13    8.26
   2  -1   6  244.88    4.37
   2  -1   6  247.19    4.42
   2  -1   6  228.17    8.03
   2  -1   6  241.58    5.03
  -3   1  -6   93.31    2.41
   3  -1   6   88.45    1.94
   3  -1   6   89.92    5.09
   3  -1   6   86.10    1.88
  -4   1  -6  111.36    2.89
  -4   1  -6  112.34    2.52
  -4   1  -6  111.10    6.28
   4  -1   6  111.20    6.27
   4  -1   6  110.28    2.94
   4  -1   6  109.97    2.49
  -5   1  -6   18.20    1.07
  -5   1  -6   19.81    0.95
  -5   1  -6   15.20    3.29
   5  -1   6   22.69    1.20
  -6   1  -6    5.05    0.74
  -6   1  -6    9.55    2.94
  -6   1  -6    6.45    0.75
   6  -1   6    6.93    0.73
   6  -1   6    5.59    2.03
   6  -1   6    5.53    0.82
  -7   1  -6    0.20    0.37
  -7   1  -6    0.18    0.36
   7  -1   6    0.71    1.03
   7  -1   6    0.63    0.48
   7  -1   6    0.18    0.32
  -8   1  -6    4.35    0.81
  -8   1  -6    3.01    0.81
   8  -1   6    4.27    0.91
   8  -1   6    5.66    2.71
   8  -1   6    2.98    0.66
  -9   1  -6    1.69    0.64
   9  -1   6    2.21    0.60
   9  -1   6    2.05    1.72
  10   0  -6   -0.47    0.98
   9   0  -6   -0.30    0.32
   9   0  -6    0.75    0.61
   9   0  -6    1.40    1.29
   9   0  -6    0.41    0.39
   8   0  -6    9.01    0.84
   8   0  -6   10.23    3.27
   8   0  -6    7.30    1.06
   8   0  -6    7.91    0.81
   7   0  -6    0.19    0.32
   7   0  -6   -0.08    0.27
   7   0  -6    1.14    1.14
   7   0  -6    0.18    0.30
  -7   0   6    0.41    0.80
   6   0  -6   14.01    1.00
   6   0  -6   16.37    3.33
   6   0  -6   13.61    0.77
   6   0  -6   13.25    1.02
  -6   0   6   13.81    3.21
  -6   0   6   13.63    1.70
   5   0  -6   16.75    3.25
   5   0  -6   15.30    0.99
   5   0  -6   15.08    0.77
   5   0  -6   14.90    0.80
  -5   0   6   16.62    1.04
  -5   0   6   17.71    3.26
   4   0  -6   16.86    0.79
   4   0  -6   18.34    3.01
   4   0  -6   15.09    0.91
   4   0  -6   17.58    0.76
  -4   0   6   15.90    0.93
  -4   0   6   19.53    3.23
   3   0  -6    8.12    0.62
   3   0  -6    9.61    2.24
   3   0  -6    7.99    0.54
  -3   0   6   14.39    1.50
  -3   0   6    7.69    0.55
  -3   0   6    8.40    1.97
   2   0  -6  124.72    2.75
   2   0  -6  120.37    5.14
   2   0  -6  124.97    2.81
  -2   0   6  125.07    2.76
  -2   0   6  125.77    2.80
  -2   0   6  121.84    5.16
   1   0  -6  190.98    6.40
   1   0  -6  190.57    3.85
   1   0  -6  180.72    3.69
  -1   0   6  186.73    3.83
  -1   0   6  187.85    3.71
  -1   0   6  182.63    6.20
   0   0  -6    9.94    0.63
   0   0  -6   11.12    1.93
   0   0  -6    9.65    0.49
   0   0   6   10.26    0.50
   0   0   6    8.61    0.60
   0   0   6   17.13    2.25
  -1   0  -6   15.90    0.83
  -1   0  -6   15.33    0.61
   1   0   6   20.12    2.90
   1   0   6   15.42    0.81
   1   0   6   14.95    0.60
  -2   0  -6   47.90    1.57
   2   0   6   48.98    3.47
   2   0   6   46.90    1.26
   2   0   6   46.57    1.31
   2   0   6   48.86    1.60
  -3   0  -6    4.16    0.58
   3   0   6    5.45    0.53
   3   0   6    5.03    1.62
   3   0   6    5.64    0.70
   3   0   6    6.17    0.57
  -4   0  -6    3.34    1.57
  -4   0  -6    5.97    0.66
  -4   0  -6    7.37    0.85
   4   0   6    5.55    0.73
   4   0   6    3.41    1.65
   4   0   6    6.87    0.69
  -5   0  -6   13.05    0.90
  -5   0  -6   15.68    3.32
  -5   0  -6   14.97    1.03
   5   0   6   14.69    1.06
   5   0   6   12.87    0.86
   5   0   6   17.78    3.57
  -6   0  -6    7.30    0.91
  -6   0  -6    5.71    2.35
  -6   0  -6    5.70    0.90
   6   0   6    4.83    0.82
   6   0   6    7.67    2.78
   6   0   6    7.52    0.86
  -7   0  -6    0.67    0.59
  -7   0  -6    1.97    0.63
   7   0   6    2.45    1.55
   7   0   6    0.87    0.42
   7   0   6    0.14    0.54
  -8   0  -6    6.76    1.08
   8   0   6    7.94    1.02
   8   0   6    7.21    3.17
  -9   0  -6    4.16    1.00
   9   0   6    4.45    2.61
   9   0   6    4.29    0.88
  10  -1  -6    8.21    3.36
  10  -1  -6    6.98    1.14
   9  -1  -6    4.55    0.92
   9  -1  -6    5.81    2.52
   8  -1  -6    2.68    1.58
   8  -1  -6    0.34    0.24
   8  -1  -6    0.22    0.38
   8  -1  -6    0.41    0.23
   7  -1  -6    0.05    0.21
   7  -1  -6    0.02    0.18
   7  -1  -6    0.55    0.81
   7  -1  -6   -0.16    0.25
  -7   1   6    0.72    0.44
  -7   1   6    0.90    1.31
   6  -1  -6    4.48    0.44
   6  -1  -6    3.88    0.70
   6  -1  -6    3.75    0.42
   6  -1  -6    3.21    1.62
  -6   1   6    3.08    0.63
   5  -1  -6    2.03    0.29
   5  -1  -6    2.37    0.32
   5  -1  -6    2.86    1.30
   5  -1  -6    2.19    0.50
  -5   1   6    2.21    1.25
  -5   1   6    1.91    0.47
   4  -1  -6   79.78    2.26
   4  -1  -6   82.53    1.87
   4  -1  -6   77.17    4.62
  -4   1   6   82.81    2.29
  -4   1   6   78.95    1.87
  -4   1   6   82.07    4.78
   3  -1  -6  115.96    2.50
   3  -1  -6  110.43    5.16
   3  -1  -6  121.34    2.84
  -3   1   6  116.37    2.52
  -3   1   6  118.41    2.78
  -3   1   6  115.43    5.27
   2  -1  -6   45.90    2.95
   2  -1  -6   44.25    1.35
   2  -1  -6   42.58    1.25
  -2   1   6   43.81    1.28
  -2   1   6   43.20    1.34
  -2   1   6   40.50    2.80
   1  -1  -6   98.02    4.33
   1  -1  -6   96.37    2.26
   1  -1  -6   95.51    2.23
  -1   1   6   97.79    2.23
  -1   1   6   94.71    4.21
  -1   1   6   97.16    2.29
   0  -1  -6  191.11    6.74
   0  -1  -6  198.12    4.10
   0  -1  -6  195.64    3.93
   0   1   6  203.62    4.14
   0   1   6  188.70    6.57
   0   1   6  197.22    3.92
  -1  -1  -6   15.81    0.84
   1   1   6   17.27    2.75
   1   1   6   13.59    0.80
   1   1   6   25.37    3.35
   1   1   6   15.76    0.72
   1   1   6   16.72    0.78
  -2  -1  -6    0.28    0.25
   2   1   6    0.18    0.19
   2   1   6    0.48    0.52
   2   1   6    0.04    0.24
   2   1   6   -0.03    0.39
   2   1   6    0.15    0.24
  -3  -1  -6    0.02    0.27
   3   1   6   -0.23    0.20
   3   1   6    0.09    0.24
   3   1   6    0.03    0.21
   3   1   6    0.47    0.69
  -4  -1  -6    3.87    1.73
  -4  -1  -6    3.61    0.59
  -4  -1  -6    3.12    0.63
   4   1   6    3.56    0.60
   4   1   6    5.08    0.75
   4   1   6    2.83    1.37
  -5  -1  -6    2.87    0.68
  -5  -1  -6    0.85    1.06
  -5  -1  -6    2.43    0.58
   5   1   6    1.86    1.44
   5   1   6    1.40    0.46
   5   1   6    0.89    0.47
  -6  -1  -6    6.25    1.30
  -6  -1  -6    4.04    2.16
  -6  -1  -6    5.91    0.93
   6   1   6    5.94    0.86
   6   1   6    2.79    2.04
   6   1   6    5.19    0.84
  -7  -1  -6   11.00    1.31
   7   1   6   10.56    1.21
   7   1   6    8.21    2.95
  -8  -1  -6    2.28    0.76
   8   1   6    2.07    0.69
   8   1   6    3.16    2.39
  10  -2  -6    0.18    0.53
  10  -2  -6    0.95    1.59
   9  -2  -6    8.04    2.80
   9  -2  -6   10.70    1.29
   8  -2  -6    5.18    2.06
   8  -2  -6    5.58    0.89
   7  -2  -6   14.77    3.28
  -7   2   6   14.46    1.12
   6  -2  -6  127.94    7.03
   6  -2  -6  131.79    3.52
  -6   2   6  131.79    3.50
  -6   2   6  134.65    7.29
   5  -2  -6   84.62    2.47
   5  -2  -6   81.55    5.69
  -5   2   6   84.70    2.47
  -5   2   6   86.01    5.22
   4  -2  -6   13.10    0.51
   4  -2  -6   13.26    2.28
   4  -2  -6   13.47    0.82
  -4   2   6   13.56    0.82
  -4   2   6   12.03    0.54
  -4   2   6   15.86    2.61
   3  -2  -6  180.32    3.53
   3  -2  -6  181.37    3.93
   3  -2  -6  171.35    6.47
  -3   2   6  179.50    6.63
  -3   2   6  181.39    3.57
  -3   2   6  181.27    4.18
   2  -2  -6   74.23    1.96
   2  -2  -6   67.63    3.60
   2  -2  -6   73.66    1.81
  -2   2   6   74.16    1.83
  -2   2   6   63.94    3.54
  -2   2   6   72.22    1.93
   1  -2  -6    7.26    1.52
   1  -2  -6    6.48    0.62
   1  -2  -6    6.94    0.78
  -1   2   6    7.43    0.55
  -1   2   6    7.77    1.61
  -1   2   6    6.47    0.52
   0  -2  -6   24.25    1.05
   0  -2  -6   22.67    0.97
   0   2   6   24.70    0.99
   0   2   6   26.27    3.13
   0   2   6   24.22    1.04
  -1  -2  -6   32.69    1.32
   1   2   6   31.39    1.29
   1   2   6   32.85    1.40
   1   2   6   31.45    2.78
   1   2   6   30.47    2.78
   1   2   6   33.65    1.29
  -2  -2  -6   52.90    1.85
   2   2   6   49.57    1.71
   2   2   6   48.64    1.77
   2   2   6   51.72    3.94
   2   2   6   49.47    1.63
  -3  -2  -6    7.22    2.14
  -3  -2  -6    9.11    0.98
   3   2   6   12.57    0.83
   3   2   6    9.91    2.41
   3   2   6    9.64    0.78
   3   2   6   10.97    0.89
  -4  -2  -6   30.80    4.79
  -4  -2  -6   25.49    1.44
   4   2   6   27.32    1.38
   4   2   6   26.27    1.46
   4   2   6   35.27    5.47
  -5  -2  -6   67.95    2.56
  -5  -2  -6   71.06    6.13
  -5  -2  -6   74.43    3.01
   5   2   6   77.23    6.20
   5   2   6   70.96    2.48
   5   2   6   66.14    2.54
  -6  -2  -6   -0.43    0.87
  -6  -2  -6    0.94    0.50
   6   2   6    0.51    0.44
   6   2   6    1.40    1.37
  -7  -2  -6    8.78    1.22
   7   2   6    8.51    1.15
   7   2   6    8.06    3.03
  -8  -2  -6    8.96    1.36
   8   2   6    7.72    1.13
   8   2   6    9.76    3.76
  10  -3  -6    1.87    0.92
  10  -3  -6    4.31    2.26
   9  -3  -6   27.97    5.01
   9  -3  -6   31.62    1.79
   8  -3  -6   17.96    3.74
   8  -3  -6   19.36    1.31
   7  -3  -6    1.91    0.56
   7  -3  -6    3.59    1.65
  -7   3   6    0.83    0.42
   6  -3  -6   41.60    1.71
   6  -3  -6   40.78    3.81
  -6   3   6   44.12    1.76
   5  -3  -6   19.47    3.09
   5  -3  -6   18.32    1.05
  -5   3   6   18.95    1.05
  -5   3   6   18.66    3.06
   4  -3  -6    0.37    0.16
   4  -3  -6   -0.15    0.31
   4  -3  -6    0.70    0.30
  -4   3   6    0.33    0.17
  -4   3   6    1.57    0.78
  -4   3   6    0.06    0.21
   3  -3  -6    4.52    1.26
   3  -3  -6    3.09    0.41
   3  -3  -6    2.60    0.47
  -3   3   6    2.96    0.40
  -3   3   6    3.24    0.51
  -3   3   6    3.65    1.08
   2  -3  -6   45.20    1.40
   2  -3  -6   44.93    1.51
   2  -3  -6   43.75    2.86
  -2   3   6   46.56    1.41
  -2   3   6   40.95    2.72
  -2   3   6   40.32    1.44
   1  -3  -6   78.40    2.16
   1  -3  -6   75.32    2.12
   1  -3  -6   78.29    3.95
  -1   3   6   77.41    2.12
  -1   3   6   75.61    3.82
  -1   3   6   76.07    2.13
   0  -3  -6    0.05    0.21
   0   3   6    0.80    0.58
   0   3   6   -0.01    0.36
   0   3   6   -0.13    0.16
   0   3   6   -0.12    0.20
   0   3   6    0.14    0.27
  -1  -3  -6  113.03    3.08
   1   3   6  114.57    3.04
   1   3   6  109.71    5.57
   1   3   6  110.14    5.66
   1   3   6  113.55    3.05
   1   3   6  113.88    2.91
  -2  -3  -6  134.77    3.60
   2   3   6  131.91    3.46
   2   3   6  125.13    6.58
   2   3   6  131.40    3.52
   2   3   6  133.62    3.35
  -3  -3  -6    3.12    0.67
   3   3   6    3.31    1.04
   3   3   6    3.04    0.60
   3   3   6    2.53    0.58
   3   3   6    2.68    1.51
  -4  -3  -6   20.02    1.38
  -4  -3  -6   23.61    4.27
   4   3   6   19.73    1.24
   4   3   6   21.29    1.40
   4   3   6   17.15    3.47
  -5  -3  -6   13.29    3.64
  -5  -3  -6   10.28    1.25
   5   3   6   11.78    3.40
   5   3   6   12.17    1.28
  -6  -3  -6    1.11    0.64
  -6  -3  -6    1.68    1.49
   6   3   6    0.94    0.55
   6   3   6   -0.27    0.75
  -7  -3  -6    1.36    0.71
   7   3   6    0.04    0.54
  10  -4  -6    5.08    2.45
  10  -4  -6    4.98    1.12
   9  -4  -6    2.98    1.84
   9  -4  -6    2.66    0.75
   8  -4  -6    4.69    0.82
   8  -4  -6    5.27    2.09
   7  -4  -6   17.98    1.40
   7  -4  -6   16.88    3.38
  -7   4   6   17.83    1.19
   6  -4  -6   11.17    1.06
   6  -4  -6   11.13    2.49
  -6   4   6   11.37    1.08
   5  -4  -6    6.24    0.77
   5  -4  -6    7.64    1.89
  -5   4   6    6.50    0.36
  -5   4   6    7.77    0.85
   4  -4  -6    1.25    0.28
   4  -4  -6    0.77    0.33
   4  -4  -6    0.59    0.60
  -4   4   6    0.07    0.37
  -4   4   6    0.63    0.24
  -4   4   6    0.71    0.30
   3  -4  -6    2.32    0.47
   3  -4  -6    1.84    0.37
   3  -4  -6    2.21    0.88
  -3   4   6    1.88    0.41
  -3   4   6    2.17    0.39
  -3   4   6    2.36    1.21
   2  -4  -6    4.10    0.56
   2  -4  -6    3.75    0.56
  -2   4   6    4.59    1.32
  -2   4   6    5.53    0.69
   1  -4  -6   32.45    1.37
   1  -4  -6   34.60    1.41
  -1   4   6   33.01    2.92
  -1   4   6   30.49    2.49
  -1   4   6   33.53    1.37
  -1   4   6   33.17    1.37
   0  -4  -6   38.73    1.63
   0   4   6   40.92    1.60
   0   4   6   43.29    1.73
   0   4   6   41.41    1.65
   0   4   6   43.95    3.20
   0   4   6   44.49    3.23
  -1  -4  -6    2.90    0.64
   1   4   6    3.24    1.30
   1   4   6    2.49    0.55
   1   4   6    3.11    0.64
   1   4   6    2.20    0.47
   1   4   6    3.56    1.66
  -2  -4  -6    0.34    0.38
   2   4   6    0.66    0.80
   2   4   6    0.04    0.36
   2   4   6    0.10    0.27
   2   4   6    0.28    0.33
  -3  -4  -6    9.02    1.12
   3   4   6   13.41    1.31
   3   4   6   12.70    1.47
   3   4   6   14.67    1.37
   3   4   6   10.66    2.82
  -4  -4  -6    9.16    1.23
   4   4   6    8.32    1.10
   4   4   6    8.42    2.72
  -5  -4  -6    1.74    0.73
  -5  -4  -6    0.87    1.29
   5   4   6    2.54    0.74
   5   4   6    1.36    1.66
  -6  -4  -6    1.16    0.69
   6   4   6    0.24    0.53
   6   4   6    0.20    0.98
  10  -5  -6    6.86    2.56
  10  -5  -6   10.49    1.31
   9  -5  -6   16.54    3.66
   9  -5  -6   14.62    1.42
   8  -5  -6    0.94    0.47
   8  -5  -6   -0.12    0.51
   7  -5  -6    0.48    0.94
   7  -5  -6   -0.02    0.30
  -7   5   6    0.36    0.41
   6  -5  -6    4.30    0.72
   6  -5  -6    5.90    1.88
  -6   5   6    4.90    0.77
   5  -5  -6   26.66    2.54
   5  -5  -6   27.32    1.39
  -5   5   6   26.96    1.36
  -5   5   6   28.33    0.95
   4  -5  -6    7.11    1.51
   4  -5  -6    7.62    0.90
   4  -5  -6    8.69    0.94
  -4   5   6    9.30    0.94
  -4   5   6    8.71    0.62
   3  -5  -6   94.52    2.71
   3  -5  -6   91.92    2.49
   3  -5  -6   88.18    4.16
  -3   5   6   89.28    2.64
  -3   5   6   93.08    2.45
  -3   5   6   88.05    4.10
   2  -5  -6  118.24    3.12
   2  -5  -6  119.41    3.20
  -2   5   6  115.76    3.06
  -2   5   6  116.61    3.17
  -2   5   6  113.89    4.71
   1  -5  -6    0.33    0.36
  -1   5   6    0.01    0.23
  -1   5   6    0.11    0.31
  -1   5   6    0.51    0.58
  -1   5   6    0.16    0.30
   0  -5  -6   54.89    2.16
   0   5   6   54.59    2.10
   0   5   6   59.40    2.13
   0   5   6   60.06    2.28
   0   5   6   58.54    3.89
  -1  -5  -6   49.15    2.36
   1   5   6   52.82    2.05
   1   5   6   48.60    2.07
   1   5   6   52.55    4.00
  -2  -5  -6    2.12    0.59
   2   5   6    2.00    0.64
   2   5   6    1.81    1.12
  -3  -5  -6   11.80    1.39
   3   5   6   13.33    3.15
   3   5   6   10.43    1.25
  -4  -5  -6    0.74    0.59
   4   5   6    0.17    0.68
   4   5   6    0.27    0.51
  -5  -5  -6    6.14    1.15
   5   5   6    4.99    0.98
  10  -6  -6    0.52    1.16
  10  -6  -6   -0.37    0.78
   9  -6  -6    6.31    2.14
   9  -6  -6    4.96    0.94
   8  -6  -6    9.19    2.39
   8  -6  -6    7.04    0.96
   7  -6  -6   -0.03    0.53
   7  -6  -6    1.29    0.51
  -7   6   6    0.57    0.41
   6  -6  -6   79.98    4.62
   6  -6  -6   74.52    2.75
  -6   6   6   76.89    1.79
  -6   6   6   80.13    2.64
  -6   6   6   78.70    1.88
   5  -6  -6   29.21    1.49
   5  -6  -6   28.05    2.45
  -5   6   6   28.05    1.62
  -5   6   6   26.90    1.11
   4  -6  -6   21.06    1.94
   4  -6  -6   22.39    1.14
   4  -6  -6   19.55    1.25
  -4   6   6   22.78    1.10
  -4   6   6   22.03    1.54
   3  -6  -6   26.66    1.33
   3  -6  -6   29.49    1.48
  -3   6   6   32.01    1.94
  -3   6   6   26.04    1.30
   2  -6  -6   41.81    1.79
  -2   6   6   40.17    1.72
  -2   6   6   40.15    1.92
  -2   6   6   42.47    2.73
  -2   6   6   41.22    1.88
   1  -6  -6    1.84    0.56
  -1   6   6    2.47    0.84
  -1   6   6    1.80    0.54
  -1   6   6    0.47    0.45
  -1   6   6    1.82    0.93
   0  -6  -6    9.41    1.19
   0   6   6   13.76    2.60
   0   6   6   10.04    1.15
   0   6   6   11.71    1.28
  -1  -6  -6   -0.01    0.45
   1   6   6    0.37    0.42
   1   6   6    1.12    1.00
  -2  -6  -6   18.42    1.51
   2   6   6   20.21    1.51
   2   6   6   19.38    3.63
  -3  -6  -6    4.63    1.28
   3   6   6    0.97    1.24
   3   6   6    2.44    0.73
  -4  -6  -6    4.65    1.09
   4   6   6    3.66    0.89
  10  -7  -6    0.49    1.08
  10  -7  -6    0.14    0.53
   9  -7  -6    2.61    0.80
   9  -7  -6    3.61    1.75
   8  -7  -6   12.70    1.36
   8  -7  -6   17.61    3.11
   7  -7  -6    9.56    2.10
   7  -7  -6    8.28    1.05
   6  -7  -6    1.94    0.86
   6  -7  -6    1.46    0.54
  -6   7   6    0.49    0.31
  -6   7   6    1.42    0.61
   5  -7  -6   11.55    1.21
   5  -7  -6   14.83    1.95
  -5   7   6   16.47    1.47
  -5   7   6   12.96    0.90
  -5   7   6   13.33    1.02
   4  -7  -6    7.93    0.91
   4  -7  -6    4.55    0.79
  -4   7   6    6.75    0.86
  -4   7   6    8.98    1.06
   3  -7  -6    0.68    0.39
  -3   7   6    0.90    0.44
  -3   7   6    0.50    0.41
  -3   7   6    0.88    0.57
  -3   7   6    0.96    0.55
   2  -7  -6    0.97    0.65
  -2   7   6    1.47    0.60
  -2   7   6    1.49    0.70
  -2   7   6    1.54    0.58
   1  -7  -6    3.46    0.75
  -1   7   6    6.66    1.62
  -1   7   6    5.27    0.93
   0  -7  -6    1.97    0.71
   0   7   6    1.58    0.58
   0   7   6    0.84    0.73
  -1  -7  -6   -0.34    0.38
   1   7   6    0.62    0.51
   1   7   6    0.13    0.69
  -2  -7  -6    6.82    1.16
   2   7   6    6.95    2.26
   2   7   6    6.59    1.12
   9  -8  -6    9.70    1.94
   9  -8  -6    6.92    2.06
   8  -8  -6    0.53    0.49
   8  -8  -6    3.09    1.34
   7  -8  -6    1.07    0.57
   7  -8  -6    2.14    0.94
  -7   8   6    1.56    0.41
  -7   8   6    1.14    0.35
   6  -8  -6   23.57    1.82
   6  -8  -6   23.34    1.53
  -6   8   6   25.08    1.23
  -6   8   6   23.93    1.32
   5  -8  -6    1.20    0.57
  -5   8   6    0.42    0.49
  -5   8   6    0.77    0.44
   4  -8  -6    1.27    0.52
  -4   8   6    1.09    0.83
  -4   8   6    1.02    0.60
   3  -8  -6    0.16    0.44
  -3   8   6    0.47    0.50
  -3   8   6   -0.21    0.44
   2  -8  -6    5.88    0.97
  -2   8   6    3.62    0.87
   1  -8  -6    0.52    0.55
  -1   8   6    0.27    0.49
   0  -8  -6   12.29    1.51
   0   8   6    7.81    1.42
  -1  -8  -6    7.15    1.23
   1   8   6    7.90    1.31
   9  -9  -6    5.87    1.61
   9  -9  -6    5.72    1.09
   8  -9  -6    0.93    0.60
   8  -9  -6    1.48    0.75
   7  -9  -6    2.21    0.75
  -7   9   6    1.34    0.49
   6  -9  -6   -0.10    0.49
  -6   9   6   -0.03    0.48
  -6   9   6    0.06    0.47
  -5   9   6    5.60    1.09
  -5   9   6    7.08    1.09
  -5   9   6    5.92    0.97
  -4   9   6   11.60    1.45
  -4   9   6    7.73    1.24
   3  -9  -6    5.64    1.03
  -2   9   6   45.54    2.51
   1  -9  -6    5.54    1.07
  -1   9   6    4.80    1.05
  -7  10   6    0.69    0.95
  -6  10   6    0.50    0.58
  -6  10   6    0.68    0.71
  -5  10   6   12.56    1.56
  -5  10   6   10.47    1.52
  -4  10   6    6.12    1.18
  -4  10   6    7.40    1.75
  -3  10   6    0.15    0.70
  -3  11  -7    0.60    0.58
  -1 -10   7    3.15    1.18
   0  10  -7    2.21    0.73
  -1  10  -7   -0.23    0.44
  -2  10  -7    2.15    0.89
  -2  10  -7    2.59    0.71
  -3  10  -7    0.26    0.43
  -3  10  -7   -0.35    0.53
  -3  10  -7    0.88    0.58
  -4  10  -7    0.91    0.50
  -4  10  -7    0.71    0.74
  -5  10  -7    1.17    0.45
  -5  10  -7    1.10    0.76
  -6  10  -7    1.60    0.83
  -7  10  -7    1.27    0.74
  -2  -9   7    0.53    0.97
   1   9  -7    3.21    1.18
   1   9  -7    5.80    1.28
  -1  -9   7    9.34    2.14
   0   9  -7   10.98    1.31
   0   9  -7   12.24    1.62
   0  -9   7   17.54    2.28
  -1   9  -7    0.30    0.42
  -1   9  -7    1.99    0.92
  -2   9  -7   -0.17    0.42
  -2   9  -7    0.30    0.50
  -2   9  -7    0.42    0.39
  -3   9  -7    0.22    0.39
  -3   9  -7    0.24    0.38
  -3   9  -7   -0.27    0.46
  -4   9  -7    6.32    1.09
  -4   9  -7    5.85    0.74
  -4   9  -7    6.01    0.74
  -5   9  -7    1.74    0.73
  -5   9  -7    1.02    0.39
  -6   9  -7    4.77    0.42
  -6   9  -7    5.19    0.42
  -6   9  -7    4.81    0.96
   6  -9   7    5.40    1.01
   7  -9   7   22.74    2.76
   7  -9   7   20.24    2.68
  -8   9  -7    2.01    0.74
   8  -9   7    2.95    1.30
   8  -9   7    3.70    1.58
   3   8  -7    7.75    1.25
  -3  -8   7    4.72    1.97
   2   8  -7    1.85    0.63
   2   8  -7    0.31    0.56
   1   8  -7    2.90    1.31
   1   8  -7    3.43    0.78
   1   8  -7    4.22    1.10
  -1  -8   7    2.97    1.34
   0   8  -7    0.50    0.57
   0   8  -7    0.42    0.77
   0   8  -7    0.89    0.49
   0  -8   7    0.25    0.49
  -1   8  -7   15.96    1.72
  -1   8  -7   16.16    1.18
  -1   8  -7   19.27    1.57
   1  -8   7   18.19    1.69
  -2   8  -7   19.84    1.19
  -2   8  -7   20.36    1.60
  -2   8  -7   21.75    1.25
   2  -8   7   25.32    1.51
   2  -8   7   25.09    1.53
  -3   8  -7   10.95    0.83
  -3   8  -7   12.16    0.88
  -3   8  -7   11.93    1.41
  -4   8  -7   29.43    1.76
  -4   8  -7   34.40    1.89
  -4   8  -7   33.21    1.25
   4  -8   7   32.66    2.00
   4  -8   7   36.44    2.15
  -5   8  -7   20.80    0.83
  -5   8  -7   20.47    1.43
  -5   8  -7   21.50    0.83
  -5   8  -7   20.74    1.49
   5  -8   7   25.00    2.13
   5  -8   7   28.50    2.34
  -6   8  -7   -0.24    0.41
   6  -8   7    2.07    1.00
   6  -8   7    0.35    0.65
  -7   8  -7   11.67    1.40
   7  -8   7   10.71    2.39
   7  -8   7    7.35    2.10
  -8   8  -7    4.12    0.87
   8  -8   7    4.79    1.88
   8  -8   7    1.26    1.16
   4   7  -7   -0.05    0.40
   4   7  -7   -0.19    0.46
  -4  -7   7   -0.24    0.70
   3   7  -7    3.07    0.84
   3   7  -7    2.15    1.45
   3   7  -7    1.69    0.76
  -3  -7   7    3.33    1.60
   2   7  -7   13.55    1.59
   2   7  -7   17.66    3.32
   2   7  -7   14.51    1.49
  -2  -7   7   19.11    3.34
   1   7  -7    2.92    0.79
   1   7  -7    5.22    0.91
   1   7  -7    2.18    1.04
  -1  -7   7    2.28    0.68
  -1  -7   7    4.74    1.69
   0   7  -7   -0.17    0.29
   0   7  -7    0.35    0.45
   0   7  -7    0.66    0.67
   0  -7   7    1.04    0.76
   0  -7   7    0.40    0.37
  -1   7  -7   43.46    2.04
  -1   7  -7   43.49    2.15
  -1   7  -7   43.33    1.70
  -1   7  -7   36.82    2.64
   1  -7   7   40.21    2.75
  -2   7  -7   28.49    1.25
  -2   7  -7   25.60    1.19
  -2   7  -7   28.90    1.61
  -2   7  -7   28.27    1.69
   2  -7   7   30.90    2.27
  -3   7  -7   11.95    0.75
  -3   7  -7   15.03    0.82
  -3   7  -7   13.29    1.80
   3  -7   7   17.97    2.29
   3  -7   7   14.48    1.43
  -4   7  -7    7.08    0.51
  -4   7  -7    6.11    0.54
  -4   7  -7    6.12    0.96
   4  -7   7    9.07    1.77
   4  -7   7    6.89    1.53
  -5   7  -7    8.27    1.05
   5  -7   7    5.83    0.92
   5  -7   7    6.56    1.58
   5  -7   7    6.83    1.85
  -6   7  -7    4.29    0.77
   6  -7   7    4.36    1.60
   6  -7   7    3.17    0.75
   6  -7   7    1.51    1.27
  -7   7  -7    0.26    0.44
   7  -7   7    0.57    0.54
   7  -7   7    0.67    0.87
   7  -7   7    1.51    1.17
  -8   7  -7    1.67    0.57
   8  -7   7    3.73    0.85
   8  -7   7    3.23    1.87
   8  -7   7    1.32    1.03
   9  -7   7    3.29    1.87
   6   6  -7    0.89    0.85
   5   6  -7    0.85    1.29
   5   6  -7    0.25    0.40
  -5  -6   7   -0.12    0.77
   4   6  -7   -0.30    0.38
   4   6  -7   -0.34    0.30
   4   6  -7    0.46    0.79
   3   6  -7    4.45    0.85
   3   6  -7    3.83    0.92
   3   6  -7    3.76    1.56
  -3  -6   7    5.60    2.06
   2   6  -7    0.11    0.40
   2   6  -7    0.85    0.46
   2   6  -7    0.21    0.68
  -2  -6   7    0.16    0.37
  -2  -6   7    0.34    0.57
   1   6  -7    5.31    1.63
   1   6  -7    5.80    0.88
   1   6  -7    4.73    0.88
  -1  -6   7    3.75    0.72
  -1  -6   7    8.54    2.13
   0   6  -7   62.17    2.63
   0   6  -7   55.47    3.60
   0   6  -7   64.67    2.12
   0   6  -7   62.12    2.40
   0  -6   7   62.04    2.18
   0  -6   7   60.99    3.69
  -1   6  -7   34.91    1.39
  -1   6  -7   32.76    2.56
  -1   6  -7   38.42    1.87
   1  -6   7   40.82    2.76
   1  -6   7   36.79    1.47
  -2   6  -7    8.00    1.05
  -2   6  -7    6.93    0.56
  -2   6  -7    6.80    0.66
   2  -6   7    5.70    0.88
   2  -6   7    6.90    1.45
  -3   6  -7   28.18    0.93
  -3   6  -7   26.79    1.47
  -3   6  -7   27.88    0.95
   3  -6   7   26.52    1.51
   3  -6   7   27.89    2.34
   3  -6   7   27.61    2.42
  -4   6  -7   14.83    1.10
   4  -6   7   15.19    2.54
   4  -6   7   16.70    2.59
   4  -6   7   14.50    1.13
  -5   6  -7    1.84    0.53
   5  -6   7    2.94    1.32
   5  -6   7    2.52    0.62
   5  -6   7    1.14    0.98
  -6   6  -7    0.65    0.43
   6  -6   7    0.23    0.83
   6  -6   7    1.10    0.51
   6  -6   7    0.86    0.94
  -7   6  -7    0.28    0.41
   7  -6   7    1.31    1.15
   7  -6   7    1.37    0.61
   7  -6   7    1.46    1.24
  -8   6  -7    0.15    0.42
   8  -6   7    0.27    0.52
   8  -6   7    0.43    1.02
   8  -6   7    1.02    1.05
  -9   6  -7    1.90    0.58
   9  -6   7    0.03    0.96
   7   5  -7   -0.10    0.56
   6   5  -7   10.91    3.38
   6   5  -7    5.41    1.02
   6   5  -7    8.49    1.40
   5   5  -7    9.43    1.31
   5   5  -7   10.13    3.03
   5   5  -7   10.58    1.43
  -5  -5   7   11.63    3.38
   4   5  -7    4.17    0.95
   4   5  -7    3.35    0.74
   4   5  -7    2.06    1.29
   3   5  -7   87.27    5.71
   3   5  -7   91.96    2.99
   3   5  -7   91.91    3.06
   3   5  -7   86.52    3.15
  -3  -5   7   92.86    3.10
  -3  -5   7   86.69    5.64
   2   5  -7  113.24    4.16
   2   5  -7  116.90    3.31
   2   5  -7  115.99    3.60
   2   5  -7  123.60    6.32
  -2  -5   7  112.42    3.35
  -2  -5   7  114.62    6.12
   1   5  -7    6.63    1.76
   1   5  -7    6.00    0.98
   1   5  -7    8.25    0.98
   1   5  -7    4.79    0.76
  -1  -5   7    5.62    0.79
  -1  -5   7    5.17    1.62
   0   5  -7  111.15    2.79
   0   5  -7  104.28    3.22
   0   5  -7  104.17    4.96
   0  -5   7  104.60    4.88
   0  -5   7  106.23    3.26
   0  -5   7  104.29    2.83
  -1   5  -7   42.94    1.85
  -1   5  -7   41.89    1.41
   1  -5   7   43.70    2.92
   1  -5   7   41.89    1.44
   1  -5   7   45.08    1.89
  -2   5  -7    3.62    0.68
  -2   5  -7    3.83    0.43
  -2   5  -7    3.01    0.38
   2  -5   7    4.61    0.73
   2  -5   7    3.89    1.18
  -3   5  -7    5.38    0.78
  -3   5  -7    4.70    0.28
  -3   5  -7    4.62    0.28
   3  -5   7    5.90    1.49
   3  -5   7    5.90    0.85
   3  -5   7    3.35    1.32
  -4   5  -7    6.73    0.88
   4  -5   7    7.86    1.95
   4  -5   7    6.58    1.83
   4  -5   7    7.24    0.89
  -5   5  -7   36.95    1.60
   5  -5   7   40.87    3.67
   5  -5   7   37.37    1.71
   5  -5   7   40.15    3.70
  -6   5  -7    0.29    0.34
   6  -5   7    1.09    1.05
   6  -5   7    0.17    0.40
  -7   5  -7   32.91    1.49
   7  -5   7   30.32    4.76
   7  -5   7   30.50    4.81
   7  -5   7   34.02    1.69
  -8   5  -7   27.98    1.40
   8  -5   7   26.88    1.54
   8  -5   7   22.76    4.50
  -9   5  -7    1.77    0.53
   9  -5   7    1.23    1.35
   8   4  -7    3.37    1.05
   7   4  -7    1.51    0.70
   7   4  -7   -0.09    0.85
   7   4  -7    0.34    0.53
   6   4  -7   20.65    1.52
   6   4  -7   21.37    4.51
   6   4  -7   21.66    1.60
   5   4  -7   36.16    5.47
   5   4  -7   37.23    1.98
   5   4  -7   36.59    1.86
   5   4  -7   36.29    1.90
  -5  -4   7   31.93    5.55
   4   4  -7   -0.21    0.36
   4   4  -7   -0.32    0.31
   4   4  -7    0.13    0.33
   4   4  -7   -0.31    0.26
  -4  -4   7    0.07    0.51
  -4  -4   7    0.62    0.43
   3   4  -7    0.83    0.41
   3   4  -7    1.21    0.94
   3   4  -7    0.00    0.30
   3   4  -7    0.27    0.40
  -3  -4   7    1.23    0.45
   2   4  -7   33.89    1.48
   2   4  -7   34.49    1.58
   2   4  -7   35.81    3.23
   2   4  -7   36.40    1.70
  -2  -4   7   35.43    3.17
  -2  -4   7   34.52    1.56
   1   4  -7    0.35    0.34
   1   4  -7    1.12    0.35
   1   4  -7    0.72    0.56
  -1  -4   7    1.07    0.38
  -1  -4   7    1.02    0.42
  -1  -4   7    1.58    0.89
   0   4  -7    0.30    0.29
   0   4  -7    0.21    0.55
   0   4  -7   -0.10    0.18
   0  -4   7    0.39    0.52
   0  -4   7    0.39    0.30
   0  -4   7   -0.10    0.18
  -1   4  -7   48.41    1.34
  -1   4  -7   45.15    3.08
  -1   4  -7   50.05    1.86
   1  -4   7   52.31    3.16
   1  -4   7   46.42    1.37
   1  -4   7   47.30    1.83
  -2   4  -7   63.65    1.38
  -2   4  -7   66.85    2.17
  -2   4  -7   62.02    1.37
   2  -4   7   67.04    3.74
   2  -4   7   62.54    2.14
  -3   4  -7    2.94    0.54
   3  -4   7    3.42    1.32
   3  -4   7    2.63    0.54
  -4   4  -7   65.27    2.15
   4  -4   7   68.82    4.56
   4  -4   7   66.34    2.23
   4  -4   7   55.79    4.15
  -5   4  -7   86.17    2.54
   5  -4   7   83.11    6.13
   5  -4   7   85.96    2.65
   5  -4   7   79.82    5.41
  -6   4  -7    5.60    0.74
   6  -4   7    1.28    1.32
   6  -4   7    4.60    1.81
   6  -4   7    6.87    0.89
  -7   4  -7    2.80    0.61
   7  -4   7    2.39    1.73
   7  -4   7    3.42    0.73
  -8   4  -7    3.84    0.72
   8  -4   7    2.34    1.47
   8  -4   7    3.66    0.75
  -9   4  -7    0.13    0.44
   9  -4   7    0.56    1.18
   8   3  -7    4.26    0.96
   8   3  -7    4.24    2.53
   7   3  -7   15.97    1.57
   7   3  -7   13.46    3.63
  -7  -3   7   14.57    3.96
   6   3  -7   11.13    1.28
   6   3  -7    8.70    1.13
   6   3  -7    9.24    3.00
  -6  -3   7    8.44    2.74
   5   3  -7    0.50    0.40
   5   3  -7    0.34    0.42
   5   3  -7    1.13    0.46
   5   3  -7    1.48    1.39
  -5  -3   7    0.22    0.70
   4   3  -7   50.58    1.95
   4   3  -7   51.90    2.06
   4   3  -7   52.30    2.03
   4   3  -7   51.02    4.44
  -4  -3   7   56.04    2.27
  -4  -3   7   48.40    4.34
   3   3  -7   16.59    1.02
   3   3  -7   14.39    1.01
   3   3  -7   12.83    0.91
   3   3  -7   17.99    3.35
  -3  -3   7   13.75    2.91
  -3  -3   7   11.15    0.90
   2   3  -7    4.03    0.62
   2   3  -7    3.92    0.69
   2   3  -7    4.64    1.70
  -2  -3   7    5.20    1.65
  -2  -3   7    3.50    0.62
  -2  -3   7    3.46    0.66
   1   3  -7    4.92    1.43
   1   3  -7    4.86    0.70
   1   3  -7    5.05    0.59
  -1  -3   7    4.87    0.70
  -1  -3   7    5.58    0.68
   0   3  -7   26.90    1.27
   0   3  -7   33.32    2.64
   0   3  -7   27.40    0.96
   0  -3   7   28.94    1.31
   0  -3   7   27.81    2.36
   0  -3   7   26.63    0.99
  -1   3  -7    4.78    0.69
  -1   3  -7    3.82    1.26
  -1   3  -7    3.82    0.31
   1  -3   7    4.16    0.39
   1  -3   7    4.56    0.66
   1  -3   7    3.25    1.14
  -2   3  -7   39.93    1.53
   2  -3   7   33.45    2.80
   2  -3   7   38.65    1.52
  -3   3  -7   75.12    2.27
   3  -3   7   74.19    2.30
   3  -3   7   81.02    5.45
  -4   3  -7   28.30    1.29
   4  -3   7   31.79    4.18
   4  -3   7   31.46    4.14
   4  -3   7   26.27    1.29
  -5   3  -7    0.27    0.34
   5  -3   7    0.14    0.56
   5  -3   7    1.80    1.29
   5  -3   7   -0.28    0.32
  -6   3  -7   14.02    0.99
   6  -3   7   15.32    0.55
   6  -3   7   19.36    3.91
   6  -3   7   15.07    1.09
  -7   3  -7    6.48    0.88
   7  -3   7    3.74    1.88
   7  -3   7    6.19    0.94
   7  -3   7    5.23    0.47
  -8   3  -7    4.62    0.76
   8  -3   7    3.78    0.84
   8  -3   7    3.97    2.25
  -9   3  -7    1.49    0.57
   9  -3   7    1.02    0.37
   9  -3   7    1.38    0.88
   9  -3   7    2.83    2.13
   9   2  -7   12.38    1.39
   9   2  -7   12.95    4.18
   8   2  -7    0.02    0.42
   8   2  -7    0.01    0.38
   8   2  -7    0.43    1.22
   8   2  -7    0.29    0.45
  -8  -2   7    0.23    1.29
   7   2  -7   22.35    4.49
   7   2  -7   26.08    1.51
   7   2  -7   21.82    1.36
   7   2  -7   24.25    1.62
  -7  -2   7   27.34    5.24
   6   2  -7   17.51    1.18
   6   2  -7   18.73    3.90
   6   2  -7   15.91    1.09
   6   2  -7   15.25    1.48
  -6  -2   7   20.31    4.29
   5   2  -7   -0.02    0.27
   5   2  -7    0.30    0.57
   5   2  -7    0.02    0.34
   5   2  -7    0.54    0.35
  -5  -2   7    0.41    0.34
  -5  -2   7    0.08    0.56
   4   2  -7    3.38    0.64
   4   2  -7    3.32    0.59
   4   2  -7    2.48    1.26
   4   2  -7    4.15    0.68
  -4  -2   7    3.26    0.62
  -4  -2   7    4.34    1.70
   3   2  -7   23.26    3.51
   3   2  -7   21.65    1.14
   3   2  -7   23.09    1.15
  -3  -2   7   30.73    4.21
  -3  -2   7   22.75    1.17
  -3  -2   7   23.53    1.18
   2   2  -7   62.65    1.85
   2   2  -7   55.07    4.41
   2   2  -7   66.03    2.01
  -2  -2   7   58.01    3.81
  -2  -2   7   58.13    2.34
  -2  -2   7   61.31    2.07
   1   2  -7    2.97    1.16
   1   2  -7    3.58    0.56
   1   2  -7    3.50    0.46
  -1  -2   7    3.85    0.61
  -1  -2   7    4.14    0.53
  -1  -2   7    3.77    1.30
   0   2  -7  120.61    2.97
   0   2  -7  116.12    2.48
   0   2  -7  115.03    5.11
   0  -2   7  119.08    2.53
   0  -2   7  118.02    2.97
   0  -2   7  119.27    4.99
  -1   2  -7  306.59    6.26
  -1   2  -7  310.75    9.51
  -1   2  -7  311.78    5.49
   1  -2   7  306.51    6.27
   1  -2   7  309.73    5.52
   1  -2   7  308.28    9.21
  -2   2  -7    8.50    0.68
   2  -2   7   10.39    1.36
   2  -2   7   11.68    2.32
   2  -2   7    7.66    1.70
  -3   2  -7   50.50    1.74
   3  -2   7   57.09    4.03
   3  -2   7   61.45    4.15
   3  -2   7   52.19    1.79
  -4   2  -7   57.37    1.92
   4  -2   7   56.34    1.97
   4  -2   7   58.99    1.26
   4  -2   7   53.88    4.27
   4  -2   7   56.19    1.23
  -5   2  -7    4.66    0.71
   5  -2   7    4.24    0.40
   5  -2   7    3.76    0.38
   5  -2   7    4.35    0.72
   5  -2   7    4.20    1.91
  -6   2  -7    0.52    0.37
   6  -2   7   -0.03    0.20
   6  -2   7   -0.43    0.59
   6  -2   7    0.88    0.48
  -7   2  -7    0.14    0.34
   7  -2   7   -0.40    0.37
   7  -2   7    0.25    0.26
   7  -2   7    0.54    0.95
  -8   2  -7    3.40    0.75
   8  -2   7    3.65    0.59
   8  -2   7    2.12    0.68
  -9   2  -7    0.16    0.50
   9  -2   7    0.04    0.93
   9  -2   7    0.11    0.39
   9   1  -7    3.58    0.72
   9   1  -7    4.27    0.82
   9   1  -7    9.78    3.52
   9   1  -7    4.03    1.27
   8   1  -7   -0.21    0.66
   8   1  -7   -0.06    0.36
   8   1  -7    0.36    0.43
   8   1  -7   -0.04    0.32
   7   1  -7    0.00    0.75
   7   1  -7    0.48    0.41
   7   1  -7    0.04    0.30
   7   1  -7   -0.27    0.24
   6   1  -7    7.58    0.88
   6   1  -7    8.40    0.89
   6   1  -7    8.64    1.05
   6   1  -7   10.12    2.78
  -6  -1   7    8.33    1.06
  -6  -1   7    4.53    1.91
   5   1  -7   73.98    5.28
   5   1  -7   65.80    2.10
   5   1  -7   66.71    2.00
   5   1  -7   67.21    2.32
  -5  -1   7   67.85    5.21
  -5  -1   7   60.84    2.26
   4   1  -7   10.40    0.81
   4   1  -7   13.34    0.84
   4   1  -7   11.83    0.75
   4   1  -7   15.96    3.14
  -4  -1   7   12.70    0.90
  -4  -1   7   19.86    3.59
   3   1  -7  108.32    2.76
   3   1  -7   98.26    5.36
   3   1  -7  106.73    2.80
  -3  -1   7  107.47    2.71
  -3  -1   7  108.22    2.79
  -3  -1   7  110.64    5.62
   2   1  -7  460.52    8.73
   2   1  -7  462.50    8.61
   2   1  -7  449.66   12.51
  -2  -1   7  470.01    8.74
  -2  -1   7  443.07   12.33
  -2  -1   7  467.17    8.63
   1   1  -7   36.98    2.81
   1   1  -7   37.35    1.18
   1   1  -7   37.55    1.34
  -1  -1   7   39.01    1.37
  -1  -1   7   43.19    2.97
  -1  -1   7   38.63    1.19
   0   1  -7   42.28    2.91
   0   1  -7   37.76    1.06
   0  -1   7   36.73    1.34
   0  -1   7   39.98    2.82
   0  -1   7   38.58    1.07
  -1   1  -7  169.46    3.76
  -1   1  -7  169.33    3.19
  -1   1  -7  170.82    6.55
   1  -1   7  164.18    3.76
   1  -1   7  170.65    6.43
   1  -1   7  165.29    3.18
  -2   1  -7   11.49    0.75
   2  -1   7   14.22    2.52
   2  -1   7   11.12    0.47
   2  -1   7   11.03    0.44
   2  -1   7    9.58    0.98
   2  -1   7    9.86    2.10
  -3   1  -7    3.39    0.58
   3  -1   7    4.08    1.49
   3  -1   7    2.87    1.40
   3  -1   7    1.97    0.47
   3  -1   7    3.00    0.35
   3  -1   7    2.91    0.33
  -4   1  -7   -0.20    0.24
   4  -1   7   -0.04    0.17
   4  -1   7    0.16    0.18
   4  -1   7    0.99    0.92
   4  -1   7   -0.21    0.21
  -5   1  -7   41.16    1.67
   5  -1   7   41.70    5.37
   5  -1   7   39.59    1.71
  -6   1  -7   10.32    1.10
  -6   1  -7   10.03    0.91
   6  -1   7   11.03    3.10
   6  -1   7    7.67    0.97
   6  -1   7    9.01    0.72
  -7   1  -7    9.29    0.97
  -7   1  -7    9.55    1.14
   7  -1   7    9.85    3.18
   7  -1   7    8.48    1.10
   7  -1   7    7.85    0.84
  -8   1  -7   24.04    1.52
   8  -1   7   24.34    1.34
   8  -1   7   19.85    4.44
  -9   1  -7    2.43    0.78
   9  -1   7    2.22    1.77
   9  -1   7    3.24    0.71
  10   0  -7    1.53    1.91
   9   0  -7    2.88    0.56
   9   0  -7    3.06    2.17
   9   0  -7    1.55    0.65
   9   0  -7    2.20    0.49
   8   0  -7    8.37    1.19
   8   0  -7    6.75    0.75
   8   0  -7    6.84    2.76
   8   0  -7    8.24    0.81
   7   0  -7    5.07    0.82
   7   0  -7    6.81    2.32
  -7   0   7    3.44    1.93
   6   0  -7    6.38    2.28
   6   0  -7   10.91    0.71
   6   0  -7   12.52    1.28
   6   0  -7   11.15    1.19
  -6   0   7   11.72    3.15
  -6   0   7   13.58    1.32
   5   0  -7   39.66    1.37
   5   0  -7   41.75    5.23
   5   0  -7   38.46    1.30
   5   0  -7   38.39    1.63
  -5   0   7   48.37    5.72
  -5   0   7   36.32    1.61
   4   0  -7   45.60    1.45
   4   0  -7   41.99    3.62
   4   0  -7   46.60    1.69
  -4   0   7   46.71    1.48
  -4   0   7   45.67    1.67
  -4   0   7   42.06    3.60
   3   0  -7    3.53    0.46
   3   0  -7    2.30    1.24
   3   0  -7    4.66    0.62
  -3   0   7    4.24    1.42
  -3   0   7    3.92    0.50
  -3   0   7    3.47    0.54
   2   0  -7    2.52    0.52
   2   0  -7    2.38    0.41
   2   0  -7    2.26    0.98
  -2   0   7    2.55    0.42
  -2   0   7    2.68    0.43
  -2   0   7    2.52    1.59
   1   0  -7   25.60    1.02
   1   0  -7   23.67    2.24
   1   0  -7   23.93    0.89
  -1   0   7   28.38    2.39
  -1   0   7   24.04    0.90
  -1   0   7   23.40    0.99
   0   0  -7    0.15    0.45
   0   0  -7    0.64    0.21
   0   0  -7    0.16    0.25
   0   0   7    0.65    0.29
   0   0   7    0.34    0.19
   0   0   7    0.28    0.50
  -1   0  -7    7.98    0.65
  -1   0  -7    9.07    0.49
   1   0   7    8.79    0.48
   1   0   7    8.13    0.66
   1   0   7    6.80    1.98
  -2   0  -7   79.72    2.25
   2   0   7   72.88    4.54
   2   0   7   75.85    1.89
   2   0   7   77.47    2.24
   2   0   7   73.52    4.59
   2   0   7   80.33    1.86
  -3   0  -7   23.13    1.15
   3   0   7   28.17    4.22
   3   0   7   21.16    0.87
   3   0   7   21.28    0.91
   3   0   7   20.07    1.11
   3   0   7   24.03    3.66
  -4   0  -7    5.44    0.76
   4   0   7    5.47    0.62
   4   0   7    5.63    0.62
   4   0   7    9.87    2.73
   4   0   7    6.98    0.85
  -5   0  -7   18.47    3.64
  -5   0  -7   28.03    1.48
   5   0   7   25.35    1.46
   5   0   7   29.84    4.83
   5   0   7   31.95    1.32
  -6   0  -7   10.21    3.22
  -6   0  -7   14.20    1.22
  -6   0  -7   12.37    1.53
   6   0   7   14.31    0.99
   6   0   7   13.57    1.35
   6   0   7   12.94    3.34
  -7   0  -7    1.51    0.56
  -7   0  -7    2.26    0.76
   7   0   7    3.57    2.08
   7   0   7    2.42    0.58
  -8   0  -7    0.15    0.50
   8   0   7    0.34    0.44
   8   0   7    0.67    0.97
  10  -1  -7    1.05    1.50
   9  -1  -7    0.81    1.04
   9  -1  -7    2.90    0.75
   8  -1  -7    0.39    0.87
   8  -1  -7    0.22    0.21
   8  -1  -7   -0.03    0.20
   8  -1  -7    0.31    0.45
   7  -1  -7   42.28    1.19
   7  -1  -7   38.28    1.86
   7  -1  -7   44.53    6.18
   7  -1  -7   41.55    1.23
  -7   1   7   40.58    1.92
   6  -1  -7   92.53    2.16
   6  -1  -7   95.70    6.19
   6  -1  -7   91.90    2.11
  -6   1   7  100.14    6.57
  -6   1   7   92.07    2.87
   5  -1  -7   20.46    0.81
   5  -1  -7   19.99    1.13
   5  -1  -7   20.71    0.78
   5  -1  -7   26.02    4.12
  -5   1   7   22.19    3.59
  -5   1   7   19.73    1.11
   4  -1  -7   64.45    1.67
   4  -1  -7   67.48    2.06
  -4   1   7   68.10    4.47
  -4   1   7   64.62    2.02
  -4   1   7   65.46    1.72
   3  -1  -7  123.16    2.73
   3  -1  -7  122.79    2.99
   3  -1  -7  133.80    5.84
  -3   1   7  119.36    2.75
  -3   1   7  128.04    2.99
  -3   1   7  124.57    5.71
   2  -1  -7   25.00    1.01
   2  -1  -7   24.84    0.95
   2  -1  -7   25.59    2.34
  -2   1   7   23.49    0.97
  -2   1   7   22.90    0.94
  -2   1   7   24.67    2.32
   1  -1  -7    2.03    0.35
   1  -1  -7    1.43    0.35
   1  -1  -7    2.32    1.07
  -1   1   7    2.28    0.99
  -1   1   7    1.57    0.35
  -1   1   7    1.72    0.34
   0  -1  -7    3.72    0.45
   0  -1  -7    3.82    0.52
   0  -1  -7    1.86    0.89
   0   1   7    3.31    0.52
   0   1   7    3.65    0.44
   0   1   7    3.97    1.26
  -1  -1  -7    0.14    0.24
   1   1   7    0.31    0.55
   1   1   7    0.21    0.41
   1   1   7    0.92    0.32
   1   1   7    0.65    0.24
  -2  -1  -7   14.23    0.91
   2   1   7   14.29    0.74
   2   1   7   19.41    3.21
   2   1   7   19.85    3.34
   2   1   7   13.60    0.89
   2   1   7   14.61    0.80
  -3  -1  -7   25.24    1.29
   3   1   7   25.40    1.14
   3   1   7   30.92    4.18
   3   1   7   26.63    1.10
   3   1   7   24.09    1.26
  -4  -1  -7   58.92    2.19
   4   1   7   72.39    5.47
   4   1   7   62.53    2.24
   4   1   7   63.53    1.97
   4   1   7   62.37    2.03
  -5  -1  -7   19.05    4.08
   5   1   7   21.95    1.22
   5   1   7   15.35    3.46
   5   1   7   20.41    1.16
   5   1   7   19.78    1.31
  -6  -1  -7    3.86    0.79
   6   1   7    2.98    0.66
   6   1   7    4.07    2.03
  -7  -1  -7    6.93    1.08
   7   1   7    7.88    1.02
   7   1   7    5.84    2.41
   8   1   7    4.76    0.90
   8   1   7    2.99    2.13
  10  -2  -7   11.11    1.42
  10  -2  -7    8.17    3.22
   9  -2  -7   34.41    1.92
   9  -2  -7   23.51    5.34
   8  -2  -7    8.13    1.12
   8  -2  -7    9.67    2.94
   7  -2  -7   14.95    1.14
   7  -2  -7   14.18    3.10
  -7   2   7   14.20    1.39
   6  -2  -7   45.77    5.54
   6  -2  -7   38.21    1.69
  -6   2   7   37.07    1.65
  -6   2   7   40.41    5.35
   5  -2  -7    2.46    0.50
   5  -2  -7    3.85    1.90
   5  -2  -7    3.26    0.32
  -5   2   7    2.66    0.32
  -5   2   7    2.53    0.53
   4  -2  -7   15.26    2.81
   4  -2  -7   12.34    0.57
   4  -2  -7   13.69    0.85
  -4   2   7   13.23    0.62
  -4   2   7   15.44    2.74
  -4   2   7   13.76    0.85
   3  -2  -7    5.33    1.51
   3  -2  -7    5.82    0.54
   3  -2  -7    4.73    0.60
  -3   2   7    4.86    1.55
  -3   2   7    4.98    0.61
  -3   2   7    4.74    0.53
   2  -2  -7   94.09    4.61
   2  -2  -7   95.83    2.31
   2  -2  -7   96.89    2.43
  -2   2   7   94.90    2.32
  -2   2   7   91.23    4.49
   1  -2  -7   98.72    4.75
   1  -2  -7  100.33    2.49
   1  -2  -7  102.94    2.52
  -1   2   7  100.41    2.50
  -1   2   7   99.79    2.46
  -1   2   7   92.67    4.54
   0  -2  -7   41.94    1.41
   0  -2  -7   45.33    1.55
   0   2   7   43.30    3.13
   0   2   7   44.39    1.54
   0   2   7   44.12    1.64
  -1  -2  -7  238.36    5.16
   1   2   7  235.11    4.89
   1   2   7  230.92    8.52
   1   2   7  240.21    5.03
   1   2   7  226.54    8.52
  -2  -2  -7   88.96    2.68
   2   2   7   90.94    2.54
   2   2   7   93.38    5.49
   2   2   7   89.79    2.43
   2   2   7   85.37    5.26
   2   2   7   86.78    2.63
  -3  -2  -7    0.57    0.39
   3   2   7    0.00    0.30
   3   2   7    1.63    1.09
   3   2   7    0.13    0.26
   3   2   7   -0.10    0.27
   4   2   7   62.27    5.21
   4   2   7   64.11    2.39
   4   2   7   66.04    2.20
   4   2   7   66.46    2.28
  -5  -2  -7    7.56    1.12
  -5  -2  -7    6.83    2.65
   5   2   7    7.14    2.60
   5   2   7    6.94    1.06
   5   2   7    6.14    0.87
  -6  -2  -7   -0.07    0.98
  -6  -2  -7    1.54    0.65
   6   2   7    0.94    1.21
   6   2   7    0.21    0.47
   7   2   7    4.71    2.87
  10  -3  -7    0.56    1.23
  10  -3  -7    0.91    0.59
   9  -3  -7   -0.22    0.62
   9  -3  -7    1.05    0.51
   8  -3  -7    2.60    0.65
   8  -3  -7    3.14    1.81
   7  -3  -7    5.01    2.11
   7  -3  -7    2.62    0.62
  -7   3   7    2.56    0.62
   6  -3  -7    2.78    1.44
   6  -3  -7    4.45    0.69
  -6   3   7    4.37    0.73
   5  -3  -7   21.43    0.64
   5  -3  -7   22.23    3.37
   5  -3  -7   20.70    1.16
  -5   3   7   22.74    1.17
  -5   3   7   21.21    0.68
  -5   3   7   22.97    3.58
   4  -3  -7   34.46    3.24
   4  -3  -7   32.98    1.02
   4  -3  -7   32.08    1.38
  -4   3   7   32.69    1.04
  -4   3   7   31.94    1.35
   3  -3  -7    1.89    0.93
   3  -3  -7    2.10    0.43
   3  -3  -7    2.72    0.42
  -3   3   7    2.93    0.48
  -3   3   7    2.42    0.96
  -3   3   7    2.56    0.38
   2  -3  -7  122.64    5.25
   2  -3  -7  120.50    3.00
   2  -3  -7  126.95    2.92
  -2   3   7  111.55    5.02
  -2   3   7  121.49    2.88
  -2   3   7  120.20    2.98
   1  -3  -7  109.42    2.79
   1  -3  -7  111.03    2.81
   1  -3  -7  104.96    5.01
  -1   3   7   99.85    4.79
  -1   3   7  110.38    2.77
  -1   3   7  106.78    2.74
   0  -3  -7    3.70    0.58
   0  -3  -7    2.87    0.53
   0   3   7    6.67    1.61
   0   3   7    2.86    0.52
   0   3   7    3.64    0.54
   0   3   7    5.20    1.60
  -1  -3  -7   16.20    1.06
   1   3   7   18.68    1.09
   1   3   7   18.01    1.07
   1   3   7   19.80    3.13
   1   3   7   16.75    0.97
   1   3   7   22.90    3.40
  -2  -3  -7   10.23    1.16
   2   3   7    8.53    0.96
   2   3   7    9.89    0.99
   2   3   7    9.19    2.36
   2   3   7    9.04    2.26
   2   3   7    9.61    0.99
  -3  -3  -7    1.66    0.68
   3   3   7    2.26    1.30
   3   3   7    3.01    0.60
   3   3   7    1.45    0.51
   3   3   7    1.06    0.45
  -4  -3  -7    0.05    0.38
   4   3   7    0.18    0.39
   4   3   7    0.66    1.08
   4   3   7   -0.22    0.30
  -5  -3  -7    6.62    1.09
   5   3   7    5.08    2.19
   5   3   7    6.50    0.98
  -6  -3  -7    4.78    1.19
   6   3   7    6.12    2.64
   6   3   7    4.53    0.89
   7   3   7    0.25    1.42
   7   3   7    0.14    0.53
  10  -4  -7    5.85    1.05
  10  -4  -7    4.29    2.15
   9  -4  -7    3.47    1.80
   9  -4  -7    1.98    0.69
   8  -4  -7    0.06    0.35
   8  -4  -7    1.01    1.00
   7  -4  -7    5.89    0.87
   7  -4  -7    7.56    2.32
  -7   4   7    5.40    0.87
   6  -4  -7    4.78    0.72
   6  -4  -7    7.05    1.95
  -6   4   7    4.27    0.70
   5  -4  -7    3.79    1.38
   5  -4  -7    3.94    0.66
   5  -4  -7    4.30    0.40
  -5   4   7    4.29    0.40
  -5   4   7    4.32    0.71
   4  -4  -7   37.09    1.19
   4  -4  -7   36.04    1.51
   4  -4  -7   31.75    2.78
  -4   4   7   34.79    1.17
  -4   4   7   36.20    1.49
  -4   4   7   33.94    2.91
   3  -4  -7   50.65    3.35
   3  -4  -7   50.52    1.82
   3  -4  -7   52.67    1.64
  -3   4   7   51.41    3.36
  -3   4   7   54.50    1.64
  -3   4   7   54.93    1.87
   2  -4  -7   12.21    0.83
   2  -4  -7   11.52    0.83
   2  -4  -7   12.66    2.23
  -2   4   7   11.52    1.97
  -2   4   7   13.49    0.87
  -2   4   7   11.16    0.77
   1  -4  -7   -0.04    0.27
   1  -4  -7    0.79    0.35
  -1   4   7    0.53    0.28
  -1   4   7    0.28    0.59
  -1   4   7    0.50    0.31
  -1   4   7    0.77    0.73
   0  -4  -7   50.71    1.92
   0   4   7   48.55    1.79
   0   4   7   43.64    3.42
   0   4   7   50.26    1.88
   0   4   7   43.41    3.45
   0   4   7   48.29    1.90
  -1  -4  -7   22.02    1.32
   1   4   7   24.17    1.35
   1   4   7   20.43    3.23
   1   4   7   22.47    1.32
   1   4   7   21.83    1.22
  -2  -4  -7    9.15    1.09
   2   4   7    8.81    1.18
   2   4   7    7.76    1.00
   2   4   7    6.95    0.95
   2   4   7    5.39    1.94
  -3  -4  -7   12.52    1.37
   3   4   7   12.40    1.27
   3   4   7   10.39    2.93
   3   4   7    9.61    1.11
  -4  -4  -7    0.02    0.44
   4   4   7    0.67    0.45
   4   4   7    0.84    0.96
   5   4   7    0.74    1.20
   5   4   7   -0.09    0.39
   6   4   7    3.02    0.81
  10  -5  -7   -0.21    0.81
  10  -5  -7    0.75    0.59
   9  -5  -7    6.82    1.05
   9  -5  -7   11.48    3.20
   8  -5  -7    1.78    1.34
   8  -5  -7    3.16    0.71
   7  -5  -7    3.21    1.52
   7  -5  -7    4.12    0.78
  -7   5   7    2.77    0.67
   6  -5  -7   51.75    2.99
   6  -5  -7   51.21    4.05
  -6   5   7   52.70    2.06
   5  -5  -7  129.44    5.94
   5  -5  -7  116.50    3.37
   5  -5  -7  125.30    2.75
  -5   5   7  123.76    3.41
   4  -5  -7    5.17    1.52
   4  -5  -7    3.22    0.60
   4  -5  -7    3.27    0.49
  -4   5   7    2.41    0.53
  -4   5   7    5.04    0.59
   3  -5  -7   84.83    2.40
   3  -5  -7   78.84    2.52
   3  -5  -7   78.21    4.17
  -3   5   7   83.04    2.35
  -3   5   7   82.47    2.55
   2  -5  -7   43.87    1.73
   2  -5  -7   44.10    1.78
  -2   5   7   42.48    1.68
  -2   5   7   43.15    1.74
   1  -5  -7    9.30    1.01
  -1   5   7    7.77    0.86
  -1   5   7    8.82    0.98
  -1   5   7    7.83    1.01
  -1   5   7   10.91    3.24
   0  -5  -7    0.14    0.36
   0   5   7    1.71    1.01
   0   5   7    0.80    0.52
   0   5   7    0.22    0.37
   0   5   7    0.81    0.41
  -1  -5  -7    3.80    0.80
   1   5   7    4.93    1.69
   1   5   7    3.11    0.72
   1   5   7    5.64    0.90
   1   5   7    3.39    0.87
  -2  -5  -7   18.86    1.41
   2   5   7   17.92    3.55
   2   5   7   14.61    1.41
  -3  -5  -7    0.38    0.51
   3   5   7    0.80    0.49
   3   5   7    1.14    1.23
  -4  -5  -7   18.75    2.25
   4   5   7   29.23    5.12
   4   5   7   27.83    1.77
   5   5   7    9.68    1.29
  10  -6  -7   -0.07    0.49
  10  -6  -7    0.56    1.18
   9  -6  -7   22.04    4.25
   9  -6  -7   23.35    1.62
   8  -6  -7   26.99    1.63
   8  -6  -7   26.28    4.21
   7  -6  -7    1.02    1.29
   7  -6  -7    0.57    0.45
   6  -6  -7   28.73    1.56
   6  -6  -7   26.20    3.40
  -6   6   7   27.41    1.51
  -6   6   7   27.83    1.02
  -6   6   7   25.81    0.94
   5  -6  -7    3.07    0.64
   5  -6  -7    2.49    1.07
   5  -6  -7    2.93    0.52
  -5   6   7    4.43    0.61
  -5   6   7    4.99    0.84
   4  -6  -7    0.08    0.33
   4  -6  -7    1.11    0.77
  -4   6   7   -0.23    0.31
  -4   6   7   -0.11    0.25
   3  -6  -7    3.46    0.64
  -3   6   7    3.10    0.67
  -3   6   7    2.82    0.58
   2  -6  -7   12.34    1.03
  -2   6   7   10.56    1.18
  -2   6   7   12.21    1.20
  -2   6   7   10.95    1.10
  -2   6   7    7.85    1.66
   1  -6  -7   31.87    2.51
  -1   6   7   29.54    1.70
  -1   6   7   29.98    2.75
  -1   6   7   33.51    1.67
   0  -6  -7   13.43    1.39
   0   6   7   12.97    2.52
   0   6   7   10.86    1.27
  -1  -6  -7   25.11    1.65
   1   6   7   29.47    1.75
   1   6   7   23.19    4.30
   2   6   7   42.14    5.58
   2   6   7   44.04    2.22
  -3  -6  -7    2.29    0.81
   3   6   7    0.99    1.20
   4   6   7    2.49    0.99
  10  -7  -7    1.47    1.56
  10  -7  -7    1.37    0.70
   9  -7  -7    3.08    1.59
   9  -7  -7    1.90    0.70
   8  -7  -7    0.03    0.59
   8  -7  -7   -0.22    0.40
   7  -7  -7    6.71    1.02
   7  -7  -7    5.79    1.72
   6  -7  -7    5.80    0.89
  -6   7   7    7.43    0.76
  -6   7   7    6.73    0.66
   5  -7  -7    1.92    0.95
   5  -7  -7    0.83    0.50
   5  -7  -7    0.83    0.39
  -5   7   7    0.10    0.33
   4  -7  -7    6.44    1.00
   4  -7  -7    5.12    0.79
  -4   7   7    5.80    0.83
   3  -7  -7    2.98    0.69
  -3   7   7    5.23    1.28
  -3   7   7    3.62    0.74
   2  -7  -7    1.40    0.57
  -2   7   7    0.97    0.53
  -2   7   7    0.88    0.55
   1  -7  -7   18.53    1.41
  -1   7   7   18.09    2.62
  -1   7   7   23.20    1.61
   0  -7  -7   15.10    1.57
   0   7   7   13.71    2.61
   0   7   7   18.69    1.48
  -1  -7  -7   -0.02    0.48
   1   7   7   -0.30    0.38
   1   7   7    0.21    0.81
  -2  -7  -7    0.13    0.49
   2   7   7    1.11    0.63
   9  -8  -7    2.82    1.53
   9  -8  -7    2.45    0.75
   8  -8  -7    0.90    0.58
   8  -8  -7    1.25    0.90
   7  -8  -7    7.43    1.86
   7  -8  -7    5.94    0.99
  -7   8   7    4.47    0.52
  -7   8   7    3.94    0.67
   6  -8  -7    6.37    1.01
   6  -8  -7   10.72    1.70
  -6   8   7   10.43    0.97
  -6   8   7    9.23    0.99
   5  -8  -7   10.03    1.30
  -5   8   7    6.54    0.87
  -4   8   7   -0.28    0.48
  -4   8   7    0.46    0.43
   3  -8  -7   22.86    1.55
  -3   8   7   25.67    1.80
   2  -8  -7   26.78    1.71
  -2   8   7   24.39    1.77
   1  -8  -7    2.93    0.81
  -1   8   7    2.47    0.82
   0  -8  -7    6.57    1.16
   0   8   7    4.68    1.04
   0   8   7    6.81    2.89
  -1  -8  -7   10.07    1.63
   8  -9  -7    8.19    1.27
   8  -9  -7    6.95    1.38
   7  -9  -7    0.67    0.57
  -7   9   7    0.46    0.43
  -6   9   7    6.16    0.89
  -6   9   7    6.60    1.01
  -5   9   7   36.43    2.01
  -5   9   7   32.07    1.79
  -4   9   7    3.06    0.93
   3  -9  -7    4.77    0.93
  -3   9   7    7.28    1.24
   2  -9  -7   12.18    1.60
  -2   9   7   13.42    1.62
   1  -9  -7    0.30    0.61
  -6  10   7    1.30    0.72
  -5  10   7    0.28    0.65
  -4  10   7    0.32    0.68
   0  10  -8    0.34    0.52
  -1  10  -8    1.80    0.63
  -2  10  -8    0.07    0.57
  -2  10  -8    0.47    0.47
  -3  10  -8    1.47    0.79
  -3  10  -8    0.91    0.56
  -3  10  -8    2.01    0.61
  -4  10  -8    0.18    0.39
  -4  10  -8    0.19    0.65
  -5  10  -8    0.85    0.60
  -6  10  -8    4.41    1.11
  -2  -9   8    0.40    1.06
   1   9  -8    0.11    0.76
  -1  -9   8    0.97    0.83
   0   9  -8    1.82    0.64
   0   9  -8    1.40    0.77
   0  -9   8    1.70    0.96
  -1   9  -8   13.09    1.35
  -1   9  -8    8.42    1.79
   1  -9   8   13.53    1.26
  -2   9  -8    1.18    0.57
  -2   9  -8    2.84    0.92
  -2   9  -8    2.24    0.67
  -3   9  -8   10.20    0.99
  -3   9  -8    9.28    0.97
  -3   9  -8    9.78    1.43
  -4   9  -8   38.38    1.48
  -4   9  -8   37.81    1.46
  -4   9  -8   38.58    2.20
  -5   9  -8    3.21    0.45
  -5   9  -8    3.40    0.53
  -5   9  -8    3.05    0.86
  -6   9  -8    3.71    0.92
   6  -9   8    3.51    1.13
   6  -9   8    4.57    1.26
  -7   9  -8    3.74    0.86
   7  -9   8    6.16    1.64
   7  -9   8    7.39    1.88
   3   8  -8    0.17    0.47
  -3  -8   8    1.82    1.41
   2   8  -8   20.32    5.14
   2   8  -8   20.51    1.55
   2   8  -8   24.94    1.95
   1   8  -8    8.77    2.24
   1   8  -8    8.32    1.20
   1   8  -8    8.68    1.41
  -1  -8   8   16.20    2.89
   0   8  -8   12.53    2.31
   0   8  -8   16.01    1.74
   0   8  -8   14.53    1.16
   0  -8   8   12.71    1.69
   0  -8   8   18.54    2.80
  -1   8  -8   39.53    2.24
  -1   8  -8   40.71    1.78
   1  -8   8   41.11    2.76
  -2   8  -8   20.96    1.61
  -2   8  -8   18.50    1.14
  -2   8  -8   20.64    1.16
   2  -8   8   23.58    1.89
   2  -8   8   22.39    1.92
  -3   8  -8    7.46    0.77
  -3   8  -8    4.25    0.97
  -3   8  -8    4.19    0.59
   3  -8   8    7.54    1.39
   3  -8   8    5.04    1.15
  -4   8  -8    7.22    1.13
  -4   8  -8    7.77    0.66
   4  -8   8    5.68    1.25
   4  -8   8    9.60    1.75
  -5   8  -8    7.73    1.14
   5  -8   8    8.17    1.77
   5  -8   8    7.38    1.64
  -6   8  -8    6.89    1.04
   6  -8   8    9.26    2.12
   6  -8   8   12.04    2.41
  -7   8  -8    3.24    0.78
   7  -8   8    4.87    1.86
   7  -8   8    4.62    1.80
   7  -8   8    2.31    0.84
  -8   8  -8    3.81    0.84
   8  -8   8    5.41    2.28
   4   7  -8    0.79    0.66
   4   7  -8    0.76    0.49
  -4  -7   8    0.33    0.88
   3   7  -8    0.12    0.43
   3   7  -8   -0.15    0.80
   3   7  -8    0.25    0.59
  -3  -7   8    0.57    0.94
   2   7  -8    8.12    1.10
   2   7  -8    8.31    2.30
   2   7  -8    6.97    1.20
  -2  -7   8   10.54    2.51
   1   7  -8   18.16    1.26
   1   7  -8   14.66    2.63
   1   7  -8   17.93    1.82
  -1  -7   8   23.47    3.54
  -1  -7   8   19.93    1.40
   0   7  -8   13.75    2.45
   0   7  -8   16.90    1.81
   0   7  -8   12.87    0.99
   0  -7   8   14.52    1.37
   0  -7   8   16.84    2.75
  -1   7  -8    0.60    0.64
  -1   7  -8    0.90    0.38
  -1   7  -8    1.26    0.65
   1  -7   8    0.58    0.35
   1  -7   8    1.24    0.69
  -2   7  -8    1.84    0.62
  -2   7  -8    3.33    0.53
  -2   7  -8    3.65    0.56
   2  -7   8    3.18    1.05
  -3   7  -8    6.49    1.02
  -3   7  -8    5.68    0.58
   3  -7   8    5.13    1.37
   3  -7   8    6.17    1.53
   3  -7   8    6.51    1.10
  -4   7  -8    0.31    0.47
  -4   7  -8    0.04    0.17
  -4   7  -8    0.19    0.19
   4  -7   8    0.60    0.77
   4  -7   8    0.62    0.78
   4  -7   8    0.14    0.41
   5  -7   8   14.67    1.47
   5  -7   8   20.97    3.12
   5  -7   8   18.07    3.78
   6  -7   8    6.36    1.00
   6  -7   8    6.74    2.05
   6  -7   8    6.86    1.99
   7  -7   8    1.53    1.17
   7  -7   8   -0.28    0.47
   7  -7   8    1.58    1.17
   8  -7   8    5.10    1.88
   8  -7   8    4.25    2.13
   8  -7   8    7.95    1.16
   5   6  -8    0.64    0.54
   5   6  -8    0.12    0.58
   5   6  -8    1.22    1.57
  -5  -6   8    0.03    1.10
   4   6  -8   12.12    3.32
   4   6  -8   13.44    1.62
   4   6  -8   10.01    1.27
  -4  -6   8   14.07    5.09
   3   6  -8   55.65    2.35
   3   6  -8   54.41    2.59
   3   6  -8   46.11    4.42
  -3  -6   8   56.22    4.80
   2   6  -8   14.81    1.13
   2   6  -8   17.18    3.24
   2   6  -8   15.18    1.63
  -2  -6   8   13.70    2.93
  -2  -6   8   13.34    1.39
   1   6  -8   20.38    3.11
   1   6  -8   20.90    1.50
   1   6  -8   21.29    1.25
  -1  -6   8   18.71    1.26
  -1  -6   8   23.62    3.42
   0   6  -8   19.53    1.44
   0   6  -8   24.54    1.23
   0   6  -8   26.82    3.49
   0   6  -8   20.21    1.37
   0  -6   8   21.92    1.24
   0  -6   8   24.44    3.20
  -1   6  -8    3.93    1.39
  -1   6  -8    3.31    0.55
  -1   6  -8    3.36    0.77
   1  -6   8    4.36    1.28
   1  -6   8    3.34    0.57
   1  -6   8    2.74    0.88
  -2   6  -8    0.54    0.42
  -2   6  -8    0.34    0.24
   2  -6   8    0.51    0.41
   2  -6   8    0.05    0.34
  -3   6  -8    2.39    0.31
  -3   6  -8    1.55    0.54
  -3   6  -8    2.04    0.30
   3  -6   8    2.08    0.57
   3  -6   8    1.99    1.13
   3  -6   8    3.16    1.11
  -4   6  -8    9.64    1.14
   4  -6   8   11.23    2.35
   4  -6   8    9.72    1.13
   4  -6   8   11.92    2.22
  -5   6  -8    2.65    0.66
   5  -6   8    2.72    1.44
   5  -6   8    4.45    1.60
   5  -6   8    1.60    0.62
  -6   6  -8    1.24    0.50
   6  -6   8    3.75    1.77
   6  -6   8    1.35    0.57
   6  -6   8    3.05    1.33
  -7   6  -8   25.26    1.45
   7  -6   8   29.96    4.75
   7  -6   8   20.39    3.81
   7  -6   8   23.99    1.57
  -8   6  -8   12.67    1.24
   8  -6   8   16.16    3.98
   8  -6   8   11.08    1.95
  -9   6  -8    0.22    0.44
   7   5  -8    5.67    1.17
   6   5  -8   29.50    1.90
   6   5  -8   28.70    1.99
   6   5  -8   19.72    4.60
   5   5  -8   26.22    1.71
   5   5  -8   32.47    1.98
   5   5  -8   25.28    4.67
  -5  -5   8   25.87    4.82
   4   5  -8    3.04    0.69
   4   5  -8    4.09    1.86
   4   5  -8    3.02    0.79
   3   5  -8   36.15    1.86
   3   5  -8   43.19    4.08
   3   5  -8   37.26    1.98
   3   5  -8   37.26    1.79
  -3  -5   8   34.54    1.83
  -3  -5   8   41.90    5.49
   2   5  -8    1.29    0.47
   2   5  -8    1.01    0.48
   2   5  -8    2.82    1.40
  -2  -5   8    0.98    0.46
   1   5  -8    0.68    0.61
   1   5  -8    0.46    0.33
   1   5  -8    0.47    0.41
   1   5  -8    0.37    0.33
  -1  -5   8    0.68    0.37
  -1  -5   8    0.52    0.65
   0   5  -8    0.26    0.27
   0   5  -8    0.51    0.54
   0   5  -8   -0.09    0.33
   0  -5   8    0.07    0.27
   0  -5   8    0.47    0.64
   0  -5   8    0.35    0.28
  -1   5  -8   42.31    1.87
  -1   5  -8   41.59    3.16
  -1   5  -8   40.23    1.63
   1  -5   8   40.35    2.99
   1  -5   8   40.22    1.82
   1  -5   8   40.80    1.40
  -2   5  -8   75.43    1.77
  -2   5  -8   76.79    1.79
  -2   5  -8   75.17    2.55
   2  -5   8   78.64    2.63
   2  -5   8   74.68    4.12
  -3   5  -8    9.38    1.05
   3  -5   8    7.93    1.93
   3  -5   8    6.80    1.83
   3  -5   8    8.49    1.03
  -4   5  -8  125.32    3.47
   4  -5   8  118.71    3.48
   4  -5   8  118.16    6.12
   4  -5   8  127.77    6.20
  -5   5  -8   57.19    2.14
   5  -5   8   62.29    4.77
   5  -5   8   56.80    2.23
   5  -5   8   56.99    4.54
  -6   5  -8    0.80    0.44
   6  -5   8    0.46    0.89
   6  -5   8    0.70    0.47
   6  -5   8    1.93    1.40
  -7   5  -8    6.33    0.85
   7  -5   8    5.21    2.18
   7  -5   8    6.16    0.93
   7  -5   8   11.48    3.13
  -8   5  -8    8.19    1.02
   8  -5   8    9.32    1.43
   8  -5   8    7.56    2.67
   9  -5   8   -0.20    0.97
   8   4  -8    3.67    1.02
   7   4  -8    0.39    1.05
   7   4  -8    0.78    0.64
   6   4  -8    0.20    0.44
   6   4  -8    0.81    0.90
   6   4  -8    0.82    0.52
  -6  -4   8    0.03    1.63
   5   4  -8    0.96    0.56
   5   4  -8    1.08    0.51
   5   4  -8   -0.18    0.49
   5   4  -8    1.86    0.71
  -5  -4   8    2.83    1.78
   4   4  -8    0.69    0.69
   4   4  -8    0.84    0.45
   4   4  -8    1.31    0.48
  -4  -4   8    1.36    0.64
  -4  -4   8    0.55    0.73
   3   4  -8    3.02    0.71
   3   4  -8    4.53    1.78
   3   4  -8    4.14    0.74
   3   4  -8    5.87    0.92
  -3  -4   8    1.19    1.04
  -3  -4   8    4.55    0.86
   2   4  -8   59.15    4.24
   2   4  -8   54.19    2.08
   2   4  -8   54.27    2.17
   2   4  -8   54.88    1.94
  -2  -4   8   56.98    4.39
  -2  -4   8   58.60    2.07
   1   4  -8   64.08    4.15
   1   4  -8   64.57    2.34
   1   4  -8   71.48    2.07
  -1  -4   8   67.43    2.11
  -1  -4   8   65.89    4.15
  -1  -4   8   65.17    2.36
   0   4  -8   -0.15    0.18
   0   4  -8    0.22    0.50
   0   4  -8    0.52    0.31
   0  -4   8    0.45    0.30
   0  -4   8   -0.01    0.20
   0  -4   8    0.36    0.52
  -1   4  -8   77.41    4.41
  -1   4  -8   83.42    2.59
  -1   4  -8   83.27    1.94
   1  -4   8   82.99    2.01
   1  -4   8   81.95    2.62
  -2   4  -8   68.85    2.32
  -2   4  -8   73.60    1.50
   2  -4   8   75.00    2.43
   2  -4   8   70.31    4.81
  -3   4  -8   15.89    1.06
   3  -4   8   16.44    1.10
   3  -4   8   17.45    2.89
   3  -4   8   16.88    2.95
  -4   4  -8    3.10    0.59
   4  -4   8    3.61    1.54
   4  -4   8    4.17    0.73
   4  -4   8    7.42    2.27
  -5   4  -8    3.12    0.66
   5  -4   8    4.85    1.96
   5  -4   8    1.17    0.47
  -6   4  -8    2.60    0.58
   6  -4   8    3.21    1.60
   6  -4   8    1.85    0.59
   6  -4   8    1.02    1.07
  -7   4  -8    0.43    0.38
   7  -4   8    0.71    1.11
   7  -4   8    0.12    0.45
  -8   4  -8    7.10    1.59
   8  -4   8    3.27    2.21
   8  -4   8    4.48    1.03
   8  -4   8    7.46    2.74
  -9   4  -8    4.97    0.83
   9  -4   8    6.48    2.79
   8   3  -8   -0.29    0.88
   8   3  -8    0.25    0.49
   7   3  -8   11.83    1.47
   7   3  -8   12.14    1.41
   7   3  -8   13.71    4.02
  -7  -3   8    7.81    3.19
   6   3  -8    9.04    1.26
   6   3  -8    6.84    2.51
   6   3  -8    9.01    1.19
   6   3  -8    7.23    1.05
  -6  -3   8    8.66    2.97
   5   3  -8    0.56    0.41
   5   3  -8    0.37    0.69
   5   3  -8    1.22    0.53
   5   3  -8    1.03    0.49
   4   3  -8   14.35    1.10
   4   3  -8   18.11    3.69
   4   3  -8   16.35    1.11
   4   3  -8   13.05    1.00
  -4  -3   8   18.38    3.63
   3   3  -8    3.47    1.98
   3   3  -8    3.14    0.61
   3   3  -8    4.58    0.74
   3   3  -8    4.91    0.82
  -3  -3   8    4.55    0.74
  -3  -3   8    2.82    1.43
   2   3  -8    1.49    0.88
   2   3  -8    1.09    0.40
   2   3  -8    1.33    0.39
  -2  -3   8    0.76    0.34
  -2  -3   8    1.11    0.42
  -2  -3   8    0.86    0.84
   1   3  -8   36.67    3.03
   1   3  -8   33.33    1.23
   1   3  -8   32.32    1.46
  -1  -3   8   34.76    1.31
  -1  -3   8   31.50    1.45
   0   3  -8   94.87    4.84
   0   3  -8   93.75    2.69
   0   3  -8   94.63    2.21
   0  -3   8   89.75    2.69
   0  -3   8   95.66    2.27
  -1   3  -8   54.77    1.34
  -1   3  -8   61.64    3.88
  -1   3  -8   57.41    1.96
   1  -3   8   56.96    2.00
   1  -3   8   56.61    1.39
  -2   3  -8    1.34    0.41
   2  -3   8    0.91    0.36
  -3   3  -8   35.95    1.51
   3  -3   8   33.34    3.11
   3  -3   8   37.94    3.35
   3  -3   8   36.07    1.55
  -4   3  -8   19.10    1.12
   4  -3   8   17.24    1.10
   4  -3   8   20.33    3.40
   4  -3   8   15.63    3.08
  -5   3  -8    6.07    0.84
   5  -3   8    3.92    0.68
   5  -3   8    3.61    1.52
   5  -3   8    7.17    2.36
  -6   3  -8    3.88    0.72
   6  -3   8    3.70    1.69
   6  -3   8    4.18    0.75
   6  -3   8    2.69    1.55
  -7   3  -8    1.36    0.48
   7  -3   8   -0.14    0.55
   7  -3   8    0.19    0.53
   7  -3   8    1.95    0.27
   7  -3   8    1.93    0.27
  -8   3  -8   -0.06    0.40
   8  -3   8    0.23    0.24
   8  -3   8    0.16    0.23
   8  -3   8    0.35    0.51
   8  -3   8   -0.08    0.69
  -9   3  -8    2.49    0.74
   9  -3   8    2.06    1.52
   9   2  -8    0.27    0.54
   9   2  -8   -0.15    1.09
   8   2  -8    1.26    1.32
   8   2  -8    1.95    0.65
   8   2  -8    0.27    0.43
   8   2  -8    1.44    0.58
  -8  -2   8    0.94    2.01
   7   2  -8    0.79    1.22
   7   2  -8   -0.14    0.37
   7   2  -8   -0.69    0.31
   7   2  -8    0.06    0.37
  -7  -2   8    1.16    1.35
   6   2  -8   25.75    4.71
   6   2  -8   25.07    1.43
   6   2  -8   25.31    1.36
   6   2  -8   23.62    1.51
  -6  -2   8   31.27    5.13
   5   2  -8   57.71    2.01
   5   2  -8   53.19    2.06
   5   2  -8   56.13    4.90
   5   2  -8   55.18    2.21
  -5  -2   8   61.65    5.21
  -5  -2   8   52.88    2.17
   4   2  -8   10.68    1.12
   4   2  -8    8.58    2.33
   4   2  -8    9.93    0.80
   4   2  -8   11.65    1.11
  -4  -2   8   10.41    1.07
  -4  -2   8   11.83    3.23
   3   2  -8  125.79    3.23
   3   2  -8  124.59    3.28
   3   2  -8  125.32    6.44
  -3  -2   8  123.11    3.25
  -3  -2   8  112.67    6.15
  -3  -2   8  129.38    3.33
   2   2  -8  180.88    4.33
   2   2  -8  187.58    7.57
   2   2  -8  194.11    4.17
  -2  -2   8  190.04    4.19
  -2  -2   8  183.80    7.44
  -2  -2   8  189.96    4.36
   1   2  -8   13.97    0.88
   1   2  -8   14.14    0.83
   1   2  -8   13.37    2.44
  -1  -2   8   13.93    0.75
  -1  -2   8   15.50    0.92
  -1  -2   8   20.74    3.08
   0   2  -8  165.13    6.67
   0   2  -8  167.09    3.37
   0   2  -8  166.34    3.90
   0  -2   8  168.06    3.40
   0  -2   8  163.18    3.90
   0  -2   8  168.84    6.49
  -1   2  -8   55.77    1.29
  -1   2  -8   54.91    3.80
  -1   2  -8   59.35    1.91
   1  -2   8   56.24    1.31
   1  -2   8   55.71    1.89
   1  -2   8   58.28    3.72
  -2   2  -8    0.06    0.22
   2  -2   8    0.45    0.11
   2  -2   8    0.47    0.30
   2  -2   8    0.51    0.76
   2  -2   8    0.57    0.10
   2  -2   8    0.39    0.70
  -3   2  -8    7.97    0.85
   3  -2   8    6.70    1.88
   3  -2   8    8.88    2.31
   3  -2   8    6.50    0.80
  -4   2  -8   17.24    1.07
   4  -2   8   19.39    1.15
   4  -2   8   16.93    0.51
   4  -2   8   22.86    3.73
   4  -2   8   21.54    3.58
   4  -2   8   17.40    0.52
  -5   2  -8   18.97    1.14
   5  -2   8   16.53    0.64
   5  -2   8   16.19    1.12
   5  -2   8   17.21    0.64
   5  -2   8   17.09    3.62
  -6   2  -8    5.88    0.83
   6  -2   8    5.71    0.54
   6  -2   8    6.12    0.56
   6  -2   8    5.26    0.86
   6  -2   8    7.92    2.84
  -7   2  -8   12.59    1.29
   7  -2   8   15.76    1.29
   7  -2   8   17.17    0.85
   7  -2   8   18.57    4.23
  -8   2  -8   16.36    1.29
   8  -2   8   18.98    4.86
   8  -2   8   17.16    0.96
   8  -2   8   14.25    0.91
  -9   2  -8    3.89    0.83
   9  -2   8    6.50    3.12
   9   1  -8    8.30    0.99
   9   1  -8   10.81    3.99
   9   1  -8    8.54    1.75
   8   1  -8    7.65    0.95
   8   1  -8    9.15    3.18
   8   1  -8    9.27    1.06
   8   1  -8    9.40    1.40
   7   1  -8    0.64    1.21
   7   1  -8    0.78    0.41
   7   1  -8    0.53    0.36
   7   1  -8    0.24    0.36
  -7  -1   8    0.05    0.80
   6   1  -8   56.54    1.90
   6   1  -8   56.65    1.99
   6   1  -8   55.12    2.23
   6   1  -8   51.18    4.94
  -6  -1   8   57.24    7.05
   5   1  -8   83.09    2.68
   5   1  -8   86.49    2.41
   5   1  -8   85.27    5.88
   5   1  -8   84.50    2.47
  -5  -1   8   83.55    5.89
  -5  -1   8   78.63    2.66
   4   1  -8   21.63    3.72
   4   1  -8   18.45    1.07
   4   1  -8   19.98    1.04
  -4  -1   8   29.27    4.31
  -4  -1   8   17.02    1.06
  -4  -1   8   17.46    1.02
   3   1  -8   53.87    1.75
   3   1  -8   49.47    1.69
   3   1  -8   46.01    3.74
  -3  -1   8   50.06    1.70
  -3  -1   8   48.81    1.71
   2   1  -8   10.91    0.75
   2   1  -8   12.91    2.42
   2   1  -8   11.63    0.71
  -2  -1   8   10.48    0.74
  -2  -1   8   11.72    0.72
  -2  -1   8   19.60    3.13
   1   1  -8   -0.07    0.16
   1   1  -8   -0.13    0.20
   1   1  -8   -0.06    0.34
  -1  -1   8   -0.09    0.20
  -1  -1   8    0.04    0.17
  -1  -1   8   -0.36    0.28
   0   1  -8    0.13    0.22
   0   1  -8    1.05    0.85
   0   1  -8    0.91    0.24
   0  -1   8   -0.38    0.37
   0  -1   8    0.73    0.30
   0  -1   8    0.33    0.20
  -1   1  -8   16.26    0.62
  -1   1  -8   16.98    0.94
  -1   1  -8   17.13    2.76
   1  -1   8   17.47    0.95
   1  -1   8   23.66    3.50
   1  -1   8   15.87    0.60
  -2   1  -8  167.02    3.85
   2  -1   8  158.70    7.04
   2  -1   8  162.45    3.14
   2  -1   8  160.49    7.09
   2  -1   8  164.32    3.90
   2  -1   8  162.06    3.20
  -3   1  -8   10.57    0.81
   3  -1   8    8.08    0.45
   3  -1   8    8.92    0.93
   3  -1   8    9.84    2.45
   3  -1   8    8.34    0.49
  -4   1  -8   23.80    1.28
   4  -1   8   36.54    5.15
   4  -1   8   27.97    0.98
   4  -1   8   26.18    1.37
   4  -1   8   28.69    4.26
   4  -1   8   26.50    0.92
  -5   1  -8  129.57    3.50
   5  -1   8  125.49    7.68
   5  -1   8  125.94    2.86
   5  -1   8  128.19    3.58
  -6   1  -8   11.66    1.39
   6  -1   8   12.22    1.27
   6  -1   8   13.70    3.40
   6  -1   8   11.63    0.78
   6  -1   8   11.59    0.80
  -7   1  -8    1.63    0.57
   7  -1   8    3.39    2.03
   7  -1   8    1.92    0.48
   7  -1   8    1.98    0.47
   7  -1   8    3.86    1.15
  -8   1  -8    5.89    1.01
   8  -1   8    6.17    0.84
   8  -1   8    6.74    3.36
   8  -1   8    6.54    0.82
  10   0  -8   -0.23    1.07
   9   0  -8   -0.52    0.69
   9   0  -8    0.21    0.33
   9   0  -8    0.69    0.58
   9   0  -8    0.38    0.34
   8   0  -8   17.26    4.25
   8   0  -8   19.30    1.01
   8   0  -8   20.01    1.49
   8   0  -8   21.78    1.10
   7   0  -8   13.78    3.76
   7   0  -8   10.09    1.27
   7   0  -8    9.74    0.76
  -7   0   8    8.09    2.82
   6   0  -8   16.85    0.88
   6   0  -8   16.93    3.88
   6   0  -8   16.54    0.91
   6   0  -8   15.19    1.15
  -6   0   8   18.94    3.94
  -6   0   8   14.02    1.13
   5   0  -8    2.59    0.58
   5   0  -8    2.71    0.47
   5   0  -8    1.88    1.18
  -5   0   8    1.78    0.49
  -5   0   8    4.56    1.89
   4   0  -8    2.58    0.43
   4   0  -8    2.61    0.55
   4   0  -8    4.46    1.69
  -4   0   8    2.77    0.51
  -4   0   8    2.17    1.14
  -4   0   8    2.44    0.42
   3   0  -8   53.75    3.88
   3   0  -8   56.50    1.74
   3   0  -8   59.74    1.85
  -3   0   8   60.06    4.07
  -3   0   8   58.42    1.77
  -3   0   8   61.88    1.87
   2   0  -8    1.42    0.96
   2   0  -8    1.77    0.37
   2   0  -8    1.10    0.36
  -2   0   8    0.87    0.29
  -2   0   8    2.62    1.09
  -2   0   8    1.46    0.37
   1   0  -8   17.74    0.92
   1   0  -8   17.54    0.79
   1   0  -8   17.26    2.61
  -1   0   8   17.77    0.79
  -1   0   8   18.15    0.91
   0   0  -8   51.60    1.68
   0   0  -8   50.67    1.42
   0   0  -8   53.81    3.67
   0   0   8   50.54    1.41
   0   0   8   55.29    1.74
  -1   0  -8    8.90    0.70
  -1   0  -8    7.58    0.49
   1   0   8    9.91    2.17
   1   0   8    8.50    0.69
   1   0   8    9.02    0.51
  -2   0  -8   20.12    1.07
   2   0   8   19.24    0.78
   2   0   8   19.27    0.83
   2   0   8   18.41    3.18
   2   0   8   19.17    3.08
   2   0   8   19.46    1.07
  -3   0  -8   50.48    1.86
   3   0   8   53.75    1.59
   3   0   8   52.11    1.50
   3   0   8   45.61    4.04
   3   0   8   54.10    4.32
   3   0   8   53.62    1.93
  -4   0  -8    2.98    0.61
   4   0   8    3.32    1.52
   4   0   8    3.97    0.55
   4   0   8    2.72    0.61
   4   0   8    2.19    1.30
  -5   0  -8    5.28    0.82
   5   0   8    6.99    0.79
   5   0   8    5.50    0.69
  -6   0  -8    1.74    0.58
   6   0   8    1.40    0.46
   6   0   8    1.59    1.56
   6   0   8    1.84    0.66
   6   0   8    1.84    0.50
  -7   0  -8    2.09    0.70
   7   0   8    0.83    1.17
   7   0   8    1.67    0.51
  -8   0  -8    0.49    0.52
   8   0   8    2.07    0.62
   8   0   8    1.30    1.35
  10  -1  -8   13.41    4.47
   9  -1  -8   18.42    4.48
   9  -1  -8   17.19    2.60
   8  -1  -8    8.45    0.51
   8  -1  -8    8.84    2.84
   8  -1  -8    9.50    0.57
   8  -1  -8    7.44    1.07
   7  -1  -8   27.58    1.01
   7  -1  -8   33.62    5.55
   7  -1  -8   27.60    0.97
   7  -1  -8   27.98    1.57
   6  -1  -8   21.49    0.87
   6  -1  -8   21.46    1.29
   6  -1  -8   24.15    4.19
   6  -1  -8   22.12    0.90
  -6   1   8   20.00    4.00
  -6   1   8   21.84    1.44
   5  -1  -8    2.12    1.30
   5  -1  -8    3.20    0.43
   5  -1  -8    2.67    0.56
  -5   1   8    3.27    0.63
  -5   1   8    1.27    0.86
  -5   1   8    2.83    0.42
   4  -1  -8    2.96    0.41
   4  -1  -8    0.41    0.61
   4  -1  -8    2.72    0.51
  -4   1   8    2.78    0.42
  -4   1   8    3.74    1.48
  -4   1   8    3.60    0.59
   3  -1  -8   26.50    3.55
   3  -1  -8   23.41    1.07
   3  -1  -8   22.94    0.96
  -3   1   8   25.59    3.44
  -3   1   8   22.67    1.06
  -3   1   8   20.48    0.94
   2  -1  -8   87.01    4.71
   2  -1  -8   93.23    2.37
   2  -1  -8   91.25    2.30
  -2   1   8   93.74    2.36
  -2   1   8   91.83    4.79
   1  -1  -8   -0.12    0.17
   1  -1  -8    0.11    0.44
   1  -1  -8    0.18    0.17
  -1   1   8    0.05    0.18
  -1   1   8   -0.16    0.28
  -1   1   8    0.42    0.25
   0  -1  -8   70.75    4.35
   0  -1  -8   69.89    2.04
   0   1   8   71.69    1.86
   0   1   8   71.13    2.08
   0   1   8   65.01    4.02
  -1  -1  -8  293.21    6.19
  -1  -1  -8  305.74    5.87
   1   1   8  304.16   10.16
   1   1   8  300.04    5.84
   1   1   8  298.33    6.23
   1   1   8  293.54   10.05
  -2  -1  -8   16.51    1.02
   2   1   8   16.75    1.02
   2   1   8   15.38    0.86
   2   1   8   23.51    3.49
   2   1   8   16.86    0.88
   2   1   8   16.38    2.94
  -3  -1  -8   24.87    1.34
   3   1   8   33.50    4.71
   3   1   8   27.68    1.14
   3   1   8   23.74    1.30
   3   1   8   24.09    1.14
   3   1   8   27.07    3.90
  -4  -1  -8   47.86    2.00
   4   1   8   49.00    1.71
   4   1   8   47.14    2.23
   4   1   8   52.55    1.83
   4   1   8   51.77    4.82
  -5  -1  -8    2.69    0.68
   5   1   8    2.40    0.53
   5   1   8    2.60    0.72
   5   1   8    1.79    1.34
   5   1   8    2.66    0.58
  -6  -1  -8    0.12    0.41
   6   1   8    0.08    0.36
   6   1   8    0.66    0.90
   6   1   8   -0.08    0.33
  -7  -1  -8   -0.19    0.37
   7   1   8    0.66    0.94
   7   1   8   -0.13    0.36
  -8  -1  -8    1.28    0.70
   8   1   8    0.92    0.61
   8   1   8   -0.18    0.93
  10  -2  -8    0.68    0.62
  10  -2  -8    1.24    1.75
   9  -2  -8    9.48    1.24
   8  -2  -8    1.05    0.52
   8  -2  -8   -0.06    0.65
   7  -2  -8    0.91    0.47
   7  -2  -8    4.20    1.92
  -7   2   8    0.39    0.47
   6  -2  -8    9.91    1.03
   6  -2  -8    8.96    0.44
   6  -2  -8    9.42    0.44
   6  -2  -8   17.01    3.55
  -6   2   8   10.48    1.70
  -6   2   8   11.10    2.87
   5  -2  -8   77.13    5.10
   5  -2  -8   74.12    1.75
   5  -2  -8   70.97    2.33
  -5   2   8   82.15    5.33
  -5   2   8   76.88    2.40
  -5   2   8   73.38    1.82
   4  -2  -8   29.33    1.03
   4  -2  -8   30.50    1.35
   4  -2  -8   32.04    4.01
  -4   2   8   31.72    1.35
  -4   2   8   34.49    3.17
  -4   2   8   32.01    1.10
   3  -2  -8   58.29    1.62
   3  -2  -8   56.07    1.82
   3  -2  -8   51.49    3.66
  -3   2   8   57.58    1.66
  -3   2   8   57.08    3.84
  -3   2   8   57.32    1.81
   2  -2  -8  255.22    8.60
   2  -2  -8  244.39    5.41
   2  -2  -8  251.57    5.23
  -2   2   8  247.74    8.44
  -2   2   8  251.50    5.20
  -2   2   8  259.47    5.17
   1  -2  -8   66.58    1.93
   1  -2  -8   66.97    1.96
   1  -2  -8   59.77    3.95
  -1   2   8   60.40    3.82
  -1   2   8   67.03    2.40
  -1   2   8   68.94    1.93
   0  -2  -8   12.37    0.83
   0  -2  -8   11.66    0.73
   0   2   8   11.81    2.35
   0   2   8   11.42    0.80
   0   2   8   12.37    0.75
  -1  -2  -8   71.34    2.28
   1   2   8   70.42    2.05
   1   2   8   71.94    2.16
   1   2   8   71.37    2.28
   1   2   8   76.78    5.48
   1   2   8   69.03    4.62
  -2  -2  -8    1.73    0.51
   2   2   8    2.38    1.29
   2   2   8    1.83    0.49
   2   2   8    0.27    0.84
   2   2   8    1.86    0.45
   2   2   8    2.91    0.53
  -3  -2  -8    6.37    0.90
   3   2   8    6.36    0.90
   3   2   8    7.56    0.87
   3   2   8    8.92    2.59
   3   2   8    6.49    0.81
   3   2   8    3.89    1.54
  -4  -2  -8    0.19    0.41
   4   2   8    0.14    0.37
   4   2   8   -0.07    0.30
   4   2   8    0.73    0.98
   4   2   8    0.11    0.32
  -5  -2  -8   22.23    1.53
   5   2   8   21.04    1.31
   5   2   8   27.28    1.62
   5   2   8   19.38    4.00
  -6  -2  -8    9.63    1.26
   6   2   8    9.13    4.69
   6   2   8   13.42    1.36
  -7  -2  -8    0.78    0.62
   7   2   8    0.44    1.25
   7   2   8    1.79    0.67
  10  -3  -8    1.49    0.70
  10  -3  -8    3.12    2.19
   9  -3  -8    8.00    1.17
   9  -3  -8    8.30    2.99
   8  -3  -8   13.03    3.38
   8  -3  -8   11.76    1.29
   7  -3  -8    5.99    0.86
   7  -3  -8    6.64    2.28
  -7   3   8    7.30    0.96
   6  -3  -8    3.56    0.66
   6  -3  -8    3.64    1.41
   5  -3  -8   59.31    1.48
   5  -3  -8   65.15    2.18
   5  -3  -8   63.13    4.49
  -5   3   8   59.40    1.53
  -5   3   8   63.84    2.15
  -5   3   8   60.82    4.46
   4  -3  -8   51.29    1.46
   4  -3  -8   49.52    1.81
   4  -3  -8   46.97    3.64
  -4   3   8   52.22    1.50
  -4   3   8   52.70    3.85
  -4   3   8   53.70    1.84
   3  -3  -8    8.79    0.73
   3  -3  -8   11.16    0.79
  -3   3   8    8.98    0.63
  -3   3   8   10.42    2.45
  -3   3   8    9.63    0.73
   2  -3  -8    9.16    0.72
   2  -3  -8    7.00    0.74
   2  -3  -8    9.80    2.11
  -2   3   8    7.60    0.77
  -2   3   8   11.48    2.13
   1  -3  -8   24.96    1.18
   1  -3  -8   25.21    1.19
   1  -3  -8   23.42    3.54
  -1   3   8   26.02    1.18
  -1   3   8   28.50    2.60
  -1   3   8   24.90    1.18
   0  -3  -8    1.32    0.39
   0  -3  -8    1.28    0.46
   0   3   8    1.89    1.13
   0   3   8    0.85    0.38
   0   3   8    2.05    1.26
   0   3   8    1.40    0.40
  -1  -3  -8    1.13    0.42
   1   3   8    0.75    1.03
   1   3   8    1.96    1.10
   1   3   8    1.75    0.50
   1   3   8    0.95    0.40
   1   3   8    0.93    0.36
  -2  -3  -8   18.92    1.27
   2   3   8   21.42    1.23
   2   3   8   17.86    4.07
   2   3   8   20.05    1.14
   2   3   8   18.61    2.20
  -3  -3  -8   29.32    1.64
   3   3   8   28.05    1.64
   3   3   8   30.74    1.55
   3   3   8   26.81    1.57
   3   3   8   31.22    4.84
  -4  -3  -8    0.65    0.51
   4   3   8    0.46    0.41
   4   3   8    0.27    0.40
   4   3   8    0.90    0.99
  -5  -3  -8   11.49    1.43
   5   3   8   13.72    1.34
   5   3   8   11.46    3.30
  -6  -3  -8   10.08    1.40
   6   3   8   12.78    1.44
   6   3   8   11.82    4.04
   7   3   8    0.31    0.57
  10  -4  -8    0.37    0.51
  10  -4  -8    2.10    1.42
   9  -4  -8    2.65    0.75
   9  -4  -8    1.54    1.39
   8  -4  -8    0.10    0.39
   8  -4  -8    0.11    0.94
   7  -4  -8   21.09    3.88
   7  -4  -8   20.83    1.34
  -7   4   8   19.51    1.35
   6  -4  -8   62.17    4.68
   6  -4  -8   59.43    3.21
  -6   4   8   56.89    2.16
   5  -4  -8   10.77    1.06
   5  -4  -8   14.59    2.74
   5  -4  -8   10.75    0.58
  -5   4   8   10.66    1.04
  -5   4   8   10.74    0.59
   4  -4  -8    9.36    0.64
   4  -4  -8   11.46    2.35
   4  -4  -8   11.00    0.87
  -4   4   8   10.18    0.67
  -4   4   8   10.89    1.06
   3  -4  -8   32.29    1.28
   3  -4  -8   33.67    2.89
   3  -4  -8   29.92    1.39
  -3   4   8   29.20    1.38
  -3   4   8   29.82    2.68
  -3   4   8   29.38    1.36
   2  -4  -8   11.61    0.87
   2  -4  -8   16.42    2.59
   2  -4  -8   12.60    0.87
  -2   4   8   14.10    0.88
  -2   4   8   12.48    2.14
  -2   4   8   11.71    0.85
   1  -4  -8   -0.24    0.24
   1  -4  -8    0.08    0.30
  -1   4   8    0.36    0.49
  -1   4   8    0.28    0.27
  -1   4   8    0.02    0.28
   0  -4  -8    1.40    0.53
   0   4   8    1.34    0.42
   0   4   8    1.47    0.51
   0   4   8    0.97    0.47
   0   4   8    0.62    0.75
  -1  -4  -8   19.69    1.30
   1   4   8   16.93    1.40
   1   4   8   20.23    1.19
   1   4   8   18.66    3.26
   1   4   8   17.57    1.21
  -2  -4  -8    0.54    0.46
   2   4   8    1.36    0.51
   2   4   8    1.56    0.65
   2   4   8    0.94    0.92
   3   4   8    3.90    1.89
  -4  -4  -8   13.23    1.48
   4   4   8   13.22    1.38
   4   4   8   14.42    3.77
  -5  -4  -8    4.68    1.06
   5   4   8    4.71    0.94
   5   4   8    5.55    2.35
   6   4   8   -0.22    0.45
  10  -5  -8    7.41    3.04
  10  -5  -8    5.49    1.04
   9  -5  -8   25.35    1.69
   9  -5  -8   32.64    5.32
   8  -5  -8   21.55    1.48
   8  -5  -8   20.45    4.01
   7  -5  -8    5.19    1.75
   7  -5  -8    5.39    0.84
   6  -5  -8   24.92    3.66
   6  -5  -8   25.23    1.46
  -6   5   8   21.62    1.36
  -6   5   8   26.10    0.80
   5  -5  -8    9.25    0.66
   5  -5  -8   11.28    1.30
   5  -5  -8   11.69    2.36
  -5   5   8   10.94    1.11
  -5   5   8    9.20    0.67
   4  -5  -8   11.25    1.12
   4  -5  -8   11.39    0.79
   4  -5  -8    9.35    1.99
  -4   5   8   13.23    1.26
  -4   5   8   11.21    0.79
   3  -5  -8    1.10    0.39
   3  -5  -8    0.50    0.38
   3  -5  -8    0.36    0.79
  -3   5   8    0.77    0.38
  -3   5   8    0.02    0.32
   2  -5  -8   42.55    1.80
   2  -5  -8   47.03    1.80
  -2   5   8   40.47    1.69
  -2   5   8   44.82    1.81
   1  -5  -8   55.81    2.11
  -1   5   8   54.25    2.21
  -1   5   8   54.78    3.90
  -1   5   8   55.41    2.09
   0   5   8    1.70    0.53
   0   5   8    0.39    0.36
   0   5   8    2.08    0.66
   0   5   8    3.64    1.55
  -1  -5  -8   79.05    2.93
   1   5   8   84.40    5.66
   1   5   8   85.04    2.97
   1   5   8   86.72    2.88
  -2  -5  -8   44.89    2.21
   2   5   8   40.43    2.02
   2   5   8   48.06    4.49
  -3  -5  -8    0.03    0.46
   3   5   8    2.35    1.54
   3   5   8   -0.16    0.41
  -4  -5  -8    8.98    1.31
   4   5   8    9.06    1.59
   4   5   8   11.29    3.35
   5   5   8    6.04    1.18
  10  -6  -8   -0.06    0.49
  10  -6  -8    1.18    1.67
   9  -6  -8    1.22    0.63
   9  -6  -8    3.27    1.90
   8  -6  -8    1.24    0.59
   8  -6  -8    2.17    1.37
   7  -6  -8    0.25    0.37
   7  -6  -8    1.22    1.00
   6  -6  -8    1.19    0.99
   6  -6  -8    0.12    0.42
  -6   6   8    0.81    0.30
   5  -6  -8   16.83    1.23
   5  -6  -8   18.83    1.02
   5  -6  -8   21.70    3.03
  -5   6   8   19.39    1.05
  -5   6   8   19.94    1.31
   4  -6  -8   37.10    3.00
   4  -6  -8   34.16    1.69
   4  -6  -8   34.81    1.51
  -4   6   8   35.36    1.72
  -4   6   8   34.54    1.48
   3  -6  -8   -0.48    0.25
   3  -6  -8    0.35    0.36
  -3   6   8   -0.03    0.29
  -3   6   8    0.00    0.34
   2  -6  -8   49.93    2.06
   2  -6  -8   44.30    1.94
  -2   6   8   47.66    3.46
  -2   6   8   47.87    1.98
   1  -6  -8   50.72    2.18
  -1   6   8   49.61    2.13
  -1   6   8   51.41    3.81
  -1   6   8   52.52    2.32
   0  -6  -8    0.95    0.53
   0   6   8    2.05    1.41
   0   6   8    0.24    0.45
  -1  -6  -8    3.13    0.87
   1   6   8    2.53    0.70
  -2  -6  -8    0.79    0.57
   2   6   8    1.63    0.67
   2   6   8    1.97    1.47
  -3  -6  -8    0.55    0.63
   3   6   8    2.95    2.20
   3   6   8    0.59    0.55
  10  -7  -8    3.23    1.94
   9  -7  -8    0.40    0.54
   9  -7  -8    0.87    1.13
   8  -7  -8    2.50    1.48
   8  -7  -8    1.97    0.70
   7  -7  -8    2.66    0.75
   7  -7  -8    2.76    1.29
   6  -7  -8    6.32    1.00
   6  -7  -8    6.24    1.64
  -6   7   8    5.88    0.73
   5  -7  -8    0.47    0.38
   5  -7  -8    1.04    0.72
   5  -7  -8    0.59    0.45
  -5   7   8    1.02    0.42
   4  -7  -8   13.14    1.36
   4  -7  -8   12.12    1.03
  -4   7   8   11.16    1.12
   3  -7  -8   22.28    1.47
   3  -7  -8   27.44    1.62
  -3   7   8   25.49    1.49
   2  -7  -8    4.57    0.88
  -2   7   8    4.34    1.42
  -2   7   8    3.68    0.83
  -2   7   8    2.34    0.78
   1  -7  -8    0.76    0.50
  -1   7   8    1.71    0.65
  -1   7   8    1.02    0.90
   0  -7  -8    1.71    0.66
   0   7   8    1.42    0.63
   0   7   8    2.79    1.60
   1   7   8    2.23    1.26
   1   7   8    2.22    1.66
  -2  -7  -8   -0.02    0.53
   2   7   8    0.33    0.55
   9  -8  -8    2.24    0.78
   8  -8  -8   14.46    2.75
   8  -8  -8    9.51    1.28
   7  -8  -8    3.88    0.87
   7  -8  -8    3.29    1.17
  -7   8   8    3.62    0.52
   6  -8  -8   14.63    1.49
   6  -8  -8   18.49    2.40
  -6   8   8   16.25    1.20
  -6   8   8   15.52    1.09
   5  -8  -8   25.39    1.44
   5  -8  -8   25.09    1.67
  -5   8   8   21.92    1.37
   4  -8  -8    0.46    0.47
  -4   8   8   -0.35    0.40
   3  -8  -8   10.40    1.24
  -3   8   8   13.25    1.60
   2  -8  -8    4.96    0.97
  -2   8   8    6.48    1.11
   1  -8  -8    0.09    0.55
  -1   8   8   -0.69    0.44
   0  -8  -8    1.26    0.71
   0   8   8    1.45    0.71
   8  -9  -8    9.50    1.75
   8  -9  -8   11.46    1.87
   7  -9  -8    1.50    0.73
  -7   9   8    1.52    0.57
   6  -9  -8    2.50    0.75
  -6   9   8    5.15    0.95
  -6   9   8    2.64    0.88
  -5   9   8    4.75    1.00
  -5   9   8    4.71    1.02
   4  -9  -8    0.62    0.57
  -4   9   8    0.59    0.69
   3  -9  -8    1.84    0.73
  -3   9   8    0.99    0.66
   2  -9  -8    0.83    0.65
  -2   9   8    1.75    1.20
   1  -9  -8    4.71    1.26
  -6  10   8    0.08    0.61
  -5  10   8    0.65    0.75
  -4  10   8    2.10    1.02
   3 -10  -8    2.15    0.85
   0  10  -9    2.15    0.76
  -1  10  -9    1.32    0.58
  -2  10  -9    2.57    0.66
  -3  10  -9    3.80    0.80
  -3  10  -9    4.98    1.22
  -4  10  -9    5.80    1.23
  -4  10  -9    5.38    0.72
  -5  10  -9   -0.15    0.61
  -6  10  -9    0.85    0.75
  -2  -9   9   17.00    3.52
   1   9  -9   -0.56    0.57
  -1  -9   9    0.51    0.73
   0   9  -9   17.40    1.97
   0   9  -9   19.59    1.43
   0  -9   9   22.45    3.10
  -1   9  -9   30.35    1.66
  -1   9  -9   36.14    2.31
   1  -9   9   31.97    2.35
  -2   9  -9    3.30    0.79
  -2   9  -9    4.24    1.29
  -2   9  -9    4.26    1.06
   2  -9   9    5.44    1.03
  -3   9  -9   15.18    1.00
  -3   9  -9   15.71    1.05
  -3   9  -9   13.60    1.64
  -4   9  -9    3.69    0.52
  -4   9  -9    3.61    1.01
  -4   9  -9    3.87    0.76
   4  -9   9    5.96    1.05
  -5   9  -9   -0.35    0.52
   5  -9   9    0.26    0.48
   5  -9   9    0.35    0.50
  -6   9  -9    1.01    0.71
   6  -9   9    0.68    0.89
   6  -9   9    1.35    0.89
  -7   9  -9    1.47    0.70
   7  -9   9    0.73    0.93
   3   8  -9    8.70    1.37
  -3  -8   9    4.94    2.13
   2   8  -9   15.64    1.88
   2   8  -9   17.00    1.66
  -2  -8   9   20.62    4.60
   1   8  -9    6.86    2.67
   1   8  -9    7.27    1.09
   1   8  -9    9.24    1.94
  -1  -8   9   12.05    3.02
   0   8  -9    2.66    0.86
   0   8  -9    4.09    0.79
   0   8  -9    4.21    1.53
   0  -8   9    5.75    1.67
   0  -8   9    3.44    0.90
  -1   8  -9    4.57    1.55
  -1   8  -9    6.59    0.91
  -1   8  -9    6.08    0.89
  -1   8  -9    4.44    0.92
   1  -8   9    8.90    1.89
  -2   8  -9    1.27    0.45
  -2   8  -9    0.61    0.55
  -2   8  -9    1.01    0.38
   2  -8   9    2.60    1.09
   2  -8   9    1.46    0.78
  -3   8  -9    2.19    0.45
  -3   8  -9    1.83    0.42
  -3   8  -9    2.36    0.72
   3  -8   9    2.19    0.86
   3  -8   9    2.45    1.04
  -4   8  -9    8.07    1.21
  -4   8  -9    7.35    0.50
  -4   8  -9    7.33    0.54
   4  -8   9    7.50    1.61
   4  -8   9    9.39    1.98
  -5   8  -9   29.51    1.81
   5  -8   9   29.66    3.82
   5  -8   9   27.07    3.29
  -6   8  -9    0.74    0.57
   6  -8   9    0.62    0.88
   6  -8   9    1.23    0.90
  -7   8  -9    0.35    0.56
   7  -8   9    3.34    1.68
   7  -8   9    1.46    1.22
  -8   8  -9    9.76    1.21
   8  -8   9    8.14    2.71
   8  -8   9    5.15    2.23
   4   7  -9   15.37    1.83
   4   7  -9   17.04    1.87
   3   7  -9    4.62    1.95
   3   7  -9    4.95    0.99
  -3  -7   9    4.07    2.04
   2   7  -9    1.26    1.20
   2   7  -9   -0.45    0.35
   2   7  -9   -0.03    0.36
  -2  -7   9    0.41    0.88
   1   7  -9    0.39    0.40
   1   7  -9    1.09    0.80
   1   7  -9    1.08    0.65
  -1  -7   9    0.86    0.84
  -1  -7   9    1.11    0.53
   0   7  -9    0.62    0.40
   0   7  -9    0.51    0.51
   0   7  -9    0.17    0.62
   0  -7   9    3.21    1.34
   0  -7   9    0.77    0.44
  -1   7  -9    7.58    1.18
  -1   7  -9    8.77    1.97
  -1   7  -9    6.70    0.81
   1  -7   9    5.79    0.82
   1  -7   9    6.78    1.73
  -2   7  -9    7.92    0.75
  -2   7  -9    6.64    1.04
  -2   7  -9    6.96    0.72
   2  -7   9    8.14    1.70
  -3   7  -9    7.89    0.55
  -3   7  -9    9.36    1.27
  -3   7  -9    7.18    0.62
   3  -7   9    9.36    1.95
   3  -7   9    8.17    1.20
   3  -7   9    7.62    1.93
  -4   7  -9    1.66    0.60
   4  -7   9    0.48    0.55
   4  -7   9    2.43    1.16
   4  -7   9    1.62    1.00
  -5   7  -9    4.78    0.94
   5  -7   9    7.13    1.94
   5  -7   9    5.57    1.80
   5  -7   9    4.95    0.95
  -6   7  -9   20.03    1.39
   6  -7   9   18.40    1.49
   6  -7   9   13.12    2.85
   6  -7   9   24.08    4.09
  -7   7  -9    2.49    0.69
   7  -7   9    3.63    0.91
   7  -7   9    1.39    1.16
   7  -7   9    2.29    1.26
  -8   7  -9    1.04    0.58
   8  -7   9   -0.07    0.93
   8  -7   9    1.13    1.06
   8  -7   9   -0.26    0.71
   5   6  -9    0.89    0.64
   5   6  -9    2.54    0.74
  -5  -6   9    0.39    1.25
   4   6  -9    2.76    0.84
   4   6  -9    2.93    1.70
   4   6  -9    6.81    1.16
  -4  -6   9    2.01    1.47
   3   6  -9   14.93    3.21
   3   6  -9   14.01    1.61
   3   6  -9   13.29    1.38
  -3  -6   9   17.32    3.68
   2   6  -9    0.62    0.79
   2   6  -9   -0.18    0.26
   2   6  -9    0.09    0.46
  -2  -6   9    0.04    0.47
  -2  -6   9    0.53    0.45
   1   6  -9    1.93    0.63
   1   6  -9    3.84    0.75
  -1  -6   9    1.62    0.86
  -1  -6   9    3.08    0.68
   0   6  -9    4.44    0.68
   0   6  -9    3.19    1.28
   0   6  -9    3.56    0.83
   0  -6   9    3.35    0.61
   0  -6   9    3.77    0.83
   0  -6   9    5.07    1.56
  -1   6  -9   55.46    3.86
  -1   6  -9   56.14    1.78
  -1   6  -9   54.21    2.47
   1  -6   9   56.60    3.73
   1  -6   9   56.88    2.41
   1  -6   9   59.22    1.90
  -2   6  -9    0.73    0.26
  -2   6  -9    0.56    0.53
  -2   6  -9    0.46    0.24
   2  -6   9    1.10    0.48
   2  -6   9    0.50    0.51
  -3   6  -9   21.53    0.68
  -3   6  -9   21.63    0.67
  -3   6  -9   23.51    1.46
   3  -6   9   23.13    1.84
   3  -6   9   30.34    3.92
   3  -6   9   25.69    3.33
  -4   6  -9   31.84    1.70
   4  -6   9   36.15    4.45
   4  -6   9   36.54    4.26
  -5   6  -9   29.79    1.65
   5  -6   9   28.20    3.99
   5  -6   9   24.25    1.74
   5  -6   9   35.46    4.84
   6  -6   9    1.16    0.63
   6  -6   9    0.55    0.77
   6  -6   9    1.85    1.32
  -7   6  -9    8.47    1.05
   7  -6   9   10.60    2.95
   7  -6   9    4.94    0.98
   7  -6   9    8.42    2.62
  -8   6  -9    1.24    0.60
   8  -6   9   -0.15    1.04
   8  -6   9    1.95    0.82
   8  -6   9    1.43    1.43
  -9   6  -9    0.21    0.63
   9  -6   9   -0.22    0.84
   7   5  -9   -0.36    0.53
   6   5  -9    8.27    1.29
   6   5  -9    9.86    1.45
   6   5  -9   11.45    3.44
   5   5  -9    2.16    0.73
   5   5  -9   -0.01    0.70
   5   5  -9    1.20    0.56
  -5  -5   9    4.72    2.33
   4   5  -9    7.96    1.22
   4   5  -9    7.51    2.53
   4   5  -9    7.11    1.08
   3   5  -9   19.61    3.91
   3   5  -9   16.03    1.33
   3   5  -9   14.96    1.16
  -3  -5   9   15.39    1.53
  -3  -5   9   15.10    3.28
   2   5  -9   60.91    2.39
   2   5  -9   56.95    2.44
   2   5  -9   58.96    2.14
   2   5  -9   55.23    4.39
  -2  -5   9   53.86    4.38
  -2  -5   9   54.95    2.18
   1   5  -9   56.30    4.13
   1   5  -9   51.68    2.21
   1   5  -9   49.86    1.82
  -1  -5   9   49.58    2.71
  -1  -5   9   42.47    3.57
  -1  -5   9   50.46    1.91
   0   5  -9   34.04    4.17
   0   5  -9   27.67    1.54
   0   5  -9   27.43    1.19
   0  -5   9   25.97    1.23
   0  -5   9   31.67    3.84
   0  -5   9   26.35    1.54
  -1   5  -9  107.73    5.52
  -1   5  -9  103.91    3.24
   1  -5   9  106.95    3.27
   1  -5   9  105.77    5.27
   1  -5   9  101.32    2.55
  -2   5  -9   89.48    2.89
  -2   5  -9   87.33    1.94
   2  -5   9   79.07    4.56
   2  -5   9   90.02    2.95
  -3   5  -9    0.95    0.45
   3  -5   9    1.78    1.17
   3  -5   9    0.20    0.57
   3  -5   9    0.62    0.43
  -4   5  -9   23.30    1.40
   4  -5   9   25.42    1.48
   4  -5   9   27.63    4.08
   4  -5   9   27.44    4.04
  -5   5  -9    7.69    1.00
   5  -5   9    7.49    2.37
   5  -5   9   10.05    1.19
  -6   5  -9    1.82    0.58
   6  -5   9    2.97    1.98
   6  -5   9    2.02    1.34
   6  -5   9    0.98    0.65
   7  -5   9    0.04    0.90
   7  -5   9    0.16    0.51
  -8   5  -9   12.40    1.26
   8  -5   9   12.15    3.49
   8  -5   9    9.48    1.23
  -9   5  -9    3.26    0.76
   9  -5   9    5.07    3.88
   7   4  -9    0.16    0.48
   7   4  -9    0.73    1.39
   6   4  -9   11.12    3.63
   6   4  -9    3.08    0.83
  -6  -4   9    4.82    2.49
   5   4  -9   20.16    1.42
   5   4  -9   20.39    4.54
   5   4  -9   17.76    1.41
  -5  -4   9   21.54    4.33
   4   4  -9   15.86    1.22
   4   4  -9   14.38    1.44
   4   4  -9   15.79    1.28
  -4  -4   9   19.43    2.08
  -4  -4   9   23.05    4.29
   3   4  -9    2.48    0.59
   3   4  -9    3.82    1.64
   3   4  -9    2.48    0.70
  -3  -4   9    0.85    1.01
  -3  -4   9    1.70    0.62
   2   4  -9   23.90    3.78
   2   4  -9   26.44    1.30
   2   4  -9   25.94    1.50
  -2  -4   9   27.02    1.54
  -2  -4   9   30.05    1.44
   1   4  -9   38.46    1.77
   1   4  -9   36.90    3.27
   1   4  -9   39.86    1.48
  -1  -4   9   41.10    3.39
  -1  -4   9   42.17    1.84
  -1  -4   9   39.23    1.55
   0   4  -9   13.21    0.73
   0   4  -9   12.31    1.00
   0   4  -9   16.52    2.90
   0  -4   9   16.27    2.74
   0  -4   9   11.26    0.74
   0  -4   9   13.99    1.04
  -1   4  -9    3.48    1.39
  -1   4  -9    2.83    0.61
  -1   4  -9    2.44    0.34
   1  -4   9    2.43    0.58
   1  -4   9    3.82    1.36
   1  -4   9    2.38    0.38
  -2   4  -9    0.95    0.16
  -2   4  -9    0.83    0.39
   2  -4   9    1.48    0.93
   2  -4   9    1.16    0.44
  -3   4  -9    1.45    0.45
   3  -4   9    0.01    0.65
   3  -4   9    1.57    0.48
   3  -4   9   -0.07    0.57
  -4   4  -9    2.03    0.58
   4  -4   9    4.35    1.77
   4  -4   9    2.09    0.59
  -5   4  -9   27.19    1.44
   5  -4   9   23.58    4.11
   5  -4   9   26.81    1.52
  -6   4  -9   24.68    1.41
   6  -4   9   19.09    3.75
   6  -4   9   25.34    4.58
   6  -4   9   27.11    1.58
  -7   4  -9   -0.25    0.42
   7  -4   9    0.78    1.13
   7  -4   9    0.85    0.59
   7  -4   9    2.23    1.63
  -8   4  -9    3.34    0.76
   8  -4   9    1.41    1.56
   8  -4   9    4.71    0.99
  -9   4  -9    2.97    0.78
   9  -4   9    2.71    1.82
   8   3  -9    0.16    1.03
   8   3  -9    0.68    0.58
   7   3  -9    5.09    1.09
   7   3  -9    4.18    2.30
   7   3  -9    4.17    0.89
  -7  -3   9    6.86    3.22
   6   3  -9    9.41    2.89
   6   3  -9   11.29    1.39
   6   3  -9   10.14    1.19
   6   3  -9    8.87    1.24
  -6  -3   9    6.72    2.54
   5   3  -9    2.00    0.65
   5   3  -9    2.42    1.44
   5   3  -9    3.65    0.75
  -5  -3   9    2.57    1.79
   4   3  -9   15.12    1.14
   4   3  -9   22.83    4.17
   4   3  -9   12.91    1.00
   4   3  -9   12.74    1.56
  -4  -3   9   13.55    1.09
  -4  -3   9   13.90    3.26
   3   3  -9  139.71    3.59
   3   3  -9  130.79    7.07
   3   3  -9  133.86    3.72
  -3  -3   9  134.24    3.76
  -3  -3   9  140.31    7.13
  -3  -3   9  134.41    3.60
   2   3  -9   47.68    1.69
   2   3  -9   47.38    3.85
   2   3  -9   44.80    1.85
  -2  -3   9   51.55    3.93
  -2  -3   9   45.42    1.86
  -2  -3   9   47.37    1.72
   1   3  -9    9.72    2.38
   1   3  -9    8.38    0.62
   1   3  -9    9.33    1.01
  -1  -3   9   11.46    1.18
  -1  -3   9    9.04    0.95
  -1  -3   9   11.63    2.55
   0   3  -9   48.38    1.39
   0   3  -9   48.92    1.86
   0   3  -9   49.59    3.69
   0  -3   9   47.43    1.44
   0  -3   9   46.01    1.83
  -1   3  -9   23.42    1.24
  -1   3  -9   22.30    0.74
  -1   3  -9   33.82    4.32
   1  -3   9   22.23    0.78
   1  -3   9   21.73    1.22
  -2   3  -9    4.78    0.77
   2  -3   9    6.76    0.86
   2  -3   9    5.43    1.65
  -3   3  -9   -0.08    0.24
   3  -3   9    0.88    0.85
   3  -3   9    0.42    0.34
   3  -3   9    0.46    0.52
  -4   3  -9   13.26    0.98
   4  -3   9    8.89    2.34
   4  -3   9   15.98    3.32
   4  -3   9   11.60    1.15
  -5   3  -9    8.43    0.99
   5  -3   9    7.99    2.58
   5  -3   9    8.02    1.00
   5  -3   9    7.52    2.46
  -6   3  -9    7.72    1.00
   6  -3   9    5.18    1.06
   6  -3   9    3.73    1.92
   6  -3   9    7.62    2.66
  -7   3  -9   14.99    1.16
   7  -3   9   13.72    3.92
   7  -3   9    8.33    2.80
   7  -3   9   13.69    1.39
  -8   3  -9    9.19    1.12
   8  -3   9    3.75    1.94
  -9   3  -9    0.43    0.54
   9  -3   9   -0.12    1.01
   9   2  -9   10.95    4.03
   9   2  -9    8.81    1.21
   8   2  -9    8.78    1.13
   8   2  -9    9.91    3.58
   8   2  -9    8.50    1.11
   8   2  -9    6.29    1.13
   7   2  -9    3.58    0.83
   7   2  -9    5.01    0.90
   7   2  -9    6.04    3.08
  -7  -2   9    1.93    1.55
   6   2  -9   99.75    7.21
   6   2  -9   89.87    3.12
   6   2  -9   90.34    2.84
   6   2  -9   88.64    2.90
  -6  -2   9  101.23    7.30
   5   2  -9   13.71    1.01
   5   2  -9   18.77    4.01
   5   2  -9   16.29    1.17
   5   2  -9   15.64    1.11
  -5  -2   9   23.13    4.41
  -5  -2   9   15.35    1.17
   4   2  -9    0.79    0.90
   4   2  -9    0.40    0.32
   4   2  -9    1.35    0.45
  -4  -2   9    1.10    0.42
  -4  -2   9    2.24    1.48
   3   2  -9   56.81    1.96
   3   2  -9   59.58    2.08
   3   2  -9   56.03    4.32
  -3  -2   9   59.46    2.02
  -3  -2   9   58.17    2.05
  -3  -2   9   56.72    4.37
   2   2  -9   12.10    2.57
   2   2  -9   12.32    0.88
   2   2  -9   10.01    0.71
  -2  -2   9   10.05    0.82
  -2  -2   9   10.42    0.75
  -2  -2   9   15.28    2.99
   1   2  -9   22.23    1.16
   1   2  -9   22.02    0.95
   1   2  -9   28.67    3.77
  -1  -2   9   23.54    1.19
  -1  -2   9   33.98    4.03
  -1  -2   9   21.65    0.96
   0   2  -9    1.73    0.44
   0   2  -9    1.43    0.30
   0  -2   9    1.35    0.29
   0  -2   9    1.47    0.43
   0  -2   9    1.09    0.91
  -1   2  -9  102.85    2.87
  -1   2  -9   99.36    2.13
   1  -2   9  101.13    2.85
   1  -2   9  105.46    2.16
   1  -2   9  100.94    5.29
  -2   2  -9  128.42    3.32
   2  -2   9  124.22    6.15
   2  -2   9  124.72    2.38
   2  -2   9  126.68    3.35
  -3   2  -9    0.25    0.27
   3  -2   9    0.54    0.32
   3  -2   9    0.01    0.58
   3  -2   9    0.04    0.69
  -4   2  -9  123.73    3.36
   4  -2   9  118.77    2.27
   4  -2   9  115.96    6.83
   4  -2   9  126.76    7.27
   4  -2   9  120.92    2.29
   4  -2   9  126.50    3.46
  -5   2  -9   55.81    2.13
   5  -2   9   55.02    1.33
   5  -2   9   57.04    5.10
   5  -2   9   57.40    1.36
   5  -2   9   62.86    5.39
   5  -2   9   60.20    2.27
   6  -2   9    2.03    0.33
   6  -2   9    2.08    0.34
   6  -2   9    2.82    0.70
   6  -2   9    0.60    0.96
   6  -2   9    2.94    1.69
  -7   2  -9    5.47    0.91
   7  -2   9    6.67    1.27
   7  -2   9    7.35    3.21
   7  -2   9    6.65    0.63
   7  -2   9    7.30    2.88
  -8   2  -9    3.15    0.76
   8  -2   9    4.08    0.56
   8  -2   9    3.75    0.58
   8  -2   9    1.13    1.49
   9   1  -9    5.78    2.74
   9   1  -9   12.43    1.23
   8   1  -9   15.71    1.74
   8   1  -9   14.79    1.11
   8   1  -9   11.75    3.59
   8   1  -9   14.06    1.06
   7   1  -9    2.89    0.63
   7   1  -9    2.63    0.69
   7   1  -9    1.78    0.50
   7   1  -9    2.77    1.79
  -7  -1   9    2.40    1.78
   6   1  -9    0.85    1.07
   6   1  -9    0.09    0.34
   6   1  -9   -0.05    0.25
   6   1  -9    0.04    0.32
  -6  -1   9    0.59    0.99
   5   1  -9   10.01    2.70
   5   1  -9    9.00    0.76
   5   1  -9    9.23    1.11
   5   1  -9    9.23    0.96
  -5  -1   9    8.62    1.17
  -5  -1   9    9.11    2.53
   4   1  -9    0.77    0.35
   4   1  -9   -0.18    0.19
   4   1  -9    0.95    1.01
  -4  -1   9   -0.22    0.51
  -4  -1   9    0.49    0.36
  -4  -1   9    0.25    0.25
   3   1  -9   -0.06    0.48
   3   1  -9   -0.02    0.22
   3   1  -9    0.10    0.26
  -3  -1   9    0.74    0.71
  -3  -1   9    0.55    0.33
  -3  -1   9   -0.13    0.18
   2   1  -9   47.60    1.57
   2   1  -9   43.47    3.53
   2   1  -9   47.29    1.68
  -2  -1   9   45.29    1.68
  -2  -1   9   45.80    3.58
  -2  -1   9   46.94    1.55
   1   1  -9  167.09    7.06
   1   1  -9  168.68    3.96
  -1  -1   9  173.40    3.63
  -1  -1   9  165.91    6.89
   0   1  -9    4.37    0.47
   0   1  -9    3.65    0.58
   0   1  -9    3.48    1.34
   0  -1   9    4.46    0.45
   0  -1   9    8.89    2.30
   0  -1   9    5.02    0.68
  -1   1  -9   71.66    4.56
  -1   1  -9   76.46    2.29
  -1   1  -9   73.40    1.73
   1  -1   9   77.53    4.66
   1  -1   9   73.64    2.28
   1  -1   9   72.64    1.71
  -2   1  -9  130.03    3.32
   2  -1   9  119.75    7.21
   2  -1   9  124.28    6.45
   2  -1   9  126.64    2.66
   2  -1   9  127.15    3.37
   2  -1   9  130.57    2.61
  -3   1  -9   24.05    1.24
   3  -1   9   21.71    1.23
   3  -1   9   25.72    4.10
   3  -1   9   21.09    0.80
   3  -1   9   21.62    0.77
   3  -1   9   23.99    3.89
  -4   1  -9    1.06    0.44
   4  -1   9    1.11    0.48
   4  -1   9    0.71    1.10
   4  -1   9    0.72    0.26
   4  -1   9    0.90    0.28
  -5   1  -9   11.40    1.18
   5  -1   9    9.95    0.64
   5  -1   9   13.32    3.28
   5  -1   9    5.68    2.14
  -6   1  -9   -0.06    0.38
   6  -1   9   -0.71    0.57
   6  -1   9    0.60    0.32
   6  -1   9    0.27    0.28
   6  -1   9    0.93    0.58
   6  -1   9    0.25    0.91
  -7   1  -9   -0.34    0.34
   7  -1   9   -0.32    0.63
   7  -1   9    0.12    0.35
   7  -1   9   -0.14    1.27
   7  -1   9    0.03    0.29
  -8   1  -9    4.32    0.91
   8  -1   9    6.19    0.81
   8  -1   9    4.35    2.53
   9   0  -9    8.28    0.79
   9   0  -9    8.47    1.26
   9   0  -9    6.66    0.75
   9   0  -9    4.68    2.41
   8   0  -9    0.04    0.41
   8   0  -9    0.48    1.15
   8   0  -9    0.65    0.36
   8   0  -9    0.77    0.40
   7   0  -9    3.11    0.54
   7   0  -9    2.04    0.49
   7   0  -9    1.35    0.51
   7   0  -9    2.05    1.51
  -7   0   9    0.82    1.06
   6   0  -9    8.86    0.74
   6   0  -9    9.23    1.10
   5   0  -9    3.26    1.51
   5   0  -9    2.60    0.50
   5   0  -9    2.87    0.62
  -5   0   9    2.35    0.52
  -5   0   9    2.35    1.46
  -5   0   9    1.26    0.43
   4   0  -9   26.30    4.10
   4   0  -9   25.87    1.14
   4   0  -9   23.06    1.21
  -4   0   9   23.70    1.21
  -4   0   9   29.81    4.16
  -4   0   9   24.80    1.13
   3   0  -9   31.90    1.32
   3   0  -9   33.18    4.50
   3   0  -9   30.06    1.25
  -3   0   9   31.25    1.31
  -3   0   9   32.42    3.07
  -3   0   9   31.62    1.29
   2   0  -9    3.77    0.59
   2   0  -9    2.27    0.42
   2   0  -9    3.20    1.42
  -2   0   9    2.85    0.47
  -2   0   9    4.41    1.43
  -2   0   9    3.19    0.54
   1   0  -9   26.74    1.18
   1   0  -9   33.18    3.00
   1   0  -9   26.89    1.04
  -1   0   9   30.11    2.73
  -1   0   9   27.42    1.05
  -1   0   9   25.50    1.44
   0   0  -9  124.50    2.77
   0   0  -9  116.06    5.90
   0   0  -9  125.66    3.11
   0   0   9  124.11    2.75
   0   0   9  126.09    3.17
   0   0   9  119.09    5.81
  -1   0  -9   18.98    0.80
  -1   0  -9   19.19    1.04
   1   0   9   20.54    3.28
   1   0   9   17.53    0.76
   1   0   9   16.10    0.99
  -2   0  -9    1.48    0.41
   2   0   9    0.78    0.32
   2   0   9    1.13    1.00
   2   0   9    2.25    1.18
  -3   0  -9    5.69    0.81
   3   0   9    6.03    2.08
   3   0   9    4.77    0.67
   3   0   9    5.95    0.83
   3   0   9    7.14    2.22
   3   0   9    6.90    0.65
  -4   0  -9    1.07    0.44
   4   0   9    0.71    0.31
   4   0   9    2.49    1.48
   4   0   9    0.93    0.45
   4   0   9    1.65    1.10
   4   0   9    1.55    0.38
  -5   0  -9    6.38    0.95
   5   0   9    8.58    0.83
   5   0   9    4.07    2.01
   5   0   9    6.59    1.00
   5   0   9    7.39    0.77
  -6   0  -9    3.12    0.72
   6   0   9    2.41    1.56
   6   0   9    2.67    0.58
   6   0   9    2.50    0.55
   6   0   9    3.40    2.17
  -7   0  -9    3.49    0.84
   7   0   9    0.95    1.50
   7   0   9    2.55    0.58
   7   0   9    3.46    1.14
  -8   0  -9    0.69    0.71
   8   0   9    0.31    0.49
  10  -1  -9    3.61    2.27
   9  -1  -9    0.95    1.17
   9  -1  -9    1.30    0.63
   8  -1  -9    0.21    0.23
   8  -1  -9   -0.16    0.34
   8  -1  -9    0.92    1.27
   8  -1  -9    0.23    0.21
   7  -1  -9    0.67    0.41
   7  -1  -9    0.11    0.22
   7  -1  -9    0.79    1.18
   7  -1  -9    0.23    0.27
   6  -1  -9   26.09    1.04
   6  -1  -9   26.64    1.51
   6  -1  -9   28.23    4.48
   6  -1  -9   26.27    1.02
  -6   1   9   26.17    1.45
  -6   1   9   38.91    5.54
   5  -1  -9   62.88    5.50
   5  -1  -9   57.46    2.12
   5  -1  -9   63.38    1.76
  -5   1   9   65.96    5.01
  -5   1   9   60.37    1.77
  -5   1   9   61.63    2.15
   4  -1  -9    6.03    0.80
   4  -1  -9    8.73    2.22
   4  -1  -9    7.49    0.70
  -4   1   9    7.21    0.59
  -4   1   9    7.96    0.85
  -4   1   9    7.59    2.16
   3  -1  -9  200.63    8.12
   3  -1  -9  207.04    4.53
  -3   1   9  202.74    4.36
  -3   1   9  205.95    8.18
  -3   1   9  205.79    4.51
   2  -1  -9  195.48    4.30
   2  -1  -9  204.65    4.32
   2  -1  -9  192.31    7.76
  -2   1   9  198.61    4.30
  -2   1   9  197.64    7.70
  -2   1   9  203.66    4.36
   1  -1  -9   20.06    3.25
   1  -1  -9   18.41    0.97
   1  -1  -9   18.38    0.90
  -1   1   9   23.75    3.26
  -1   1   9   18.39    0.98
   0  -1  -9   44.48    3.61
   0  -1  -9   46.57    1.64
   0  -1  -9   42.64    1.42
   0   1   9   45.01    1.65
   0   1   9   45.40    3.55
   0   1   9   42.76    1.40
  -1  -1  -9   52.49    1.60
  -1  -1  -9   50.55    1.83
   1   1   9   52.10    1.88
   1   1   9   51.03    3.95
   1   1   9   51.82    4.05
   1   1   9   51.61    1.61
  -2  -1  -9    2.01    0.51
   2   1   9    2.52    0.46
   2   1   9    2.07    0.54
   2   1   9    4.07    1.55
   2   1   9    2.88    0.49
   2   1   9    1.50    1.16
  -3  -1  -9    5.14    0.82
   3   1   9    4.32    1.83
   3   1   9    3.85    0.71
   3   1   9    5.57    0.68
   3   1   9    5.24    0.63
   3   1   9    7.32    2.46
  -4  -1  -9    6.79    0.98
   4   1   9    5.57    0.89
   4   1   9    6.20    0.79
   4   1   9    8.00    0.81
   4   1   9    8.36    2.64
   4   1   9    4.76    1.93
  -5  -1  -9   18.60    1.36
   5   1   9   16.59    3.79
   5   1   9   17.12    1.09
   5   1   9   20.01    1.18
  -6  -1  -9    1.12    0.58
   6   1   9    1.30    0.48
   6   1   9    5.09    2.57
  -7  -1  -9    5.77    1.28
   7   1   9    7.78    2.93
   7   1   9    7.07    1.02
  10  -2  -9   -0.35    0.87
   9  -2  -9   12.98    3.86
   8  -2  -9   42.01    2.06
   8  -2  -9   27.73    4.96
   7  -2  -9    0.43    0.86
   7  -2  -9    1.32    0.52
   6  -2  -9   45.17    4.34
   6  -2  -9   48.23    1.27
  -6   2   9   48.16    1.96
   5  -2  -9  125.47    3.42
   5  -2  -9  123.14    6.74
   5  -2  -9  124.05    2.75
  -5   2   9  130.48    7.01
  -5   2   9  133.19    3.46
  -5   2   9  120.72    2.83
   4  -2  -9    6.51    0.80
   4  -2  -9    6.75    0.54
  -4   2   9    6.65    0.66
  -4   2   9    6.82    0.84
  -4   2   9    8.26    2.27
   3  -2  -9   25.77    3.67
   3  -2  -9   23.86    1.18
   3  -2  -9   20.36    1.08
  -3   2   9   24.83    3.44
  -3   2   9   24.11    1.05
  -3   2   9   25.55    1.16
   2  -2  -9   42.54    1.52
   2  -2  -9   41.81    3.42
   2  -2  -9   39.77    1.44
  -2   2   9   43.22    1.52
  -2   2   9   35.13    3.05
   1  -2  -9    3.18    1.36
   1  -2  -9    5.82    0.70
   1  -2  -9    3.85    0.59
  -1   2   9    5.01    0.70
  -1   2   9    6.17    1.67
  -1   2   9    6.51    0.71
   0  -2  -9   35.83    1.36
   0  -2  -9   36.42    1.50
   0  -2  -9   38.03    3.37
   0   2   9   33.84    1.47
   0   2   9   32.76    3.12
   0   2   9   34.76    1.34
  -1  -2  -9   17.62    1.10
   1   2   9   15.26    0.90
   1   2   9   17.18    1.00
   1   2   9   18.65    3.18
   1   2   9   20.01    3.44
   1   2   9   16.58    1.05
  -2  -2  -9   94.09    2.95
   2   2   9  101.87    6.16
   2   2   9   94.52    2.64
   2   2   9   94.85    2.94
   2   2   9   98.55    2.77
   2   2   9  108.10    6.45
  -3  -2  -9   24.64    1.66
   3   2   9   30.36    1.43
   3   2   9   33.82    5.04
   3   2   9   29.67    1.36
   3   2   9   29.44    1.57
   3   2   9   31.03    5.30
  -4  -2  -9   15.46    1.26
   4   2   9   14.88    1.06
   4   2   9   15.71    3.86
   4   2   9   16.47    1.14
  -5  -2  -9   32.63    1.88
   5   2   9   30.97    5.55
   5   2   9   32.22    1.62
   5   2   9   31.99    1.64
  -6  -2  -9    7.94    1.27
   6   2   9    7.05    2.93
   6   2   9    6.83    1.02
  -7  -2  -9    0.06    0.57
   7   2   9    0.18    1.04
   7   2   9    0.73    0.61
  10  -3  -9    2.77    2.00
  10  -3  -9    0.99    0.71
   9  -3  -9    0.63    0.52
   9  -3  -9    0.06    0.85
   8  -3  -9   13.72    3.44
   8  -3  -9   11.13    1.32
   7  -3  -9   22.68    1.41
   7  -3  -9   20.20    3.90
   6  -3  -9   13.56    2.86
   6  -3  -9   10.59    0.45
   6  -3  -9    8.99    1.17
  -6   3   9   12.82    1.23
   5  -3  -9    0.01    0.20
   5  -3  -9    0.91    0.87
   5  -3  -9    0.25    0.32
  -5   3   9   -0.02    0.22
  -5   3   9   -0.04    0.21
   4  -3  -9    2.11    0.39
   4  -3  -9    2.78    1.37
   4  -3  -9    1.90    0.46
  -4   3   9    0.93    0.35
  -4   3   9    1.55    1.04
  -4   3   9    1.64    0.40
   3  -3  -9    4.11    0.56
   3  -3  -9    2.35    1.23
   3  -3  -9    3.95    0.65
  -3   3   9    3.64    0.54
  -3   3   9    4.41    1.51
  -3   3   9    4.39    0.63
   2  -3  -9    9.72    0.99
   2  -3  -9    9.25    2.21
   2  -3  -9    9.09    0.92
  -2   3   9    7.14    1.87
  -2   3   9    8.35    0.84
  -2   3   9    8.76    0.86
   1  -3  -9   67.97    4.44
   1  -3  -9   70.29    2.23
   1  -3  -9   67.82    2.16
  -1   3   9   69.39    2.20
  -1   3   9   68.60    4.37
  -1   3   9   71.62    2.17
   0  -3  -9    5.57    0.80
   0  -3  -9    7.63    0.82
   0   3   9    7.26    0.87
   0   3   9    8.12    2.07
   0   3   9    7.68    0.86
   0   3   9    6.67    1.94
  -1  -3  -9    0.07    0.32
   1   3   9    0.35    0.37
   1   3   9    0.14    0.51
   1   3   9    0.36    0.64
   1   3   9    0.12    0.26
   1   3   9    0.27    0.27
  -2  -3  -9   21.21    1.54
   2   3   9   22.10    1.35
   2   3   9   22.07    1.22
   2   3   9   19.68    3.63
   2   3   9   22.74    1.29
  -3  -3  -9   15.24    1.26
   3   3   9   14.71    3.36
   3   3   9   14.11    1.06
   3   3   9   15.30    1.14
  -4  -3  -9    3.46    0.81
   4   3   9    6.42    1.17
   4   3   9    3.08    0.72
   4   3   9    8.88    2.76
  -5  -3  -9    0.00    0.48
   5   3   9   -0.02    0.43
   5   3   9    0.13    0.73
  -6  -3  -9   -0.48    0.45
   6   3   9   -0.17    0.43
   6   3   9    0.30    1.12
  10  -4  -9    5.90    1.06
  10  -4  -9    7.29    2.92
   9  -4  -9   22.60    1.65
   9  -4  -9   21.54    4.37
   8  -4  -9    1.62    0.60
   8  -4  -9   -0.06    0.66
   7  -4  -9   12.96    3.14
   7  -4  -9    8.04    1.06
   6  -4  -9   13.53    1.08
   6  -4  -9   14.28    0.54
   6  -4  -9   17.83    3.35
  -6   4   9   14.37    0.58
  -6   4   9   14.39    1.10
   5  -4  -9   -0.18    0.22
   5  -4  -9   -0.10    0.20
   5  -4  -9    0.37    0.80
  -5   4   9    0.22    0.24
  -5   4   9    0.09    0.54
   4  -4  -9    0.05    0.23
   4  -4  -9    0.21    0.27
   4  -4  -9    0.39    0.60
  -4   4   9   -0.32    0.22
  -4   4   9    0.31    0.27
   3  -4  -9    8.18    0.91
   3  -4  -9    9.81    0.76
   3  -4  -9    6.43    1.80
  -3   4   9    8.54    0.84
  -3   4   9    7.16    0.84
   2  -4  -9   47.50    1.84
   2  -4  -9   49.11    1.80
   2  -4  -9   52.64    3.91
  -2   4   9   48.21    1.79
  -2   4   9   50.16    1.86
   1  -4  -9    3.17    0.62
   1  -4  -9    4.65    0.72
  -1   4   9    3.51    0.65
  -1   4   9    4.35    0.67
   0  -4  -9   32.57    1.63
   0   4   9   36.59    3.49
   0   4   9   34.88    1.56
   0   4   9   31.33    1.56
   0   4   9   30.68    1.58
  -1  -4  -9   50.88    2.16
   1   4   9   48.05    2.06
   1   4   9   52.28    2.13
   1   4   9   51.67    2.22
   1   4   9   50.14    4.33
  -2  -4  -9   17.49    1.35
   2   4   9   17.95    1.22
   2   4   9   15.19    3.26
   2   4   9   16.55    1.25
  -3  -4  -9    2.01    0.71
   3   4   9    3.46    0.77
  -4  -4  -9    7.41    1.18
   4   4   9    6.05    1.00
   4   4   9    3.74    1.77
  -5  -4  -9    1.04    0.67
   5   4   9   -0.16    0.92
   5   4   9    1.13    0.78
  10  -5  -9    0.33    0.54
  10  -5  -9    1.40    1.65
   9  -5  -9    2.86    1.91
   9  -5  -9    2.90    0.86
   8  -5  -9    0.29    0.47
   8  -5  -9    1.98    1.33
   7  -5  -9    4.55    1.96
   6  -5  -9    3.35    0.40
   6  -5  -9    3.39    1.40
   6  -5  -9    3.62    0.72
  -6   5   9    2.88    0.39
   5  -5  -9   52.48    1.74
   5  -5  -9   52.56    2.12
   5  -5  -9   52.38    4.05
  -5   5   9   53.34    1.67
  -5   5   9   53.26    2.12
   4  -5  -9   35.12    3.16
   4  -5  -9   35.91    1.42
  -4   5   9   33.79    1.38
  -4   5   9   36.06    1.66
   3  -5  -9   19.48    3.15
   3  -5  -9   20.13    1.31
   3  -5  -9   18.61    1.12
  -3   5   9   20.04    1.22
  -3   5   9   19.97    1.13
   2  -5  -9  103.02    3.57
   2  -5  -9  107.64    3.09
  -2   5   9  106.63    3.06
  -2   5   9  105.03    3.12
   1  -5  -9   37.17    1.76
  -1   5   9   38.58    1.91
  -1   5   9   41.10    1.80
  -1   5   9   35.14    2.15
  -1   5   9   37.95    3.43
   0  -5  -9    4.26    0.80
   0   5   9    6.49    1.96
   0   5   9    3.88    0.74
   0   5   9    3.95    0.79
   0   5   9    3.52    0.79
  -1  -5  -9   11.34    1.28
   1   5   9   14.80    1.43
   1   5   9   15.86    3.28
  -2  -5  -9    4.04    0.90
   2   5   9    1.73    1.20
   2   5   9    5.08    0.90
  -3  -5  -9    3.01    0.92
   3   5   9    3.90    0.85
   3   5   9    4.07    2.02
  -4  -5  -9   -0.15    0.48
   4   5   9    0.06    0.47
   4   5   9   -0.12    0.92
   9  -6  -9    1.32    1.21
   9  -6  -9    1.05    0.58
   8  -6  -9   13.32    2.95
   8  -6  -9   10.89    1.31
   7  -6  -9   22.01    3.72
   7  -6  -9   18.31    1.36
   6  -6  -9    1.80    1.17
   6  -6  -9    1.79    0.59
   6  -6  -9    0.99    0.31
  -6   6   9    1.27    0.34
   5  -6  -9   36.01    3.25
   5  -6  -9   33.37    1.73
   5  -6  -9   33.33    1.39
  -5   6   9   33.36    1.39
   4  -6  -9   34.69    3.07
   4  -6  -9   34.27    1.53
   4  -6  -9   32.43    1.69
  -4   6   9   32.58    1.49
   3  -6  -9   -0.08    0.33
   3  -6  -9   -0.16    0.29
  -3   6   9   -0.17    0.33
   2  -6  -9    2.27    0.66
   2  -6  -9    1.60    0.63
  -2   6   9    1.20    0.94
  -2   6   9    1.29    0.54
   1  -6  -9   -0.27    0.33
  -1   6   9    0.13    0.47
  -1   6   9    1.07    0.55
  -1   6   9    1.70    1.06
   0  -6  -9    0.37    0.46
   0   6   9    1.56    0.62
   0   6   9    2.57    1.46
  -1  -6  -9    4.41    0.92
   1   6   9    6.40    1.03
   1   6   9    6.78    2.22
  -2  -6  -9    7.83    1.48
   2   6   9   12.70    3.42
   2   6   9   11.16    1.38
   3   6   9    6.34    1.18
   9  -7  -9    1.99    1.60
   9  -7  -9    1.10    0.66
   8  -7  -9   -0.16    0.62
   8  -7  -9    0.54    0.86
   7  -7  -9    2.83    1.36
   7  -7  -9    0.97    0.60
  -7   7   9    0.75    0.28
  -7   7   9    1.17    0.29
   6  -7  -9   32.47    3.10
   6  -7  -9   26.64    1.68
  -6   7   9   29.91    1.31
   5  -7  -9    7.24    1.78
   5  -7  -9    5.43    0.76
   5  -7  -9    5.36    0.96
  -5   7   9    5.04    0.80
   4  -7  -9    0.38    0.42
   4  -7  -9    0.98    0.54
  -4   7   9    0.32    0.42
   3  -7  -9   11.26    1.24
   3  -7  -9   10.19    1.20
  -3   7   9    9.68    2.38
  -3   7   9    8.06    1.03
   2  -7  -9   -0.26    0.37
  -2   7   9    0.52    0.79
  -2   7   9    0.26    0.46
   1  -7  -9    1.79    0.66
  -1   7   9    0.36    0.57
  -1   7   9    0.23    0.69
   0  -7  -9    2.93    0.81
   0   7   9    1.44    0.62
   0   7   9    1.90    1.11
  -1  -7  -9    1.40    0.69
   1   7   9    0.96    1.73
   1   7   9    1.13    0.57
   9  -8  -9   13.21    2.91
   8  -8  -9   12.83    2.57
   8  -8  -9    9.68    1.29
   7  -8  -9    3.14    0.82
   7  -8  -9    3.75    1.34
  -7   8   9    2.41    0.52
  -7   8   9    2.46    0.56
   6  -8  -9    6.67    1.72
   6  -8  -9    4.25    0.93
  -6   8   9    5.84    0.82
  -6   8   9    4.35    0.78
   5  -8  -9    1.35    0.57
   5  -8  -9    2.14    0.69
   4  -8  -9    2.68    0.74
   4  -8  -9    3.45    0.79
  -4   8   9    2.01    0.72
   3  -8  -9   -0.08    0.48
  -3   8   9    0.11    0.60
   2  -8  -9    2.64    0.83
  -2   8   9    1.56    0.64
  -1   8   9   23.09    1.85
   0  -8  -9   -0.08    0.47
  -7   9   9   -0.19    0.45
   6  -9  -9   -0.36    0.46
  -6   9   9    0.99    0.63
  -5   9   9    3.32    0.89
   4  -9  -9   12.86    1.44
  -4   9   9   14.83    1.85
   3  -9  -9    1.89    0.72
   2  -9  -9    7.21    1.26
  -6  10   9    1.80    0.78
  -5  10   9    0.15    0.68
   0  10 -10    6.31    1.13
   0 -10  10    7.32    1.54
  -1  10 -10    3.15    0.72
  -2  10 -10    0.33    0.42
  -3  10 -10    1.34    0.51
  -4  10 -10    1.04    0.82
  -5  10 -10   -0.12    0.63
  -2  -9  10   11.19    2.97
   1   9 -10    0.56    0.80
  -1  -9  10    0.74    0.95
   0   9 -10    5.73    1.57
   0   9 -10    4.70    0.89
   0  -9  10    6.88    1.91
  -1   9 -10    1.71    0.77
  -1   9 -10    0.86    0.43
   1  -9  10    1.95    1.01
  -2   9 -10    0.67    0.57
  -2   9 -10    2.59    0.84
  -2   9 -10    2.82    0.63
   2  -9  10    3.95    1.15
   2  -9  10    4.55    1.18
  -3   9 -10    0.32    0.36
  -3   9 -10    0.12    0.37
   3  -9  10    0.64    0.55
   3  -9  10    0.88    0.72
  -4   9 -10    5.80    1.22
  -4   9 -10    4.35    0.51
   4  -9  10    4.91    1.32
   4  -9  10    6.65    1.34
  -5   9 -10   10.11    1.43
   5  -9  10   16.42    2.49
   5  -9  10   14.53    2.15
  -6   9 -10    0.60    0.58
   6  -9  10    0.90    0.96
   6  -9  10    1.62    1.05
  -7   9 -10    5.06    1.37
   7  -9  10    6.98    2.06
   7  -9  10    7.26    2.15
   3   8 -10    0.32    0.48
  -3  -8  10    0.05    0.83
   2   8 -10   -0.01    0.44
   2   8 -10    0.39    0.58
  -2  -8  10   -0.09    0.74
   1   8 -10    2.33    0.86
   1   8 -10    1.71    0.59
   0   8 -10    0.60    0.98
   0   8 -10    0.54    0.41
   0   8 -10   -0.23    0.52
   0  -8  10    0.62    0.81
   0  -8  10   -0.12    0.44
  -1   8 -10    7.73    1.93
  -1   8 -10    6.66    1.17
  -1   8 -10   11.37    1.11
  -1   8 -10    9.34    0.99
   1  -8  10    7.29    1.87
  -2   8 -10   28.52    1.32
  -2   8 -10   29.32    1.95
  -2   8 -10   28.21    1.29
   2  -8  10   27.63    2.59
   2  -8  10   28.75    2.75
  -3   8 -10    4.21    0.55
  -3   8 -10    4.19    0.89
  -3   8 -10    4.05    0.71
   3  -8  10    6.14    1.61
   3  -8  10    5.47    1.60
  -4   8 -10    6.90    1.15
   4  -8  10    6.78    1.83
   4  -8  10    9.55    2.10
  -5   8 -10   18.18    1.80
   5  -8  10   18.92    3.06
   5  -8  10   18.43    2.98
  -6   8 -10    6.29    1.10
   6  -8  10    7.18    2.10
   6  -8  10    5.14    1.91
  -7   8 -10    0.12    0.53
   7  -8  10    0.06    0.88
   7  -8  10    0.73    1.07
   4   7 -10   -0.15    0.39
   4   7 -10    0.95    0.67
  -4  -7  10   -0.45    0.81
   3   7 -10    0.24    0.62
   3   7 -10    0.37    0.99
   3   7 -10    1.75    0.66
  -3  -7  10    5.01    2.22
   2   7 -10    0.78    1.08
   2   7 -10    1.23    0.53
   2   7 -10    0.81    0.59
  -2  -7  10    1.36    1.16
   1   7 -10    9.30    1.12
   1   7 -10    2.28    1.37
   1   7 -10    4.86    1.09
  -1  -7  10    6.56    1.97
  -1  -7  10    5.39    0.96
   0   7 -10    9.43    1.35
   0   7 -10   12.04    2.53
   0   7 -10    9.43    1.02
   0  -7  10   10.16    1.14
   0  -7  10    9.23    2.21
  -1   7 -10    0.49    0.32
  -1   7 -10    0.65    0.68
  -1   7 -10    0.76    0.57
   1  -7  10    0.12    0.31
   1  -7  10    0.49    0.61
  -2   7 -10   -0.47    0.35
  -2   7 -10    0.71    0.34
  -2   7 -10    0.08    0.24
   2  -7  10    1.84    0.95
  -3   7 -10   25.55    0.90
  -3   7 -10   29.40    1.77
  -3   7 -10   28.78    0.95
   3  -7  10   28.22    3.97
   3  -7  10   30.72    3.71
  -4   7 -10   11.06    1.30
   4  -7  10   15.92    3.10
   4  -7  10   13.34    2.57
  -5   7 -10    1.07    0.63
   5  -7  10    2.46    1.31
   5  -7  10    0.84    1.04
  -6   7 -10    0.11    0.44
   6  -7  10    0.25    0.72
   6  -7  10    0.10    0.69
  -7   7 -10    1.08    0.62
   7  -7  10    2.39    1.74
   7  -7  10    2.23    1.62
  -8   7 -10    0.75    0.65
   8  -7  10    1.35    2.40
   5   6 -10    0.34    0.54
   5   6 -10    0.36    0.67
   4   6 -10    1.21    0.60
   4   6 -10    1.26    1.33
   4   6 -10    0.92    0.61
  -4  -6  10    2.49    1.62
   3   6 -10   12.50    3.17
   3   6 -10   13.50    1.41
   3   6 -10   11.81    1.55
  -3  -6  10   16.10    3.60
   2   6 -10   48.93    4.37
   2   6 -10   51.20    2.11
   2   6 -10   49.30    2.44
  -2  -6  10   49.45    4.33
  -2  -6  10   48.49    2.18
   1   6 -10    2.81    1.37
   1   6 -10    1.03    0.54
   1   6 -10    1.68    0.48
  -1  -6  10    1.73    1.02
  -1  -6  10    1.40    0.53
   0   6 -10   29.62    1.76
   0   6 -10   34.02    5.08
   0   6 -10   28.44    1.33
   0  -6  10   29.51    1.44
   0  -6  10   36.99    3.31
  -1   6 -10   98.65    2.53
  -1   6 -10   99.84    5.56
  -1   6 -10  103.14    3.41
   1  -6  10   97.85    2.65
   1  -6  10   94.66    5.23
   1  -6  10   89.64    3.27
  -2   6 -10    4.25    0.46
  -2   6 -10    3.98    0.83
  -2   6 -10    4.87    0.52
   2  -6  10    6.56    1.87
   2  -6  10    5.07    0.87
  -3   6 -10    2.03    0.67
   3  -6  10    2.09    1.17
   3  -6  10    1.19    0.52
   3  -6  10    1.02    0.84
  -4   6 -10   40.22    2.00
   4  -6  10   45.28    2.17
   4  -6  10   41.56    3.88
   4  -6  10   49.28    4.01
  -5   6 -10    2.37    0.64
   5  -6  10    5.02    2.12
   5  -6  10    4.24    0.91
   5  -6  10    4.56    1.86
  -6   6 -10    0.79    0.50
   6  -6  10   -0.32    0.46
   6  -6  10    0.88    1.04
   6  -6  10    0.91    1.07
  -7   6 -10    1.48    0.62
   7  -6  10    1.94    1.54
   7  -6  10    2.70    1.58
  -8   6 -10    5.01    0.91
   8  -6  10    9.46    2.98
   7   5 -10   -0.16    0.55
   6   5 -10    8.95    2.33
   6   5 -10    8.59    3.27
   5   5 -10   28.11    1.87
   5   5 -10   25.32    1.83
  -5  -5  10   32.81    5.67
   4   5 -10    9.75    1.38
   4   5 -10    5.87    2.29
   4   5 -10    8.28    1.14
  -4  -5  10    4.99    2.23
   3   5 -10   18.34    1.46
   3   5 -10   22.29    4.22
   3   5 -10   16.80    1.22
  -3  -5  10   18.50    1.40
  -3  -5  10   23.56    5.25
   2   5 -10   57.55    2.44
   2   5 -10   53.22    2.27
   2   5 -10   59.61    4.69
   2   5 -10   51.87    2.02
  -2  -5  10   51.74    2.16
  -2  -5  10   58.48    4.57
   1   5 -10   37.44    1.53
   1   5 -10   40.17    3.64
   1   5 -10   38.77    2.05
  -1  -5  10   33.27    1.81
  -1  -5  10   33.37    1.55
   0   5 -10    5.42    1.79
   0   5 -10    6.99    0.73
   0   5 -10    5.84    0.93
   0  -5  10    7.49    1.98
   0  -5  10    7.05    1.13
   0  -5  10    4.91    0.71
  -1   5 -10    4.85    0.81
  -1   5 -10    6.53    1.88
   1  -5  10    9.09    1.32
   1  -5  10    7.93    2.00
   1  -5  10    5.17    0.61
  -2   5 -10    0.30    0.37
  -2   5 -10    0.39    0.18
   2  -5  10    0.51    0.65
   2  -5  10    0.32    0.38
  -3   5 -10   17.20    1.23
   3  -5  10   21.23    3.37
   3  -5  10   15.38    1.23
   3  -5  10   13.39    2.80
  -4   5 -10    8.88    1.09
   4  -5  10   15.32    4.42
   4  -5  10   13.53    2.93
   5  -5  10   47.73    4.45
   5  -5  10   45.55    5.77
   5  -5  10   47.06    2.18
  -6   5 -10   17.78    1.31
   6  -5  10   19.13    4.03
   6  -5  10   20.00    1.50
   6  -5  10   19.00    3.99
  -7   5 -10    5.15    0.86
   7  -5  10    2.54    0.85
   7  -5  10    3.60    1.88
  -8   5 -10   12.33    1.34
   8  -5  10   13.03    3.69
   7   4 -10    3.69    0.95
   7   4 -10    2.23    1.72
   6   4 -10    0.16    0.77
   6   4 -10    0.88    0.60
   6   4 -10   -0.08    0.36
  -6  -4  10    1.09    1.30
   5   4 -10    6.54    1.09
   5   4 -10    5.29    0.90
   5   4 -10    5.46    2.34
  -5  -4  10    9.94    3.53
   4   4 -10   24.40    1.51
   4   4 -10   24.14    1.46
   4   4 -10   26.53    1.64
   4   4 -10   25.88    4.70
  -4  -4  10   27.35    4.55
   3   4 -10   14.56    1.61
   3   4 -10   17.06    3.46
   3   4 -10   15.82    1.09
   3   4 -10   14.84    1.15
  -3  -4  10   14.75    3.42
  -3  -4  10   19.42    1.84
   2   4 -10    0.46    0.46
   2   4 -10    0.32    0.33
   2   4 -10    1.30    1.10
  -2  -4  10    0.94    0.50
  -2  -4  10    0.90    0.42
   1   4 -10   -0.10    0.33
   1   4 -10    0.31    0.38
   1   4 -10   -0.02    0.21
  -1  -4  10    0.99    0.45
  -1  -4  10    0.07    0.26
   0   4 -10   -0.05    0.28
   0   4 -10    0.12    0.40
   0   4 -10    0.03    0.20
   0  -4  10    1.38    0.85
   0  -4  10    0.24    0.33
   0  -4  10    0.18    0.21
  -1   4 -10    4.70    0.77
  -1   4 -10    2.98    1.22
  -1   4 -10    4.00    0.44
   1  -4  10    4.33    0.49
   1  -4  10    5.74    0.91
   1  -4  10    5.76    1.78
  -2   4 -10   24.45    0.63
  -2   4 -10   23.64    1.38
   2  -4  10   26.68    1.47
   2  -4  10   29.88    3.96
  -3   4 -10   38.77    1.78
   3  -4  10   40.78    1.85
   3  -4  10   39.28    3.72
  -4   4 -10   -0.29    0.30
   4  -4  10   -0.17    0.54
   4  -4  10    0.31    0.37
  -5   4 -10    5.19    0.82
   5  -4  10    5.57    2.14
   5  -4  10    4.91    2.04
  -6   4 -10   10.44    1.14
   6  -4  10   13.59    3.49
   6  -4  10    9.88    1.25
   6  -4  10    9.96    2.89
  -7   4 -10    3.64    0.80
   7  -4  10    8.68    3.08
   7  -4  10    3.86    2.27
   7  -4  10    5.36    1.03
  -8   4 -10    0.11    0.44
   8  -4  10    0.00    0.88
   8   3 -10    1.27    0.66
   8   3 -10    1.04    1.53
   7   3 -10    4.23    0.94
   7   3 -10    4.80    2.43
   7   3 -10    4.32    0.89
  -7  -3  10    9.16    3.61
   6   3 -10   40.15    2.01
   6   3 -10   42.07    1.98
   6   3 -10   49.32    7.18
   6   3 -10   42.52    2.13
  -6  -3  10   50.40    7.46
   5   3 -10   18.70    1.28
   5   3 -10   19.70    1.37
   5   3 -10   20.42    4.36
   5   3 -10   20.02    1.39
  -5  -3  10   29.81    5.43
   4   3 -10   10.72    1.26
   4   3 -10    9.81    1.10
   4   3 -10    9.57    1.14
   4   3 -10   14.35    3.44
  -4  -3  10   12.41    3.20
  -4  -3  10   10.29    1.19
   3   3 -10    9.02    1.10
   3   3 -10    9.24    0.99
   3   3 -10   13.77    3.37
  -3  -3  10   11.89    3.13
  -3  -3  10    8.54    1.07
  -3  -3  10   10.35    1.14
   2   3 -10    6.74    0.95
   2   3 -10   10.57    3.20
   2   3 -10    9.16    0.94
  -2  -3  10   10.15    2.61
  -2  -3  10    6.83    0.85
  -2  -3  10    8.49    1.03
   1   3 -10   -0.08    0.20
   1   3 -10   -0.22    0.35
   1   3 -10   -0.05    0.25
  -1  -3  10   -0.19    0.26
  -1  -3  10    1.28    0.85
  -1  -3  10   -0.11    0.19
   0   3 -10    8.76    2.17
   0   3 -10    8.00    0.99
   0   3 -10    7.14    0.52
   0  -3  10    7.48    2.03
   0  -3  10    7.75    0.56
   0  -3  10    8.67    1.02
  -1   3 -10   82.15    5.09
  -1   3 -10   72.81    1.71
  -1   3 -10   74.87    2.50
   1  -3  10   72.79    2.47
   1  -3  10   75.62    1.77
   1  -3  10   82.25    4.83
  -2   3 -10   18.04    1.16
   2  -3  10   15.03    2.90
   2  -3  10   18.02    1.17
  -3   3 -10   30.59    1.51
   3  -3  10   28.67    4.02
   3  -3  10   30.89    1.56
   3  -3  10   32.92    4.64
  -4   3 -10   81.21    2.65
   4  -3  10   89.93    6.01
   4  -3  10   74.86    5.52
   4  -3  10   79.37    2.69
  -5   3 -10   13.83    1.11
   5  -3  10   15.15    3.39
   5  -3  10   16.85    3.69
  -6   3 -10    1.51    0.57
   6  -3  10    3.19    2.03
   6  -3  10    1.17    0.58
  -7   3 -10    7.55    1.02
   7  -3  10    2.95    1.93
   7  -3  10    4.72    2.26
  -8   3 -10    2.41    0.73
   8  -3  10    1.03    1.22
   9   2 -10   14.63    1.56
   9   2 -10   10.61    3.82
   8   2 -10    3.86    1.94
   8   2 -10    6.82    1.06
   8   2 -10    5.37    1.11
   8   2 -10    7.72    1.06
   7   2 -10    1.07    0.61
   7   2 -10    0.98    0.51
   7   2 -10    0.89    0.49
   6   2 -10    7.32    1.04
   6   2 -10    7.81    2.64
   6   2 -10   10.05    1.19
   6   2 -10   11.14    1.22
  -6  -2  10    9.23    2.98
   5   2 -10    1.93    0.55
   5   2 -10    1.55    0.49
   5   2 -10    6.65    2.40
   5   2 -10    1.47    0.53
  -5  -2  10    2.56    1.69
  -5  -2  10    0.84    0.43
   4   2 -10   31.28    1.52
   4   2 -10   30.05    1.48
   4   2 -10   33.08    4.81
  -4  -2  10   31.84    1.56
  -4  -2  10   30.07    1.53
  -4  -2  10   36.13    5.13
   3   2 -10    2.69    0.56
   3   2 -10    1.07    0.96
   3   2 -10    1.93    0.50
  -3  -2  10    0.91    0.83
  -3  -2  10    1.66    0.50
  -3  -2  10    2.28    0.51
   2   2 -10  150.58    7.19
   2   2 -10  157.06    3.63
   2   2 -10  147.93    3.84
  -2  -2  10  150.37    3.88
  -2  -2  10  156.30    7.26
  -2  -2  10  153.45    3.66
   1   2 -10  112.15    3.14
   1   2 -10  116.49    2.77
   1   2 -10  116.05    6.10
  -1  -2  10  107.62    5.78
  -1  -2  10  117.38    2.80
  -1  -2  10  115.08    3.20
   0   2 -10   15.88    0.73
   0   2 -10   26.47    3.98
   0   2 -10   17.72    1.08
   0  -2  10   16.17    1.04
   0  -2  10   20.26    3.11
   0  -2  10   16.46    0.76
  -1   2 -10  171.28    4.20
  -1   2 -10  181.38    7.93
  -1   2 -10  168.05    3.35
   1  -2  10  167.94    4.19
   1  -2  10  172.42    3.38
   1  -2  10  164.78    7.32
  -2   2 -10  101.06    2.94
   2  -2  10   97.53    2.93
   2  -2  10   98.41    2.01
   2  -2  10  108.15    6.01
  -3   2 -10    0.21    0.32
   3  -2  10    0.62    0.71
   3  -2  10    0.34    0.84
   3  -2  10    0.32    0.33
   3  -2  10    0.60    0.13
   3  -2  10    0.70    0.13
  -4   2 -10   12.94    1.05
   4  -2  10   15.17    3.49
   4  -2  10   10.20    1.14
   4  -2  10   11.26    3.46
  -5   2 -10    5.86    1.06
   5  -2  10    4.87    0.34
   5  -2  10    3.09    1.75
   5  -2  10    9.05    3.02
   5  -2  10    4.60    0.88
   5  -2  10    4.30    0.32
  -6   2 -10    3.23    0.73
   6  -2  10    4.03    2.21
   6  -2  10    2.52    0.33
   6  -2  10    1.29    1.33
   6  -2  10    3.51    0.39
   6  -2  10    4.21    0.90
  -7   2 -10    0.09    0.43
   7  -2  10   -0.56    1.08
   7  -2  10    0.17    0.22
   7  -2  10    0.19    0.23
   7  -2  10   -0.24    0.66
  -8   2 -10    6.77    1.06
   8  -2  10    5.74    2.68
   9   1 -10    0.81    0.50
   9   1 -10    1.58    1.77
   8   1 -10    0.36    0.42
   8   1 -10   -0.21    0.33
   8   1 -10    0.44    0.51
   8   1 -10    0.11    0.95
   7   1 -10    0.36    0.76
   7   1 -10   -0.29    0.33
   7   1 -10    0.21    0.35
   7   1 -10    0.48    0.43
  -7  -1  10    0.78    1.18
   6   1 -10    0.61    0.45
   6   1 -10    1.22    0.44
   6   1 -10    0.57    0.95
   6   1 -10    1.52    0.50
  -6  -1  10    1.30    1.29
   5   1 -10   74.48    5.70
   5   1 -10   69.00    2.21
   5   1 -10   72.92    2.32
   5   1 -10   73.60    3.11
  -5  -1  10   69.39    2.51
  -5  -1  10   72.91    5.69
   4   1 -10   51.23    1.84
   4   1 -10   43.21    4.08
   4   1 -10   48.44    1.89
  -4  -1  10   53.46    4.51
  -4  -1  10   50.77    1.93
  -4  -1  10   47.81    1.81
   3   1 -10    0.21    0.25
   3   1 -10    0.65    0.30
   3   1 -10    0.16    0.65
  -3  -1  10    0.12    0.38
  -3  -1  10    0.10    0.25
  -3  -1  10   -0.20    0.21
   2   1 -10   68.77    4.64
   2   1 -10   67.71    2.17
   2   1 -10   66.95    2.00
  -2  -1  10   65.96    2.17
  -2  -1  10   68.27    2.01
  -2  -1  10   72.12    5.28
   1   1 -10   94.57    2.69
   1   1 -10   89.54    5.24
   1   1 -10   90.39    2.31
  -1  -1  10   97.34    5.39
  -1  -1  10   94.06    2.35
  -1  -1  10   93.64    2.68
   0   1 -10   12.74    0.89
   0   1 -10   11.85    0.64
   0   1 -10   13.71    2.67
   0  -1  10   11.09    0.85
   0  -1  10   12.99    0.66
   0  -1  10   14.99    2.85
  -1   1 -10    2.85    0.39
  -1   1 -10    2.66    1.35
  -1   1 -10    2.31    0.55
   1  -1  10    2.94    0.59
   1  -1  10    3.07    0.38
  -2   1 -10    0.39    0.36
   2  -1  10    0.77    0.43
   2  -1  10    0.68    0.23
   2  -1  10   -0.23    0.58
   2  -1  10    0.55    0.23
   2  -1  10    1.24    1.07
  -3   1 -10    2.93    0.61
   3  -1  10    3.24    0.40
   3  -1  10    2.32    1.17
   3  -1  10    2.70    0.60
   3  -1  10    3.26    0.38
   3  -1  10    2.58    1.47
  -4   1 -10    0.13    0.31
   4  -1  10    0.57    0.42
   4  -1  10   -0.58    0.53
   4  -1  10    0.42    0.24
   4  -1  10    0.06    0.19
   4  -1  10   -0.37    0.50
  -5   1 -10   17.61    1.26
   5  -1  10   17.53    1.12
   5  -1  10   17.01    1.31
   5  -1  10   17.95    0.84
   5  -1  10   15.56    3.68
   5  -1  10   16.71    3.80
  -6   1 -10   23.67    1.52
   6  -1  10   26.95    1.14
   6  -1  10   24.93    1.09
   6  -1  10   23.92    4.58
   6  -1  10   32.36    7.10
  -7   1 -10    0.43    0.50
   7  -1  10    1.13    0.40
   7  -1  10    1.63    0.47
   7  -1  10    0.60    0.93
   7  -1  10    0.01    1.55
  -8   1 -10    2.73    1.08
   8  -1  10    2.75    0.60
   8  -1  10    1.94    1.79
   9   0 -10    0.56    0.45
   9   0 -10    1.46    0.45
   9   0 -10    0.32    0.98
   9   0 -10    1.28    0.90
   8   0 -10    0.64    0.36
   8   0 -10   -0.45    0.33
   8   0 -10    1.50    1.34
   7   0 -10    2.15    0.50
   7   0 -10    2.49    0.54
   7   0 -10    3.12    0.79
   7   0 -10    4.31    2.01
   6   0 -10   33.43    1.41
   6   0 -10   36.86    1.41
   6   0 -10   35.45    1.77
   6   0 -10   39.69    6.01
  -6   0  10   36.26    5.64
   5   0 -10    0.20    0.80
   5   0 -10    0.54    0.34
   5   0 -10    0.29    0.31
  -5   0  10    1.30    0.40
  -5   0  10    0.73    0.90
   4   0 -10   22.17    1.11
   4   0 -10   20.88    1.17
   4   0 -10   27.14    4.12
  -4   0  10   21.66    1.18
  -4   0  10   20.84    1.10
  -4   0  10   29.15    4.29
   3   0 -10   62.77    2.02
   3   0 -10   59.52    4.43
   3   0 -10   63.55    2.01
  -3   0  10   68.49    4.73
  -3   0  10   59.89    1.97
  -3   0  10   62.98    2.01
   2   0 -10   67.20    2.12
   2   0 -10   71.04    2.04
   2   0 -10   74.87    4.77
  -2   0  10   75.14    4.74
  -2   0  10   71.02    2.03
  -2   0  10   66.84    2.12
   1   0 -10    1.37    0.33
   1   0 -10    2.96    1.29
   1   0 -10    1.08    0.42
  -1   0  10    1.43    0.98
  -1   0  10    1.78    0.46
  -1   0  10    1.58    0.39
   0   0 -10   21.22    3.56
   0   0 -10   15.44    0.96
   0   0 -10   17.27    0.83
   0   0  10   15.84    0.79
   0   0  10   25.31    3.58
   0   0  10   16.92    1.03
  -1   0 -10   10.23    0.84
  -1   0 -10    9.63    0.93
   1   0  10   10.20    0.62
   1   0  10   11.66    2.52
   1   0  10   11.31    0.87
  -2   0 -10    0.82    0.38
   2   0  10   -0.03    0.48
   2   0  10    1.67    0.35
   2   0  10    0.57    0.33
   2   0  10    0.37    0.84
  -3   0 -10   16.54    1.13
   3   0  10   15.73    0.80
   3   0  10   14.38    1.09
   3   0  10   12.27    2.76
   3   0  10   14.89    0.83
   3   0  10   18.19    3.65
   4   0  10    2.61    1.44
   4   0  10    3.03    1.54
   4   0  10    3.95    0.57
   4   0  10    4.07    0.57
   4   0  10    1.76    0.57
  -5   0 -10    1.37    0.53
   5   0  10    2.04    1.50
   5   0  10    1.39    0.43
   5   0  10    4.06    2.29
   5   0  10    1.77    0.41
  -6   0 -10    2.79    0.72
   6   0  10    3.00    0.58
   6   0  10    1.97    0.53
   6   0  10    3.17    2.00
  -7   0 -10   -0.23    0.44
   7   0  10    0.02    0.97
   7   0  10    0.69    0.42
   7   0  10    0.87    0.56
  -8   0 -10    4.45    1.01
   8   0  10    2.44    2.25
   8   0  10    4.17    0.79
  10  -1 -10    1.68    1.80
   9  -1 -10   11.96    1.51
   9  -1 -10    9.80    4.44
   8  -1 -10   24.41    4.84
   8  -1 -10   23.58    0.92
   8  -1 -10   25.25    0.97
   8  -1 -10   22.79    1.59
   7  -1 -10    4.46    0.53
   7  -1 -10    4.71    0.85
   7  -1 -10    4.86    2.22
   7  -1 -10    4.76    0.57
   6  -1 -10   69.58    5.61
   6  -1 -10   65.61    2.45
   6  -1 -10   68.38    1.88
   6  -1 -10   65.54    2.32
  -6   1  10   72.27    5.80
   5  -1 -10  100.83    2.86
   5  -1 -10  104.52    6.57
   5  -1 -10   96.50    2.98
  -5   1  10  110.19   10.27
  -5   1  10   99.24    2.96
  -5   1  10  101.71    2.61
   4  -1 -10    2.37    1.28
   4  -1 -10    0.91    0.32
   4  -1 -10    2.70    0.59
  -4   1  10    1.46    0.47
  -4   1  10    1.49    0.39
  -4   1  10    2.72    1.46
   3  -1 -10   34.75    1.36
   3  -1 -10   32.71    1.40
   3  -1 -10   37.42    4.80
  -3   1  10   32.79    1.55
  -3   1  10   32.84    1.37
  -3   1  10   37.41    3.44
   2  -1 -10    3.10    0.53
   2  -1 -10    3.42    0.57
   2  -1 -10    2.88    1.24
  -2   1  10    4.16    1.47
  -2   1  10    2.46    0.49
  -2   1  10    3.45    0.55
   1  -1 -10    3.73    0.55
   1  -1 -10    3.05    1.42
   1  -1 -10    2.76    0.55
  -1   1  10    2.81    1.20
  -1   1  10    4.32    0.56
  -1   1  10    2.85    0.53
   0  -1 -10    8.87    0.75
   0  -1 -10    8.29    2.16
   0  -1 -10    9.01    0.66
   0   1  10    7.78    0.85
   0   1  10    8.29    2.18
   0   1  10    8.32    0.75
  -1  -1 -10   72.69    2.03
  -1  -1 -10   70.97    2.33
   1   1  10   73.78    2.01
   1   1  10   74.41    4.96
   1   1  10   69.83    4.92
   1   1  10   65.05    2.28
  -2  -1 -10   63.60    2.26
   2   1  10   62.45    1.87
   2   1  10   62.62    1.96
   2   1  10   63.33    4.98
   2   1  10   58.55    4.76
   2   1  10   56.64    2.19
  -3  -1 -10   12.25    1.27
   3   1  10   14.11    3.12
   3   1  10   11.43    0.80
   3   1  10   11.65    0.86
   3   1  10   19.36    4.27
   3   1  10   13.95    1.12
  -4  -1 -10   46.10    2.10
   4   1  10   49.40    1.76
   4   1  10   51.48    6.36
   4   1  10   50.74    6.42
   4   1  10   48.67    1.83
  -5  -1 -10   42.55    2.10
   5   1  10   44.95    1.78
   5   1  10   47.74    1.87
  -6  -1 -10    5.05    0.96
   6   1  10    5.82    2.52
   6   1  10    7.00    0.91
   6   1  10    7.83    0.98
  -7  -1 -10    3.70    1.00
   7   1  10    5.19    2.39
   7   1  10    5.50    0.90
  10  -2 -10   -0.26    0.90
   9  -2 -10   13.61    3.61
   9  -2 -10   22.04    1.66
   8  -2 -10   21.76    4.53
   8  -2 -10   21.22    1.52
   7  -2 -10    3.55    0.35
   7  -2 -10    2.72    1.53
   7  -2 -10    3.79    0.36
   7  -2 -10    3.85    0.82
   6  -2 -10   11.70    0.64
   6  -2 -10   12.32    3.15
   6  -2 -10   10.17    1.09
  -6   2  10   10.68    0.67
  -6   2  10   10.32    1.12
   5  -2 -10    1.54    0.38
   5  -2 -10    0.73    0.89
   5  -2 -10    1.27    0.47
  -5   2  10    0.18    0.59
  -5   2  10    1.03    0.42
  -5   2  10    1.23    0.37
   4  -2 -10    0.21    0.33
   4  -2 -10    0.70    0.31
   4  -2 -10    0.03    0.54
  -4   2  10    0.49    0.77
  -4   2  10    0.51    0.30
  -4   2  10   -0.10    0.23
   3  -2 -10    3.66    1.64
   3  -2 -10    2.84    0.55
   3  -2 -10    2.85    0.48
  -3   2  10    3.21    0.56
  -3   2  10    3.54    1.40
   2  -2 -10   26.70    1.22
   2  -2 -10   27.02    1.25
   2  -2 -10   30.06    4.06
  -2   2  10   27.82    3.76
  -2   2  10   27.62    1.26
  -2   2  10   27.94    1.24
   1  -2 -10  153.11    7.15
   1  -2 -10  147.10    3.55
   1  -2 -10  150.28    3.68
  -1   2  10  150.68    3.71
  -1   2  10  149.01    3.55
  -1   2  10  146.46    6.81
   0  -2 -10   11.41    0.79
   0  -2 -10   12.51    0.93
   0   2  10   13.37    2.69
   0   2  10   11.05    0.77
   0   2  10   11.70    0.90
  -1  -2 -10   29.37    1.48
   1   2  10   31.98    1.34
   1   2  10   34.92    4.75
   1   2  10   31.53    1.41
   1   2  10   28.67    1.47
   1   2  10   35.99    4.73
  -2  -2 -10   87.80    2.89
   2   2  10   90.61    3.30
   2   2  10   84.60    5.88
   2   2  10   90.83    6.14
   2   2  10   91.32    2.67
   2   2  10   89.93    2.57
  -3  -2 -10    1.33    0.51
   3   2  10    1.33    0.54
   3   2  10    1.90    0.53
   3   2  10    2.59    1.67
   3   2  10    2.45    0.53
  -4  -2 -10    1.85    0.69
   4   2  10    1.69    0.55
   4   2  10    4.41    2.21
  -5  -2 -10    0.96    0.64
   5   2  10    0.03    0.68
   5   2  10    0.88    0.48
   5   2  10    1.78    0.58
  -6  -2 -10    0.58    0.58
   6   2  10    0.43    0.46
   6   2  10    0.66    1.30
   7   2  10    0.07    1.23
   7   2  10    0.41    0.54
  10  -3 -10    2.12    1.49
   9  -3 -10   10.17    1.42
   9  -3 -10   17.41    4.25
   8  -3 -10    0.72    0.96
   8  -3 -10   -0.18    0.36
   7  -3 -10    0.54    0.90
   7  -3 -10   -0.15    0.30
   6  -3 -10    2.54    0.62
   6  -3 -10    3.12    0.37
   6  -3 -10    4.54    1.86
  -6   3  10    2.84    0.68
  -6   3  10    2.42    0.37
   5  -3 -10    9.20    2.24
   5  -3 -10    6.88    0.56
   5  -3 -10    6.41    0.85
  -5   3  10   10.10    1.46
  -5   3  10    7.75    0.61
   4  -3 -10   22.98    1.27
   4  -3 -10   28.44    3.93
   4  -3 -10   24.31    1.06
  -4   3  10   21.09    1.20
  -4   3  10   25.61    3.76
  -4   3  10   24.15    1.10
   3  -3 -10   33.93    1.38
   3  -3 -10   38.57    3.45
   3  -3 -10   35.18    1.53
  -3   3  10   39.10    3.43
  -3   3  10   37.21    1.54
  -3   3  10   37.83    1.47
   2  -3 -10    0.02    0.25
   2  -3 -10   -0.04    0.41
   2  -3 -10   -0.10    0.21
  -2   3  10   -0.27    0.25
  -2   3  10    0.06    0.24
  -2   3  10    0.25    0.49
   1  -3 -10   10.66    0.84
   1  -3 -10    6.05    1.78
   1  -3 -10   10.57    0.88
  -1   3  10   10.68    1.08
  -1   3  10   11.58    0.84
  -1   3  10   10.88    2.33
   0  -3 -10   51.61    1.84
   0  -3 -10   46.70    1.91
   0   3  10   45.68    4.00
   0   3  10   46.00    3.93
   0   3  10   47.42    1.91
   0   3  10   51.15    1.82
  -1  -3 -10   10.57    1.15
   1   3  10   12.08    2.73
   1   3  10   15.40    1.56
   1   3  10   12.15    0.91
   1   3  10   12.41    1.17
  -2  -3 -10    1.17    0.52
   2   3  10    0.28    0.37
   2   3  10    1.31    1.16
   2   3  10    0.93    0.43
  -3  -3 -10    0.17    0.42
   3   3  10    1.27    0.50
   3   3  10    1.16    0.48
   3   3  10    0.62    0.87
  -4  -3 -10    0.66    0.57
   4   3  10    1.27    0.54
   4   3  10    0.26    0.69
  -5  -3 -10    1.09    0.68
   5   3  10    0.52    0.49
   5   3  10    3.37    2.45
   6   3  10    1.69    1.21
  10  -4 -10    5.27    2.72
   9  -4 -10    1.30    0.72
   9  -4 -10    3.98    1.98
   8  -4 -10    0.70    0.48
   8  -4 -10   -0.22    0.63
   7  -4 -10    0.26    0.37
   7  -4 -10    0.59    0.82
   6  -4 -10   16.07    3.32
   6  -4 -10   12.83    0.62
   6  -4 -10   10.97    1.17
  -6   4  10   10.60    1.43
  -6   4  10   12.01    0.65
   5  -4 -10   50.85    4.19
   5  -4 -10   46.90    1.99
  -5   4  10   46.44    1.54
  -5   4  10   46.77    1.95
   4  -4 -10    2.04    0.55
   4  -4 -10    1.80    0.41
   4  -4 -10    0.21    0.53
  -4   4  10    1.98    0.44
  -4   4  10    0.86    0.62
   3  -4 -10   49.64    3.98
   3  -4 -10   51.97    1.83
   3  -4 -10   50.66    1.97
  -3   4  10   50.07    1.93
  -3   4  10   50.66    1.84
   2  -4 -10   75.73    2.41
   2  -4 -10   71.50    2.40
   2  -4 -10   81.44    5.19
  -2   4  10   75.31    2.42
  -2   4  10   72.34    2.35
   1  -4 -10   12.35    0.96
   1  -4 -10   12.26    1.00
  -1   4  10   12.04    0.99
  -1   4  10   12.21    0.94
   0  -4 -10   12.23    1.27
   0   4  10    8.80    1.05
   0   4  10   12.34    1.22
   0   4  10   11.10    2.61
  -1  -4 -10   11.25    1.28
   1   4  10   10.86    1.21
   1   4  10   10.47    1.10
   1   4  10    9.07    2.35
  -2  -4 -10    0.94    0.58
   2   4  10    0.04    0.49
   2   4  10    1.19    1.28
   2   4  10   -0.68    0.29
  -3  -4 -10    1.18    0.61
   3   4  10    0.82    1.03
   3   4  10    1.31    0.58
  -4  -4 -10    1.08    0.70
   4   4  10    0.81    1.45
   4   4  10    0.63    0.49
   5   4  10    8.51    1.24
  10  -5 -10    0.65    1.16
   9  -5 -10    7.27    1.18
   9  -5 -10    7.94    2.58
   8  -5 -10   33.94    5.27
   8  -5 -10   28.98    1.79
   7  -5 -10    8.20    2.72
   7  -5 -10    7.21    1.01
   6  -5 -10   21.02    0.88
   6  -5 -10   21.91    3.68
   6  -5 -10   20.64    1.38
  -6   5  10   20.14    0.91
   5  -5 -10   69.01    4.87
   5  -5 -10   68.55    2.53
   5  -5 -10   68.76    2.04
  -5   5  10   67.10    2.91
  -5   5  10   68.95    2.28
   4  -5 -10   18.13    1.06
   4  -5 -10   17.89    1.24
   4  -5 -10   22.21    3.39
  -4   5  10   17.69    1.06
   3  -5 -10    3.01    1.40
   3  -5 -10    2.43    0.64
   3  -5 -10    1.92    0.55
  -3   5  10    1.62    0.47
   2  -5 -10   27.45    1.51
   2  -5 -10   30.53    1.56
  -2   5  10   27.91    1.50
  -2   5  10   32.61    1.59
   1  -5 -10    1.98    0.78
  -1   5  10    0.64    0.47
  -1   5  10    0.66    0.49
  -1   5  10    1.62    1.22
  -1   5  10    2.09    0.55
   0  -5 -10   13.69    1.39
   0   5  10   14.63    3.02
   0   5  10   13.43    1.38
  -1  -5 -10    0.03    0.40
   1   5  10   -0.07    0.59
   1   5  10    0.74    0.49
  -2  -5 -10   30.02    1.90
   2   5  10   33.56    5.26
   2   5  10   34.33    1.93
  -3  -5 -10   11.31    1.46
   3   5  10   13.69    1.46
   3   5  10   14.07    3.77
   4   5  10    0.47    0.57
  10  -6 -10    4.04    2.18
   9  -6 -10    0.89    0.61
   9  -6 -10    0.52    1.02
   8  -6 -10    4.83    0.96
   8  -6 -10    8.66    2.61
   7  -6 -10   15.10    3.25
   7  -6 -10   11.96    1.33
   6  -6 -10    0.92    0.54
   6  -6 -10    0.69    0.34
   6  -6 -10    0.29    0.61
  -6   6  10    0.84    0.37
   5  -6 -10    0.15    0.37
   5  -6 -10    0.87    0.73
   5  -6 -10    0.03    0.34
  -5   6  10    0.84    0.45
   4  -6 -10    0.21    0.41
   4  -6 -10    1.38    0.93
   4  -6 -10    0.34    0.43
  -4   6  10   -0.21    0.37
   3  -6 -10    1.00    0.47
   3  -6 -10   -0.05    0.33
  -3   6  10    1.47    0.53
   2  -6 -10    1.60    0.59
   2  -6 -10    1.53    0.56
  -2   6  10    2.48    1.21
  -2   6  10    1.03    0.54
   1  -6 -10    9.46    1.16
  -1   6  10   16.64    3.14
  -1   6  10   10.74    1.28
   0  -6 -10   27.91    1.77
   0   6  10   27.42    1.80
  -1  -6 -10   -0.14    0.45
   1   6  10    0.24    0.80
   1   6  10    0.61    0.49
  -2  -6 -10    5.48    1.05
   2   6  10    5.19    2.40
   2   6  10    6.57    1.15
   3   6  10    4.15    1.05
   9  -7 -10   11.46    3.33
   9  -7 -10   13.79    2.16
   8  -7 -10    2.78    1.58
   8  -7 -10    1.01    0.63
   7  -7 -10    1.06    1.01
   7  -7 -10    0.28    0.46
  -7   7  10    0.26    0.29
  -7   7  10    0.64    0.30
   6  -7 -10    4.64    1.50
   6  -7 -10    4.56    0.87
   6  -7 -10    4.10    0.63
  -6   7  10    4.71    0.70
   5  -7 -10    0.02    0.39
   5  -7 -10    0.87    0.78
   5  -7 -10    0.91    0.52
  -5   7  10    0.69    0.48
   4  -7 -10    0.20    0.42
   4  -7 -10    0.07    0.41
  -4   7  10    0.18    0.46
   3  -7 -10    3.20    0.78
   3  -7 -10    2.58    0.69
  -3   7  10    4.28    1.57
  -3   7  10    2.26    0.72
   2  -7 -10   16.89    1.38
  -2   7  10   14.43    1.55
  -2   7  10   15.84    2.96
   1  -7 -10    4.08    0.95
  -1   7  10    3.28    0.96
  -1   7  10    4.06    1.84
   0   7  10    4.00    1.76
   0   7  10    4.20    0.91
  -1  -7 -10    7.88    1.20
   1   7  10    7.88    1.25
   9  -8 -10    2.11    1.41
   8  -8 -10    1.21    1.18
   8  -8 -10    0.21    0.67
   7  -8 -10    2.61    1.16
   7  -8 -10    1.34    0.65
  -7   8  10    1.49    0.49
   6  -8 -10    0.51    0.53
   6  -8 -10    1.31    0.93
  -6   8  10    0.44    0.48
   5  -8 -10   15.05    1.81
   5  -8 -10   22.27    2.75
  -5   8  10   19.87    1.39
   4  -8 -10   21.24    1.52
   4  -8 -10   17.04    1.80
   3  -8 -10    2.36    0.77
  -3   8  10    1.13    0.72
   2  -8 -10   47.12    2.41
   1  -8 -10    1.44    0.79
  -1   8  10    2.00    0.84
  -6   9  10    0.14    0.59
   5  -9 -10    6.90    1.10
   4  -9 -10   10.02    1.31
   3  -9 -10    1.00    1.00
   2  -9 -10    2.22    0.84
  -1  10 -11    0.33    0.44
   1 -10  11    0.47    0.53
  -2  10 -11    0.24    0.39
  -3  10 -11    0.58    0.62
  -2  -9  11    1.37    1.48
   1   9 -11    1.74    0.69
  -1  -9  11    3.58    1.66
   0   9 -11    0.55    0.47
   0  -9  11    0.83    0.80
  -1   9 -11   15.78    1.91
  -1   9 -11   16.09    1.19
   1  -9  11   20.93    2.96
  -2   9 -11   19.52    1.24
  -2   9 -11   20.90    1.21
  -2   9 -11   22.52    1.88
   2  -9  11   19.02    2.73
   2  -9  11   27.81    2.61
  -3   9 -11   -0.19    0.47
  -3   9 -11    0.35    0.36
  -3   9 -11    0.36    0.32
   3  -9  11    1.06    0.78
   3  -9  11    1.52    1.00
  -4   9 -11   17.16    1.91
   4  -9  11   19.25    2.72
   4  -9  11   25.26    3.24
  -5   9 -11   12.55    1.83
   5  -9  11   14.00    2.40
   5  -9  11   16.92    2.81
  -6   9 -11    0.84    0.73
   6  -9  11   -0.02    0.71
  -3  -8  11   -0.37    0.85
   2   8 -11    4.85    1.15
  -2  -8  11    4.86    2.10
   1   8 -11   13.07    1.75
   1   8 -11   14.25    1.42
   0   8 -11    2.59    0.65
   0   8 -11    3.10    1.16
   0   8 -11    0.89    1.37
   0  -8  11    3.24    0.77
   0  -8  11    2.63    1.38
  -1   8 -11    8.51    0.95
  -1   8 -11   10.60    2.37
  -1   8 -11   11.68    1.56
   1  -8  11   10.34    2.20
  -2   8 -11   11.51    1.50
  -2   8 -11    9.71    0.79
  -2   8 -11   10.65    0.84
   2  -8  11   14.06    2.64
  -3   8 -11    2.67    0.85
  -3   8 -11    3.42    0.47
   3  -8  11    3.33    1.29
   3  -8  11    3.66    1.37
  -4   8 -11    0.39    0.50
   4  -8  11    1.14    0.89
   4  -8  11    2.65    1.38
  -5   8 -11    0.15    0.46
   5  -8  11    0.46    0.71
   5  -8  11    0.80    0.81
  -6   8 -11    0.43    0.54
   6  -8  11    1.88    1.27
   6  -8  11    1.12    1.16
  -7   8 -11   -0.11    0.56
   7  -8  11    0.04    1.06
   7  -8  11    0.04    0.99
   4   7 -11    2.34    0.88
  -4  -7  11   -0.08    0.95
   3   7 -11   13.25    1.49
   3   7 -11   13.29    1.77
  -3  -7  11   14.74    3.75
   2   7 -11    5.48    1.21
   2   7 -11    3.59    0.81
   2   7 -11    5.59    2.14
  -2  -7  11    5.60    2.39
   1   7 -11    2.73    1.37
   1   7 -11    2.65    0.85
   1   7 -11    2.00    0.57
  -1  -7  11    3.25    1.57
  -1  -7  11    1.55    0.59
   0   7 -11   23.30    3.75
   0   7 -11   16.73    1.78
   0   7 -11   19.14    1.17
   0  -7  11   21.42    3.50
   0  -7  11   18.37    1.24
  -1   7 -11   33.28    1.38
  -1   7 -11   29.36    4.12
  -1   7 -11   26.66    1.82
   1  -7  11   31.23    1.45
   1  -7  11   32.84    4.02
  -2   7 -11   -0.03    0.21
  -2   7 -11    0.21    0.46
   2  -7  11    0.71    0.81
  -3   7 -11    1.42    0.24
  -3   7 -11    2.37    0.69
  -3   7 -11    1.55    0.25
   3  -7  11    1.28    1.05
   3  -7  11    3.68    1.51
  -4   7 -11    1.80    0.74
   4  -7  11    1.23    0.95
   4  -7  11    2.47    1.49
  -5   7 -11    0.32    0.53
   5  -7  11    1.22    1.21
   5  -7  11    2.80    1.72
  -6   7 -11    1.57    0.73
   6  -7  11    1.19    0.99
   6  -7  11    2.56    1.48
  -7   7 -11    2.71    0.77
   7  -7  11   -0.21    0.89
   7  -7  11    5.21    2.39
  -8   7 -11    0.63    0.59
   8  -7  11    1.78    1.32
   5   6 -11   17.41    2.02
   4   6 -11    0.63    0.63
   4   6 -11   -0.12    0.35
   4   6 -11    0.12    0.76
  -4  -6  11   -0.24    0.70
   3   6 -11   23.81    1.77
   3   6 -11   24.60    1.54
   3   6 -11   21.37    4.18
   2   6 -11   51.70    2.13
   2   6 -11   54.48    4.73
   2   6 -11   51.63    2.53
  -2  -6  11   55.94    4.75
  -2  -6  11   49.33    2.27
   1   6 -11    1.21    0.59
   1   6 -11    2.87    1.60
   1   6 -11    1.30    0.44
  -1  -6  11    0.47    0.43
  -1  -6  11    1.19    1.06
   0   6 -11   16.02    0.98
   0   6 -11   15.24    3.46
   0   6 -11   15.45    1.61
   0  -6  11   15.25    1.03
   0  -6  11   17.65    3.22
  -1   6 -11    4.38    0.86
  -1   6 -11    4.60    0.58
   1  -6  11    5.28    1.66
   1  -6  11    3.52    0.57
  -2   6 -11    9.25    1.20
  -2   6 -11   11.82    0.61
   2  -6  11   15.08    1.83
   2  -6  11    9.07    2.20
  -3   6 -11    1.75    0.65
   3  -6  11    1.08    0.59
   3  -6  11    1.11    1.07
   3  -6  11    1.12    0.82
  -4   6 -11   31.68    1.80
   4  -6  11   26.47    4.55
   4  -6  11   40.50    4.98
  -5   6 -11   15.46    1.31
   5  -6  11   14.95    3.45
   5  -6  11   20.43    3.66
  -6   6 -11    1.89    0.67
   6  -6  11    5.60    2.31
   6  -6  11    1.69    1.33
  -7   6 -11    4.38    0.88
   7  -6  11    0.15    1.02
   7  -6  11    6.01    2.43
  -8   6 -11   12.33    1.41
   8  -6  11   13.55    5.98
   6   5 -11    5.10    1.27
   5   5 -11   27.01    1.89
   5   5 -11   35.41    6.55
  -5  -5  11   20.26    4.57
   4   5 -11    3.72    0.78
   4   5 -11    4.43    2.22
   4   5 -11    4.26    0.92
  -4  -5  11    5.42    2.30
   3   5 -11    3.04    0.71
   3   5 -11    3.55    0.86
   3   5 -11    3.69    1.72
   2   5 -11    0.07    0.36
   2   5 -11    0.48    0.36
   2   5 -11    0.28    0.84
  -2  -5  11    1.75    1.33
   1   5 -11   10.94    1.36
   1   5 -11   10.59    2.61
   1   5 -11   10.36    0.83
  -1  -5  11   14.30    3.06
  -1  -5  11   11.44    1.14
   0   5 -11    1.56    0.56
   0   5 -11    2.63    0.49
   0   5 -11    3.25    1.51
   0  -5  11    1.56    0.46
   0  -5  11    0.96    0.53
  -1   5 -11   25.22    2.85
  -1   5 -11   25.41    3.95
  -1   5 -11   25.92    1.45
   1  -5  11   20.51    1.43
   1  -5  11   22.96    1.01
   1  -5  11   32.99    4.40
  -2   5 -11   59.17    1.39
   2  -5  11   55.99    4.33
   2  -5  11   62.04    2.48
  -3   5 -11   20.61    1.56
   3  -5  11   20.24    3.46
   3  -5  11   22.04    1.48
  -4   5 -11    3.46    0.78
   4  -5  11    3.21    1.56
   4  -5  11    5.65    2.03
   4  -5  11    1.82    0.62
  -5   5 -11   46.85    2.13
   5  -5  11   52.42    4.98
   5  -5  11   47.53    2.28
   5  -5  11   52.52    4.73
  -6   5 -11   10.79    1.27
   6  -5  11   12.22    3.17
  -7   5 -11    0.42    0.45
   7  -5  11   -0.34    0.93
   7  -5  11   -0.05    0.65
  -8   5 -11    0.19    0.49
   8  -5  11    0.26    0.84
   7   4 -11    7.20    2.69
   7   4 -11    6.81    1.21
   6   4 -11    4.59    2.52
   6   4 -11    3.40    0.86
   6   4 -11    3.63    0.92
  -6  -4  11    3.98    2.02
   5   4 -11    1.11    1.22
   5   4 -11    4.33    0.92
   5   4 -11    4.27    0.92
  -5  -4  11    4.22    2.09
   4   4 -11   -0.14    0.28
   4   4 -11    0.14    0.63
   4   4 -11   -0.54    0.29
   4   4 -11    0.23    0.41
  -4  -4  11    0.22    0.66
   3   4 -11    0.95    0.93
   3   4 -11    1.57    0.61
  -3  -4  11    1.43    0.53
  -3  -4  11    2.14    0.67
  -3  -4  11    2.76    1.61
   2   4 -11    4.98    0.74
   2   4 -11    4.11    0.83
   2   4 -11    5.51    1.93
  -2  -4  11    5.24    0.94
  -2  -4  11    5.07    2.01
  -2  -4  11    5.56    0.87
   1   4 -11   11.02    2.74
   1   4 -11   11.99    1.30
   1   4 -11    9.85    0.75
  -1  -4  11   14.09    1.49
  -1  -4  11    9.77    0.79
   0   4 -11   56.92    4.34
   0   4 -11   57.10    1.71
   0   4 -11   60.18    2.32
   0  -4  11   57.32    2.30
  -1   4 -11    1.51    1.15
  -1   4 -11    1.98    0.56
  -1   4 -11    2.69    0.38
   1  -4  11    1.58    0.33
   1  -4  11    1.10    0.51
  -2   4 -11   38.37    1.81
  -2   4 -11   36.32    0.84
   2  -4  11   35.92    1.80
  -3   4 -11    5.29    0.84
   3  -4  11    7.05    2.36
   3  -4  11    4.59    0.96
  -4   4 -11   12.30    1.59
   4  -4  11   13.06    3.10
   4  -4  11   12.48    2.85
   4  -4  11   14.28    1.19
  -5   4 -11    3.19    0.72
   5  -4  11    2.02    1.21
   5  -4  11    2.61    0.73
   5  -4  11    5.14    2.06
  -6   4 -11    0.35    0.42
   6  -4  11    0.81    1.22
  -7   4 -11    0.83    0.52
   7  -4  11    0.64    1.07
   7  -4  11    1.27    1.50
  -8   4 -11    0.35    0.52
   8  -4  11    0.77    1.16
   8   3 -11    0.71    1.40
   8   3 -11    7.08    1.18
   7   3 -11    5.05    0.99
   7   3 -11    5.16    1.01
   7   3 -11    5.24    2.64
  -7  -3  11    5.24    4.26
   6   3 -11    2.39    0.70
   6   3 -11    2.13    0.69
   6   3 -11    5.44    2.53
  -6  -3  11    4.89    2.62
   5   3 -11    5.96    0.95
   5   3 -11    6.43    2.46
   5   3 -11    8.07    1.10
   5   3 -11    6.97    1.06
  -5  -3  11    9.15    2.93
   4   3 -11   -0.21    0.42
   4   3 -11    0.09    0.34
   4   3 -11    0.46    0.43
  -4  -3  11    0.12    0.32
  -4  -3  11    0.36    0.67
   3   3 -11   28.02    4.48
   3   3 -11   22.48    1.41
   3   3 -11   26.63    1.34
  -3  -3  11   26.79    1.52
  -3  -3  11   24.61    1.36
  -3  -3  11   26.67    4.25
   2   3 -11   99.93    6.06
   2   3 -11   94.86    3.03
   2   3 -11  100.72    2.75
  -2  -3  11   88.96    5.65
  -2  -3  11  103.15    2.84
  -2  -3  11   99.22    3.10
   1   3 -11    9.76    0.88
   1   3 -11    8.71    2.46
   1   3 -11    9.38    1.13
  -1  -3  11    7.64    0.99
  -1  -3  11    9.37    0.89
  -1  -3  11    7.55    2.15
   0   3 -11   22.51    1.32
   0   3 -11   22.57    1.06
   0   3 -11   19.99    3.40
   0  -3  11   23.62    1.36
   0  -3  11   21.50    0.96
   0  -3  11   28.25    3.96
  -1   3 -11  114.86    3.40
  -1   3 -11  124.31    6.74
  -1   3 -11  121.12    2.55
   1  -3  11  119.94    3.47
   1  -3  11  120.47    2.59
   1  -3  11  120.51    6.27
  -2   3 -11   50.36    1.06
  -2   3 -11   48.16    2.01
   2  -3  11   46.65    2.02
   2  -3  11   49.13    1.07
   2  -3  11   49.07    4.13
  -3   3 -11    0.90    0.44
   3  -3  11    0.91    0.92
   3  -3  11    1.08    0.48
   3  -3  11    0.31    0.81
  -4   3 -11   16.61    1.19
   4  -3  11   17.70    1.86
   4  -3  11   21.14    3.92
   4  -3  11   17.78    3.62
  -5   3 -11    3.62    0.78
   5  -3  11    2.72    0.68
   5  -3  11    2.67    1.66
   5  -3  11    4.14    2.11
  -6   3 -11    1.02    0.53
   6  -3  11    1.03    1.23
   6  -3  11    1.36    1.27
  -7   3 -11    1.47    0.65
   7  -3  11    1.46    1.67
   7  -3  11    2.77    2.34
  -8   3 -11    4.21    0.91
   8  -3  11    8.41    3.25
   8   2 -11    2.92    1.21
   8   2 -11    2.78    0.79
   8   2 -11    2.76    2.11
   7   2 -11    2.86    1.74
   7   2 -11    1.68    0.56
  -7  -2  11    3.25    2.30
   6   2 -11   15.93    1.22
   6   2 -11   17.52    1.71
   6   2 -11   17.54    3.99
   6   2 -11   16.43    1.33
  -6  -2  11   17.40    4.07
   5   2 -11   75.49    2.71
   5   2 -11   77.55    2.57
   5   2 -11   85.78    6.49
   5   2 -11   77.94    2.68
  -5  -2  11   83.88    6.39
   4   2 -11   24.34    1.38
   4   2 -11   28.63    4.83
   4   2 -11   24.29    1.35
  -4  -2  11   24.92    1.77
  -4  -2  11   27.63    4.73
  -4  -2  11   25.91    1.44
   3   2 -11   25.40    1.29
   3   2 -11   27.35    1.43
   3   2 -11   33.94    5.01
  -3  -2  11   26.61    1.42
  -3  -2  11   25.02    1.31
   2   2 -11  131.63    3.27
   2   2 -11  132.01    3.57
   2   2 -11  128.41    6.88
  -2  -2  11  132.41    3.61
  -2  -2  11  130.66    6.82
  -2  -2  11  130.45    3.29
   1   2 -11   48.08    1.90
   1   2 -11   46.12    1.53
   1   2 -11   45.16    3.89
  -1  -2  11   46.21    1.89
  -1  -2  11   48.93    1.59
  -1  -2  11   48.71    3.95
   0   2 -11   12.02    2.75
   0   2 -11   12.73    0.68
   0   2 -11   12.48    0.96
   0  -2  11   15.45    2.84
   0  -2  11   11.90    0.93
   0  -2  11   10.09    0.62
  -1   2 -11   22.13    1.27
  -1   2 -11   22.77    0.83
  -1   2 -11   29.21    4.41
   1  -2  11   27.76    4.02
   1  -2  11   23.60    0.84
   1  -2  11   22.67    1.29
  -2   2 -11    3.85    0.71
   2  -2  11    2.97    0.31
   2  -2  11    2.24    1.22
   2  -2  11    2.91    0.65
  -3   2 -11   26.26    1.42
   3  -2  11   24.72    0.68
   3  -2  11   24.05    0.65
   3  -2  11   24.18    1.41
   3  -2  11   22.15    3.74
  -4   2 -11   -0.08    0.40
   4  -2  11   -0.10    0.35
   4  -2  11    1.33    1.20
   4  -2  11    2.18    1.78
  -5   2 -11   56.64    2.29
   5  -2  11   54.39    2.36
   5  -2  11   56.57    1.23
   5  -2  11   59.50    5.52
   5  -2  11   57.89    7.05
   5  -2  11   55.56    1.21
  -6   2 -11   21.64    1.46
   6  -2  11   21.08    0.70
   6  -2  11   18.77    4.37
   6  -2  11   25.13    5.25
   6  -2  11   19.40    0.67
  -7   2 -11    0.95    0.53
   7  -2  11    0.55    1.93
   7  -2  11    0.20    0.21
   7  -2  11    0.17    0.21
   7  -2  11    3.10    2.65
  -8   2 -11    6.36    1.26
   8  -2  11    3.37    2.11
   9   1 -11   -0.57    0.91
   9   1 -11    1.53    0.58
   8   1 -11   19.31    1.27
   8   1 -11   17.59    1.74
   8   1 -11   15.69    4.11
   8   1 -11   15.03    1.10
   7   1 -11   16.98    4.08
   7   1 -11   11.52    1.38
   7   1 -11   12.46    1.00
   7   1 -11   14.15    1.06
  -7  -1  11    8.86    3.20
   6   1 -11    0.02    0.32
   6   1 -11   -0.19    0.49
   6   1 -11   -0.02    0.27
   6   1 -11   -0.03    0.31
  -6  -1  11    1.17    1.15
   5   1 -11    8.09    0.92
   5   1 -11    5.68    0.89
   5   1 -11    6.55    2.30
  -5  -1  11    5.05    0.80
  -5  -1  11    5.83    0.89
  -5  -1  11    4.77    1.93
   4   1 -11   38.18    1.63
   4   1 -11   38.15    1.68
   4   1 -11   46.63    5.78
  -4  -1  11   40.11    1.68
  -4  -1  11   44.09    5.90
  -4  -1  11   37.56    1.67
   3   1 -11   17.26    1.02
   3   1 -11   17.45    1.08
   3   1 -11   21.81    4.15
  -3  -1  11   18.10    3.40
  -3  -1  11   16.00    0.99
  -3  -1  11   14.09    0.99
   2   1 -11    0.20    0.26
   2   1 -11    3.01    1.49
   2   1 -11   -0.01    0.31
  -2  -1  11    1.06    0.89
  -2  -1  11    0.76    0.40
  -2  -1  11    0.62    0.30
   1   1 -11    4.22    0.56
   1   1 -11    3.92    0.63
   1   1 -11    4.17    1.60
  -1  -1  11    3.61    0.63
  -1  -1  11    4.66    1.65
  -1  -1  11    4.58    0.60
   0   1 -11    5.74    0.80
   0   1 -11    6.47    0.71
   0   1 -11    8.18    2.42
   0  -1  11    6.03    0.83
   0  -1  11    4.67    1.57
   0  -1  11    4.78    0.54
  -1   1 -11   19.59    0.81
  -1   1 -11   17.64    3.42
  -1   1 -11   18.59    1.16
   1  -1  11   18.49    0.80
   1  -1  11   18.72    1.16
   1  -1  11   29.21    4.07
  -2   1 -11   40.90    1.76
   2  -1  11   39.92    1.77
   2  -1  11   38.47    1.23
   2  -1  11   46.84    5.74
   2  -1  11   41.57    1.19
   2  -1  11   33.03    4.46
  -3   1 -11   25.96    1.43
   3  -1  11   24.48    0.93
   3  -1  11   30.09    4.82
   3  -1  11   26.07    1.48
   3  -1  11   25.93    0.92
  -4   1 -11    6.38    0.93
   4  -1  11    6.22    2.33
   4  -1  11    6.31    0.49
   4  -1  11    8.67    2.62
   4  -1  11    5.97    0.57
   4  -1  11    5.58    0.91
  -5   1 -11   10.64    1.25
   5  -1  11    6.36    2.51
   5  -1  11   13.20    3.37
   5  -1  11   11.40    0.91
   5  -1  11   10.28    0.66
  -6   1 -11    6.69    1.01
   6  -1  11    7.92    0.74
   6  -1  11   11.01    3.43
   6  -1  11    7.01    0.70
   6  -1  11    8.16    3.25
  -7   1 -11    1.86    0.68
   7  -1  11    1.43    0.42
   7  -1  11    1.61    0.45
   7  -1  11    3.59    2.16
  -8   1 -11   -0.29    0.51
   8  -1  11    0.47    1.14
   9   0 -11    8.25    0.87
   9   0 -11    9.09    3.47
   8   0 -11    5.09    2.56
   8   0 -11    5.04    0.69
   8   0 -11    4.07    1.11
   8   0 -11    3.95    0.66
   7   0 -11   28.00    1.69
   7   0 -11   27.80    1.28
   7   0 -11   29.83    1.37
   7   0 -11   36.49    5.84
   6   0 -11   23.73    4.64
   6   0 -11   22.29    1.17
   6   0 -11   20.99    1.10
   6   0 -11   20.07    1.35
  -6   0  11   22.40    4.65
   5   0 -11   20.37    1.13
   5   0 -11   27.65    4.63
  -5   0  11   22.20    1.17
  -5   0  11   20.85    4.17
  -5   0  11   20.94    1.29
   4   0 -11    0.61    1.01
   4   0 -11    0.69    0.37
   4   0 -11    0.14    0.31
  -4   0  11    0.20    0.80
  -4   0  11    0.65    0.37
  -4   0  11    0.95    0.39
   3   0 -11   13.92    0.91
   3   0 -11   12.23    0.88
   3   0 -11   13.78    2.99
  -3   0  11   13.15    0.88
  -3   0  11   16.79    3.36
  -3   0  11   12.48    0.90
   2   0 -11    2.10    0.48
   2   0 -11    2.18    1.25
   2   0 -11    2.12    0.46
  -2   0  11    2.43    0.48
  -2   0  11    2.84    1.42
  -2   0  11    2.54    0.54
   1   0 -11    2.84    0.49
   1   0 -11    5.35    1.77
   1   0 -11    3.36    0.61
  -1   0  11    3.38    0.63
  -1   0  11    3.96    1.52
  -1   0  11    3.90    0.55
   0   0 -11   11.81    0.90
   0   0 -11   13.49    0.75
   0   0 -11   13.21    2.73
   0   0  11   13.25    0.87
   0   0  11   22.60    3.55
   0   0  11   13.07    0.95
  -1   0 -11   53.99    1.99
  -1   0 -11   51.40    1.57
   1   0  11   53.42    4.33
   1   0  11   51.47    1.99
   1   0  11   52.60    1.56
  -2   0 -11   28.72    1.47
   2   0  11   24.32    3.94
   2   0  11   33.48    4.79
   2   0  11   30.68    1.55
   2   0  11   28.89    1.10
   2   0  11   29.23    1.17
  -3   0 -11   20.23    1.33
   3   0  11   25.83    4.23
   3   0  11   20.76    1.19
   3   0  11   22.37    4.25
   3   0  11   20.22    0.98
   3   0  11   20.42    1.34
  -4   0 -11   24.42    1.47
   4   0  11   23.57    1.07
   4   0  11   23.18    1.50
   4   0  11   22.58    1.10
   4   0  11   19.08    4.57
  -5   0 -11   13.75    1.47
   5   0  11   14.27    0.90
   5   0  11   15.43    4.27
   5   0  11   20.28    4.28
   5   0  11   12.50    0.91
  -6   0 -11    0.34    0.50
   6   0  11    0.14    0.36
   6   0  11    0.70    0.98
   6   0  11    0.39    0.36
  -7   0 -11    1.36    0.70
   7   0  11    1.06    1.43
   7   0  11    0.58    0.42
   7   0  11    0.77    0.63
  10  -1 -11    4.52    2.34
   9  -1 -11   15.83    1.67
   9  -1 -11   24.57    6.67
   8  -1 -11    8.21    0.69
   8  -1 -11    9.39    0.64
   8  -1 -11   14.83    4.06
   8  -1 -11   10.47    1.38
   7  -1 -11    1.82    0.64
   7  -1 -11    1.51    1.25
   7  -1 -11    1.03    0.32
   7  -1 -11    1.35    0.43
   6  -1 -11    9.30    1.18
   6  -1 -11   10.81    2.99
   6  -1 -11   10.02    0.75
  -6   1  11   10.05    0.79
   5  -1 -11    0.30    0.64
   5  -1 -11    0.38    0.35
   5  -1 -11    0.56    0.31
  -5   1  11    0.03    0.28
  -5   1  11   -0.38    0.49
   4  -1 -11   18.36    3.66
   4  -1 -11   16.74    0.97
   4  -1 -11   17.07    1.07
  -4   1  11   17.89    3.40
  -4   1  11   15.51    1.04
  -4   1  11   16.54    0.97
   3  -1 -11    0.15    0.28
   3  -1 -11    0.29    0.29
   3  -1 -11   -0.20    0.43
  -3   1  11    0.70    0.91
  -3   1  11    0.38    0.26
  -3   1  11    0.00    0.22
   2  -1 -11  134.56    3.36
   2  -1 -11  123.35    6.66
   2  -1 -11  142.83    3.46
  -2   1  11  147.51    6.99
  -2   1  11  135.01    3.35
  -2   1  11  137.26    3.49
   1  -1 -11  101.69    2.85
   1  -1 -11  101.58    2.68
   1  -1 -11  102.01    5.98
  -1   1  11  105.78    2.69
  -1   1  11  103.62    5.80
  -1   1  11  100.39    2.90
   0  -1 -11   -0.08    0.21
   0  -1 -11   -0.34    0.46
   0  -1 -11   -0.09    0.24
   0   1  11   -0.17    0.49
   0   1  11    0.32    0.29
   0   1  11    0.08    0.21
  -1  -1 -11   92.57    2.49
  -1  -1 -11   96.05    2.90
   1   1  11   94.17    2.91
   1   1  11  101.38    6.24
   1   1  11   94.09    5.99
   1   1  11   95.03    2.48
  -2  -1 -11   56.29    2.22
   2   1  11   61.05    1.87
   2   1  11   73.31    6.80
   2   1  11   59.43    5.00
   2   1  11   58.22    1.94
  -3  -1 -11    5.61    0.89
   3   1  11    6.56    0.98
   3   1  11    7.39    0.80
   3   1  11    7.39    0.80
   3   1  11    5.27    2.07
   3   1  11    4.13    1.88
  -4  -1 -11   12.04    1.27
   4   1  11   22.11    4.69
   4   1  11   15.14    1.02
   4   1  11   11.41    0.90
  -5  -1 -11    3.80    0.88
   5   1  11    1.32    0.52
   5   1  11    1.99    1.35
   5   1  11    0.92    0.43
   6   1  11    1.15    1.53
   6   1  11    2.01    0.63
   6   1  11    2.00    0.60
   7   1  11    0.25    1.10
   7   1  11    0.34    0.52
  10  -2 -11    1.40    1.60
   9  -2 -11    0.26    0.44
   9  -2 -11    1.28    1.57
   8  -2 -11    1.88    0.64
   8  -2 -11    1.09    1.14
   7  -2 -11    0.99    0.27
   7  -2 -11    1.03    0.52
   7  -2 -11    2.37    1.47
   7  -2 -11    1.06    0.28
   6  -2 -11   -0.12    0.28
   6  -2 -11    0.30    0.78
   6  -2 -11    0.25    0.24
  -6   2  11    0.15    0.28
   5  -2 -11   47.84    2.48
   5  -2 -11   41.56    1.49
   5  -2 -11   51.16    4.49
  -5   2  11   45.74    1.60
  -5   2  11   45.24    1.88
   4  -2 -11   92.14    5.81
   4  -2 -11   95.26    2.84
   4  -2 -11   97.99    2.56
  -4   2  11   92.44    5.81
  -4   2  11   93.78    2.62
  -4   2  11   94.64    2.82
   3  -2 -11    1.74    0.44
   3  -2 -11    2.28    1.30
   3  -2 -11    0.90    0.37
  -3   2  11    1.67    0.43
  -3   2  11    2.31    1.24
  -3   2  11    1.38    0.39
   2  -2 -11   41.33    5.58
   2  -2 -11   40.83    1.59
   2  -2 -11   39.05    1.56
  -2   2  11   37.69    1.70
  -2   2  11   40.61    1.57
   1  -2 -11   97.53    6.60
   1  -2 -11  107.47    2.99
   1  -2 -11  104.47    2.84
  -1   2  11  108.60    3.03
  -1   2  11  101.65    2.78
   0  -2 -11    6.65    0.87
   0  -2 -11    4.99    0.71
   0   2  11    3.62    0.65
   0   2  11    7.41    2.06
   0   2  11    4.61    0.65
  -1  -2 -11    6.59    0.92
   1   2  11    6.74    0.81
   1   2  11    6.46    0.95
   1   2  11    8.37    2.30
   1   2  11    8.27    0.88
   1   2  11    7.57    2.31
  -2  -2 -11    4.20    0.85
   2   2  11    3.24    0.60
   2   2  11    2.90    0.71
   2   2  11    3.75    1.87
   2   2  11    2.60    0.57
  -3  -2 -11   11.40    1.29
   3   2  11   12.45    1.17
   3   2  11   13.40    0.98
   3   2  11   13.32    3.51
  -4  -2 -11    0.36    0.43
   4   2  11    0.31    0.47
   4   2  11    0.60    0.42
   4   2  11    0.62    0.89
  -5  -2 -11    3.10    0.88
   5   2  11    2.22    1.86
   5   2  11    3.74    0.75
  -6  -2 -11   11.08    1.51
   6   2  11   13.33    3.90
   6   2  11   13.30    1.36
  10  -3 -11    1.28    1.53
   9  -3 -11    3.43    2.24
   9  -3 -11    2.80    0.82
   8  -3 -11    1.22    0.61
   7  -3 -11    9.81    3.02
   7  -3 -11    8.76    1.15
   6  -3 -11    9.35    0.60
   6  -3 -11   10.04    1.13
   6  -3 -11   14.81    3.41
  -6   3  11    9.72    0.66
   5  -3 -11   12.21    2.77
   5  -3 -11   11.82    0.75
   5  -3 -11   12.79    1.02
  -5   3  11   10.76    0.77
  -5   3  11   10.07    1.17
   4  -3 -11   15.64    0.92
   4  -3 -11   13.59    1.03
   4  -3 -11   14.25    2.89
  -4   3  11   15.66    1.57
  -4   3  11   14.72    0.93
   3  -3 -11   39.06    1.67
   3  -3 -11   35.80    4.57
   3  -3 -11   40.26    1.56
  -3   3  11   40.59    1.68
  -3   3  11   38.52    1.58
  -3   3  11   40.33    5.51
   2  -3 -11   18.18    1.08
   2  -3 -11   17.73    1.10
   2  -3 -11   21.51    3.46
  -2   3  11   17.04    1.07
  -2   3  11   14.06    2.75
  -2   3  11   17.41    1.06
   1  -3 -11    4.14    0.67
   1  -3 -11    6.20    1.92
   1  -3 -11    5.09    0.78
  -1   3  11    4.14    0.66
  -1   3  11    4.49    0.74
  -1   3  11    3.05    1.45
   0  -3 -11    0.62    0.35
   0  -3 -11   -0.22    0.26
   0   3  11    0.40    0.33
   0   3  11   -0.13    0.29
   0   3  11    1.04    0.92
  -1  -3 -11    1.03    0.49
   1   3  11    2.29    0.54
   1   3  11    2.21    1.51
   1   3  11    1.49    0.58
   1   3  11    1.02    0.46
  -2  -3 -11    3.04    0.78
   2   3  11    4.57    2.03
   2   3  11    2.80    0.59
   2   3  11    2.64    0.62
  -3  -3 -11    6.24    1.13
   3   3  11    5.43    0.86
   3   3  11    5.68    0.90
   3   3  11    3.97    1.83
  -4  -3 -11    4.44    0.96
   4   3  11    6.41    0.98
   4   3  11    4.96    2.31
  -5  -3 -11    0.48    0.55
   5   3  11    1.78    1.83
   5   3  11    0.74    0.54
   6   3  11    0.18    0.53
  10  -4 -11    0.03    0.91
   9  -4 -11   19.25    4.24
   9  -4 -11   16.36    1.75
   8  -4 -11   20.44    1.52
   8  -4 -11   23.06    4.64
   7  -4 -11   -0.37    0.30
   7  -4 -11   -0.12    0.67
   6  -4 -11   69.04    5.38
   6  -4 -11   62.96    1.71
   6  -4 -11   60.08    2.42
  -6   4  11   63.11    1.78
   5  -4 -11   43.53    4.14
   5  -4 -11   47.17    2.02
   5  -4 -11   44.09    1.55
   4  -4 -11    1.41    0.48
   4  -4 -11    0.07    0.52
   4  -4 -11    1.20    0.42
  -4   4  11    1.93    0.49
  -4   4  11    0.13    0.25
   3  -4 -11   25.15    1.29
   3  -4 -11   24.15    1.55
   3  -4 -11   28.38    4.09
  -3   4  11   21.98    1.22
  -3   4  11   22.96    1.32
   2  -4 -11    9.21    0.99
   2  -4 -11   12.99    2.84
   2  -4 -11   10.88    1.09
  -2   4  11    9.04    1.01
  -2   4  11    9.58    1.05
   1  -4 -11   14.02    1.47
   1  -4 -11   11.30    1.15
  -1   4  11   13.72    1.03
  -1   4  11   12.12    1.58
   0  -4 -11    4.45    0.82
   0   4  11    5.65    1.94
   0   4  11    4.38    0.92
   0   4  11    4.09    0.80
   0   4  11    5.50    0.82
  -1  -4 -11   11.18    1.26
   1   4  11   10.50    1.17
   1   4  11   12.13    3.16
   1   4  11    9.16    1.12
   2   4  11   47.82    6.59
   2   4  11   42.34    2.03
  -3  -4 -11    2.56    0.74
   3   4  11    2.62    1.79
   3   4  11    1.64    0.60
  -4  -4 -11    7.88    1.31
   4   4  11    5.79    2.36
   4   4  11    6.01    1.02
   5   4  11    7.12    1.16
   9  -5 -11    7.30    1.18
   9  -5 -11    4.06    2.14
   8  -5 -11   19.71    1.56
   8  -5 -11   22.07    4.28
   7  -5 -11    3.50    0.79
   7  -5 -11    8.51    2.62
   6  -5 -11    4.71    1.88
   6  -5 -11    3.02    0.67
  -6   5  11    2.19    0.44
   5  -5 -11    0.03    0.32
   5  -5 -11    0.57    0.76
   5  -5 -11    0.23    0.39
  -5   5  11    0.08    0.32
   4  -5 -11    6.40    1.97
   4  -5 -11    6.55    0.96
   4  -5 -11    5.13    0.75
  -4   5  11    6.46    0.82
   3  -5 -11   10.15    1.06
   3  -5 -11   13.34    1.31
   3  -5 -11   11.61    2.71
  -3   5  11   12.49    1.01
   2  -5 -11   28.87    1.58
   2  -5 -11   29.19    1.58
  -2   5  11   25.27    1.88
  -2   5  11   29.10    1.80
   1  -5 -11   53.56    2.28
  -1   5  11   50.96    2.20
  -1   5  11   55.42    2.38
  -1   5  11   51.01    4.47
   0  -5 -11   15.33    1.30
   0   5  11   15.30    3.39
   0   5  11   15.54    1.52
  -1  -5 -11    9.77    1.31
   1   5  11   10.65    1.28
   1   5  11    9.11    2.65
  -2  -5 -11   24.14    1.84
   2   5  11   18.42    4.05
   2   5  11   27.60    1.76
  -3  -5 -11    3.08    0.93
   3   5  11    3.91    1.95
   4   5  11    1.57    0.68
   9  -6 -11    1.74    1.38
   9  -6 -11    0.61    0.55
   8  -6 -11    0.87    1.06
   8  -6 -11    0.15    0.48
   7  -6 -11    0.41    0.50
   7  -6 -11    1.63    1.25
  -7   6  11    0.18    0.24
   6  -6 -11    0.07    0.48
   6  -6 -11    0.03    0.34
   6  -6 -11    0.50    0.34
  -6   6  11    0.57    0.34
   5  -6 -11    2.61    1.57
   5  -6 -11    1.21    0.51
   5  -6 -11    1.48    0.46
  -5   6  11    2.08    0.61
   4  -6 -11   10.15    1.08
   4  -6 -11    8.21    2.18
   4  -6 -11   11.57    1.29
  -4   6  11   13.36    1.25
   3  -6 -11   13.09    1.37
  -3   6  11   19.17    1.29
   2  -6 -11    0.39    0.49
   2  -6 -11    0.66    0.44
  -2   6  11    0.78    0.99
   1  -6 -11   11.17    1.31
  -1   6  11    8.66    1.28
  -1   6  11   10.65    2.75
   0  -6 -11    6.42    1.07
   0   6  11    2.73    1.67
   0   6  11    7.32    1.18
  -1  -6 -11    0.73    0.72
   1   6  11    0.95    0.52
   1   6  11    1.03    0.93
  -2  -6 -11   -0.41    0.44
   2   6  11   -0.10    0.46
   9  -7 -11    1.82    1.68
   8  -7 -11    2.11    1.40
   8  -7 -11    0.06    0.52
   7  -7 -11    0.39    0.46
   7  -7 -11    0.91    0.95
  -7   7  11   -0.21    0.29
   6  -7 -11    5.35    0.99
   6  -7 -11    4.82    1.70
   6  -7 -11    5.19    0.74
  -6   7  11    5.39    0.79
   5  -7 -11   24.79    1.67
   5  -7 -11   20.56    1.32
   5  -7 -11   19.06    3.15
  -5   7  11   23.34    1.40
   4  -7 -11   -0.33    0.40
   4  -7 -11    1.35    0.63
  -4   7  11    0.54    0.49
   3  -7 -11   10.72    1.24
   3  -7 -11    9.41    1.28
  -3   7  11   11.70    2.75
   2  -7 -11   20.60    1.52
  -2   7  11   16.38    1.73
  -2   7  11   20.13    3.61
   1  -7 -11    2.13    0.70
  -1   7  11    2.39    1.40
   0  -7 -11    0.70    0.61
   0   7  11   -0.05    0.45
   7  -8 -11    6.36    1.33
   7  -8 -11    5.85    1.86
  -7   8  11    3.85    0.67
   6  -8 -11    3.52    1.31
   6  -8 -11    2.33    0.63
   6  -8 -11    3.46    0.86
  -6   8  11    3.57    0.77
   5  -8 -11   32.61    2.00
   5  -8 -11   36.71    1.85
  -5   8  11   28.47    1.72
   4  -8 -11    4.88    0.99
   4  -8 -11    1.64    0.67
   3  -8 -11    3.35    0.88
  -3   8  11    1.42    0.79
  -2   8  11    0.18    0.55
   1  -8 -11    0.76    0.62
   5  -9 -11    0.56    0.58
   4  -9 -11    0.49    0.69
   3  -9 -11    3.51    1.01
  -2  10 -12    3.69    0.75
   2 -10  12    4.12    1.15
   2 -10  12    4.91    1.29
   1   9 -12    7.61    1.14
  -1  -9  12    8.98    2.39
   0   9 -12    1.14    0.57
   0  -9  12    0.01    0.74
  -1   9 -12   15.90    1.47
  -1   9 -12   14.66    1.12
   1  -9  12   13.52    2.68
  -2   9 -12   11.70    1.27
  -2   9 -12    7.86    0.84
  -2   9 -12    8.43    1.46
   2  -9  12    9.30    2.08
   2  -9  12   11.59    2.45
  -3   9 -12    0.11    0.28
  -3   9 -12   -0.06    0.52
   3  -9  12    0.61    0.77
   3  -9  12    0.22    0.64
  -4   9 -12    0.87    0.63
   4  -9  12    2.16    1.17
   4  -9  12    1.16    0.88
  -5   9 -12    0.49    0.68
   5  -9  12    1.47    1.15
   5  -9  12    1.77    1.43
  -6   9 -12    0.80    0.73
   6  -9  12    2.37    1.29
   6  -9  12    3.31    1.64
  -2  -8  12    5.74    2.18
   1   8 -12    4.84    1.16
   1   8 -12    4.79    0.90
  -1  -8  12    7.63    2.68
   0   8 -12    3.42    0.92
   0   8 -12    3.73    0.74
   0  -8  12    3.51    0.94
  -1   8 -12   -0.19    0.52
  -1   8 -12    0.31    0.36
  -1   8 -12    0.03    0.78
   1  -8  12   -0.04    0.60
  -2   8 -12    0.83    0.40
  -2   8 -12    0.96    0.64
  -2   8 -12    0.82    0.33
   2  -8  12    1.50    1.12
  -3   8 -12    1.64    0.68
  -3   8 -12    1.02    0.27
  -3   8 -12    1.36    0.32
   3  -8  12    1.27    0.87
   3  -8  12    1.35    0.93
  -4   8 -12   -0.32    0.40
   4  -8  12    1.44    1.16
   4  -8  12    2.36    1.52
  -5   8 -12    6.70    1.18
   5  -8  12    5.59    2.05
   5  -8  12    6.15    2.06
  -6   8 -12   11.25    1.56
   6  -8  12   15.00    3.28
   6  -8  12    6.99    2.31
  -7   8 -12    1.75    1.31
   7  -8  12    0.86    1.26
   3   7 -12   14.69    1.86
  -3  -7  12    6.83    2.54
   2   7 -12    8.04    2.66
   2   7 -12   10.62    1.24
   2   7 -12    8.57    1.43
  -2  -7  12   10.81    2.91
   1   7 -12    0.06    0.66
   1   7 -12    0.65    0.40
   1   7 -12    0.30    0.52
  -1  -7  12    0.40    0.47
  -1  -7  12    0.33    0.68
   0   7 -12    0.27    0.87
   0   7 -12    1.04    0.52
   0   7 -12    1.55    0.49
   0  -7  12    2.28    1.33
   0  -7  12    0.56    0.45
  -1   7 -12    0.01    0.66
  -1   7 -12    0.34    0.47
  -1   7 -12    0.33    0.29
   1  -7  12   -0.19    0.47
   1  -7  12    0.08    0.31
  -2   7 -12    0.27    0.51
  -2   7 -12    1.28    0.38
  -2   7 -12    1.16    0.32
   2  -7  12    1.98    1.12
  -3   7 -12    3.83    0.89
   3  -7  12    2.84    1.36
   3  -7  12    2.27    1.31
  -4   7 -12   11.05    1.42
   4  -7  12    9.20    2.40
   4  -7  12   12.99    2.85
  -5   7 -12    7.39    1.18
   5  -7  12    8.94    2.77
   5  -7  12    6.34    2.17
  -6   7 -12   -0.14    0.52
   6  -7  12   -0.35    0.81
   6  -7  12    0.43    0.77
  -7   7 -12    4.50    0.96
   7  -7  12   12.26    4.75
   5   6 -12   10.55    1.62
   4   6 -12    1.18    0.75
   4   6 -12   -0.08    0.73
   4   6 -12    0.29    0.75
  -4  -6  12   -0.16    0.74
   3   6 -12    8.13    1.32
   3   6 -12    6.00    0.95
   3   6 -12    3.28    1.67
  -3  -6  12    5.49    2.65
   2   6 -12    0.06    0.33
   2   6 -12    0.33    0.71
   2   6 -12    0.39    0.47
  -2  -6  12    0.99    1.08
   1   6 -12   12.33    0.97
   1   6 -12   16.15    1.76
   1   6 -12   10.88    2.96
  -1  -6  12   16.70    3.57
  -1  -6  12   12.69    1.98
   0   6 -12    1.70    0.49
   0   6 -12    1.38    0.65
   0   6 -12    0.21    0.55
   0  -6  12    0.80    0.87
   0  -6  12    1.16    0.45
  -1   6 -12   40.45    5.17
  -1   6 -12   39.48    1.38
  -1   6 -12   36.59    2.02
   1  -6  12   36.78    1.45
   1  -6  12   36.79    3.54
  -2   6 -12   62.72    2.62
  -2   6 -12   58.24    1.51
   2  -6  12   52.57    4.26
  -3   6 -12    2.16    0.71
   3  -6  12    2.83    1.47
   3  -6  12    2.88    1.58
  -4   6 -12   25.37    1.67
   4  -6  12   25.54    4.10
   4  -6  12   36.97    5.14
  -5   6 -12   32.78    1.88
   5  -6  12   35.90    5.38
   5  -6  12   27.90    4.82
  -6   6 -12    2.10    0.74
   6  -6  12    1.17    1.24
   6  -6  12    2.62    2.03
  -7   6 -12    0.25    0.58
   7  -6  12    0.28    0.87
  -8   6 -12    0.73    0.89
   6   5 -12   -0.06    0.49
   5   5 -12    3.13    1.75
   5   5 -12    1.65    0.65
   5   5 -12    2.21    0.82
  -5  -5  12    2.44    1.87
   4   5 -12    5.10    0.97
   4   5 -12    7.72    2.64
   4   5 -12    6.56    1.15
  -4  -5  12    5.49    2.30
   3   5 -12    0.71    0.50
   3   5 -12   -0.02    0.33
   3   5 -12   -0.31    0.47
   2   5 -12   28.58    4.54
   2   5 -12   23.74    1.56
   2   5 -12   30.32    1.82
  -2  -5  12   28.29    4.96
  -2  -5  12   27.91    1.54
   1   5 -12   75.74    2.37
   1   5 -12   76.29    2.92
   1   5 -12   66.67    5.20
  -1  -5  12   76.70    5.32
  -1  -5  12   78.76    2.52
   0   5 -12    2.24    0.50
   0   5 -12    1.59    1.24
   0   5 -12    0.24    0.38
   0  -5  12    2.27    1.26
   0  -5  12    0.86    0.41
  -1   5 -12    6.45    2.20
  -1   5 -12    7.18    1.04
  -1   5 -12    5.31    0.58
   1  -5  12    8.04    2.41
   1  -5  12    7.08    1.16
   1  -5  12    5.58    0.64
  -2   5 -12   37.23    1.91
  -2   5 -12   34.61    0.94
   2  -5  12   41.65    5.44
   2  -5  12   35.08    1.90
  -3   5 -12    6.07    1.00
   3  -5  12    3.15    1.45
   3  -5  12    5.95    1.01
   3  -5  12    6.89    2.18
  -4   5 -12    0.69    0.52
   4  -5  12   -0.25    0.52
   4  -5  12   -0.25    0.56
  -5   5 -12    1.06    0.51
   5  -5  12    0.44    0.90
   5  -5  12    0.67    1.29
  -6   5 -12    3.43    0.82
   6  -5  12    5.41    2.51
  -7   5 -12    0.51    0.49
   7  -5  12    3.12    2.11
  -8   5 -12    2.87    0.82
   8  -5  12    2.14    2.04
   7   4 -12    0.18    0.55
   7   4 -12   -0.40    1.12
   6   4 -12   -0.01    0.43
   6   4 -12    0.33    0.49
   6   4 -12    0.14    0.96
  -6  -4  12   -0.27    0.94
   5   4 -12   -0.26    0.59
   5   4 -12   -0.35    0.35
   5   4 -12    0.52    0.50
   4   4 -12    6.60    2.24
   4   4 -12    7.36    1.16
   4   4 -12    7.63    1.09
  -4  -4  12    9.37    2.80
   3   4 -12   29.81    1.54
   3   4 -12   31.37    1.78
  -3  -4  12   29.02    1.59
  -3  -4  12   31.01    1.81
  -3  -4  12   41.80    6.00
   2   4 -12    5.84    0.80
   2   4 -12    7.40    2.34
   2   4 -12    6.78    1.05
  -2  -4  12    7.14    0.97
  -2  -4  12    6.10    2.03
  -2  -4  12    5.94    1.02
   1   4 -12    0.31    0.28
   1   4 -12    1.44    1.16
  -1  -4  12    0.75    0.36
  -1  -4  12    0.52    0.43
  -1  -4  12    1.55    1.01
   0   4 -12   53.21    4.46
   0   4 -12   53.80    2.35
   0   4 -12   52.96    1.65
   0  -4  12   53.59    1.74
   0  -4  12   53.58    2.27
  -1   4 -12   13.46    3.22
  -1   4 -12    9.86    0.57
  -1   4 -12    9.95    1.23
   1  -4  12   12.90    1.40
   1  -4  12   10.07    0.62
  -2   4 -12   24.76    0.64
   2  -4  12   23.20    1.51
  -3   4 -12   11.92    1.30
   3  -4  12   11.78    3.00
   3  -4  12   14.20    1.48
   3  -4  12   10.95    2.76
  -4   4 -12   -0.15    0.40
   4  -4  12    0.35    0.39
   4  -4  12    3.20    1.63
   4  -4  12    0.50    0.81
  -5   4 -12    1.61    0.64
   5  -4  12    1.38    1.29
   5  -4  12    3.73    1.93
  -6   4 -12    4.51    0.89
   6  -4  12    3.53    1.96
   6  -4  12    7.57    2.76
  -7   4 -12    3.79    0.86
   7  -4  12    6.25    3.03
  -8   4 -12    0.59    0.55
   8  -4  12    0.96    1.51
   8   3 -12    3.81    2.77
   8   3 -12    0.71    0.61
   7   3 -12   -0.27    0.94
   7   3 -12    0.10    0.43
   7   3 -12    0.28    0.49
   6   3 -12   19.75    1.49
   6   3 -12   22.31    1.54
   6   3 -12   18.73    4.26
  -6  -3  12   23.57    5.37
   5   3 -12   49.04    2.20
   5   3 -12   52.15    2.20
   5   3 -12   49.97    2.27
   5   3 -12   45.79    6.51
  -5  -3  12   58.86    7.32
   4   3 -12    1.16    1.36
   4   3 -12    1.11    0.45
  -4  -3  12    1.36    0.58
  -4  -3  12    1.93    1.69
  -4  -3  12    1.16    0.47
   3   3 -12   25.78    1.52
   3   3 -12   27.58    1.41
   3   3 -12   35.66    5.72
  -3  -3  12   41.49    5.88
  -3  -3  12   28.13    1.47
   2   3 -12   93.91    3.08
   2   3 -12   86.96    5.97
   2   3 -12  100.50    2.78
  -2  -3  12   97.61    6.07
  -2  -3  12   96.50    3.14
  -2  -3  12   97.80    2.82
   1   3 -12    6.27    0.73
   1   3 -12    6.30    0.95
   1   3 -12    6.92    2.21
  -1  -3  12    7.20    0.80
  -1  -3  12    7.08    2.07
  -1  -3  12    7.19    1.03
   0   3 -12    3.75    0.50
   0   3 -12    2.69    0.70
   0   3 -12    4.05    2.07
   0  -3  12    5.05    1.85
   0  -3  12    2.91    0.67
   0  -3  12    3.47    0.49
  -1   3 -12   13.79    0.65
  -1   3 -12   13.57    1.11
  -1   3 -12   12.98    3.42
   1  -3  12   16.23    1.19
   1  -3  12   16.51    3.13
   1  -3  12   15.09    0.70
  -2   3 -12   15.54    0.52
  -2   3 -12   16.19    1.18
   2  -3  12   14.55    1.62
   2  -3  12   17.66    3.55
   2  -3  12   14.87    0.51
   3  -3  12    0.14    0.73
   3  -3  12    1.69    1.34
   3  -3  12    1.62    0.59
  -4   3 -12   15.43    1.47
   4  -3  12   11.68    3.09
   4  -3  12   12.93    1.38
   4  -3  12   10.12    2.73
  -5   3 -12   45.64    2.09
   5  -3  12   38.35    6.94
   5  -3  12   41.42    6.07
  -6   3 -12    6.72    1.10
   6  -3  12    3.17    2.13
   6  -3  12    5.06    2.98
  -7   3 -12    3.57    0.85
   7  -3  12    1.65    1.38
  -8   3 -12    6.33    1.66
   8  -3  12    7.60    3.29
   8   2 -12   18.96    1.44
   8   2 -12   21.45    5.16
   7   2 -12    3.28    0.75
   7   2 -12    4.81    0.92
   7   2 -12    5.79    0.93
   7   2 -12    5.18    2.29
  -7  -2  12    7.52    2.90
   6   2 -12    8.06    3.02
   6   2 -12    8.16    1.14
   6   2 -12    8.76    1.13
   6   2 -12    8.73    1.09
  -6  -2  12   17.88    4.66
   5   2 -12   46.87    2.09
   5   2 -12   46.03    2.02
   5   2 -12   49.95    6.67
  -5  -2  12   52.10    6.81
   4   2 -12   15.31    3.41
   4   2 -12   15.74    1.15
   4   2 -12   13.82    1.62
  -4  -2  12   20.75    4.10
  -4  -2  12   14.01    1.09
  -4  -2  12   14.91    1.15
   3   2 -12   12.36    3.19
   3   2 -12   10.96    1.19
   3   2 -12    7.51    0.95
  -3  -2  12   14.17    3.30
  -3  -2  12   11.02    1.24
  -3  -2  12   12.20    1.21
   2   2 -12    2.04    1.41
   2   2 -12    1.96    0.45
   2   2 -12    1.27    0.51
  -2  -2  12    1.39    0.45
  -2  -2  12    2.08    2.04
  -2  -2  12    1.58    0.56
   1   2 -12   15.08    0.84
   1   2 -12   18.82    3.81
   1   2 -12   11.74    0.99
  -1  -2  12   13.88    0.83
  -1  -2  12   12.98    2.78
  -1  -2  12   13.65    1.05
   0   2 -12   10.51    0.65
   0   2 -12   13.01    3.20
   0   2 -12   10.58    1.14
   0  -2  12   10.64    1.11
   0  -2  12   11.09    0.68
   0  -2  12   17.30    3.35
  -1   2 -12    3.70    0.45
  -1   2 -12    3.61    0.72
  -1   2 -12    6.45    2.24
   1  -2  12    5.30    1.84
   1  -2  12    3.44    0.42
   1  -2  12    3.05    0.69
  -2   2 -12  145.04    3.89
   2  -2  12  129.25    3.82
   2  -2  12  139.57    2.80
  -3   2 -12   30.36    2.04
   3  -2  12   24.76    4.23
   3  -2  12   30.05    1.63
   3  -2  12   24.53    4.21
   3  -2  12   30.29    0.79
   3  -2  12   29.52    0.82
  -4   2 -12    5.41    0.89
   4  -2  12    3.79    1.82
   4  -2  12    3.93    1.97
   4  -2  12    5.99    0.99
  -5   2 -12   29.90    1.72
   5  -2  12   30.38    5.17
   5  -2  12   25.78    4.76
  -6   2 -12    6.56    1.01
   6  -2  12    5.69    2.47
   6  -2  12    7.27    2.83
  -7   2 -12    0.82    0.52
   7  -2  12    0.45    0.95
  -8   2 -12   -0.24    0.50
   9   1 -12    1.01    0.58
   9   1 -12   -0.37    0.97
   8   1 -12    0.51    0.52
   8   1 -12    0.94    0.52
   8   1 -12    1.30    0.57
   8   1 -12    2.26    1.96
   7   1 -12    2.19    0.57
   7   1 -12    3.30    0.70
   7   1 -12    4.44    0.89
   7   1 -12    5.79    2.76
   6   1 -12   10.08    1.13
   6   1 -12   12.33    3.41
   6   1 -12   11.48    1.33
   6   1 -12   12.77    0.97
  -6  -1  12   17.39    6.37
   5   1 -12    2.16    1.29
   5   1 -12    2.64    0.63
   5   1 -12    1.63    0.59
  -5  -1  12    1.98    0.64
  -5  -1  12    0.91    0.45
  -5  -1  12    2.16    1.49
   4   1 -12    9.87    1.08
   4   1 -12    4.83    1.98
   4   1 -12   10.64    1.13
  -4  -1  12   11.56    2.94
  -4  -1  12   10.01    1.09
   3   1 -12    1.44    1.23
   3   1 -12    0.88    0.37
   3   1 -12    1.06    0.41
  -3  -1  12    1.09    0.41
  -3  -1  12    1.94    0.49
  -3  -1  12    1.73    1.18
   2   1 -12    7.10    0.90
   2   1 -12   10.78    1.03
   2   1 -12    7.07    2.33
  -2  -1  12    6.36    0.86
  -2  -1  12   13.46    3.06
  -2  -1  12    8.10    0.84
   1   1 -12   36.97    4.88
   1   1 -12   34.26    1.31
   1   1 -12   35.84    1.63
  -1  -1  12   31.11    1.27
  -1  -1  12   34.28    1.60
  -1  -1  12   36.06    4.71
   0   1 -12   68.63    5.10
   0   1 -12   62.32    2.25
   0   1 -12   64.02    1.80
   0  -1  12   61.87    1.77
   0  -1  12   60.99    2.25
   0  -1  12   60.58    4.57
  -1   1 -12   10.81    1.13
  -1   1 -12    8.57    2.34
   1  -1  12    8.64    0.58
   1  -1  12    8.08    1.02
   1  -1  12   13.14    2.94
  -2   1 -12   10.38    1.16
   2  -1  12   13.08    3.03
   2  -1  12   10.78    2.76
   2  -1  12    9.79    0.60
   2  -1  12    9.79    1.17
   2  -1  12   10.68    0.64
  -3   1 -12   33.31    1.77
   3  -1  12   32.64    1.12
   3  -1  12   35.62    5.29
   3  -1  12   33.27    1.09
   3  -1  12   27.25    4.46
   3  -1  12   30.75    1.69
  -4   1 -12    0.91    0.48
   4  -1  12    0.61    0.59
   4  -1  12    1.40    0.35
   4  -1  12    1.06    0.31
   4  -1  12    2.02    1.51
   4  -1  12    1.63    1.21
  -5   1 -12    2.22    0.68
   5  -1  12    1.26    1.55
   5  -1  12    3.19    0.46
   5  -1  12    1.46    1.20
   5  -1  12    4.07    0.67
  -6   1 -12    1.44    0.61
   6  -1  12    1.42    0.38
   6  -1  12    0.72    0.85
   6  -1  12    2.84    2.38
   6  -1  12    1.29    0.37
  -7   1 -12   -0.42    0.46
   7  -1  12    0.39    0.32
   7  -1  12    1.50    1.56
   9   0 -12   12.82    0.97
   8   0 -12   11.06    3.40
   8   0 -12    7.11    0.85
   8   0 -12    6.56    0.80
   8   0 -12    6.98    1.22
   7   0 -12    0.67    0.37
   7   0 -12    0.95    1.08
   7   0 -12    0.66    0.47
   7   0 -12    0.85    0.40
   6   0 -12    9.29    1.19
   6   0 -12    6.68    2.32
   6   0 -12   11.12    1.07
  -6   0  12    9.31    2.89
   5   0 -12    0.82    0.46
   5   0 -12    2.13    2.03
   5   0 -12    1.85    0.50
  -5   0  12    0.95    0.43
  -5   0  12    1.65    0.50
   4   0 -12    6.98    0.92
   4   0 -12    6.18    0.87
   4   0 -12    5.51    2.10
  -4   0  12    5.77    0.81
  -4   0  12    7.65    0.94
  -4   0  12    6.71    2.15
   3   0 -12   22.66    1.19
   3   0 -12   22.06    1.22
   3   0 -12   22.75    3.86
  -3   0  12   21.40    1.16
  -3   0  12   26.83    4.37
  -3   0  12   20.64    1.20
   2   0 -12   99.82    2.88
   2   0 -12   96.70    6.04
   2   0 -12   95.96    2.68
  -2   0  12   96.37    2.87
  -2   0  12  103.78    2.71
  -2   0  12   92.28    5.80
   1   0 -12   19.52    1.18
   1   0 -12   20.34    1.02
   1   0 -12   22.29    3.68
  -1   0  12   20.63    1.02
  -1   0  12   28.00    4.25
  -1   0  12   22.60    1.26
   0   0 -12   23.58    1.05
   0   0 -12   24.87    1.33
   0   0 -12   26.55    4.49
   0   0  12   22.85    1.04
   0   0  12   33.80    4.78
   0   0  12   23.76    1.35
  -1   0 -12   72.27    2.50
  -1   0 -12   77.94    2.08
   1   0  12   74.86    2.59
   1   0  12   74.45    2.06
   1   0  12   80.57    5.54
  -2   0 -12   18.93    1.26
   2   0  12   29.34    4.95
   2   0  12   21.66    1.02
   2   0  12   18.84    3.42
   2   0  12   20.69    1.48
   2   0  12   18.92    0.94
  -3   0 -12    0.73    0.39
   3   0  12    0.90    0.44
   3   0  12    0.37    0.29
   3   0  12    0.17    0.66
   3   0  12    0.65    0.34
   3   0  12    1.02    0.87
  -4   0 -12    5.00    0.89
   4   0  12    6.00    0.72
   4   0  12    3.59    1.76
   4   0  12   13.00    3.90
   4   0  12    4.60    0.61
  -5   0 -12    0.34    0.43
   5   0  12    2.49    1.46
   5   0  12    0.20    0.33
   5   0  12    0.27    0.34
  -6   0 -12    0.62    0.53
   6   0  12    0.12    0.37
   6   0  12    0.90    1.11
   6   0  12    0.03    0.35
  -7   0 -12    0.38    0.58
   7   0  12    1.16    0.49
   7   0  12    0.64    1.26
   9  -1 -12    0.43    1.05
   9  -1 -12    0.23    0.26
   8  -1 -12    2.32    0.62
   8  -1 -12    0.46    0.98
   8  -1 -12    1.76    0.40
   8  -1 -12    2.84    1.23
   7  -1 -12   12.61    1.43
   7  -1 -12   10.54    3.17
   7  -1 -12   13.42    0.93
   7  -1 -12   13.99    0.87
   6  -1 -12   17.63    1.26
   6  -1 -12   16.10    3.56
   6  -1 -12   12.82    0.88
  -6   1  12   13.57    0.92
   5  -1 -12  100.71    2.74
   5  -1 -12  100.57    3.09
   5  -1 -12   93.80    6.45
  -5   1  12  101.00    6.83
  -5   1  12   95.39    2.74
  -5   1  12   96.73    3.04
   4  -1 -12   54.17    4.68
   4  -1 -12   59.25    2.15
   4  -1 -12   61.16    2.03
  -4   1  12   64.94    5.72
  -4   1  12   59.33    2.14
  -4   1  12   61.16    2.06
   3  -1 -12    7.33    0.84
   3  -1 -12    4.43    1.88
   3  -1 -12    8.14    0.94
  -3   1  12    7.11    0.88
  -3   1  12    9.35    2.47
  -3   1  12    8.52    0.94
   2  -1 -12  123.06    3.32
   2  -1 -12  123.24    3.22
   2  -1 -12  122.95    6.92
  -2   1  12  126.46    3.24
  -2   1  12  129.67    3.40
  -2   1  12  121.12    6.66
   1  -1 -12   62.24    4.83
   1  -1 -12   56.81    1.90
   1  -1 -12   58.66    2.09
  -1   1  12   62.98    4.68
  -1   1  12   58.37    2.14
  -1   1  12   57.99    1.90
   0  -1 -12    7.89    2.58
   0  -1 -12    3.84    0.69
   0  -1 -12    3.14    0.52
   0   1  12    4.17    1.68
   0   1  12    3.46    0.65
   0   1  12    3.16    0.54
  -1  -1 -12   15.16    1.12
  -1  -1 -12   15.99    0.93
   1   1  12   16.93    0.93
   1   1  12   15.77    1.17
   1   1  12   14.55    3.63
   1   1  12   25.72    4.61
  -2  -1 -12    2.06    0.63
   2   1  12    2.07    0.47
   2   1  12    1.38    0.51
   2   1  12    1.06    0.90
   2   1  12    1.95    0.49
   2   1  12    2.11    1.38
  -3  -1 -12   12.43    1.34
   3   1  12   12.74    0.89
   3   1  12   10.38    2.93
   3   1  12   17.12    4.11
   3   1  12   10.91    0.89
  -4  -1 -12    0.37    0.50
   4   1  12    0.37    0.36
   4   1  12    0.57    1.01
   4   1  12    0.21    0.39
  -5  -1 -12   18.48    1.51
   5   1  12   18.25    1.20
   5   1  12   12.39    3.36
  -6  -1 -12   19.16    1.99
   6   1  12   13.20    3.90
   6   1  12   14.75    1.41
   6   1  12   17.51    1.27
  10  -2 -12    0.03    1.05
   9  -2 -12    3.69    0.96
   9  -2 -12    2.35    2.03
   8  -2 -12    6.64    2.74
   8  -2 -12    8.48    1.28
   7  -2 -12   31.33    1.78
   7  -2 -12   31.42    1.12
   7  -2 -12   30.48    1.11
   7  -2 -12   39.35    6.15
   6  -2 -12    0.65    0.30
   6  -2 -12    1.38    0.49
   6  -2 -12    1.87    1.31
  -6   2  12    0.56    0.29
   5  -2 -12   24.84    1.16
   5  -2 -12   24.73    1.43
   5  -2 -12   22.85    4.33
  -5   2  12   23.83    1.20
   4  -2 -12   24.39    3.98
   4  -2 -12   19.45    1.20
   4  -2 -12   21.19    1.12
  -4   2  12   23.89    4.04
  -4   2  12   21.78    1.16
   3  -2 -12    7.00    2.28
   3  -2 -12    5.76    0.81
   3  -2 -12    5.31    0.75
  -3   2  12    5.83    0.80
  -3   2  12    7.24    2.12
  -3   2  12    4.28    0.70
   2  -2 -12    0.73    0.68
   2  -2 -12    0.18    0.31
   2  -2 -12    0.43    0.30
  -2   2  12    0.34    0.32
  -2   2  12    0.72    0.74
  -2   2  12   -0.17    0.23
   1  -2 -12    2.79    1.27
   1  -2 -12    4.11    0.67
   1  -2 -12    3.70    0.72
  -1   2  12    3.18    1.28
  -1   2  12    1.93    0.53
  -1   2  12    2.75    0.54
   0  -2 -12   10.03    1.16
   0  -2 -12   10.17    0.99
   0   2  12    9.83    2.68
   0   2  12    8.04    0.88
   0   2  12    8.68    1.07
  -1  -2 -12    0.47    0.44
   1   2  12    1.57    1.37
   1   2  12    0.39    0.31
   1   2  12    0.89    0.39
   1   2  12    0.96    1.08
   1   2  12    1.12    0.49
  -2  -2 -12   35.31    1.85
   2   2  12   32.96    1.49
   2   2  12   33.96    5.15
   2   2  12   33.06    1.57
  -3  -2 -12   30.47    1.80
   3   2  12   24.31    1.59
   3   2  12   27.95    5.10
   3   2  12   28.02    1.48
  -4  -2 -12    1.91    0.69
   4   2  12    0.57    0.87
   4   2  12    2.37    0.62
   4   2  12    2.65    0.63
  -5  -2 -12    8.17    1.26
   5   2  12    6.70    2.66
   5   2  12   10.08    1.15
   6   2  12    1.94    1.60
   6   2  12    1.51    0.63
  10  -3 -12    0.03    1.15
   9  -3 -12   11.02    1.48
   9  -3 -12   27.28    5.61
   8  -3 -12    2.27    1.52
   8  -3 -12    0.43    0.52
   7  -3 -12    4.11    1.92
   7  -3 -12    3.33    0.81
   7  -3 -12    3.06    0.39
   6  -3 -12   43.01    5.89
   6  -3 -12   30.97    1.71
  -6   3  12   31.46    1.27
   5  -3 -12   17.84    3.63
   5  -3 -12   10.68    1.13
   5  -3 -12   10.80    0.78
  -5   3  12   11.22    0.85
   4  -3 -12   -0.33    0.47
   4  -3 -12    0.21    0.38
   4  -3 -12    0.06    0.30
  -4   3  12    0.17    0.29
  -4   3  12   -0.22    0.25
   3  -3 -12    0.56    0.37
   3  -3 -12   -0.29    0.26
   3  -3 -12    0.33    0.84
  -3   3  12   -0.37    0.20
   2  -3 -12    0.87    0.99
   2  -3 -12    0.31    0.34
   2  -3 -12    0.50    0.36
  -2   3  12    0.45    0.35
  -2   3  12    0.09    0.28
   1  -3 -12    0.58    0.74
   1  -3 -12    0.63    0.41
   1  -3 -12    0.34    0.33
  -1   3  12    0.52    0.34
  -1   3  12    0.09    0.34
   0  -3 -12   16.72    1.09
   0  -3 -12   16.74    1.29
   0   3  12   15.96    1.05
   0   3  12   14.45    1.16
  -1  -3 -12   11.20    1.31
   1   3  12   10.31    2.79
   1   3  12   10.69    1.12
   1   3  12    8.98    1.19
  -2  -3 -12    9.50    1.19
   2   3  12   11.33    1.17
   2   3  12   13.35    1.05
   2   3  12   18.01    4.14
  -3  -3 -12   -0.11    0.39
   3   3  12    0.57    0.49
   3   3  12   -0.21    0.60
  -4  -3 -12    5.63    1.18
   4   3  12    4.66    0.87
   4   3  12    5.68    2.34
   5   3  12   10.62    1.31
   5   3  12    7.47    2.78
  10  -4 -12    2.13    2.09
   9  -4 -12   14.97    3.94
   9  -4 -12   14.48    1.58
   8  -4 -12   22.85    2.91
   8  -4 -12   19.73    4.05
   7  -4 -12    1.31    0.25
   7  -4 -12    2.52    0.64
  -7   4  12    1.10    0.27
   6  -4 -12    0.16    0.95
   6  -4 -12    2.49    0.69
   6  -4 -12    0.97    0.41
  -6   4  12    1.15    0.39
   5  -4 -12    0.19    0.32
   5  -4 -12    0.31    0.81
   5  -4 -12    0.32    0.34
  -5   4  12    0.13    0.31
   4  -4 -12    9.63    1.11
   4  -4 -12   10.73    0.87
   4  -4 -12    7.28    2.09
  -4   4  12    9.42    1.00
   3  -4 -12    3.09    1.51
   3  -4 -12    0.90    0.46
   3  -4 -12    1.50    0.52
  -3   4  12    1.20    0.51
  -3   4  12    0.91    0.42
   2  -4 -12   48.24    1.98
   2  -4 -12   47.11    4.32
   2  -4 -12   44.00    1.91
  -2   4  12   47.11    1.95
  -2   4  12   40.83    1.86
   1  -4 -12   53.41    2.24
   1  -4 -12   58.35    2.22
  -1   4  12   54.95    2.13
  -1   4  12   54.81    2.23
   0  -4 -12    3.53    0.75
   0   4  12    2.89    1.48
   0   4  12    0.96    0.53
   0   4  12    2.06    0.58
  -1  -4 -12   39.53    2.05
   1   4  12   33.27    4.95
   1   4  12   38.75    1.97
  -2  -4 -12   23.56    1.67
   2   4  12   21.39    1.52
   2   4  12   28.20    4.92
  -3  -4 -12    0.14    0.46
   3   4  12   -0.07    0.44
   3   4  12    1.26    1.41
   4   4  12    0.71    1.30
   4   4  12    0.62    0.59
   5   4  12    0.49    0.61
   9  -5 -12    0.53    0.94
   8  -5 -12    1.22    1.10
   8  -5 -12    2.40    0.78
   7  -5 -12    8.02    1.10
   7  -5 -12    7.68    0.48
   7  -5 -12    5.25    2.09
  -7   5  12    7.57    0.54
   6  -5 -12    0.34    0.31
   6  -5 -12    0.56    0.46
   6  -5 -12    1.71    1.59
  -6   5  12   -0.18    0.34
   5  -5 -12   16.09    3.25
   5  -5 -12   18.42    1.11
   5  -5 -12   19.77    1.40
  -5   5  12   18.18    1.13
   4  -5 -12   61.03    2.46
   4  -5 -12   66.37    5.09
   4  -5 -12   65.69    2.26
  -4   5  12   63.83    2.26
   3  -5 -12    6.24    0.95
   3  -5 -12    4.84    1.96
   3  -5 -12    6.57    0.91
  -3   5  12    6.68    0.96
   2  -5 -12   12.88    1.28
   2  -5 -12   10.60    1.19
  -2   5  12   12.83    1.31
   1  -5 -12   34.30    1.85
  -1   5  12   31.13    1.84
  -1   5  12   31.36    4.53
   0  -5 -12    0.86    0.56
   0   5  12    1.02    0.56
   0   5  12    2.94    1.67
  -1  -5 -12    0.33    0.49
   1   5  12    1.18    0.58
   1   5  12    0.33    0.99
  -2  -5 -12    0.24    0.55
   2   5  12    0.30    0.91
   2   5  12    0.66    0.60
   3   5  12    1.58    0.70
   9  -6 -12    1.11    1.39
   8  -6 -12    1.95    0.77
   8  -6 -12    1.70    1.21
   7  -6 -12    3.46    1.59
   7  -6 -12    4.07    0.48
  -7   6  12    3.61    0.51
   6  -6 -12   12.26    2.98
   6  -6 -12   11.38    1.40
   6  -6 -12    9.69    0.82
  -6   6  12    9.79    0.94
   5  -6 -12    0.02    0.38
   5  -6 -12    0.43    0.45
   5  -6 -12    0.87    0.85
  -5   6  12    0.12    0.38
   4  -6 -12    6.20    0.94
   4  -6 -12   10.98    2.70
   4  -6 -12    6.57    1.01
   3  -6 -12    4.69    0.85
   3  -6 -12    6.99    1.00
  -3   6  12    7.37    1.06
   2  -6 -12    1.71    0.62
   2  -6 -12    2.65    0.75
  -2   6  12    3.49    1.73
   1  -6 -12    0.15    0.44
  -1   6  12   -0.24    0.42
   0  -6 -12    0.54    0.52
   0   6  12   -0.24    0.76
   0   6  12    0.25    0.46
  -1  -6 -12    0.07    0.54
   1   6  12   -0.26    0.39
   1   6  12   -0.09    0.88
   2   6  12    0.27    0.53
   9  -7 -12    7.00    2.49
   8  -7 -12   14.45    3.26
   7  -7 -12   -0.22    0.60
   7  -7 -12    0.87    0.61
   6  -7 -12   13.36    1.51
   6  -7 -12   11.27    2.53
   6  -7 -12   12.11    0.99
  -6   7  12   10.11    1.07
   5  -7 -12   13.53    1.14
   5  -7 -12   16.80    3.22
  -5   7  12   12.03    1.42
   4  -7 -12    2.99    1.25
   4  -7 -12    4.61    0.81
  -4   7  12    1.70    0.89
   3  -7 -12    4.98    0.93
  -3   7  12    1.47    1.26
   2  -7 -12    0.81    0.61
  -2   7  12    0.19    0.95
  -2   7  12    1.42    0.71
  -1   7  12    1.26    0.66
   0  -7 -12    1.97    0.79
   0   7  12    0.35    0.59
   8  -8 -12   10.41    2.56
   7  -8 -12    2.36    1.31
   6  -8 -12    1.67    0.60
   6  -8 -12    4.53    1.70
  -6   8  12    2.26    0.79
   5  -8 -12    1.20    0.67
   5  -8 -12    0.60    0.55
   4  -8 -12    2.90    0.91
   4  -8 -12    5.29    1.01
   3  -8 -12    3.43    0.87
   2  -8 -12   -0.17    0.54
   6  -9 -12    0.72    0.61
   5  -9 -12    0.09    0.61
   4  -9 -12    3.18    1.06
   3  -9 -12    5.22    1.17
   1   9 -13    0.66    0.53
  -1  -9  13    1.95    1.48
   0   9 -13    0.75    0.53
   0  -9  13   -0.09    0.75
  -1   9 -13    0.29    0.40
   1  -9  13    0.10    0.68
  -2   9 -13    1.84    0.50
   2  -9  13    3.96    1.50
   2  -9  13    5.06    1.82
   3  -9  13    4.62    1.75
   3  -9  13    2.89    1.37
   4  -9  13    0.57    1.03
   4  -9  13    0.98    1.00
   5  -9  13   18.55    3.39
   5  -9  13   23.50    3.89
   2   8 -13    0.90    0.62
  -2  -8  13    0.05    0.84
   1   8 -13    0.21    0.39
  -1  -8  13    0.58    0.96
   0   8 -13   -0.01    0.56
   0   8 -13    1.51    0.51
   0  -8  13    1.17    0.68
  -1   8 -13   -0.20    0.28
  -1   8 -13   -0.13    0.46
  -2   8 -13    5.34    0.63
  -2   8 -13    6.41    0.74
  -2   8 -13    5.20    1.15
   2  -8  13    6.73    2.14
  -3   8 -13    9.18    1.44
   3  -8  13   17.60    3.46
   3  -8  13   13.78    2.89
  -4   8 -13    0.13    0.57
   4  -8  13    0.63    0.91
   4  -8  13    1.22    1.06
  -5   8 -13   -0.52    0.48
   5  -8  13    0.04    0.80
   5  -8  13    0.87    1.32
  -6   8 -13    1.92    0.81
   6  -8  13    3.85    2.10
   6  -8  13   -0.04    1.25
   3   7 -13    0.17    0.44
   3   7 -13    0.57    0.65
  -3  -7  13   -0.13    0.80
   2   7 -13    0.85    0.64
   2   7 -13    1.70    0.61
   2   7 -13    0.86    1.45
  -2  -7  13    3.10    1.83
   1   7 -13    1.24    0.51
   1   7 -13    1.64    1.19
  -1  -7  13    4.44    1.93
   0   7 -13    3.53    0.62
   0   7 -13    5.18    1.15
   0   7 -13    3.36    1.70
   0  -7  13    6.17    2.23
   0  -7  13    3.93    0.80
  -1   7 -13   28.27    1.24
  -1   7 -13   29.71    4.60
  -1   7 -13   29.63    1.94
   1  -7  13   23.90    1.27
   1  -7  13   33.85    4.65
  -2   7 -13   16.98    1.85
  -2   7 -13   15.00    0.80
   2  -7  13   21.64    3.69
  -3   7 -13    0.38    0.47
   3  -7  13    1.11    1.01
   3  -7  13    2.07    1.30
  -4   7 -13   16.77    1.86
   4  -7  13   21.80    3.84
   4  -7  13   20.59    3.98
  -5   7 -13   10.41    1.40
   5  -7  13   13.27    3.11
   5  -7  13   12.42    3.23
  -6   7 -13    0.64    0.63
   6  -7  13   -0.35    0.89
   6  -7  13    1.20    1.28
  -7   7 -13    0.38    0.64
   7  -7  13    0.77    1.14
   4   6 -13    2.76    0.77
   4   6 -13    3.99    0.99
  -4  -6  13   -0.10    1.05
   3   6 -13   -0.01    0.48
   3   6 -13    0.45    0.45
   3   6 -13    1.37    1.40
  -3  -6  13   -0.02    0.72
   2   6 -13   35.89    5.36
   2   6 -13   36.81    2.18
   2   6 -13   37.92    1.81
  -2  -6  13   33.88    6.95
   1   6 -13   39.54    5.57
   1   6 -13   46.15    2.37
   1   6 -13   44.26    1.84
  -1  -6  13   45.56    2.24
  -1  -6  13   46.21    5.95
   0   6 -13    1.57    1.20
   0   6 -13    0.62    0.34
   0   6 -13   -0.06    0.34
   0  -6  13    0.72    0.40
   0  -6  13    2.37    1.41
  -1   6 -13   38.28    2.10
  -1   6 -13   34.01    5.29
  -1   6 -13   34.16    1.31
   1  -6  13   37.43    1.43
   1  -6  13   45.76    5.58
  -2   6 -13   23.34    1.66
  -2   6 -13   24.52    0.84
   2  -6  13   28.62    4.37
  -3   6 -13    0.54    0.50
   3  -6  13   -0.01    0.65
   3  -6  13    0.74    0.95
  -4   6 -13    2.94    0.78
   4  -6  13    2.89    1.53
   4  -6  13    3.41    1.80
  -5   6 -13    0.57    0.58
   5  -6  13   -0.05    0.83
   5  -6  13    0.75    1.18
  -6   6 -13    4.93    0.97
   6  -6  13    4.80    2.30
   6  -6  13    0.03    0.98
  -7   6 -13    0.82    0.68
   7  -6  13    3.10    2.01
   6   5 -13    0.25    0.59
   5   5 -13    7.54    3.15
   5   5 -13    9.78    1.65
   5   5 -13   10.37    1.38
   4   5 -13   26.05    1.63
   4   5 -13   30.07    6.77
   4   5 -13   25.59    1.83
  -4  -5  13   32.42    5.77
   3   5 -13    5.07    0.90
   3   5 -13    4.00    0.93
   3   5 -13    2.90    1.77
  -3  -5  13    3.28    1.92
   2   5 -13    7.04    2.48
   2   5 -13    7.06    1.20
   2   5 -13    6.93    1.02
  -2  -5  13    6.73    1.00
   1   5 -13    9.01    2.78
   1   5 -13    6.75    0.83
   1   5 -13    8.51    1.27
  -1  -5  13    7.21    2.24
  -1  -5  13    8.67    1.06
   0   5 -13    7.21    2.36
   0   5 -13    7.69    0.80
   0   5 -13    7.81    1.18
   0  -5  13   11.48    2.88
   0  -5  13    8.65    0.91
  -1   5 -13    0.38    0.24
  -1   5 -13    0.41    0.44
  -1   5 -13    0.19    0.59
   1  -5  13    0.81    0.85
   1  -5  13    0.84    0.30
  -2   5 -13    3.79    0.32
  -2   5 -13    1.90    0.63
   2  -5  13    2.86    1.42
  -3   5 -13    6.43    1.00
   3  -5  13   11.01    3.06
   3  -5  13   11.32    2.79
  -4   5 -13    0.39    0.42
   4  -5  13   -0.02    0.74
  -5   5 -13   11.30    1.44
   5  -5  13    8.97    2.89
  -6   5 -13   19.80    1.55
   6  -5  13   22.64    4.91
  -7   5 -13    2.19    0.78
   7  -5  13    4.97    2.51
   7   4 -13    2.90    1.10
   6   4 -13    8.66    3.18
   6   4 -13   12.08    1.58
   6   4 -13   12.27    1.46
   5   4 -13    3.74    0.90
   5   4 -13    5.25    0.95
   5   4 -13    3.82    1.95
  -5  -4  13    4.44    2.42
   4   4 -13    0.25    0.60
   4   4 -13    0.12    0.36
   4   4 -13    0.29    0.39
  -4  -4  13    0.58    1.12
   3   4 -13   36.41    5.72
   3   4 -13   29.03    1.74
   3   4 -13   29.29    1.54
  -3  -4  13   36.92    5.80
  -3  -4  13   28.35    1.59
   2   4 -13   22.89    4.76
   2   4 -13   19.13    1.15
   2   4 -13   20.65    1.46
  -2  -4  13   21.97    1.51
  -2  -4  13   19.71    1.23
  -2  -4  13   25.45    4.41
   1   4 -13    2.31    0.65
   1   4 -13    1.16    0.39
   1   4 -13    1.25    1.01
  -1  -4  13    0.68    0.36
  -1  -4  13    3.87    1.90
  -1  -4  13    0.89    0.54
   0   4 -13    3.06    0.50
   0   4 -13    4.22    1.91
   0   4 -13    4.71    0.87
   0  -4  13    3.63    0.55
   0  -4  13    2.43    1.41
  -1   4 -13    1.58    0.59
  -1   4 -13    1.92    0.35
  -1   4 -13    2.55    1.55
   1  -4  13    1.35    1.00
   1  -4  13    2.22    0.39
   1  -4  13    0.67    0.44
  -2   4 -13    1.26    0.57
   2  -4  13    1.66    1.17
   2  -4  13    2.49    0.73
  -3   4 -13   16.96    1.33
   3  -4  13   18.20    3.84
   3  -4  13   22.89    4.13
   3  -4  13   17.36    2.00
  -4   4 -13   16.05    1.32
   4  -4  13   10.77    2.97
   4  -4  13   15.18    3.56
  -5   4 -13    4.22    0.90
   5  -4  13    3.72    1.90
  -6   4 -13    0.01    0.43
   6  -4  13    0.56    1.28
   6  -4  13    0.43    0.88
  -7   4 -13    4.94    1.04
   7  -4  13    5.43    2.87
   8   3 -13   12.35    1.52
   7   3 -13   -0.02    0.95
   7   3 -13    0.59    0.53
   6   3 -13   21.32    4.69
   6   3 -13   27.27    1.72
  -6  -3  13   24.41    5.13
   5   3 -13   29.34    1.73
   5   3 -13   20.24    4.51
   5   3 -13   30.88    1.74
  -5  -3  13   26.60    5.14
   4   3 -13   -0.29    0.49
   4   3 -13    0.01    0.36
   4   3 -13    0.17    0.32
  -4  -3  13   -0.22    0.38
  -4  -3  13    0.86    1.15
   3   3 -13    7.96    0.97
   3   3 -13   10.52    3.16
   3   3 -13   10.93    1.54
  -3  -3  13    9.88    2.90
  -3  -3  13   10.11    1.24
  -3  -3  13    8.07    1.14
   2   3 -13    1.72    1.24
   2   3 -13    0.69    0.38
   2   3 -13    0.38    0.49
  -2  -3  13    0.77    0.42
  -2  -3  13    1.78    0.62
  -2  -3  13    1.07    0.90
   1   3 -13   23.32    4.03
   1   3 -13   29.02    1.60
   1   3 -13   27.38    1.22
  -1  -3  13   25.22    1.69
  -1  -3  13   27.20    1.26
  -1  -3  13   24.42    4.00
   0   3 -13    2.11    1.35
   0   3 -13    0.82    0.50
   0   3 -13    0.28    0.24
   0  -3  13    0.35    0.79
   0  -3  13    0.53    0.47
  -1   3 -13   40.97    1.22
  -1   3 -13   38.78    2.86
  -1   3 -13   52.64    6.61
   1  -3  13   35.05    1.83
   1  -3  13   41.08    1.27
   1  -3  13   50.12    6.13
  -2   3 -13   73.37    2.67
  -2   3 -13   68.43    1.52
   2  -3  13   71.25    2.71
   2  -3  13   66.93    1.51
   2  -3  13   68.05    5.27
  -3   3 -13   21.56    1.44
   3  -3  13   21.08    3.81
   3  -3  13   22.48    1.51
   3  -3  13   28.26    4.86
  -4   3 -13   19.29    1.42
   4  -3  13   21.67    4.66
  -5   3 -13   34.47    1.88
   5  -3  13   40.44    6.22
   5  -3  13   37.51    6.09
  -6   3 -13    1.51    0.62
   6  -3  13    3.13    2.01
   6  -3  13    0.68    1.11
  -7   3 -13    0.11    0.55
   7  -3  13    0.61    1.01
   8   2 -13    8.00    1.15
   8   2 -13    7.02    3.17
   7   2 -13   -0.06    0.37
   7   2 -13   -0.36    0.39
   7   2 -13    2.33    1.91
   7   2 -13    0.03    0.39
  -7  -2  13   -0.01    1.12
   6   2 -13   -0.03    0.34
   6   2 -13    0.76    1.05
   6   2 -13   -0.30    0.30
   6   2 -13   -0.25    0.37
  -6  -2  13   -0.15    0.81
   5   2 -13    4.98    0.88
   5   2 -13    4.04    2.24
   5   2 -13    4.86    0.91
  -5  -2  13    6.07    2.35
  -5  -2  13    3.57    0.81
   4   2 -13   14.52    1.10
   4   2 -13   15.41    1.18
   4   2 -13   13.31    3.58
  -4  -2  13   12.91    1.30
  -4  -2  13   17.20    3.86
  -4  -2  13   14.33    1.45
   3   2 -13    1.01    0.42
   3   2 -13    1.90    0.57
   3   2 -13    4.48    2.09
  -3  -2  13    2.53    0.66
  -3  -2  13    2.25    0.55
  -3  -2  13    0.61    0.69
   2   2 -13   16.76    1.01
   2   2 -13   14.40    1.15
   2   2 -13   20.63    3.94
  -2  -2  13   17.26    1.06
  -2  -2  13   16.22    1.21
  -2  -2  13   19.54    3.72
   1   2 -13  136.36    3.85
   1   2 -13  123.65    7.31
   1   2 -13  134.55    3.24
  -1  -2  13  131.10    3.26
  -1  -2  13  155.03    8.95
   0   2 -13   64.85    1.82
   0   2 -13   63.96    5.17
   0   2 -13   61.79    2.37
   0  -2  13   58.78    2.35
  -1   2 -13   63.13    2.40
  -1   2 -13   60.77    1.67
  -1   2 -13   66.92    5.27
   1  -2  13   63.05    1.68
   1  -2  13   60.61    5.56
  -2   2 -13   34.38    2.17
   2  -2  13   40.81    5.33
   2  -2  13   33.89    1.78
   2  -2  13   37.64    1.09
  -3   2 -13    4.03    0.84
   3  -2  13    3.10    0.31
   3  -2  13    3.63    1.98
   3  -2  13    3.17    1.31
   3  -2  13    3.33    0.32
   3  -2  13    3.80    0.81
  -4   2 -13    1.23    0.56
   4  -2  13    3.58    2.11
   4  -2  13    1.77    1.52
  -5   2 -13    0.28    0.48
   5  -2  13    0.94    1.16
   5  -2  13    0.32    1.09
  -6   2 -13    3.87    0.90
   6  -2  13    5.06    2.59
   6  -2  13    4.61    2.83
  -7   2 -13    1.37    0.65
   7  -2  13    1.37    1.47
   9   1 -13    1.91    3.01
   8   1 -13    3.08    2.15
   8   1 -13    1.27    0.61
   8   1 -13    1.03    0.53
   7   1 -13    0.19    0.36
   7   1 -13   -0.07    0.72
   7   1 -13    0.06    0.39
   6   1 -13    2.07    0.72
   6   1 -13    1.75    0.54
   6   1 -13    2.41    1.64
   6   1 -13    1.54    0.55
  -6  -1  13    2.62    1.83
   5   1 -13   -0.15    0.30
   5   1 -13    0.83    1.01
   5   1 -13   -0.19    0.36
  -5  -1  13    0.56    0.44
  -5  -1  13    0.74    1.01
   4   1 -13   20.80    1.28
   4   1 -13   17.35    3.77
  -4  -1  13   16.35    1.19
  -4  -1  13   15.04    1.12
  -4  -1  13   23.90    4.79
   3   1 -13   45.86    1.82
   3   1 -13   55.12    4.81
   3   1 -13   48.34    1.98
  -3  -1  13   47.10    1.98
  -3  -1  13   49.24    4.55
  -3  -1  13   48.49    1.85
   2   1 -13    5.47    2.13
   2   1 -13    5.25    0.70
   2   1 -13    4.68    0.79
  -2  -1  13    4.40    0.66
  -2  -1  13    5.95    0.93
  -2  -1  13    4.41    1.88
   1   1 -13    3.06    0.53
   1   1 -13    3.06    0.65
   1   1 -13    2.44    1.38
  -1  -1  13    1.95    0.44
  -1  -1  13    3.19    1.54
  -1  -1  13    3.22    0.65
   0   1 -13    6.94    0.99
   0   1 -13    9.11    2.42
   0   1 -13    7.48    0.74
   0  -1  13    8.99    1.14
   0  -1  13    8.34    2.40
   0  -1  13    7.73    0.74
  -1   1 -13   17.53    3.62
  -1   1 -13   17.36    1.22
  -1   1 -13   18.64    0.88
   1  -1  13   19.57    0.89
   1  -1  13   16.88    2.26
   1  -1  13   21.75    3.85
  -2   1 -13   11.60    1.28
   2  -1  13   11.05    0.87
   2  -1  13   15.01    3.67
   2  -1  13    9.23    1.15
   2  -1  13    9.20    2.71
   2  -1  13   12.72    0.69
  -3   1 -13    5.68    0.96
   3  -1  13    4.84    0.90
   3  -1  13    7.95    2.71
   3  -1  13    4.93    2.37
   3  -1  13    4.32    0.49
   3  -1  13    4.10    0.51
  -4   1 -13   -0.31    0.31
   4  -1  13   -0.10    0.23
   4  -1  13   -0.14    0.57
   4  -1  13    1.05    1.23
   4  -1  13    0.15    0.22
  -5   1 -13    0.60    0.50
   5  -1  13    0.22    1.27
   5  -1  13    0.94    0.32
   5  -1  13    2.63    1.92
   5  -1  13    0.36    0.35
  -6   1 -13    3.65    0.88
   6  -1  13    3.71    0.50
   6  -1  13    3.73    0.67
   6  -1  13    7.26    3.03
  -7   1 -13    3.17    0.92
   7  -1  13    7.04    3.13
   9   0 -13   -0.03    0.42
   9   0 -13   -0.73    1.04
   8   0 -13    6.44    2.76
   8   0 -13    4.28    0.75
   8   0 -13    4.14    1.00
   8   0 -13    4.04    0.70
   7   0 -13   -0.53    0.26
   7   0 -13   -0.05    0.27
   7   0 -13   -0.03    0.65
   7   0 -13   -0.03    0.36
   6   0 -13   29.93    5.28
   6   0 -13   31.79    1.50
   6   0 -13   29.50    1.70
  -6   0  13   25.56    1.42
   5   0 -13   56.28    2.29
   5   0 -13   61.03    2.16
   5   0 -13   62.09    5.46
  -5   0  13   66.47    5.74
  -5   0  13   57.03    2.14
  -5   0  13   58.84    2.80
   4   0 -13   11.71    1.18
   4   0 -13    9.24    2.72
   4   0 -13    9.09    1.04
  -4   0  13   11.51    1.19
  -4   0  13    6.75    2.31
  -4   0  13   10.40    1.12
   3   0 -13   37.40    1.59
   3   0 -13   36.60    1.65
   3   0 -13   47.41    5.82
  -3   0  13   37.62    1.69
  -3   0  13   37.83    1.61
  -3   0  13   41.92    5.40
   2   0 -13   94.52    2.65
   2   0 -13   92.17    2.86
   2   0 -13   85.29    5.96
  -2   0  13   92.20    2.62
  -2   0  13   95.74    2.91
  -2   0  13   85.38    5.81
   1   0 -13    8.77    0.87
   1   0 -13   10.53    2.73
   1   0 -13    9.38    1.04
  -1   0  13   10.02    0.76
  -1   0  13   11.55    1.24
  -1   0  13   10.37    2.76
   0   0 -13    5.74    2.12
   0   0 -13    6.72    0.73
   0   0 -13    5.24    0.83
   0   0  13    7.38    0.77
   0   0  13    6.37    0.89
   0   0  13   10.04    2.53
  -1   0 -13    6.16    0.88
  -1   0 -13    8.15    0.77
   1   0  13    7.19    1.09
   1   0  13    7.37    2.34
   1   0  13    8.93    0.67
  -2   0 -13    5.42    0.93
   2   0  13    4.21    0.58
   2   0  13    3.67    0.81
   2   0  13    4.28    2.15
   2   0  13    3.56    1.88
   2   0  13    4.03    0.57
  -3   0 -13    8.04    1.13
   3   0  13    8.39    0.68
   3   0  13    8.52    0.82
   3   0  13   10.61    3.10
   3   0  13   10.85    3.37
  -4   0 -13    5.71    1.00
   4   0  13    5.47    2.56
   4   0  13    5.69    0.69
   4   0  13    6.19    0.72
   4   0  13    8.83    2.85
  -5   0 -13   17.07    1.46
   5   0  13   20.46    4.91
   5   0  13   19.49    1.07
   5   0  13   19.37    1.11
  -6   0 -13    5.59    1.09
   6   0  13    4.83    0.73
   6   0  13    6.69    3.14
   6   0  13    4.35    0.70
   7   0  13    0.71    1.58
   9  -1 -13    7.30    3.26
   8  -1 -13   36.71    2.10
   8  -1 -13   35.06    6.05
   8  -1 -13   34.66    1.44
   8  -1 -13   38.65    1.42
   7  -1 -13   10.12    0.94
   7  -1 -13    8.38    2.93
   7  -1 -13    7.13    1.07
   7  -1 -13    7.80    0.80
   6  -1 -13    3.25    0.72
   6  -1 -13    4.38    2.13
   6  -1 -13    4.35    0.70
  -6   1  13    3.75    0.63
   5  -1 -13   44.07    1.75
   5  -1 -13   46.22    2.00
   5  -1 -13   46.51    6.38
  -5   1  13   55.18    8.14
  -5   1  13   42.91    1.75
  -5   1  13   45.26    1.98
   4  -1 -13   12.02    2.71
   4  -1 -13   11.85    0.94
   4  -1 -13   10.81    1.27
  -4   1  13   12.37    0.99
  -4   1  13   14.30    1.01
  -4   1  13   18.62    3.79
   3  -1 -13    7.01    0.88
   3  -1 -13    6.84    0.91
   3  -1 -13    8.83    2.71
  -3   1  13    6.07    0.80
  -3   1  13    7.84    0.93
  -3   1  13    5.68    2.29
   2  -1 -13    1.37    0.51
   2  -1 -13    1.04    0.37
  -2   1  13    0.91    0.45
  -2   1  13    3.47    1.91
  -2   1  13    1.51    0.46
   1  -1 -13   36.79    1.68
   1  -1 -13   38.17    1.53
  -1   1  13   36.88    1.50
  -1   1  13   42.02    6.00
  -1   1  13   37.58    1.75
   0  -1 -13   27.20    4.77
   0  -1 -13   19.10    1.24
   0  -1 -13   21.14    1.10
   0   1  13   16.24    1.27
   0   1  13   18.90    1.03
  -1  -1 -13   11.61    0.84
  -1  -1 -13   13.45    1.11
   1   1  13    9.67    1.18
   1   1  13   20.80    3.83
   1   1  13   16.10    3.51
   1   1  13   11.99    0.85
  -2  -1 -13   37.73    1.92
   2   1  13   46.75    6.39
   2   1  13   45.39    6.34
   2   1  13   43.33    1.60
   2   1  13   41.77    1.68
  -3  -1 -13   45.76    2.15
   3   1  13   44.29    1.68
   3   1  13   43.78    1.76
   3   1  13   37.50    5.68
  -4  -1 -13    0.95    0.57
   4   1  13    0.62    0.43
   4   1  13   -0.39    0.63
   4   1  13    0.66    0.43
  -5  -1 -13    9.93    1.42
   5   1  13    7.24    2.77
   5   1  13   10.52    1.10
   5   1  13   10.09    1.06
   6   1  13    4.49    0.81
   6   1  13    2.98    2.14
   9  -2 -13    2.57    1.67
   8  -2 -13    7.00    1.13
   8  -2 -13    8.69    0.55
   8  -2 -13    9.03    0.56
   7  -2 -13    5.26    0.62
   7  -2 -13    5.70    2.50
   7  -2 -13    2.54    0.68
   6  -2 -13    2.78    1.61
   6  -2 -13    1.20    0.41
   6  -2 -13   -0.02    0.37
  -6   2  13    0.61    0.33
   5  -2 -13    1.65    0.57
   5  -2 -13    1.91    1.22
   5  -2 -13    0.73    0.38
  -5   2  13    1.08    0.40
  -5   2  13    0.32    0.64
   4  -2 -13   10.70    1.04
   4  -2 -13   10.23    1.11
   4  -2 -13   13.92    3.49
  -4   2  13    7.58    0.89
  -4   2  13   10.74    1.15
   3  -2 -13    2.59    0.59
   3  -2 -13    2.43    1.53
   3  -2 -13    2.27    0.58
  -3   2  13    3.73    1.82
  -3   2  13    2.65    0.57
  -3   2  13    2.49    0.60
   2  -2 -13    0.14    0.56
   2  -2 -13   -0.07    0.23
   2  -2 -13    0.10    0.26
  -2   2  13    0.10    0.31
  -2   2  13    0.31    0.58
  -2   2  13   -0.18    0.23
   1  -2 -13   25.81    4.18
   1  -2 -13   29.45    1.54
   1  -2 -13   32.30    1.47
  -1   2  13   36.38    4.85
  -1   2  13   28.25    1.55
  -1   2  13   29.76    1.39
   0  -2 -13   27.62    2.87
   0  -2 -13   30.22    1.42
   0   2  13   31.15    1.43
   0   2  13   30.36    1.65
  -1  -2 -13   16.91    1.27
   1   2  13   22.70    4.29
   1   2  13   18.07    1.17
   1   2  13   18.02    1.09
  -2  -2 -13   13.08    1.41
   2   2  13   14.11    1.01
   2   2  13   16.32    3.98
   2   2  13   13.94    1.08
  -3  -2 -13    3.33    0.81
   3   2  13    5.64    0.96
   3   2  13    6.38    2.56
   3   2  13    4.75    0.77
  -4  -2 -13    1.03    1.05
   4   2  13    0.83    0.50
   4   2  13    0.91    1.33
   4   2  13    0.58    0.44
  -5  -2 -13    0.12    0.54
   5   2  13    0.93    0.55
   5   2  13    0.14    0.91
   6   2  13    0.28    0.53
   6   2  13   -0.15    1.28
   9  -3 -13    1.25    1.30
   8  -3 -13   11.60    3.34
   8  -3 -13    8.12    1.33
   7  -3 -13    0.63    0.47
   7  -3 -13    0.15    0.73
   7  -3 -13    0.51    0.27
  -7   3  13   -0.14    0.25
   6  -3 -13    0.31    0.74
   6  -3 -13    0.69    0.46
   6  -3 -13    0.99    0.36
  -6   3  13    0.45    0.35
   5  -3 -13    0.81    0.82
   5  -3 -13    0.64    0.36
   5  -3 -13    0.26    0.39
  -5   3  13    0.67    0.37
   4  -3 -13    2.61    1.50
   4  -3 -13    3.09    0.60
   4  -3 -13    3.00    0.68
  -4   3  13    3.68    0.75
  -4   3  13    3.41    0.66
   3  -3 -13   29.97    4.70
   3  -3 -13   20.30    1.22
   3  -3 -13   18.96    1.27
  -3   3  13   22.48    1.30
  -3   3  13   20.18    1.25
   2  -3 -13   34.53    1.63
   2  -3 -13   41.30    5.47
   2  -3 -13   31.44    1.78
  -2   3  13   34.19    1.67
  -2   3  13   34.38    1.59
   1  -3 -13   15.68    3.37
   1  -3 -13   13.91    1.06
  -1   3  13   15.80    1.12
  -1   3  13   14.57    1.16
   0  -3 -13    7.50    1.49
   0  -3 -13    4.72    0.83
   0   3  13    5.51    0.81
   0   3  13    4.92    0.84
   0   3  13    8.21    2.53
  -1  -3 -13   12.20    1.37
   1   3  13    5.87    2.23
   1   3  13   10.73    1.14
   1   3  13    7.60    1.02
  -2  -3 -13   11.91    1.39
   2   3  13   15.40    1.19
   2   3  13   15.87    1.24
   2   3  13   13.58    3.30
  -3  -3 -13    0.53    0.48
   3   3  13    0.49    0.89
   3   3  13    1.01    0.57
  -4  -3 -13    0.22    0.48
   4   3  13    0.27    0.45
   4   3  13    1.08    1.40
   5   3  13    0.00    0.50
   9  -4 -13    0.24    0.90
   8  -4 -13    1.21    0.63
   8  -4 -13    2.90    1.49
   7  -4 -13    9.73    0.61
   7  -4 -13   11.23    3.28
   7  -4 -13   10.81    1.29
  -7   4  13    9.51    0.68
   6  -4 -13    0.91    0.50
   6  -4 -13   -0.43    0.54
   6  -4 -13    0.51    0.32
  -6   4  13    0.43    0.36
   5  -4 -13   63.95    2.53
   5  -4 -13   63.76    2.12
   5  -4 -13   71.63    5.63
  -5   4  13   63.65    2.16
   4  -4 -13   40.81    5.27
   4  -4 -13   44.31    1.79
   4  -4 -13   44.35    2.01
  -4   4  13   43.50    1.84
   3  -4 -13    1.41    1.13
   3  -4 -13    0.11    0.36
   3  -4 -13   -0.45    0.26
  -3   4  13   -0.02    0.35
   2  -4 -13   61.01    2.34
   2  -4 -13   58.02    4.99
  -2   4  13   59.38    2.34
  -2   4  13   60.91    2.42
   1  -4 -13   30.79    1.70
   1  -4 -13   27.83    1.56
  -1   4  13   28.20    2.79
  -1   4  13   26.34    1.70
   0  -4 -13    0.32    0.48
   0   4  13    0.24    0.43
   0   4  13    0.25    0.76
  -1  -4 -13   16.80    1.70
   1   4  13   14.14    4.02
   1   4  13   14.46    1.42
  -2  -4 -13    0.84    0.63
   2   4  13    0.20    0.41
   2   4  13    1.82    1.50
  -3  -4 -13    2.79    0.84
   3   4  13    3.75    0.88
   3   4  13    3.84    2.01
   4   4  13    1.18    0.65
   9  -5 -13    1.29    1.48
   8  -5 -13   18.70    4.05
   8  -5 -13   14.27    1.65
   7  -5 -13   11.86    1.81
   7  -5 -13   15.02    3.55
   7  -5 -13   12.72    0.72
  -7   5  13   13.05    0.80
   6  -5 -13    2.86    0.78
   6  -5 -13    5.51    2.15
   6  -5 -13    3.21    0.60
  -6   5  13    3.71    0.65
   5  -5 -13    7.53    1.04
   5  -5 -13    7.69    0.95
  -5   5  13    6.76    0.91
   4  -5 -13   12.86    1.39
   4  -5 -13   16.91    3.37
   4  -5 -13   15.31    1.15
  -4   5  13   14.15    1.15
   3  -5 -13    0.01    0.43
   3  -5 -13    0.56    1.10
   3  -5 -13   -0.11    0.36
  -3   5  13   -0.04    0.37
   2  -5 -13    0.27    0.43
   2  -5 -13    0.44    0.42
   1  -5 -13    1.74    0.66
  -1   5  13    1.68    1.33
  -1   5  13    2.13    0.70
   0  -5 -13   13.50    1.52
   0   5  13   11.04    1.32
   0   5  13    9.47    2.78
   1   5  13   -0.01    0.48
   1   5  13    1.56    1.40
  -2  -5 -13    2.91    0.83
   2   5  13    5.58    2.37
   3   5  13   13.49    1.55
   8  -6 -13    4.75    1.95
   7  -6 -13    4.31    0.97
   7  -6 -13    4.72    1.94
  -7   6  13    3.00    0.61
   6  -6 -13   10.45    2.82
   6  -6 -13    6.86    0.79
  -6   6  13    6.29    0.85
   5  -6 -13    4.16    0.92
   5  -6 -13    5.60    1.96
   5  -6 -13    4.36    0.78
  -5   6  13    4.31    0.78
   4  -6 -13    0.18    0.46
   4  -6 -13    3.48    1.55
   4  -6 -13   -0.27    0.34
  -4   6  13   -0.29    0.35
   3  -6 -13    0.23    0.44
   3  -6 -13    0.76    0.48
   2  -6 -13    0.65    0.54
   2  -6 -13    0.49    0.47
  -2   6  13    0.08    1.08
   1  -6 -13   -0.15    0.46
  -1   6  13    0.22    0.57
  -1   6  13    0.22    1.06
   0  -6 -13    1.42    0.70
   0   6  13    0.10    0.54
   0   6  13    2.95    1.92
  -1  -6 -13    6.96    1.86
   1   6  13    4.76    0.99
   7  -7 -13    0.15    0.33
   7  -7 -13   -0.15    0.61
   6  -7 -13    1.46    1.13
   6  -7 -13    1.08    0.52
   6  -7 -13    0.35    0.54
  -6   7  13    0.89    0.52
   5  -7 -13    0.46    0.52
   5  -7 -13    0.96    1.05
   5  -7 -13    0.25    0.45
  -5   7  13    0.31    0.50
   4  -7 -13   10.65    1.28
   4  -7 -13    8.87    1.29
   3  -7 -13    0.34    0.48
   3  -7 -13    0.01    0.46
  -3   7  13   -0.22    0.83
   2  -7 -13    7.53    1.18
  -2   7  13    7.08    1.23
   1  -7 -13   23.55    1.85
   7  -8 -13    6.42    2.47
   6  -8 -13    4.37    1.75
   6  -8 -13    1.38    0.61
   5  -8 -13    3.63    0.91
   4  -8 -13   21.07    1.67
   3  -8 -13    5.38    1.24
   2  -8 -13    2.05    0.82
   0   9 -14    1.82    0.63
   0  -9  14    4.55    1.84
  -1   9 -14    3.13    0.67
   1  -9  14    3.37    1.69
   2  -9  14   12.24    2.69
   3  -9  14    5.79    2.01
   4  -9  14    1.42    1.25
   4  -9  14    1.63    1.33
   2   8 -14    1.46    0.65
  -2  -8  14   -0.38    0.97
   1   8 -14    3.68    0.80
  -1  -8  14    4.38    1.89
   0   8 -14    8.05    1.02
   0  -8  14    7.48    2.61
  -1   8 -14    4.56    1.08
  -1   8 -14    4.14    0.69
   1  -8  14   10.26    4.66
  -2   8 -14    0.35    0.65
  -2   8 -14    0.48    0.31
  -2   8 -14    0.38    0.36
  -3   8 -14    1.64    0.76
   3  -8  14    2.77    1.63
  -4   8 -14    2.86    0.90
   4  -8  14    4.93    2.03
  -5   8 -14    1.10    0.75
   5  -8  14    1.56    1.67
   3   7 -14    6.53    1.14
  -3  -7  14   -0.11    1.03
   2   7 -14   24.46    1.56
   2   7 -14   24.00    1.95
  -2  -7  14   23.64    4.82
   1   7 -14    8.49    2.70
   1   7 -14    8.85    1.09
   1   7 -14    8.51    1.40
  -1  -7  14    6.15    2.37
   0   7 -14    1.15    1.18
   0   7 -14    2.61    0.60
   0   7 -14    1.87    0.89
   0  -7  14    2.19    0.73
   0  -7  14    1.09    1.03
  -1   7 -14   20.34    2.45
  -1   7 -14   19.74    1.04
  -1   7 -14   11.83    2.93
   1  -7  14   18.59    1.10
   1  -7  14   24.87    4.09
  -2   7 -14    5.68    0.57
  -2   7 -14    4.04    0.54
  -2   7 -14    4.56    1.09
   2  -7  14    5.49    2.24
  -3   7 -14    0.95    0.66
   3  -7  14    1.14    1.26
   3  -7  14    1.03    0.89
  -4   7 -14    0.40    0.69
   4  -7  14   -0.10    0.81
   4  -7  14   -0.28    0.76
  -5   7 -14    2.29    0.93
   5  -7  14    1.31    1.46
   5  -7  14    4.61    2.04
  -6   7 -14    2.11    0.87
   6  -7  14    0.40    2.27
   4   6 -14   18.33    1.99
   4   6 -14   22.39    1.60
   3   6 -14    2.63    0.71
   3   6 -14    2.40    0.84
   3   6 -14    2.73    1.93
  -3  -6  14    6.09    2.90
   2   6 -14   16.64    1.85
   2   6 -14   19.74    4.44
   2   6 -14   17.74    1.26
  -2  -6  14   19.95    4.54
   1   6 -14   12.16    3.36
   1   6 -14   12.40    1.59
  -1  -6  14    9.75    1.14
  -1  -6  14   13.10    3.29
   0   6 -14    2.08    0.48
   0   6 -14    1.86    1.39
   0   6 -14    2.06    0.72
   0  -6  14    1.99    0.55
   0  -6  14    1.55    1.31
  -1   6 -14    1.43    1.34
  -1   6 -14    0.65    0.52
  -1   6 -14    0.30    0.30
   1  -6  14    1.14    1.08
   1  -6  14    0.86    0.39
  -2   6 -14    4.90    0.42
  -2   6 -14    5.12    1.13
   2  -6  14    3.13    1.71
  -3   6 -14   17.61    1.85
   3  -6  14   13.10    3.08
   3  -6  14   21.85    4.49
  -4   6 -14    0.22    0.51
   4  -6  14    1.41    1.28
   4  -6  14    0.16    0.67
  -5   6 -14   24.12    1.75
   5  -6  14   27.14    4.84
   5  -6  14   21.63    5.09
   6  -6  14   16.63    4.20
  -7   6 -14   -0.46    0.52
   7  -6  14    0.91    1.24
   6   5 -14    0.85    0.73
   5   5 -14    0.09    0.48
   5   5 -14    1.20    0.60
   5   5 -14    0.35    1.02
   4   5 -14    2.11    1.66
   4   5 -14    2.40    0.72
   4   5 -14    2.77    0.89
  -4  -5  14    2.73    1.89
   3   5 -14    0.34    0.48
   3   5 -14    1.07    0.51
   3   5 -14    2.91    1.88
  -3  -5  14    2.48    1.68
   2   5 -14    2.02    0.76
   2   5 -14    1.78    0.53
   2   5 -14    1.32    1.10
  -2  -5  14    1.78    1.43
  -2  -5  14    1.77    0.58
   1   5 -14    6.00    0.80
   1   5 -14    5.03    1.02
   1   5 -14    5.54    2.23
  -1  -5  14    6.54    0.90
   0   5 -14   12.16    3.10
   0   5 -14   18.34    1.45
   0   5 -14   17.28    0.97
   0  -5  14   17.04    1.03
   0  -5  14   15.19    3.84
  -1   5 -14    0.10    0.37
  -1   5 -14   -0.15    0.54
  -1   5 -14    0.44    0.24
   1  -5  14    0.27    0.25
   1  -5  14    0.65    0.81
  -2   5 -14   20.83    1.55
   2  -5  14   20.42    3.83
  -3   5 -14   23.94    1.67
   3  -5  14   28.59    6.20
  -4   5 -14    3.08    0.81
   4  -5  14    3.34    2.01
  -5   5 -14    0.91    0.56
   5  -5  14    0.96    1.23
   5  -5  14    1.55    1.29
  -6   5 -14    1.61    0.79
   6  -5  14    2.53    1.84
  -7   5 -14    1.36    0.79
   7  -5  14    0.49    1.13
   7   4 -14    1.94    0.86
   6   4 -14   11.95    3.65
   6   4 -14   13.91    2.00
   6   4 -14   19.84    2.08
   5   4 -14    7.26    1.18
   5   4 -14    6.52    1.18
   5   4 -14    7.82    3.04
  -5  -4  14    9.72    3.64
   4   4 -14    0.23    0.38
   4   4 -14    0.14    0.36
   4   4 -14    0.29    0.72
  -4  -4  14    0.13    0.72
   3   4 -14    0.79    0.50
   3   4 -14    1.09    1.06
   3   4 -14   -0.06    0.32
  -3  -4  14    0.55    0.92
  -3  -4  14    0.74    0.47
   2   4 -14    1.49    0.48
   2   4 -14    1.91    0.67
   2   4 -14    0.48    0.65
  -2  -4  14    0.81    0.45
  -2  -4  14    0.59    0.95
   1   4 -14    4.41    2.20
   1   4 -14    4.13    0.62
   1   4 -14    4.01    0.85
  -1  -4  14    4.22    1.97
  -1  -4  14    5.70    0.85
   0   4 -14    5.38    0.66
   0   4 -14    3.63    0.83
   0   4 -14    3.25    1.74
   0  -4  14    4.66    0.64
   0  -4  14    6.84    2.38
  -1   4 -14   42.65    5.73
  -1   4 -14   39.19    2.03
  -1   4 -14   39.65    1.30
   1  -4  14   38.41    1.29
   1  -4  14   49.59    6.13
  -2   4 -14   27.10    1.70
   2  -4  14   31.23    4.84
  -3   4 -14    0.38    0.48
   3  -4  14    0.59    0.80
   3  -4  14    1.07    0.96
  -4   4 -14   13.70    1.48
   4  -4  14   11.54    3.30
   4  -4  14   17.46    4.00
  -5   4 -14    7.59    1.20
   5  -4  14    7.92    2.85
   5  -4  14    5.58    2.41
  -6   4 -14    4.32    0.97
   6  -4  14    1.96    1.44
  -7   4 -14   -0.51    0.51
   7  -4  14   -0.08    0.88
   7   3 -14   -0.09    1.00
   7   3 -14   -0.32    0.43
   6   3 -14   -0.19    0.75
   6   3 -14    0.14    0.37
   6   3 -14    1.02    0.63
  -6  -3  14   -0.46    1.04
   5   3 -14    8.48    1.24
   5   3 -14    8.79    3.15
   5   3 -14    8.35    1.21
  -5  -3  14    3.75    2.08
   4   3 -14   24.67    1.61
   4   3 -14   28.07    5.39
   4   3 -14   23.39    1.45
  -4  -3  14   33.51    6.00
   3   3 -14    0.43    0.37
   3   3 -14    0.23    0.75
   3   3 -14    0.15    0.41
  -3  -3  14    0.85    0.49
  -3  -3  14    2.17    1.62
  -3  -3  14    1.13    0.47
   2   3 -14  110.51    3.64
   2   3 -14  122.70    3.26
   2   3 -14  123.59    7.63
  -2  -3  14  127.48    7.54
  -2  -3  14  122.24    3.35
  -2  -3  14  119.92    3.78
   1   3 -14   56.27    1.88
   1   3 -14   64.87    5.38
   1   3 -14   53.38    2.33
  -1  -3  14   58.11    2.42
  -1  -3  14   48.53    4.51
  -1  -3  14   57.47    1.94
   0   3 -14    2.57    0.48
   0   3 -14    5.43    2.18
   0   3 -14    1.72    0.55
   0  -3  14    3.16    1.75
   0  -3  14    2.09    0.45
  -1   3 -14   40.70    2.02
  -1   3 -14   39.34    1.27
  -1   3 -14   42.76    5.75
   1  -3  14   41.76    1.31
   1  -3  14   48.39    6.09
  -2   3 -14   30.67    1.74
   2  -3  14   33.94    5.03
   2  -3  14   27.88    0.85
  -3   3 -14    1.18    0.50
   3  -3  14    0.87    1.02
   3  -3  14    0.76    1.12
  -4   3 -14    1.87    0.62
   4  -3  14    1.02    1.30
   4  -3  14    3.58    1.90
  -5   3 -14   -0.10    0.40
   5  -3  14   -0.02    0.91
   5  -3  14    1.16    1.32
  -6   3 -14    4.78    0.96
   6  -3  14    2.90    2.03
  -7   3 -14    0.58    0.66
   7  -3  14    0.91    1.28
   8   2 -14    2.74    2.46
   8   2 -14    2.90    0.81
   7   2 -14    2.51    2.05
   7   2 -14    4.70    1.02
   7   2 -14    5.45    0.97
   6   2 -14   -0.07    0.34
   6   2 -14    0.18    0.41
   6   2 -14    0.94    0.59
   6   2 -14    0.04    0.87
   5   2 -14   17.96    1.33
   5   2 -14   17.09    1.32
   5   2 -14   19.31    4.25
  -5  -2  14   16.84    1.34
  -5  -2  14   16.28    4.38
   4   2 -14   57.44    2.29
   4   2 -14   64.95    7.99
  -4  -2  14   61.02    2.41
  -4  -2  14   60.54    2.44
  -4  -2  14   65.91    5.76
   3   2 -14    5.19    0.82
   3   2 -14    5.07    0.88
   3   2 -14    5.89    2.45
  -3  -2  14    2.84    1.72
  -3  -2  14    5.62    0.98
   2   2 -14    1.52    0.56
   2   2 -14    2.41    1.31
   2   2 -14    1.68    0.46
  -2  -2  14    1.67    1.22
  -2  -2  14    2.45    0.57
  -2  -2  14    2.58    0.73
   1   2 -14   43.49    1.58
   1   2 -14   42.32    2.02
   1   2 -14   49.41    6.57
  -1  -2  14   42.14    1.58
  -1  -2  14   44.07    4.27
  -1  -2  14   38.90    1.92
   0   2 -14    0.65    0.29
   0   2 -14    1.44    1.10
   0  -2  14    0.05    0.22
   0  -2  14   -0.03    0.33
   0  -2  14   -0.16    0.54
  -1   2 -14    9.61    3.04
  -1   2 -14    6.97    0.68
  -1   2 -14    6.25    0.95
   1  -2  14    6.87    0.55
   1  -2  14   10.69    2.88
  -2   2 -14    0.20    0.34
   2  -2  14    0.05    0.19
   2  -2  14    0.28    0.39
   2  -2  14   -0.07    0.59
   2  -2  14    0.23    0.65
  -3   2 -14   18.30    1.38
   3  -2  14   18.98    4.09
   3  -2  14   17.15    0.66
   3  -2  14   23.58    4.69
   3  -2  14   17.10    0.63
  -4   2 -14    2.37    0.70
   4  -2  14    3.70    2.07
   4  -2  14    1.94    1.62
  -5   2 -14   10.72    1.31
   5  -2  14   10.21    3.49
   5  -2  14    6.32    2.71
   6  -2  14   14.06    4.03
  -7   2 -14    2.14    0.76
   7  -2  14    4.97    2.71
   8   1 -14    3.00    1.97
   7   1 -14    4.87    0.85
   7   1 -14    3.96    2.07
   7   1 -14    4.81    1.03
   7   1 -14    3.17    0.84
   6   1 -14   23.04    1.56
   6   1 -14   24.75    1.50
   6   1 -14   30.47    5.91
  -6  -1  14   30.24    5.97
   5   1 -14    5.50    0.94
   5   1 -14    5.66    0.91
  -5  -1  14    5.14    3.07
  -5  -1  14    6.35    1.01
   4   1 -14    0.46    0.70
   4   1 -14    0.17    0.37
   4   1 -14   -0.13    0.25
  -4  -1  14   -0.07    0.32
  -4  -1  14    0.17    0.34
  -4  -1  14    0.73    0.94
   3   1 -14   20.28    1.31
   3   1 -14   17.67    1.13
   3   1 -14   18.58    3.80
  -3  -1  14   19.13    1.16
  -3  -1  14   18.06    1.26
  -3  -1  14   20.28    3.90
   2   1 -14    7.35    0.86
   2   1 -14    7.33    2.51
   2   1 -14    7.53    1.01
  -2  -1  14    7.44    0.86
  -2  -1  14    5.61    0.93
  -2  -1  14    9.37    2.62
   1   1 -14   17.52    3.91
   1   1 -14   10.51    0.79
   1   1 -14   11.13    1.24
  -1  -1  14   10.65    0.82
  -1  -1  14   17.46    3.80
  -1  -1  14   11.26    1.43
   0   1 -14   -0.20    0.30
   0   1 -14    0.14    0.25
   0   1 -14    0.08    0.59
   0  -1  14    0.27    0.66
   0  -1  14    0.00    0.22
   0  -1  14    0.09    0.29
  -1   1 -14   11.35    3.30
  -1   1 -14    7.95    0.76
  -1   1 -14    8.29    1.13
   1  -1  14    7.34    0.71
   1  -1  14    9.60    2.88
  -2   1 -14    0.51    0.44
   2  -1  14    1.70    1.33
   2  -1  14   -0.16    0.21
   2  -1  14   -0.16    0.22
   2  -1  14    0.26    0.73
   2  -1  14    0.33    0.45
  -3   1 -14    4.06    0.88
   3  -1  14    8.69    3.11
   3  -1  14    7.30    2.61
   3  -1  14    4.03    0.50
  -4   1 -14   10.88    1.32
   4  -1  14   11.47    0.68
   4  -1  14   14.00    3.90
  -5   1 -14    5.01    0.98
   5  -1  14    5.82    0.62
   5  -1  14    3.55    0.67
   5  -1  14    3.44    2.09
   5  -1  14    9.41    3.37
  -6   1 -14    0.53    0.59
   6  -1  14    0.94    1.73
   6  -1  14    0.63    0.38
   9   0 -14    8.32    3.61
   8   0 -14   21.59    1.26
   8   0 -14   29.94    6.13
   8   0 -14   21.62    1.31
   8   0 -14   28.40    3.54
   7   0 -14    1.29    0.74
   7   0 -14    2.77    0.62
   7   0 -14    0.66    1.19
   7   0 -14    3.02    0.63
   6   0 -14   21.63    1.28
   6   0 -14   19.08    1.41
   6   0 -14   18.24    4.15
  -6   0  14   16.95    1.22
   5   0 -14   52.61    7.08
   5   0 -14   47.10    1.95
   5   0 -14   42.83    2.01
  -5   0  14   51.53    6.98
  -5   0  14   45.41    1.95
   4   0 -14    0.64    0.41
   4   0 -14    1.26    0.44
   4   0 -14    0.10    0.50
  -4   0  14    1.20    0.45
  -4   0  14    0.24    0.33
  -4   0  14    0.98    1.20
   3   0 -14    3.94    0.73
   3   0 -14    1.94    1.48
   3   0 -14    5.92    0.83
  -3   0  14    4.28    0.81
  -3   0  14    4.06    0.70
  -3   0  14    5.63    2.06
   2   0 -14    0.69    0.37
   2   0 -14    2.22    1.42
   2   0 -14    1.41    0.49
  -2   0  14    1.63    1.21
  -2   0  14    0.46    0.41
  -2   0  14    1.71    0.47
   1   0 -14    4.18    0.63
   1   0 -14    4.24    0.76
   1   0 -14    2.71    1.48
  -1   0  14    4.95    0.69
  -1   0  14    3.81    1.85
  -1   0  14    2.24    0.61
   0   0 -14   21.70    1.76
   0   0 -14   19.26    4.07
   0   0 -14   23.11    1.12
   0   0  14   20.40    1.06
   0   0  14   26.73    4.58
   0   0  14   20.63    1.37
  -1   0 -14   32.93    1.71
  -1   0 -14   31.85    1.31
   1   0  14   33.61    5.19
   1   0  14   29.81    1.27
  -2   0 -14   60.20    2.44
   2   0  14   62.92    1.88
   2   0  14   57.05    1.93
   2   0  14   70.16    8.98
   2   0  14   54.52    7.98
  -3   0 -14   10.96    1.29
   3   0  14   13.05    3.58
   3   0  14   11.16    0.80
   3   0  14   10.83    3.38
   3   0  14    9.26    0.88
  -4   0 -14    6.17    1.04
   4   0  14    9.43    3.02
   4   0  14    8.06    0.84
   4   0  14    6.42    0.73
  -5   0 -14   10.82    1.83
   5   0  14   14.57    0.95
   5   0  14   16.12    4.48
   5   0  14   13.97    0.99
   6   0  14    3.48    2.10
   6   0  14    2.31    0.59
   9  -1 -14    5.18    2.66
   8  -1 -14    3.99    0.63
   8  -1 -14    3.87    0.65
   8  -1 -14    9.23    3.51
   8  -1 -14    3.32    0.84
   7  -1 -14    0.88    0.43
   7  -1 -14    0.31    0.84
   7  -1 -14    0.02    0.33
   6  -1 -14    2.28    0.56
   6  -1 -14    3.12    1.93
   6  -1 -14    2.06    0.65
  -6   1  14    2.45    0.57
   5  -1 -14    3.81    0.72
   5  -1 -14    3.71    0.78
   5  -1 -14    5.50    2.45
  -5   1  14    3.70    0.70
   4  -1 -14   31.67    1.53
   4  -1 -14   33.05    1.64
   4  -1 -14   34.73    5.24
  -4   1  14   29.91    1.57
  -4   1  14   33.18    1.60
  -4   1  14   42.20    5.80
   3  -1 -14   14.94    1.08
   3  -1 -14   14.59    1.04
   3  -1 -14   18.11    3.89
  -3   1  14   12.35    3.17
  -3   1  14   13.87    1.06
   2  -1 -14   13.36    0.95
   2  -1 -14   12.19    1.01
   2  -1 -14   16.76    3.78
  -2   1  14   10.30    1.03
  -2   1  14   10.97    2.78
  -2   1  14   12.52    1.29
   1  -1 -14  112.65    7.21
   1  -1 -14  108.63    3.03
   1  -1 -14  113.88    3.36
  -1   1  14  114.50    7.00
  -1   1  14  109.49    3.02
   0  -1 -14   43.75    1.97
   0  -1 -14   44.29    1.71
   0  -1 -14   49.56    6.59
   0   1  14   51.73    6.28
   0   1  14   44.47    2.06
   0   1  14   44.55    1.69
  -1  -1 -14    3.01    0.56
  -1  -1 -14    2.53    0.68
   1   1  14    2.36    1.54
   1   1  14    2.54    1.56
   1   1  14    2.56    0.53
  -2  -1 -14   41.83    2.09
   2   1  14   44.68    1.70
   2   1  14   46.94    1.83
   2   1  14   56.70    7.43
  -3  -1 -14    2.59    0.74
   3   1  14    0.65    1.10
   3   1  14    0.68    0.39
   3   1  14    1.31    0.47
  -4  -1 -14    0.61    0.55
   4   1  14    5.56    2.89
   4   1  14    1.11    0.48
   4   1  14    0.89    0.48
  -5  -1 -14    0.31    0.54
   5   1  14    0.38    0.51
   5   1  14   -0.26    0.78
   5   1  14    0.55    0.45
   6   1  14    0.80    1.46
   6   1  14    1.57    0.64
   9  -2 -14    6.90    3.14
   8  -2 -14    5.01    1.02
   8  -2 -14    8.03    3.23
   8  -2 -14    3.50    0.71
   8  -2 -14    4.14    0.53
   7  -2 -14    1.97    0.68
   7  -2 -14    1.42    0.43
   7  -2 -14    1.87    1.33
  -7   2  14    0.45    0.38
   6  -2 -14    1.44    1.26
   6  -2 -14    0.76    0.41
   6  -2 -14    0.42    0.44
  -6   2  14    0.45    0.35
   5  -2 -14    0.58    0.45
   5  -2 -14    0.41    0.37
   5  -2 -14   -0.11    0.54
  -5   2  14    0.36    0.37
   4  -2 -14   16.20    1.10
   4  -2 -14   13.88    1.11
   4  -2 -14   17.23    3.63
  -4   2  14   19.48    1.24
  -4   2  14   16.41    1.14
   3  -2 -14   27.39    1.42
   3  -2 -14   32.87    5.14
   3  -2 -14   28.03    2.18
  -3   2  14   26.87    1.45
  -3   2  14   26.59    1.43
   2  -2 -14    8.65    1.07
   2  -2 -14    8.02    0.97
   2  -2 -14    6.21    2.10
  -2   2  14    8.13    1.06
   1  -2 -14    5.31    0.79
   1  -2 -14    3.62    1.84
  -1   2  14    3.94    0.77
  -1   2  14    4.61    0.72
   0  -2 -14    8.15    0.96
   0  -2 -14    7.64    1.03
   0   2  14    9.13    1.23
   0   2  14    8.87    0.99
  -1  -2 -14    0.10    0.39
   1   2  14    0.70    0.44
   1   2  14   -0.16    0.51
   1   2  14    1.24    0.46
  -2  -2 -14    3.29    0.85
   2   2  14    2.13    0.59
   2   2  14    2.70    0.64
   2   2  14    1.58    1.37
  -3  -2 -14    1.91    0.74
   3   2  14    2.36    0.63
   3   2  14    2.86    0.68
   3   2  14    7.47    2.92
  -4  -2 -14    2.12    0.76
   4   2  14    1.48    0.59
   5   2  14    0.10    1.09
   5   2  14    0.16    0.48
   9  -3 -14    0.94    1.82
   8  -3 -14    8.64    2.94
   8  -3 -14    7.47    1.18
   7  -3 -14    3.12    2.76
   6  -3 -14   17.85    4.01
   6  -3 -14   15.67    1.58
   6  -3 -14   16.18    0.99
  -6   3  14   15.84    1.06
   5  -3 -14   46.09    6.19
   5  -3 -14   43.36    1.71
   5  -3 -14   43.91    2.04
  -5   3  14   40.67    1.75
   4  -3 -14   12.50    0.98
   4  -3 -14   13.11    3.14
   4  -3 -14   13.23    1.32
  -4   3  14   13.33    1.05
   3  -3 -14   10.24    1.11
   3  -3 -14   11.37    3.06
   3  -3 -14    9.32    1.06
  -3   3  14   11.25    1.21
  -3   3  14    9.42    1.13
   2  -3 -14   38.22    1.79
   2  -3 -14   40.16    5.34
   2  -3 -14   44.81    2.42
  -2   3  14   38.40    1.88
  -2   3  14   42.41    1.84
   1  -3 -14    6.00    0.87
   1  -3 -14    6.82    1.01
   1  -3 -14    8.20    2.51
  -1   3  14    7.10    1.06
  -1   3  14    6.87    0.90
   0  -3 -14    2.12    0.66
   0  -3 -14    1.27    0.53
   0   3  14    2.00    0.57
   0   3  14    2.36    1.38
  -1  -3 -14   -0.77    0.30
   1   3  14    0.01    0.69
   1   3  14    0.16    0.41
   1   3  14    0.02    0.33
  -2  -3 -14   -0.37    0.33
   2   3  14    1.06    1.35
   2   3  14    1.07    0.53
  -3  -3 -14    1.10    0.61
   3   3  14    1.15    1.25
   3   3  14    1.63    0.62
   4   3  14    2.22    1.96
   4   3  14   -0.08    0.46
   9  -4 -14   -0.25    0.90
   8  -4 -14   33.25    5.65
   7  -4 -14   12.62    3.20
   7  -4 -14   23.26    1.51
  -7   4  14   14.84    0.96
   6  -4 -14    2.55    0.70
   6  -4 -14    7.26    3.18
   6  -4 -14    4.37    0.68
  -6   4  14    3.14    0.61
   5  -4 -14   34.57    1.54
   5  -4 -14   31.95    1.78
   5  -4 -14   36.96    5.42
  -5   4  14   29.21    1.51
   4  -4 -14    6.98    2.26
   4  -4 -14    5.32    0.88
   4  -4 -14    7.28    0.94
  -4   4  14    8.51    1.08
   3  -4 -14    2.75    0.82
   3  -4 -14    2.33    0.61
   3  -4 -14    3.64    1.64
  -3   4  14    2.84    0.68
   2  -4 -14    2.27    1.34
   2  -4 -14    2.91    0.70
   2  -4 -14    1.26    0.53
  -2   4  14    1.77    0.62
   1  -4 -14    7.35    1.01
   1  -4 -14    5.17    0.93
   0  -4 -14   19.68    1.50
   0   4  14   18.07    3.88
   0   4  14   21.23    1.51
  -1  -4 -14   -0.15    0.43
   1   4  14    0.22    0.87
   1   4  14   -0.21    0.47
  -2  -4 -14   23.06    1.78
   2   4  14   18.97    4.34
   2   4  14   21.92    1.59
   3   4  14   18.88    4.76
   3   4  14   20.67    1.64
   4   4  14    0.58    0.64
   9  -5 -14    0.56    1.46
   8  -5 -14    1.76    1.69
   8  -5 -14    1.92    1.25
   7  -5 -14    5.70    1.12
   7  -5 -14    3.31    0.55
   7  -5 -14    3.92    1.95
   6  -5 -14   -0.02    0.40
   6  -5 -14   -0.17    0.30
   6  -5 -14    0.86    0.98
  -6   5  14   -0.02    0.36
   5  -5 -14    0.85    0.96
   5  -5 -14    0.21    0.37
   5  -5 -14    0.20    0.39
  -5   5  14   -0.08    0.35
   4  -5 -14    5.07    0.95
   4  -5 -14    6.86    2.19
   4  -5 -14    5.88    1.08
  -4   5  14    5.68    0.91
   3  -5 -14    8.64    1.14
   3  -5 -14   11.21    2.93
   3  -5 -14   10.45    1.19
  -3   5  14    9.25    1.23
   2  -5 -14    1.81    0.68
   2  -5 -14    1.46    0.62
   1  -5 -14   17.81    1.48
  -1   5  14   19.48    1.54
  -1   5  14   15.87    3.70
   0  -5 -14    9.68    1.31
   0   5  14   12.55    1.47
   0   5  14   13.35    3.50
  -1  -5 -14    3.82    0.96
   1   5  14    0.83    1.09
   1   5  14    2.36    0.77
   2   5  14    1.25    0.69
   9  -6 -14    5.60    2.53
   8  -6 -14   -0.31    0.73
   7  -6 -14    0.19    0.50
   7  -6 -14    1.07    1.35
   7  -6 -14    0.87    0.39
  -7   6  14    0.25    0.39
   6  -6 -14   -0.03    0.35
   6  -6 -14    0.39    0.89
   6  -6 -14   -0.07    0.47
  -6   6  14    0.24    0.43
   5  -6 -14    0.42    0.51
   5  -6 -14    3.30    1.61
   5  -6 -14    1.00    0.63
  -5   6  14    0.34    0.49
   4  -6 -14   -0.37    0.49
   4  -6 -14    1.83    1.19
   4  -6 -14   -0.25    0.40
   3  -6 -14    2.68    0.79
   3  -6 -14    4.70    0.98
   2  -6 -14   11.49    1.34
  -2   6  14    6.51    3.66
   1  -6 -14    4.43    1.14
  -1   6  14    5.11    1.03
  -1   6  14    0.94    1.13
   0  -6 -14    0.02    0.56
   0   6  14    0.97    0.71
   8  -7 -14    2.40    1.73
   7  -7 -14    3.71    1.73
   7  -7 -14    3.92    0.65
   6  -7 -14    0.20    0.45
   6  -7 -14    1.34    1.37
  -6   7  14    0.37    0.66
   5  -7 -14   16.21    1.33
   5  -7 -14   10.54    2.71
   5  -7 -14   14.04    1.64
   4  -7 -14   20.43    1.58
   3  -7 -14   -0.19    0.46
   3  -7 -14    1.05    0.70
   2  -7 -14   10.94    1.45
  -2   7  14    7.05    1.55
   1  -7 -14    3.31    1.05
   6  -8 -14    1.97    0.72
   6  -8 -14    2.18    1.59
   5  -8 -14    5.15    1.02
   4  -8 -14    4.31    1.03
   3  -8 -14    0.10    0.61
  -1   9 -15    0.88    0.72
   1  -9  15    0.40    1.01
   2  -9  15    3.37    1.79
   2  -9  15    1.47    1.34
   3  -9  15    0.74    1.02
   3  -9  15    0.23    0.90
   2   8 -15    3.85    0.93
   1   8 -15    0.68    0.46
  -1  -8  15    0.05    0.91
   0   8 -15    1.92    0.57
   0  -8  15    3.88    2.15
  -1   8 -15    3.21    0.63
   1  -8  15    6.45    2.54
  -2   8 -15    0.05    0.25
   2  -8  15   -0.19    1.36
   3  -8  15    1.36    1.31
   4  -8  15    0.18    1.37
   5  -8  15    1.34    1.35
   3   7 -15    3.64    0.95
   2   7 -15   11.15    1.27
   1   7 -15   -0.31    0.30
   1   7 -15   -0.31    0.39
  -1  -7  15    0.25    1.01
   0   7 -15    0.61    0.39
   0   7 -15    0.25    0.47
   0   7 -15    1.65    1.98
   0  -7  15    0.81    0.94
  -1   7 -15   -0.13    0.75
  -1   7 -15    0.09    0.29
  -1   7 -15   -0.42    0.42
   1  -7  15    0.02    0.31
   1  -7  15    0.09    0.80
  -2   7 -15    6.15    0.47
  -2   7 -15    7.16    0.57
  -2   7 -15    7.17    1.29
   2  -7  15    5.71    2.09
  -3   7 -15    4.35    1.02
   3  -7  15    4.05    2.02
   3  -7  15    8.34    2.91
  -4   7 -15    4.53    1.05
   4  -7  15    2.26    1.60
   4  -7  15    6.65    2.43
  -5   7 -15   15.90    1.91
   5  -7  15   16.15    3.91
   6  -7  15    5.29    2.63
   4   6 -15    0.23    0.41
   3   6 -15    0.54    0.53
   3   6 -15    0.13    0.36
   3   6 -15    1.18    1.66
  -3  -6  15    0.79    1.44
   2   6 -15    2.39    1.94
   2   6 -15    0.39    0.40
   2   6 -15    0.68    0.61
  -2  -6  15    0.36    1.06
   1   6 -15   12.57    3.26
   1   6 -15   15.04    1.08
   1   6 -15   16.26    1.91
  -1  -6  15   24.01    6.61
  -1  -6  15   16.37    1.52
   0   6 -15   13.67    1.63
   0   6 -15   11.03    0.85
   0   6 -15    9.22    2.80
   0  -6  15    9.90    1.03
   0  -6  15   12.97    4.04
  -1   6 -15    2.31    0.83
  -1   6 -15    3.95    0.54
  -1   6 -15    3.61    1.96
   1  -6  15    4.07    0.60
   1  -6  15    2.53    1.53
  -2   6 -15   43.20    2.36
   2  -6  15   54.46    6.46
  -3   6 -15   14.84    1.66
   3  -6  15   14.20    3.52
   3  -6  15   18.95    3.77
  -4   6 -15   -0.32    0.40
   4  -6  15    1.26    1.97
   4  -6  15    0.01    0.81
  -5   6 -15    8.73    1.37
   5  -6  15    7.36    4.23
   5  -6  15    9.15    3.04
  -6   6 -15    2.36    0.82
   6  -6  15    0.46    1.21
   5   5 -15    1.48    0.63
   5   5 -15    1.01    0.68
   4   5 -15    2.61    1.53
   4   5 -15    2.83    0.79
  -4  -5  15    0.05    0.88
   3   5 -15    4.51    1.00
   3   5 -15    6.46    1.03
   3   5 -15    4.44    2.45
  -3  -5  15    4.84    2.29
   2   5 -15    0.05    0.38
   2   5 -15    0.36    0.75
   2   5 -15   -0.13    0.26
  -2  -5  15    0.94    0.85
  -2  -5  15    0.08    0.36
   1   5 -15    8.25    1.24
   1   5 -15    6.04    2.31
   1   5 -15    8.08    0.94
  -1  -5  15    0.78    0.96
  -1  -5  15    4.78    0.79
   0   5 -15   16.46    1.69
   0   5 -15   18.17    0.99
   0   5 -15   19.61    4.03
   0  -5  15   20.52    1.13
  -1   5 -15    2.50    1.48
  -1   5 -15    7.00    0.57
  -1   5 -15    5.04    1.02
   1  -5  15    7.93    0.74
  -2   5 -15    0.73    0.59
  -3   5 -15    0.80    0.59
   3  -5  15    0.72    1.00
  -4   5 -15    1.86    0.74
   4  -5  15    1.55    1.40
   4  -5  15    0.11    0.81
  -5   5 -15    2.85    0.87
   5  -5  15    1.83    1.61
   5  -5  15   -0.06    0.95
  -6   5 -15    4.31    1.01
   6  -5  15    6.31    2.56
   6   4 -15    2.36    2.23
   5   4 -15    2.45    0.73
   5   4 -15    2.53    0.86
   5   4 -15    0.62    1.20
  -5  -4  15    0.72    1.35
   4   4 -15    1.94    2.07
   4   4 -15    2.96    0.85
   4   4 -15    3.73    0.82
  -4  -4  15    4.64    2.69
   3   4 -15    9.37    1.35
   3   4 -15    6.73    0.97
   3   4 -15    7.25    2.67
  -3  -4  15   11.98    3.64
   2   4 -15   44.26    2.13
   2   4 -15   51.74    6.79
   2   4 -15   50.50    2.38
  -2  -4  15   47.56    2.01
  -2  -4  15   52.45    5.01
   1   4 -15   21.95    1.58
   1   4 -15   23.35    1.19
   1   4 -15   16.70    3.65
  -1  -4  15   20.57    4.01
  -1  -4  15   19.94    1.18
   0   4 -15    3.27    0.56
   0   4 -15    6.06    2.85
   0   4 -15    2.09    0.65
   0  -4  15    3.15    1.59
   0  -4  15    3.68    0.60
  -1   4 -15   20.36    5.02
  -1   4 -15   31.72    1.87
   1  -4  15   26.74    1.08
   1  -4  15   36.63    5.55
  -2   4 -15    8.63    1.24
   2  -4  15   11.17    3.09
  -3   4 -15   -0.36    0.35
   3  -4  15    0.07    0.73
   3  -4  15   -0.01    0.54
  -4   4 -15    0.59    0.52
   4  -4  15   -0.31    0.56
   4  -4  15    1.40    1.37
  -5   4 -15   -0.01    0.51
   5  -4  15    0.58    1.70
   5  -4  15    2.23    1.46
  -6   4 -15    1.73    0.72
   6  -4  15    2.20    1.96
   7   3 -15    3.02    1.66
   7   3 -15    6.08    1.14
   6   3 -15    0.89    0.56
   6   3 -15    0.47    0.98
   6   3 -15    0.72    0.53
   5   3 -15   43.61    7.13
   5   3 -15   41.78    2.10
   5   3 -15   42.86    2.18
  -5  -3  15   37.15    6.30
   4   3 -15   38.58    1.91
   4   3 -15   42.58    2.13
   4   3 -15   39.72    5.99
  -4  -3  15   45.55    6.69
   3   3 -15    2.56    1.65
   3   3 -15    1.04    0.53
   3   3 -15    0.90    0.43
  -3  -3  15    1.30    1.08
  -3  -3  15    1.84    0.57
   2   3 -15   23.52    4.49
   2   3 -15   24.21    1.29
   2   3 -15   24.88    1.62
  -2  -3  15   23.79    1.32
  -2  -3  15   36.42    5.53
   1   3 -15   10.73    0.81
   1   3 -15    9.57    1.21
   1   3 -15    9.02    2.73
  -1  -3  15   10.44    0.85
  -1  -3  15   12.97    3.85
   0   3 -15    1.07    0.35
   0   3 -15   -0.10    0.49
   0   3 -15    0.22    0.38
   0  -3  15    3.36    1.64
   0  -3  15    1.01    0.34
  -1   3 -15    1.98    0.43
  -1   3 -15    2.79    0.81
  -1   3 -15    0.55    0.70
   1  -3  15    1.68    1.44
   1  -3  15    1.55    0.37
  -2   3 -15   10.41    1.34
   2  -3  15    9.14    0.49
  -3   3 -15   22.75    1.58
   3  -3  15   24.48    4.65
   3  -3  15   24.99    4.81
  -4   3 -15    0.41    0.50
   4  -3  15   -0.21    0.56
   4  -3  15   -0.54    0.85
  -5   3 -15   18.51    1.52
   5  -3  15   22.17    5.01
   5  -3  15   20.21    4.51
  -6   3 -15   21.00    1.67
   6  -3  15   21.38    4.95
   8   2 -15    7.65    3.31
   8   2 -15    7.50    1.20
   7   2 -15   10.26    3.54
   7   2 -15   18.03    1.78
   6   2 -15    0.47    1.03
   6   2 -15    1.13    0.59
  -6  -2  15   -0.29    1.01
   5   2 -15    0.32    0.73
   5   2 -15    0.54    0.49
   5   2 -15    0.33    0.52
  -5  -2  15    0.93    1.27
   4   2 -15    4.35    0.87
   4   2 -15    4.04    0.78
   4   2 -15    3.81    1.84
  -4  -2  15    6.21    1.07
  -4  -2  15    4.72    2.22
   3   2 -15   -0.34    0.47
   3   2 -15    0.40    0.39
   3   2 -15   -0.18    0.26
  -3  -2  15   -0.18    0.61
  -3  -2  15   -0.17    0.31
  -3  -2  15    0.61    0.35
   2   2 -15    3.75    2.15
   2   2 -15    2.25    0.53
   2   2 -15    1.84    0.66
  -2  -2  15    2.14    0.57
  -2  -2  15    2.56    0.69
  -2  -2  15    0.45    0.95
   1   2 -15    2.14    1.45
   1   2 -15    3.69    0.60
   1   2 -15    3.39    0.80
  -1  -2  15    1.84    0.46
  -1  -2  15    1.82    0.61
  -1  -2  15    2.79    1.68
   0   2 -15   25.07    4.72
   0   2 -15   23.56    1.09
   0   2 -15   23.37    1.52
   0  -2  15   23.66    1.09
   0  -2  15   29.71    4.84
  -1   2 -15    7.60    0.71
  -1   2 -15    5.99    2.21
  -1   2 -15    6.73    1.04
   1  -2  15    5.91    2.12
   1  -2  15    6.77    0.68
  -2   2 -15   18.97    1.42
   2  -2  15   21.94    4.42
   2  -2  15   25.03    4.72
   2  -2  15   19.20    0.81
  -3   2 -15   35.23    1.95
   3  -2  15   38.72    1.08
   3  -2  15   38.11    5.48
   3  -2  15   43.30    6.37
   3  -2  15   35.99    1.02
  -4   2 -15    6.04    1.14
   4  -2  15    5.27    2.63
   4  -2  15    6.02    2.56
  -5   2 -15    0.84    0.64
   5  -2  15    1.71    1.58
  -6   2 -15    1.41    0.72
   6  -2  15    2.81    2.07
   8   1 -15    4.60    2.47
   8   1 -15    9.64    1.25
   7   1 -15    0.42    0.44
   7   1 -15   -0.08    0.44
   7   1 -15    2.30    1.77
   7   1 -15    0.22    0.43
   6   1 -15   16.99    4.43
   6   1 -15    9.49    1.17
   6   1 -15   10.72    1.33
  -6  -1  15   11.05    1.36
   5   1 -15    5.98    0.92
   5   1 -15    6.25    2.44
  -5  -1  15    5.09    2.67
  -5  -1  15    6.87    1.04
   4   1 -15    1.05    0.49
   4   1 -15    0.63    0.83
   4   1 -15    2.42    0.79
  -4  -1  15    1.06    0.64
  -4  -1  15    0.77    1.35
  -4  -1  15    0.56    0.46
   3   1 -15    0.47    0.49
   3   1 -15    0.32    0.32
   3   1 -15    0.16    0.72
  -3  -1  15    0.25    0.41
  -3  -1  15   -0.09    0.27
  -3  -1  15    0.48    0.86
   2   1 -15    8.47    2.87
   2   1 -15   11.03    1.10
  -2  -1  15    8.93    1.18
  -2  -1  15   10.87    3.03
  -2  -1  15   10.35    1.07
   1   1 -15    0.89    0.49
   1   1 -15    1.44    1.09
   1   1 -15    0.79    0.37
  -1  -1  15    0.45    0.40
  -1  -1  15    1.33    1.20
  -1  -1  15    0.77    0.36
   0   1 -15    6.60    2.37
   0   1 -15    9.11    1.15
   0   1 -15    8.28    0.85
   0  -1  15    9.72    2.86
   0  -1  15    8.69    0.82
   0  -1  15    7.15    1.02
  -1   1 -15   15.75    0.89
  -1   1 -15   17.54    3.94
  -1   1 -15   16.05    1.29
   1  -1  15   17.61    0.91
   1  -1  15   16.33    3.93
  -2   1 -15   18.62    1.40
   2  -1  15   18.24    1.02
   2  -1  15   19.55    4.08
   2  -1  15   18.39    0.95
   2  -1  15   16.68    3.77
  -3   1 -15    0.66    0.55
   3  -1  15    0.83    0.34
   3  -1  15    1.22    1.07
   3  -1  15    1.52    1.61
   3  -1  15    0.71    0.37
  -4   1 -15    5.77    1.02
   4  -1  15    3.49    1.94
   4  -1  15    4.97    0.74
   4  -1  15    4.38    0.55
   4  -1  15    7.45    2.98
  -5   1 -15    1.34    0.67
   5  -1  15    2.83    0.52
   5  -1  15    7.65    3.30
   6  -1  15   -0.13    1.01
   8   0 -15    7.08    3.20
   8   0 -15    2.29    0.61
   8   0 -15    3.01    0.70
   7   0 -15    0.14    0.42
   7   0 -15    1.81    1.56
   7   0 -15    0.18    0.36
   7   0 -15    0.04    0.38
   6   0 -15    0.07    0.40
   6   0 -15    0.70    1.05
   6   0 -15   -0.19    0.31
  -6   0  15   -0.03    0.39
   5   0 -15    7.76    2.60
   5   0 -15    6.35    0.93
   5   0 -15    8.07    1.12
  -5   0  15    6.51    1.00
   4   0 -15   23.96    1.40
   4   0 -15   16.48    3.79
   4   0 -15   19.49    1.28
  -4   0  15   19.33    1.27
  -4   0  15   27.64    4.94
  -4   0  15   17.83    1.28
   3   0 -15    3.42    0.78
   3   0 -15    4.45    0.83
   3   0 -15    6.45    2.46
  -3   0  15    4.55    0.76
  -3   0  15    2.88    0.80
  -3   0  15    6.46    2.68
   2   0 -15   35.72    1.78
   2   0 -15   34.19    1.54
  -2   0  15   34.06    1.79
  -2   0  15   34.85    1.54
  -2   0  15   39.85    6.62
   1   0 -15  172.52    4.67
   1   0 -15  175.37    4.18
  -1   0  15  177.06    4.18
  -1   0  15  168.42    4.65
  -1   0  15  179.66    9.32
   0   0 -15    0.94    0.51
   0   0 -15    0.79    0.33
   0   0  15    0.80    0.47
   0   0  15    3.82    2.30
   0   0  15    1.24    0.42
  -1   0 -15   31.04    1.35
  -1   0 -15   31.47    1.76
   1   0  15   31.11    1.33
   1   0  15   39.17    5.85
  -2   0 -15   26.45    1.66
   2   0  15   24.95    1.25
   2   0  15   20.49    4.40
   2   0  15   24.79    1.17
   2   0  15   22.67    4.62
  -3   0 -15    0.01    0.40
   3   0  15    0.20    0.32
   3   0  15    1.21    1.10
   3   0  15   -0.03    0.33
  -4   0 -15    0.14    0.54
   4   0  15    1.69    0.49
   4   0  15    2.34    1.91
   4   0  15    1.01    0.43
  -5   0 -15    0.34    0.56
   5   0  15   -0.28    0.87
   5   0  15    0.13    0.35
   5   0  15    0.52    0.38
   9  -1 -15   -0.10    0.96
   8  -1 -15    2.27    1.93
   8  -1 -15    2.95    0.62
   8  -1 -15    2.70    0.58
   7  -1 -15   13.04    1.01
   7  -1 -15   11.79    1.79
   7  -1 -15   12.71    3.63
  -7   1  15   10.81    1.13
   6  -1 -15    7.83    2.76
   6  -1 -15    3.07    0.76
   6  -1 -15    6.60    0.90
  -6   1  15    5.85    0.90
   5  -1 -15   20.15    4.22
   5  -1 -15   13.94    1.46
   5  -1 -15   16.68    1.15
  -5   1  15   13.15    1.09
   4  -1 -15   71.15    2.57
   4  -1 -15   67.74    5.91
   4  -1 -15   74.57    2.53
  -4   1  15   68.72    2.52
  -4   1  15   71.52    3.14
   3  -1 -15   14.11    1.12
   3  -1 -15   13.28    1.05
   3  -1 -15   16.61    3.68
  -3   1  15   13.32    1.04
  -3   1  15   17.45    4.21
  -3   1  15   14.30    1.14
   2  -1 -15   17.64    1.13
   2  -1 -15   18.62    3.82
   2  -1 -15   16.30    1.23
  -2   1  15   16.26    1.22
  -2   1  15   15.33    1.20
  -2   1  15   21.89    4.32
   1  -1 -15    9.29    1.13
   1  -1 -15    8.17    2.77
   1  -1 -15    8.35    0.94
  -1   1  15    9.86    1.04
  -1   1  15    7.06    1.10
  -1   1  15    9.46    2.85
   0  -1 -15   -0.29    0.29
   0  -1 -15    0.06    0.37
   0  -1 -15    0.56    1.11
   0   1  15   -0.20    0.28
   0   1  15   -0.23    0.88
  -1  -1 -15    3.17    0.81
   1   1  15    3.32    1.93
   1   1  15    3.52    0.62
  -2  -1 -15    3.87    0.88
   2   1  15    5.32    2.44
   2   1  15    1.75    0.53
   2   1  15    2.91    0.61
  -3  -1 -15   16.21    1.71
   3   1  15   16.14    1.13
   3   1  15   15.93    1.07
   3   1  15   13.06    3.70
  -4  -1 -15    4.95    1.00
   4   1  15    6.96    0.89
   4   1  15    3.30    1.98
   4   1  15    4.75    0.78
   5   1  15    2.61    2.10
   5   1  15    2.25    0.82
   5   1  15    1.71    0.56
   9  -2 -15    6.67    3.28
   8  -2 -15    0.52    0.66
   8  -2 -15    0.08    0.31
   8  -2 -15   -0.09    0.73
   7  -2 -15    8.18    0.87
   7  -2 -15    9.61    3.58
   7  -2 -15    5.82    1.37
  -7   2  15    5.82    0.77
   6  -2 -15   15.10    1.03
   6  -2 -15   13.97    1.41
   6  -2 -15   19.11    4.35
  -6   2  15   13.22    1.05
   5  -2 -15   10.48    2.98
   5  -2 -15   11.19    1.14
   5  -2 -15   10.47    1.24
  -5   2  15    8.89    1.09
   4  -2 -15    0.33    0.40
   4  -2 -15    0.00    0.53
   4  -2 -15   -0.01    0.40
  -4   2  15   -0.06    0.38
   3  -2 -15   13.37    1.07
   3  -2 -15    9.56    1.06
   3  -2 -15    9.74    2.86
  -3   2  15   12.49    1.31
  -3   2  15   11.68    1.84
   2  -2 -15    6.14    2.53
   2  -2 -15    3.64    0.79
   2  -2 -15    1.62    0.50
  -2   2  15    2.64    0.66
  -2   2  15    3.09    0.64
   1  -2 -15    3.23    0.99
   1  -2 -15    1.74    1.31
   1  -2 -15    2.89    0.68
  -1   2  15    3.22    0.65
  -1   2  15    4.29    0.86
   0  -2 -15    1.19    0.55
   0  -2 -15    0.77    0.56
   0   2  15    2.01    0.53
  -1  -2 -15    1.76    0.63
   1   2  15    1.71    0.71
   1   2  15    0.77    1.19
   1   2  15    1.08    0.47
  -2  -2 -15    0.11    0.41
   2   2  15    0.38    0.86
   2   2  15    0.75    0.50
   2   2  15    0.20    0.35
  -3  -2 -15    1.97    0.78
   3   2  15    2.51    1.90
   3   2  15    3.42    0.75
   3   2  15    2.26    0.81
   4   2  15    2.93    0.73
   4   2  15    3.31    2.32
   5   2  15   -0.31    1.03
   5   2  15   -0.05    0.51
   9  -3 -15   10.87    3.73
   8  -3 -15   16.89    4.23
   8  -3 -15   12.72    1.90
   8  -3 -15    8.72    0.61
   7  -3 -15    5.75    2.36
   7  -3 -15    3.66    0.59
   7  -3 -15    3.81    0.90
  -7   3  15    3.33    0.62
   6  -3 -15    7.38    0.87
   6  -3 -15    5.77    0.94
   6  -3 -15   10.07    3.07
  -6   3  15    5.27    0.78
   5  -3 -15   18.86    1.19
   5  -3 -15   23.32    4.67
   5  -3 -15   21.64    1.47
  -5   3  15   20.06    1.30
   4  -3 -15   -0.13    0.52
   4  -3 -15    0.34    0.40
   4  -3 -15    0.53    0.37
  -4   3  15   -0.05    0.37
   3  -3 -15    4.10    0.75
   3  -3 -15    5.14    2.16
  -3   3  15    3.96    0.80
   2  -3 -15    1.94    0.61
   2  -3 -15    2.54    0.70
   2  -3 -15    3.90    2.04
  -2   3  15    2.99    0.77
   1  -3 -15   22.69    1.48
   1  -3 -15   19.96    1.30
   1  -3 -15   28.60    4.82
  -1   3  15   18.91    2.03
   0  -3 -15    0.34    0.38
   0  -3 -15    0.01    0.42
   0   3  15   -0.14    0.65
  -1  -3 -15    1.38    0.67
   1   3  15    2.14    0.68
   1   3  15    3.27    1.95
  -2  -3 -15   15.96    1.76
   2   3  15   23.68    1.57
   2   3  15   24.56    5.14
  -3  -3 -15    4.38    1.06
   3   3  15    3.71    0.80
   3   3  15    6.95    2.94
   4   3  15    0.39    0.59
   9  -4 -15    0.43    1.11
   8  -4 -15   10.33    3.28
   7  -4 -15    0.15    0.33
   7  -4 -15    0.55    0.88
   7  -4 -15    0.69    0.52
  -7   4  15    0.07    0.35
   6  -4 -15    3.66    1.96
   6  -4 -15    2.97    0.61
   6  -4 -15    3.86    0.88
  -6   4  15    3.19    0.66
   5  -4 -15    0.25    0.39
   5  -4 -15    2.97    2.84
   5  -4 -15    2.42    0.78
  -5   4  15    1.90    0.60
   4  -4 -15   14.44    1.44
   4  -4 -15   18.25    3.72
   4  -4 -15   14.03    1.49
  -4   4  15   14.56    1.22
   3  -4 -15   17.68    3.76
   3  -4 -15   15.11    1.22
   3  -4 -15   17.25    1.33
  -3   4  15   15.36    1.28
   2  -4 -15    3.98    1.83
   2  -4 -15    5.53    0.97
   2  -4 -15    5.49    1.00
   1  -4 -15   21.99    1.60
   1  -4 -15   21.91    1.47
  -1   4  15   15.84    3.74
   0  -4 -15   45.00    2.29
   0   4  15   41.09    9.87
   0   4  15   44.34    2.24
  -1  -4 -15    1.06    0.63
   1   4  15    1.14    0.64
   1   4  15    0.02    0.92
  -2  -4 -15    7.54    1.26
   2   4  15    8.63    1.18
   2   4  15    7.99    3.35
   3   4  15    2.15    0.79
   9  -5 -15   -0.23    0.99
   8  -5 -15    2.54    1.85
   7  -5 -15    7.97    2.76
   7  -5 -15    3.79    0.93
   7  -5 -15    3.43    0.60
  -7   5  15    2.42    0.55
   6  -5 -15    2.37    0.78
   6  -5 -15    2.16    0.57
   6  -5 -15    3.93    2.12
  -6   5  15    2.30    0.59
   5  -5 -15    1.34    1.15
   5  -5 -15    0.67    0.48
   5  -5 -15    0.76    0.57
  -5   5  15    1.22    0.61
   4  -5 -15   15.00    1.56
   4  -5 -15   16.44    1.29
   4  -5 -15   20.25    4.06
  -4   5  15   13.14    1.41
   3  -5 -15   20.32    4.13
   3  -5 -15   14.76    1.58
   3  -5 -15   12.85    1.38
   2  -5 -15    2.88    0.76
   2  -5 -15    2.28    0.72
   1  -5 -15    5.59    1.11
  -1   5  15    3.08    1.56
  -1   5  15    2.50    0.76
   0  -5 -15    0.51    0.63
   0   5  15   -0.06    0.86
   0   5  15    0.66    0.60
  -1  -5 -15    0.51    1.08
   1   5  15    0.69    0.63
   2   5  15    0.58    0.66
   7  -6 -15    0.47    0.38
   7  -6 -15    1.59    1.38
   6  -6 -15    3.35    0.86
   6  -6 -15    3.43    1.70
   6  -6 -15    4.23    0.74
   5  -6 -15   14.14    1.38
   5  -6 -15    9.89    1.33
   5  -6 -15   13.14    3.50
  -5   6  15    8.93    1.20
   4  -6 -15   10.37    1.27
   4  -6 -15   12.48    3.32
   4  -6 -15    7.54    1.17
   3  -6 -15    1.69    0.66
   3  -6 -15    1.41    0.66
   2  -6 -15    6.02    1.12
  -2   6  15    3.38    2.68
  -2   6  15    7.54    1.23
   1  -6 -15    4.19    1.02
  -1   6  15    4.24    0.96
   0   6  15    0.59    0.78
   7  -7 -15    8.71    1.18
   7  -7 -15    8.34    3.18
   6  -7 -15    0.56    0.93
   6  -7 -15   -0.22    0.45
   5  -7 -15   13.15    3.12
   5  -7 -15   10.95    1.29
   4  -7 -15    1.21    0.67
   2  -7 -15    1.03    0.69
   5  -8 -15   -0.17    0.60
   4  -8 -15    0.88    0.83
   1   8 -16    1.05    0.54
   0   8 -16    0.16    0.36
   0  -8  16    0.01    0.92
  -1   8 -16    0.84    0.42
   1  -8  16   -0.07    0.79
   2  -8  16    1.45    1.73
   2  -8  16   -0.32    0.86
   3  -8  16   -0.19    1.03
   4  -8  16    5.83    2.34
   3   7 -16    0.02    0.41
   2   7 -16    0.94    0.48
   0   7 -16    1.34    0.48
   0   7 -16    0.71    0.59
   0  -7  16    0.71    1.28
  -1   7 -16    9.12    0.74
  -1   7 -16   10.45    1.55
   1  -7  16    7.18    0.83
   1  -7  16    9.39    2.96
  -2   7 -16   28.82    2.07
   2  -7  16   29.16    5.01
  -3   7 -16    7.18    1.35
   3  -7  16    5.72    2.21
  -4   7 -16    7.18    1.64
   4  -7  16    6.70    2.39
   5  -7  16    1.06    1.60
   4   6 -16    2.14    0.73
   3   6 -16    6.46    1.30
   3   6 -16    7.59    1.11
   2   6 -16    5.59    2.72
   2   6 -16    5.63    0.90
   2   6 -16    5.31    1.17
   1   6 -16   19.51    4.17
   1   6 -16   30.69    2.05
   1   6 -16   26.59    1.42
  -1  -6  16   35.44    5.67
  -1  -6  16   26.37    1.55
   0   6 -16   13.04    1.93
   0   6 -16   12.06    3.57
   0   6 -16   12.32    0.90
   0  -6  16   10.93    1.08
   0  -6  16   12.23    3.71
  -1   6 -16    1.07    0.38
  -1   6 -16    0.17    0.73
   1  -6  16    0.36    0.31
  -2   6 -16    3.09    1.19
  -3   6 -16    0.92    0.63
   3  -6  16    1.46    1.12
  -4   6 -16    0.62    0.59
   4  -6  16   -0.32    0.87
   4  -6  16    0.85    1.08
  -5   6 -16    1.66    0.78
   5  -6  16    2.67    2.00
   6  -6  16    2.97    2.00
   5   5 -16    0.80    0.66
   4   5 -16    2.67    0.87
   4   5 -16    4.69    2.73
   3   5 -16    7.30    3.04
   3   5 -16   13.76    1.46
  -3  -5  16   19.65    4.78
   2   5 -16    9.69    3.44
   2   5 -16    7.19    0.98
   2   5 -16    6.95    1.25
  -2  -5  16   10.86    3.39
   1   5 -16    1.32    1.44
   1   5 -16    0.93    0.39
   1   5 -16   -0.14    0.40
  -1  -5  16    0.74    0.44
  -1  -5  16    1.70    1.63
   0   5 -16    1.66    0.68
   0   5 -16    2.83    0.53
   0   5 -16    1.73    1.38
   0  -5  16    2.02    1.66
   0  -5  16    1.60    0.48
  -1   5 -16    0.73    0.53
  -1   5 -16    1.13    0.34
  -1   5 -16   -0.09    0.64
   1  -5  16    0.46    0.94
   1  -5  16    0.87    0.32
  -2   5 -16    1.06    0.60
   2  -5  16    0.94    1.25
  -3   5 -16    2.55    0.82
   3  -5  16    1.52    1.21
   3  -5  16    3.19    1.89
  -4   5 -16    3.11    1.39
   4  -5  16   -0.14    0.93
   4  -5  16    2.05    1.81
  -5   5 -16    0.84    0.65
   5  -5  16    1.23    1.36
   6  -5  16    0.85    1.23
   6   4 -16    3.34    0.93
   5   4 -16   31.39    5.81
   5   4 -16   37.47    2.48
   5   4 -16   38.00    2.07
   4   4 -16   11.64    4.09
   4   4 -16    9.56    1.24
   4   4 -16    7.37    1.22
  -4  -4  16    7.35    3.26
   3   4 -16    2.67    0.66
   3   4 -16    2.06    0.76
   3   4 -16    2.84    1.82
  -3  -4  16    0.15    1.24
   2   4 -16   21.75    4.81
   2   4 -16   26.43    1.76
   2   4 -16   23.33    1.33
  -2  -4  16   27.76    4.98
  -2  -4  16   20.83    1.34
   1   4 -16    1.98    0.48
   1   4 -16    1.60    1.43
   1   4 -16    4.26    1.04
  -1  -4  16    0.78    1.10
  -1  -4  16    2.27    0.57
   0   4 -16    0.12    0.27
   0   4 -16   -0.17    0.60
   0   4 -16    0.28    0.49
   0  -4  16    0.96    0.87
   0  -4  16    0.64    0.33
  -1   4 -16    0.09    0.22
  -1   4 -16   -0.45    0.35
  -1   4 -16   -0.23    0.58
   1  -4  16    0.58    0.29
   1  -4  16   -0.07    0.65
  -2   4 -16   10.64    1.40
   2  -4  16    8.04    2.83
  -3   4 -16    6.35    1.18
   3  -4  16    7.19    3.24
   3  -4  16    3.71    2.08
  -4   4 -16    2.65    0.86
   4  -4  16    6.12    2.71
   4  -4  16    2.22    1.94
  -5   4 -16   18.36    1.91
   5  -4  16   30.23    6.05
   6  -4  16   10.11    3.88
   7   3 -16    4.05    1.25
   7   3 -16    3.74    2.82
   6   3 -16    0.11    0.44
   6   3 -16    0.21    0.48
   6   3 -16    0.03    0.96
   5   3 -16    9.95    1.39
   5   3 -16    9.24    1.27
   5   3 -16    9.99    3.22
  -5  -3  16   13.60    4.04
   4   3 -16    0.61    0.57
   4   3 -16   -0.14    0.31
   4   3 -16    0.61    0.90
  -4  -3  16    0.02    0.96
   3   3 -16    5.95    1.08
   3   3 -16    4.58    0.79
   3   3 -16    6.57    2.85
  -3  -3  16    6.52    2.90
   2   3 -16    0.12    0.46
   2   3 -16   -0.06    0.31
   2   3 -16    0.45    0.67
  -2  -3  16    0.20    0.70
   1   3 -16   45.28    2.26
   1   3 -16   42.05    1.65
   1   3 -16   47.65    6.78
  -1  -3  16   44.80    6.09
  -1  -3  16   42.54    1.72
   0   3 -16   40.56    6.68
   0   3 -16   34.17    1.96
   0   3 -16   36.76    1.40
   0  -3  16   33.24    5.10
   0  -3  16   35.58    1.43
  -1   3 -16    1.50    1.33
  -1   3 -16    1.26    0.60
  -1   3 -16    1.60    0.36
   1  -3  16    1.46    0.35
   1  -3  16    2.29    1.89
  -2   3 -16   51.05    2.43
   2  -3  16   63.72    7.66
   2  -3  16   50.94    1.33
  -3   3 -16   25.74    1.74
   3  -3  16   24.69    4.74
   3  -3  16   33.63    5.88
  -4   3 -16    0.39    0.61
   4  -3  16   -0.06    1.03
   4  -3  16   -0.26    1.11
  -5   3 -16    5.25    1.10
   5  -3  16    4.63    2.50
   6  -3  16    1.42    1.54
   7   2 -16    1.98    0.77
   7   2 -16    1.96    1.75
   6   2 -16   -0.04    0.43
   6   2 -16    0.95    1.20
   6   2 -16    0.62    0.57
  -6  -2  16    0.75    1.76
   5   2 -16    3.06    0.80
   5   2 -16    1.86    0.67
   4   2 -16   13.60    1.58
   4   2 -16   15.14    4.19
   4   2 -16   10.47    1.30
  -4  -2  16   11.28    3.34
   3   2 -16   10.00    1.28
   3   2 -16    8.97    1.06
   3   2 -16   12.28    3.71
  -3  -2  16    9.47    3.07
  -3  -2  16    9.63    1.23
   2   2 -16    0.26    0.38
   2   2 -16    0.15    0.27
   2   2 -16   -0.27    0.43
  -2  -2  16    0.14    0.76
  -2  -2  16    0.24    0.32
   1   2 -16   10.52    3.21
   1   2 -16   11.54    0.86
   1   2 -16   13.04    1.49
  -1  -2  16   14.45    3.45
  -1  -2  16   10.73    1.02
   0   2 -16   23.37    1.57
   0   2 -16   23.15    1.11
   0   2 -16   25.59    5.05
   0  -2  16   20.83    4.17
   0  -2  16   23.45    1.12
  -1   2 -16   12.07    1.40
  -1   2 -16   14.62    3.57
  -1   2 -16   12.37    0.77
   1  -2  16   12.12    0.75
   1  -2  16   15.44    3.87
  -2   2 -16    0.10    0.45
   2  -2  16    0.21    0.63
   2  -2  16    0.32    0.25
   2  -2  16    0.83    0.33
   2  -2  16    0.49    1.00
  -3   2 -16    2.79    0.89
   3  -2  16    4.12    2.24
   3  -2  16    1.97    0.30
   3  -2  16    2.67    0.36
   3  -2  16    2.58    1.98
  -4   2 -16   -0.03    0.45
   4  -2  16   -0.17    0.67
   4  -2  16   -0.29    1.15
  -5   2 -16    0.59    0.54
   5  -2  16    0.48    1.14
   6  -2  16    8.95    3.54
   8   1 -16    0.75    0.60
   8   1 -16    2.39    2.11
   7   1 -16   -0.29    0.43
   7   1 -16    0.62    1.38
   7   1 -16   -0.16    0.44
   6   1 -16    1.65    0.67
   6   1 -16    0.92    1.11
   6   1 -16   -0.07    0.69
  -6  -1  16    0.39    0.59
   5   1 -16    4.63    2.32
   5   1 -16    4.54    0.92
   5   1 -16    3.97    0.86
  -5  -1  16    6.89    2.85
  -5  -1  16    4.94    0.93
   4   1 -16   20.37    4.32
   4   1 -16   21.70    1.48
   4   1 -16   20.31    1.34
  -4  -1  16   20.53    1.48
  -4  -1  16   23.98    5.23
   3   1 -16   22.02    1.46
   3   1 -16   19.20    3.98
   3   1 -16   19.81    1.25
  -3  -1  16   24.70    4.61
  -3  -1  16   20.81    1.29
  -3  -1  16   19.18    1.43
   2   1 -16   45.16    6.47
   2   1 -16   38.42    1.66
   2   1 -16   39.27    1.95
  -2  -1  16   48.35    6.39
  -2  -1  16   35.44    1.92
  -2  -1  16   39.29    1.67
   1   1 -16   22.42    1.19
   1   1 -16   21.78    1.49
   1   1 -16   23.99    4.35
  -1  -1  16   22.19    1.20
  -1  -1  16   20.24    4.08
   0   1 -16    1.52    0.43
   0   1 -16    2.38    1.48
   0   1 -16    1.36    0.55
   0  -1  16    1.44    0.45
   0  -1  16    0.34    0.89
  -1   1 -16    9.29    0.90
  -1   1 -16    7.22    1.12
   1  -1  16    9.73    3.12
   1  -1  16    9.07    0.83
  -2   1 -16    8.76    1.23
   2  -1  16    6.11    2.57
   2  -1  16   10.02    4.01
   2  -1  16    6.63    0.69
   2  -1  16    5.82    0.69
  -3   1 -16    0.42    0.53
   3  -1  16    1.28    1.22
   3  -1  16    0.90    0.44
   3  -1  16    0.62    0.33
   3  -1  16    0.19    1.12
  -4   1 -16   -0.33    0.43
   4  -1  16    0.27    0.44
   4  -1  16    0.17    0.29
   4  -1  16   -0.30    0.65
  -5   1 -16    1.33    0.64
   5  -1  16    1.05    1.59
   6  -1  16   -0.43    0.99
   8   0 -16    7.60    4.93
   8   0 -16    8.34    1.09
   7   0 -16   12.35    1.47
   7   0 -16   12.91    4.09
   7   0 -16   12.10    1.57
   6   0 -16    0.09    0.44
   6   0 -16    0.09    0.35
   6   0 -16    0.63    1.13
  -6   0  16    0.46    0.47
   5   0 -16   70.00    6.33
   5   0 -16   56.49    2.40
  -5   0  16   55.90    2.35
   4   0 -16   31.00    1.67
   4   0 -16   28.90    2.41
   4   0 -16   39.29    6.13
  -4   0  16   30.38    1.70
  -4   0  16   36.14    5.89
   3   0 -16    3.23    0.76
   3   0 -16    4.04    1.89
   3   0 -16    4.69    0.81
  -3   0  16    3.35    0.70
  -3   0  16    3.97    2.11
  -3   0  16    3.85    0.81
   2   0 -16   37.84    1.91
   2   0 -16   38.65    5.64
   2   0 -16   38.07    1.70
  -2   0  16   43.18    2.06
  -2   0  16   45.25    6.18
   1   0 -16    2.68    0.71
   1   0 -16    7.72    2.88
   1   0 -16    1.93    0.52
  -1   0  16    2.90    1.92
  -1   0  16    2.37    0.54
  -1   0  16    2.76    0.91
   0   0 -16    0.67    0.45
   0   0 -16    0.47    0.80
   0   0 -16    0.27    0.32
   0   0  16   -0.41    0.70
   0   0  16   -0.29    0.28
  -1   0 -16    4.43    0.89
  -1   0 -16    4.44    0.70
   1   0  16    6.19    2.63
   1   0  16    4.68    0.66
  -2   0 -16    4.14    0.91
   2   0  16    5.61    0.73
   2   0  16    4.75    0.71
   2   0  16    3.72    1.88
  -3   0 -16   18.69    1.52
   3   0  16   16.16    1.05
   3   0  16   13.57    3.77
   3   0  16   15.64    0.99
  -4   0 -16    1.50    0.68
   4   0  16    1.29    0.47
   4   0  16    0.50    1.22
   4   0  16    0.72    0.41
   5   0  16    4.57    2.77
   5   0  16    6.18    0.79
   8  -1 -16    6.14    0.85
   8  -1 -16    7.26    3.02
   7  -1 -16   21.56    4.84
   7  -1 -16   24.92    1.39
   7  -1 -16   22.19    1.64
  -7   1  16   19.10    1.32
   6  -1 -16    2.69    1.76
   6  -1 -16    3.81    0.90
   6  -1 -16    2.90    0.66
  -6   1  16    1.96    0.61
   5  -1 -16    2.20    0.67
   5  -1 -16    0.58    0.85
   5  -1 -16    2.68    0.67
  -5   1  16    1.48    0.66
   4  -1 -16    9.39    1.20
   4  -1 -16    8.08    2.67
   4  -1 -16    5.96    0.95
  -4   1  16    5.38    0.93
   3  -1 -16    3.12    0.77
   3  -1 -16    2.88    0.69
   3  -1 -16    2.12    1.48
  -3   1  16    2.92    0.63
  -3   1  16    4.13    0.86
   2  -1 -16    0.30    0.36
   2  -1 -16    0.29    0.74
   2  -1 -16   -0.35    0.31
  -2   1  16   -0.26    0.27
  -2   1  16   -0.20    0.36
   1  -1 -16    3.09    1.83
   1  -1 -16    3.80    0.72
   1  -1 -16    2.00    0.58
   0  -1 -16   28.69    4.94
   0  -1 -16   34.71    1.57
   0  -1 -16   34.74    1.89
   0   1  16   35.60    1.58
  -1  -1 -16    7.17    1.14
   1   1  16   16.47    4.32
   1   1  16    7.20    0.91
  -2  -1 -16    6.08    1.07
   2   1  16    7.19    0.94
   2   1  16   12.11    4.67
   2   1  16    7.06    0.86
  -3  -1 -16   14.40    1.65
   3   1  16   13.93    3.91
   3   1  16   15.39    1.53
   3   1  16   16.76    1.19
   4   1  16    2.28    0.79
   4   1  16    6.86    3.48
   4   1  16    3.07    0.70
   5   1  16    1.72    1.76
   5   1  16   -0.45    0.41
   9  -2 -16    9.25    3.66
   8  -2 -16    5.54    0.72
   8  -2 -16    3.18    2.05
   7  -2 -16    0.59    0.39
   7  -2 -16    0.50    1.02
   7  -2 -16    0.41    0.52
  -7   2  16    0.03    0.40
   6  -2 -16    6.24    2.60
   6  -2 -16    5.72    0.85
   6  -2 -16    4.68    0.89
  -6   2  16    4.98    0.80
   5  -2 -16    2.60    0.63
   5  -2 -16    3.33    1.79
   5  -2 -16    2.19    0.66
  -5   2  16    2.08    0.62
   4  -2 -16    1.19    0.51
   4  -2 -16    2.63    1.80
   4  -2 -16    0.80    0.46
  -4   2  16    0.03    0.38
   3  -2 -16    8.97    2.80
   3  -2 -16   12.81    1.33
   3  -2 -16   12.63    1.31
  -3   2  16   11.61    1.28
   2  -2 -16    0.19    0.42
   2  -2 -16    0.45    0.89
   2  -2 -16   -0.29    0.30
  -2   2  16    0.01    0.31
  -2   2  16    0.08    0.52
   1  -2 -16    3.66    0.84
   1  -2 -16    5.28    2.28
   1  -2 -16    2.30    0.58
  -1   2  16    3.30    0.67
   0  -2 -16    2.78    0.66
   0  -2 -16    2.43    0.76
   0   2  16    2.25    0.60
  -1  -2 -16   10.60    1.35
   1   2  16   12.41    1.22
   1   2  16   11.76    3.48
   1   2  16   10.81    1.20
   2   2  16   14.67    4.13
   2   2  16    7.08    0.97
   2   2  16    5.58    1.02
  -3  -2 -16    0.74    0.65
   3   2  16   -0.07    1.30
   3   2  16    0.59    0.48
   4   2  16    0.72    1.44
   4   2  16    0.17    0.50
   9  -3 -16    5.84    2.84
   8  -3 -16    4.36    2.33
   7  -3 -16    1.20    1.52
   7  -3 -16    0.66    0.40
   7  -3 -16    0.23    0.41
  -7   3  16    0.01    0.37
   6  -3 -16    0.45    0.49
   6  -3 -16   -0.19    0.31
   6  -3 -16    1.24    1.23
  -6   3  16    0.30    0.43
   5  -3 -16    4.54    2.14
   5  -3 -16    4.92    0.99
   5  -3 -16    2.68    0.62
  -5   3  16    3.58    0.77
   4  -3 -16   20.32    1.59
   4  -3 -16   19.80    1.42
   4  -3 -16   24.41    4.70
  -4   3  16   18.92    1.38
   3  -3 -16    7.89    2.57
   3  -3 -16    7.57    1.04
   3  -3 -16    7.96    1.05
  -3   3  16    6.47    1.05
   2  -3 -16   17.75    1.29
   2  -3 -16   22.56    4.53
   2  -3 -16   17.96    1.37
   1  -3 -16   40.85    2.08
   1  -3 -16   42.93    1.96
   0  -3 -16   10.96    1.41
   0   3  16    4.01    2.01
  -1  -3 -16    9.94    2.13
   1   3  16    7.39    1.06
   1   3  16    7.41    2.88
  -2  -3 -16    6.54    1.15
   2   3  16    7.35    3.22
   2   3  16    6.13    0.98
   3   3  16    1.22    1.87
   3   3  16    0.35    0.53
   8  -4 -16    3.21    2.13
   7  -4 -16   14.15    1.64
   7  -4 -16   10.79    0.88
   7  -4 -16   14.09    3.87
  -7   4  16    9.39    0.97
   6  -4 -16    4.31    2.16
   6  -4 -16    5.69    0.87
   6  -4 -16    4.67    1.00
  -6   4  16    6.38    0.95
   5  -4 -16   16.50    3.98
   5  -4 -16   11.49    1.25
   5  -4 -16    7.70    1.15
  -5   4  16    9.28    1.14
   4  -4 -16   27.82    1.74
   4  -4 -16   29.12    1.66
   4  -4 -16   35.50    5.68
  -4   4  16   27.68    1.71
   3  -4 -16   14.21    1.47
   3  -4 -16   18.46    4.28
   3  -4 -16   14.40    1.52
   2  -4 -16    2.58    1.65
   2  -4 -16    4.37    0.89
   2  -4 -16    3.19    0.79
   1  -4 -16    9.05    1.32
   1  -4 -16    9.52    1.14
   0   4  16    0.09    0.81
   0   4  16    0.25    0.57
  -1  -4 -16    1.92    0.77
   1   4  16    0.08    0.90
   1   4  16    2.50    0.79
   2   4  16    0.04    0.88
   3   4  16    3.97    0.93
   8  -5 -16   -0.23    0.82
   7  -5 -16    8.20    3.02
   7  -5 -16    2.98    0.61
   6  -5 -16    7.81    2.83
   6  -5 -16    8.44    1.32
   6  -5 -16    4.54    0.75
  -6   5  16    6.24    1.03
   5  -5 -16    3.34    0.77
   5  -5 -16    2.26    0.76
   5  -5 -16    2.92    1.87
  -5   5  16    1.40    0.61
   4  -5 -16    0.27    0.76
   4  -5 -16   -0.09    0.42
   4  -5 -16    1.08    1.20
   3  -5 -16    2.11    1.55
   3  -5 -16    0.68    0.71
   3  -5 -16    0.80    0.57
   2  -5 -16    0.00    0.51
   2  -5 -16    1.17    0.64
   1  -5 -16    0.07    0.65
  -1   5  16    0.47    1.19
   0  -5 -16    3.70    0.95
   0   5  16    3.37    0.87
   1   5  16    0.67    0.66
   8  -6 -16    7.90    2.85
   7  -6 -16    2.61    1.74
   7  -6 -16    2.55    0.60
   6  -6 -16    2.99    0.79
   6  -6 -16    3.86    1.90
  -6   6  16    1.46    0.67
   5  -6 -16    8.25    2.98
   5  -6 -16    4.92    0.94
   4  -6 -16    1.08    0.64
   4  -6 -16    1.01    0.63
   4  -6 -16    2.65    1.59
   3  -6 -16    2.02    0.75
   3  -6 -16    0.10    0.45
   2  -6 -16    0.32    0.61
  -2   6  16    2.01    0.86
   1  -6 -16    2.86    1.14
   6  -7 -16    2.04    0.72
   6  -7 -16    1.54    1.42
   5  -7 -16    1.46    0.69
   4  -7 -16    4.10    1.00
   3  -7 -16   10.60    1.50
   0   8 -17    0.00    0.40
   2  -8  17    7.94    2.94
   3  -8  17   -0.17    0.81
   2   7 -17   13.51    1.44
   1   7 -17   19.36    1.31
   0  -7  17    0.99    0.55
   0  -7  17   -0.29    0.80
  -1   7 -17    2.90    0.49
   1  -7  17    0.17    1.43
   2  -7  17    0.13    0.94
   3  -7  17    0.53    1.23
   2   6 -17   -0.09    0.52
   2   6 -17    0.71    0.47
   1   6 -17    2.01    1.78
   1   6 -17    0.99    0.46
   1   6 -17    0.50    0.53
  -1  -6  17    0.02    0.79
  -1  -6  17    0.65    0.52
   0   6 -17    0.32    0.33
   0   6 -17    0.26    1.14
   0   6 -17    0.47    0.60
   0  -6  17    0.05    0.34
   0  -6  17   -0.20    0.84
  -1   6 -17    2.89    0.47
  -1   6 -17    2.32    0.88
  -1   6 -17    2.61    1.85
   1  -6  17    2.35    1.67
   1  -6  17    2.12    0.47
  -2   6 -17    5.07    1.14
   2  -6  17   -0.13    0.79
  -3   6 -17    9.49    1.47
   3  -6  17   14.46    3.95
   4  -6  17    3.47    1.95
   4   5 -17    0.56    0.50
   4   5 -17    0.75    0.61
   3   5 -17    1.72    0.69
   3   5 -17    3.20    2.14
   3   5 -17    2.35    0.69
  -3  -5  17   -0.30    0.88
   2   5 -17    2.19    1.87
   2   5 -17    1.40    0.66
   2   5 -17    0.76    0.42
  -2  -5  17    0.40    1.25
   1   5 -17    0.20    0.36
   1   5 -17    0.50    1.04
  -1  -5  17    0.80    0.56
  -1  -5  17    2.10    1.63
   0   5 -17    2.32    0.52
   0   5 -17    2.14    0.95
   0   5 -17    3.20    2.01
   0  -5  17    1.53    0.48
   0  -5  17    1.14    1.24
  -1   5 -17    3.18    0.48
  -1   5 -17    2.69    1.84
  -1   5 -17    4.70    1.64
   1  -5  17    3.32    2.01
   1  -5  17    3.27    0.65
   2  -5  17    5.11    2.44
  -3   5 -17    0.53    0.57
   3  -5  17   -0.25    0.84
   3  -5  17    4.26    2.49
  -4   5 -17    5.17    1.08
   4  -5  17    9.20    3.14
   5  -5  17    3.32    1.99
   6   4 -17    4.39    1.09
   5   4 -17   -0.14    0.85
   5   4 -17    2.92    0.82
   5   4 -17    1.08    0.69
   4   4 -17    0.21    0.98
   4   4 -17   -0.59    0.85
   4   4 -17    0.50    0.40
  -4  -4  17    0.34    1.37
   3   4 -17    1.25    0.57
   3   4 -17    1.21    1.24
   3   4 -17    2.19    0.74
  -3  -4  17    0.17    0.94
   2   4 -17    4.21    1.01
   2   4 -17    3.78    0.74
   2   4 -17    4.10    1.90
  -2  -4  17    4.11    2.42
  -2  -4  17    4.46    0.84
   1   4 -17   31.18    5.50
   1   4 -17   23.48    1.24
   1   4 -17   25.16    1.78
  -1  -4  17   29.33    5.35
  -1  -4  17   22.16    1.29
   0   4 -17   10.83    1.52
   0   4 -17   20.74    4.98
   0   4 -17   10.15    0.95
   0  -4  17   12.58    3.91
   0  -4  17    9.01    0.91
  -1   4 -17   10.52    3.03
  -1   4 -17   16.02    1.74
  -1   4 -17   14.33    0.78
   1  -4  17   18.98    4.23
   1  -4  17   15.16    0.86
  -2   4 -17   36.01    2.16
   2  -4  17   47.07    6.90
   3  -4  17   17.24    5.07
   3  -4  17   11.06    3.56
  -4   4 -17    2.81    0.87
   4  -4  17    1.16    1.33
  -5   4 -17    3.78    1.16
   5  -4  17    2.96    2.18
   6   3 -17    1.11    0.62
   6   3 -17    0.39    1.14
   5   3 -17   -0.14    0.76
   5   3 -17    2.00    0.76
   5   3 -17    1.76    0.69
   4   3 -17   27.14    1.64
   4   3 -17   27.96    5.72
   4   3 -17   26.45    1.81
  -4  -3  17   36.26    6.72
   3   3 -17   14.80    4.03
   3   3 -17   15.74    1.66
   3   3 -17   12.94    1.34
  -3  -3  17   20.53    4.56
   2   3 -17    2.58    1.73
   2   3 -17    2.48    0.76
   2   3 -17    2.25    0.58
  -2  -3  17    2.34    0.63
  -2  -3  17    1.95    1.57
   1   3 -17   42.56    2.24
   1   3 -17   47.23    1.78
   1   3 -17   39.84    6.10
  -1  -3  17   49.33    6.44
  -1  -3  17   43.31    1.78
   0   3 -17   18.66    4.42
   0   3 -17   18.97    1.52
   0   3 -17   19.51    1.04
   0  -3  17   20.08    1.09
   0  -3  17   17.44    3.84
  -1   3 -17    1.77    0.39
  -1   3 -17    0.51    0.93
  -1   3 -17    2.24    0.75
   1  -3  17    4.16    2.44
  -2   3 -17    3.48    0.82
   2  -3  17    5.36    0.48
   2  -3  17    0.61    1.00
   2  -3  17   12.53    3.77
  -3   3 -17    0.09    0.54
   3  -3  17    1.24    1.42
  -4   3 -17    3.05    0.91
   4  -3  17    1.36    1.49
   5  -3  17   -0.03    0.93
   7   2 -17    7.53    1.22
   7   2 -17   11.81    4.26
   6   2 -17    2.54    0.77
   6   2 -17    3.45    0.86
   6   2 -17    3.13    2.04
   5   2 -17    0.87    0.54
   5   2 -17    0.00    0.41
   5   2 -17    1.00    1.32
  -5  -2  17    0.09    1.15
   4   2 -17    7.41    1.16
   4   2 -17    9.19    1.16
   4   2 -17    4.89    3.05
  -4  -2  17    5.36    2.52
   3   2 -17   13.25    3.66
   3   2 -17   15.10    1.13
   3   2 -17   13.96    1.52
  -3  -2  17   14.46    3.73
   2   2 -17    5.92    2.51
   2   2 -17   12.23    1.55
  -2  -2  17    9.02    3.08
  -2  -2  17    9.79    1.08
   1   2 -17    0.21    0.47
   1   2 -17    1.33    1.44
   1   2 -17   -0.12    0.25
  -1  -2  17    0.16    0.31
  -1  -2  17    0.25    0.74
   0   2 -17    0.77    0.52
   0   2 -17    0.77    0.97
   0   2 -17    0.15    0.25
   0  -2  17    0.95    0.40
   0  -2  17    2.78    2.01
  -1   2 -17    0.95    1.06
  -1   2 -17    0.48    0.30
  -1   2 -17    0.51    0.51
   1  -2  17    0.32    0.26
   1  -2  17   -0.28    0.77
  -2   2 -17    1.84    0.63
   2  -2  17    1.88    0.39
   2  -2  17    1.69    0.52
   2  -2  17    1.51    1.41
   2  -2  17    3.43    2.14
  -3   2 -17    6.54    1.32
   3  -2  17    6.59    0.47
   3  -2  17    6.06    0.44
   3  -2  17    5.64    2.80
   3  -2  17    5.79    2.61
  -4   2 -17    1.65    0.71
   5  -2  17   -0.05    0.95
   7   1 -17    4.79    0.99
   7   1 -17    2.43    2.01
   6   1 -17    8.05    3.43
   6   1 -17    4.83    0.93
   6   1 -17    5.47    1.13
   5   1 -17   37.57    1.95
   5   1 -17   30.60    6.17
   5   1 -17   34.05    1.91
   4   1 -17   13.25    1.46
   4   1 -17   14.56    1.47
   4   1 -17   15.45    3.87
  -4  -1  17   17.56    4.93
   3   1 -17    1.18    0.52
   3   1 -17    0.25    0.56
   3   1 -17    2.14    0.72
  -3  -1  17    1.89    1.58
  -3  -1  17    1.49    0.64
   2   1 -17    8.58    1.20
  -2  -1  17    4.79    2.74
  -2  -1  17    7.63    0.94
   1   1 -17    2.31    0.52
   1   1 -17    4.60    0.96
  -1  -1  17    6.61    2.62
  -1  -1  17    1.20    0.47
   0   1 -17    0.70    0.38
   0   1 -17    0.12    0.45
   0  -1  17    0.61    1.08
   0  -1  17   -0.08    0.28
  -1   1 -17   -0.32    0.36
  -1   1 -17    0.37    0.34
   1  -1  17    0.26    0.30
   1  -1  17   -0.07    1.08
  -2   1 -17    5.27    1.01
   2  -1  17   11.52    3.63
   2  -1  17    7.01    0.78
   2  -1  17   13.17    3.92
   2  -1  17    7.93    0.76
   3  -1  17    5.62    0.63
   3  -1  17    6.72    3.34
   3  -1  17    6.85    0.70
   3  -1  17    3.84    2.01
  -4   1 -17    0.63    0.56
   4  -1  17    2.25    1.80
   4  -1  17    0.23    0.33
   5  -1  17    8.40    3.43
   8   0 -17   18.74    5.20
   8   0 -17   22.65    1.50
   7   0 -17   10.83    1.27
   7   0 -17   14.50    4.45
  -7   0  17    6.68    1.07
   6   0 -17    0.56    1.05
   6   0 -17    0.50    0.55
   6   0 -17   -0.26    0.37
  -6   0  17   -0.65    0.36
   5   0 -17   11.13    1.33
   5   0 -17   11.91    3.55
   5   0 -17   10.97    1.34
  -5   0  17   14.09    1.55
   4   0 -17    0.32    1.13
   4   0 -17   -0.33    0.35
   4   0 -17   -0.27    0.38
  -4   0  17    0.16    0.44
   3   0 -17    1.47    0.50
   3   0 -17    1.16    0.52
   3   0 -17    0.59    0.98
   2   0 -17    2.00    1.61
   2   0 -17    0.76    0.54
   2   0 -17    1.92    0.56
  -2   0  17    3.90    2.31
  -2   0  17    1.61    0.53
   1   0 -17   23.50    4.81
   1   0 -17   20.99    1.50
   1   0 -17   18.67    1.18
  -1   0  17   20.51    4.26
  -1   0  17   21.77    1.46
   0   0 -17   38.58    1.62
   0   0 -17   29.95    5.59
   0   0 -17   37.81    2.03
   0   0  17   49.20    7.69
   0   0  17   37.05    1.61
  -1   0 -17    0.57    0.39
  -1   0 -17    0.73    0.50
   1   0  17    1.12    0.44
  -2   0 -17   24.26    1.74
   2   0  17   25.31    1.27
   2   0  17   26.30    1.37
   2   0  17   34.12    6.16
  -3   0 -17   25.49    1.83
   3   0  17   20.40    4.83
   3   0  17   24.32    1.25
   3   0  17   26.41    1.34
   4   0  17    1.12    0.47
   4   0  17    0.55    0.40
   4   0  17    0.68    1.21
   8  -1 -17    2.54    2.37
   7  -1 -17    0.82    0.55
   7  -1 -17    0.20    0.43
  -7   1  17    0.21    0.57
   6  -1 -17    1.55    1.49
  -6   1  17    0.62    0.50
   5  -1 -17    0.93    0.53
   5  -1 -17    1.07    0.57
   5  -1 -17    1.38    1.19
  -5   1  17    0.47    0.50
   4  -1 -17    5.91    0.96
   4  -1 -17    5.71    2.47
   4  -1 -17    6.34    1.03
  -4   1  17    7.51    1.13
   3  -1 -17   26.41    1.51
   3  -1 -17   21.61    4.39
   3  -1 -17   23.13    1.53
   2  -1 -17    6.45    2.40
   2  -1 -17    3.18    0.71
   2  -1 -17    2.26    0.65
  -2   1  17    2.85    0.64
   1  -1 -17   14.11    1.53
   1  -1 -17   14.39    1.09
   1  -1 -17   11.30    3.14
  -1   1  17   12.40    1.19
   0  -1 -17   17.04    1.41
   0   1  17   17.74    1.17
  -1  -1 -17    2.21    0.74
   1   1  17    1.83    0.56
   1   1  17    3.27    0.69
  -2  -1 -17   -0.56    0.40
   2   1  17    0.18    0.84
   2   1  17    0.51    0.47
   2   1  17    0.13    0.39
  -3  -1 -17    0.20    0.47
   3   1  17    0.48    0.43
   3   1  17    0.47    0.56
   3   1  17    0.60    1.34
   4   1  17    0.94    1.58
   4   1  17    0.10    0.45
   8  -2 -17    0.56    0.43
   8  -2 -17    2.11    1.76
   7  -2 -17    1.09    0.73
   7  -2 -17    0.10    0.39
   7  -2 -17    0.16    0.92
  -7   2  17    0.21    0.41
   6  -2 -17    1.97    0.62
   6  -2 -17    2.10    0.81
   5  -2 -17    1.31    1.63
   5  -2 -17    4.11    0.85
   5  -2 -17    5.55    0.98
  -5   2  17    4.14    0.85
   4  -2 -17    3.21    1.96
   4  -2 -17    1.94    0.60
   4  -2 -17    1.09    0.56
  -4   2  17    0.72    0.51
   3  -2 -17    1.23    1.29
   3  -2 -17   -0.24    0.28
   3  -2 -17    0.56    0.50
   2  -2 -17   43.29    6.44
   2  -2 -17   42.31    2.08
   2  -2 -17   42.92    1.95
   1  -2 -17   14.09    3.63
   1  -2 -17   14.20    1.55
   1  -2 -17   18.06    1.26
   0  -2 -17    0.55    0.49
   0  -2 -17    0.09    0.38
  -1  -2 -17    1.65    0.73
   1   2  17    3.24    2.14
   1   2  17    2.55    0.70
  -2  -2 -17    1.75    0.75
   2   2  17    1.06    0.56
   2   2  17    2.54    2.06
   3   2  17    4.24    2.57
   4   2  17    0.43    0.59
   4   2  17    1.03    1.53
   8  -3 -17    8.67    3.74
   7  -3 -17   12.02    3.73
   7  -3 -17   13.91    1.04
  -7   3  17    9.36    1.08
   6  -3 -17    1.14    1.40
   6  -3 -17    0.36    0.44
   6  -3 -17    0.73    0.54
   5  -3 -17   21.78    1.57
   5  -3 -17   24.89    5.01
   5  -3 -17   21.28    1.41
  -5   3  17   19.12    1.42
   4  -3 -17   45.05    2.18
   4  -3 -17   43.75    2.05
   4  -3 -17   39.42    7.45
  -4   3  17   38.55    2.59
   3  -3 -17    0.16    0.45
   3  -3 -17    0.54    1.13
   3  -3 -17   -0.32    0.30
   2  -3 -17   16.23    4.03
   2  -3 -17    9.48    1.19
   2  -3 -17    5.42    0.94
   1  -3 -17    3.75    0.90
   1  -3 -17    3.34    0.75
   0  -3 -17    2.68    0.85
   0   3  17    3.14    1.96
   0   3  17    1.22    0.62
  -1  -3 -17    1.77    0.72
   1   3  17    1.67    0.64
   1   3  17    2.27    1.92
   2   3  17    0.61    1.12
   2   3  17    0.63    0.56
   3   3  17    6.89    1.10
   8  -4 -17    6.50    2.95
   7  -4 -17    9.93    1.03
   7  -4 -17   10.14    3.21
   6  -4 -17    2.82    0.69
   6  -4 -17    1.50    0.65
   6  -4 -17    4.46    2.20
  -6   4  17    2.21    0.69
   5  -4 -17    0.14    0.45
   5  -4 -17    0.17    0.79
   5  -4 -17    0.30    0.44
  -5   4  17    0.24    0.49
   4  -4 -17    3.91    0.88
   4  -4 -17    6.21    1.01
   4  -4 -17    7.06    2.73
   3  -4 -17    1.55    1.23
   3  -4 -17    1.69    0.64
   3  -4 -17    1.33    0.57
   2  -4 -17    0.75    0.53
   2  -4 -17    1.75    0.63
   2  -4 -17    2.18    1.43
   1  -4 -17    1.47    0.62
   1  -4 -17    0.55    0.64
  -1   4  17    0.64    1.11
   0  -4 -17    7.26    1.28
   0   4  17    9.26    1.32
   0   4  17   13.05    3.99
   2   4  17    1.04    0.71
   8  -5 -17    2.83    2.50
   7  -5 -17    1.18    1.56
   7  -5 -17    1.41    0.56
   6  -5 -17    0.79    0.51
   6  -5 -17    2.68    1.63
  -6   5  17    0.28    0.51
   5  -5 -17   -0.07    0.43
   5  -5 -17    0.01    0.83
   5  -5 -17    0.17    0.44
   4  -5 -17   -0.36    0.67
   4  -5 -17    0.56    0.56
   4  -5 -17   -0.08    0.48
   3  -5 -17    0.53    0.53
   3  -5 -17    0.65    1.24
   3  -5 -17    0.80    0.63
   2  -5 -17   10.67    1.39
  -2   5  17   14.43    4.26
   1  -5 -17   -0.29    0.55
  -1   5  17   -0.47    0.45
   0   5  17    0.79    0.68
   7  -6 -17    3.24    2.32
   7  -6 -17    0.40    0.83
   6  -6 -17    0.37    0.53
   6  -6 -17    0.18    0.88
   5  -6 -17    0.80    0.61
   5  -6 -17    0.99    1.14
   4  -6 -17    9.69    3.29
   4  -6 -17    8.52    1.24
   3  -6 -17    0.65    0.70
   2  -6 -17    0.33    0.59
   5  -7 -17    1.68    0.78
   5  -7 -17    1.81    1.58
   4  -7 -17    9.99    1.42
   1   7 -18    0.00    0.34
   3  -7  18   13.15    3.95
   3   6 -18    1.39    0.63
   2   6 -18    0.79    0.49
   1   6 -18    3.55    0.74
   0   6 -18   10.05    0.97
   0  -6  18   10.12    1.11
  -1   6 -18    1.16    0.37
   1  -6  18   -0.17    0.89
   3  -6  18    6.47    2.79
   4  -6  18    6.32    3.00
   4   5 -18    0.33    0.47
   3   5 -18   -0.17    0.34
   3   5 -18   -0.44    0.43
   2   5 -18    8.71    1.38
   2   5 -18   10.98    1.20
   2   5 -18    7.70    2.79
   1   5 -18    3.09    0.90
   1   5 -18    1.67    1.96
   1   5 -18    3.32    0.66
  -1  -5  18    2.59    0.68
  -1  -5  18   -0.48    0.87
   0   5 -18    1.15    0.41
   0   5 -18    1.00    0.60
   0  -5  18    0.60    1.19
   0  -5  18    0.92    0.40
  -1   5 -18    6.37    1.20
  -1   5 -18    8.02    0.71
   1  -5  18    1.19    1.44
  -2   5 -18   16.81    1.98
  -3   5 -18    0.94    0.66
   3  -5  18    1.34    1.18
   4  -5  18    2.55    1.97
   5  -5  18    6.30    3.46
   5   4 -18    2.45    0.84
   4   4 -18   17.81    4.14
   4   4 -18   21.44    1.76
   3   4 -18    2.88    1.84
   3   4 -18    4.89    1.24
   3   4 -18    3.46    0.78
  -3  -4  18    0.26    1.06
   2   4 -18   15.64    4.38
   2   4 -18   16.02    1.16
  -2  -4  18   17.87    4.40
   1   4 -18   34.38    1.55
   1   4 -18   29.89    2.14
   1   4 -18   29.91    5.82
   0   4 -18    4.52    2.36
   0   4 -18    8.34    0.89
   0   4 -18    6.32    1.54
   0  -4  18    5.89    0.78
  -1   4 -18    4.48    0.56
  -1   4 -18    7.57    3.20
  -1   4 -18    3.55    1.39
  -2   4 -18    1.45    0.78
   2  -4  18    3.48    2.72
  -3   4 -18    0.33    0.60
   3  -4  18    0.51    1.34
   4  -4  18    1.40    1.41
   5  -4  18    0.50    1.29
   6   3 -18    1.31    1.55
   6   3 -18    4.33    1.09
   5   3 -18    2.30    0.75
   5   3 -18    0.15    1.07
   5   3 -18    4.81    1.38
   4   3 -18   22.88    1.74
   4   3 -18   22.28    1.52
   4   3 -18   18.70    4.90
  -4  -3  18   21.55    5.11
   3   3 -18    9.44    3.51
   3   3 -18    5.79    1.17
   3   3 -18    5.55    0.93
  -3  -3  18    6.23    2.78
   2   3 -18    1.41    0.48
   2   3 -18    0.07    0.43
   2   3 -18    0.56    0.98
  -2  -3  18    1.23    1.39
  -2  -3  18    0.61    0.43
   1   3 -18    7.58    3.05
   1   3 -18    4.27    0.99
   1   3 -18    4.17    0.69
  -1  -3  18    2.29    0.58
  -1  -3  18    4.03    2.21
   0   3 -18    1.79    0.50
   0   3 -18    0.85    0.57
   0   3 -18    3.23    2.06
   0  -3  18    2.17    0.54
   0  -3  18    1.23    1.27
  -1   3 -18    2.79    0.48
  -1   3 -18    3.34    0.89
  -1   3 -18    0.52    0.90
   1  -3  18    1.62    1.50
   1  -3  18    2.95    0.52
  -2   3 -18    1.23    0.82
   2  -3  18    1.18    0.30
   2  -3  18    0.01    0.96
   2  -3  18    1.10    1.60
   2  -3  18    0.90    0.26
  -3   3 -18    8.82    1.36
   3  -3  18   10.25    3.75
   3  -3  18    8.78    3.33
   4  -3  18   17.74    5.09
   5  -3  18    3.09    2.38
   7   2 -18   -0.09    0.54
   7   2 -18   -0.15    1.12
   6   2 -18    6.88    3.04
   6   2 -18    8.83    1.36
   5   2 -18    4.10    1.02
   5   2 -18   12.25    4.34
   5   2 -18    4.35    1.40
  -5  -2  18    4.58    3.12
   4   2 -18    1.99    0.75
   4   2 -18    0.82    1.18
   4   2 -18    3.41    0.82
  -4  -2  18    4.02    2.62
   3   2 -18   -0.16    0.76
   3   2 -18    0.51    0.49
   3   2 -18    0.62    0.41
  -3  -2  18    0.65    1.16
   2   2 -18    0.50    0.98
   2   2 -18   -0.42    0.36
   2   2 -18    0.28    0.35
  -2  -2  18   -0.18    0.82
  -2  -2  18    0.09    0.32
   1   2 -18    4.48    2.45
   1   2 -18    3.24    0.84
   1   2 -18    4.28    0.70
  -1  -2  18    3.80    0.66
  -1  -2  18    3.84    1.94
   0   2 -18    4.14    2.15
   0   2 -18    4.80    0.70
   0   2 -18    1.88    0.63
   0  -2  18    5.22    2.56
   0  -2  18    2.64    0.54
  -1   2 -18    6.06    1.11
  -1   2 -18    7.04    0.76
   1  -2  18    5.56    2.66
   1  -2  18    4.91    0.62
   2  -2  18    0.92    1.59
   2  -2  18    0.66    0.31
   2  -2  18    1.16    1.54
  -3   2 -18    0.21    0.56
   3  -2  18    1.71    1.62
   3  -2  18    0.59    0.26
   3  -2  18    2.62    2.38
   3  -2  18    0.80    0.26
   4  -2  18    3.98    1.88
   5  -2  18    5.28    2.77
   7   1 -18    8.57    3.52
   7   1 -18    4.57    1.08
   6   1 -18    1.16    0.63
   6   1 -18    2.92    2.00
   6   1 -18    3.32    0.90
   5   1 -18    3.94    0.94
   5   1 -18    6.37    2.48
   5   1 -18    4.25    0.86
   4   1 -18   -0.59    0.65
   4   1 -18    0.14    0.43
   4   1 -18    0.05    0.39
   3   1 -18   10.64    3.62
   3   1 -18    8.08    1.21
   3   1 -18    7.73    1.02
  -3  -1  18    3.12    1.81
   2   1 -18    2.27    0.79
   2   1 -18    0.65    1.24
   2   1 -18    2.37    0.59
  -2  -1  18    1.15    1.35
  -2  -1  18    2.38    0.59
   1   1 -18   28.75    1.44
   1   1 -18   37.64    6.17
   1   1 -18   30.91    1.86
  -1  -1  18   28.39    5.34
   0   1 -18   17.04    1.06
   0   1 -18    7.21    2.80
   0   1 -18   15.03    1.64
   0  -1  18   15.42    4.28
   0  -1  18   13.72    1.00
  -1   1 -18    3.60    0.92
  -1   1 -18    4.11    0.64
   1  -1  18    4.51    0.65
   1  -1  18    5.57    2.58
  -2   1 -18   22.96    1.93
   2  -1  18   23.39    1.20
   2  -1  18   26.23    5.15
   2  -1  18   20.57    7.04
   2  -1  18   21.92    1.10
  -3   1 -18   10.80    1.54
   3  -1  18    9.75    0.75
   3  -1  18   10.60    0.79
   3  -1  18   10.06    3.49
   4  -1  18   -0.05    0.29
   7   0 -18    0.65    0.59
   6   0 -18    0.24    0.87
   6   0 -18    2.58    0.80
   6   0 -18    3.05    0.79
   5   0 -18    4.27    0.97
   5   0 -18    1.45    0.61
   5   0 -18    3.45    2.14
   4   0 -18   30.90    1.74
   4   0 -18   35.20    6.40
   4   0 -18   32.64    1.86
   3   0 -18   15.58    4.04
   3   0 -18   22.05    1.54
   3   0 -18   18.69    1.29
   2   0 -18    0.17    0.84
   2   0 -18    1.52    0.49
   2   0 -18    0.69    0.51
  -2   0  18    1.61    0.50
   1   0 -18   27.99    1.50
   1   0 -18   29.49    5.53
   1   0 -18   27.53    1.78
  -1   0  18   24.36    1.37
   0   0 -18   26.45    1.39
   0   0 -18   26.43    5.18
   0   0 -18   26.34    1.77
  -1   0 -18   -0.16    0.30
  -1   0 -18    0.00    0.42
   1   0  18    0.69    1.22
   1   0  18    0.05    0.33
  -2   0 -18    9.83    1.42
   2   0  18   14.47    1.08
   2   0  18   11.62    1.08
   2   0  18   21.00    5.13
  -3   0 -18   -0.05    0.58
   3   0  18    0.24    0.89
   3   0  18   -0.08    0.35
   3   0  18   -0.01    0.36
   4   0  18    3.61    2.71
   4   0  18    5.19    0.75
   8  -1 -18    0.20    1.25
   7  -1 -18    3.75    2.29
   7  -1 -18    7.01    1.04
  -7   1  18    3.91    0.88
   6  -1 -18    1.33    0.61
   6  -1 -18    4.74    2.62
   6  -1 -18    1.75    0.67
  -6   1  18    2.59    0.92
   5  -1 -18   12.34    1.40
   5  -1 -18   17.06    4.45
   5  -1 -18    8.82    1.26
   4  -1 -18    5.44    1.00
   4  -1 -18   10.82    3.51
   4  -1 -18    6.20    0.98
   3  -1 -18   19.59    1.46
   3  -1 -18   15.45    1.23
   3  -1 -18   16.69    3.94
   2  -1 -18    6.64    1.05
   2  -1 -18    4.64    2.22
   2  -1 -18    5.02    0.83
   1  -1 -18    2.74    1.75
   1  -1 -18    0.86    0.45
   1  -1 -18    0.43    0.44
  -1   1  18    2.24    0.68
   0  -1 -18    0.36    0.38
   0  -1 -18   -0.18    0.41
   0   1  18    0.34    0.39
  -1  -1 -18    1.31    0.85
   1   1  18    0.26    0.99
   1   1  18    2.10    0.62
   1   1  18    1.60    0.56
  -2  -1 -18    0.16    0.47
   2   1  18   -0.18    0.80
   2   1  18   -0.35    0.36
   2   1  18   -0.21    0.38
   3   1  18    1.38    1.41
   3   1  18    1.76    0.60
   3   1  18    1.90    0.66
   4   1  18    5.14    0.88
   4   1  18    4.77    2.95
   8  -2 -18    2.74    1.95
   7  -2 -18    5.33    2.83
   7  -2 -18    4.46    1.22
  -7   2  18    3.36    1.15
   6  -2 -18    6.54    0.99
   6  -2 -18    6.71    1.13
   6  -2 -18    5.75    2.85
  -6   2  18    5.89    1.00
   5  -2 -18   16.00    5.30
   5  -2 -18   12.74    1.41
   5  -2 -18   14.05    1.89
   4  -2 -18   12.64    1.40
   4  -2 -18   15.53    4.15
   4  -2 -18   16.45    1.64
   3  -2 -18    1.30    1.55
   3  -2 -18    0.20    0.44
   3  -2 -18    1.13    0.53
   2  -2 -18    1.43    1.31
   2  -2 -18    0.25    0.47
   2  -2 -18    1.18    0.53
   1  -2 -18    1.62    1.14
   1  -2 -18    1.55    0.57
   1  -2 -18    2.17    0.73
   0  -2 -18   -0.37    0.47
   0  -2 -18    0.63    0.42
   0   2  18    0.56    1.15
  -1  -2 -18    0.26    0.48
   1   2  18    0.85    0.54
   1   2  18    2.53    2.35
   2   2  18    3.31    2.17
   2   2  18    2.59    0.72
   3   2  18    0.28    1.20
   3   2  18    0.96    0.61
   8  -3 -18   17.62    4.63
   7  -3 -18   10.50    1.12
   7  -3 -18   10.52    3.83
   6  -3 -18    0.73    1.22
   6  -3 -18    0.15    0.41
   6  -3 -18    0.11    0.46
  -6   3  18    0.06    0.47
   5  -3 -18    8.86    1.20
   5  -3 -18   11.29    3.53
   5  -3 -18   12.26    1.38
   4  -3 -18    0.03    0.48
   4  -3 -18    0.48    0.53
   4  -3 -18    2.65    1.99
   3  -3 -18    6.95    3.11
   3  -3 -18    2.12    0.65
   3  -3 -18    3.03    0.77
   2  -3 -18    5.83    2.51
   2  -3 -18    3.56    0.87
   2  -3 -18    3.83    0.81
   1  -3 -18    7.24    1.28
   1  -3 -18    9.07    1.19
   0  -3 -18   21.10    1.73
   0   3  18   22.02    1.63
   0   3  18   17.34    4.52
   1   3  18    1.91    1.74
   1   3  18    0.18    0.51
   2   3  18    5.30    1.00
   7  -4 -18    3.08    2.28
   6  -4 -18    1.15    0.57
   6  -4 -18    3.68    2.30
  -6   4  18    0.24    0.53
   5  -4 -18    3.26    0.80
   5  -4 -18    4.34    2.28
   5  -4 -18    3.55    0.92
   4  -4 -18   22.89    5.08
   4  -4 -18   19.26    1.50
   4  -4 -18   19.15    1.54
   3  -4 -18   10.53    1.36
   3  -4 -18   10.55    1.33
   3  -4 -18    8.43    3.20
   2  -4 -18    2.69    0.82
   1  -4 -18    2.05    0.83
   1  -4 -18    2.34    0.82
  -1   4  18    5.18    2.39
   0   4  18    4.21    0.96
   1   4  18    1.84    0.76
   7  -5 -18    0.21    0.65
   6  -5 -18    2.00    1.83
   6  -5 -18    0.79    0.61
   5  -5 -18    2.97    0.84
   5  -5 -18    2.43    1.88
   4  -5 -18    1.70    1.56
   4  -5 -18    2.62    0.84
   3  -5 -18   -0.09    0.40
   2  -5 -18    3.41    0.93
   2  -5 -18    4.22    1.01
  -1   5  18    1.70    1.27
   6  -6 -18   -0.30    0.94
   6  -6 -18    0.66    0.61
   5  -6 -18    2.52    0.81
   4  -6 -18   10.59    1.56
   3  -6 -18    0.57    0.67
   2   6 -19    2.33    0.70
   1   6 -19   -0.24    0.34
   0   6 -19    7.73    0.88
   2  -6  19    0.99    1.55
   3   5 -19    1.12    0.62
   2   5 -19   11.20    1.24
   1   5 -19    8.57    1.94
   1   5 -19    7.62    0.93
   1   5 -19    7.27    3.22
  -1  -5  19    5.07    0.86
   0   5 -19    0.90    1.19
   0   5 -19    0.49    0.65
   0   5 -19    1.11    0.43
   0  -5  19    0.41    0.42
  -1   5 -19    1.06    0.35
  -1   5 -19    1.75    1.81
   2  -5  19    0.51    1.25
   3  -5  19    1.38    1.68
   4  -5  19   -0.14    0.85
   4   4 -19   16.23    4.86
   4   4 -19   16.52    1.68
   4   4 -19   14.42    1.85
   3   4 -19    0.10    0.58
   3   4 -19    1.25    1.74
   3   4 -19    1.04    0.53
   2   4 -19    2.90    2.06
   2   4 -19    2.32    0.84
   2   4 -19    3.42    0.71
  -2  -4  19    6.46    4.18
   1   4 -19    1.65    1.97
   1   4 -19    1.28    0.69
   1   4 -19    2.15    0.64
  -1  -4  19    2.91    0.65
  -1  -4  19    2.59    1.88
   0   4 -19   10.09    3.80
   0   4 -19    7.75    1.32
   0   4 -19   10.02    0.95
   0  -4  19    9.71    0.99
   0  -4  19    8.76    3.29
  -1   4 -19    0.60    0.31
  -1   4 -19   -0.20    0.42
  -1   4 -19    0.72    1.35
   1  -4  19    0.27    1.10
  -2   4 -19    6.92    1.25
   2  -4  19    5.90    2.62
   3  -4  19   24.35    5.54
   4  -4  19    0.82    1.35
   6   3 -19    1.95    0.90
   5   3 -19   -0.38    0.37
   5   3 -19    0.15    0.51
   5   3 -19    0.32    1.16
   4   3 -19   -0.12    0.48
   4   3 -19    0.07    0.47
   3   3 -19    2.73    0.72
   3   3 -19    0.73    1.31
  -3  -3  19    1.98    1.84
   2   3 -19    0.97    0.49
   2   3 -19    0.27    0.96
  -2  -3  19    1.02    1.28
   1   3 -19    8.03    3.44
   1   3 -19    5.97    0.97
  -1  -3  19    4.51    2.41
  -1  -3  19    4.94    0.81
   0   3 -19   17.41    4.72
   0   3 -19   19.86    1.11
   0   3 -19   21.43    1.81
   0  -3  19   19.97    4.47
   0  -3  19   19.31    1.14
  -1   3 -19    5.18    0.67
  -1   3 -19    3.77    0.97
  -1   3 -19    3.49    1.99
   1  -3  19    6.74    0.73
   1  -3  19    5.32    2.45
  -2   3 -19    1.49    0.71
   2  -3  19    5.06    2.88
   2  -3  19    1.18    0.29
   2  -3  19    0.10    0.20
   3  -3  19   12.16    3.97
   4  -3  19    0.36    1.23
   6   2 -19   -0.02    1.08
   5   2 -19    0.04    0.51
   5   2 -19    0.35    0.47
   5   2 -19   -0.09    0.96
   4   2 -19   -0.24    0.45
   4   2 -19    0.13    0.37
   4   2 -19    1.08    1.31
  -4  -2  19    0.14    1.24
   3   2 -19    3.29    0.85
   3   2 -19    1.92    0.64
   3   2 -19    0.53    0.93
  -3  -2  19    0.31    1.25
   2   2 -19   12.48    4.72
   2   2 -19    6.62    0.93
   2   2 -19    7.18    1.17
   1   2 -19    8.93    1.34
  -1  -2  19    8.19    1.00
  -1  -2  19    5.50    2.98
   0   2 -19    1.72    0.79
   0   2 -19    0.33    0.35
   0  -2  19    0.14    0.34
   0  -2  19    1.28    2.11
  -1   2 -19    5.85    1.15
  -1   2 -19    5.95    0.73
   1  -2  19    6.52    0.76
  -2   2 -19    8.79    1.43
   2  -2  19    5.59    2.70
   2  -2  19   10.70    3.87
   2  -2  19    8.72    0.97
   2  -2  19    6.94    0.70
   3  -2  19    0.05    0.20
   3  -2  19    1.32    1.80
   4  -2  19   -0.12    0.90
   7   1 -19   -0.38    1.18
   7   1 -19    1.35    0.78
   6   1 -19    3.21    2.26
   6   1 -19    0.58    0.51
   5   1 -19    9.62    3.48
   5   1 -19    5.45    1.02
   5   1 -19    7.07    1.16
   4   1 -19   23.04    1.55
   4   1 -19   21.20    1.65
   4   1 -19   21.17    5.03
   3   1 -19   10.23    3.37
   3   1 -19    7.15    1.15
   3   1 -19    6.33    0.92
   2   1 -19   11.54    1.22
   2   1 -19   11.68    4.21
   2   1 -19    9.90    1.37
  -2  -1  19    6.68    3.49
   1   1 -19   48.30    8.26
   1   1 -19   34.28    1.64
   1   1 -19   36.03    2.09
  -1  -1  19   35.35    1.66
  -1  -1  19   32.48    5.99
   0   1 -19    4.32    0.70
   0   1 -19    4.76    1.03
   0   1 -19    4.77    2.40
   0  -1  19    4.73    0.77
   0  -1  19    4.68    3.22
  -1   1 -19    5.77    0.79
  -1   1 -19    2.88    0.91
   1  -1  19    4.24    0.69
  -2   1 -19    0.88    0.65
   2  -1  19    1.05    0.43
   2  -1  19    1.62    0.50
   2  -1  19    4.37    2.68
   3  -1  19    2.34    2.37
   4  -1  19    2.02    2.14
   7   0 -19   14.66    1.53
   7   0 -19   12.54    4.01
   6   0 -19   12.34    1.85
   6   0 -19   17.89    4.94
   6   0 -19   12.64    1.50
   5   0 -19    2.79    0.81
   5   0 -19    4.06    0.96
   5   0 -19    2.94    1.97
   4   0 -19   20.67    1.47
   4   0 -19   21.32    5.07
   4   0 -19   22.47    1.62
   3   0 -19    9.68    1.36
   3   0 -19   10.29    1.24
   3   0 -19   10.17    3.35
   2   0 -19    0.59    0.38
   2   0 -19    0.63    1.05
   2   0 -19    0.75    0.55
   1   0 -19    1.42    0.72
   1   0 -19    1.17    1.10
   1   0 -19    1.33    0.49
  -1   0  19    2.21    0.62
   0   0 -19    1.32    1.44
   0   0 -19    0.84    0.46
   0   0 -19    3.61    1.42
   0   0  19    0.42    0.38
  -1   0 -19    4.03    0.98
   1   0  19    7.53    3.56
   1   0  19    4.61    0.78
  -2   0 -19    0.68    0.72
   2   0  19    0.37    0.42
   2   0  19    2.42    1.94
   2   0  19    0.47    0.76
   3   0  19   13.70    1.08
   3   0  19   12.01    3.83
   7  -1 -19    0.79    1.34
   7  -1 -19    0.41    0.57
   6  -1 -19    3.93    0.91
   6  -1 -19    1.85    0.73
   6  -1 -19    2.14    1.90
   5  -1 -19    5.58    1.03
   5  -1 -19    4.23    0.88
   5  -1 -19    5.90    2.85
   4  -1 -19   -0.14    0.35
   4  -1 -19    0.63    0.52
   4  -1 -19    0.60    0.97
   3  -1 -19    0.45    0.54
   3  -1 -19    1.92    1.57
   3  -1 -19    0.77    0.47
   2  -1 -19   -0.08    0.40
   2  -1 -19   -0.08    0.36
   2  -1 -19    0.01    0.82
   1  -1 -19    0.23    0.47
   1  -1 -19    0.02    0.70
   1  -1 -19    0.06    0.34
   0  -1 -19    4.00    0.78
   0  -1 -19    5.11    1.10
  -1  -1 -19    6.99    1.31
   1   1  19    5.57    2.79
   1   1  19    4.14    0.88
   2   1  19    1.00    0.54
   2   1  19    0.03    1.14
   3   1  19    0.04    0.44
   3   1  19   -0.12    1.06
   7  -2 -19    3.75    0.83
   7  -2 -19    5.37    2.49
   6  -2 -19    1.21    1.38
   6  -2 -19    0.77    0.55
   5  -2 -19    0.16    0.44
   5  -2 -19    0.65    0.53
   5  -2 -19   -0.08    0.87
   4  -2 -19    0.56    0.57
   4  -2 -19    0.50    0.56
   4  -2 -19    0.18    1.75
   3  -2 -19    0.72    1.89
   3  -2 -19    2.17    0.70
   3  -2 -19    0.87    0.58
   2  -2 -19    1.18    0.57
   2  -2 -19    0.51    0.51
   2  -2 -19    1.14    1.86
   1  -2 -19    8.69    1.11
   0  -2 -19    5.01    0.90
   0  -2 -19    5.34    1.05
   0   2  19    9.75    3.58
   1   2  19   -0.08    0.55
   1   2  19   -0.08    0.95
   2   2  19    6.46    2.92
   2   2  19    4.85    0.89
   7  -3 -19    1.30    0.59
   7  -3 -19    2.38    2.04
   6  -3 -19    1.84    0.63
   6  -3 -19    5.57    2.85
   5  -3 -19   -0.22    0.39
   5  -3 -19    1.58    1.59
   5  -3 -19    0.09    0.43
   4  -3 -19   15.24    1.62
   4  -3 -19   18.04    4.38
   4  -3 -19   17.30    1.76
   3  -3 -19   26.02    5.56
   3  -3 -19   20.48    1.60
   2  -3 -19    0.22    0.87
   2  -3 -19    0.57    0.49
   1  -3 -19   12.89    1.41
   1  -3 -19   16.02    1.81
   0   3  19   11.44    1.47
   0   3  19    5.23    2.55
   1   3  19    0.22    0.74
   7  -4 -19    3.83    0.84
   7  -4 -19    0.99    1.54
   6  -4 -19    6.22    2.69
   6  -4 -19    9.31    1.21
   5  -4 -19    2.89    1.94
   5  -4 -19    0.33    0.47
   4  -4 -19    0.57    0.54
   4  -4 -19    0.17    0.54
   4  -4 -19    1.12    1.80
   3  -4 -19    7.00    1.82
   3  -4 -19   10.19    3.23
   3  -4 -19    6.10    1.11
   2  -4 -19    2.24    0.76
   2  -4 -19    1.02    0.65
   0   4  19   -0.20    0.54
   6  -5 -19    1.18    0.72
   5  -5 -19    6.45    1.06
   5  -5 -19   14.22    4.05
   4  -5 -19    3.90    2.04
   3  -5 -19    0.29    0.59
   1   6 -20    0.38    0.42
   2  -6  20    0.26    1.46
   3   5 -20    1.70    0.67
   2   5 -20    1.05    0.48
   1   5 -20    1.06    0.49
  -1  -5  20   -0.04    0.52
   0   5 -20    0.20    0.36
   2  -5  20    8.93    3.48
   3  -5  20    4.41    2.79
   4   4 -20    2.16    0.74
   3   4 -20    4.79    0.94
   3   4 -20    8.47    3.67
   2   4 -20    0.02    0.39
   2   4 -20   -0.32    0.90
   1   4 -20   19.72    2.71
   1   4 -20   20.88    5.46
   1   4 -20   15.08    1.11
  -1  -4  20   15.10    1.19
   0   4 -20   14.34    4.31
   0   4 -20   18.27    1.09
   0  -4  20   16.06    1.09
  -1   4 -20    1.17    0.36
  -1   4 -20    1.58    1.71
   2  -4  20    3.15    2.36
   3  -4  20   11.34    3.85
   5   3 -20    0.05    1.18
   5   3 -20    0.54    0.76
   4   3 -20    0.56    1.15
   4   3 -20    2.04    0.70
   4   3 -20    1.75    0.76
   3   3 -20   15.72    1.84
   3   3 -20   16.50    1.61
   2   3 -20    2.91    0.67
   2   3 -20    2.55    2.02
   2   3 -20    3.75    0.95
   1   3 -20    1.88    0.73
   1   3 -20    2.66    0.63
   1   3 -20    0.51    1.07
  -1  -3  20    2.74    0.67
   0   3 -20    3.11    0.60
   0   3 -20    3.03    0.92
   0   3 -20    3.79    2.29
   0  -3  20    4.70    0.77
  -1   3 -20    6.48    1.64
  -1   3 -20    2.75    0.52
   1  -3  20    4.25    0.62
   2  -3  20   -0.31    0.85
   2  -3  20    0.18    0.25
   3  -3  20    0.10    1.11
   6   2 -20    2.58    2.37
   6   2 -20    1.06    0.75
   5   2 -20    8.06    3.39
   5   2 -20    5.52    1.06
   5   2 -20    6.13    1.21
   4   2 -20    6.79    1.32
   4   2 -20    4.46    2.50
   3   2 -20    2.34    2.32
   3   2 -20   -0.05    0.31
   3   2 -20    0.07    0.54
   2   2 -20    5.70    1.16
   2   2 -20    5.54    2.69
   2   2 -20    5.18    0.86
  -2  -2  20    4.93    2.74
   1   2 -20   11.19    1.50
   1   2 -20   11.65    1.17
   1   2 -20    6.07    2.55
  -1  -2  20   12.37    3.67
  -1  -2  20    9.35    1.09
   0   2 -20   -0.05    0.50
   0   2 -20    4.42    2.35
   0   2 -20    0.33    0.38
   0  -2  20    0.65    0.41
   0  -2  20   -0.04    1.27
  -1   2 -20    0.21    0.53
  -1   2 -20    0.22    0.36
   1  -2  20    0.11    0.33
   2  -2  20    0.45    0.33
   2  -2  20   -0.22    0.85
   3  -2  20    0.62    1.55
   6   1 -20    1.44    2.03
   6   1 -20    1.87    0.93
   5   1 -20   17.45    5.45
   5   1 -20   12.95    1.60
   5   1 -20    8.31    1.26
   4   1 -20   18.98    1.61
   4   1 -20   25.15    5.96
   4   1 -20   19.20    1.55
   3   1 -20    1.92    0.66
   3   1 -20    0.95    0.67
   3   1 -20    2.11    1.93
   2   1 -20    8.31    3.29
   2   1 -20    8.23    1.09
   2   1 -20    6.41    1.86
   1   1 -20    2.01    1.57
   1   1 -20    1.06    0.67
   1   1 -20    1.21    0.51
  -1  -1  20    0.80    0.46
   0   1 -20    2.30    0.79
   0   1 -20    4.90    0.98
   0   1 -20    4.05    2.55
   0  -1  20    2.70    0.62
  -1   1 -20    1.59    0.52
  -1   1 -20    0.85    0.64
   1  -1  20    1.18    0.49
   2  -1  20    2.80    2.41
   3  -1  20   11.05    3.55
   6   0 -20    1.04    0.68
   6   0 -20    3.02    2.66
   5   0 -20    0.40    0.52
   5   0 -20    1.00    0.62
   5   0 -20    1.06    1.25
   4   0 -20   -0.21    0.45
   4   0 -20   -0.06    0.42
   4   0 -20    1.23    1.52
   3   0 -20    7.20    1.06
   3   0 -20    7.42    1.25
   3   0 -20   14.93    4.75
   2   0 -20    1.68    0.85
   2   0 -20    1.03    1.28
   2   0 -20    1.21    0.54
   1   0 -20    2.77    0.81
   1   0 -20    1.75    0.61
   1   0 -20    1.52    1.68
   0   0 -20   17.60    1.86
   0   0 -20   23.69    1.38
   0   0  20   18.46    1.49
   1   0  20    8.68    3.28
   1   0  20    5.08    0.80
   1   0  20    8.44    1.04
   2   0  20   -0.28    0.98
   3   0  20    1.05    2.06
   7  -1 -20    1.06    0.66
   7  -1 -20    1.90    2.20
   6  -1 -20   -0.52    0.84
   6  -1 -20    0.03    0.97
   5  -1 -20    1.44    1.65
   5  -1 -20    0.98    0.60
   5  -1 -20    0.48    0.49
   4  -1 -20    0.50    0.56
   4  -1 -20    1.26    1.75
   3  -1 -20    1.56    1.61
   3  -1 -20    1.51    0.69
   3  -1 -20    1.29    0.61
   2  -1 -20    6.55    1.07
   2  -1 -20    5.81    2.95
   1  -1 -20    3.76    0.80
   1  -1 -20    5.26    1.09
   1  -1 -20    6.44    3.04
   0  -1 -20    0.97    0.60
   0  -1 -20   -0.13    0.35
   1   1  20    2.29    0.71
   1   1  20    5.58    3.17
   2   1  20    1.93    1.86
   2   1  20    1.19    0.61
   7  -2 -20    0.35    1.28
   7  -2 -20    2.14    0.73
   6  -2 -20    0.31    0.56
   6  -2 -20    1.14    1.35
   5  -2 -20    4.87    1.03
   5  -2 -20    5.13    2.93
   5  -2 -20    5.07    0.99
   4  -2 -20   18.11    1.52
   4  -2 -20   18.91    1.52
   4  -2 -20   18.33    4.75
   3  -2 -20    5.43    1.59
   3  -2 -20    4.05    0.96
   3  -2 -20    4.78    2.46
   2  -2 -20    1.85    0.71
   2  -2 -20    0.73    0.56
   2  -2 -20    0.34    1.05
   1  -2 -20   10.47    1.40
   1  -2 -20   11.77    1.35
   0   2  20    9.73    3.73
   1   2  20    0.47    0.59
   1   2  20    1.71    2.04
   6  -3 -20   11.69    1.34
   6  -3 -20    9.41    3.43
   5  -3 -20   -0.15    1.13
   5  -3 -20    0.79    0.57
   4  -3 -20   11.87    1.50
   4  -3 -20   15.29    4.45
   4  -3 -20   11.14    1.40
   3  -3 -20    8.50    1.23
   3  -3 -20    8.97    1.39
   3  -3 -20   17.78    4.73
   2  -3 -20    1.63    0.71
   2  -3 -20    1.62    0.68
   2  -3 -20    1.06    1.49
   1  -3 -20    2.76    0.74
  -1   3  20    3.00    2.29
   0   3  20    1.01    0.69
   6  -4 -20    1.59    0.70
   6  -4 -20   -0.06    1.05
   5  -4 -20    0.99    0.61
   5  -4 -20    0.22    1.28
   4  -4 -20   -0.09    0.65
   4  -4 -20    0.06    1.01
   3  -4 -20    2.64    1.79
   3  -4 -20    0.98    0.69
   4  -5 -20   -0.02    1.52
   4  -5 -20    1.03    0.73
   1   5 -21   12.92    1.27
   3   4 -21    7.40    1.21
   2   4 -21    0.64    0.48
   1   4 -21    6.02    3.95
   1   4 -21    8.33    1.02
   0   4 -21   12.08    0.95
   2  -4  21    2.58    2.57
   4   3 -21    0.70    0.53
   4   3 -21    1.04    1.92
   3   3 -21    1.11    1.35
   3   3 -21    3.49    0.87
   2   3 -21    0.55    0.47
   2   3 -21    1.04    1.37
   1   3 -21    1.12    0.54
  -1  -3  21    0.51    0.57
   0   3 -21    0.95    0.47
   0  -3  21    0.93    0.55
  -1   3 -21    1.11    0.44
   2  -3  21    0.37    1.27
   5   2 -21    6.46    1.38
   5   2 -21    7.73    3.59
   4   2 -21    4.68    1.12
   4   2 -21    5.87    2.84
   4   2 -21    5.56    1.02
   3   2 -21    0.14    0.44
   3   2 -21   -0.32    0.91
   3   2 -21    0.32    0.57
   2   2 -21    1.95    1.53
   2   2 -21    2.73    0.71
   2   2 -21    2.15    0.82
   1   2 -21    1.36    1.88
   1   2 -21    0.36    0.54
   1   2 -21    1.88    0.56
   0   2 -21    0.75    1.45
   0  -2  21    0.69    0.47
  -1   2 -21   -0.05    0.32
   2  -2  21    2.43    1.94
   5   1 -21    1.47    1.78
   5   1 -21    0.78    0.69
   4   1 -21    0.42    0.54
   4   1 -21   -0.02    0.54
   4   1 -21   -0.22    0.93
   3   1 -21    5.93    0.99
   3   1 -21    6.98    1.20
   3   1 -21    6.46    2.86
   2   1 -21    0.48    0.55
   2   1 -21    1.46    1.98
   2   1 -21    0.56    0.43
   1   1 -21   10.18    1.20
   1   1 -21    7.53    3.03
   1   1 -21    9.50    1.41
   0   1 -21    8.64    3.14
   0   1 -21   20.90    1.30
   0  -1  21   14.20    1.14
   1  -1  21    2.08    2.35
   2  -1  21    7.03    3.07
   2  -1  21    6.73    0.87
   6   0 -21    3.08    2.25
   5   0 -21    0.27    0.93
   5   0 -21    2.86    2.77
   4   0 -21    2.14    0.97
   4   0 -21    2.56    2.03
   4   0 -21    2.48    0.78
   3   0 -21   14.16    1.55
   3   0 -21   15.84    1.84
   3   0 -21   14.43    4.20
   2   0 -21   14.34    4.53
   2   0 -21    6.11    1.17
   2   0 -21    7.96    1.12
   1   0 -21    0.09    0.89
   1   0 -21    1.41    0.56
   1   0 -21    0.65    0.66
   0   0 -21    3.74    0.78
   1   0  21    3.42    2.40
   1   0  21    0.82    0.54
   2   0  21    1.34    0.56
   2   0  21    1.26    1.88
   6  -1 -21    0.04    0.99
   6  -1 -21    0.74    0.66
   5  -1 -21    3.26    0.98
   5  -1 -21    5.72    2.87
   4  -1 -21    3.73    0.87
   4  -1 -21    2.23    1.75
   4  -1 -21    2.93    1.30
   3  -1 -21   -0.65    0.45
   3  -1 -21    0.77    0.86
   3  -1 -21   -0.01    0.95
   2  -1 -21    3.47    0.81
   2  -1 -21    1.77    0.73
   2  -1 -21   10.38    4.22
   1  -1 -21    2.79    1.10
   1  -1 -21    3.45    2.60
   1  -1 -21    4.21    0.88
   0  -1 -21    0.06    0.44
   0   1  21    1.33    1.66
   1   1  21    0.11    1.40
   1   1  21    0.18    0.52
   6  -2 -21    3.10    2.11
   6  -2 -21    1.49    0.73
   5  -2 -21    4.94    2.54
   5  -2 -21    4.00    0.96
   4  -2 -21   12.01    1.74
   4  -2 -21   10.92    1.47
   4  -2 -21   11.45    4.22
   3  -2 -21   -0.13    0.90
   3  -2 -21    0.19    0.52
   3  -2 -21    0.48    0.52
   2  -2 -21    1.05    0.70
   2  -2 -21    0.89    0.56
   2  -2 -21    2.06    1.65
   0   2  21    1.34    0.65
   0   2  21    0.24    1.42
   5  -3 -21    0.34    1.05
   4  -3 -21    0.66    1.47
   4  -3 -21    0.74    0.66
   3  -3 -21    4.43    2.46
   3  -3 -21    3.42    0.96
   2  -3 -21    3.83    0.89
   1  -3 -21   -0.01    0.56
   4  -4 -21    0.09    0.62
   4  -4 -21    0.09    1.20
   3  -4 -21    2.40    1.80
   1   4 -22    0.21    0.40
   3   3 -22    0.01    1.39
   3   3 -22    0.33    0.49
   2   3 -22    2.02    2.14
   2   3 -22    1.60    0.60
   1   3 -22    0.83    1.42
   1   3 -22    0.29    0.40
   0   3 -22   -0.14    1.03
   4   2 -22    3.04    0.93
   4   2 -22    4.59    2.68
   3   2 -22    0.40    1.34
   3   2 -22    2.93    0.99
   2   2 -22    0.95    1.57
   2   2 -22    2.79    0.72
   1   2 -22    4.76    2.51
   1   2 -22    9.69    1.14
   0   2 -22    4.58    2.59
   0   2 -22    6.51    0.89
   1  -2  22   -0.55    0.94
   4   1 -22   11.69    1.54
   4   1 -22   12.97    4.27
   3   1 -22   17.28    2.07
   3   1 -22   30.47    6.84
   2   1 -22    0.13    0.42
   2   1 -22    0.12    1.19
   1   1 -22    7.76    3.87
   1   1 -22    7.03    1.03
   0   1 -22    8.91    1.11
   1  -1  22   -0.01    1.13
   1  -1  22   -0.02    0.58
   5   0 -22    1.57    0.81
   5   0 -22   -0.16    1.04
   4   0 -22    0.82    0.72
   4   0 -22    0.43    0.53
   4   0 -22    2.03    1.98
   3   0 -22    0.34    0.48
   3   0 -22    0.24    0.68
   2   0 -22    0.11    0.42
   2   0 -22   -0.17    1.11
   1   0 -22    0.08    0.43
   0   0 -22    0.33    0.51
   1   0  22    2.93    2.60
   1   0  22    2.63    0.72
   5  -1 -22    1.38    0.74
   5  -1 -22    1.64    1.63
   4  -1 -22    8.89    3.59
   3  -1 -22   -0.29    0.38
   3  -1 -22    1.02    0.88
   3  -1 -22    0.74    1.45
   2  -1 -22   -0.17    1.21
   2  -1 -22   -0.41    0.42
   1  -1 -22    0.20    0.49
   0   1  22    0.66    1.47
   4  -2 -22    0.16    1.45
   4  -2 -22    0.84    0.66
   3  -2 -22    9.71    3.71
   2  -2 -22    2.40    1.99
   2  -2 -22    1.06    0.64
   1  -2 -22    3.13    0.82
   2   2 -23   -0.04    1.30
   1   2 -23   11.54    4.10
   1   2 -23   10.42    1.23
   3   1 -23    0.52    0.54
   3   1 -23   -0.03    1.47
   2   1 -23    1.02    0.99
   2   1 -23    2.26    2.39
   1   1 -23    0.48    0.48
   1   1 -23    0.58    1.26
   3   0 -23    1.00    1.64
   3   0 -23   -0.08    0.49
   2   0 -23    3.34    0.82
   2   0 -23    0.67    1.42
   0   0   0    0.00    0.00
;
_shelx_hkl_checksum              68241
loop_
_space_group_symop_operation_xyz
'x, y, z'
'-x, -y, -z'
loop_
_atom_site_label
_atom_site_type_symbol
_atom_site_fract_x
_atom_site_fract_y
_atom_site_fract_z
_atom_site_U_iso_or_equiv
_atom_site_adp_type
_atom_site_occupancy
_atom_site_site_symmetry_order
_atom_site_calc_flag
_atom_site_refinement_flags_posn
_atom_site_refinement_flags_adp
_atom_site_refinement_flags_occupancy
_atom_site_disorder_assembly
_atom_site_disorder_group
Zn1 Zn 0.31052(6) 0.24782(6) 0.32124(3) 0.02462(13) Uani 1 1 d . . . . .
I1 I 0.30567(4) 0.53909(4) 0.38186(2) 0.03158(10) Uani 1 1 d . . . . .
I2 I 0.59840(4) 0.23071(4) 0.27597(2) 0.03151(10) Uani 1 1 d . . . . .
N1 N -0.1981(5) -0.0400(5) 0.1510(2) 0.0246(7) Uani 1 1 d . . . . .
N2 N 0.0670(5) 0.1008(4) 0.2378(2) 0.0236(7) Uani 1 1 d . . . . .
N3 N -0.0901(5) 0.1470(4) 0.0265(2) 0.0246(7) Uani 1 1 d . . . . .
N4 N 0.1990(5) 0.0537(5) 0.3906(2) 0.0268(8) Uani 1 1 d . . . . .
O1 O -0.3366(4) -0.0921(4) 0.08104(19) 0.0315(7) Uani 1 1 d . . . . .
H1 H -0.293(8) -0.032(7) 0.045(3) 0.047 Uiso 1 1 d . U . . .
C1 C -0.2169(6) -0.1221(5) 0.2188(3) 0.0258(9) Uani 1 1 d . . . . .
C2 C -0.0469(5) -0.0326(5) 0.2734(2) 0.0217(8) Uani 1 1 d . . . . .
C3 C -0.0268(6) 0.0917(5) 0.1626(2) 0.0235(9) Uani 1 1 d . . . . .
C4 C 0.0331(6) 0.1956(5) 0.0975(3) 0.0241(9) Uani 1 1 d . . . . .
C5 C 0.2097(6) 0.3365(6) 0.1093(3) 0.0272(9) Uani 1 1 d . . . . .
H5 H 0.295797 0.366631 0.160582 0.033 Uiso 1 1 calc R U . . .
C6 C 0.2536(6) 0.4286(6) 0.0450(3) 0.0286(9) Uani 1 1 d . . . . .
H6 H 0.370766 0.524493 0.051765 0.034 Uiso 1 1 calc R U . . .
C7 C 0.1252(6) 0.3812(6) -0.0310(3) 0.0253(9) Uani 1 1 d . . . . .
C8 C -0.0474(6) 0.2360(5) -0.0387(3) 0.0243(9) Uani 1 1 d . . . . .
C9 C 0.1596(6) 0.4695(6) -0.0997(3) 0.0286(9) Uani 1 1 d . . . . .
H9 H 0.274060 0.567414 -0.095508 0.034 Uiso 1 1 calc R U . . .
C10 C 0.0300(7) 0.4162(6) -0.1727(3) 0.0336(10) Uani 1 1 d . . . . .
H10 H 0.053828 0.478606 -0.218178 0.040 Uiso 1 1 calc R U . . .
C11 C -0.1377(6) 0.2689(6) -0.1797(3) 0.0303(10) Uani 1 1 d . . . . .
H11 H -0.224916 0.230074 -0.230776 0.036 Uiso 1 1 calc R U . . .
C12 C -0.1780(6) 0.1801(6) -0.1140(3) 0.0283(9) Uani 1 1 d . . . . .
H12 H -0.292892 0.081954 -0.119342 0.034 Uiso 1 1 calc R U . . .
C13 C 0.0257(6) -0.0653(5) 0.3547(3) 0.0250(9) Uani 1 1 d . . . . .
C14 C -0.0668(7) -0.2062(6) 0.3929(3) 0.0352(11) Uani 1 1 d . . . . .
H14 H -0.187413 -0.289357 0.366591 0.042 Uiso 1 1 calc R U . . .
C15 C 0.0175(7) -0.2256(7) 0.4699(3) 0.0372(11) Uani 1 1 d . . . . .
H15 H -0.044113 -0.322129 0.496761 0.045 Uiso 1 1 calc R U . . .
C16 C 0.1926(7) -0.1018(7) 0.5066(3) 0.0375(11) Uani 1 1 d . . . . .
H16 H 0.252787 -0.111090 0.559580 0.045 Uiso 1 1 calc R U . . .
C17 C 0.2795(6) 0.0364(6) 0.4650(3) 0.0310(10) Uani 1 1 d . . . . .
H17 H 0.400085 0.121226 0.490319 0.037 Uiso 1 1 calc R U . . .
C18 C -0.3907(6) -0.2708(6) 0.2240(3) 0.0326(10) Uani 1 1 d . . . . .
H18A H -0.373416 -0.383366 0.216075 0.049 Uiso 1 1 calc R U . . .
H18B H -0.493975 -0.272352 0.181306 0.049 Uiso 1 1 calc R U . . .
H18C H -0.419463 -0.254983 0.278162 0.049 Uiso 1 1 calc R U . . .
loop_
_atom_site_aniso_label
_atom_site_aniso_U_11
_atom_site_aniso_U_22
_atom_site_aniso_U_33
_atom_site_aniso_U_23
_atom_site_aniso_U_13
_atom_site_aniso_U_12
Zn1 0.0224(2) 0.0244(3) 0.0236(3) 0.0039(2) 0.00304(19) 0.0057(2)
I1 0.03948(18) 0.02654(17) 0.02875(17) 0.00429(12) 0.00978(13) 0.01139(13)
I2 0.02626(16) 0.03493(18) 0.03656(18) 0.01080(13) 0.00933(12) 0.01317(13)
N1 0.0205(17) 0.0285(19) 0.0227(17) 0.0045(15) 0.0003(14) 0.0086(15)
N2 0.0226(17) 0.0205(18) 0.0243(18) 0.0012(14) 0.0036(14) 0.0051(14)
N3 0.0246(18) 0.0211(18) 0.0260(19) 0.0023(15) 0.0014(15) 0.0083(15)
N4 0.0292(18) 0.029(2) 0.0251(18) 0.0062(15) 0.0076(15) 0.0131(16)
O1 0.0227(15) 0.0342(18) 0.0263(16) 0.0028(14) -0.0038(13) 0.0021(14)
C1 0.023(2) 0.024(2) 0.029(2) 0.0009(18) 0.0054(18) 0.0076(18)
C2 0.0212(19) 0.019(2) 0.024(2) 0.0018(17) 0.0060(16) 0.0061(17)
C3 0.023(2) 0.023(2) 0.023(2) 0.0010(17) 0.0043(16) 0.0079(17)
C4 0.021(2) 0.026(2) 0.025(2) 0.0018(18) 0.0034(17) 0.0095(18)
C5 0.025(2) 0.025(2) 0.026(2) 0.0004(18) 0.0010(18) 0.0055(18)
C6 0.025(2) 0.020(2) 0.035(2) 0.0018(18) 0.0055(18) 0.0028(18)
C7 0.027(2) 0.027(2) 0.024(2) 0.0050(18) 0.0079(18) 0.0114(19)
C8 0.026(2) 0.026(2) 0.025(2) 0.0031(17) 0.0042(17) 0.0141(18)
C9 0.027(2) 0.028(2) 0.030(2) 0.0057(19) 0.0077(18) 0.0097(19)
C10 0.035(2) 0.042(3) 0.031(2) 0.013(2) 0.012(2) 0.019(2)
C11 0.034(2) 0.041(3) 0.022(2) 0.004(2) 0.0030(18) 0.023(2)
C12 0.027(2) 0.026(2) 0.030(2) 0.0030(19) 0.0024(18) 0.0106(19)
C13 0.026(2) 0.023(2) 0.028(2) 0.0047(18) 0.0071(18) 0.0107(18)
C14 0.031(2) 0.031(3) 0.048(3) 0.011(2) 0.014(2) 0.013(2)
C15 0.049(3) 0.040(3) 0.035(3) 0.018(2) 0.021(2) 0.024(2)
C16 0.046(3) 0.044(3) 0.030(3) 0.010(2) 0.011(2) 0.023(2)
C17 0.031(2) 0.039(3) 0.023(2) 0.003(2) 0.0059(18) 0.014(2)
C18 0.022(2) 0.031(3) 0.039(3) 0.007(2) 0.0033(19) 0.0043(19)
loop_
_atom_type_symbol
_atom_type_description
_atom_type_scat_dispersion_real
_atom_type_scat_dispersion_imag
_atom_type_scat_source
C C 0.0033 0.0016 'International Tables Vol C Tables 4.2.6.8 and 6.1.1.4'
H H 0.0000 0.0000 'International Tables Vol C Tables 4.2.6.8 and 6.1.1.4'
I I -0.4742 1.8119 'International Tables Vol C Tables 4.2.6.8 and 6.1.1.4'
N N 0.0061 0.0033 'International Tables Vol C Tables 4.2.6.8 and 6.1.1.4'
O O 0.0106 0.0060 'International Tables Vol C Tables 4.2.6.8 and 6.1.1.4'
Zn Zn 0.2839 1.4301 'International Tables Vol C Tables 4.2.6.8 and 6.1.1.4'
loop_
_geom_angle_atom_site_label_1
_geom_angle_atom_site_label_2
_geom_angle_atom_site_label_3
_geom_angle
_geom_angle_site_symmetry_1
_geom_angle_site_symmetry_3
_geom_angle_publ_flag
N4 Zn1 N2 81.83(14) . . ?
N4 Zn1 I1 109.60(10) . . ?
N2 Zn1 I1 111.64(9) . . ?
N4 Zn1 I2 112.64(10) . . ?
N2 Zn1 I2 112.43(10) . . ?
I1 Zn1 I2 121.74(2) . . ?
C3 N1 C1 110.5(3) . . ?
C3 N1 O1 127.0(3) . . ?
C1 N1 O1 122.5(3) . . ?
C3 N2 C2 106.8(3) . . ?
C3 N2 Zn1 143.1(3) . . ?
C2 N2 Zn1 110.0(3) . . ?
C4 N3 C8 119.5(4) . . ?
C17 N4 C13 119.2(4) . . ?
C17 N4 Zn1 126.6(3) . . ?
C13 N4 Zn1 114.2(3) . . ?
N1 O1 H1 108(4) . . ?
N1 C1 C2 104.1(4) . . ?
N1 C1 C18 122.5(4) . . ?
C2 C1 C18 133.4(4) . . ?
N2 C2 C1 109.5(4) . . ?
N2 C2 C13 119.3(4) . . ?
C1 C2 C13 131.0(4) . . ?
N2 C3 N1 109.0(4) . . ?
N2 C3 C4 129.2(4) . . ?
N1 C3 C4 121.7(4) . . ?
N3 C4 C5 122.7(4) . . ?
N3 C4 C3 114.9(4) . . ?
C5 C4 C3 122.4(4) . . ?
C6 C5 C4 118.5(4) . . ?
C6 C5 H5 120.8 . . ?
C4 C5 H5 120.8 . . ?
C5 C6 C7 120.2(4) . . ?
C5 C6 H6 119.9 . . ?
C7 C6 H6 119.9 . . ?
C6 C7 C9 123.6(4) . . ?
C6 C7 C8 118.1(4) . . ?
C9 C7 C8 118.4(4) . . ?
N3 C8 C12 118.7(4) . . ?
N3 C8 C7 121.0(4) . . ?
C12 C8 C7 120.3(4) . . ?
C10 C9 C7 121.1(4) . . ?
C10 C9 H9 119.5 . . ?
C7 C9 H9 119.5 . . ?
C9 C10 C11 119.6(4) . . ?
C9 C10 H10 120.2 . . ?
C11 C10 H10 120.2 . . ?
C12 C11 C10 121.2(4) . . ?
C12 C11 H11 119.4 . . ?
C10 C11 H11 119.4 . . ?
C11 C12 C8 119.3(4) . . ?
C11 C12 H12 120.3 . . ?
C8 C12 H12 120.3 . . ?
N4 C13 C14 121.2(4) . . ?
N4 C13 C2 114.0(4) . . ?
C14 C13 C2 124.7(4) . . ?
C13 C14 C15 119.7(5) . . ?
C13 C14 H14 120.2 . . ?
C15 C14 H14 120.2 . . ?
C16 C15 C14 118.7(5) . . ?
C16 C15 H15 120.6 . . ?
C14 C15 H15 120.6 . . ?
C15 C16 C17 119.1(4) . . ?
C15 C16 H16 120.5 . . ?
C17 C16 H16 120.5 . . ?
N4 C17 C16 122.1(4) . . ?
N4 C17 H17 119.0 . . ?
C16 C17 H17 119.0 . . ?
C1 C18 H18A 109.5 . . ?
C1 C18 H18B 109.5 . . ?
H18A C18 H18B 109.5 . . ?
C1 C18 H18C 109.5 . . ?
H18A C18 H18C 109.5 . . ?
H18B C18 H18C 109.5 . . ?
loop_
_geom_bond_atom_site_label_1
_geom_bond_atom_site_label_2
_geom_bond_distance
_geom_bond_site_symmetry_2
_geom_bond_publ_flag
Zn1 N4 2.051(4) . ?
Zn1 N2 2.058(3) . ?
Zn1 I1 2.5362(6) . ?
Zn1 I2 2.5520(5) . ?
N1 C3 1.355(5) . ?
N1 C1 1.356(5) . ?
N1 O1 1.375(4) . ?
N2 C3 1.325(5) . ?
N2 C2 1.380(5) . ?
N3 C4 1.328(5) . ?
N3 C8 1.371(5) . ?
N4 C17 1.335(5) . ?
N4 C13 1.356(5) . ?
O1 H1 0.84(6) . ?
C1 C2 1.391(6) . ?
C1 C18 1.483(6) . ?
C2 C13 1.460(6) . ?
C3 C4 1.460(6) . ?
C4 C5 1.416(6) . ?
C5 C6 1.373(6) . ?
C5 H5 0.9500 . ?
C6 C7 1.411(6) . ?
C6 H6 0.9500 . ?
C7 C9 1.407(6) . ?
C7 C8 1.419(6) . ?
C8 C12 1.408(6) . ?
C9 C10 1.376(6) . ?
C9 H9 0.9500 . ?
C10 C11 1.405(7) . ?
C10 H10 0.9500 . ?
C11 C12 1.374(6) . ?
C11 H11 0.9500 . ?
C12 H12 0.9500 . ?
C13 C14 1.381(6) . ?
C14 C15 1.388(7) . ?
C14 H14 0.9500 . ?
C15 C16 1.382(7) . ?
C15 H15 0.9500 . ?
C16 C17 1.390(7) . ?
C16 H16 0.9500 . ?
C17 H17 0.9500 . ?
C18 H18A 0.9800 . ?
C18 H18B 0.9800 . ?
C18 H18C 0.9800 . ?
loop_
_geom_torsion_atom_site_label_1
_geom_torsion_atom_site_label_2
_geom_torsion_atom_site_label_3
_geom_torsion_atom_site_label_4
_geom_torsion
_geom_torsion_site_symmetry_1
_geom_torsion_site_symmetry_2
_geom_torsion_site_symmetry_3
_geom_torsion_site_symmetry_4
_geom_torsion_publ_flag
C3 N1 C1 C2 0.2(4) . . . . ?
O1 N1 C1 C2 178.7(3) . . . . ?
C3 N1 C1 C18 179.5(4) . . . . ?
O1 N1 C1 C18 -2.0(6) . . . . ?
C3 N2 C2 C1 -1.7(4) . . . . ?
Zn1 N2 C2 C1 175.3(3) . . . . ?
C3 N2 C2 C13 174.8(3) . . . . ?
Zn1 N2 C2 C13 -8.3(4) . . . . ?
N1 C1 C2 N2 0.9(4) . . . . ?
C18 C1 C2 N2 -178.3(4) . . . . ?
N1 C1 C2 C13 -175.0(4) . . . . ?
C18 C1 C2 C13 5.8(8) . . . . ?
C2 N2 C3 N1 1.8(4) . . . . ?
Zn1 N2 C3 N1 -173.5(3) . . . . ?
C2 N2 C3 C4 -176.3(4) . . . . ?
Zn1 N2 C3 C4 8.5(8) . . . . ?
C1 N1 C3 N2 -1.3(5) . . . . ?
O1 N1 C3 N2 -179.7(3) . . . . ?
C1 N1 C3 C4 177.0(4) . . . . ?
O1 N1 C3 C4 -1.4(6) . . . . ?
C8 N3 C4 C5 -0.4(6) . . . . ?
C8 N3 C4 C3 -180.0(3) . . . . ?
N2 C3 C4 N3 175.9(4) . . . . ?
N1 C3 C4 N3 -2.0(6) . . . . ?
N2 C3 C4 C5 -3.7(7) . . . . ?
N1 C3 C4 C5 178.4(4) . . . . ?
N3 C4 C5 C6 1.2(6) . . . . ?
C3 C4 C5 C6 -179.2(4) . . . . ?
C4 C5 C6 C7 -0.7(6) . . . . ?
C5 C6 C7 C9 179.7(4) . . . . ?
C5 C6 C7 C8 -0.6(6) . . . . ?
C4 N3 C8 C12 178.6(4) . . . . ?
C4 N3 C8 C7 -1.0(6) . . . . ?
C6 C7 C8 N3 1.5(6) . . . . ?
C9 C7 C8 N3 -178.8(4) . . . . ?
C6 C7 C8 C12 -178.1(4) . . . . ?
C9 C7 C8 C12 1.5(6) . . . . ?
C6 C7 C9 C10 179.2(4) . . . . ?
C8 C7 C9 C10 -0.4(6) . . . . ?
C7 C9 C10 C11 -1.4(6) . . . . ?
C9 C10 C11 C12 2.2(7) . . . . ?
C10 C11 C12 C8 -1.0(6) . . . . ?
N3 C8 C12 C11 179.5(4) . . . . ?
C7 C8 C12 C11 -0.8(6) . . . . ?
C17 N4 C13 C14 -1.6(6) . . . . ?
Zn1 N4 C13 C14 178.6(3) . . . . ?
C17 N4 C13 C2 -179.8(4) . . . . ?
Zn1 N4 C13 C2 0.4(4) . . . . ?
N2 C2 C13 N4 5.5(5) . . . . ?
C1 C2 C13 N4 -179.0(4) . . . . ?
N2 C2 C13 C14 -172.7(4) . . . . ?
C1 C2 C13 C14 2.9(7) . . . . ?
N4 C13 C14 C15 0.9(7) . . . . ?
C2 C13 C14 C15 178.9(4) . . . . ?
C13 C14 C15 C16 0.3(7) . . . . ?
C14 C15 C16 C17 -0.8(7) . . . . ?
C13 N4 C17 C16 1.1(6) . . . . ?
Zn1 N4 C17 C16 -179.2(3) . . . . ?
C15 C16 C17 N4 0.1(7) . . . . ?
